data_PCOD9543113
_publ_section_title
;
Structure prediction by ZEFSAII (Michael W. Deem and Ramdas Pophale) SiO2 
 PCOD9543113
Probable space group: I -4 
;
_chemical_formula_sum "Si O2"
_cell_formula_units_Z 38
_cell_length_a 8.133071
_cell_length_b 8.133071
_cell_length_c 24.149582
_cell_angle_alpha 90.000000
_cell_angle_beta 90.000000
_cell_angle_gamma 90.000000
_cell_volume 1597.418631
_symmetry_space_group_name_H-M "I -4 "
_symmetry_group_IT_number 82
_symmetry_cell_setting 'tetragonal'
loop_
_space_group_symop_operation_xyz
x,y,z
y,-x,-z
-x,-y,z
-y,x,-z
1/2+x,1/2+y,1/2+z
1/2+y,1/2-x,1/2-z
1/2-x,1/2-y,1/2+z
1/2-y,1/2+x,1/2-z
loop_
_atom_site_type_symbol
_atom_site_label
_atom_site_fract_x
_atom_site_fract_y
_atom_site_fract_z
Si Si1 0.000000 0.000000 0.264892
Si Si2 0.604592 0.776066 0.552436
Si Si3 0.779094 0.622347 0.163955
Si Si4 0.500000 0.000000 0.750000
Si Si5 0.687307 0.991554 0.183093
Si Si6 0.235514 0.897711 0.065836
O O1 0.837154 0.021980 0.226337
O O2 0.995422 0.844215 0.306748
O O3 0.670058 0.895007 0.600374
O O4 0.679021 0.589123 0.556814
O O5 0.415556 0.729065 0.563639
O O6 0.635184 0.838628 0.490007
O O7 0.932163 0.630955 0.206399
O O8 0.705359 0.802630 0.165847
O O9 0.500000 0.000000 0.200002
O O10 0.700638 0.103442 0.128155
#
# Coordination Sequence:
#
# PCOD9543113 Si02
#       6
#     4   8   8   2   8   8
#     4  12  26  42  66 103 147 186 236 304 368 448
#     4   8  15  34  65 101 137 181 234 302 371 436
#     4  11  24  42  65  97 141 188 243 299 378 452
#     4  12  24  44  64  96 140 200 240 292 370 460
#     4  11  24  41  67 102 143 189 246 306 366 439
#     4   8  15  33  65 103 136 175 244 305 358 436
#
# _framework density 23.788377000000001
#
# number of rings (size 3 to 8) (size 9 to 14) (size 15 to 20)
#    0.000    2.105    2.105    3.789    2.947    0.000 
#    1.895    0.000    0.000    0.000    0.000    0.000 
#    0.000    0.000    0.000    0.000    0.000    0.000 
#
# Total GULP energy -105942.558229 kJ/mol
# GULP energy per Si atom -5575.924117 kJ/mol
# Density = 2.373423 g / cm^3
# Si number density = 23.788377 Si / 1000 Ang^3
#
#
#
# Elastic Constant Matrix: (Units=GPa)
#
#
# Indices 1 2 3 4 5 6 
#
# 1 75.5941 13.8737 64.0193 0.0000 0.0000 5.3184
# 2 13.8737 75.5941 64.0193 0.0000 0.0000 -5.3184
# 3 64.0193 64.0193 273.5880 0.0000 0.0000 0.0000
# 4 0.0000 0.0000 0.0000 22.5235 0.0000 0.0000
# 5 0.0000 0.0000 0.0000 0.0000 22.5235 0.0000
# 6 5.3184 -5.3184 0.0000 0.0000 0.0000 20.0493
#
#
#
# Elastic Compliance Matrix: (Units=1/GPa)
#
#
# Indices 1 2 3 4 5 6 
#
# 1 0.016892 -0.000087 -0.003932 0.000000 0.000000 -0.004504
# 2 -0.000087 0.016892 -0.003932 0.000000 0.000000 0.004504
# 3 -0.003932 -0.003932 0.005495 0.000000 0.000000 0.000000
# 4 0.000000 0.000000 0.000000 0.044398 0.000000 0.000000
# 5 0.000000 0.000000 0.000000 0.000000 0.044398 0.000000
# 6 -0.004504 0.004504 0.000000 0.000000 0.000000 0.052266
#
#
# Mechanical properties :
#
#
# Convention : Reuss Voigt Hill
#
# Bulk Modulus (GPa) = 42.77935 78.73342 60.75638
# Shear Modulus (GPa) = 24.50553 31.87687 28.19120
#
# Velocity S-wave (km/s) = 3.21307 3.66460 3.44624
# Velocity P-wave (km/s) = 5.63804 7.14668 6.43671
#
# Compressibility (1/GPa) = 0.02337576
#
# Stress axis : x y z
#
# Youngs Moduli (GPa) = 59.20135 59.20135 181.96927
#
# Poissons Ratio (x) = 0.00514 0.71556
# Poissons Ratio (y) = 0.00514 0.71556
# Poissons Ratio (z) = 0.23280 0.23280
#
# Static dielectric constant tensor:
#      x y z
#    x 1.783920 0.000000 0.000000 
#    y 0.000000 1.783920 0.000000 
#    z 0.000000 0.000000 1.997500 
# 
# From -- ./inp_files/3384.got.cif
#   From: 2010.05.17/outbox.cif.g08.bks.cpg/sg82_2_cif.got.tgz:3384.got - 2010.06.03 18:52:26.
