data_PCOD9543158
_publ_section_title
;
Structure prediction by ZEFSAII (Michael W. Deem and Ramdas Pophale) SiO2 
 PCOD9543158
Probable space group: I -4 
;
_chemical_formula_sum "Si O2"
_cell_formula_units_Z 28
_cell_length_a 10.879786
_cell_length_b 10.879786
_cell_length_c 10.320050
_cell_angle_alpha 90.000000
_cell_angle_beta 90.000000
_cell_angle_gamma 90.000000
_cell_volume 1221.581670
_symmetry_space_group_name_H-M "I -4 "
_symmetry_group_IT_number 82
_symmetry_cell_setting 'tetragonal'
loop_
_space_group_symop_operation_xyz
x,y,z
y,-x,-z
-x,-y,z
-y,x,-z
1/2+x,1/2+y,1/2+z
1/2+y,1/2-x,1/2-z
1/2-x,1/2-y,1/2+z
1/2-y,1/2+x,1/2-z
loop_
_atom_site_type_symbol
_atom_site_label
_atom_site_fract_x
_atom_site_fract_y
_atom_site_fract_z
Si Si1 0.934494 0.258504 0.093400
Si Si2 0.821316 0.549447 0.691787
Si Si3 0.000000 0.000000 0.500000
Si Si4 0.000000 0.000000 0.000000
Si Si5 0.702089 0.394303 0.185951
O O1 0.939060 0.110937 0.078817
O O2 0.798042 0.308070 0.112188
O O3 0.019708 0.279327 0.217296
O O4 0.982348 0.317291 0.959872
O O5 0.854283 0.430354 0.776555
O O6 0.693931 0.612546 0.731311
O O7 0.117843 0.972342 0.589287
#
# Coordination Sequence:
#
# PCOD9543158 Si02
#       5
#     8   8   2   2   8
#     4  12  27  47  77 112 156 202 264 316 399 450
#     4  11  26  48  77 110 155 206 259 323 385 468
#     4  12  30  52  74 120 156 214 264 322 388 452
#     4  12  22  48  76 106 152 206 248 316 386 468
#     4  12  29  46  80 112 158 200 263 327 385 469
#
# _framework density 22.921102999999999
#
# number of rings (size 3 to 8) (size 9 to 14) (size 15 to 20)
#    0.000    0.286    2.857    4.286    8.000    5.143 
#    0.000    0.000    0.000    0.000    0.000    0.000 
#    0.000    0.000    0.000    0.000    0.000    0.000 
#
# Total GULP energy -78428.777651 kJ/mol
# GULP energy per Si atom -5602.055546 kJ/mol
# Density = 2.286893 g / cm^3
# Si number density = 22.921103 Si / 1000 Ang^3
#
#
#
# Elastic Constant Matrix: (Units=GPa)
#
#
# Indices 1 2 3 4 5 6 
#
# 1 93.1306 25.1480 43.1613 0.0000 0.0000 -9.3431
# 2 25.1480 93.1306 43.1613 0.0000 0.0000 9.3431
# 3 43.1613 43.1613 118.2029 0.0000 0.0000 0.0000
# 4 0.0000 0.0000 0.0000 38.6687 0.0000 0.0000
# 5 0.0000 0.0000 0.0000 0.0000 38.6687 0.0000
# 6 -9.3431 9.3431 0.0000 0.0000 0.0000 60.7782
#
#
#
# Elastic Compliance Matrix: (Units=1/GPa)
#
#
# Indices 1 2 3 4 5 6 
#
# 1 0.013442 -0.001916 -0.004209 0.000000 0.000000 0.002361
# 2 -0.001916 0.013442 -0.004209 0.000000 0.000000 -0.002361
# 3 -0.004209 -0.004209 0.011534 0.000000 0.000000 0.000000
# 4 0.000000 0.000000 0.000000 0.025861 0.000000 0.000000
# 5 0.000000 0.000000 0.000000 0.000000 0.025861 0.000000
# 6 0.002361 -0.002361 0.000000 0.000000 0.000000 0.017179
#
#
# Mechanical properties :
#
#
# Convention : Reuss Voigt Hill
#
# Bulk Modulus (GPa) = 56.33444 58.60058 57.46751
# Shear Modulus (GPa) = 37.34032 40.48937 38.91485
#
# Velocity S-wave (km/s) = 4.04057 4.20750 4.12488
# Velocity P-wave (km/s) = 6.81169 7.01611 6.91465
#
# Compressibility (1/GPa) = 0.01775113
#
# Stress axis : x y z
#
# Youngs Moduli (GPa) = 74.39129 74.39129 86.70280
#
# Poissons Ratio (x) = 0.14255 0.36491
# Poissons Ratio (y) = 0.14255 0.36491
# Poissons Ratio (z) = 0.31310 0.31310
#
# Static dielectric constant tensor:
#      x y z
#    x 1.851920 0.000000 0.000000 
#    y 0.000000 1.851920 0.000000 
#    z 0.000000 0.000000 1.873200 
# 
# From -- ./inp_files/641.got.cif
#   From: 2010.05.17/outbox.cif.g08.bks.cpg/sg82_1_cif.got.tgz:641.got - 2010.06.03 18:52:26.
