data_PCOD9543712
_publ_section_title
;
Structure prediction by ZEFSAII (Michael W. Deem and Ramdas Pophale) SiO2 
 PCOD9543712
Probable space group: P 4/M
;
_chemical_formula_sum "Si O2"
_cell_formula_units_Z 44
_cell_length_a 8.211377
_cell_length_b 8.211377
_cell_length_c 29.775912
_cell_angle_alpha 90.000000
_cell_angle_beta 90.000000
_cell_angle_gamma 90.000000
_cell_volume 2007.691850
_symmetry_space_group_name_H-M "P 4/M"
_symmetry_group_IT_number 83
_symmetry_cell_setting 'tetragonal'
loop_
_space_group_symop_operation_xyz
x,y,z
-y,x,z
-x,-y,z
y,-x,z
-x,-y,-z
y,-x,-z
x,y,-z
-y,x,-z
loop_
_atom_site_type_symbol
_atom_site_label
_atom_site_fract_x
_atom_site_fract_y
_atom_site_fract_z
Si Si1 0.089030 0.738162 0.500000
Si Si2 0.412274 0.239078 0.949682
Si Si3 0.415845 0.238537 0.318539
Si Si4 0.586186 0.761881 0.218898
Si Si5 0.737705 0.915538 0.597157
Si Si6 0.922139 0.262063 0.865423
O O1 0.116586 0.656475 0.548302
O O2 0.902983 0.802886 0.500000
O O3 0.597260 0.302514 0.945748
O O4 0.360891 0.120461 0.910176
O O5 0.388078 0.171886 0.000000
O O6 0.599861 0.303557 0.321123
O O7 0.389073 0.166432 0.268810
O O8 0.369328 0.127654 0.360179
O O9 0.401511 0.696830 0.215471
O O10 0.636510 0.878198 0.178772
O O11 0.900191 0.803594 0.598944
O O12 0.104125 0.195122 0.865161
#
# Coordination Sequence:
#
# PCOD9543712 Si02
#       6
#     4   8   8   8   8   8
#     4   7  12  26  46  67  94 128 164 201 242 289
#     4   9  19  37  60  83 105 133 173 215 250 291
#     4   9  19  35  52  72 100 131 163 203 252 302
#     4   9  19  37  58  75  94 128 173 213 248 295
#     4   9  17  30  50  74  98 127 165 207 248 293
#     4  11  24  37  50  76 112 141 166 204 253 300
#
# _framework density 21.915714000000001
#
# number of rings (size 3 to 8) (size 9 to 14) (size 15 to 20)
#    0.000    2.818    0.000    3.818    0.000    7.273 
#    0.000    9.091    0.000    4.364    0.000    0.000 
#    0.000    0.000    0.000    0.000    0.000    0.000 
#
# Total GULP energy -246065.013099 kJ/mol
# GULP energy per Si atom -5592.386661 kJ/mol
# Density = 2.186583 g / cm^3
# Si number density = 21.915714 Si / 1000 Ang^3
#
#
#
# Elastic Constant Matrix: (Units=GPa)
#
#
# Indices 1 2 3 4 5 6 
#
# 1 57.6352 43.3131 71.6076 0.0000 0.0000 -0.8954
# 2 43.3131 57.6352 71.6076 0.0000 0.0000 0.8954
# 3 71.6076 71.6076 236.8767 0.0000 0.0000 0.0000
# 4 0.0000 0.0000 0.0000 128.2724 0.0000 0.0000
# 5 0.0000 0.0000 0.0000 0.0000 128.2724 0.0000
# 6 -0.8954 0.8954 0.0000 0.0000 0.0000 39.8668
#
#
#
# Elastic Compliance Matrix: (Units=1/GPa)
#
#
# Indices 1 2 3 4 5 6 
#
# 1 0.043682 -0.026337 -0.005243 0.000000 0.000000 0.001573
# 2 -0.026337 0.043682 -0.005243 0.000000 0.000000 -0.001573
# 3 -0.005243 -0.005243 0.007392 0.000000 0.000000 0.000000
# 4 0.000000 0.000000 0.000000 0.007796 0.000000 0.000000
# 5 0.000000 0.000000 0.000000 0.000000 0.007796 0.000000
# 6 0.001573 -0.001573 0.000000 0.000000 0.000000 0.025154
#
#
# Mechanical properties :
#
#
# Convention : Reuss Voigt Hill
#
# Bulk Modulus (GPa) = 47.37551 80.57816 63.97683
# Shear Modulus (GPa) = 23.12845 70.32358 46.72601
#
# Velocity S-wave (km/s) = 3.25212 5.67079 4.62245
# Velocity P-wave (km/s) = 5.98045 8.92884 7.59901
#
# Compressibility (1/GPa) = 0.02110795
#
# Stress axis : x y z
#
# Youngs Moduli (GPa) = 22.89291 22.89291 135.28717
#
# Poissons Ratio (x) = 0.60293 0.70935
# Poissons Ratio (y) = 0.60293 0.70935
# Poissons Ratio (z) = 0.12003 0.12003
#
# Static dielectric constant tensor:
#      x y z
#    x 1.789140 0.000000 0.000000 
#    y 0.000000 1.789140 0.000000 
#    z 0.000000 0.000000 1.796640 
# 
# From -- ./inp_files/3349.got.cif
#   From: 2010.05.17/outbox.cif.g08.bks.cpg/sg83_2_cif.got.tgz:3349.got - 2010.06.03 18:55:12.
