data_PCOD9543257
_publ_section_title
;
Structure prediction by ZEFSAII (Michael W. Deem and Ramdas Pophale) SiO2 
 PCOD9543257
Probable space group: P 4/M
;
_chemical_formula_sum "Si O2"
_cell_formula_units_Z 48
_cell_length_a 17.574733
_cell_length_b 17.574733
_cell_length_c 7.625482
_cell_angle_alpha 90.000000
_cell_angle_beta 90.000000
_cell_angle_gamma 90.000000
_cell_volume 2355.292081
_symmetry_space_group_name_H-M "P 4/M"
_symmetry_group_IT_number 83
_symmetry_cell_setting 'tetragonal'
loop_
_space_group_symop_operation_xyz
x,y,z
-y,x,z
-x,-y,z
y,-x,z
-x,-y,-z
y,-x,-z
x,y,-z
-y,x,-z
loop_
_atom_site_type_symbol
_atom_site_label
_atom_site_fract_x
_atom_site_fract_y
_atom_site_fract_z
Si Si1 0.156541 0.846186 0.786925
Si Si2 0.214114 0.998840 0.213090
Si Si3 0.564116 0.170847 0.709276
Si Si4 0.004457 0.381909 0.208687
Si Si5 0.176718 0.603616 0.289459
Si Si6 0.711014 0.262054 0.298040
O O1 0.081881 0.804586 0.722716
O O2 0.229862 0.807126 0.708705
O O3 0.154557 0.934502 0.740367
O O4 0.161716 0.840054 0.000000
O O5 0.297284 0.974388 0.270533
O O6 0.215900 0.002950 0.000000
O O7 0.565647 0.180346 0.500000
O O8 0.569694 0.078566 0.735530
O O9 0.481229 0.196388 0.774758
O O10 0.633608 0.223747 0.779040
O O11 0.914640 0.388661 0.255209
O O12 0.005555 0.387383 0.000000
O O13 0.183059 0.606218 0.500000
O O14 0.236399 0.668194 0.222472
O O15 0.693907 0.283100 0.500000
#
# Coordination Sequence:
#
# PCOD9543257 Si02
#       6
#     8   8   8   8   8   8
#     4  10  18  33  50  70  99 133 171 209 250 290
#     4   9  18  29  48  72  97 130 167 207 246 286
#     4  10  21  36  53  75 104 135 167 206 254 304
#     4  11  20  32  52  80 107 133 168 209 251 297
#     4  10  21  36  53  75 104 135 167 206 254 304
#     4  10  20  34  53  74  95 130 170 203 246 304
#
# _framework density 20.379638
#
# number of rings (size 3 to 8) (size 9 to 14) (size 15 to 20)
#    0.000    2.000    3.333    1.000    0.000    3.000 
#    0.000    2.500    0.000    0.500    0.000    4.667 
#    0.000    0.000    0.000    4.500    0.000    5.000 
#
# Total GULP energy -267243.702106 kJ/mol
# GULP energy per Si atom -5567.577127 kJ/mol
# Density = 2.033325 g / cm^3
# Si number density = 20.379638 Si / 1000 Ang^3
#
#
#
# Elastic Constant Matrix: (Units=GPa)
#
#
# Indices 1 2 3 4 5 6 
#
# 1 109.1851 71.0985 3.6909 0.0000 0.0000 44.2996
# 2 71.0985 109.1851 3.6909 0.0000 0.0000 -44.2996
# 3 3.6909 3.6909 44.8092 0.0000 0.0000 0.0000
# 4 0.0000 0.0000 0.0000 0.7472 0.0000 0.0000
# 5 0.0000 0.0000 0.0000 0.0000 0.7472 0.0000
# 6 44.2996 -44.2996 0.0000 0.0000 0.0000 -89.7977
#
#
#
# Elastic Compliance Matrix: (Units=1/GPa)
#
#
# Indices 1 2 3 4 5 6 
#
# 1 0.008896 -0.003330 -0.000458 0.000000 0.000000 0.006031
# 2 -0.003330 0.008896 -0.000458 0.000000 0.000000 -0.006031
# 3 -0.000458 -0.000458 0.022392 0.000000 0.000000 0.000000
# 4 0.000000 0.000000 0.000000 1.338371 0.000000 0.000000
# 5 0.000000 0.000000 0.000000 0.000000 1.338371 0.000000
# 6 0.006031 -0.006031 0.000000 0.000000 0.000000 -0.005185
#
#
# Mechanical properties :
#
#
# Convention : Reuss Voigt Hill
#
# Bulk Modulus (GPa) = 31.55590 46.68223 39.11907
# Shear Modulus (GPa) = 1.83097 -5.34741 -1.75822
#
# Velocity S-wave (km/s) = 0.94888 -1.62160 -0.92984
# Velocity P-wave (km/s) = 4.08878 4.41021 4.25253
#
# Compressibility (1/GPa) = 0.03168979
#
# Stress axis : x y z
#
# Youngs Moduli (GPa) = 112.41458 112.41458 44.65810
#
# Poissons Ratio (x) = 0.37435 0.02047
# Poissons Ratio (y) = 0.37435 0.02047
# Poissons Ratio (z) = 0.05153 0.05153
#
# Static dielectric constant tensor:
#      x y z
#    x 1.742420 0.000000 0.000000 
#    y 0.000000 1.742420 0.000000 
#    z 0.000000 0.000000 1.764670 
# 
# From -- ./inp_files/943.got.cif
#   From: 2010.05.17/outbox.cif.g08.bks.cpg/sg83_1_cif.got.tgz:943.got - 2010.06.03 18:55:12.
