data_PCOD9543293
_publ_section_title
;
Structure prediction by ZEFSAII (Michael W. Deem and Ramdas Pophale) SiO2 
 PCOD9543293
Probable space group: P 4/M
;
_chemical_formula_sum "Si O2"
_cell_formula_units_Z 56
_cell_length_a 20.547240
_cell_length_b 20.547240
_cell_length_c 9.096712
_cell_angle_alpha 90.000000
_cell_angle_beta 90.000000
_cell_angle_gamma 90.000000
_cell_volume 3840.532394
_symmetry_space_group_name_H-M "P 4/M"
_symmetry_group_IT_number 83
_symmetry_cell_setting 'tetragonal'
loop_
_space_group_symop_operation_xyz
x,y,z
-y,x,z
-x,-y,z
y,-x,z
-x,-y,-z
y,-x,-z
x,y,-z
-y,x,-z
loop_
_atom_site_type_symbol
_atom_site_label
_atom_site_fract_x
_atom_site_fract_y
_atom_site_fract_z
Si Si1 0.831692 0.256030 0.331870
Si Si2 0.858931 0.936646 0.663057
Si Si3 0.737059 0.165831 0.831697
Si Si4 0.929168 0.636262 0.324709
Si Si5 0.504866 0.078240 0.834705
Si Si6 0.152420 0.944191 0.163133
Si Si7 0.357316 0.072365 0.176876
O O1 0.817838 0.276802 0.500000
O O2 0.879907 0.194047 0.341732
O O3 0.767838 0.228839 0.248499
O O4 0.874236 0.308677 0.243307
O O5 0.885274 0.946418 0.500000
O O6 0.914500 0.914180 0.774763
O O7 0.825647 0.001109 0.723689
O O8 0.682740 0.126751 0.740829
O O9 0.795798 0.113592 0.840969
O O10 0.716619 0.179835 0.000000
O O11 0.934937 0.643215 0.500000
O O12 0.909359 0.562804 0.278029
O O13 0.000358 0.650052 0.250135
O O14 0.431263 0.097142 0.795607
O O15 0.500000 0.000000 0.843745
O O16 0.521362 0.101842 0.000000
O O17 0.146244 0.971481 0.000000
O O18 0.348839 0.065331 0.000000
#
# Coordination Sequence:
#
# PCOD9543293 Si02
#       7
#     8   8   8   8   8   8   8
#     4  10  20  32  46  64  84 105 134 172 209 247
#     4  10  20  32  44  57  74  94 118 155 203 248
#     4  10  20  33  47  61  81 109 138 168 205 252
#     4  11  20  29  45  67  89 112 141 179 219 255
#     4   8  16  30  45  63  87 113 141 172 208 255
#     4  10  20  32  45  58  71  91 123 160 196 241
#     4  10  19  31  47  65  87 115 144 174 213 260
#
# _framework density 14.581312
#
# number of rings (size 3 to 8) (size 9 to 14) (size 15 to 20)
#    0.000    2.143    0.000    5.143    0.000    9.143 
#    0.000    1.429    0.000    0.000    0.000    0.000 
#    0.000    0.000    0.000    0.000    0.000    0.714 
#
# Total GULP energy -312000.509281 kJ/mol
# GULP energy per Si atom -5571.437666 kJ/mol
# Density = 1.454812 g / cm^3
# Si number density = 14.581312 Si / 1000 Ang^3
#
#
#
# Elastic Constant Matrix: (Units=GPa)
#
#
# Indices 1 2 3 4 5 6 
#
# 1 60.9009 22.0499 46.0514 0.0000 0.0000 0.1049
# 2 22.0499 60.9009 46.0514 0.0000 0.0000 -0.1049
# 3 46.0514 46.0514 108.7756 0.0000 0.0000 0.0000
# 4 0.0000 0.0000 0.0000 13.6489 0.0000 0.0000
# 5 0.0000 0.0000 0.0000 0.0000 13.6489 0.0000
# 6 0.1049 -0.1049 0.0000 0.0000 0.0000 9.9122
#
#
#
# Elastic Compliance Matrix: (Units=1/GPa)
#
#
# Indices 1 2 3 4 5 6 
#
# 1 0.024245 -0.001496 -0.009631 0.000000 0.000000 -0.000272
# 2 -0.001496 0.024245 -0.009631 0.000000 0.000000 0.000272
# 3 -0.009631 -0.009631 0.017348 0.000000 0.000000 0.000000
# 4 0.000000 0.000000 0.000000 0.073266 0.000000 0.000000
# 5 0.000000 0.000000 0.000000 0.000000 0.073266 0.000000
# 6 -0.000272 0.000272 0.000000 0.000000 0.000000 0.100891
#
#
# Mechanical properties :
#
#
# Convention : Reuss Voigt Hill
#
# Bulk Modulus (GPa) = 41.11529 50.98699 46.05114
# Shear Modulus (GPa) = 13.77849 15.20364 14.49106
#
# Velocity S-wave (km/s) = 3.07732 3.23256 3.15590
# Velocity P-wave (km/s) = 6.39414 6.99827 6.70302
#
# Compressibility (1/GPa) = 0.02432185
#
# Stress axis : x y z
#
# Youngs Moduli (GPa) = 41.24578 41.24578 57.64327
#
# Poissons Ratio (x) = 0.06170 0.55517
# Poissons Ratio (y) = 0.06170 0.55517
# Poissons Ratio (z) = 0.39724 0.39724
#
# Static dielectric constant tensor:
#      x y z
#    x 1.490910 0.000000 0.000000 
#    y 0.000000 1.490910 0.000000 
#    z 0.000000 0.000000 1.514580 
# 
# From -- ./inp_files/1221.got.cif
#   From: 2010.05.17/outbox.cif.g08.bks.cpg/sg83_1_cif.got.tgz:1221.got - 2010.06.03 18:55:12.
