data_PCOD9543064
_publ_section_title
;
Structure prediction by ZEFSAII (Michael W. Deem and Ramdas Pophale) SiO2 
 PCOD9543064
Probable space group: I -4 
;
_chemical_formula_sum "Si O2"
_cell_formula_units_Z 46
_cell_length_a 11.682439
_cell_length_b 11.682439
_cell_length_c 15.700269
_cell_angle_alpha 90.000000
_cell_angle_beta 90.000000
_cell_angle_gamma 90.000000
_cell_volume 2142.762994
_symmetry_space_group_name_H-M "I -4 "
_symmetry_group_IT_number 82
_symmetry_cell_setting 'tetragonal'
loop_
_space_group_symop_operation_xyz
x,y,z
y,-x,-z
-x,-y,z
-y,x,-z
1/2+x,1/2+y,1/2+z
1/2+y,1/2-x,1/2-z
1/2-x,1/2-y,1/2+z
1/2-y,1/2+x,1/2-z
loop_
_atom_site_type_symbol
_atom_site_label
_atom_site_fract_x
_atom_site_fract_y
_atom_site_fract_z
Si Si1 0.166519 0.705195 0.791033
Si Si2 0.500000 0.000000 0.250000
Si Si3 0.012074 0.691398 0.351142
Si Si4 0.475667 0.368375 0.702206
Si Si5 0.000000 0.500000 0.250000
Si Si6 0.000000 0.000000 0.500000
Si Si7 0.750333 0.817420 0.877704
Si Si8 0.685791 0.677129 0.045807
O O1 0.062921 0.613078 0.790481
O O2 0.138636 0.838894 0.809387
O O3 0.234018 0.707334 0.699652
O O4 0.247528 0.673906 0.869696
O O5 0.077444 0.723019 0.435088
O O6 0.007827 0.797657 0.287201
O O7 0.073877 0.585900 0.306136
O O8 0.882775 0.652913 0.362963
O O9 0.500000 0.500000 0.716931
O O10 0.564329 0.321297 0.630385
O O11 0.065994 0.109082 0.539024
O O12 0.736089 0.748770 0.966519
#
# Coordination Sequence:
#
# PCOD9543064 Si02
#       8
#     8   2   8   8   2   2   8   8
#     4  11  27  49  74 110 154 202 253 315 390 455
#     4  12  28  48  78 112 156 206 248 312 402 460
#     4  11  22  39  75 108 143 188 250 315 370 437
#     4  11  23  47  75 102 148 206 251 304 379 465
#     4  12  20  44  74 104 144 194 252 304 370 432
#     4  12  28  44  80 112 152 198 264 320 380 448
#     4  11  24  45  73 111 146 198 255 312 382 454
#     4  12  26  46  71 115 149 196 258 315 376 450
#
# _framework density 21.467608999999999
#
# number of rings (size 3 to 8) (size 9 to 14) (size 15 to 20)
#    0.000    0.696    5.217    2.087    3.652    0.000 
#    6.261    1.739    0.000    0.000    0.000    0.000 
#    0.000    0.000    0.000    0.000    0.000    0.000 
#
# Total GULP energy -128163.304012 kJ/mol
# GULP energy per Si atom -5572.317566 kJ/mol
# Density = 2.141875 g / cm^3
# Si number density = 21.467609 Si / 1000 Ang^3
#
#
#
# Elastic Constant Matrix: (Units=GPa)
#
#
# Indices 1 2 3 4 5 6 
#
# 1 149.4651 67.4906 54.1909 0.0000 0.0000 -4.1544
# 2 67.4906 149.4651 54.1909 0.0000 0.0000 4.1544
# 3 54.1909 54.1909 109.9108 0.0000 0.0000 0.0000
# 4 0.0000 0.0000 0.0000 22.0530 0.0000 0.0000
# 5 0.0000 0.0000 0.0000 0.0000 22.0530 0.0000
# 6 -4.1544 4.1544 0.0000 0.0000 0.0000 37.2903
#
#
#
# Elastic Compliance Matrix: (Units=1/GPa)
#
#
# Indices 1 2 3 4 5 6 
#
# 1 0.009227 -0.003111 -0.003015 0.000000 0.000000 0.001375
# 2 -0.003111 0.009227 -0.003015 0.000000 0.000000 -0.001375
# 3 -0.003015 -0.003015 0.012072 0.000000 0.000000 0.000000
# 4 0.000000 0.000000 0.000000 0.045345 0.000000 0.000000
# 5 0.000000 0.000000 0.000000 0.000000 0.045345 0.000000
# 6 0.001375 -0.001375 0.000000 0.000000 0.000000 0.027123
#
#
# Mechanical properties :
#
#
# Convention : Reuss Voigt Hill
#
# Bulk Modulus (GPa) = 81.68796 84.50954 83.09875
# Shear Modulus (GPa) = 29.29062 31.81049 30.55056
#
# Velocity S-wave (km/s) = 3.69780 3.85358 3.77649
# Velocity P-wave (km/s) = 7.50773 7.69751 7.60321
#
# Compressibility (1/GPa) = 0.01224171
#
# Stress axis : x y z
#
# Youngs Moduli (GPa) = 108.37908 108.37908 82.83929
#
# Poissons Ratio (x) = 0.33721 0.24978
# Poissons Ratio (y) = 0.33721 0.24978
# Poissons Ratio (z) = 0.32679 0.32679
#
# Static dielectric constant tensor:
#      x y z
#    x 1.877560 0.000000 0.000000 
#    y 0.000000 1.877560 0.000000 
#    z 0.000000 0.000000 1.829480 
# 
# From -- ./inp_files/2679.got.cif
#   From: 2010.05.17/outbox.cif.g08.bks.cpg/sg82_2_cif.got.tgz:2679.got - 2010.06.03 18:52:26.
