data_PCOD9543584
_publ_section_title
;
Structure prediction by ZEFSAII (Michael W. Deem and Ramdas Pophale) SiO2 
 PCOD9543584
Probable space group: P 4/M
;
_chemical_formula_sum "Si O2"
_cell_formula_units_Z 32
_cell_length_a 12.002874
_cell_length_b 12.002874
_cell_length_c 11.391861
_cell_angle_alpha 90.000000
_cell_angle_beta 90.000000
_cell_angle_gamma 90.000000
_cell_volume 1641.213843
_symmetry_space_group_name_H-M "P 4/M"
_symmetry_group_IT_number 83
_symmetry_cell_setting 'tetragonal'
loop_
_space_group_symop_operation_xyz
x,y,z
-y,x,z
-x,-y,z
y,-x,z
-x,-y,-z
y,-x,-z
x,y,-z
-y,x,-z
loop_
_atom_site_type_symbol
_atom_site_label
_atom_site_fract_x
_atom_site_fract_y
_atom_site_fract_z
Si Si1 0.625827 0.007228 0.807319
Si Si2 0.246446 0.639991 0.751947
Si Si3 0.793128 0.587552 0.636231
Si Si4 0.036432 0.187414 0.000000
Si Si5 0.380640 0.355774 0.000000
O O1 0.609767 0.089712 0.698701
O O2 0.500000 0.000000 0.862807
O O3 0.655873 0.884592 0.764036
O O4 0.726220 0.046220 0.891157
O O5 0.304224 0.719321 0.658850
O O6 0.263636 0.513794 0.707498
O O7 0.298631 0.659446 0.880553
O O8 0.803590 0.559873 0.500000
O O9 0.913908 0.126392 0.000000
O O10 0.514939 0.348139 0.000000
#
# Coordination Sequence:
#
# PCOD9543584 Si02
#       5
#     8   8   8   4   4
#     4  10  23  40  61  86 121 161 204 247 308 372
#     4  11  22  40  63  92 122 162 205 256 307 370
#     4  11  24  40  61  88 124 164 209 256 302 361
#     4  11  22  39  63  91 120 151 196 258 316 365
#     4  11  21  37  60  90 130 156 191 246 317 369
#
# _framework density 19.497762999999999
#
# number of rings (size 3 to 8) (size 9 to 14) (size 15 to 20)
#    0.000    1.250    2.500    3.375    0.000   10.000 
#    0.000    1.250    0.000    0.000    0.000    5.250 
#    0.000    0.000    0.000    0.000    0.000    0.000 
#
# Total GULP energy -178783.148856 kJ/mol
# GULP energy per Si atom -5586.973402 kJ/mol
# Density = 1.945339 g / cm^3
# Si number density = 19.497763 Si / 1000 Ang^3
#
#
#
# Elastic Constant Matrix: (Units=GPa)
#
#
# Indices 1 2 3 4 5 6 
#
# 1 53.5471 27.9897 16.9644 0.0000 0.0000 1.7443
# 2 27.9897 53.5471 16.9644 0.0000 0.0000 -1.7443
# 3 16.9644 16.9644 105.5532 0.0000 0.0000 0.0000
# 4 0.0000 0.0000 0.0000 3.7038 0.0000 0.0000
# 5 0.0000 0.0000 0.0000 0.0000 3.7038 0.0000
# 6 1.7443 -1.7443 0.0000 0.0000 0.0000 18.3255
#
#
#
# Elastic Compliance Matrix: (Units=1/GPa)
#
#
# Indices 1 2 3 4 5 6 
#
# 1 0.026393 -0.013250 -0.002112 0.000000 0.000000 -0.003773
# 2 -0.013250 0.026393 -0.002112 0.000000 0.000000 0.003773
# 3 -0.002112 -0.002112 0.010153 0.000000 0.000000 0.000000
# 4 0.000000 0.000000 0.000000 0.269990 0.000000 0.000000
# 5 0.000000 0.000000 0.000000 0.000000 0.269990 0.000000
# 6 -0.003773 0.003773 0.000000 0.000000 0.000000 0.055287
#
#
# Mechanical properties :
#
#
# Convention : Reuss Voigt Hill
#
# Bulk Modulus (GPa) = 35.72689 37.38717 36.55703
# Shear Modulus (GPa) = 7.11758 15.19522 11.15640
#
# Velocity S-wave (km/s) = 1.91269 2.79468 2.39464
# Velocity P-wave (km/s) = 4.82091 5.44338 5.14158
#
# Compressibility (1/GPa) = 0.02799012
#
# Stress axis : x y z
#
# Youngs Moduli (GPa) = 37.88883 37.88883 98.49402
#
# Poissons Ratio (x) = 0.50201 0.20806
# Poissons Ratio (y) = 0.50201 0.20806
# Poissons Ratio (z) = 0.08004 0.08004
#
# Static dielectric constant tensor:
#      x y z
#    x 1.692800 0.000000 0.000000 
#    y 0.000000 1.692800 0.000000 
#    z 0.000000 0.000000 1.654660 
# 
# From -- ./inp_files/1566.got.cif
#   From: 2010.05.17/outbox.cif.g08.bks.cpg/sg83_1_cif.got.tgz:1566.got - 2010.06.03 18:55:12.
