data_PCOD9543640
_publ_section_title
;
Structure prediction by ZEFSAII (Michael W. Deem and Ramdas Pophale) SiO2 
 PCOD9543640
Probable space group: P 4/M
;
_chemical_formula_sum "Si O2"
_cell_formula_units_Z 64
_cell_length_a 11.556344
_cell_length_b 11.556344
_cell_length_c 26.128875
_cell_angle_alpha 90.000000
_cell_angle_beta 90.000000
_cell_angle_gamma 90.000000
_cell_volume 3489.487391
_symmetry_space_group_name_H-M "P 4/M"
_symmetry_group_IT_number 83
_symmetry_cell_setting 'tetragonal'
loop_
_space_group_symop_operation_xyz
x,y,z
-y,x,z
-x,-y,z
y,-x,z
-x,-y,-z
y,-x,-z
x,y,-z
-y,x,-z
loop_
_atom_site_type_symbol
_atom_site_label
_atom_site_fract_x
_atom_site_fract_y
_atom_site_fract_z
Si Si1 0.175389 0.476079 0.648225
Si Si2 0.820568 0.943556 0.403187
Si Si3 0.419613 0.678931 0.054932
Si Si4 0.698158 0.926434 0.296316
Si Si5 0.687335 0.447813 0.555712
Si Si6 0.310433 0.807365 0.262518
Si Si7 0.581082 0.320558 0.168308
Si Si8 0.627514 0.047627 0.445953
O O1 0.102106 0.570761 0.680592
O O2 0.247879 0.556101 0.609492
O O3 0.232995 0.391919 0.689887
O O4 0.115685 0.386116 0.607793
O O5 0.785001 0.934060 0.344554
O O6 0.925859 0.861516 0.414796
O O7 0.708975 0.936975 0.437734
O O8 0.353933 0.555501 0.054641
O O9 0.396807 0.729340 0.111065
O O10 0.393352 0.737486 0.000000
O O11 0.745851 0.815223 0.265490
O O12 0.698093 0.052531 0.269277
O O13 0.636565 0.578227 0.556157
O O14 0.746021 0.433926 0.500000
O O15 0.374594 0.766042 0.211438
O O16 0.647264 0.444661 0.173177
O O17 0.658942 0.106632 0.500000
O O18 0.500000 0.000000 0.450289
#
# Coordination Sequence:
#
# PCOD9543640 Si02
#       8
#     8   8   8   8   8   8   8   8
#     4  12  21  37  55  78 101 128 167 208 263 326
#     4  11  22  41  62  79 100 127 166 214 267 320
#     4   7  10  20  43  75 112 152 187 220 262 312
#     4  12  23  38  58  77 103 136 177 218 265 323
#     4   9  19  35  53  74  99 126 159 202 252 313
#     4  12  24  37  55  79 106 144 180 223 267 319
#     4   9  18  33  52  82 121 152 185 228 271 312
#     4  11  22  38  57  77  99 122 154 206 267 329
#
# _framework density 18.340802
#
# number of rings (size 3 to 8) (size 9 to 14) (size 15 to 20)
#    0.000    1.625    3.750    3.750    0.000    0.750 
#    0.000    1.875    0.000    0.000    0.000    0.875 
#    0.000    6.000    0.000    1.125    0.000    1.125 
#
# Total GULP energy -356519.182643 kJ/mol
# GULP energy per Si atom -5570.612229 kJ/mol
# Density = 1.829906 g / cm^3
# Si number density = 18.340802 Si / 1000 Ang^3
#
#
#
# Elastic Constant Matrix: (Units=GPa)
#
#
# Indices 1 2 3 4 5 6 
#
# 1 56.7391 16.7688 30.0960 0.0000 0.0000 0.9537
# 2 16.7688 56.7391 30.0960 0.0000 0.0000 -0.9537
# 3 30.0960 30.0960 154.8195 0.0000 0.0000 0.0000
# 4 0.0000 0.0000 0.0000 10.1823 0.0000 0.0000
# 5 0.0000 0.0000 0.0000 0.0000 10.1823 0.0000
# 6 0.9537 -0.9537 0.0000 0.0000 0.0000 15.7011
#
#
#
# Elastic Compliance Matrix: (Units=1/GPa)
#
#
# Indices 1 2 3 4 5 6 
#
# 1 0.020635 -0.004456 -0.003145 0.000000 0.000000 -0.001524
# 2 -0.004456 0.020635 -0.003145 0.000000 0.000000 0.001524
# 3 -0.003145 -0.003145 0.007682 0.000000 0.000000 0.000000
# 4 0.000000 0.000000 0.000000 0.098210 0.000000 0.000000
# 5 0.000000 0.000000 0.000000 0.000000 0.098210 0.000000
# 6 -0.001524 0.001524 0.000000 0.000000 0.000000 0.063875
#
#
# Mechanical properties :
#
#
# Convention : Reuss Voigt Hill
#
# Bulk Modulus (GPa) = 36.41655 46.91327 41.66491
# Shear Modulus (GPa) = 14.71052 19.96894 17.33973
#
# Velocity S-wave (km/s) = 2.83515 3.30323 3.07810
# Velocity P-wave (km/s) = 5.53317 6.33898 5.94973
#
# Compressibility (1/GPa) = 0.02746004
#
# Stress axis : x y z
#
# Youngs Moduli (GPa) = 48.46056 48.46056 130.17536
#
# Poissons Ratio (x) = 0.21594 0.40943
# Poissons Ratio (y) = 0.21594 0.40943
# Poissons Ratio (z) = 0.15242 0.15242
#
# Static dielectric constant tensor:
#      x y z
#    x 1.700020 0.000000 0.000000 
#    y 0.000000 1.700020 0.000000 
#    z 0.000000 0.000000 1.658730 
# 
# From -- ./inp_files/3209.got.cif
#   From: 2010.05.17/outbox.cif.g08.bks.cpg/sg83_2_cif.got.tgz:3209.got - 2010.06.03 18:55:12.
