data_PCOD9543865
_publ_section_title
;
Structure prediction by ZEFSAII (Michael W. Deem and Ramdas Pophale) SiO2 
 PCOD9543865
Probable space group: P 4/M
;
_chemical_formula_sum "Si O2"
_cell_formula_units_Z 28
_cell_length_a 12.731640
_cell_length_b 12.731640
_cell_length_c 7.380760
_cell_angle_alpha 90.000000
_cell_angle_beta 90.000000
_cell_angle_gamma 90.000000
_cell_volume 1196.381761
_symmetry_space_group_name_H-M "P 4/M"
_symmetry_group_IT_number 83
_symmetry_cell_setting 'tetragonal'
loop_
_space_group_symop_operation_xyz
x,y,z
-y,x,z
-x,-y,z
y,-x,z
-x,-y,-z
y,-x,-z
x,y,-z
-y,x,-z
loop_
_atom_site_type_symbol
_atom_site_label
_atom_site_fract_x
_atom_site_fract_y
_atom_site_fract_z
Si Si1 0.864950 0.567312 0.710885
Si Si2 0.336929 0.084065 0.719377
Si Si3 0.642458 0.584106 0.782704
Si Si4 0.841389 0.917387 0.000000
O O1 0.885500 0.552192 0.500000
O O2 0.860235 0.446711 0.780796
O O3 0.755374 0.626002 0.732931
O O4 0.963815 0.633835 0.773701
O O5 0.323148 0.094021 0.500000
O O6 0.232183 0.112147 0.828066
O O7 0.536452 0.636813 0.715947
O O8 0.636947 0.583973 0.000000
O O9 0.864103 0.043674 0.000000
#
# Coordination Sequence:
#
# PCOD9543865 Si02
#       4
#     8   8   8   4
#     4   9  19  36  59  86 113 147 190 232 285 345
#     4   9  21  41  62  87 117 147 187 243 296 345
#     4   9  19  33  48  75 117 156 185 219 268 326
#     4  11  26  43  60  86 114 151 202 245 298 362
#
# _framework density 23.4039
#
# number of rings (size 3 to 8) (size 9 to 14) (size 15 to 20)
#    0.000    2.714    0.000    2.571    4.000    5.714 
#    0.000    8.571    0.000    0.000    0.000    0.000 
#    0.000    0.000    0.000    0.000    0.000    0.000 
#
# Total GULP energy -156241.214223 kJ/mol
# GULP energy per Si atom -5580.043365 kJ/mol
# Density = 2.335063 g / cm^3
# Si number density = 23.403900 Si / 1000 Ang^3
#
#
#
# Elastic Constant Matrix: (Units=GPa)
#
#
# Indices 1 2 3 4 5 6 
#
# 1 107.5688 -12.9824 9.0424 0.0000 0.0000 -10.5918
# 2 -12.9824 107.5688 9.0424 0.0000 0.0000 10.5918
# 3 9.0424 9.0424 110.7803 0.0000 0.0000 0.0000
# 4 0.0000 0.0000 0.0000 17.6375 0.0000 0.0000
# 5 0.0000 0.0000 0.0000 0.0000 17.6375 0.0000
# 6 -10.5918 10.5918 0.0000 0.0000 0.0000 -11.3386
#
#
#
# Elastic Compliance Matrix: (Units=1/GPa)
#
#
# Indices 1 2 3 4 5 6 
#
# 1 0.008933 0.001807 -0.000877 0.000000 0.000000 -0.006656
# 2 0.001807 0.008933 -0.000877 0.000000 0.000000 0.006656
# 3 -0.000877 -0.000877 0.009170 0.000000 0.000000 0.000000
# 4 0.000000 0.000000 0.000000 0.056697 0.000000 0.000000
# 5 0.000000 0.000000 0.000000 0.000000 0.056697 0.000000
# 6 -0.006656 0.006656 0.000000 0.000000 0.000000 -0.075759
#
#
# Mechanical properties :
#
#
# Convention : Reuss Voigt Hill
#
# Bulk Modulus (GPa) = 36.84146 37.34696 37.09421
# Shear Modulus (GPa) = 67.92419 26.17499 47.04959
#
# Velocity S-wave (km/s) = 5.39311 3.34788 4.48854
# Velocity P-wave (km/s) = 7.38624 5.56207 6.53809
#
# Compressibility (1/GPa) = 0.02714333
#
# Stress axis : x y z
#
# Youngs Moduli (GPa) = 111.94745 111.94745 109.05141
#
# Poissons Ratio (x) = -0.20231 0.09560
# Poissons Ratio (y) = -0.20231 0.09560
# Poissons Ratio (z) = 0.09814 0.09814
#
# Static dielectric constant tensor:
#      x y z
#    x 1.898370 0.000000 0.000000 
#    y 0.000000 1.898370 0.000000 
#    z 0.000000 0.000000 1.882730 
# 
# From -- ./inp_files/379.got.cif
#   From: 2010.05.17/outbox.cif.g08.bks.cpg/sg83_1_cif.got.tgz:379.got - 2010.06.03 18:55:12.
