data_PCOD9543753
_publ_section_title
;
Structure prediction by ZEFSAII (Michael W. Deem and Ramdas Pophale) SiO2 
 PCOD9543753
Probable space group: P 4/M
;
_chemical_formula_sum "Si O2"
_cell_formula_units_Z 44
_cell_length_a 7.809008
_cell_length_b 7.809008
_cell_length_c 30.854710
_cell_angle_alpha 90.000000
_cell_angle_beta 90.000000
_cell_angle_gamma 90.000000
_cell_volume 1881.538912
_symmetry_space_group_name_H-M "P 4/M"
_symmetry_group_IT_number 83
_symmetry_cell_setting 'tetragonal'
loop_
_space_group_symop_operation_xyz
x,y,z
-y,x,z
-x,-y,z
y,-x,z
-x,-y,-z
y,-x,-z
x,y,-z
-y,x,-z
loop_
_atom_site_type_symbol
_atom_site_label
_atom_site_fract_x
_atom_site_fract_y
_atom_site_fract_z
Si Si1 0.731851 0.885548 0.231754
Si Si2 0.880272 0.266312 0.139101
Si Si3 0.265391 0.121772 0.953631
Si Si4 0.415504 0.227541 0.586557
Si Si5 0.270964 0.101916 0.325079
Si Si6 0.919589 0.273731 0.500000
O O1 0.645674 0.844786 0.185453
O O2 0.645257 0.855436 0.278268
O O3 0.913838 0.785806 0.231765
O O4 0.840574 0.352362 0.092735
O O5 0.082134 0.216010 0.139095
O O6 0.080497 0.216694 0.953635
O O7 0.351802 0.160653 0.000000
O O8 0.607106 0.293924 0.584691
O O9 0.377506 0.142356 0.632533
O O10 0.370349 0.120565 0.544253
O O11 0.094932 0.210683 0.326509
O O12 0.110030 0.204216 0.500000
#
# Coordination Sequence:
#
# PCOD9543753 Si02
#       6
#     8   8   8   8   8   4
#     4   7  10  17  30  49  72  97 129 173 219 258
#     4   7   8  10  17  30  51  81 117 159 206 248
#     4   7   8   8  10  19  39  71 113 157 196 237
#     4  11  24  39  54  75 103 132 160 188 221 264
#     4   9  17  30  49  72  95 120 155 196 233 271
#     4  11  24  41  62  86 106 125 154 189 222 258
#
# _framework density 23.385113
#
# number of rings (size 3 to 8) (size 9 to 14) (size 15 to 20)
#    0.000    3.545    0.000    5.455    0.000    5.818 
#    0.000    0.000    0.000    0.000    0.000    0.000 
#    0.000    0.000    0.000    0.000    0.000    1.818 
#
# Total GULP energy -245578.636547 kJ/mol
# GULP energy per Si atom -5581.332649 kJ/mol
# Density = 2.333189 g / cm^3
# Si number density = 23.385113 Si / 1000 Ang^3
#
#
#
# Elastic Constant Matrix: (Units=GPa)
#
#
# Indices 1 2 3 4 5 6 
#
# 1 29.9144 40.1931 49.0910 0.0000 0.0000 -7.8092
# 2 40.1931 29.9144 49.0910 0.0000 0.0000 7.8092
# 3 49.0910 49.0910 319.7394 0.0000 0.0000 0.0000
# 4 0.0000 0.0000 0.0000 92.7798 0.0000 0.0000
# 5 0.0000 0.0000 0.0000 0.0000 92.7798 0.0000
# 6 -7.8092 7.8092 0.0000 0.0000 0.0000 9.8194
#
#
#
# Elastic Compliance Matrix: (Units=1/GPa)
#
#
# Indices 1 2 3 4 5 6 
#
# 1 -0.012941 0.031112 -0.002790 0.000000 0.000000 -0.035035
# 2 0.031112 -0.012941 -0.002790 0.000000 0.000000 0.035035
# 3 -0.002790 -0.002790 0.003984 0.000000 0.000000 0.000000
# 4 0.000000 0.000000 0.000000 0.010778 0.000000 0.000000
# 5 0.000000 0.000000 0.000000 0.000000 0.010778 0.000000
# 6 -0.035035 0.035035 0.000000 0.000000 0.000000 0.046114
#
#
# Mechanical properties :
#
#
# Convention : Reuss Voigt Hill
#
# Bulk Modulus (GPa) = 34.28587 72.92429 53.60508
# Shear Modulus (GPa) = 1128.68589 55.15533 591.92061
#
# Velocity S-wave (km/s) = 21.99316 4.86178 15.92696
# Velocity P-wave (km/s) = 25.68318 7.92260 19.00517
#
# Compressibility (1/GPa) = 0.02916653
#
# Stress axis : x y z
#
# Youngs Moduli (GPa) = -77.27264 -77.27264 250.98984
#
# Poissons Ratio (x) = 2.40411 0.70023
# Poissons Ratio (y) = 2.40411 0.70023
# Poissons Ratio (z) = -0.21558 -0.21558
#
# Static dielectric constant tensor:
#      x y z
#    x 1.845860 0.000000 0.000000 
#    y 0.000000 1.845860 0.000000 
#    z 0.000000 0.000000 1.966170 
# 
# From -- ./inp_files/3367.got.cif
#   From: 2010.05.17/outbox.cif.g08.bks.cpg/sg83_2_cif.got.tgz:3367.got - 2010.06.03 18:55:12.
