data_PCOD9543547
_publ_section_title
;
Structure prediction by ZEFSAII (Michael W. Deem and Ramdas Pophale) SiO2 
 PCOD9543547
Probable space group: P 4/M
;
_chemical_formula_sum "Si O2"
_cell_formula_units_Z 44
_cell_length_a 14.601574
_cell_length_b 14.601574
_cell_length_c 11.330859
_cell_angle_alpha 90.000000
_cell_angle_beta 90.000000
_cell_angle_gamma 90.000000
_cell_volume 2415.806708
_symmetry_space_group_name_H-M "P 4/M"
_symmetry_group_IT_number 83
_symmetry_cell_setting 'tetragonal'
loop_
_space_group_symop_operation_xyz
x,y,z
-y,x,z
-x,-y,z
y,-x,z
-x,-y,-z
y,-x,-z
x,y,-z
-y,x,-z
loop_
_atom_site_type_symbol
_atom_site_label
_atom_site_fract_x
_atom_site_fract_y
_atom_site_fract_z
Si Si1 0.626163 0.237475 0.200580
Si Si2 0.789464 0.186700 0.367023
Si Si3 0.621748 0.595146 0.000000
Si Si4 0.605415 0.029057 0.868624
Si Si5 0.719906 0.983998 0.363781
Si Si6 0.516300 0.348225 0.637860
O O1 0.717727 0.230911 0.277786
O O2 0.613016 0.139188 0.140824
O O3 0.539755 0.261133 0.284218
O O4 0.630365 0.320827 0.110298
O O5 0.760838 0.212684 0.500000
O O6 0.892389 0.220793 0.350526
O O7 0.779265 0.077107 0.357376
O O8 0.515877 0.623313 0.000000
O O9 0.500000 0.000000 0.865523
O O10 0.653122 0.990467 0.749616
O O11 0.642168 0.001557 0.000000
O O12 0.680667 0.982635 0.500000
O O13 0.596968 0.422787 0.660988
O O14 0.517579 0.325424 0.500000
#
# Coordination Sequence:
#
# PCOD9543547 Si02
#       6
#     8   8   4   8   8   8
#     4  11  20  36  55  78 109 148 188 232 277 336
#     4   9  19  36  59  87 115 143 181 231 286 342
#     4  11  24  38  53  78 110 145 191 240 278 322
#     4  10  22  40  56  78 113 153 193 235 284 341
#     4   9  19  37  60  87 116 147 186 235 286 342
#     4   9  18  32  51  77 109 143 180 229 287 337
#
# _framework density 18.213377999999999
#
# number of rings (size 3 to 8) (size 9 to 14) (size 15 to 20)
#    0.000    2.273    0.909    2.182    0.000    5.818 
#    1.636    3.636    0.000    0.000    0.000    2.545 
#    0.000    0.000    0.000    0.000    0.000    0.000 
#
# Total GULP energy -245264.859302 kJ/mol
# GULP energy per Si atom -5574.201348 kJ/mol
# Density = 1.817192 g / cm^3
# Si number density = 18.213378 Si / 1000 Ang^3
#
#
#
# Elastic Constant Matrix: (Units=GPa)
#
#
# Indices 1 2 3 4 5 6 
#
# 1 60.0814 35.6672 59.9501 0.0000 0.0000 13.0065
# 2 35.6672 60.0814 59.9501 0.0000 0.0000 -13.0065
# 3 59.9501 59.9501 156.0779 0.0000 0.0000 0.0000
# 4 0.0000 0.0000 0.0000 23.5558 0.0000 0.0000
# 5 0.0000 0.0000 0.0000 0.0000 23.5558 0.0000
# 6 13.0065 -13.0065 0.0000 0.0000 0.0000 22.0940
#
#
#
# Elastic Compliance Matrix: (Units=1/GPa)
#
#
# Indices 1 2 3 4 5 6 
#
# 1 0.065003 -0.044880 -0.007729 0.000000 0.000000 -0.064686
# 2 -0.044880 0.065003 -0.007729 0.000000 0.000000 0.064686
# 3 -0.007729 -0.007729 0.012345 0.000000 0.000000 0.000000
# 4 0.000000 0.000000 0.000000 0.042452 0.000000 0.000000
# 5 0.000000 0.000000 0.000000 0.000000 0.042452 0.000000
# 6 -0.064686 0.064686 0.000000 0.000000 0.000000 0.121421
#
#
# Mechanical properties :
#
#
# Convention : Reuss Voigt Hill
#
# Bulk Modulus (GPa) = 46.13931 65.26392 55.70162
# Shear Modulus (GPa) = 10.49150 21.88601 16.18875
#
# Velocity S-wave (km/s) = 2.40267 3.47024 2.98457
# Velocity P-wave (km/s) = 5.75193 7.20885 6.52120
#
# Compressibility (1/GPa) = 0.02167349
#
# Stress axis : x y z
#
# Youngs Moduli (GPa) = 15.38402 15.38402 81.00596
#
# Poissons Ratio (x) = 0.69043 0.62612
# Poissons Ratio (y) = 0.69043 0.62612
# Poissons Ratio (z) = 0.11891 0.11891
#
# Static dielectric constant tensor:
#      x y z
#    x 1.600110 0.000000 0.000000 
#    y 0.000000 1.600110 0.000000 
#    z 0.000000 0.000000 1.719710 
# 
# From -- ./inp_files/1719.got.cif
#   From: 2010.05.17/outbox.cif.g08.bks.cpg/sg83_1_cif.got.tgz:1719.got - 2010.06.03 18:55:12.
