data_PCOD9543340
_publ_section_title
;
Structure prediction by ZEFSAII (Michael W. Deem and Ramdas Pophale) SiO2 
 PCOD9543340
Probable space group: P 4/M
;
_chemical_formula_sum "Si O2"
_cell_formula_units_Z 56
_cell_length_a 13.881294
_cell_length_b 13.881294
_cell_length_c 13.663973
_cell_angle_alpha 90.000000
_cell_angle_beta 90.000000
_cell_angle_gamma 90.000000
_cell_volume 2632.915372
_symmetry_space_group_name_H-M "P 4/M"
_symmetry_group_IT_number 83
_symmetry_cell_setting 'tetragonal'
loop_
_space_group_symop_operation_xyz
x,y,z
-y,x,z
-x,-y,z
y,-x,z
-x,-y,-z
y,-x,-z
x,y,-z
-y,x,-z
loop_
_atom_site_type_symbol
_atom_site_label
_atom_site_fract_x
_atom_site_fract_y
_atom_site_fract_z
Si Si1 0.674694 0.150874 0.605507
Si Si2 0.404520 0.217305 0.888073
Si Si3 0.912431 0.562472 0.787380
Si Si4 0.016861 0.156011 0.654122
Si Si5 0.286190 0.061393 0.200535
Si Si6 0.651205 0.444612 0.706479
Si Si7 0.664382 0.814133 0.391012
O O1 0.625312 0.152791 0.500000
O O2 0.606218 0.148048 0.698959
O O3 0.746588 0.240936 0.612717
O O4 0.744879 0.057828 0.611542
O O5 0.494383 0.147739 0.858558
O O6 0.308271 0.152255 0.869201
O O7 0.415743 0.304645 0.812247
O O8 0.409327 0.247005 0.000000
O O9 0.000000 0.500000 0.743699
O O10 0.971894 0.649478 0.835867
O O11 0.987521 0.185947 0.766247
O O12 0.100622 0.080394 0.626637
O O13 0.324445 0.109852 0.303201
O O14 0.618565 0.554744 0.694442
O O15 0.737595 0.419028 0.632976
O O16 0.655469 0.855177 0.500000
#
# Coordination Sequence:
#
# PCOD9543340 Si02
#       7
#     8   8   8   8   8   8   8
#     4  10  20  33  52  81 121 162 201 239 278 330
#     4  10  21  39  64  89 113 144 188 240 298 360
#     4   9  19  35  54  81 113 151 194 240 291 340
#     4  10  19  33  55  82 116 162 201 238 289 341
#     4   9  19  35  56  84 119 154 191 242 292 339
#     4  10  22  40  62  87 118 151 185 233 289 350
#     4  10  20  36  56  81 118 159 198 237 275 328
#
# _framework density 21.269199
#
# number of rings (size 3 to 8) (size 9 to 14) (size 15 to 20)
#    0.000    2.286    1.429    0.857    0.000    6.857 
#    0.000   10.714    0.000    0.857    0.000    1.000 
#    0.000    0.000    0.000    0.000    0.000    0.000 
#
# Total GULP energy -311901.253484 kJ/mol
# GULP energy per Si atom -5569.665241 kJ/mol
# Density = 2.122079 g / cm^3
# Si number density = 21.269199 Si / 1000 Ang^3
#
#
#
# Elastic Constant Matrix: (Units=GPa)
#
#
# Indices 1 2 3 4 5 6 
#
# 1 65.9504 1.9007 -4.5464 0.0000 0.0000 0.7494
# 2 1.9007 65.9504 -4.5464 0.0000 0.0000 -0.7494
# 3 -4.5464 -4.5464 45.7151 0.0000 0.0000 0.0000
# 4 0.0000 0.0000 0.0000 6.9936 0.0000 0.0000
# 5 0.0000 0.0000 0.0000 0.0000 6.9936 0.0000
# 6 0.7494 -0.7494 0.0000 0.0000 0.0000 31.6492
#
#
#
# Elastic Compliance Matrix: (Units=1/GPa)
#
#
# Indices 1 2 3 4 5 6 
#
# 1 0.015279 -0.000342 0.001486 0.000000 0.000000 -0.000370
# 2 -0.000342 0.015279 0.001486 0.000000 0.000000 0.000370
# 3 0.001486 0.001486 0.022170 0.000000 0.000000 0.000000
# 4 0.000000 0.000000 0.000000 0.142988 0.000000 0.000000
# 5 0.000000 0.000000 0.000000 0.000000 0.142988 0.000000
# 6 -0.000370 0.000370 0.000000 0.000000 0.000000 0.031614
#
#
# Mechanical properties :
#
#
# Convention : Reuss Voigt Hill
#
# Bulk Modulus (GPa) = 17.24534 18.13684 17.69109
# Shear Modulus (GPa) = 13.00763 21.44782 17.22772
#
# Velocity S-wave (km/s) = 2.47568 3.17897 2.84911
# Velocity P-wave (km/s) = 4.03704 4.69258 4.37710
#
# Compressibility (1/GPa) = 0.05798668
#
# Stress axis : x y z
#
# Youngs Moduli (GPa) = 65.44770 65.44770 45.10584
#
# Poissons Ratio (x) = 0.02239 -0.06701
# Poissons Ratio (y) = 0.02239 -0.06701
# Poissons Ratio (z) = -0.09722 -0.09722
#
# Static dielectric constant tensor:
#      x y z
#    x 1.826930 0.000000 0.000000 
#    y 0.000000 1.826930 0.000000 
#    z 0.000000 0.000000 1.760510 
# 
# From -- ./inp_files/1964.got.cif
#   From: 2010.05.17/outbox.cif.g08.bks.cpg/sg83_1_cif.got.tgz:1964.got - 2010.06.03 18:55:12.
