data_PCOD9543418
_publ_section_title
;
Structure prediction by ZEFSAII (Michael W. Deem and Ramdas Pophale) SiO2 
 PCOD9543418
Probable space group: P 4/M
;
_chemical_formula_sum "Si O2"
_cell_formula_units_Z 40
_cell_length_a 13.924962
_cell_length_b 13.924962
_cell_length_c 11.187080
_cell_angle_alpha 90.000000
_cell_angle_beta 90.000000
_cell_angle_gamma 90.000000
_cell_volume 2169.225900
_symmetry_space_group_name_H-M "P 4/M"
_symmetry_group_IT_number 83
_symmetry_cell_setting 'tetragonal'
loop_
_space_group_symop_operation_xyz
x,y,z
-y,x,z
-x,-y,z
y,-x,z
-x,-y,-z
y,-x,-z
x,y,-z
-y,x,-z
loop_
_atom_site_type_symbol
_atom_site_label
_atom_site_fract_x
_atom_site_fract_y
_atom_site_fract_z
Si Si1 0.548706 0.204893 0.500000
Si Si2 0.236764 0.233746 0.242078
Si Si3 0.920699 0.860494 0.368557
Si Si4 0.618558 0.918012 0.139455
Si Si5 0.586966 0.126034 0.239691
Si Si6 0.269331 0.671495 0.500000
O O1 0.571206 0.143632 0.381123
O O2 0.439761 0.241488 0.500000
O O3 0.619255 0.296960 0.500000
O O4 0.129091 0.196246 0.264380
O O5 0.298936 0.160110 0.165596
O O6 0.212717 0.341780 0.199897
O O7 0.284619 0.231833 0.374603
O O8 0.900543 0.817725 0.500000
O O9 0.033780 0.874711 0.362691
O O10 0.516550 0.871691 0.176517
O O11 0.625369 0.018292 0.212280
O O12 0.617730 0.942997 0.000000
#
# Coordination Sequence:
#
# PCOD9543418 Si02
#       6
#     4   8   8   8   8   4
#     4  10  20  37  59  90 117 154 179 231 302 352
#     4  11  20  36  57  84 112 149 186 238 287 347
#     4   9  17  29  47  76 114 148 176 215 275 342
#     4  11  24  40  59  82 112 158 202 242 284 327
#     4  10  22  38  59  87 119 145 191 238 291 346
#     4  10  20  34  56  86 118 141 190 228 290 355
#
# _framework density 18.439757
#
# number of rings (size 3 to 8) (size 9 to 14) (size 15 to 20)
#    0.000    1.800    3.000    3.000    0.000    4.200 
#    0.000    0.000    0.000    0.600    0.000    5.600 
#    0.000    0.000    0.000    0.000    0.000    0.000 
#
# Total GULP energy -222899.266316 kJ/mol
# GULP energy per Si atom -5572.481658 kJ/mol
# Density = 1.839779 g / cm^3
# Si number density = 18.439757 Si / 1000 Ang^3
#
#
#
# Elastic Constant Matrix: (Units=GPa)
#
#
# Indices 1 2 3 4 5 6 
#
# 1 33.1265 84.7860 41.2331 0.0000 0.0000 -3.0086
# 2 84.7860 33.1265 41.2331 0.0000 0.0000 3.0086
# 3 41.2331 41.2331 73.0557 0.0000 0.0000 0.0000
# 4 0.0000 0.0000 0.0000 13.1596 0.0000 0.0000
# 5 0.0000 0.0000 0.0000 0.0000 13.1596 0.0000
# 6 -3.0086 3.0086 0.0000 0.0000 0.0000 28.1276
#
#
#
# Elastic Compliance Matrix: (Units=1/GPa)
#
#
# Indices 1 2 3 4 5 6 
#
# 1 -0.002554 0.016566 -0.007908 0.000000 0.000000 -0.002045
# 2 0.016566 -0.002554 -0.007908 0.000000 0.000000 0.002045
# 3 -0.007908 -0.007908 0.022615 0.000000 0.000000 0.000000
# 4 0.000000 0.000000 0.000000 0.075990 0.000000 0.000000
# 5 0.000000 0.000000 0.000000 0.000000 0.075990 0.000000
# 6 -0.002045 0.002045 0.000000 0.000000 0.000000 0.035115
#
#
# Mechanical properties :
#
#
# Convention : Reuss Voigt Hill
#
# Bulk Modulus (GPa) = 52.61646 52.64591 52.63119
# Shear Modulus (GPa) = 23.87314 9.02646 16.44980
#
# Velocity S-wave (km/s) = 3.60204 2.21489 2.99002
# Velocity P-wave (km/s) = 6.77464 5.92901 6.36588
#
# Compressibility (1/GPa) = 0.01900546
#
# Stress axis : x y z
#
# Youngs Moduli (GPa) = -391.58321 -391.58321 44.21799
#
# Poissons Ratio (x) = 6.48680 0.34969
# Poissons Ratio (y) = 6.48680 0.34969
# Poissons Ratio (z) = -3.09678 -3.09678
#
# Static dielectric constant tensor:
#      x y z
#    x 1.665070 0.000000 0.000000 
#    y 0.000000 1.665070 0.000000 
#    z 0.000000 0.000000 1.627700 
# 
# From -- ./inp_files/727.got.cif
#   From: 2010.05.17/outbox.cif.g08.bks.cpg/sg83_1_cif.got.tgz:727.got - 2010.06.03 18:55:12.
