data_PCOD9543858
_publ_section_title
;
Structure prediction by ZEFSAII (Michael W. Deem and Ramdas Pophale) SiO2 
 PCOD9543858
Probable space group: P 4/M
;
_chemical_formula_sum "Si O2"
_cell_formula_units_Z 24
_cell_length_a 11.038805
_cell_length_b 11.038805
_cell_length_c 8.818257
_cell_angle_alpha 90.000000
_cell_angle_beta 90.000000
_cell_angle_gamma 90.000000
_cell_volume 1074.550610
_symmetry_space_group_name_H-M "P 4/M"
_symmetry_group_IT_number 83
_symmetry_cell_setting 'tetragonal'
loop_
_space_group_symop_operation_xyz
x,y,z
-y,x,z
-x,-y,z
y,-x,z
-x,-y,-z
y,-x,-z
x,y,-z
-y,x,-z
loop_
_atom_site_type_symbol
_atom_site_label
_atom_site_fract_x
_atom_site_fract_y
_atom_site_fract_z
Si Si1 0.308423 0.262407 0.327915
Si Si2 0.183091 0.083519 0.836889
Si Si3 0.856787 0.532482 0.180155
O O1 0.338985 0.293257 0.500000
O O2 0.251126 0.128639 0.309755
O O3 0.206734 0.353134 0.262820
O O4 0.426812 0.238794 0.226365
O O5 0.055909 0.151972 0.838027
O O6 0.246086 0.110749 0.000000
O O7 0.000000 0.500000 0.219924
O O8 0.856971 0.553773 0.000000
#
# Coordination Sequence:
#
# PCOD9543858 Si02
#       3
#     8   8   8
#     4  12  25  40  62  94 131 166 208 267 330 385
#     4   9  18  34  57  85 119 162 211 259 311 379
#     4  11  25  46  71  96 127 173 225 269 314 381
#
# _framework density 22.334918999999999
#
# number of rings (size 3 to 8) (size 9 to 14) (size 15 to 20)
#    0.000    1.333    0.000    7.000    0.000   12.667 
#    0.000    5.000    0.000    0.000    0.000    0.000 
#    0.000    0.000    0.000    0.000    0.000    0.000 
#
# Total GULP energy -133711.766822 kJ/mol
# GULP energy per Si atom -5571.323618 kJ/mol
# Density = 2.228408 g / cm^3
# Si number density = 22.334919 Si / 1000 Ang^3
#
#
#
# Elastic Constant Matrix: (Units=GPa)
#
#
# Indices 1 2 3 4 5 6 
#
# 1 78.1883 23.3272 27.9805 0.0000 0.0000 -8.1365
# 2 23.3272 78.1883 27.9805 0.0000 0.0000 8.1365
# 3 27.9805 27.9805 88.3065 0.0000 0.0000 0.0000
# 4 0.0000 0.0000 0.0000 12.5070 0.0000 0.0000
# 5 0.0000 0.0000 0.0000 0.0000 12.5070 0.0000
# 6 -8.1365 8.1365 0.0000 0.0000 0.0000 43.3001
#
#
#
# Elastic Compliance Matrix: (Units=1/GPa)
#
#
# Indices 1 2 3 4 5 6 
#
# 1 0.015620 -0.003684 -0.003782 0.000000 0.000000 0.003627
# 2 -0.003684 0.015620 -0.003782 0.000000 0.000000 -0.003627
# 3 -0.003782 -0.003782 0.013721 0.000000 0.000000 0.000000
# 4 0.000000 0.000000 0.000000 0.079955 0.000000 0.000000
# 5 0.000000 0.000000 0.000000 0.000000 0.079955 0.000000
# 6 0.003627 -0.003627 0.000000 0.000000 0.000000 0.024458
#
#
# Mechanical properties :
#
#
# Convention : Reuss Voigt Hill
#
# Bulk Modulus (GPa) = 44.51486 44.80659 44.66073
# Shear Modulus (GPa) = 19.28182 24.68917 21.98550
#
# Velocity S-wave (km/s) = 2.94139 3.32837 3.14085
# Velocity P-wave (km/s) = 5.61334 5.90555 5.76130
#
# Compressibility (1/GPa) = 0.02246441
#
# Stress axis : x y z
#
# Youngs Moduli (GPa) = 64.02203 64.02203 72.88211
#
# Poissons Ratio (x) = 0.23587 0.27563
# Poissons Ratio (y) = 0.23587 0.27563
# Poissons Ratio (z) = 0.24212 0.24212
#
# Static dielectric constant tensor:
#      x y z
#    x 1.889590 0.000000 0.000000 
#    y 0.000000 1.889590 0.000000 
#    z 0.000000 0.000000 1.824220 
# 
# From -- ./inp_files/273.got.cif
#   From: 2010.05.17/outbox.cif.g08.bks.cpg/sg83_1_cif.got.tgz:273.got - 2010.06.03 18:55:12.
