data_PCOD9543580
_publ_section_title
;
Structure prediction by ZEFSAII (Michael W. Deem and Ramdas Pophale) SiO2 
 PCOD9543580
Probable space group: P 4/M
;
_chemical_formula_sum "Si O2"
_cell_formula_units_Z 56
_cell_length_a 11.902321
_cell_length_b 11.902321
_cell_length_c 20.010054
_cell_angle_alpha 90.000000
_cell_angle_beta 90.000000
_cell_angle_gamma 90.000000
_cell_volume 2834.729206
_symmetry_space_group_name_H-M "P 4/M"
_symmetry_group_IT_number 83
_symmetry_cell_setting 'tetragonal'
loop_
_space_group_symop_operation_xyz
x,y,z
-y,x,z
-x,-y,z
y,-x,z
-x,-y,-z
y,-x,-z
x,y,-z
-y,x,-z
loop_
_atom_site_type_symbol
_atom_site_label
_atom_site_fract_x
_atom_site_fract_y
_atom_site_fract_z
Si Si1 0.875473 0.490375 0.176435
Si Si2 0.313649 0.542547 0.281707
Si Si3 0.852606 0.122146 0.571697
Si Si4 0.744255 0.144284 0.855812
Si Si5 0.458458 0.313835 0.571232
Si Si6 0.854501 0.122410 0.283879
Si Si7 0.084744 0.706641 0.922481
O O1 0.781874 0.444017 0.226458
O O2 0.839145 0.612284 0.151495
O O3 0.893808 0.411700 0.112797
O O4 0.000000 0.500000 0.209239
O O5 0.370950 0.418288 0.275752
O O6 0.260112 0.553381 0.355982
O O7 0.804671 0.161219 0.500000
O O8 0.848911 0.985816 0.571731
O O9 0.806887 0.160491 0.643700
O O10 0.795589 0.164909 0.782519
O O11 0.804277 0.221827 0.909388
O O12 0.762617 0.016794 0.880793
O O13 0.581332 0.372074 0.570971
O O14 0.445325 0.251878 0.500000
O O15 0.986475 0.152115 0.282000
O O16 0.056156 0.698105 0.000000
#
# Coordination Sequence:
#
# PCOD9543580 Si02
#       7
#     8   8   8   8   8   8   8
#     4  10  23  38  54  74 107 147 179 208 252 321
#     4   9  16  30  55  83 106 131 174 229 270 302
#     4   7  10  17  33  62 100 139 170 202 251 303
#     4  11  21  37  58  82 109 139 176 218 269 323
#     4   7  10  18  38  73 109 131 155 207 275 320
#     4   9  15  26  47  76 110 136 167 219 267 307
#     4  11  24  40  59  82 106 136 172 218 269 326
#
# _framework density 19.754974000000001
#
# number of rings (size 3 to 8) (size 9 to 14) (size 15 to 20)
#    0.000    2.857    1.429    3.857    0.000    3.429 
#    0.000    0.714    0.000    1.286    0.000    7.000 
#    0.000    0.000    0.000    0.000    0.000    0.000 
#
# Total GULP energy -312105.757196 kJ/mol
# GULP energy per Si atom -5573.317093 kJ/mol
# Density = 1.971001 g / cm^3
# Si number density = 19.754974 Si / 1000 Ang^3
#
#
#
# Elastic Constant Matrix: (Units=GPa)
#
#
# Indices 1 2 3 4 5 6 
#
# 1 38.2828 23.3208 22.0707 0.0000 0.0000 5.6979
# 2 23.3208 38.2828 22.0707 0.0000 0.0000 -5.6979
# 3 22.0707 22.0707 148.2327 0.0000 0.0000 0.0000
# 4 0.0000 0.0000 0.0000 -2.2873 0.0000 0.0000
# 5 0.0000 0.0000 0.0000 0.0000 -2.2873 0.0000
# 6 5.6979 -5.6979 0.0000 0.0000 0.0000 8.7565
#
#
#
# Elastic Compliance Matrix: (Units=1/GPa)
#
#
# Indices 1 2 3 4 5 6 
#
# 1 0.075339 -0.057167 -0.002706 0.000000 0.000000 -0.086222
# 2 -0.057167 0.075339 -0.002706 0.000000 0.000000 0.086222
# 3 -0.002706 -0.002706 0.007552 0.000000 0.000000 0.000000
# 4 0.000000 0.000000 0.000000 -0.437193 0.000000 0.000000
# 5 0.000000 0.000000 0.000000 0.000000 -0.437193 0.000000
# 6 -0.086222 0.086222 0.000000 0.000000 0.000000 0.226411
#
#
# Mechanical properties :
#
#
# Convention : Reuss Voigt Hill
#
# Bulk Modulus (GPa) = 30.23667 39.96919 35.10293
# Shear Modulus (GPa) = -14.14172 11.32545 -1.40814
#
# Velocity S-wave (km/s) = -2.67845 2.39696 -0.84519
# Velocity P-wave (km/s) = 2.40283 5.28554 4.10552
#
# Compressibility (1/GPa) = 0.03307243
#
# Stress axis : x y z
#
# Youngs Moduli (GPa) = 13.27338 13.27338 132.41813
#
# Poissons Ratio (x) = 0.75880 0.35827
# Poissons Ratio (y) = 0.75880 0.35827
# Poissons Ratio (z) = 0.03591 0.03591
#
# Static dielectric constant tensor:
#      x y z
#    x 1.708470 0.000000 0.000000 
#    y 0.000000 1.708470 0.000000 
#    z 0.000000 0.000000 1.727450 
# 
# From -- ./inp_files/3012.got.cif
#   From: 2010.05.17/outbox.cif.g08.bks.cpg/sg83_2_cif.got.tgz:3012.got - 2010.06.03 18:55:12.
