data_PCOD9543143
_publ_section_title
;
Structure prediction by ZEFSAII (Michael W. Deem and Ramdas Pophale) SiO2 
 PCOD9543143
Probable space group: I -4 
;
_chemical_formula_sum "Si O2"
_cell_formula_units_Z 20
_cell_length_a 7.054203
_cell_length_b 7.054203
_cell_length_c 20.599533
_cell_angle_alpha 90.000000
_cell_angle_beta 90.000000
_cell_angle_gamma 90.000000
_cell_volume 1025.069429
_symmetry_space_group_name_H-M "I -4 "
_symmetry_group_IT_number 82
_symmetry_cell_setting 'tetragonal'
loop_
_space_group_symop_operation_xyz
x,y,z
y,-x,-z
-x,-y,z
-y,x,-z
1/2+x,1/2+y,1/2+z
1/2+y,1/2-x,1/2-z
1/2-x,1/2-y,1/2+z
1/2-y,1/2+x,1/2-z
loop_
_atom_site_type_symbol
_atom_site_label
_atom_site_fract_x
_atom_site_fract_y
_atom_site_fract_z
Si Si1 0.222452 0.041124 0.724579
Si Si2 0.000000 0.000000 0.000000
Si Si3 0.158019 0.662834 0.414936
Si Si4 0.500000 0.500000 0.000000
O O1 0.338883 0.165416 0.777725
O O2 0.261976 0.160551 0.659074
O O3 0.000000 0.000000 0.734943
O O4 0.155613 0.912362 0.951101
O O5 0.088096 0.839628 0.455875
O O6 0.000000 0.500000 0.417625
#
# Coordination Sequence:
#
# PCOD9543143 Si02
#       4
#     8   2   8   2
#     4  11  25  45  69  98 138 179 227 282 332 400
#     4  12  28  40  74 104 136 176 228 274 348 400
#     4  12  24  44  67 103 139 178 224 281 334 405
#     4  12  24  44  70  96 144 180 224 278 344 392
#
# _framework density 19.510876
#
# number of rings (size 3 to 8) (size 9 to 14) (size 15 to 20)
#    0.000    0.400   10.000    0.000    2.800    0.800 
#    0.000    4.000    0.000    0.000    0.000    0.000 
#    0.000    0.000    0.000    0.000    0.000    0.000 
#
# Total GULP energy -55798.318249 kJ/mol
# GULP energy per Si atom -5579.831825 kJ/mol
# Density = 1.946647 g / cm^3
# Si number density = 19.510876 Si / 1000 Ang^3
#
#
#
# Elastic Constant Matrix: (Units=GPa)
#
#
# Indices 1 2 3 4 5 6 
#
# 1 137.1970 57.0092 28.3440 0.0000 0.0000 2.3485
# 2 57.0092 137.1970 28.3440 0.0000 0.0000 -2.3485
# 3 28.3440 28.3440 101.3757 0.0000 0.0000 0.0000
# 4 0.0000 0.0000 0.0000 21.7418 0.0000 0.0000
# 5 0.0000 0.0000 0.0000 0.0000 21.7418 0.0000
# 6 2.3485 -2.3485 0.0000 0.0000 0.0000 38.4284
#
#
#
# Elastic Compliance Matrix: (Units=1/GPa)
#
#
# Indices 1 2 3 4 5 6 
#
# 1 0.009061 -0.003454 -0.001568 0.000000 0.000000 -0.000765
# 2 -0.003454 0.009061 -0.001568 0.000000 0.000000 0.000765
# 3 -0.001568 -0.001568 0.010741 0.000000 0.000000 0.000000
# 4 0.000000 0.000000 0.000000 0.045994 0.000000 0.000000
# 5 0.000000 0.000000 0.000000 0.000000 0.045994 0.000000
# 6 -0.000765 0.000765 0.000000 0.000000 0.000000 0.026116
#
#
# Mechanical properties :
#
#
# Convention : Reuss Voigt Hill
#
# Bulk Modulus (GPa) = 63.75953 67.01825 65.38889
# Shear Modulus (GPa) = 30.23431 33.85389 32.04410
#
# Velocity S-wave (km/s) = 3.94078 4.17001 4.05701
# Velocity P-wave (km/s) = 7.31138 7.59006 7.45202
#
# Compressibility (1/GPa) = 0.01568393
#
# Stress axis : x y z
#
# Youngs Moduli (GPa) = 110.36145 110.36146 93.10219
#
# Poissons Ratio (x) = 0.38123 0.14595
# Poissons Ratio (y) = 0.38123 0.14595
# Poissons Ratio (z) = 0.17300 0.17300
#
# Static dielectric constant tensor:
#      x y z
#    x 1.688440 0.000000 0.000000 
#    y 0.000000 1.688440 0.000000 
#    z 0.000000 0.000000 1.751110 
# 
# From -- ./inp_files/3206.got.cif
#   From: 2010.05.17/outbox.cif.g08.bks.cpg/sg82_2_cif.got.tgz:3206.got - 2010.06.03 18:52:26.
