data_PCOD9543320
_publ_section_title
;
Structure prediction by ZEFSAII (Michael W. Deem and Ramdas Pophale) SiO2 
 PCOD9543320
Probable space group: P 4/M
;
_chemical_formula_sum "Si O2"
_cell_formula_units_Z 52
_cell_length_a 14.125958
_cell_length_b 14.125958
_cell_length_c 12.255118
_cell_angle_alpha 90.000000
_cell_angle_beta 90.000000
_cell_angle_gamma 90.000000
_cell_volume 2445.419205
_symmetry_space_group_name_H-M "P 4/M"
_symmetry_group_IT_number 83
_symmetry_cell_setting 'tetragonal'
loop_
_space_group_symop_operation_xyz
x,y,z
-y,x,z
-x,-y,z
y,-x,z
-x,-y,-z
y,-x,-z
x,y,-z
-y,x,-z
loop_
_atom_site_type_symbol
_atom_site_label
_atom_site_fract_x
_atom_site_fract_y
_atom_site_fract_z
Si Si1 0.966546 0.851888 0.163304
Si Si2 0.445353 0.352123 0.368101
Si Si3 0.234796 0.715399 0.302501
Si Si4 0.792176 0.632082 0.500000
Si Si5 0.573327 0.084636 0.676811
Si Si6 0.234412 0.023820 0.375153
Si Si7 0.323880 0.847171 0.876881
O O1 0.934322 0.750763 0.121103
O O2 0.068701 0.891063 0.130597
O O3 0.973432 0.839523 0.294671
O O4 0.552998 0.382227 0.344452
O O5 0.439954 0.340013 0.500000
O O6 0.393641 0.267736 0.305177
O O7 0.292949 0.759471 0.403876
O O8 0.124865 0.735457 0.324983
O O9 0.269469 0.766468 0.192364
O O10 0.829502 0.557539 0.594927
O O11 0.590929 0.119539 0.799376
O O12 0.500000 0.000000 0.670582
O O13 0.672020 0.041399 0.629199
O O14 0.203351 0.033247 0.500000
O O15 0.348339 0.820604 0.000000
#
# Coordination Sequence:
#
# PCOD9543320 Si02
#       7
#     8   8   8   4   8   8   8
#     4  10  21  38  57  81 109 146 194 235 287 334
#     4   9  18  34  57  89 124 156 186 225 283 353
#     4  11  20  36  56  85 119 149 189 237 288 342
#     4  10  19  32  54  79 114 154 182 222 291 345
#     4  10  22  38  55  83 116 150 191 237 283 345
#     4  11  21  33  57  84 120 152 187 230 285 350
#     4  10  23  41  60  79 110 152 196 244 288 332
#
# _framework density 21.264250000000001
#
# number of rings (size 3 to 8) (size 9 to 14) (size 15 to 20)
#    0.000    1.846    3.846    0.692    0.000    4.000 
#    0.000    1.538    0.000    2.769    0.000    1.077 
#    0.000    0.000    0.000    0.000    0.000    0.000 
#
# Total GULP energy -289558.429885 kJ/mol
# GULP energy per Si atom -5568.431344 kJ/mol
# Density = 2.121585 g / cm^3
# Si number density = 21.264250 Si / 1000 Ang^3
#
#
#
# Elastic Constant Matrix: (Units=GPa)
#
#
# Indices 1 2 3 4 5 6 
#
# 1 57.3694 21.8298 8.9537 0.0000 0.0000 4.2559
# 2 21.8298 57.3694 8.9537 0.0000 0.0000 -4.2559
# 3 8.9537 8.9537 143.8893 0.0000 0.0000 0.0000
# 4 0.0000 0.0000 0.0000 7.2633 0.0000 0.0000
# 5 0.0000 0.0000 0.0000 0.0000 7.2633 0.0000
# 6 4.2559 -4.2559 0.0000 0.0000 0.0000 43.8709
#
#
#
# Elastic Compliance Matrix: (Units=1/GPa)
#
#
# Indices 1 2 3 4 5 6 
#
# 1 0.020807 -0.008000 -0.000797 0.000000 0.000000 -0.002795
# 2 -0.008000 0.020807 -0.000797 0.000000 0.000000 0.002795
# 3 -0.000797 -0.000797 0.007049 0.000000 0.000000 0.000000
# 4 0.000000 0.000000 0.000000 0.137678 0.000000 0.000000
# 5 0.000000 0.000000 0.000000 0.000000 0.137678 0.000000
# 6 -0.002795 0.002795 0.000000 0.000000 0.000000 0.023336
#
#
# Mechanical properties :
#
#
# Convention : Reuss Voigt Hill
#
# Bulk Modulus (GPa) = 33.92767 37.56697 35.74732
# Shear Modulus (GPa) = 13.28486 26.27222 19.77854
#
# Velocity S-wave (km/s) = 2.50221 3.51880 3.05311
# Velocity P-wave (km/s) = 4.93336 5.84930 5.41075
#
# Compressibility (1/GPa) = 0.02947447
#
# Stress axis : x y z
#
# Youngs Moduli (GPa) = 48.06134 48.06134 141.86482
#
# Poissons Ratio (x) = 0.38450 0.11305
# Poissons Ratio (y) = 0.38450 0.11305
# Poissons Ratio (z) = 0.03830 0.03830
#
# Static dielectric constant tensor:
#      x y z
#    x 1.856910 0.000000 0.000000 
#    y 0.000000 1.856910 0.000000 
#    z 0.000000 0.000000 1.753930 
# 
# From -- ./inp_files/1922.got.cif
#   From: 2010.05.17/outbox.cif.g08.bks.cpg/sg83_1_cif.got.tgz:1922.got - 2010.06.03 18:55:12.
