data_PCOD9543448
_publ_section_title
;
Structure prediction by ZEFSAII (Michael W. Deem and Ramdas Pophale) SiO2 
 PCOD9543448
Probable space group: P 4/M
;
_chemical_formula_sum "Si O2"
_cell_formula_units_Z 58
_cell_length_a 17.735144
_cell_length_b 17.735144
_cell_length_c 7.625628
_cell_angle_alpha 90.000000
_cell_angle_beta 90.000000
_cell_angle_gamma 90.000000
_cell_volume 2398.529440
_symmetry_space_group_name_H-M "P 4/M"
_symmetry_group_IT_number 83
_symmetry_cell_setting 'tetragonal'
loop_
_space_group_symop_operation_xyz
x,y,z
-y,x,z
-x,-y,z
y,-x,z
-x,-y,-z
y,-x,-z
x,y,-z
-y,x,-z
loop_
_atom_site_type_symbol
_atom_site_label
_atom_site_fract_x
_atom_site_fract_y
_atom_site_fract_z
Si Si1 0.375001 0.791997 0.702386
Si Si2 0.939447 0.720814 0.786312
Si Si3 0.895426 0.327187 0.199510
Si Si4 0.491903 0.892805 0.811750
Si Si5 0.660290 0.733505 0.203558
Si Si6 0.000000 0.500000 0.500000
Si Si7 0.047026 0.111190 0.786593
Si Si8 0.452395 0.387047 0.785756
O O1 0.384250 0.772889 0.500000
O O2 0.328837 0.869995 0.723455
O O3 0.455443 0.811008 0.787653
O O4 0.326639 0.727278 0.791374
O O5 0.023840 0.697237 0.724673
O O6 0.926348 0.807138 0.731304
O O7 0.939640 0.716712 0.000000
O O8 0.893930 0.418077 0.194673
O O9 0.813287 0.311613 0.282259
O O10 0.895455 0.295723 0.000000
O O11 0.467833 0.944161 0.652451
O O12 0.465751 0.922418 0.000000
O O13 0.588609 0.688582 0.279119
O O14 0.642521 0.751383 0.000000
O O15 0.095734 0.039253 0.730906
O O16 0.047489 0.110667 0.000000
O O17 0.538555 0.403944 0.733954
O O18 0.451279 0.384875 0.000000
#
# Coordination Sequence:
#
# PCOD9543448 Si02
#       8
#     8   8   8   8   8   2   8   8
#     4  12  26  43  59  90 125 172 224 269 326 392
#     4  10  20  36  61  87 119 159 202 261 322 385
#     4   9  21  38  62  96 125 164 216 264 325 396
#     4  11  23  42  67  95 133 174 220 275 329 395
#     4  10  21  38  64  94 129 165 210 270 331 392
#     4  12  22  40  68 102 128 168 224 274 328 398
#     4   8  15  28  52  86 116 145 187 243 306 375
#     4   8  15  29  55  92 126 157 199 254 319 390
#
# _framework density 24.181483
#
# number of rings (size 3 to 8) (size 9 to 14) (size 15 to 20)
#    0.000    2.207    0.690    3.103    3.862    1.103 
#    1.241    0.000    0.000    0.000    0.000    1.931 
#    0.000    0.000    0.000    0.000    0.000    0.000 
#
# Total GULP energy -323602.347051 kJ/mol
# GULP energy per Si atom -5579.350811 kJ/mol
# Density = 2.412645 g / cm^3
# Si number density = 24.181483 Si / 1000 Ang^3
#
#
#
# Elastic Constant Matrix: (Units=GPa)
#
#
# Indices 1 2 3 4 5 6 
#
# 1 70.1605 0.4907 1.6301 0.0000 0.0000 -2.0536
# 2 0.4907 70.1605 1.6301 0.0000 0.0000 2.0536
# 3 1.6301 1.6301 97.2231 0.0000 0.0000 0.0000
# 4 0.0000 0.0000 0.0000 0.1778 0.0000 0.0000
# 5 0.0000 0.0000 0.0000 0.0000 0.1778 0.0000
# 6 -2.0536 2.0536 0.0000 0.0000 0.0000 26.3107
#
#
#
# Elastic Compliance Matrix: (Units=1/GPa)
#
#
# Indices 1 2 3 4 5 6 
#
# 1 0.014292 -0.000127 -0.000237 0.000000 0.000000 0.001125
# 2 -0.000127 0.014292 -0.000237 0.000000 0.000000 -0.001125
# 3 -0.000237 -0.000237 0.010294 0.000000 0.000000 0.000000
# 4 0.000000 0.000000 0.000000 5.625318 0.000000 0.000000
# 5 0.000000 0.000000 0.000000 0.000000 5.625318 0.000000
# 6 0.001125 -0.001125 0.000000 0.000000 0.000000 0.038183
#
#
# Mechanical properties :
#
#
# Convention : Reuss Voigt Hill
#
# Bulk Modulus (GPa) = 26.54379 27.22731 26.88555
# Shear Modulus (GPa) = 0.44086 20.91947 10.68017
#
# Velocity S-wave (km/s) = 0.42744 2.94445 2.10387
# Velocity P-wave (km/s) = 3.35326 4.77951 4.12844
#
# Compressibility (1/GPa) = 0.03767360
#
# Stress axis : x y z
#
# Youngs Moduli (GPa) = 69.96735 69.96735 97.14784
#
# Poissons Ratio (x) = 0.00891 0.02307
# Poissons Ratio (y) = 0.00891 0.02307
# Poissons Ratio (z) = 0.01662 0.01662
#
# Static dielectric constant tensor:
#      x y z
#    x 1.950260 0.000000 0.000000 
#    y 0.000000 1.950260 0.000000 
#    z 0.000000 0.000000 1.903470 
# 
# From -- ./inp_files/1104.got.cif
#   From: 2010.05.17/outbox.cif.g08.bks.cpg/sg83_1_cif.got.tgz:1104.got - 2010.06.03 18:55:12.
