data_PCOD9543017
_publ_section_title
;
Structure prediction by ZEFSAII (Michael W. Deem and Ramdas Pophale) SiO2 
 PCOD9543017
Probable space group: I -4 
;
_chemical_formula_sum "Si O2"
_cell_formula_units_Z 40
_cell_length_a 11.686428
_cell_length_b 11.686428
_cell_length_c 11.720496
_cell_angle_alpha 90.000000
_cell_angle_beta 90.000000
_cell_angle_gamma 90.000000
_cell_volume 1600.698605
_symmetry_space_group_name_H-M "I -4 "
_symmetry_group_IT_number 82
_symmetry_cell_setting 'tetragonal'
loop_
_space_group_symop_operation_xyz
x,y,z
y,-x,-z
-x,-y,z
-y,x,-z
1/2+x,1/2+y,1/2+z
1/2+y,1/2-x,1/2-z
1/2-x,1/2-y,1/2+z
1/2-y,1/2+x,1/2-z
loop_
_atom_site_type_symbol
_atom_site_label
_atom_site_fract_x
_atom_site_fract_y
_atom_site_fract_z
Si Si1 0.216080 0.907218 0.302988
Si Si2 0.017960 0.754065 0.319445
Si Si3 0.382372 0.840404 0.582262
Si Si4 0.500635 0.669226 0.446399
Si Si5 0.845974 0.227276 0.665632
O O1 0.095571 0.171315 0.295291
O O2 0.248204 0.023320 0.367066
O O3 0.312954 0.817686 0.264492
O O4 0.116236 0.836992 0.364324
O O5 0.971356 0.653594 0.400738
O O6 0.065825 0.699461 0.203540
O O7 0.466349 0.796203 0.485983
O O8 0.259559 0.772606 0.575941
O O9 0.590807 0.610578 0.532130
O O10 0.547262 0.667446 0.318881
#
# Coordination Sequence:
#
# PCOD9543017 Si02
#       5
#     8   8   8   8   8
#     4  11  20  36  58  85 126 170 203 263 317 382
#     4   9  17  35  51  88 125 167 201 254 315 389
#     4   9  19  32  53  91 126 156 201 266 307 380
#     4  11  19  30  59  95 128 148 205 272 321 350
#     4   9  20  33  53  86 122 162 216 245 314 388
#
# _framework density 24.989087999999999
#
# number of rings (size 3 to 8) (size 9 to 14) (size 15 to 20)
#    1.200    1.000    4.000    1.800    2.800    0.800 
#    0.000    0.000    0.000    9.600    0.000    0.000 
#   30.000    0.000    0.000    0.000    0.000    0.000 
#
# Total GULP energy -111613.851720 kJ/mol
# GULP energy per Si atom -5580.692586 kJ/mol
# Density = 2.493221 g / cm^3
# Si number density = 24.989088 Si / 1000 Ang^3
#
#
#
# Elastic Constant Matrix: (Units=GPa)
#
#
# Indices 1 2 3 4 5 6 
#
# 1 96.5797 57.8848 15.9521 0.0000 0.0000 -8.4841
# 2 57.8848 96.5797 15.9521 0.0000 0.0000 8.4841
# 3 15.9521 15.9521 74.2073 0.0000 0.0000 0.0000
# 4 0.0000 0.0000 0.0000 13.0666 0.0000 0.0000
# 5 0.0000 0.0000 0.0000 0.0000 13.0666 0.0000
# 6 -8.4841 8.4841 0.0000 0.0000 0.0000 13.1588
#
#
#
# Elastic Compliance Matrix: (Units=1/GPa)
#
#
# Indices 1 2 3 4 5 6 
#
# 1 0.021402 -0.014628 -0.001456 0.000000 0.000000 0.023230
# 2 -0.014628 0.021402 -0.001456 0.000000 0.000000 -0.023230
# 3 -0.001456 -0.001456 0.014102 0.000000 0.000000 0.000000
# 4 0.000000 0.000000 0.000000 0.076531 0.000000 0.000000
# 5 0.000000 0.000000 0.000000 0.000000 0.076531 0.000000
# 6 0.023230 -0.023230 0.000000 0.000000 0.000000 0.105950
#
#
# Mechanical properties :
#
#
# Convention : Reuss Voigt Hill
#
# Bulk Modulus (GPa) = 45.81677 49.66049 47.73863
# Shear Modulus (GPa) = 13.95579 19.69693 16.82636
#
# Velocity S-wave (km/s) = 2.36577 2.81057 2.59771
# Velocity P-wave (km/s) = 5.08301 5.51801 5.30497
#
# Compressibility (1/GPa) = 0.02182607
#
# Stress axis : x y z
#
# Youngs Moduli (GPa) = 46.72380 46.72380 70.91244
#
# Poissons Ratio (x) = 0.68346 0.10327
# Poissons Ratio (y) = 0.68346 0.10327
# Poissons Ratio (z) = 0.06805 0.06805
#
# Static dielectric constant tensor:
#      x y z
#    x 2.005820 0.000000 0.000000 
#    y 0.000000 2.005820 0.000000 
#    z 0.000000 0.000000 1.959220 
# 
# From -- ./inp_files/2207.got.cif
#   From: 2010.05.17/outbox.cif.g08.bks.cpg/sg82_2_cif.got.tgz:2207.got - 2010.06.03 18:52:26.
