data_PCOD9543878
_publ_section_title
;
Structure prediction by ZEFSAII (Michael W. Deem and Ramdas Pophale) SiO2 
 PCOD9543878
Probable space group: P 4/M
;
_chemical_formula_sum "Si O2"
_cell_formula_units_Z 49
_cell_length_a 8.569651
_cell_length_b 8.569651
_cell_length_c 33.266449
_cell_angle_alpha 90.000000
_cell_angle_beta 90.000000
_cell_angle_gamma 90.000000
_cell_volume 2443.052029
_symmetry_space_group_name_H-M "P 4/M"
_symmetry_group_IT_number 83
_symmetry_cell_setting 'tetragonal'
loop_
_space_group_symop_operation_xyz
x,y,z
-y,x,z
-x,-y,z
y,-x,z
-x,-y,-z
y,-x,-z
x,y,-z
-y,x,-z
loop_
_atom_site_type_symbol
_atom_site_label
_atom_site_fract_x
_atom_site_fract_y
_atom_site_fract_z
Si Si1 0.093795 0.246899 0.331082
Si Si2 0.748087 0.925411 0.954143
Si Si3 0.250046 0.418181 0.260619
Si Si4 0.762488 0.113150 0.579956
Si Si5 0.574745 0.170811 0.500000
Si Si6 0.500000 0.500000 0.500000
Si Si7 0.000000 0.500000 0.107790
Si Si8 0.423030 0.751989 0.830177
O O1 0.137104 0.363416 0.295663
O O2 0.133238 0.310461 0.375669
O O3 0.914087 0.192928 0.328115
O O4 0.897866 0.813784 0.949701
O O5 0.614977 0.904194 0.921326
O O6 0.690015 0.907513 0.000000
O O7 0.405191 0.311007 0.264179
O O8 0.186712 0.400055 0.215291
O O9 0.664896 0.168910 0.542414
O O10 0.929257 0.199040 0.577704
O O11 0.455384 0.314631 0.500000
O O12 0.500000 0.000000 0.500000
O O13 0.884443 0.596177 0.136696
O O14 0.312963 0.600483 0.834183
#
# Coordination Sequence:
#
# PCOD9543878 Si02
#       8
#     8   8   8   8   4   1   4   8
#     4   9  19  36  57  84 114 141 185 238 279 330
#     4   9  19  35  52  74 109 145 176 221 278 332
#     4   9  19  37  54  75 105 146 186 220 276 343
#     4   9  18  37  63  87 115 159 201 235 294 369
#     4  12  24  43  64  87 130 166 198 248 318 356
#     4  12  28  44  60 104 132 156 212 284 284 376
#     4  12  19  30  56  84 100 134 192 231 266 324
#     4   9  20  36  52  73 109 143 176 225 279 332
#
# _framework density 20.05688
#
# number of rings (size 3 to 8) (size 9 to 14) (size 15 to 20)
#    0.000    2.449    0.000    5.143    0.000    3.918 
#    8.816    0.000    0.000    1.959    0.000    6.857 
#    0.000    0.000    0.000    0.000    0.000    0.000 
#
# Total GULP energy -273295.952244 kJ/mol
# GULP energy per Si atom -5577.468413 kJ/mol
# Density = 2.001123 g / cm^3
# Si number density = 20.056880 Si / 1000 Ang^3
#
#
#
# Elastic Constant Matrix: (Units=GPa)
#
#
# Indices 1 2 3 4 5 6 
#
# 1 34.9286 8.2695 43.4837 0.0000 0.0000 -2.2393
# 2 8.2695 34.9286 43.4837 0.0000 0.0000 2.2393
# 3 43.4837 43.4837 172.7212 0.0000 0.0000 0.0000
# 4 0.0000 0.0000 0.0000 29.5355 0.0000 0.0000
# 5 0.0000 0.0000 0.0000 0.0000 29.5355 0.0000
# 6 -2.2393 2.2393 0.0000 0.0000 0.0000 21.3144
#
#
#
# Elastic Compliance Matrix: (Units=1/GPa)
#
#
# Indices 1 2 3 4 5 6 
#
# 1 0.042563 0.004378 -0.011818 0.000000 0.000000 0.004012
# 2 0.004378 0.042563 -0.011818 0.000000 0.000000 -0.004012
# 3 -0.011818 -0.011818 0.011740 0.000000 0.000000 0.000000
# 4 0.000000 0.000000 0.000000 0.033858 0.000000 0.000000
# 5 0.000000 0.000000 0.000000 0.000000 0.033858 0.000000
# 6 0.004012 -0.004012 0.000000 0.000000 0.000000 0.047759
#
#
# Mechanical properties :
#
#
# Convention : Reuss Voigt Hill
#
# Bulk Modulus (GPa) = 17.13773 48.11691 32.62732
# Shear Modulus (GPa) = 18.49765 25.89984 22.19874
#
# Velocity S-wave (km/s) = 3.04017 3.59739 3.33045
# Velocity P-wave (km/s) = 4.57019 6.42630 5.57601
#
# Compressibility (1/GPa) = 0.05835080
#
# Stress axis : x y z
#
# Youngs Moduli (GPa) = 23.49479 23.49479 85.17897
#
# Poissons Ratio (x) = -0.10286 1.00661
# Poissons Ratio (y) = -0.10286 1.00661
# Poissons Ratio (z) = 0.27765 0.27765
#
# Static dielectric constant tensor:
#      x y z
#    x 1.755640 0.000000 0.000000 
#    y 0.000000 1.755640 0.000000 
#    z 0.000000 0.000000 1.704980 
# 
# From -- ./inp_files/3527.got.cif
#   From: 2010.05.17/outbox.cif.g08.bks.cpg/sg83_2_cif.got.tgz:3527.got - 2010.06.03 18:55:12.
