data_PCOD9543055
_publ_section_title
;
Structure prediction by ZEFSAII (Michael W. Deem and Ramdas Pophale) SiO2 
 PCOD9543055
Probable space group: I -4 
;
_chemical_formula_sum "Si O2"
_cell_formula_units_Z 42
_cell_length_a 15.317588
_cell_length_b 15.317588
_cell_length_c 7.121368
_cell_angle_alpha 90.000000
_cell_angle_beta 90.000000
_cell_angle_gamma 90.000000
_cell_volume 1670.875907
_symmetry_space_group_name_H-M "I -4 "
_symmetry_group_IT_number 82
_symmetry_cell_setting 'tetragonal'
loop_
_space_group_symop_operation_xyz
x,y,z
y,-x,-z
-x,-y,z
-y,x,-z
1/2+x,1/2+y,1/2+z
1/2+y,1/2-x,1/2-z
1/2-x,1/2-y,1/2+z
1/2-y,1/2+x,1/2-z
loop_
_atom_site_type_symbol
_atom_site_label
_atom_site_fract_x
_atom_site_fract_y
_atom_site_fract_z
Si Si1 0.005243 0.296715 0.210818
Si Si2 0.555043 0.913772 0.038384
Si Si3 0.223331 0.814771 0.694953
Si Si4 0.374424 0.247521 0.222614
Si Si5 0.500000 0.500000 0.500000
Si Si6 0.047568 0.822354 0.911673
O O1 0.955886 0.366475 0.081161
O O2 0.000540 0.343009 0.414509
O O3 0.110116 0.278478 0.195676
O O4 0.960012 0.209170 0.129292
O O5 0.500000 0.000000 0.073499
O O6 0.597730 0.854739 0.199888
O O7 0.262467 0.717941 0.675930
O O8 0.216375 0.856187 0.487778
O O9 0.133214 0.794802 0.800487
O O10 0.458059 0.290081 0.317828
O O11 0.548909 0.425842 0.388665
#
# Coordination Sequence:
#
# PCOD9543055 Si02
#       6
#     8   8   8   8   2   8
#     4  11  21  42  76 100 144 179 237 285 362 434
#     4  11  22  44  73 115 142 189 231 295 374 435
#     4  11  25  46  71 105 140 193 237 296 365 432
#     4  11  27  46  73 103 148 187 244 303 360 436
#     4  12  28  48  82  96 148 204 242 300 364 432
#     4  12  26  49  70 111 140 193 246 303 358 429
#
# _framework density 25.136516
#
# number of rings (size 3 to 8) (size 9 to 14) (size 15 to 20)
#    0.000    0.762    5.714    1.143    0.000    4.571 
#    3.429    0.952    0.000    0.000    0.000    0.000 
#    0.000    0.000    0.000    0.000    0.000    0.000 
#
# Total GULP energy -117296.697318 kJ/mol
# GULP energy per Si atom -5585.557015 kJ/mol
# Density = 2.507930 g / cm^3
# Si number density = 25.136516 Si / 1000 Ang^3
#
#
#
# Elastic Constant Matrix: (Units=GPa)
#
#
# Indices 1 2 3 4 5 6 
#
# 1 142.5480 23.9864 36.8831 0.0000 0.0000 11.5076
# 2 23.9864 142.5480 36.8831 0.0000 0.0000 -11.5076
# 3 36.8831 36.8831 78.7110 0.0000 0.0000 0.0000
# 4 0.0000 0.0000 0.0000 29.9059 0.0000 0.0000
# 5 0.0000 0.0000 0.0000 0.0000 29.9059 0.0000
# 6 11.5076 -11.5076 0.0000 0.0000 0.0000 50.3573
#
#
#
# Elastic Compliance Matrix: (Units=1/GPa)
#
#
# Indices 1 2 3 4 5 6 
#
# 1 0.008202 -0.000624 -0.003551 0.000000 0.000000 -0.002017
# 2 -0.000624 0.008202 -0.003551 0.000000 0.000000 0.002017
# 3 -0.003551 -0.003551 0.016032 0.000000 0.000000 0.000000
# 4 0.000000 0.000000 0.000000 0.033438 0.000000 0.000000
# 5 0.000000 0.000000 0.000000 0.000000 0.033438 0.000000
# 6 -0.002017 0.002017 0.000000 0.000000 0.000000 0.020780
#
#
# Mechanical properties :
#
#
# Convention : Reuss Voigt Hill
#
# Bulk Modulus (GPa) = 58.87728 62.14582 60.51155
# Shear Modulus (GPa) = 35.40943 39.77076 37.59009
#
# Velocity S-wave (km/s) = 3.75732 3.98199 3.87128
# Velocity P-wave (km/s) = 6.50362 6.77633 6.64138
#
# Compressibility (1/GPa) = 0.01698448
#
# Stress axis : x y z
#
# Youngs Moduli (GPa) = 121.92501 121.92501 62.37362
#
# Poissons Ratio (x) = 0.07610 0.22147
# Poissons Ratio (y) = 0.07610 0.22147
# Poissons Ratio (z) = 0.43293 0.43293
#
# Static dielectric constant tensor:
#      x y z
#    x 2.049380 0.000000 0.000000 
#    y 0.000000 2.049380 0.000000 
#    z 0.000000 0.000000 2.055940 
# 
# From -- ./inp_files/966.got.cif
#   From: 2010.05.17/outbox.cif.g08.bks.cpg/sg82_1_cif.got.tgz:966.got - 2010.06.03 18:52:26.
