data_PCOD9543298
_publ_section_title
;
Structure prediction by ZEFSAII (Michael W. Deem and Ramdas Pophale) SiO2 
 PCOD9543298
Probable space group: P 4/M
;
_chemical_formula_sum "Si O2"
_cell_formula_units_Z 64
_cell_length_a 19.329547
_cell_length_b 19.329547
_cell_length_c 10.563234
_cell_angle_alpha 90.000000
_cell_angle_beta 90.000000
_cell_angle_gamma 90.000000
_cell_volume 3946.755773
_symmetry_space_group_name_H-M "P 4/M"
_symmetry_group_IT_number 83
_symmetry_cell_setting 'tetragonal'
loop_
_space_group_symop_operation_xyz
x,y,z
-y,x,z
-x,-y,z
y,-x,z
-x,-y,-z
y,-x,-z
x,y,-z
-y,x,-z
loop_
_atom_site_type_symbol
_atom_site_label
_atom_site_fract_x
_atom_site_fract_y
_atom_site_fract_z
Si Si1 0.407729 0.320767 0.140608
Si Si2 0.127581 0.498927 0.357065
Si Si3 0.690114 0.188339 0.146203
Si Si4 0.655897 0.915999 0.352901
Si Si5 0.418270 0.416822 0.363263
Si Si6 0.462246 0.764748 0.141907
Si Si7 0.194850 0.696997 0.146300
Si Si8 0.075080 0.347249 0.353779
O O1 0.388489 0.374106 0.248475
O O2 0.489464 0.302586 0.147268
O O3 0.366740 0.248957 0.157050
O O4 0.391742 0.347474 0.000000
O O5 0.157326 0.497708 0.500000
O O6 0.091188 0.572551 0.341139
O O7 0.185745 0.489435 0.251921
O O8 0.079731 0.431115 0.345926
O O9 0.620690 0.235851 0.155905
O O10 0.757465 0.235381 0.165795
O O11 0.682051 0.128258 0.250100
O O12 0.691251 0.162573 0.000000
O O13 0.672807 0.898342 0.500000
O O14 0.688771 0.864505 0.250482
O O15 0.674638 0.996090 0.331303
O O16 0.501273 0.407087 0.358645
O O17 0.392784 0.391352 0.500000
O O18 0.475106 0.793882 0.000000
O O19 0.169451 0.697204 0.000000
O O20 0.093911 0.329534 0.500000
#
# Coordination Sequence:
#
# PCOD9543298 Si02
#       8
#     8   8   8   8   8   8   8   8
#     4  10  20  31  48  69  90 119 156 199 245 292
#     4   9  16  28  46  68  95 125 156 192 235 281
#     4   9  19  34  50  68  95 130 164 201 242 287
#     4  10  19  31  49  73 100 129 162 201 243 290
#     4   9  20  37  50  61  81 109 148 204 262 308
#     4   9  17  30  46  64  90 122 158 196 237 282
#     4  10  21  35  49  69 100 131 161 201 246 289
#     4   9  18  32  50  72  98 128 164 203 241 286
#
# _framework density 16.21585
#
# number of rings (size 3 to 8) (size 9 to 14) (size 15 to 20)
#    0.000    2.625    1.250    0.750    1.750    4.000 
#    0.000    0.625    0.000    3.750    0.000    0.000 
#    0.000    0.500    0.000    5.500    0.000    4.000 
#
# Total GULP energy -356610.648397 kJ/mol
# GULP energy per Si atom -5572.041381 kJ/mol
# Density = 1.617894 g / cm^3
# Si number density = 16.215850 Si / 1000 Ang^3
#
#
#
# Elastic Constant Matrix: (Units=GPa)
#
#
# Indices 1 2 3 4 5 6 
#
# 1 62.3577 21.8092 64.8966 0.0000 0.0000 2.1329
# 2 21.8092 62.3577 64.8966 0.0000 0.0000 -2.1329
# 3 64.8966 64.8966 147.4423 0.0000 0.0000 0.0000
# 4 0.0000 0.0000 0.0000 22.7098 0.0000 0.0000
# 5 0.0000 0.0000 0.0000 0.0000 22.7098 0.0000
# 6 2.1329 -2.1329 0.0000 0.0000 0.0000 12.2999
#
#
#
# Elastic Compliance Matrix: (Units=1/GPa)
#
#
# Indices 1 2 3 4 5 6 
#
# 1 0.031052 0.005932 -0.016279 0.000000 0.000000 -0.004356
# 2 0.005932 0.031052 -0.016279 0.000000 0.000000 0.004356
# 3 -0.016279 -0.016279 0.021112 0.000000 0.000000 0.000000
# 4 0.000000 0.000000 0.000000 0.044034 0.000000 0.000000
# 5 0.000000 0.000000 0.000000 0.000000 0.044034 0.000000
# 6 -0.004356 0.004356 0.000000 0.000000 0.000000 0.082812
#
#
# Mechanical properties :
#
#
# Convention : Reuss Voigt Hill
#
# Bulk Modulus (GPa) = 33.37063 63.92915 48.64989
# Shear Modulus (GPa) = 15.75619 19.58090 17.66855
#
# Velocity S-wave (km/s) = 3.12052 3.47870 3.30447
# Velocity P-wave (km/s) = 5.79717 7.45953 6.68026
#
# Compressibility (1/GPa) = 0.02996647
#
# Stress axis : x y z
#
# Youngs Moduli (GPa) = 32.20390 32.20390 47.36573
#
# Poissons Ratio (x) = -0.19104 0.77105
# Poissons Ratio (y) = -0.19104 0.77105
# Poissons Ratio (z) = 0.52423 0.52423
#
# Static dielectric constant tensor:
#      x y z
#    x 1.538510 0.000000 0.000000 
#    y 0.000000 1.538510 0.000000 
#    z 0.000000 0.000000 1.565280 
# 
# From -- ./inp_files/1263.got.cif
#   From: 2010.05.17/outbox.cif.g08.bks.cpg/sg83_1_cif.got.tgz:1263.got - 2010.06.03 18:55:12.
