data_PCOD9543126
_publ_section_title
;
Structure prediction by ZEFSAII (Michael W. Deem and Ramdas Pophale) SiO2 
 PCOD9543126
Probable space group: I -4 
;
_chemical_formula_sum "Si O2"
_cell_formula_units_Z 28
_cell_length_a 9.245313
_cell_length_b 9.245313
_cell_length_c 13.168381
_cell_angle_alpha 90.000000
_cell_angle_beta 90.000000
_cell_angle_gamma 90.000000
_cell_volume 1125.578065
_symmetry_space_group_name_H-M "I -4 "
_symmetry_group_IT_number 82
_symmetry_cell_setting 'tetragonal'
loop_
_space_group_symop_operation_xyz
x,y,z
y,-x,-z
-x,-y,z
-y,x,-z
1/2+x,1/2+y,1/2+z
1/2+y,1/2-x,1/2-z
1/2-x,1/2-y,1/2+z
1/2-y,1/2+x,1/2-z
loop_
_atom_site_type_symbol
_atom_site_label
_atom_site_fract_x
_atom_site_fract_y
_atom_site_fract_z
Si Si1 0.678062 0.411145 0.743918
Si Si2 0.000000 0.500000 0.394326
Si Si3 0.210788 0.876174 0.779083
Si Si4 0.540807 0.730643 0.029075
O O1 0.747548 0.260240 0.710099
O O2 0.517465 0.354009 0.773893
O O3 0.673285 0.553396 0.672702
O O4 0.753372 0.447944 0.850302
O O5 0.857650 0.431714 0.335375
O O6 0.059449 0.374433 0.465365
O O7 0.660281 0.612679 0.998863
#
# Coordination Sequence:
#
# PCOD9543126 Si02
#       4
#     8   4   8   8
#     4  11  25  45  74 109 147 195 253 306 383 444
#     4  12  26  49  82 107 152 198 262 302 391 436
#     4  11  24  45  75 112 142 199 247 318 361 464
#     4  11  24  48  72 107 146 202 239 307 378 462
#
# _framework density 24.876107999999999
#
# number of rings (size 3 to 8) (size 9 to 14) (size 15 to 20)
#    0.000    0.857    2.857    5.143    4.000    2.857 
#    5.143    0.000    0.000    0.000    0.000    0.000 
#    0.000    0.000    0.000    0.000    0.000    0.000 
#
# Total GULP energy -77971.636503 kJ/mol
# GULP energy per Si atom -5569.402607 kJ/mol
# Density = 2.481949 g / cm^3
# Si number density = 24.876108 Si / 1000 Ang^3
#
#
#
# Elastic Constant Matrix: (Units=GPa)
#
#
# Indices 1 2 3 4 5 6 
#
# 1 175.1437 56.7473 32.7707 0.0000 0.0000 8.7281
# 2 56.7473 175.1437 32.7707 0.0000 0.0000 -8.7281
# 3 32.7707 32.7707 75.3647 0.0000 0.0000 0.0000
# 4 0.0000 0.0000 0.0000 29.1635 0.0000 0.0000
# 5 0.0000 0.0000 0.0000 0.0000 29.1634 0.0000
# 6 8.7281 -8.7281 0.0000 0.0000 0.0000 24.8304
#
#
#
# Elastic Compliance Matrix: (Units=1/GPa)
#
#
# Indices 1 2 3 4 5 6 
#
# 1 0.006912 -0.001996 -0.002138 0.000000 0.000000 -0.003131
# 2 -0.001996 0.006912 -0.002138 0.000000 0.000000 0.003131
# 3 -0.002138 -0.002138 0.015128 0.000000 0.000000 0.000000
# 4 0.000000 0.000000 0.000000 0.034289 0.000000 0.000000
# 5 0.000000 0.000000 0.000000 0.000000 0.034289 0.000000
# 6 -0.003131 0.003131 0.000000 0.000000 0.000000 0.042474
#
#
# Mechanical properties :
#
#
# Convention : Reuss Voigt Hill
#
# Bulk Modulus (GPa) = 60.93945 74.46995 67.70470
# Shear Modulus (GPa) = 31.64183 36.85569 34.24876
#
# Velocity S-wave (km/s) = 3.57035 3.85329 3.71451
# Velocity P-wave (km/s) = 6.44569 7.05680 6.75816
#
# Compressibility (1/GPa) = 0.01640973
#
# Stress axis : x y z
#
# Youngs Moduli (GPa) = 144.67081 144.67081 66.10243
#
# Poissons Ratio (x) = 0.28871 0.14132
# Poissons Ratio (y) = 0.28871 0.14132
# Poissons Ratio (z) = 0.30929 0.30929
#
# Static dielectric constant tensor:
#      x y z
#    x 2.093490 0.000000 0.000000 
#    y 0.000000 2.093490 0.000000 
#    z 0.000000 0.000000 1.986270 
# 
# From -- ./inp_files/2476.got.cif
#   From: 2010.05.17/outbox.cif.g08.bks.cpg/sg82_2_cif.got.tgz:2476.got - 2010.06.03 18:52:26.
