data_PCOD9543705
_publ_section_title
;
Structure prediction by ZEFSAII (Michael W. Deem and Ramdas Pophale) SiO2 
 PCOD9543705
Probable space group: P 4/M
;
_chemical_formula_sum "Si O2"
_cell_formula_units_Z 45
_cell_length_a 8.313035
_cell_length_b 8.313035
_cell_length_c 30.088782
_cell_angle_alpha 90.000000
_cell_angle_beta 90.000000
_cell_angle_gamma 90.000000
_cell_volume 2079.331945
_symmetry_space_group_name_H-M "P 4/M"
_symmetry_group_IT_number 83
_symmetry_cell_setting 'tetragonal'
loop_
_space_group_symop_operation_xyz
x,y,z
-y,x,z
-x,-y,z
y,-x,z
-x,-y,-z
y,-x,-z
x,y,-z
-y,x,-z
loop_
_atom_site_type_symbol
_atom_site_label
_atom_site_fract_x
_atom_site_fract_y
_atom_site_fract_z
Si Si1 0.756509 0.120895 0.908403
Si Si2 0.242125 0.418625 0.632211
Si Si3 0.902866 0.744341 0.715943
Si Si4 0.749451 0.109122 0.187187
Si Si5 0.088069 0.257184 0.550040
Si Si6 0.174831 0.421253 0.000000
Si Si7 0.500000 0.500000 0.000000
O O1 0.672621 0.151384 0.860392
O O2 0.930440 0.206462 0.909574
O O3 0.664715 0.172718 0.951964
O O4 0.400302 0.305356 0.632194
O O5 0.144199 0.371220 0.676083
O O6 0.141330 0.376313 0.588448
O O7 0.865144 0.670811 0.764787
O O8 0.088625 0.801196 0.712854
O O9 0.920597 0.201962 0.187103
O O10 0.110983 0.321435 0.500000
O O11 0.904977 0.195734 0.554339
O O12 0.314010 0.555896 0.000000
O O13 0.000000 0.500000 0.000000
#
# Coordination Sequence:
#
# PCOD9543705 Si02
#       7
#     8   8   8   8   8   4   1
#     4   9  16  30  57  89 116 149 198 245 296 362
#     4  11  24  37  50  72 111 152 185 223 269 329
#     4   9  17  32  57  83 104 134 181 236 287 331
#     4   7  12  25  50  82 110 135 175 238 291 338
#     4   9  19  37  60  85 109 134 173 225 276 329
#     4  12  24  39  60  83 122 170 202 248 304 362
#     4  12  28  44  60  88 132 156 204 260 300 360
#
# _framework density 21.641566000000001
#
# number of rings (size 3 to 8) (size 9 to 14) (size 15 to 20)
#    0.000    2.667    0.000    5.333    0.000    5.689 
#    0.000    2.667   15.644    0.000    0.000    0.000 
#    0.000    0.000    0.000    0.000    0.000    0.000 
#
# Total GULP energy -251028.129031 kJ/mol
# GULP energy per Si atom -5578.402867 kJ/mol
# Density = 2.159231 g / cm^3
# Si number density = 21.641566 Si / 1000 Ang^3
#
#
#
# Elastic Constant Matrix: (Units=GPa)
#
#
# Indices 1 2 3 4 5 6 
#
# 1 34.9592 28.6056 51.9110 0.0000 0.0000 -3.8045
# 2 28.6056 34.9592 51.9110 0.0000 0.0000 3.8045
# 3 51.9110 51.9110 230.6976 0.0000 0.0000 0.0000
# 4 0.0000 0.0000 0.0000 -19.9160 0.0000 0.0000
# 5 0.0000 0.0000 0.0000 0.0000 -19.9160 0.0000
# 6 -3.8045 3.8045 0.0000 0.0000 0.0000 24.4807
#
#
#
# Elastic Compliance Matrix: (Units=1/GPa)
#
#
# Indices 1 2 3 4 5 6 
#
# 1 0.109128 -0.084255 -0.005597 0.000000 0.000000 0.030053
# 2 -0.084255 0.109128 -0.005597 0.000000 0.000000 -0.030053
# 3 -0.005597 -0.005597 0.006854 0.000000 0.000000 0.000000
# 4 0.000000 0.000000 0.000000 -0.050211 0.000000 0.000000
# 5 0.000000 0.000000 0.000000 0.000000 -0.050211 0.000000
# 6 0.030053 -0.030053 0.000000 0.000000 0.000000 0.050190
#
#
# Mechanical properties :
#
#
# Convention : Reuss Voigt Hill
#
# Bulk Modulus (GPa) = 29.22868 62.83011 46.02940
# Shear Modulus (GPa) = 13.25627 8.14229 10.69928
#
# Velocity S-wave (km/s) = 2.47763 1.94178 2.22589
# Velocity P-wave (km/s) = 4.66047 5.84145 5.28406
#
# Compressibility (1/GPa) = 0.03421297
#
# Stress axis : x y z
#
# Youngs Moduli (GPa) = 9.16352 9.16352 145.90991
#
# Poissons Ratio (x) = 0.77207 0.81666
# Poissons Ratio (y) = 0.77207 0.81666
# Poissons Ratio (z) = 0.05129 0.05129
#
# Static dielectric constant tensor:
#      x y z
#    x 1.625110 0.000000 0.000000 
#    y 0.000000 1.625110 0.000000 
#    z 0.000000 0.000000 1.812520 
# 
# From -- ./inp_files/3393.got.cif
#   From: 2010.05.17/outbox.cif.g08.bks.cpg/sg83_2_cif.got.tgz:3393.got - 2010.06.03 18:55:12.
