data_PCOD9543404
_publ_section_title
;
Structure prediction by ZEFSAII (Michael W. Deem and Ramdas Pophale) SiO2 
 PCOD9543404
Probable space group: P 4/M
;
_chemical_formula_sum "Si O2"
_cell_formula_units_Z 40
_cell_length_a 18.202260
_cell_length_b 18.202260
_cell_length_c 8.983630
_cell_angle_alpha 90.000000
_cell_angle_beta 90.000000
_cell_angle_gamma 90.000000
_cell_volume 2976.476676
_symmetry_space_group_name_H-M "P 4/M"
_symmetry_group_IT_number 83
_symmetry_cell_setting 'tetragonal'
loop_
_space_group_symop_operation_xyz
x,y,z
-y,x,z
-x,-y,z
y,-x,z
-x,-y,-z
y,-x,-z
x,y,-z
-y,x,-z
loop_
_atom_site_type_symbol
_atom_site_label
_atom_site_fract_x
_atom_site_fract_y
_atom_site_fract_z
Si Si1 0.651718 0.083962 0.829878
Si Si2 0.910507 0.503772 0.329533
Si Si3 0.196904 0.923855 0.321723
Si Si4 0.085860 0.807817 0.180375
Si Si5 0.356422 0.094433 0.170028
O O1 0.573946 0.111667 0.768213
O O2 0.721357 0.101315 0.727276
O O3 0.645917 0.994846 0.830272
O O4 0.664924 0.107089 0.000000
O O5 0.889249 0.514994 0.500000
O O6 0.883186 0.425594 0.268708
O O7 0.000000 0.500000 0.324593
O O8 0.190461 0.926621 0.500000
O O9 0.138175 0.869157 0.248998
O O10 0.185824 0.004817 0.251156
O O11 0.115729 0.725811 0.217255
O O12 0.081036 0.812857 0.000000
O O13 0.368754 0.117987 0.000000
#
# Coordination Sequence:
#
# PCOD9543404 Si02
#       5
#     8   8   8   8   8
#     4   9  16  27  41  56  76 101 126 152 188 235
#     4   9  15  22  36  58  80  98 118 149 188 228
#     4  11  21  32  45  61  78  97 129 172 211 240
#     4  10  20  34  47  58  75 102 134 166 204 246
#     4   8  15  26  40  56  74  97 124 153 187 233
#
# _framework density 13.438708
#
# number of rings (size 3 to 8) (size 9 to 14) (size 15 to 20)
#    0.000    2.600    0.000    4.800    0.000    8.400 
#    0.000    2.000    0.000    0.000    0.000    0.000 
#    0.000    0.000    0.000    0.000    0.000    1.000 
#
# Total GULP energy -222754.310154 kJ/mol
# GULP energy per Si atom -5568.857754 kJ/mol
# Density = 1.340812 g / cm^3
# Si number density = 13.438708 Si / 1000 Ang^3
#
#
#
# Elastic Constant Matrix: (Units=GPa)
#
#
# Indices 1 2 3 4 5 6 
#
# 1 60.9333 33.6432 38.1834 0.0000 0.0000 -0.4397
# 2 33.6432 60.9333 38.1834 0.0000 0.0000 0.4397
# 3 38.1834 38.1834 93.5393 0.0000 0.0000 0.0000
# 4 0.0000 0.0000 0.0000 17.4639 0.0000 0.0000
# 5 0.0000 0.0000 0.0000 0.0000 17.4639 0.0000
# 6 -0.4397 0.4397 0.0000 0.0000 0.0000 -0.7296
#
#
#
# Elastic Compliance Matrix: (Units=1/GPa)
#
#
# Indices 1 2 3 4 5 6 
#
# 1 0.025859 -0.010087 -0.006438 0.000000 0.000000 -0.021662
# 2 -0.010087 0.025859 -0.006438 0.000000 0.000000 0.021662
# 3 -0.006438 -0.006438 0.015947 0.000000 0.000000 0.000000
# 4 0.000000 0.000000 0.000000 0.057261 0.000000 0.000000
# 5 0.000000 0.000000 0.000000 0.000000 0.057261 0.000000
# 6 -0.021662 0.021662 0.000000 0.000000 0.000000 -1.344549
#
#
# Mechanical properties :
#
#
# Convention : Reuss Voigt Hill
#
# Bulk Modulus (GPa) = 46.00221 48.38064 47.19143
# Shear Modulus (GPa) = -4.50779 13.86604 4.67912
#
# Velocity S-wave (km/s) = -1.83347 3.21565 1.86799
# Velocity P-wave (km/s) = 5.46107 7.06161 6.31227
#
# Compressibility (1/GPa) = 0.02173809
#
# Stress axis : x y z
#
# Youngs Moduli (GPa) = 38.67177 38.67177 62.70778
#
# Poissons Ratio (x) = 0.39006 0.40373
# Poissons Ratio (y) = 0.39006 0.40373
# Poissons Ratio (z) = 0.24898 0.24898
#
# Static dielectric constant tensor:
#      x y z
#    x 1.430830 0.000000 0.000000 
#    y 0.000000 1.430830 0.000000 
#    z 0.000000 0.000000 1.450820 
# 
# From -- ./inp_files/802.got.cif
#   From: 2010.05.17/outbox.cif.g08.bks.cpg/sg83_1_cif.got.tgz:802.got - 2010.06.03 18:55:12.
