data_PCOD9543825
_publ_section_title
;
Structure prediction by ZEFSAII (Michael W. Deem and Ramdas Pophale) SiO2 
 PCOD9543825
Probable space group: P 4/M
;
_chemical_formula_sum "Si O2"
_cell_formula_units_Z 29
_cell_length_a 8.299634
_cell_length_b 8.299634
_cell_length_c 19.740386
_cell_angle_alpha 90.000000
_cell_angle_beta 90.000000
_cell_angle_gamma 90.000000
_cell_volume 1359.795259
_symmetry_space_group_name_H-M "P 4/M"
_symmetry_group_IT_number 83
_symmetry_cell_setting 'tetragonal'
loop_
_space_group_symop_operation_xyz
x,y,z
-y,x,z
-x,-y,z
y,-x,z
-x,-y,-z
y,-x,-z
x,y,-z
-y,x,-z
loop_
_atom_site_type_symbol
_atom_site_label
_atom_site_fract_x
_atom_site_fract_y
_atom_site_fract_z
Si Si1 0.103470 0.246260 0.146119
Si Si2 0.409852 0.242608 0.500000
Si Si3 0.500000 0.500000 0.000000
Si Si4 0.500000 0.000000 0.756301
Si Si5 0.412389 0.240333 0.648331
Si Si6 0.156680 0.392007 0.000000
O O1 0.145093 0.293633 0.069484
O O2 0.915974 0.202447 0.157365
O O3 0.121112 0.397393 0.196206
O O4 0.594248 0.304115 0.500000
O O5 0.383296 0.165326 0.573374
O O6 0.305134 0.514827 0.000000
O O7 0.608951 0.891345 0.706368
O O8 0.598140 0.304156 0.653459
O O9 0.000000 0.500000 0.000000
#
# Coordination Sequence:
#
# PCOD9543825 Si02
#       6
#     8   4   1   4   8   4
#     4  11  24  42  62  85 121 169 207 258 329 393
#     4   7  12  27  52  74 104 146 194 248 312 375
#     4  12  28  44  84 112 128 180 232 290 336 400
#     4  12  22  34  56  86 120 156 204 256 314 398
#     4   9  18  34  53  79 111 151 198 254 314 378
#     4  12  24  47  68 102 132 160 218 280 327 381
#
# _framework density 21.326737999999999
#
# number of rings (size 3 to 8) (size 9 to 14) (size 15 to 20)
#    0.000    1.793    1.379    5.793    0.000    1.655 
#    0.000    0.000    0.000    0.000    0.000    0.000 
#    0.000   17.655    0.000    0.000    0.000    0.000 
#
# Total GULP energy -161576.051063 kJ/mol
# GULP energy per Si atom -5571.587968 kJ/mol
# Density = 2.127820 g / cm^3
# Si number density = 21.326738 Si / 1000 Ang^3
#
#
#
# Elastic Constant Matrix: (Units=GPa)
#
#
# Indices 1 2 3 4 5 6 
#
# 1 45.0731 -14.3976 20.7824 0.0000 0.0000 3.0999
# 2 -14.3976 45.0731 20.7824 0.0000 0.0000 -3.0999
# 3 20.7824 20.7824 175.7705 0.0000 0.0000 0.0000
# 4 0.0000 0.0000 0.0000 16.1373 0.0000 0.0000
# 5 0.0000 0.0000 0.0000 0.0000 16.1373 0.0000
# 6 3.0999 -3.0999 0.0000 0.0000 0.0000 20.7308
#
#
#
# Elastic Compliance Matrix: (Units=1/GPa)
#
#
# Indices 1 2 3 4 5 6 
#
# 1 0.027950 0.010869 -0.004590 0.000000 0.000000 -0.002554
# 2 0.010869 0.027950 -0.004590 0.000000 0.000000 0.002554
# 3 -0.004590 -0.004590 0.006775 0.000000 0.000000 0.000000
# 4 0.000000 0.000000 0.000000 0.061968 0.000000 0.000000
# 5 0.000000 0.000000 0.000000 0.000000 0.061968 0.000000
# 6 -0.002554 0.002554 0.000000 0.000000 0.000000 0.049001
#
#
# Mechanical properties :
#
#
# Convention : Reuss Voigt Hill
#
# Bulk Modulus (GPa) = 15.13950 35.58343 25.36147
# Shear Modulus (GPa) = 19.66558 26.51772 23.09165
#
# Velocity S-wave (km/s) = 3.03992 3.53002 3.29410
# Velocity P-wave (km/s) = 4.40860 5.77372 5.13671
#
# Compressibility (1/GPa) = 0.06605237
#
# Stress axis : x y z
#
# Youngs Moduli (GPa) = 35.77842 35.77842 147.61069
#
# Poissons Ratio (x) = -0.38886 0.67749
# Poissons Ratio (y) = -0.38886 0.67749
# Poissons Ratio (z) = 0.16421 0.16421
#
# Static dielectric constant tensor:
#      x y z
#    x 1.704850 0.000000 0.000000 
#    y 0.000000 1.704850 0.000000 
#    z 0.000000 0.000000 2.226910 
# 
# From -- ./inp_files/2786.got.cif
#   From: 2010.05.17/outbox.cif.g08.bks.cpg/sg83_2_cif.got.tgz:2786.got - 2010.06.03 18:55:12.
