data_PCOD9543922
_publ_section_title
;
Structure prediction by ZEFSAII (Michael W. Deem and Ramdas Pophale) SiO2 
 PCOD9543922
Probable space group: P 4/M
;
_chemical_formula_sum "Si O2"
_cell_formula_units_Z 56
_cell_length_a 19.162088
_cell_length_b 19.162088
_cell_length_c 9.250762
_cell_angle_alpha 90.000000
_cell_angle_beta 90.000000
_cell_angle_gamma 90.000000
_cell_volume 3396.746748
_symmetry_space_group_name_H-M "P 4/M"
_symmetry_group_IT_number 83
_symmetry_cell_setting 'tetragonal'
loop_
_space_group_symop_operation_xyz
x,y,z
-y,x,z
-x,-y,z
y,-x,z
-x,-y,-z
y,-x,-z
x,y,-z
-y,x,-z
loop_
_atom_site_type_symbol
_atom_site_label
_atom_site_fract_x
_atom_site_fract_y
_atom_site_fract_z
Si Si1 0.564781 0.591865 0.324288
Si Si2 0.981479 0.284626 0.328120
Si Si3 0.381601 0.822318 0.165919
Si Si4 0.239923 0.173045 0.326351
Si Si5 0.679945 0.306565 0.674475
Si Si6 0.564381 0.048825 0.672205
Si Si7 0.773208 0.108435 0.165539
O O1 0.484006 0.594574 0.278558
O O2 0.563631 0.592101 0.500000
O O3 0.617169 0.653093 0.279927
O O4 0.988683 0.272030 0.500000
O O5 0.901033 0.273529 0.287859
O O6 0.006830 0.363751 0.301748
O O7 0.034196 0.234340 0.243226
O O8 0.370094 0.751541 0.254826
O O9 0.431233 0.878309 0.243376
O O10 0.305033 0.858793 0.166209
O O11 0.401422 0.809385 0.000000
O O12 0.231498 0.175644 0.500000
O O13 0.286879 0.240461 0.285598
O O14 0.164853 0.181676 0.252015
O O15 0.674850 0.301524 0.500000
O O16 0.559925 0.062799 0.500000
O O17 0.500000 0.000000 0.714245
O O18 0.795853 0.101727 0.000000
#
# Coordination Sequence:
#
# PCOD9543922 Si02
#       7
#     8   8   8   8   8   8   8
#     4   8  14  26  44  68  95 121 153 195 242 286
#     4   9  17  30  47  68  95 125 155 189 230 279
#     4   9  17  29  45  64  88 121 157 191 227 274
#     4   9  17  29  46  69  96 123 154 192 233 276
#     4   9  16  28  46  69  92 119 155 197 237 276
#     4   9  17  30  46  67  95 126 157 190 228 274
#     4   9  17  29  47  68  89 120 157 191 226 269
#
# _framework density 16.486362
#
# number of rings (size 3 to 8) (size 9 to 14) (size 15 to 20)
#    0.000    3.143    0.000    1.286    0.000    4.286 
#    2.571    0.000    0.000    1.286    0.000    4.000 
#    0.000    0.000    0.000    0.000    0.000    0.000 
#
# Total GULP energy -311774.746523 kJ/mol
# GULP energy per Si atom -5567.406188 kJ/mol
# Density = 1.644884 g / cm^3
# Si number density = 16.486362 Si / 1000 Ang^3
#
#
#
# Elastic Constant Matrix: (Units=GPa)
#
#
# Indices 1 2 3 4 5 6 
#
# 1 64.3451 31.3592 21.0352 0.0000 0.0000 7.1521
# 2 31.3592 64.3451 21.0352 0.0000 0.0000 -7.1521
# 3 21.0352 21.0352 22.3001 0.0000 0.0000 0.0000
# 4 0.0000 0.0000 0.0000 8.4365 0.0000 0.0000
# 5 0.0000 0.0000 0.0000 0.0000 8.4365 0.0000
# 6 7.1521 -7.1521 0.0000 0.0000 0.0000 19.2851
#
#
#
# Elastic Compliance Matrix: (Units=1/GPa)
#
#
# Indices 1 2 3 4 5 6 
#
# 1 0.026988 -0.009138 -0.016838 0.000000 0.000000 -0.013398
# 2 -0.009138 0.026988 -0.016838 0.000000 0.000000 0.013398
# 3 -0.016838 -0.016838 0.076609 0.000000 0.000000 0.000000
# 4 0.000000 0.000000 0.000000 0.118532 0.000000 0.000000
# 5 0.000000 0.000000 0.000000 0.000000 0.118532 0.000000
# 6 -0.013398 0.013398 0.000000 0.000000 0.000000 0.061791
#
#
# Mechanical properties :
#
#
# Convention : Reuss Voigt Hill
#
# Bulk Modulus (GPa) = 22.24310 33.09436 27.66873
# Shear Modulus (GPa) = 9.43298 12.40233 10.91766
#
# Velocity S-wave (km/s) = 2.39460 2.74574 2.57616
# Velocity P-wave (km/s) = 4.60072 5.49268 5.06636
#
# Compressibility (1/GPa) = 0.04495775
#
# Stress axis : x y z
#
# Youngs Moduli (GPa) = 37.05313 37.05313 13.05330
#
# Poissons Ratio (x) = 0.33858 0.21979
# Poissons Ratio (y) = 0.33858 0.21979
# Poissons Ratio (z) = 0.62391 0.62391
#
# Static dielectric constant tensor:
#      x y z
#    x 1.548160 0.000000 0.000000 
#    y 0.000000 1.548160 0.000000 
#    z 0.000000 0.000000 1.550090 
# 
# From -- ./inp_files/1202.got.cif
#   From: 2010.05.17/outbox.cif.g08.bks.cpg/sg83_1_cif.got.tgz:1202.got - 2010.06.03 18:55:12.
