data_PCOD9543817
_publ_section_title
;
Structure prediction by ZEFSAII (Michael W. Deem and Ramdas Pophale) SiO2 
 PCOD9543817
Probable space group: P 4/M
;
_chemical_formula_sum "Si O2"
_cell_formula_units_Z 25
_cell_length_a 8.479400
_cell_length_b 8.479400
_cell_length_c 16.731999
_cell_angle_alpha 90.000000
_cell_angle_beta 90.000000
_cell_angle_gamma 90.000000
_cell_volume 1203.034482
_symmetry_space_group_name_H-M "P 4/M"
_symmetry_group_IT_number 83
_symmetry_cell_setting 'tetragonal'
loop_
_space_group_symop_operation_xyz
x,y,z
-y,x,z
-x,-y,z
y,-x,z
-x,-y,-z
y,-x,-z
x,y,-z
-y,x,-z
loop_
_atom_site_type_symbol
_atom_site_label
_atom_site_fract_x
_atom_site_fract_y
_atom_site_fract_z
Si Si1 0.000000 0.500000 0.785680
Si Si2 0.147414 0.615530 0.500000
Si Si3 0.753505 0.579268 0.091594
Si Si4 0.500000 0.500000 0.500000
Si Si5 0.905460 0.243063 0.672606
O O1 0.109222 0.396934 0.844673
O O2 0.112911 0.605450 0.729246
O O3 0.306814 0.515323 0.500000
O O4 0.130860 0.713779 0.581222
O O5 0.000000 0.500000 0.500000
O O6 0.600423 0.689783 0.101301
O O7 0.809071 0.597375 0.000000
O O8 0.087614 0.196289 0.687328
#
# Coordination Sequence:
#
# PCOD9543817 Si02
#       5
#     4   4   8   1   8
#     4  12  21  35  60  92 120 160 216 269 329 416
#     4  12  24  47  66 100 132 172 226 290 325 393
#     4   9  19  37  58  83 118 160 207 264 330 398
#     4  12  28  44  84 104 128 188 258 280 336 432
#     4  11  24  41  61  87 128 173 212 270 345 402
#
# _framework density 20.780785000000002
#
# number of rings (size 3 to 8) (size 9 to 14) (size 15 to 20)
#    0.000    1.280    1.600    6.240    0.000    1.280 
#    0.000    0.000    0.000    0.000    0.000   13.440 
#    0.000    0.000    0.000    0.000    0.000    0.000 
#
# Total GULP energy -139410.765298 kJ/mol
# GULP energy per Si atom -5576.430612 kJ/mol
# Density = 2.073349 g / cm^3
# Si number density = 20.780785 Si / 1000 Ang^3
#
#
#
# Elastic Constant Matrix: (Units=GPa)
#
#
# Indices 1 2 3 4 5 6 
#
# 1 59.3411 -6.3255 18.2940 0.0000 0.0000 0.1719
# 2 -6.3255 59.3411 18.2940 0.0000 0.0000 -0.1719
# 3 18.2940 18.2940 140.7847 0.0000 0.0000 0.0000
# 4 0.0000 0.0000 0.0000 17.5628 0.0000 0.0000
# 5 0.0000 0.0000 0.0000 0.0000 17.5628 0.0000
# 6 0.1719 -0.1719 0.0000 0.0000 0.0000 14.6931
#
#
#
# Elastic Compliance Matrix: (Units=1/GPa)
#
#
# Indices 1 2 3 4 5 6 
#
# 1 0.017975 0.002746 -0.002692 0.000000 0.000000 -0.000178
# 2 0.002746 0.017975 -0.002692 0.000000 0.000000 0.000178
# 3 -0.002692 -0.002692 0.007803 0.000000 0.000000 0.000000
# 4 0.000000 0.000000 0.000000 0.056939 0.000000 0.000000
# 5 0.000000 0.000000 0.000000 0.000000 0.056939 0.000000
# 6 -0.000178 0.000178 0.000000 0.000000 0.000000 0.068063
#
#
# Mechanical properties :
#
#
# Convention : Reuss Voigt Hill
#
# Bulk Modulus (GPa) = 25.99165 35.55466 30.77315
# Shear Modulus (GPa) = 20.50890 25.24403 22.87647
#
# Velocity S-wave (km/s) = 3.14493 3.48915 3.32150
# Velocity P-wave (km/s) = 5.07170 5.77743 5.43603
#
# Compressibility (1/GPa) = 0.03847390
#
# Stress axis : x y z
#
# Youngs Moduli (GPa) = 55.63295 55.63295 128.15937
#
# Poissons Ratio (x) = -0.15274 0.34507
# Poissons Ratio (y) = -0.15274 0.34507
# Poissons Ratio (z) = 0.14979 0.14979
#
# Static dielectric constant tensor:
#      x y z
#    x 1.676610 0.000000 0.000000 
#    y 0.000000 1.676610 0.000000 
#    z 0.000000 0.000000 1.783270 
# 
# From -- ./inp_files/2497.got.cif
#   From: 2010.05.17/outbox.cif.g08.bks.cpg/sg83_2_cif.got.tgz:2497.got - 2010.06.03 18:55:12.
