data_PCOD9543229
_publ_section_title
;
Structure prediction by ZEFSAII (Michael W. Deem and Ramdas Pophale) SiO2 
 PCOD9543229
Probable space group: P 4/M
;
_chemical_formula_sum "Si O2"
_cell_formula_units_Z 48
_cell_length_a 17.427032
_cell_length_b 17.427032
_cell_length_c 7.670032
_cell_angle_alpha 90.000000
_cell_angle_beta 90.000000
_cell_angle_gamma 90.000000
_cell_volume 2329.399796
_symmetry_space_group_name_H-M "P 4/M"
_symmetry_group_IT_number 83
_symmetry_cell_setting 'tetragonal'
loop_
_space_group_symop_operation_xyz
x,y,z
-y,x,z
-x,-y,z
y,-x,z
-x,-y,-z
y,-x,-z
x,y,-z
-y,x,-z
loop_
_atom_site_type_symbol
_atom_site_label
_atom_site_fract_x
_atom_site_fract_y
_atom_site_fract_z
Si Si1 0.343459 0.362862 0.198668
Si Si2 0.882919 0.500442 0.801660
Si Si3 0.782742 0.242655 0.789796
Si Si4 0.896307 0.675827 0.787494
Si Si5 0.068889 0.664702 0.212944
Si Si6 0.517730 0.715854 0.305095
O O1 0.307199 0.281178 0.243180
O O2 0.309030 0.430141 0.309634
O O3 0.433394 0.351689 0.220561
O O4 0.321940 0.380195 0.000000
O O5 0.884262 0.587061 0.725706
O O6 0.923862 0.424527 0.725262
O O7 0.794028 0.476376 0.800584
O O8 0.911231 0.508822 0.000000
O O9 0.740001 0.164797 0.726551
O O10 0.863332 0.278276 0.726120
O O11 0.791412 0.234007 0.000000
O O12 0.984219 0.694733 0.744906
O O13 0.887972 0.673341 0.000000
O O14 0.075030 0.660317 0.000000
O O15 0.546136 0.729790 0.500000
#
# Coordination Sequence:
#
# PCOD9543229 Si02
#       6
#     8   8   8   8   8   8
#     4  11  21  38  58  75  98 139 188 222 253 304
#     4  10  17  30  51  75 101 136 177 217 263 316
#     4   9  16  27  48  75  99 128 170 220 267 310
#     4   9  16  26  45  75 104 130 172 226 268 309
#     4   9  16  26  45  75 104 130 172 226 268 309
#     4  12  24  36  52  79 109 138 172 220 273 313
#
# _framework density 20.606166999999999
#
# number of rings (size 3 to 8) (size 9 to 14) (size 15 to 20)
#    0.000    2.000    3.333    2.500    0.000    2.333 
#    0.000    1.667    0.000    2.500    0.000    3.500 
#    0.000    0.000    0.000    0.000    0.000    3.833 
#
# Total GULP energy -267672.992594 kJ/mol
# GULP energy per Si atom -5576.520679 kJ/mol
# Density = 2.055927 g / cm^3
# Si number density = 20.606167 Si / 1000 Ang^3
#
#
#
# Elastic Constant Matrix: (Units=GPa)
#
#
# Indices 1 2 3 4 5 6 
#
# 1 108.1474 54.7378 9.8340 0.0000 0.0000 8.4465
# 2 54.7378 108.1474 9.8340 0.0000 0.0000 -8.4465
# 3 9.8340 9.8340 44.4765 0.0000 0.0000 0.0000
# 4 0.0000 0.0000 0.0000 -15.1442 0.0000 0.0000
# 5 0.0000 0.0000 0.0000 0.0000 -15.1442 0.0000
# 6 8.4465 -8.4465 0.0000 0.0000 0.0000 16.4986
#
#
#
# Elastic Compliance Matrix: (Units=1/GPa)
#
#
# Indices 1 2 3 4 5 6 
#
# 1 0.014324 -0.008017 -0.001395 0.000000 0.000000 -0.011437
# 2 -0.008017 0.014324 -0.001395 0.000000 0.000000 0.011437
# 3 -0.001395 -0.001395 0.023100 0.000000 0.000000 0.000000
# 4 0.000000 0.000000 0.000000 -0.066032 0.000000 0.000000
# 5 0.000000 0.000000 0.000000 0.000000 -0.066032 0.000000
# 6 -0.011437 0.011437 0.000000 0.000000 0.000000 0.072322
#
#
# Mechanical properties :
#
#
# Convention : Reuss Voigt Hill
#
# Bulk Modulus (GPa) = 33.18155 45.50921 39.34538
# Shear Modulus (GPa) = 211.28460 9.66640 110.47550
#
# Velocity S-wave (km/s) = 10.13692 2.16823 7.33002
# Velocity P-wave (km/s) = 12.37527 5.32930 9.52756
#
# Compressibility (1/GPa) = 0.03013723
#
# Stress axis : x y z
#
# Youngs Moduli (GPa) = 69.81178 69.81178 43.28911
#
# Poissons Ratio (x) = 0.55965 0.06037
# Poissons Ratio (y) = 0.55965 0.06037
# Poissons Ratio (z) = 0.09736 0.09736
#
# Static dielectric constant tensor:
#      x y z
#    x 1.741530 0.000000 0.000000 
#    y 0.000000 1.741530 0.000000 
#    z 0.000000 0.000000 1.743190 
# 
# From -- ./inp_files/890.got.cif
#   From: 2010.05.17/outbox.cif.g08.bks.cpg/sg83_1_cif.got.tgz:890.got - 2010.06.03 18:55:12.
