data_PCOD9543322
_publ_section_title
;
Structure prediction by ZEFSAII (Michael W. Deem and Ramdas Pophale) SiO2 
 PCOD9543322
Probable space group: P 4/M
;
_chemical_formula_sum "Si O2"
_cell_formula_units_Z 64
_cell_length_a 20.478809
_cell_length_b 20.478809
_cell_length_c 7.737456
_cell_angle_alpha 90.000000
_cell_angle_beta 90.000000
_cell_angle_gamma 90.000000
_cell_volume 3244.946817
_symmetry_space_group_name_H-M "P 4/M"
_symmetry_group_IT_number 83
_symmetry_cell_setting 'tetragonal'
loop_
_space_group_symop_operation_xyz
x,y,z
-y,x,z
-x,-y,z
y,-x,z
-x,-y,-z
y,-x,-z
x,y,-z
-y,x,-z
loop_
_atom_site_type_symbol
_atom_site_label
_atom_site_fract_x
_atom_site_fract_y
_atom_site_fract_z
Si Si1 0.061521 0.823399 0.194809
Si Si2 0.320293 0.432795 0.208269
Si Si3 0.934158 0.684049 0.289304
Si Si4 0.418979 0.324366 0.790088
Si Si5 0.329175 0.790117 0.707084
Si Si6 0.923998 0.318685 0.695107
Si Si7 0.220181 0.690668 0.294773
Si Si8 0.163730 0.925302 0.295995
O O1 0.068202 0.759849 0.312099
O O2 0.123815 0.868783 0.207285
O O3 0.997098 0.862315 0.250859
O O4 0.053052 0.799693 0.000000
O O5 0.318607 0.506882 0.271903
O O6 0.383419 0.391296 0.265470
O O7 0.257778 0.389402 0.257080
O O8 0.322429 0.435435 0.000000
O O9 0.937364 0.679373 0.500000
O O10 0.863878 0.657077 0.230484
O O11 0.927620 0.760585 0.244675
O O12 0.005612 0.659256 0.228007
O O13 0.372044 0.266118 0.729630
O O14 0.418990 0.323067 0.000000
O O15 0.320684 0.794762 0.500000
O O16 0.263299 0.752520 0.772607
O O17 0.920263 0.346100 0.500000
O O18 0.852062 0.324495 0.778530
O O19 0.210775 0.702651 0.500000
O O20 0.160308 0.914011 0.500000
#
# Coordination Sequence:
#
# PCOD9543322 Si02
#       8
#     8   8   8   8   8   8   8   8
#     4  11  21  31  43  64  89 111 144 195 246 291
#     4   9  18  32  49  72  99 129 160 192 230 281
#     4   8  15  28  48  69  88 114 154 197 235 278
#     4   9  18  32  50  72 100 129 160 194 234 281
#     4   9  16  28  47  71  96 123 155 197 241 281
#     4   9  17  31  49  68  91 123 158 193 236 292
#     4   9  17  29  48  72  97 125 162 201 238 282
#     4  10  19  33  48  60  80 116 155 189 235 298
#
# _framework density 19.722971999999999
#
# number of rings (size 3 to 8) (size 9 to 14) (size 15 to 20)
#    0.000    2.750    0.000    3.000    0.000    3.500 
#    0.000    8.125    0.000    0.750    0.000    8.750 
#    0.000    0.000    0.000    0.000    0.000    0.000 
#
# Total GULP energy -356485.223318 kJ/mol
# GULP energy per Si atom -5570.081614 kJ/mol
# Density = 1.967808 g / cm^3
# Si number density = 19.722972 Si / 1000 Ang^3
#
#
#
# Elastic Constant Matrix: (Units=GPa)
#
#
# Indices 1 2 3 4 5 6 
#
# 1 115.8682 40.5145 -3.7607 0.0000 0.0000 -1.3254
# 2 40.5145 115.8682 -3.7607 0.0000 0.0000 1.3254
# 3 -3.7607 -3.7607 41.2771 0.0000 0.0000 0.0000
# 4 0.0000 0.0000 0.0000 19.0114 0.0000 0.0000
# 5 0.0000 0.0000 0.0000 0.0000 19.0114 0.0000
# 6 -1.3254 1.3254 0.0000 0.0000 0.0000 13.4217
#
#
#
# Elastic Compliance Matrix: (Units=1/GPa)
#
#
# Indices 1 2 3 4 5 6 
#
# 1 0.009870 -0.003447 0.000585 0.000000 0.000000 0.001315
# 2 -0.003447 0.009870 0.000585 0.000000 0.000000 -0.001315
# 3 0.000585 0.000585 0.024333 0.000000 0.000000 0.000000
# 4 0.000000 0.000000 0.000000 0.052600 0.000000 0.000000
# 5 0.000000 0.000000 0.000000 0.000000 0.052600 0.000000
# 6 0.001315 -0.001315 0.000000 0.000000 0.000000 0.074766
#
#
# Mechanical properties :
#
#
# Convention : Reuss Voigt Hill
#
# Bulk Modulus (GPa) = 25.30413 37.66663 31.48538
# Shear Modulus (GPa) = 20.68121 26.29027 23.48574
#
# Velocity S-wave (km/s) = 3.24170 3.65496 3.45451
# Velocity P-wave (km/s) = 5.18354 6.07873 5.64889
#
# Compressibility (1/GPa) = 0.03951925
#
# Stress axis : x y z
#
# Youngs Moduli (GPa) = 101.31855 101.31855 41.09619
#
# Poissons Ratio (x) = 0.34926 -0.02405
# Poissons Ratio (y) = 0.34926 -0.02405
# Poissons Ratio (z) = -0.05929 -0.05929
#
# Static dielectric constant tensor:
#      x y z
#    x 1.710510 0.000000 0.000000 
#    y 0.000000 1.710510 0.000000 
#    z 0.000000 0.000000 1.738190 
# 
# From -- ./inp_files/1281.got.cif
#   From: 2010.05.17/outbox.cif.g08.bks.cpg/sg83_1_cif.got.tgz:1281.got - 2010.06.03 18:55:12.
