data_PCOD9543693
_publ_section_title
;
Structure prediction by ZEFSAII (Michael W. Deem and Ramdas Pophale) SiO2 
 PCOD9543693
Probable space group: P 4/M
;
_chemical_formula_sum "Si O2"
_cell_formula_units_Z 32
_cell_length_a 8.097013
_cell_length_b 8.097013
_cell_length_c 21.926751
_cell_angle_alpha 90.000000
_cell_angle_beta 90.000000
_cell_angle_gamma 90.000000
_cell_volume 1437.553306
_symmetry_space_group_name_H-M "P 4/M"
_symmetry_group_IT_number 83
_symmetry_cell_setting 'tetragonal'
loop_
_space_group_symop_operation_xyz
x,y,z
-y,x,z
-x,-y,z
y,-x,z
-x,-y,-z
y,-x,-z
x,y,-z
-y,x,-z
loop_
_atom_site_type_symbol
_atom_site_label
_atom_site_fract_x
_atom_site_fract_y
_atom_site_fract_z
Si Si1 0.098147 0.736782 0.065166
Si Si2 0.764796 0.420097 0.684650
Si Si3 0.091696 0.735438 0.802556
Si Si4 0.911537 0.264719 0.432485
O O1 0.126264 0.655370 0.130902
O O2 0.907432 0.797323 0.065157
O O3 0.131513 0.650979 0.000000
O O4 0.698369 0.604831 0.684802
O O5 0.863510 0.375878 0.745539
O O6 0.863459 0.378372 0.623518
O O7 0.903214 0.798927 0.799384
O O8 0.884242 0.337984 0.500000
O O9 0.098955 0.199950 0.428514
#
# Coordination Sequence:
#
# PCOD9543693 Si02
#       4
#     8   8   8   8
#     4   7  10  19  39  69 100 123 147 190 248 299
#     4  11  24  37  48  68 101 138 172 204 238 281
#     4   9  17  30  51  77 100 125 162 206 249 295
#     4   9  19  37  60  83 103 123 153 196 244 294
#
# _framework density 22.260043
#
# number of rings (size 3 to 8) (size 9 to 14) (size 15 to 20)
#    0.000    3.000    0.000    4.500    0.000    7.000 
#    0.000    3.750    0.000    1.500    0.000    8.750 
#    0.000    0.000    0.000    0.000    0.000    0.000 
#
# Total GULP energy -178844.043938 kJ/mol
# GULP energy per Si atom -5588.876373 kJ/mol
# Density = 2.220938 g / cm^3
# Si number density = 22.260043 Si / 1000 Ang^3
#
#
#
# Elastic Constant Matrix: (Units=GPa)
#
#
# Indices 1 2 3 4 5 6 
#
# 1 53.5697 40.9267 64.1765 0.0000 0.0000 -4.8638
# 2 40.9267 53.5697 64.1765 0.0000 0.0000 4.8638
# 3 64.1765 64.1765 265.6694 0.0000 0.0000 0.0000
# 4 0.0000 0.0000 0.0000 -90.2754 0.0000 0.0000
# 5 0.0000 0.0000 0.0000 0.0000 -90.2754 0.0000
# 6 -4.8638 4.8638 0.0000 0.0000 0.0000 33.1631
#
#
#
# Elastic Compliance Matrix: (Units=1/GPa)
#
#
# Indices 1 2 3 4 5 6 
#
# 1 0.052453 -0.036703 -0.003805 0.000000 0.000000 0.013076
# 2 -0.036703 0.052453 -0.003805 0.000000 0.000000 -0.013076
# 3 -0.003805 -0.003805 0.005602 0.000000 0.000000 0.000000
# 4 0.000000 0.000000 0.000000 -0.011077 0.000000 0.000000
# 5 0.000000 0.000000 0.000000 0.000000 -0.011077 0.000000
# 6 0.013076 -0.013076 0.000000 0.000000 0.000000 0.033989
#
#
# Mechanical properties :
#
#
# Convention : Reuss Voigt Hill
#
# Bulk Modulus (GPa) = 45.69552 79.04089 62.36820
# Shear Modulus (GPa) = 22.90826 -15.90895 3.49965
#
# Velocity S-wave (km/s) = 3.21147 -2.67626 1.25522
# Velocity P-wave (km/s) = 5.85867 5.10247 5.49360
#
# Compressibility (1/GPa) = 0.02188398
#
# Stress axis : x y z
#
# Youngs Moduli (GPa) = 19.06472 19.06472 178.49953
#
# Poissons Ratio (x) = 0.69972 0.67914
# Poissons Ratio (y) = 0.69972 0.67914
# Poissons Ratio (z) = 0.07254 0.07254
#
# Static dielectric constant tensor:
#      x y z
#    x 1.788760 0.000000 0.000000 
#    y 0.000000 1.788760 0.000000 
#    z 0.000000 0.000000 1.843500 
# 
# From -- ./inp_files/2788.got.cif
#   From: 2010.05.17/outbox.cif.g08.bks.cpg/sg83_2_cif.got.tgz:2788.got - 2010.06.03 18:55:12.
