data_PCOD9543151
_publ_section_title
;
Structure prediction by ZEFSAII (Michael W. Deem and Ramdas Pophale) SiO2 
 PCOD9543151
Probable space group: I -4 
;
_chemical_formula_sum "Si O2"
_cell_formula_units_Z 36
_cell_length_a 11.695144
_cell_length_b 11.695144
_cell_length_c 9.795062
_cell_angle_alpha 90.000000
_cell_angle_beta 90.000000
_cell_angle_gamma 90.000000
_cell_volume 1339.733251
_symmetry_space_group_name_H-M "I -4 "
_symmetry_group_IT_number 82
_symmetry_cell_setting 'tetragonal'
loop_
_space_group_symop_operation_xyz
x,y,z
y,-x,-z
-x,-y,z
-y,x,-z
1/2+x,1/2+y,1/2+z
1/2+y,1/2-x,1/2-z
1/2-x,1/2-y,1/2+z
1/2-y,1/2+x,1/2-z
loop_
_atom_site_type_symbol
_atom_site_label
_atom_site_fract_x
_atom_site_fract_y
_atom_site_fract_z
Si Si1 0.500000 0.000000 0.250000
Si Si2 0.591076 0.800355 0.614404
Si Si3 0.179117 0.322492 0.645369
Si Si4 0.218754 0.517581 0.094149
Si Si5 0.000000 0.000000 0.000000
Si Si6 0.164861 0.113653 0.819866
O O1 0.560814 0.110350 0.323729
O O2 0.464768 0.752654 0.590771
O O3 0.585967 0.832584 0.776415
O O4 0.688320 0.702577 0.602951
O O5 0.634301 0.916183 0.546904
O O6 0.101626 0.261488 0.529387
O O7 0.323462 0.254656 0.283577
O O8 0.321947 0.453437 0.173762
O O9 0.907347 0.047070 0.105452
#
# Coordination Sequence:
#
# PCOD9543151 Si02
#       6
#     2   8   8   8   2   8
#     4  12  32  44  76 118 152 204 260 344 422 468
#     4   9  22  47  73 110 155 203 270 313 405 476
#     4  11  25  50  74 115 155 204 270 334 404 479
#     4   9  22  46  78 109 151 212 265 331 389 489
#     4  12  24  40  70 112 152 208 260 342 380 492
#     4   9  25  45  71 108 154 212 264 324 413 472
#
# _framework density 26.871020000000001
#
# number of rings (size 3 to 8) (size 9 to 14) (size 15 to 20)
#    1.333    0.889    0.000    0.000    3.111   14.667 
#    0.000    0.000    0.000    0.000    0.000    0.000 
#    0.000    0.000    0.000    0.000    0.000    0.000 
#
# Total GULP energy -100353.549097 kJ/mol
# GULP energy per Si atom -5575.197172 kJ/mol
# Density = 2.680986 g / cm^3
# Si number density = 26.871020 Si / 1000 Ang^3
#
#
#
# Elastic Constant Matrix: (Units=GPa)
#
#
# Indices 1 2 3 4 5 6 
#
# 1 128.5714 64.0233 38.7814 0.0000 0.0000 -7.0140
# 2 64.0233 128.5714 38.7814 0.0000 0.0000 7.0140
# 3 38.7814 38.7814 70.1083 0.0000 0.0000 0.0000
# 4 0.0000 0.0000 0.0000 54.2373 0.0000 0.0000
# 5 0.0000 0.0000 0.0000 0.0000 54.2373 0.0000
# 6 -7.0140 7.0140 0.0000 0.0000 0.0000 55.9141
#
#
#
# Elastic Compliance Matrix: (Units=1/GPa)
#
#
# Indices 1 2 3 4 5 6 
#
# 1 0.011303 -0.004623 -0.003695 0.000000 0.000000 0.001998
# 2 -0.004623 0.011303 -0.003695 0.000000 0.000000 -0.001998
# 3 -0.003695 -0.003695 0.018352 0.000000 0.000000 0.000000
# 4 0.000000 0.000000 0.000000 0.018437 0.000000 0.000000
# 5 0.000000 0.000000 0.000000 0.000000 0.018437 0.000000
# 6 0.001998 -0.001998 0.000000 0.000000 0.000000 0.018386
#
#
# Mechanical properties :
#
#
# Convention : Reuss Voigt Hill
#
# Bulk Modulus (GPa) = 59.06214 67.82484 63.44349
# Shear Modulus (GPa) = 39.71684 45.25542 42.48613
#
# Velocity S-wave (km/s) = 3.84872 4.10832 3.98064
# Velocity P-wave (km/s) = 6.46357 6.91376 6.69245
#
# Compressibility (1/GPa) = 0.01693132
#
# Stress axis : x y z
#
# Youngs Moduli (GPa) = 88.46818 88.46818 54.49007
#
# Poissons Ratio (x) = 0.40899 0.20136
# Poissons Ratio (y) = 0.40899 0.20136
# Poissons Ratio (z) = 0.32693 0.32693
#
# Static dielectric constant tensor:
#      x y z
#    x 2.151630 0.000000 0.000000 
#    y 0.000000 2.151630 0.000000 
#    z 0.000000 0.000000 2.135120 
# 
# From -- ./inp_files/881.got.cif
#   From: 2010.05.17/outbox.cif.g08.bks.cpg/sg82_1_cif.got.tgz:881.got - 2010.06.03 18:52:26.
