data_PCOD9543004
_publ_section_title
;
Structure prediction by ZEFSAII (Michael W. Deem and Ramdas Pophale) SiO2 
 PCOD9543004
Probable space group: I -4 
;
_chemical_formula_sum "Si O2"
_cell_formula_units_Z 16
_cell_length_a 5.066382
_cell_length_b 5.066382
_cell_length_c 24.915728
_cell_angle_alpha 90.000000
_cell_angle_beta 90.000000
_cell_angle_gamma 90.000000
_cell_volume 639.542551
_symmetry_space_group_name_H-M "I -4 "
_symmetry_group_IT_number 82
_symmetry_cell_setting 'tetragonal'
loop_
_space_group_symop_operation_xyz
x,y,z
y,-x,-z
-x,-y,z
-y,x,-z
1/2+x,1/2+y,1/2+z
1/2+y,1/2-x,1/2-z
1/2-x,1/2-y,1/2+z
1/2-y,1/2+x,1/2-z
loop_
_atom_site_type_symbol
_atom_site_label
_atom_site_fract_x
_atom_site_fract_y
_atom_site_fract_z
Si Si1 0.000000 0.500000 0.750000
Si Si2 0.500000 0.500000 0.500000
Si Si3 0.820369 0.242821 0.335357
Si Si4 0.500000 0.000000 0.068101
O O1 0.228718 0.406356 0.709325
O O2 0.244481 0.604886 0.532818
O O3 0.000000 0.500000 0.338370
O O4 0.700206 0.154062 0.392352
O O5 0.000000 0.000000 0.318503
#
# Coordination Sequence:
#
# PCOD9543004 Si02
#       4
#     2   2   8   4
#     4  10  28  44  72 124 156 208 268 318 396 478
#     4  12  28  48  84 116 160 208 268 332 400 474
#     4  11  26  48  79 111 162 208 262 329 396 476
#     4  11  28  49  76 120 152 211 266 331 398 478
#
# _framework density 25.017887000000002
#
# number of rings (size 3 to 8) (size 9 to 14) (size 15 to 20)
#    0.000    1.000    0.000    3.000   17.500    4.000 
#    0.000    0.000    0.000    0.000    0.000    0.000 
#    0.000    0.000    0.000    0.000    0.000    0.000 
#
# Total GULP energy -44757.321048 kJ/mol
# GULP energy per Si atom -5594.665131 kJ/mol
# Density = 2.496095 g / cm^3
# Si number density = 25.017887 Si / 1000 Ang^3
#
#
#
# Elastic Constant Matrix: (Units=GPa)
#
#
# Indices 1 2 3 4 5 6 
#
# 1 178.1822 71.5666 61.5584 0.0000 0.0000 -8.5365
# 2 71.5666 178.1822 61.5584 0.0000 0.0000 8.5365
# 3 61.5584 61.5584 135.5762 0.0000 0.0000 0.0000
# 4 0.0000 0.0000 0.0000 27.6652 0.0000 0.0000
# 5 0.0000 0.0000 0.0000 0.0000 27.6652 0.0000
# 6 -8.5365 8.5365 0.0000 0.0000 0.0000 66.6488
#
#
#
# Elastic Compliance Matrix: (Units=1/GPa)
#
#
# Indices 1 2 3 4 5 6 
#
# 1 0.007367 -0.002209 -0.002342 0.000000 0.000000 0.001226
# 2 -0.002209 0.007367 -0.002342 0.000000 0.000000 -0.001226
# 3 -0.002342 -0.002342 0.009503 0.000000 0.000000 0.000000
# 4 0.000000 0.000000 0.000000 0.036147 0.000000 0.000000
# 5 0.000000 0.000000 0.000000 0.000000 0.036147 0.000000
# 6 0.001226 -0.001226 0.000000 0.000000 0.000000 0.015318
#
#
# Mechanical properties :
#
#
# Convention : Reuss Voigt Hill
#
# Bulk Modulus (GPa) = 95.68338 97.92307 96.80322
# Shear Modulus (GPa) = 38.72396 44.21297 41.46846
#
# Velocity S-wave (km/s) = 3.93854 4.20843 4.07572
# Velocity P-wave (km/s) = 7.68192 7.92722 7.80553
#
# Compressibility (1/GPa) = 0.01045114
#
# Stress axis : x y z
#
# Youngs Moduli (GPa) = 135.73502 135.73503 105.23016
#
# Poissons Ratio (x) = 0.29978 0.24648
# Poissons Ratio (y) = 0.29978 0.24648
# Poissons Ratio (z) = 0.31793 0.31793
#
# Static dielectric constant tensor:
#      x y z
#    x 1.882880 0.000000 0.000000 
#    y 0.000000 1.882880 0.000000 
#    z 0.000000 0.000000 2.029370 
# 
# From -- ./inp_files/2756.got.cif
#   From: 2010.05.17/outbox.cif.g08.bks.cpg/sg82_2_cif.got.tgz:2756.got - 2010.06.03 18:52:26.
