data_PCOD9543243
_publ_section_title
;
Structure prediction by ZEFSAII (Michael W. Deem and Ramdas Pophale) SiO2 
 PCOD9543243
Probable space group: P 4/M
;
_chemical_formula_sum "Si O2"
_cell_formula_units_Z 48
_cell_length_a 16.949593
_cell_length_b 16.949593
_cell_length_c 7.362225
_cell_angle_alpha 90.000000
_cell_angle_beta 90.000000
_cell_angle_gamma 90.000000
_cell_volume 2115.084070
_symmetry_space_group_name_H-M "P 4/M"
_symmetry_group_IT_number 83
_symmetry_cell_setting 'tetragonal'
loop_
_space_group_symop_operation_xyz
x,y,z
-y,x,z
-x,-y,z
y,-x,z
-x,-y,-z
y,-x,-z
x,y,-z
-y,x,-z
loop_
_atom_site_type_symbol
_atom_site_label
_atom_site_fract_x
_atom_site_fract_y
_atom_site_fract_z
Si Si1 0.246166 0.828635 0.208391
Si Si2 0.365394 0.696336 0.223745
Si Si3 0.286539 0.541686 0.791801
Si Si4 0.912457 0.906993 0.221604
Si Si5 0.887703 0.447796 0.280962
Si Si6 0.379962 0.949872 0.719452
O O1 0.299871 0.758835 0.287834
O O2 0.162278 0.854995 0.287449
O O3 0.304060 0.904501 0.210645
O O4 0.230406 0.806116 0.000000
O O5 0.453772 0.715776 0.286150
O O6 0.342523 0.608787 0.284861
O O7 0.364086 0.700068 0.000000
O O8 0.197879 0.574647 0.786691
O O9 0.311794 0.531770 0.000000
O O10 0.003609 0.891739 0.275772
O O11 0.911733 0.905305 0.000000
O O12 0.886567 0.447731 0.500000
O O13 0.907482 0.537981 0.224526
O O14 0.959468 0.391730 0.223911
O O15 0.377083 0.947481 0.500000
#
# Coordination Sequence:
#
# PCOD9543243 Si02
#       6
#     8   8   8   8   8   8
#     4  10  18  30  50  77 101 124 168 214 244 288
#     4   9  19  32  49  74 101 130 166 211 257 300
#     4  10  19  34  52  72 102 134 168 210 254 300
#     4   8  15  28  46  69  99 134 166 200 246 293
#     4   9  18  33  51  72  98 130 165 200 244 301
#     4   9  18  32  50  72 101 132 159 195 249 305
#
# _framework density 22.694132
#
# number of rings (size 3 to 8) (size 9 to 14) (size 15 to 20)
#    0.000    2.833    1.667    1.500    0.000    2.333 
#    0.000    8.333    0.000    1.000    0.000    2.333 
#    0.000    0.000    0.000    0.000    0.000    0.000 
#
# Total GULP energy -267975.750376 kJ/mol
# GULP energy per Si atom -5582.828133 kJ/mol
# Density = 2.264248 g / cm^3
# Si number density = 22.694132 Si / 1000 Ang^3
#
#
#
# Elastic Constant Matrix: (Units=GPa)
#
#
# Indices 1 2 3 4 5 6 
#
# 1 87.4456 71.0379 2.1458 0.0000 0.0000 -13.3208
# 2 71.0379 87.4456 2.1458 0.0000 0.0000 13.3208
# 3 2.1458 2.1458 83.1246 0.0000 0.0000 0.0000
# 4 0.0000 0.0000 0.0000 1.5526 0.0000 0.0000
# 5 0.0000 0.0000 0.0000 0.0000 1.5526 0.0000
# 6 -13.3208 13.3208 0.0000 0.0000 0.0000 30.0343
#
#
#
# Elastic Compliance Matrix: (Units=1/GPa)
#
#
# Indices 1 2 3 4 5 6 
#
# 1 0.112051 -0.105736 -0.000163 0.000000 0.000000 0.096593
# 2 -0.105736 0.112051 -0.000163 0.000000 0.000000 -0.096593
# 3 -0.000163 -0.000163 0.012039 0.000000 0.000000 0.000000
# 4 0.000000 0.000000 0.000000 0.644096 0.000000 0.000000
# 5 0.000000 0.000000 0.000000 0.000000 0.644096 0.000000
# 6 0.096593 -0.096593 0.000000 0.000000 0.000000 0.118977
#
#
# Mechanical properties :
#
#
# Convention : Reuss Voigt Hill
#
# Bulk Modulus (GPa) = 41.64067 45.40834 43.52451
# Shear Modulus (GPa) = 2.68321 18.80697 10.74509
#
# Velocity S-wave (km/s) = 1.08853 2.88186 2.17831
# Velocity P-wave (km/s) = 4.46860 5.57905 5.05441
#
# Compressibility (1/GPa) = 0.02401498
#
# Stress axis : x y z
#
# Youngs Moduli (GPa) = 8.92453 8.92453 83.06652
#
# Poissons Ratio (x) = 0.94365 0.01354
# Poissons Ratio (y) = 0.94365 0.01354
# Poissons Ratio (z) = 0.00145 0.00145
#
# Static dielectric constant tensor:
#      x y z
#    x 1.822730 0.000000 0.000000 
#    y 0.000000 1.822730 0.000000 
#    z 0.000000 0.000000 1.859060 
# 
# From -- ./inp_files/1802.got.cif
#   From: 2010.05.17/outbox.cif.g08.bks.cpg/sg83_1_cif.got.tgz:1802.got - 2010.06.03 18:55:12.
