data_PCOD9543073
_publ_section_title
;
Structure prediction by ZEFSAII (Michael W. Deem and Ramdas Pophale) SiO2 
 PCOD9543073
Probable space group: I -4 
;
_chemical_formula_sum "Si O2"
_cell_formula_units_Z 34
_cell_length_a 10.976351
_cell_length_b 10.976351
_cell_length_c 12.247016
_cell_angle_alpha 90.000000
_cell_angle_beta 90.000000
_cell_angle_gamma 90.000000
_cell_volume 1475.523932
_symmetry_space_group_name_H-M "I -4 "
_symmetry_group_IT_number 82
_symmetry_cell_setting 'tetragonal'
loop_
_space_group_symop_operation_xyz
x,y,z
y,-x,-z
-x,-y,z
-y,x,-z
1/2+x,1/2+y,1/2+z
1/2+y,1/2-x,1/2-z
1/2-x,1/2-y,1/2+z
1/2-y,1/2+x,1/2-z
loop_
_atom_site_type_symbol
_atom_site_label
_atom_site_fract_x
_atom_site_fract_y
_atom_site_fract_z
Si Si1 0.284647 0.273755 0.945546
Si Si2 0.896188 0.092768 0.144662
Si Si3 0.500000 0.000000 0.750000
Si Si4 0.054827 0.740782 0.355215
Si Si5 0.455300 0.816605 0.239953
O O1 0.194333 0.158351 0.936576
O O2 0.422801 0.245984 0.911906
O O3 0.235099 0.369596 0.854398
O O4 0.278108 0.341053 0.060499
O O5 0.938853 0.169684 0.251439
O O6 0.786995 0.004813 0.182202
O O7 0.000000 0.000000 0.110973
O O8 0.398550 0.072071 0.682094
O O9 0.577954 0.881953 0.196595
#
# Coordination Sequence:
#
# PCOD9543073 Si02
#       5
#     8   8   2   8   8
#     4  11  24  42  77 113 143 200 258 308 374 467
#     4  11  22  42  73 109 153 195 248 320 377 444
#     4  12  28  52  72 100 170 196 240 320 400 440
#     4  12  25  46  74 112 150 203 255 312 381 458
#     4   9  19  36  63 104 145 190 241 306 367 433
#
# _framework density 23.042663000000001
#
# number of rings (size 3 to 8) (size 9 to 14) (size 15 to 20)
#    0.000    1.176    4.706    1.412    0.000    3.765 
#    0.000    2.353    0.000    2.824    0.000    0.000 
#    0.000    0.000    0.000    0.000    0.000    0.000 
#
# Total GULP energy -95188.396615 kJ/mol
# GULP energy per Si atom -5599.317448 kJ/mol
# Density = 2.299022 g / cm^3
# Si number density = 23.042663 Si / 1000 Ang^3
#
#
#
# Elastic Constant Matrix: (Units=GPa)
#
#
# Indices 1 2 3 4 5 6 
#
# 1 129.6532 57.1968 38.6006 0.0000 0.0000 -8.7393
# 2 57.1968 129.6533 38.6006 0.0000 0.0000 8.7393
# 3 38.6006 38.6006 85.4170 0.0000 0.0000 0.0000
# 4 0.0000 0.0000 0.0000 17.1268 0.0000 0.0000
# 5 0.0000 0.0000 0.0000 0.0000 17.1268 0.0000
# 6 -8.7393 8.7393 0.0000 0.0000 0.0000 48.1076
#
#
#
# Elastic Compliance Matrix: (Units=1/GPa)
#
#
# Indices 1 2 3 4 5 6 
#
# 1 0.010507 -0.003927 -0.002974 0.000000 0.000000 0.002622
# 2 -0.003927 0.010507 -0.002974 0.000000 0.000000 -0.002622
# 3 -0.002974 -0.002974 0.014395 0.000000 0.000000 0.000000
# 4 0.000000 0.000000 0.000000 0.058388 0.000000 0.000000
# 5 0.000000 0.000000 0.000000 0.000000 0.058388 0.000000
# 6 0.002622 -0.002622 0.000000 0.000000 0.000000 0.021739
#
#
# Mechanical properties :
#
#
# Convention : Reuss Voigt Hill
#
# Bulk Modulus (GPa) = 63.85305 68.16881 66.01093
# Shear Modulus (GPa) = 25.13906 30.49396 27.81651
#
# Velocity S-wave (km/s) = 3.30658 3.64176 3.47821
# Velocity P-wave (km/s) = 6.50760 6.87977 6.69627
#
# Compressibility (1/GPa) = 0.01566096
#
# Stress axis : x y z
#
# Youngs Moduli (GPa) = 95.17240 95.17241 69.46835
#
# Poissons Ratio (x) = 0.37371 0.20659
# Poissons Ratio (y) = 0.37371 0.20659
# Poissons Ratio (z) = 0.28302 0.28302
#
# Static dielectric constant tensor:
#      x y z
#    x 1.850100 0.000000 0.000000 
#    y 0.000000 1.850100 0.000000 
#    z 0.000000 0.000000 1.853910 
# 
# From -- ./inp_files/1596.got.cif
#   From: 2010.05.17/outbox.cif.g08.bks.cpg/sg82_1_cif.got.tgz:1596.got - 2010.06.03 18:52:26.
