data_PCOD9543173
_publ_section_title
;
Structure prediction by ZEFSAII (Michael W. Deem and Ramdas Pophale) SiO2 
 PCOD9543173
Probable space group: I -4 
;
_chemical_formula_sum "Si O2"
_cell_formula_units_Z 34
_cell_length_a 8.043380
_cell_length_b 8.043380
_cell_length_c 23.610314
_cell_angle_alpha 90.000000
_cell_angle_beta 90.000000
_cell_angle_gamma 90.000000
_cell_volume 1527.491973
_symmetry_space_group_name_H-M "I -4 "
_symmetry_group_IT_number 82
_symmetry_cell_setting 'tetragonal'
loop_
_space_group_symop_operation_xyz
x,y,z
y,-x,-z
-x,-y,z
-y,x,-z
1/2+x,1/2+y,1/2+z
1/2+y,1/2-x,1/2-z
1/2-x,1/2-y,1/2+z
1/2-y,1/2+x,1/2-z
loop_
_atom_site_type_symbol
_atom_site_label
_atom_site_fract_x
_atom_site_fract_y
_atom_site_fract_z
Si Si1 0.272687 0.763830 0.542779
Si Si2 0.000000 0.000000 0.752596
Si Si3 0.000000 0.500000 0.384375
Si Si4 0.000000 0.000000 0.000000
Si Si5 0.736509 0.242944 0.816281
Si Si6 0.430591 0.180147 0.072763
O O1 0.355511 0.581705 0.537511
O O2 0.246195 0.821269 0.478049
O O3 0.101615 0.781514 0.576061
O O4 0.404898 0.874438 0.574835
O O5 0.120764 0.131021 0.719454
O O6 0.871404 0.123232 0.785759
O O7 0.899720 0.375049 0.345025
O O8 0.825415 0.338189 0.868073
O O9 0.500000 0.000000 0.055256
#
# Coordination Sequence:
#
# PCOD9543173 Si02
#       6
#     8   4   4   2   8   8
#     4  12  24  44  69 110 157 194 236 298 369 475
#     4  12  30  55  78 108 148 200 270 343 386 452
#     4  12  26  47  74 110 148 201 238 306 388 474
#     4  12  20  38  64  96 152 204 236 278 344 440
#     4  12  29  50  80 107 147 201 261 326 394 457
#     4  12  26  42  73 110 149 194 242 301 377 460
#
# _framework density 22.258710000000001
#
# number of rings (size 3 to 8) (size 9 to 14) (size 15 to 20)
#    0.000    0.000    3.529    5.647    6.588    3.294 
#    0.000    0.000    0.000    0.000    0.000    0.000 
#    0.000    0.000    0.000    0.000    0.000    0.000 
#
# Total GULP energy -95104.940219 kJ/mol
# GULP energy per Si atom -5594.408248 kJ/mol
# Density = 2.220805 g / cm^3
# Si number density = 22.258710 Si / 1000 Ang^3
#
#
#
# Elastic Constant Matrix: (Units=GPa)
#
#
# Indices 1 2 3 4 5 6 
#
# 1 105.9938 29.3519 47.3317 0.0000 0.0000 5.1950
# 2 29.3519 105.9938 47.3317 0.0000 0.0000 -5.1950
# 3 47.3317 47.3317 110.1503 0.0000 0.0000 0.0000
# 4 0.0000 0.0000 0.0000 41.0825 0.0000 0.0000
# 5 0.0000 0.0000 0.0000 0.0000 41.0825 0.0000
# 6 5.1950 -5.1950 0.0000 0.0000 0.0000 45.7009
#
#
#
# Elastic Compliance Matrix: (Units=1/GPa)
#
#
# Indices 1 2 3 4 5 6 
#
# 1 0.011908 -0.001344 -0.004539 0.000000 0.000000 -0.001506
# 2 -0.001344 0.011908 -0.004539 0.000000 0.000000 0.001506
# 3 -0.004539 -0.004539 0.012979 0.000000 0.000000 0.000000
# 4 0.000000 0.000000 0.000000 0.024341 0.000000 0.000000
# 5 0.000000 0.000000 0.000000 0.000000 0.024341 0.000000
# 6 -0.001506 0.001506 0.000000 0.000000 0.000000 0.022224
#
#
# Mechanical properties :
#
#
# Convention : Reuss Voigt Hill
#
# Bulk Modulus (GPa) = 62.69734 63.35206 63.02470
# Shear Modulus (GPa) = 37.35186 38.78134 38.06660
#
# Velocity S-wave (km/s) = 4.10088 4.17861 4.13993
# Velocity P-wave (km/s) = 7.11700 7.19754 7.15738
#
# Compressibility (1/GPa) = 0.01594964
#
# Stress axis : x y z
#
# Youngs Moduli (GPa) = 83.98050 83.98049 77.04554
#
# Poissons Ratio (x) = 0.11290 0.34971
# Poissons Ratio (y) = 0.11290 0.34971
# Poissons Ratio (z) = 0.38119 0.38119
#
# Static dielectric constant tensor:
#      x y z
#    x 1.885740 0.000000 0.000000 
#    y 0.000000 1.885740 0.000000 
#    z 0.000000 0.000000 1.786910 
# 
# From -- ./inp_files/2982.got.cif
#   From: 2010.05.17/outbox.cif.g08.bks.cpg/sg82_2_cif.got.tgz:2982.got - 2010.06.03 18:52:26.
