data_PCOD9543936
_publ_section_title
;
Structure prediction by ZEFSAII (Michael W. Deem and Ramdas Pophale) SiO2 
 PCOD9543936
Probable space group: P 42/M
;
_chemical_formula_sum "Si O2"
_cell_formula_units_Z 46
_cell_length_a 11.463421
_cell_length_b 11.463421
_cell_length_c 18.854910
_cell_angle_alpha 90.000000
_cell_angle_beta 90.000000
_cell_angle_gamma 90.000000
_cell_volume 2477.724119
_symmetry_space_group_name_H-M "P 42/M"
_symmetry_group_IT_number 84
_symmetry_cell_setting 'tetragonal'
loop_
_space_group_symop_operation_xyz
x,y,z
-y,x,1/2+z
-x,-y,z
y,-x,1/2+z
-x,-y,-z
y,-x,1/2-z
x,y,-z
-y,x,1/2-z
loop_
_atom_site_type_symbol
_atom_site_label
_atom_site_fract_x
_atom_site_fract_y
_atom_site_fract_z
Si Si1 0.510703 0.639973 0.850651
Si Si2 0.589803 0.674466 0.000000
Si Si3 0.248209 0.387568 0.775372
Si Si4 0.778079 0.056527 0.341474
Si Si5 0.580832 0.883969 0.358335
Si Si6 0.847792 0.743154 0.000000
Si Si7 0.000000 0.000000 0.250000
Si Si8 0.777564 0.485085 0.000000
O O1 0.500000 0.500000 0.847211
O O2 0.514357 0.685423 0.930121
O O3 0.640982 0.655582 0.820133
O O4 0.415421 0.704137 0.802633
O O5 0.706128 0.755660 0.000000
O O6 0.650143 0.544537 0.000000
O O7 0.147464 0.297089 0.794532
O O8 0.196441 0.511036 0.803317
O O9 0.783742 0.098674 0.424454
O O10 0.706100 0.935144 0.339260
O O11 0.899543 0.044338 0.302451
O O12 0.583644 0.809321 0.429981
O O13 0.500000 0.000000 0.368450
O O14 0.859049 0.601757 0.000000
#
# Coordination Sequence:
#
# PCOD9543936 Si02
#       8
#     8   4   8   8   8   4   2   4
#     4  12  21  33  53  88 131 165 192 237 308 392
#     4  10  19  34  52  89 133 164 195 245 313 379
#     4  11  20  34  60  89 120 165 203 250 310 380
#     4  11  24  42  62  89 119 164 217 280 319 381
#     4  10  17  31  59  89 115 148 201 257 310 359
#     4  10  17  36  69  87 122 164 213 273 323 369
#     4  12  32  46  60  88 128 166 216 276 344 390
#     4  10  14  30  60  95 121 148 201 253 311 358
#
# _framework density 18.565422999999999
#
# number of rings (size 3 to 8) (size 9 to 14) (size 15 to 20)
#    0.522    0.696    8.696    1.043    2.435    0.348 
#    0.000    0.000    0.000    1.043    0.000    6.696 
#    0.000    0.000    0.000    0.000    0.000    0.000 
#
# Total GULP energy -256529.990101 kJ/mol
# GULP energy per Si atom -5576.738915 kJ/mol
# Density = 1.852317 g / cm^3
# Si number density = 18.565423 Si / 1000 Ang^3
#
#
#
# Elastic Constant Matrix: (Units=GPa)
#
#
# Indices 1 2 3 4 5 6 
#
# 1 61.0102 27.5919 52.4824 0.0000 0.0000 -5.8056
# 2 27.5919 61.0102 52.4824 0.0000 0.0000 5.8056
# 3 52.4824 52.4824 165.9137 0.0000 0.0000 0.0000
# 4 0.0000 0.0000 0.0000 14.7354 0.0000 0.0000
# 5 0.0000 0.0000 0.0000 0.0000 14.7354 0.0000
# 6 -5.8056 5.8056 0.0000 0.0000 0.0000 21.2777
#
#
#
# Elastic Compliance Matrix: (Units=1/GPa)
#
#
# Indices 1 2 3 4 5 6 
#
# 1 0.025554 -0.007503 -0.005710 0.000000 0.000000 0.009020
# 2 -0.007503 0.025554 -0.005710 0.000000 0.000000 -0.009020
# 3 -0.005710 -0.005710 0.009640 0.000000 0.000000 0.000000
# 4 0.000000 0.000000 0.000000 0.067864 0.000000 0.000000
# 5 0.000000 0.000000 0.000000 0.000000 0.067864 0.000000
# 6 0.009020 -0.009020 0.000000 0.000000 0.000000 0.051920
#
#
# Mechanical properties :
#
#
# Convention : Reuss Voigt Hill
#
# Bulk Modulus (GPa) = 43.66505 61.44973 52.55739
# Shear Modulus (GPa) = 17.01398 20.50816 18.76107
#
# Velocity S-wave (km/s) = 3.03055 3.32722 3.18235
# Velocity P-wave (km/s) = 5.98467 6.92325 6.47100
#
# Compressibility (1/GPa) = 0.02290161
#
# Stress axis : x y z
#
# Youngs Moduli (GPa) = 39.13247 39.13247 103.73891
#
# Poissons Ratio (x) = 0.29363 0.59234
# Poissons Ratio (y) = 0.29363 0.59234
# Poissons Ratio (z) = 0.22344 0.22344
#
# Static dielectric constant tensor:
#      x y z
#    x 1.656030 0.000000 0.000000 
#    y 0.000000 1.656030 0.000000 
#    z 0.000000 0.000000 1.662380 
# 
# From -- ./inp_files/3820.got.cif
#   From: 2010.05.17/outbox.cif.g08.bks.cpg/sg84_2_cif.got.tgz:3820.got - 2010.06.03 18:57:40.
