data_PCOD9543927
_publ_section_title
;
Structure prediction by ZEFSAII (Michael W. Deem and Ramdas Pophale) SiO2 
 PCOD9543927
Probable space group: P 4/M
;
_chemical_formula_sum "Si O2"
_cell_formula_units_Z 48
_cell_length_a 15.000000
_cell_length_b 15.000000
_cell_length_c 12.000000
_cell_angle_alpha 90.000000
_cell_angle_beta 90.000000
_cell_angle_gamma 90.000000
_cell_volume 2700.000000
_symmetry_space_group_name_H-M "P 4/M"
_symmetry_group_IT_number 83
_symmetry_cell_setting 'tetragonal'
loop_
_space_group_symop_operation_xyz
x,y,z
-y,x,z
-x,-y,z
y,-x,z
-x,-y,-z
y,-x,-z
x,y,-z
-y,x,-z
loop_
_atom_site_type_symbol
_atom_site_label
_atom_site_fract_x
_atom_site_fract_y
_atom_site_fract_z
Si Si1 0.449562 0.641389 0.000000
Si Si2 0.662357 0.211488 0.633608
Si Si3 0.130405 0.072130 0.500000
Si Si4 0.990990 0.605036 0.634587
Si Si5 0.254933 0.138960 0.301232
Si Si6 0.449088 0.643343 0.248240
Si Si7 0.070020 0.874625 0.866689
O O1 0.391118 0.551633 0.000000
O O2 0.435257 0.681534 0.877859
O O3 0.669761 0.210489 0.500000
O O4 0.643476 0.107586 0.667974
O O5 0.754608 0.254042 0.680468
O O6 0.583638 0.278856 0.670319
O O7 0.185155 0.102311 0.392824
O O8 0.033660 0.116951 0.500000
O O9 0.995562 0.613851 0.500000
O O10 0.000000 0.500000 0.661702
O O11 0.076694 0.658443 0.682043
O O12 0.210493 0.116972 0.183529
O O13 0.390240 0.551931 0.260768
O O14 0.966799 0.882902 0.829931
O O15 0.070752 0.873511 0.000000
#
# Coordination Sequence:
#
# PCOD9543927 Si02
#       7
#     4   8   4   8   8   8   8
#     4   7  12  30  58  84 107 137 177 236 293 337
#     4  11  23  36  56  84 115 150 194 234 282 347
#     4  11  20  30  53  84 110 131 171 240 296 318
#     4  10  22  39  57  78 113 157 190 227 286 349
#     4  12  21  36  57  78 111 145 194 237 274 338
#     4   9  19  36  60  87 114 142 185 243 293 337
#     4   9  18  33  55  83 113 144 179 227 287 342
#
# _framework density 17.777778000000001
#
# number of rings (size 3 to 8) (size 9 to 14) (size 15 to 20)
#    0.000    2.000    1.667    4.500    2.333    2.000 
#    1.500    0.833    1.833    0.500    0.000    0.000 
#    0.000    0.000    0.000    0.000    0.000    0.000 
#
# Total GULP energy -267564.399902 kJ/mol
# GULP energy per Si atom -5574.258331 kJ/mol
# Density = 1.773731 g / cm^3
# Si number density = 17.777778 Si / 1000 Ang^3
#
#
#
# Elastic Constant Matrix: (Units=GPa)
#
#
# Indices 1 2 3 4 5 6 
#
# 1 54.9166 35.8084 11.8170 0.0000 0.0000 14.7432
# 2 35.8084 54.9166 11.8170 0.0000 0.0000 -14.7432
# 3 11.8170 11.8170 31.3226 0.0000 0.0000 0.0000
# 4 0.0000 0.0000 0.0000 25.8518 0.0000 0.0000
# 5 0.0000 0.0000 0.0000 0.0000 25.8518 0.0000
# 6 14.7432 -14.7432 0.0000 0.0000 0.0000 17.8486
#
#
#
# Elastic Compliance Matrix: (Units=1/GPa)
#
#
# Indices 1 2 3 4 5 6 
#
# 1 -0.089162 0.101386 -0.004612 0.000000 0.000000 0.157395
# 2 0.101386 -0.089162 -0.004612 0.000000 0.000000 -0.157395
# 3 -0.004612 -0.004612 0.035405 0.000000 0.000000 0.000000
# 4 0.000000 0.000000 0.000000 0.038682 0.000000 0.000000
# 5 0.000000 0.000000 0.000000 0.000000 0.038682 0.000000
# 6 0.157395 -0.157395 0.000000 0.000000 0.000000 -0.203995
#
#
# Mechanical properties :
#
#
# Convention : Reuss Voigt Hill
#
# Bulk Modulus (GPa) = 24.15089 28.89340 26.52214
# Shear Modulus (GPa) = -11.36175 19.35802 3.99813
#
# Velocity S-wave (km/s) = -2.53078 3.30341 1.50128
# Velocity P-wave (km/s) = 2.25268 5.55318 4.23748
#
# Compressibility (1/GPa) = 0.04140635
#
# Stress axis : x y z
#
# Youngs Moduli (GPa) = -11.21552 -11.21552 28.24429
#
# Poissons Ratio (x) = 1.13709 0.13025
# Poissons Ratio (y) = 1.13709 0.13025
# Poissons Ratio (z) = -0.05172 -0.05172
#
# Static dielectric constant tensor:
#      x y z
#    x 1.612380 0.000000 0.000000 
#    y 0.000000 1.612380 0.000000 
#    z 0.000000 0.000000 1.651660 
# 
# From -- ./inp_files/1892.got.cif
#   From: 2010.05.17/outbox.ucp.g08.bks.cvg/sg83_1_cif.got.tgz:1892.got - 2010.06.11 10:34:49.
