data_PCOD9543075
_publ_section_title
;
Structure prediction by ZEFSAII (Michael W. Deem and Ramdas Pophale) SiO2 
 PCOD9543075
Probable space group: I -4 
;
_chemical_formula_sum "Si O2"
_cell_formula_units_Z 64
_cell_length_a 22.790024
_cell_length_b 22.790024
_cell_length_c 5.450147
_cell_angle_alpha 90.000000
_cell_angle_beta 90.000000
_cell_angle_gamma 90.000000
_cell_volume 2830.725656
_symmetry_space_group_name_H-M "I -4 "
_symmetry_group_IT_number 82
_symmetry_cell_setting 'tetragonal'
loop_
_space_group_symop_operation_xyz
x,y,z
y,-x,-z
-x,-y,z
-y,x,-z
1/2+x,1/2+y,1/2+z
1/2+y,1/2-x,1/2-z
1/2-x,1/2-y,1/2+z
1/2-y,1/2+x,1/2-z
loop_
_atom_site_type_symbol
_atom_site_label
_atom_site_fract_x
_atom_site_fract_y
_atom_site_fract_z
Si Si1 0.359315 0.978831 0.344064
Si Si2 0.891280 0.209082 0.830201
Si Si3 0.996142 0.245160 0.118574
Si Si4 0.264398 0.217469 0.001043
Si Si5 0.318148 0.601982 0.313692
Si Si6 0.307409 0.094591 0.523484
Si Si7 0.745542 0.114853 0.322930
Si Si8 0.067568 0.365081 0.149211
O O1 0.298950 0.939656 0.344657
O O2 0.389144 0.958832 0.597913
O O3 0.340772 0.046787 0.348359
O O4 0.392191 0.960500 0.096806
O O5 0.844009 0.231350 0.029734
O O6 0.876975 0.140538 0.809707
O O7 0.874769 0.252882 0.608458
O O8 0.958420 0.224141 0.886260
O O9 0.946958 0.275276 0.283090
O O10 0.031492 0.187250 0.196690
O O11 0.043582 0.298167 0.129273
O O12 0.233841 0.253237 0.229394
O O13 0.327770 0.206987 0.124696
O O14 0.282854 0.616042 0.570342
O O15 0.288146 0.617953 0.055739
O O16 0.361926 0.131156 0.633058
#
# Coordination Sequence:
#
# PCOD9543075 Si02
#       8
#     8   8   8   8   8   8   8   8
#     4  11  22  43  63  91 135 178 230 278 342 412
#     4  12  26  41  70 105 140 186 239 291 358 444
#     4  11  26  47  65 105 142 192 235 291 358 434
#     4  12  25  39  59 104 147 173 224 282 366 441
#     4  12  25  42  67  91 145 180 227 285 353 416
#     4  11  25  41  70  99 133 183 244 291 359 426
#     4  12  20  42  58  94 135 184 211 280 350 423
#     4  11  23  41  68  96 134 182 228 291 348 412
#
# _framework density 22.609041999999999
#
# number of rings (size 3 to 8) (size 9 to 14) (size 15 to 20)
#    0.000    0.500    7.500    0.750    7.000    0.000 
#    0.000    0.000    0.000   12.750    0.000    0.000 
#    0.000    0.000    0.000    0.000    0.000    0.000 
#
# Total GULP energy -178280.152964 kJ/mol
# GULP energy per Si atom -5571.254780 kJ/mol
# Density = 2.255758 g / cm^3
# Si number density = 22.609042 Si / 1000 Ang^3
#
#
#
# Elastic Constant Matrix: (Units=GPa)
#
#
# Indices 1 2 3 4 5 6 
#
# 1 61.4404 51.9683 12.6825 0.0000 0.0000 -8.0413
# 2 51.9683 61.4404 12.6825 0.0000 0.0000 8.0413
# 3 12.6825 12.6825 148.0883 0.0000 0.0000 0.0000
# 4 0.0000 0.0000 0.0000 22.6605 0.0000 0.0000
# 5 0.0000 0.0000 0.0000 0.0000 22.6605 0.0000
# 6 -8.0413 8.0413 0.0000 0.0000 0.0000 15.0810
#
#
#
# Elastic Compliance Matrix: (Units=1/GPa)
#
#
# Indices 1 2 3 4 5 6 
#
# 1 0.562028 -0.553038 -0.000770 0.000000 0.000000 0.594559
# 2 -0.553038 0.562028 -0.000770 0.000000 0.000000 -0.594559
# 3 -0.000770 -0.000770 0.006885 0.000000 0.000000 0.000000
# 4 0.000000 0.000000 0.000000 0.044130 0.000000 0.000000
# 5 0.000000 0.000000 0.000000 0.000000 0.044130 0.000000
# 6 0.594559 -0.594559 0.000000 0.000000 0.000000 0.700352
#
#
# Mechanical properties :
#
#
# Convention : Reuss Voigt Hill
#
# Bulk Modulus (GPa) = 45.90377 47.29285 46.59831
# Shear Modulus (GPa) = 1.64692 24.98946 13.31819
#
# Velocity S-wave (km/s) = 0.85441 3.32819 2.42970
# Velocity P-wave (km/s) = 4.61744 5.97764 5.34102
#
# Compressibility (1/GPa) = 0.02178470
#
# Stress axis : x y z
#
# Youngs Moduli (GPa) = 1.77927 1.77927 145.25171
#
# Poissons Ratio (x) = 0.98400 0.11183
# Poissons Ratio (y) = 0.98400 0.11183
# Poissons Ratio (z) = 0.00137 0.00137
#
# Static dielectric constant tensor:
#      x y z
#    x 1.968690 0.000000 0.000000 
#    y 0.000000 1.968690 0.000000 
#    z 0.000000 0.000000 2.028000 
# 
# From -- ./inp_files/470.got.cif
#   From: 2010.05.17/outbox.cif.g08.bks.cpg/sg82_1_cif.got.tgz:470.got - 2010.06.03 18:52:26.
