data_PCOD9543265
_publ_section_title
;
Structure prediction by ZEFSAII (Michael W. Deem and Ramdas Pophale) SiO2 
 PCOD9543265
Probable space group: P 4/M
;
_chemical_formula_sum "Si O2"
_cell_formula_units_Z 36
_cell_length_a 15.173762
_cell_length_b 15.173762
_cell_length_c 7.696952
_cell_angle_alpha 90.000000
_cell_angle_beta 90.000000
_cell_angle_gamma 90.000000
_cell_volume 1772.169729
_symmetry_space_group_name_H-M "P 4/M"
_symmetry_group_IT_number 83
_symmetry_cell_setting 'tetragonal'
loop_
_space_group_symop_operation_xyz
x,y,z
-y,x,z
-x,-y,z
y,-x,z
-x,-y,-z
y,-x,-z
x,y,-z
-y,x,-z
loop_
_atom_site_type_symbol
_atom_site_label
_atom_site_fract_x
_atom_site_fract_y
_atom_site_fract_z
Si Si1 0.592890 0.044809 0.289235
Si Si2 0.096629 0.736553 0.193509
Si Si3 0.870580 0.928674 0.500000
Si Si4 0.627850 0.730673 0.711388
Si Si5 0.572488 0.246640 0.288101
O O1 0.596861 0.041584 0.500000
O O2 0.593814 0.146609 0.234318
O O3 0.500000 0.000000 0.237992
O O4 0.674277 0.988248 0.220947
O O5 0.097946 0.813617 0.333674
O O6 0.181010 0.674271 0.222909
O O7 0.097279 0.772744 0.000000
O O8 0.966142 0.884497 0.500000
O O9 0.629191 0.734214 0.500000
O O10 0.526191 0.728557 0.766678
O O11 0.684242 0.646313 0.767944
O O12 0.572805 0.246552 0.500000
#
# Coordination Sequence:
#
# PCOD9543265 Si02
#       5
#     8   8   4   8   8
#     4  10  18  35  61  91 128 173 218 270 335 387
#     4  12  25  41  69 103 130 167 221 275 326 394
#     4  11  28  52  73  94 132 177 210 261 335 400
#     4  10  19  38  59  91 133 174 226 273 332 391
#     4   9  19  32  61  91 125 180 221 273 332 394
#
# _framework density 20.314081000000002
#
# number of rings (size 3 to 8) (size 9 to 14) (size 15 to 20)
#    0.000    1.667    4.444    0.000    3.111    1.778 
#    0.000    4.444    0.000    0.000    0.000    1.556 
#    0.000    0.000    0.000    0.000    0.000    0.000 
#
# Total GULP energy -201359.033957 kJ/mol
# GULP energy per Si atom -5593.306499 kJ/mol
# Density = 2.026784 g / cm^3
# Si number density = 20.314081 Si / 1000 Ang^3
#
#
#
# Elastic Constant Matrix: (Units=GPa)
#
#
# Indices 1 2 3 4 5 6 
#
# 1 122.1644 92.1084 25.1117 0.0000 0.0000 17.4225
# 2 92.1084 122.1644 25.1117 0.0000 0.0000 -17.4225
# 3 25.1117 25.1117 83.5298 0.0000 0.0000 0.0000
# 4 0.0000 0.0000 0.0000 -11.0057 0.0000 0.0000
# 5 0.0000 0.0000 0.0000 0.0000 -11.0057 0.0000
# 6 17.4225 -17.4225 0.0000 0.0000 0.0000 27.9508
#
#
#
# Elastic Compliance Matrix: (Units=1/GPa)
#
#
# Indices 1 2 3 4 5 6 
#
# 1 0.062489 -0.057468 -0.001509 0.000000 0.000000 -0.074773
# 2 -0.057468 0.062489 -0.001509 0.000000 0.000000 0.074773
# 3 -0.001509 -0.001509 0.012879 0.000000 0.000000 0.000000
# 4 0.000000 0.000000 0.000000 -0.090862 0.000000 0.000000
# 5 0.000000 0.000000 0.000000 0.000000 -0.090862 0.000000
# 6 -0.074773 0.074773 0.000000 0.000000 0.000000 0.128993
#
#
# Mechanical properties :
#
#
# Convention : Reuss Voigt Hill
#
# Bulk Modulus (GPa) = 59.23037 68.05799 63.64418
# Shear Modulus (GPa) = 23.61510 13.55633 18.58571
#
# Velocity S-wave (km/s) = 3.41324 2.58609 3.02804
# Velocity P-wave (km/s) = 6.68986 6.51865 6.60481
#
# Compressibility (1/GPa) = 0.01688323
#
# Stress axis : x y z
#
# Youngs Moduli (GPa) = 16.00276 16.00276 77.64384
#
# Poissons Ratio (x) = 0.91965 0.11719
# Poissons Ratio (y) = 0.91965 0.11719
# Poissons Ratio (z) = 0.02415 0.02415
#
# Static dielectric constant tensor:
#      x y z
#    x 1.679320 0.000000 0.000000 
#    y 0.000000 1.679320 0.000000 
#    z 0.000000 0.000000 1.737870 
# 
# From -- ./inp_files/554.got.cif
#   From: 2010.05.17/outbox.cif.g08.bks.cpg/sg83_1_cif.got.tgz:554.got - 2010.06.03 18:55:12.
