data_PCOD9543462
_publ_section_title
;
Structure prediction by ZEFSAII (Michael W. Deem and Ramdas Pophale) SiO2 
 PCOD9543462
Probable space group: P 4/M
;
_chemical_formula_sum "Si O2"
_cell_formula_units_Z 36
_cell_length_a 12.701973
_cell_length_b 12.701973
_cell_length_c 9.369164
_cell_angle_alpha 90.000000
_cell_angle_beta 90.000000
_cell_angle_gamma 90.000000
_cell_volume 1511.622026
_symmetry_space_group_name_H-M "P 4/M"
_symmetry_group_IT_number 83
_symmetry_cell_setting 'tetragonal'
loop_
_space_group_symop_operation_xyz
x,y,z
-y,x,z
-x,-y,z
y,-x,z
-x,-y,-z
y,-x,-z
x,y,-z
-y,x,-z
loop_
_atom_site_type_symbol
_atom_site_label
_atom_site_fract_x
_atom_site_fract_y
_atom_site_fract_z
Si Si1 0.436924 0.730291 0.000000
Si Si2 0.583559 0.350691 0.691853
Si Si3 0.835865 0.933317 0.500000
Si Si4 0.298210 0.006869 0.254433
Si Si5 0.360484 0.135936 0.000000
Si Si6 0.361635 0.845521 0.500000
Si Si7 0.239138 0.869357 0.000000
O O1 0.413514 0.664491 0.139755
O O2 0.831289 0.639865 0.000000
O O3 0.554488 0.773735 0.000000
O O4 0.638798 0.460149 0.653846
O O5 0.632284 0.248799 0.620814
O O6 0.771229 0.915846 0.355338
O O7 0.866461 0.057521 0.500000
O O8 0.354563 0.934871 0.372000
O O9 0.226515 0.938490 0.143808
O O10 0.372047 0.069898 0.145711
O O11 0.238687 0.174183 0.000000
#
# Coordination Sequence:
#
# PCOD9543462 Si02
#       7
#     4   8   4   8   4   4   4
#     4  12  24  42  71  99 134 180 234 290 344 401
#     4  11  23  42  68 102 139 184 237 284 340 408
#     4  10  20  39  67  99 134 172 222 294 360 417
#     4  10  23  41  66 100 136 179 236 279 347 430
#     4  11  25  44  71  98 134 183 233 291 350 402
#     4  11  22  42  64  95 144 180 222 281 340 411
#     4  11  21  44  68  93 139 179 232 291 342 403
#
# _framework density 23.815477999999999
#
# number of rings (size 3 to 8) (size 9 to 14) (size 15 to 20)
#    0.000    1.222    2.222    4.000    0.000    3.556 
#    0.000    3.333    0.000    5.333    0.000    0.000 
#    0.000    0.000    0.000    0.000    0.000    0.000 
#
# Total GULP energy -200464.338843 kJ/mol
# GULP energy per Si atom -5568.453857 kJ/mol
# Density = 2.376127 g / cm^3
# Si number density = 23.815478 Si / 1000 Ang^3
#
#
#
# Elastic Constant Matrix: (Units=GPa)
#
#
# Indices 1 2 3 4 5 6 
#
# 1 56.4967 19.1975 33.7376 0.0000 0.0000 -3.6425
# 2 19.1975 56.4967 33.7376 0.0000 0.0000 3.6425
# 3 33.7376 33.7376 238.8778 0.0000 0.0000 0.0000
# 4 0.0000 0.0000 0.0000 11.6380 0.0000 0.0000
# 5 0.0000 0.0000 0.0000 0.0000 11.6380 0.0000
# 6 -3.6425 3.6425 0.0000 0.0000 0.0000 11.4522
#
#
#
# Elastic Compliance Matrix: (Units=1/GPa)
#
#
# Indices 1 2 3 4 5 6 
#
# 1 0.021850 -0.006736 -0.002135 0.000000 0.000000 0.009092
# 2 -0.006736 0.021850 -0.002135 0.000000 0.000000 -0.009092
# 3 -0.002135 -0.002135 0.004789 0.000000 0.000000 0.000000
# 4 0.000000 0.000000 0.000000 0.085925 0.000000 0.000000
# 5 0.000000 0.000000 0.000000 0.000000 0.085925 0.000000
# 6 0.009092 -0.009092 0.000000 0.000000 0.000000 0.093103
#
#
# Mechanical properties :
#
#
# Convention : Reuss Voigt Hill
#
# Bulk Modulus (GPa) = 37.76636 58.35737 48.06186
# Shear Modulus (GPa) = 14.52306 24.62554 19.57430
#
# Velocity S-wave (km/s) = 2.47212 3.21910 2.87002
# Velocity P-wave (km/s) = 4.90315 6.19467 5.58636
#
# Compressibility (1/GPa) = 0.02647859
#
# Stress axis : x y z
#
# Youngs Moduli (GPa) = 45.76665 45.76665 208.80354
#
# Poissons Ratio (x) = 0.30829 0.44571
# Poissons Ratio (y) = 0.30829 0.44571
# Poissons Ratio (z) = 0.09769 0.09769
#
# Static dielectric constant tensor:
#      x y z
#    x 1.918540 0.000000 0.000000 
#    y 0.000000 1.918540 0.000000 
#    z 0.000000 0.000000 1.872580 
# 
# From -- ./inp_files/606.got.cif
#   From: 2010.05.17/outbox.cif.g08.bks.cpg/sg83_1_cif.got.tgz:606.got - 2010.06.03 18:55:12.
