data_PCOD9543483
_publ_section_title
;
Structure prediction by ZEFSAII (Michael W. Deem and Ramdas Pophale) SiO2 
 PCOD9543483
Probable space group: P 4/M
;
_chemical_formula_sum "Si O2"
_cell_formula_units_Z 52
_cell_length_a 18.425226
_cell_length_b 18.425226
_cell_length_c 7.441801
_cell_angle_alpha 90.000000
_cell_angle_beta 90.000000
_cell_angle_gamma 90.000000
_cell_volume 2526.409231
_symmetry_space_group_name_H-M "P 4/M"
_symmetry_group_IT_number 83
_symmetry_cell_setting 'tetragonal'
loop_
_space_group_symop_operation_xyz
x,y,z
-y,x,z
-x,-y,z
y,-x,z
-x,-y,-z
y,-x,-z
x,y,-z
-y,x,-z
loop_
_atom_site_type_symbol
_atom_site_label
_atom_site_fract_x
_atom_site_fract_y
_atom_site_fract_z
Si Si1 0.891953 0.212858 0.783731
Si Si2 0.071443 0.902962 0.500000
Si Si3 0.296951 0.963118 0.782627
Si Si4 0.069303 0.460657 0.293753
Si Si5 0.264455 0.802898 0.784597
Si Si6 0.227627 0.430365 0.710879
Si Si7 0.478381 0.615581 0.280678
O O1 0.903493 0.138737 0.677438
O O2 0.810070 0.237592 0.733991
O O3 0.960331 0.262292 0.729695
O O4 0.894328 0.203636 0.000000
O O5 0.984687 0.902454 0.500000
O O6 0.376819 0.953114 0.706789
O O7 0.257504 0.887909 0.730165
O O8 0.300959 0.963405 0.000000
O O9 0.075127 0.487527 0.500000
O O10 0.150947 0.460820 0.213994
O O11 0.000000 0.500000 0.207827
O O12 0.342489 0.774408 0.722009
O O13 0.268605 0.801341 0.000000
O O14 0.226369 0.448339 0.500000
O O15 0.303343 0.460998 0.784004
O O16 0.417655 0.556230 0.227008
O O17 0.477508 0.616898 0.500000
#
# Coordination Sequence:
#
# PCOD9543483 Si02
#       7
#     8   4   8   8   8   8   8
#     4  10  21  37  55  77 106 141 182 230 278 327
#     4  11  24  36  52  80 107 138 184 229 275 334
#     4   9  18  33  53  73  95 134 177 214 264 323
#     4   9  18  32  48  71 105 139 169 211 268 320
#     4   9  18  33  52  72 100 134 171 215 265 318
#     4   9  17  30  50  75 100 132 172 212 258 319
#     4   8  14  27  48  74 103 134 169 213 263 315
#
# _framework density 20.582573
#
# number of rings (size 3 to 8) (size 9 to 14) (size 15 to 20)
#    0.000    2.846    0.000    1.385    2.154    2.154 
#    2.769    0.769    0.000    0.923    0.000    1.077 
#    0.000    0.000    0.000    0.000    0.000    0.000 
#
# Total GULP energy -289738.046090 kJ/mol
# GULP energy per Si atom -5571.885502 kJ/mol
# Density = 2.053573 g / cm^3
# Si number density = 20.582573 Si / 1000 Ang^3
#
#
#
# Elastic Constant Matrix: (Units=GPa)
#
#
# Indices 1 2 3 4 5 6 
#
# 1 207.0327 -6.7619 10.9181 0.0000 0.0000 -85.4184
# 2 -6.7619 207.0327 10.9181 0.0000 0.0000 85.4184
# 3 10.9181 10.9181 54.6897 0.0000 0.0000 0.0000
# 4 0.0000 0.0000 0.0000 10.9891 0.0000 0.0000
# 5 0.0000 0.0000 0.0000 0.0000 10.9891 0.0000
# 6 -85.4184 85.4184 0.0000 0.0000 0.0000 152.3047
#
#
#
# Elastic Compliance Matrix: (Units=1/GPa)
#
#
# Indices 1 2 3 4 5 6 
#
# 1 0.006790 -0.001686 -0.001019 0.000000 0.000000 0.004754
# 2 -0.001686 0.006790 -0.001019 0.000000 0.000000 -0.004754
# 3 -0.001019 -0.001019 0.018692 0.000000 0.000000 0.000000
# 4 0.000000 0.000000 0.000000 0.091000 0.000000 0.000000
# 5 0.000000 0.000000 0.000000 0.000000 0.091000 0.000000
# 6 0.004754 -0.004754 0.000000 0.000000 0.000000 0.011898
#
#
# Mechanical properties :
#
#
# Convention : Reuss Voigt Hill
#
# Bulk Modulus (GPa) = 40.28284 55.43377 47.85831
# Shear Modulus (GPa) = 20.67044 65.10194 42.88619
#
# Velocity S-wave (km/s) = 3.17246 5.63012 4.56962
# Velocity P-wave (km/s) = 5.74745 8.32197 7.15152
#
# Compressibility (1/GPa) = 0.02482447
#
# Stress axis : x y z
#
# Youngs Moduli (GPa) = 147.27357 147.27357 53.49922
#
# Poissons Ratio (x) = 0.24826 0.05452
# Poissons Ratio (y) = 0.24826 0.05452
# Poissons Ratio (z) = 0.15007 0.15007
#
# Static dielectric constant tensor:
#      x y z
#    x 1.743810 0.000000 0.000000 
#    y 0.000000 1.743810 0.000000 
#    z 0.000000 0.000000 1.895270 
# 
# From -- ./inp_files/992.got.cif
#   From: 2010.05.17/outbox.cif.g08.bks.cpg/sg83_1_cif.got.tgz:992.got - 2010.06.03 18:55:12.
