data_PCOD9543568
_publ_section_title
;
Structure prediction by ZEFSAII (Michael W. Deem and Ramdas Pophale) SiO2 
 PCOD9543568
Probable space group: P 4/M
;
_chemical_formula_sum "Si O2"
_cell_formula_units_Z 34
_cell_length_a 8.384878
_cell_length_b 8.384878
_cell_length_c 22.088311
_cell_angle_alpha 90.000000
_cell_angle_beta 90.000000
_cell_angle_gamma 90.000000
_cell_volume 1552.944749
_symmetry_space_group_name_H-M "P 4/M"
_symmetry_group_IT_number 83
_symmetry_cell_setting 'tetragonal'
loop_
_space_group_symop_operation_xyz
x,y,z
-y,x,z
-x,-y,z
y,-x,z
-x,-y,-z
y,-x,-z
x,y,-z
-y,x,-z
loop_
_atom_site_type_symbol
_atom_site_label
_atom_site_fract_x
_atom_site_fract_y
_atom_site_fract_z
Si Si1 0.587315 0.746895 0.691144
Si Si2 0.000000 0.500000 0.398446
Si Si3 0.000000 0.000000 0.787720
Si Si4 0.739401 0.074965 0.500000
Si Si5 0.720556 0.344713 0.932760
Si Si6 0.663542 0.909512 0.815323
O O1 0.405276 0.695692 0.680017
O O2 0.612915 0.795089 0.760436
O O3 0.609234 0.892244 0.645377
O O4 0.092868 0.377781 0.442486
O O5 0.804858 0.020739 0.790570
O O6 0.809238 0.892774 0.500000
O O7 0.712575 0.537492 0.928534
O O8 0.823487 0.283256 0.877211
O O9 0.781282 0.302614 0.000000
O O10 0.500000 0.000000 0.830564
#
# Coordination Sequence:
#
# PCOD9543568 Si02
#       6
#     8   4   2   4   8   8
#     4  11  23  40  63  95 130 174 226 280 349 416
#     4  11  22  40  66  96 129 174 224 278 337 412
#     4  12  28  44  69 104 136 185 244 288 366 432
#     4  10  22  42  64  94 134 174 218 271 340 408
#     4   9  18  35  62  92 125 176 233 287 356 428
#     4  12  24  43  63  93 137 180 227 293 355 422
#
# _framework density 21.893888
#
# number of rings (size 3 to 8) (size 9 to 14) (size 15 to 20)
#    0.000    1.294    1.176    6.353    0.000    2.353 
#    0.000    1.765    0.000    5.647    0.000    0.000 
#    0.000    0.000    0.000    0.000    0.000    0.000 
#
# Total GULP energy -189542.630524 kJ/mol
# GULP energy per Si atom -5574.783251 kJ/mol
# Density = 2.184406 g / cm^3
# Si number density = 21.893888 Si / 1000 Ang^3
#
#
#
# Elastic Constant Matrix: (Units=GPa)
#
#
# Indices 1 2 3 4 5 6 
#
# 1 4.3412 44.2953 7.9168 0.0000 0.0000 31.4151
# 2 44.2953 4.3412 7.9168 0.0000 0.0000 -31.4151
# 3 7.9168 7.9168 113.3301 0.0000 0.0000 0.0000
# 4 0.0000 0.0000 0.0000 15.9639 0.0000 0.0000
# 5 0.0000 0.0000 0.0000 0.0000 15.9639 0.0000
# 6 31.4151 -31.4151 0.0000 0.0000 0.0000 -47.7765
#
#
#
# Elastic Compliance Matrix: (Units=1/GPa)
#
#
# Indices 1 2 3 4 5 6 
#
# 1 0.378342 -0.357303 -0.001470 0.000000 0.000000 0.483717
# 2 -0.357303 0.378342 -0.001470 0.000000 0.000000 -0.483717
# 3 -0.001470 -0.001470 0.009029 0.000000 0.000000 0.000000
# 4 0.000000 0.000000 0.000000 0.062641 0.000000 0.000000
# 5 0.000000 0.000000 0.000000 0.000000 0.062641 0.000000
# 6 0.483717 -0.483717 0.000000 0.000000 0.000000 0.615198
#
#
# Mechanical properties :
#
#
# Convention : Reuss Voigt Hill
#
# Bulk Modulus (GPa) = 22.10995 26.91895 24.51445
# Shear Modulus (GPa) = 2.23040 0.95584 1.59312
#
# Velocity S-wave (km/s) = 1.01042 0.66146 0.85395
# Velocity P-wave (km/s) = 3.38849 3.59239 3.49193
#
# Compressibility (1/GPa) = 0.04522851
#
# Stress axis : x y z
#
# Youngs Moduli (GPa) = 2.64311 2.64311 110.75282
#
# Poissons Ratio (x) = 0.94439 0.16277
# Poissons Ratio (y) = 0.94439 0.16277
# Poissons Ratio (z) = 0.00388 0.00388
#
# Static dielectric constant tensor:
#      x y z
#    x 1.810900 0.000000 0.000000 
#    y 0.000000 1.810900 0.000000 
#    z 0.000000 0.000000 1.785610 
# 
# From -- ./inp_files/2891.got.cif
#   From: 2010.05.17/outbox.cif.g08.bks.cpg/sg83_2_cif.got.tgz:2891.got - 2010.06.03 18:55:12.
