data_PCOD9543832
_publ_section_title
;
Structure prediction by ZEFSAII (Michael W. Deem and Ramdas Pophale) SiO2 
 PCOD9543832
Probable space group: P 4/M
;
_chemical_formula_sum "Si O2"
_cell_formula_units_Z 40
_cell_length_a 9.157868
_cell_length_b 9.157868
_cell_length_c 20.519332
_cell_angle_alpha 90.000000
_cell_angle_beta 90.000000
_cell_angle_gamma 90.000000
_cell_volume 1720.885507
_symmetry_space_group_name_H-M "P 4/M"
_symmetry_group_IT_number 83
_symmetry_cell_setting 'tetragonal'
loop_
_space_group_symop_operation_xyz
x,y,z
-y,x,z
-x,-y,z
y,-x,z
-x,-y,-z
y,-x,-z
x,y,-z
-y,x,-z
loop_
_atom_site_type_symbol
_atom_site_label
_atom_site_fract_x
_atom_site_fract_y
_atom_site_fract_z
Si Si1 0.562779 0.724965 0.078300
Si Si2 0.169937 0.455798 0.427164
Si Si3 0.670317 0.039825 0.260238
Si Si4 0.770813 0.956551 0.118881
Si Si5 0.720137 0.774039 0.343819
O O1 0.403169 0.673610 0.101339
O O2 0.619892 0.882451 0.098707
O O3 0.559949 0.721255 0.000000
O O4 0.226557 0.481665 0.500000
O O5 0.244448 0.555649 0.371285
O O6 0.192255 0.289446 0.405403
O O7 0.000000 0.500000 0.426846
O O8 0.692113 0.207616 0.281505
O O9 0.500000 0.000000 0.252839
O O10 0.754346 0.990353 0.195707
O O11 0.730182 0.940028 0.319358
O O12 0.890565 0.837342 0.095437
#
# Coordination Sequence:
#
# PCOD9543832 Si02
#       5
#     8   8   8   8   8
#     4   9  21  44  71 100 138 185 233 280 334 399
#     4  11  24  43  65  95 129 162 213 275 331 398
#     4  12  25  43  67  94 133 175 221 274 329 413
#     4  11  25  40  64 102 136 176 227 284 334 395
#     4  12  21  45  66  93 125 174 211 267 333 399
#
# _framework density 23.243846999999999
#
# number of rings (size 3 to 8) (size 9 to 14) (size 15 to 20)
#    0.000    1.000    6.000    1.200    2.800    1.600 
#    0.000    4.000    0.000    2.400    0.000    0.000 
#    0.000    0.000    0.000    0.000    0.000    0.000 
#
# Total GULP energy -222883.337605 kJ/mol
# GULP energy per Si atom -5572.083440 kJ/mol
# Density = 2.319094 g / cm^3
# Si number density = 23.243847 Si / 1000 Ang^3
#
#
#
# Elastic Constant Matrix: (Units=GPa)
#
#
# Indices 1 2 3 4 5 6 
#
# 1 63.8551 63.3284 3.9315 0.0000 0.0000 -5.4595
# 2 63.3284 63.8551 3.9315 0.0000 0.0000 5.4595
# 3 3.9315 3.9315 33.8585 0.0000 0.0000 0.0000
# 4 0.0000 0.0000 0.0000 -5.2272 0.0000 0.0000
# 5 0.0000 0.0000 0.0000 0.0000 -5.2272 0.0000
# 6 -5.4595 5.4595 0.0000 0.0000 0.0000 50.5396
#
#
#
# Elastic Compliance Matrix: (Units=1/GPa)
#
#
# Indices 1 2 3 4 5 6 
#
# 1 -0.761927 0.769847 -0.000920 0.000000 0.000000 -0.165470
# 2 0.769847 -0.761927 -0.000920 0.000000 0.000000 0.165470
# 3 -0.000920 -0.000920 0.029748 0.000000 0.000000 0.000000
# 4 0.000000 0.000000 0.000000 -0.191307 0.000000 0.000000
# 5 0.000000 0.000000 0.000000 0.000000 -0.191307 0.000000
# 6 -0.165470 0.165470 0.000000 0.000000 0.000000 -0.015963
#
#
# Mechanical properties :
#
#
# Convention : Reuss Voigt Hill
#
# Bulk Modulus (GPa) = 23.86126 33.77240 28.81683
# Shear Modulus (GPa) = -1.46424 14.04220 6.28898
#
# Velocity S-wave (km/s) = -0.79455 2.46056 1.64667
# Velocity P-wave (km/s) = 3.07346 4.75748 4.00498
#
# Compressibility (1/GPa) = 0.04190894
#
# Stress axis : x y z
#
# Youngs Moduli (GPa) = -1.31246 -1.31246 33.61543
#
# Poissons Ratio (x) = 1.01039 0.03091
# Poissons Ratio (y) = 1.01039 0.03091
# Poissons Ratio (z) = -0.00121 -0.00121
#
# Static dielectric constant tensor:
#      x y z
#    x 1.912830 0.000000 0.000000 
#    y 0.000000 1.912830 0.000000 
#    z 0.000000 0.000000 1.853820 
# 
# From -- ./inp_files/3085.got.cif
#   From: 2010.05.17/outbox.cif.g08.bks.cpg/sg83_2_cif.got.tgz:3085.got - 2010.06.03 18:55:12.
