data_PCOD9543593
_publ_section_title
;
Structure prediction by ZEFSAII (Michael W. Deem and Ramdas Pophale) SiO2 
 PCOD9543593
Probable space group: P 4/M
;
_chemical_formula_sum "Si O2"
_cell_formula_units_Z 40
_cell_length_a 14.397169
_cell_length_b 14.397169
_cell_length_c 8.444299
_cell_angle_alpha 90.000000
_cell_angle_beta 90.000000
_cell_angle_gamma 90.000000
_cell_volume 1750.321421
_symmetry_space_group_name_H-M "P 4/M"
_symmetry_group_IT_number 83
_symmetry_cell_setting 'tetragonal'
loop_
_space_group_symop_operation_xyz
x,y,z
-y,x,z
-x,-y,z
y,-x,z
-x,-y,-z
y,-x,-z
x,y,-z
-y,x,-z
loop_
_atom_site_type_symbol
_atom_site_label
_atom_site_fract_x
_atom_site_fract_y
_atom_site_fract_z
Si Si1 0.147968 0.965578 0.691037
Si Si2 0.639394 0.458016 0.692057
Si Si3 0.202988 0.675727 0.687661
Si Si4 0.683799 0.147243 0.811444
Si Si5 0.477906 0.108729 0.819523
O O1 0.151744 0.964929 0.500000
O O2 0.246980 0.934396 0.755372
O O3 0.067230 0.891074 0.738118
O O4 0.611705 0.559123 0.748318
O O5 0.635843 0.460214 0.500000
O O6 0.736158 0.415514 0.732950
O O7 0.202299 0.692551 0.500000
O O8 0.256295 0.761421 0.763864
O O9 0.109768 0.625820 0.741017
O O10 0.577151 0.147953 0.747695
O O11 0.675374 0.142561 0.000000
O O12 0.500000 0.000000 0.827341
O O13 0.468155 0.144145 0.000000
#
# Coordination Sequence:
#
# PCOD9543593 Si02
#       5
#     8   8   8   8   8
#     4   9  20  40  65  94 128 162 205 270 334 387
#     4   8  14  26  47  76 109 142 180 233 294 352
#     4  11  22  37  60  89 121 161 210 265 318 377
#     4  11  24  40  63  93 129 175 219 264 324 394
#     4  10  24  45  64  88 128 173 218 269 325 392
#
# _framework density 22.852944999999998
#
# number of rings (size 3 to 8) (size 9 to 14) (size 15 to 20)
#    0.000    2.200    0.000    3.600    2.800    4.400 
#    0.000    1.000    0.000    0.000    0.000    8.400 
#    0.000    0.000    0.000    0.000    0.000    0.000 
#
# Total GULP energy -222874.118505 kJ/mol
# GULP energy per Si atom -5571.852963 kJ/mol
# Density = 2.280093 g / cm^3
# Si number density = 22.852945 Si / 1000 Ang^3
#
#
#
# Elastic Constant Matrix: (Units=GPa)
#
#
# Indices 1 2 3 4 5 6 
#
# 1 86.8333 45.3870 14.2254 0.0000 0.0000 -6.1947
# 2 45.3870 86.8333 14.2254 0.0000 0.0000 6.1947
# 3 14.2254 14.2254 33.6941 0.0000 0.0000 0.0000
# 4 0.0000 0.0000 0.0000 16.8508 0.0000 0.0000
# 5 0.0000 0.0000 0.0000 0.0000 16.8508 0.0000
# 6 -6.1947 6.1947 0.0000 0.0000 0.0000 33.6243
#
#
#
# Elastic Compliance Matrix: (Units=1/GPa)
#
#
# Indices 1 2 3 4 5 6 
#
# 1 0.016926 -0.008607 -0.003512 0.000000 0.000000 0.004704
# 2 -0.008607 0.016926 -0.003512 0.000000 0.000000 -0.004704
# 3 -0.003512 -0.003512 0.032644 0.000000 0.000000 0.000000
# 4 0.000000 0.000000 0.000000 0.059344 0.000000 0.000000
# 5 0.000000 0.000000 0.000000 0.000000 0.059344 0.000000
# 6 0.004704 -0.004704 0.000000 0.000000 0.000000 0.031474
#
#
# Mechanical properties :
#
#
# Convention : Reuss Voigt Hill
#
# Bulk Modulus (GPa) = 28.38210 39.44848 33.91529
# Shear Modulus (GPa) = 19.25537 22.36670 20.81104
#
# Velocity S-wave (km/s) = 2.90587 3.13185 3.02097
# Velocity P-wave (km/s) = 4.86880 5.51156 5.20012
#
# Compressibility (1/GPa) = 0.03523347
#
# Stress axis : x y z
#
# Youngs Moduli (GPa) = 59.07948 59.07948 30.63311
#
# Poissons Ratio (x) = 0.50852 0.10759
# Poissons Ratio (y) = 0.50852 0.10759
# Poissons Ratio (z) = 0.20750 0.20750
#
# Static dielectric constant tensor:
#      x y z
#    x 2.789550 0.000000 0.000000 
#    y 0.000000 2.789550 0.000000 
#    z 0.000000 0.000000 1.800380 
# 
# From -- ./inp_files/642.got.cif
#   From: 2010.05.17/outbox.cif.g08.bks.cpg/sg83_1_cif.got.tgz:642.got - 2010.06.03 18:55:12.
