data_PCOD9543290
_publ_section_title
;
Structure prediction by ZEFSAII (Michael W. Deem and Ramdas Pophale) SiO2 
 PCOD9543290
Probable space group: P 4/M
;
_chemical_formula_sum "Si O2"
_cell_formula_units_Z 64
_cell_length_a 22.025576
_cell_length_b 22.025576
_cell_length_c 9.080032
_cell_angle_alpha 90.000000
_cell_angle_beta 90.000000
_cell_angle_gamma 90.000000
_cell_volume 4404.959587
_symmetry_space_group_name_H-M "P 4/M"
_symmetry_group_IT_number 83
_symmetry_cell_setting 'tetragonal'
loop_
_space_group_symop_operation_xyz
x,y,z
-y,x,z
-x,-y,z
y,-x,z
-x,-y,-z
y,-x,-z
x,y,-z
-y,x,-z
loop_
_atom_site_type_symbol
_atom_site_label
_atom_site_fract_x
_atom_site_fract_y
_atom_site_fract_z
Si Si1 0.239965 0.152557 0.329431
Si Si2 0.846115 0.759414 0.829594
Si Si3 0.260944 0.342314 0.831869
Si Si4 0.063319 0.670449 0.177034
Si Si5 0.256114 0.654688 0.667637
Si Si6 0.333624 0.932063 0.323091
Si Si7 0.570275 0.835261 0.175892
Si Si8 0.429973 0.841836 0.821217
O O1 0.228154 0.136874 0.500000
O O2 0.181900 0.181781 0.249393
O O3 0.270305 0.097781 0.239582
O O4 0.291339 0.205611 0.329512
O O5 0.791539 0.709639 0.831486
O O6 0.899419 0.727062 0.738991
O O7 0.862846 0.770460 0.000000
O O8 0.315969 0.315996 0.738003
O O9 0.224069 0.401724 0.782261
O O10 0.280911 0.350550 0.000000
O O11 0.107423 0.613342 0.212308
O O12 0.999218 0.662938 0.256381
O O13 0.056570 0.673843 0.000000
O O14 0.266872 0.637471 0.500000
O O15 0.224411 0.599991 0.753743
O O16 0.334084 0.932127 0.500000
O O17 0.389507 0.892324 0.259258
O O18 0.500557 0.845637 0.218047
O O19 0.572295 0.828336 0.000000
O O20 0.423107 0.848747 0.000000
#
# Coordination Sequence:
#
# PCOD9543290 Si02
#       8
#     8   8   8   8   8   8   8   8
#     4   9  16  27  43  64  86 107 135 175 220 261
#     4   9  16  28  45  63  82 107 139 175 216 262
#     4   8  14  25  42  60  79 103 134 171 212 254
#     4  10  19  31  45  61  84 117 152 183 214 254
#     4   9  16  25  40  61  84 106 132 169 214 257
#     4  11  21  31  43  61  86 116 148 184 220 254
#     4   9  18  31  46  61  81 112 149 182 213 250
#     4   9  18  32  46  61  82 112 148 183 215 254
#
# _framework density 14.529076999999999
#
# number of rings (size 3 to 8) (size 9 to 14) (size 15 to 20)
#    0.000    2.750    0.000    3.375    0.000    7.500 
#    0.000    2.500    0.000    0.000    0.000    0.000 
#    0.000    1.000    0.000   10.750    0.000    6.000 
#
# Total GULP energy -356428.838620 kJ/mol
# GULP energy per Si atom -5569.200603 kJ/mol
# Density = 1.449601 g / cm^3
# Si number density = 14.529077 Si / 1000 Ang^3
#
#
#
# Elastic Constant Matrix: (Units=GPa)
#
#
# Indices 1 2 3 4 5 6 
#
# 1 71.7240 73.6881 53.3708 0.0000 0.0000 0.1837
# 2 73.6881 71.7240 53.3708 0.0000 0.0000 -0.1837
# 3 53.3708 53.3708 85.8434 0.0000 0.0000 0.0000
# 4 0.0000 0.0000 0.0000 15.8083 0.0000 0.0000
# 5 0.0000 0.0000 0.0000 0.0000 15.8083 0.0000
# 6 0.1837 -0.1837 0.0000 0.0000 0.0000 12.9225
#
#
#
# Elastic Compliance Matrix: (Units=1/GPa)
#
#
# Indices 1 2 3 4 5 6 
#
# 1 -0.247573 0.260224 -0.007865 0.000000 0.000000 0.007218
# 2 0.260224 -0.247573 -0.007865 0.000000 0.000000 -0.007218
# 3 -0.007865 -0.007865 0.021429 0.000000 0.000000 0.000000
# 4 0.000000 0.000000 0.000000 0.063258 0.000000 0.000000
# 5 0.000000 0.000000 0.000000 0.000000 0.063258 0.000000
# 6 0.007218 -0.007218 0.000000 0.000000 0.000000 0.077179
#
#
# Mechanical properties :
#
#
# Convention : Reuss Voigt Hill
#
# Bulk Modulus (GPa) = 65.48992 65.57230 65.53111
# Shear Modulus (GPa) = -6.63201 12.16527 2.76663
#
# Velocity S-wave (km/s) = -2.13882 2.89676 1.38143
# Velocity P-wave (km/s) = 6.25088 7.51120 6.90983
#
# Compressibility (1/GPa) = 0.01526953
#
# Stress axis : x y z
#
# Youngs Moduli (GPa) = -4.03921 -4.03921 46.66587
#
# Poissons Ratio (x) = 1.05110 0.36703
# Poissons Ratio (y) = 1.05110 0.36703
# Poissons Ratio (z) = -0.03177 -0.03177
#
# Static dielectric constant tensor:
#      x y z
#    x 1.469560 0.000000 0.000000 
#    y 0.000000 1.469560 0.000000 
#    z 0.000000 0.000000 1.488200 
# 
# From -- ./inp_files/1325.got.cif
#   From: 2010.05.17/outbox.cif.g08.bks.cpg/sg83_1_cif.got.tgz:1325.got - 2010.06.03 18:55:12.
