data_PCOD9543617
_publ_section_title
;
Structure prediction by ZEFSAII (Michael W. Deem and Ramdas Pophale) SiO2 
 PCOD9543617
Probable space group: P 4/M
;
_chemical_formula_sum "Si O2"
_cell_formula_units_Z 34
_cell_length_a 11.085739
_cell_length_b 11.085739
_cell_length_c 11.299860
_cell_angle_alpha 90.000000
_cell_angle_beta 90.000000
_cell_angle_gamma 90.000000
_cell_volume 1388.680579
_symmetry_space_group_name_H-M "P 4/M"
_symmetry_group_IT_number 83
_symmetry_cell_setting 'tetragonal'
loop_
_space_group_symop_operation_xyz
x,y,z
-y,x,z
-x,-y,z
y,-x,z
-x,-y,-z
y,-x,-z
x,y,-z
-y,x,-z
loop_
_atom_site_type_symbol
_atom_site_label
_atom_site_fract_x
_atom_site_fract_y
_atom_site_fract_z
Si Si1 0.478761 0.703412 0.865674
Si Si2 0.301488 0.330639 0.500000
Si Si3 0.500000 0.500000 0.500000
Si Si4 0.698720 0.019088 0.500000
Si Si5 0.389192 0.153249 0.699477
Si Si6 0.821907 0.923934 0.858224
Si Si7 0.000000 0.000000 0.500000
O O1 0.374708 0.602810 0.854248
O O2 0.488102 0.803953 0.763982
O O3 0.470896 0.752310 0.000000
O O4 0.358428 0.462668 0.500000
O O5 0.158493 0.330434 0.500000
O O6 0.340882 0.260616 0.617688
O O7 0.633285 0.958706 0.612867
O O8 0.845847 0.996971 0.500000
O O9 0.298823 0.127914 0.807126
O O10 0.938993 0.848154 0.818440
O O11 0.820430 0.922881 0.000000
#
# Coordination Sequence:
#
# PCOD9543617 Si02
#       7
#     8   4   1   4   8   8   1
#     4   9  20  39  66  98 135 188 252 310 363 426
#     4  11  27  45  71 107 132 186 243 297 363 439
#     4  12  32  56  80  92 138 188 244 316 372 418
#     4  11  24  42  68 107 142 188 240 289 367 448
#     4  11  21  36  65 100 136 181 226 296 359 421
#     4   9  18  31  54  90 132 180 227 272 333 416
#     4  12  20  44  68  96 158 196 244 288 364 442
#
# _framework density 24.483671999999999
#
# number of rings (size 3 to 8) (size 9 to 14) (size 15 to 20)
#    0.000    1.882    2.353    3.529    3.294    0.000 
#    0.000    2.353   10.353    0.000    0.000    9.882 
#    0.000    0.000    0.000    0.000    0.000    0.000 
#
# Total GULP energy -189769.556681 kJ/mol
# GULP energy per Si atom -5581.457549 kJ/mol
# Density = 2.442795 g / cm^3
# Si number density = 24.483672 Si / 1000 Ang^3
#
#
#
# Elastic Constant Matrix: (Units=GPa)
#
#
# Indices 1 2 3 4 5 6 
#
# 1 73.1805 25.5672 20.3368 0.0000 0.0000 8.4013
# 2 25.5672 73.1805 20.3368 0.0000 0.0000 -8.4013
# 3 20.3368 20.3368 90.4369 0.0000 0.0000 0.0000
# 4 0.0000 0.0000 0.0000 82.1204 0.0000 0.0000
# 5 0.0000 0.0000 0.0000 0.0000 82.1204 0.0000
# 6 8.4013 -8.4013 0.0000 0.0000 0.0000 30.5378
#
#
#
# Elastic Compliance Matrix: (Units=1/GPa)
#
#
# Indices 1 2 3 4 5 6 
#
# 1 0.017211 -0.006050 -0.002510 0.000000 0.000000 -0.006399
# 2 -0.006050 0.017211 -0.002510 0.000000 0.000000 0.006399
# 3 -0.002510 -0.002510 0.012186 0.000000 0.000000 0.000000
# 4 0.000000 0.000000 0.000000 0.012177 0.000000 0.000000
# 5 0.000000 0.000000 0.000000 0.000000 0.012177 0.000000
# 6 -0.006399 0.006399 0.000000 0.000000 0.000000 0.036267
#
#
# Mechanical properties :
#
#
# Convention : Reuss Voigt Hill
#
# Bulk Modulus (GPa) = 40.86898 41.03107 40.95002
# Shear Modulus (GPa) = 36.35710 50.32620 43.34165
#
# Velocity S-wave (km/s) = 3.85769 4.53868 4.21197
# Velocity P-wave (km/s) = 6.04739 6.65290 6.35736
#
# Compressibility (1/GPa) = 0.02446844
#
# Stress axis : x y z
#
# Youngs Moduli (GPa) = 58.10340 58.10340 82.06029
#
# Poissons Ratio (x) = 0.35153 0.20595
# Poissons Ratio (y) = 0.35153 0.20595
# Poissons Ratio (z) = 0.14582 0.14582
#
# Static dielectric constant tensor:
#      x y z
#    x 1.962570 0.000000 0.000000 
#    y 0.000000 1.962570 0.000000 
#    z 0.000000 0.000000 1.954970 
# 
# From -- ./inp_files/1653.got.cif
#   From: 2010.05.17/outbox.cif.g08.bks.cpg/sg83_1_cif.got.tgz:1653.got - 2010.06.03 18:55:12.
