data_PCOD9543403
_publ_section_title
;
Structure prediction by ZEFSAII (Michael W. Deem and Ramdas Pophale) SiO2 
 PCOD9543403
Probable space group: P 4/M
;
_chemical_formula_sum "Si O2"
_cell_formula_units_Z 48
_cell_length_a 14.952114
_cell_length_b 14.952114
_cell_length_c 11.997000
_cell_angle_alpha 90.000000
_cell_angle_beta 90.000000
_cell_angle_gamma 90.000000
_cell_volume 2682.117860
_symmetry_space_group_name_H-M "P 4/M"
_symmetry_group_IT_number 83
_symmetry_cell_setting 'tetragonal'
loop_
_space_group_symop_operation_xyz
x,y,z
-y,x,z
-x,-y,z
y,-x,z
-x,-y,-z
y,-x,-z
x,y,-z
-y,x,-z
loop_
_atom_site_type_symbol
_atom_site_label
_atom_site_fract_x
_atom_site_fract_y
_atom_site_fract_z
Si Si1 0.148770 0.134901 0.000000
Si Si2 0.017838 0.296385 0.000000
Si Si3 0.051097 0.408342 0.221315
Si Si4 0.250267 0.978497 0.631438
Si Si5 0.823527 0.850668 0.238368
Si Si6 0.278598 0.669566 0.867111
Si Si7 0.537114 0.238593 0.867211
O O1 0.123118 0.114689 0.128445
O O2 0.109112 0.237113 0.000000
O O3 0.238158 0.072539 0.000000
O O4 0.019311 0.352964 0.887254
O O5 0.032318 0.352551 0.331530
O O6 0.154252 0.429346 0.201604
O O7 0.000000 0.500000 0.222564
O O8 0.236961 0.983356 0.500000
O O9 0.202277 0.892584 0.685092
O O10 0.214854 0.066892 0.692948
O O11 0.743186 0.784981 0.193698
O O12 0.384205 0.688959 0.850020
O O13 0.260261 0.565831 0.838343
O O14 0.261211 0.680847 0.000000
O O15 0.537617 0.216855 0.000000
#
# Coordination Sequence:
#
# PCOD9543403 Si02
#       7
#     4   4   8   8   8   8   8
#     4  12  20  37  64  94 121 158 194 263 322 370
#     4  12  23  37  60  98 131 156 201 263 333 388
#     4  12  23  39  61  92 126 164 213 267 325 382
#     4  12  27  44  64  88 125 177 219 263 312 376
#     4  12  22  42  64  93 130 161 216 264 321 386
#     4  10  20  36  60  96 132 168 204 255 330 392
#     4  10  20  33  58  92 133 169 202 254 321 398
#
# _framework density 17.896305000000002
#
# number of rings (size 3 to 8) (size 9 to 14) (size 15 to 20)
#    0.000    0.667    6.667    1.750    0.000    1.167 
#    0.000    4.167    0.000    0.000    0.000    0.000 
#    0.000    1.333    0.000    0.000    0.000    0.000 
#
# Total GULP energy -267581.176627 kJ/mol
# GULP energy per Si atom -5574.607846 kJ/mol
# Density = 1.785557 g / cm^3
# Si number density = 17.896305 Si / 1000 Ang^3
#
#
#
# Elastic Constant Matrix: (Units=GPa)
#
#
# Indices 1 2 3 4 5 6 
#
# 1 105.8887 41.4264 40.2976 0.0000 0.0000 3.8580
# 2 41.4264 105.8887 40.2976 0.0000 0.0000 -3.8580
# 3 40.2976 40.2976 123.5933 0.0000 0.0000 0.0000
# 4 0.0000 0.0000 0.0000 9.3887 0.0000 0.0000
# 5 0.0000 0.0000 0.0000 0.0000 9.3887 0.0000
# 6 3.8580 -3.8580 0.0000 0.0000 0.0000 42.2185
#
#
#
# Elastic Compliance Matrix: (Units=1/GPa)
#
#
# Indices 1 2 3 4 5 6 
#
# 1 0.011973 -0.003711 -0.002694 0.000000 0.000000 -0.001433
# 2 -0.003711 0.011973 -0.002694 0.000000 0.000000 0.001433
# 3 -0.002694 -0.002694 0.009848 0.000000 0.000000 0.000000
# 4 0.000000 0.000000 0.000000 0.106511 0.000000 0.000000
# 5 0.000000 0.000000 0.000000 0.000000 0.106511 0.000000
# 6 -0.001433 0.001433 0.000000 0.000000 0.000000 0.023948
#
#
# Mechanical properties :
#
#
# Convention : Reuss Voigt Hill
#
# Bulk Modulus (GPa) = 64.11763 64.37932 64.24848
# Shear Modulus (GPa) = 16.99751 26.42246 21.70999
#
# Velocity S-wave (km/s) = 3.08519 3.84659 3.48674
# Velocity P-wave (km/s) = 6.97110 7.46860 7.22413
#
# Compressibility (1/GPa) = 0.01559633
#
# Stress axis : x y z
#
# Youngs Moduli (GPa) = 83.51974 83.51974 101.54675
#
# Poissons Ratio (x) = 0.30997 0.27355
# Poissons Ratio (y) = 0.30997 0.27355
# Poissons Ratio (z) = 0.22499 0.22499
#
# Static dielectric constant tensor:
#      x y z
#    x 1.691290 0.000000 0.000000 
#    y 0.000000 1.691290 0.000000 
#    z 0.000000 0.000000 1.593300 
# 
# From -- ./inp_files/1899.got.cif
#   From: 2010.05.17/outbox.cif.g08.bks.cpg/sg83_1_cif.got.tgz:1899.got - 2010.06.03 18:55:12.
