data_PCOD9543657
_publ_section_title
;
Structure prediction by ZEFSAII (Michael W. Deem and Ramdas Pophale) SiO2 
 PCOD9543657
Probable space group: P 4/M
;
_chemical_formula_sum "Si O2"
_cell_formula_units_Z 40
_cell_length_a 14.187164
_cell_length_b 14.187164
_cell_length_c 10.880694
_cell_angle_alpha 90.000000
_cell_angle_beta 90.000000
_cell_angle_gamma 90.000000
_cell_volume 2190.018457
_symmetry_space_group_name_H-M "P 4/M"
_symmetry_group_IT_number 83
_symmetry_cell_setting 'tetragonal'
loop_
_space_group_symop_operation_xyz
x,y,z
-y,x,z
-x,-y,z
y,-x,z
-x,-y,-z
y,-x,-z
x,y,-z
-y,x,-z
loop_
_atom_site_type_symbol
_atom_site_label
_atom_site_fract_x
_atom_site_fract_y
_atom_site_fract_z
Si Si1 0.601180 0.740149 0.260654
Si Si2 0.063440 0.146818 0.000000
Si Si3 0.240149 0.898820 0.260654
Si Si4 0.563439 0.646818 0.000000
Si Si5 0.260750 0.108886 0.356806
Si Si6 0.608886 0.239250 0.356806
O O1 0.588555 0.705258 0.121497
O O2 0.662824 0.834499 0.276239
O O3 0.661388 0.660105 0.330808
O O4 0.499408 0.754343 0.320001
O O5 0.088555 0.205258 0.878503
O O6 0.952564 0.119566 0.000000
O O7 0.160105 0.838611 0.330808
O O8 0.334499 0.837176 0.276239
O O9 0.254343 0.000592 0.320000
O O10 0.452564 0.619566 0.000000
O O11 0.285323 0.119817 0.500000
O O12 0.619817 0.214678 0.500000
#
# Coordination Sequence:
#
# PCOD9543657 Si02
#       6
#     8   4   8   4   8   8
#     4  11  23  40  64  92 127 168 207 262 312 368
#     4  11  22  41  65  94 128 163 218 261 311 374
#     4  11  23  40  64  92 127 168 207 262 312 368
#     4  11  22  41  65  94 128 163 218 261 311 374
#     4  11  23  41  63  95 128 166 214 259 316 377
#     4  11  23  41  63  95 128 166 214 259 316 377
#
# _framework density 18.264685
#
# number of rings (size 3 to 8) (size 9 to 14) (size 15 to 20)
#    0.000    1.000    4.000    4.800    0.000    6.400 
#    0.000    4.000    0.000    2.400    0.000    0.000 
#    0.000    0.000    0.000    0.000    0.000    0.000 
#
# Total GULP energy -223586.989723 kJ/mol
# GULP energy per Si atom -5589.674743 kJ/mol
# Density = 1.822311 g / cm^3
# Si number density = 18.264685 Si / 1000 Ang^3
#
#
#
# Elastic Constant Matrix: (Units=GPa)
#
#
# Indices 1 2 3 4 5 6 
#
# 1 143.2895 73.9398 48.9031 0.0000 0.0000 3.0051
# 2 73.9398 143.2895 48.9031 0.0000 0.0000 -3.0051
# 3 48.9031 48.9031 150.1899 0.0000 0.0000 0.0000
# 4 0.0000 0.0000 0.0000 19.8526 0.0000 0.0000
# 5 0.0000 0.0000 0.0000 0.0000 19.8526 0.0000
# 6 3.0051 -3.0051 0.0000 0.0000 0.0000 -2.9555
#
#
#
# Elastic Compliance Matrix: (Units=1/GPa)
#
#
# Indices 1 2 3 4 5 6 
#
# 1 0.009323 -0.003929 -0.001756 0.000000 0.000000 0.013474
# 2 -0.003929 0.009323 -0.001756 0.000000 0.000000 -0.013474
# 3 -0.001756 -0.001756 0.007802 0.000000 0.000000 0.000000
# 4 0.000000 0.000000 0.000000 0.050371 0.000000 0.000000
# 5 0.000000 0.000000 0.000000 0.000000 0.050371 0.000000
# 6 0.013474 -0.013474 0.000000 0.000000 0.000000 -0.310954
#
#
# Mechanical properties :
#
#
# Convention : Reuss Voigt Hill
#
# Bulk Modulus (GPa) = 86.46868 86.69568 86.58218
# Shear Modulus (GPa) = -30.29836 25.01814 -2.64011
#
# Velocity S-wave (km/s) = -4.07732 3.70504 -1.20358
# Velocity P-wave (km/s) = 5.02780 8.11618 6.75097
#
# Compressibility (1/GPa) = 0.01156488
#
# Stress axis : x y z
#
# Youngs Moduli (GPa) = 107.26071 107.26071 128.17158
#
# Poissons Ratio (x) = 0.42141 0.22512
# Poissons Ratio (y) = 0.42141 0.22512
# Poissons Ratio (z) = 0.18839 0.18839
#
# Static dielectric constant tensor:
#      x y z
#    x 1.608940 0.000000 0.000000 
#    y 0.000000 1.608940 0.000000 
#    z 0.000000 0.000000 1.608250 
# 
# From -- ./inp_files/736.got.cif
#   From: 2010.05.17/outbox.cif.g08.bks.cpg/sg83_1_cif.got.tgz:736.got - 2010.06.03 18:55:12.
