data_PCOD9543423
_publ_section_title
;
Structure prediction by ZEFSAII (Michael W. Deem and Ramdas Pophale) SiO2 
 PCOD9543423
Probable space group: P 4/M
;
_chemical_formula_sum "Si O2"
_cell_formula_units_Z 40
_cell_length_a 14.929367
_cell_length_b 14.929367
_cell_length_c 10.495487
_cell_angle_alpha 90.000000
_cell_angle_beta 90.000000
_cell_angle_gamma 90.000000
_cell_volume 2339.297105
_symmetry_space_group_name_H-M "P 4/M"
_symmetry_group_IT_number 83
_symmetry_cell_setting 'tetragonal'
loop_
_space_group_symop_operation_xyz
x,y,z
-y,x,z
-x,-y,z
y,-x,z
-x,-y,-z
y,-x,-z
x,y,-z
-y,x,-z
loop_
_atom_site_type_symbol
_atom_site_label
_atom_site_fract_x
_atom_site_fract_y
_atom_site_fract_z
Si Si1 0.793125 0.177113 0.500000
Si Si2 0.786528 0.681544 0.750426
Si Si3 0.279670 0.022779 0.000000
Si Si4 0.570542 0.368941 0.350884
Si Si5 0.207805 0.821660 0.000000
Si Si6 0.719871 0.977011 0.500000
Si Si7 0.393317 0.985551 0.750164
O O1 0.744398 0.213285 0.626103
O O2 0.894332 0.211901 0.500000
O O3 0.775760 0.070101 0.500000
O O4 0.704783 0.613882 0.737794
O O5 0.784946 0.742375 0.875175
O O6 0.879430 0.627086 0.750079
O O7 0.343410 0.023544 0.124554
O O8 0.211896 0.106023 0.000000
O O9 0.224420 0.929077 0.000000
O O10 0.616748 0.465071 0.331397
O O11 0.582831 0.343850 0.500000
O O12 0.655995 0.976274 0.624396
O O13 0.500000 0.000000 0.750150
#
# Coordination Sequence:
#
# PCOD9543423 Si02
#       7
#     4   8   4   8   4   4   8
#     4  10  20  35  54  77 108 138 180 228 273 325
#     4  10  20  36  54  81 110 142 181 229 272 323
#     4  10  21  39  58  80 110 146 182 227 271 325
#     4   9  18  34  55  80 108 141 182 224 269 324
#     4  10  22  37  58  81 112 144 184 224 275 327
#     4  10  21  35  54  80 108 140 180 227 273 325
#     4  10  21  37  55  80 113 143 181 225 273 329
#
# _framework density 17.099152
#
# number of rings (size 3 to 8) (size 9 to 14) (size 15 to 20)
#    0.000    2.200    1.000    2.400    0.000    3.600 
#    0.000    1.000    0.000    8.400    0.000    0.000 
#    0.000    0.000    0.000    0.000    0.000    0.000 
#
# Total GULP energy -223188.588657 kJ/mol
# GULP energy per Si atom -5579.714716 kJ/mol
# Density = 1.706023 g / cm^3
# Si number density = 17.099152 Si / 1000 Ang^3
#
#
#
# Elastic Constant Matrix: (Units=GPa)
#
#
# Indices 1 2 3 4 5 6 
#
# 1 81.9556 49.4282 49.3966 0.0000 0.0000 19.9730
# 2 49.4282 81.9556 49.3966 0.0000 0.0000 -19.9730
# 3 49.3966 49.3966 141.0037 0.0000 0.0000 0.0000
# 4 0.0000 0.0000 0.0000 10.0039 0.0000 0.0000
# 5 0.0000 0.0000 0.0000 0.0000 10.0039 0.0000
# 6 19.9730 -19.9730 0.0000 0.0000 0.0000 31.6405
#
#
#
# Elastic Compliance Matrix: (Units=1/GPa)
#
#
# Indices 1 2 3 4 5 6 
#
# 1 0.073552 -0.063219 -0.003620 0.000000 0.000000 -0.086336
# 2 -0.063219 0.073552 -0.003620 0.000000 0.000000 0.086336
# 3 -0.003620 -0.003620 0.009628 0.000000 0.000000 0.000000
# 4 0.000000 0.000000 0.000000 0.099961 0.000000 0.000000
# 5 0.000000 0.000000 0.000000 0.000000 0.099961 0.000000
# 6 -0.086336 0.086336 0.000000 0.000000 0.000000 0.140604
#
#
# Mechanical properties :
#
#
# Convention : Reuss Voigt Hill
#
# Bulk Modulus (GPa) = 63.23099 66.81752 65.02426
# Shear Modulus (GPa) = 7.77064 20.77589 14.27327
#
# Velocity S-wave (km/s) = 2.13409 3.48950 2.89231
# Velocity P-wave (km/s) = 6.56748 7.44291 7.01885
#
# Compressibility (1/GPa) = 0.01581503
#
# Stress axis : x y z
#
# Youngs Moduli (GPa) = 13.59584 13.59584 103.86026
#
# Poissons Ratio (x) = 0.85951 0.37597
# Poissons Ratio (y) = 0.85951 0.37597
# Poissons Ratio (z) = 0.04922 0.04922
#
# Static dielectric constant tensor:
#      x y z
#    x 1.555090 0.000000 0.000000 
#    y 0.000000 1.555090 0.000000 
#    z 0.000000 0.000000 1.576750 
# 
# From -- ./inp_files/785.got.cif
#   From: 2010.05.17/outbox.cif.g08.bks.cpg/sg83_1_cif.got.tgz:785.got - 2010.06.03 18:55:12.
