data_PCOD9543854
_publ_section_title
;
Structure prediction by ZEFSAII (Michael W. Deem and Ramdas Pophale) SiO2 
 PCOD9543854
Probable space group: P 4/M
;
_chemical_formula_sum "Si O2"
_cell_formula_units_Z 34
_cell_length_a 8.793565
_cell_length_b 8.793565
_cell_length_c 21.443055
_cell_angle_alpha 90.000000
_cell_angle_beta 90.000000
_cell_angle_gamma 90.000000
_cell_volume 1658.122513
_symmetry_space_group_name_H-M "P 4/M"
_symmetry_group_IT_number 83
_symmetry_cell_setting 'tetragonal'
loop_
_space_group_symop_operation_xyz
x,y,z
-y,x,z
-x,-y,z
y,-x,z
-x,-y,-z
y,-x,-z
x,y,-z
-y,x,-z
loop_
_atom_site_type_symbol
_atom_site_label
_atom_site_fract_x
_atom_site_fract_y
_atom_site_fract_z
Si Si1 0.612412 0.270843 0.873570
Si Si2 0.882415 0.772212 0.620371
Si Si3 0.000000 0.000000 0.000000
Si Si4 0.831999 0.574011 0.500000
Si Si5 0.660367 0.088906 0.000000
Si Si6 0.886859 0.769246 0.239931
Si Si7 0.500000 0.500000 0.500000
O O1 0.696314 0.433165 0.871477
O O2 0.662586 0.171403 0.814555
O O3 0.656962 0.188090 0.937209
O O4 0.830640 0.669087 0.564078
O O5 0.854383 0.710150 0.690148
O O6 0.062924 0.803620 0.615689
O O7 0.986347 0.188079 0.000000
O O8 0.684879 0.466458 0.500000
O O9 0.000000 0.500000 0.500000
O O10 0.500000 0.000000 0.000000
O O11 0.066252 0.804828 0.234341
#
# Coordination Sequence:
#
# PCOD9543854 Si02
#       7
#     8   8   1   4   4   8   1
#     4  11  25  45  65  97 138 182 223 282 358 420
#     4   9  18  39  67  97 131 181 234 286 350 422
#     4  12  28  44  76 112 132 188 244 270 364 424
#     4  12  24  43  66  97 142 186 232 292 364 420
#     4  12  28  47  72 107 138 177 237 296 348 422
#     4   9  21  40  66  97 133 172 231 289 337 418
#     4  12  28  44  60 112 140 172 236 302 340 416
#
# _framework density 20.505120999999999
#
# number of rings (size 3 to 8) (size 9 to 14) (size 15 to 20)
#    0.000    1.647    0.000    5.647    6.588    1.882 
#   12.706    0.000    0.000    0.000    0.000    0.000 
#    0.000    0.000    0.000    0.000    0.000    0.000 
#
# Total GULP energy -189611.986562 kJ/mol
# GULP energy per Si atom -5576.823134 kJ/mol
# Density = 2.045845 g / cm^3
# Si number density = 20.505121 Si / 1000 Ang^3
#
#
#
# Elastic Constant Matrix: (Units=GPa)
#
#
# Indices 1 2 3 4 5 6 
#
# 1 79.8411 50.7558 69.1163 0.0000 0.0000 -0.2922
# 2 50.7558 79.8411 69.1163 0.0000 0.0000 0.2922
# 3 69.1163 69.1163 203.9923 0.0000 0.0000 0.0000
# 4 0.0000 0.0000 0.0000 0.2158 0.0000 0.0000
# 5 0.0000 0.0000 0.0000 0.0000 0.2158 0.0000
# 6 -0.2922 0.2922 0.0000 0.0000 0.0000 28.0806
#
#
#
# Elastic Compliance Matrix: (Units=1/GPa)
#
#
# Indices 1 2 3 4 5 6 
#
# 1 0.023164 -0.011225 -0.004045 0.000000 0.000000 0.000358
# 2 -0.011225 0.023164 -0.004045 0.000000 0.000000 -0.000358
# 3 -0.004045 -0.004045 0.007643 0.000000 0.000000 0.000000
# 4 0.000000 0.000000 0.000000 4.633562 0.000000 0.000000
# 5 0.000000 0.000000 0.000000 0.000000 4.633562 0.000000
# 6 0.000358 -0.000358 0.000000 0.000000 0.000000 0.035619
#
#
# Mechanical properties :
#
#
# Convention : Reuss Voigt Hill
#
# Bulk Modulus (GPa) = 65.18723 82.40570 73.79646
# Shear Modulus (GPa) = 0.53189 17.34818 8.94003
#
# Velocity S-wave (km/s) = 0.50986 2.91183 2.09030
# Velocity P-wave (km/s) = 5.67506 7.18193 6.47250
#
# Compressibility (1/GPa) = 0.01534043
#
# Stress axis : x y z
#
# Youngs Moduli (GPa) = 43.17085 43.17085 130.83493
#
# Poissons Ratio (x) = 0.48460 0.52923
# Poissons Ratio (y) = 0.48460 0.52923
# Poissons Ratio (z) = 0.17463 0.17463
#
# Static dielectric constant tensor:
#      x y z
#    x 1.736170 0.000000 0.000000 
#    y 0.000000 1.736170 0.000000 
#    z 0.000000 0.000000 1.697810 
# 
# From -- ./inp_files/2899.got.cif
#   From: 2010.05.17/outbox.cif.g08.bks.cpg/sg83_2_cif.got.tgz:2899.got - 2010.06.03 18:55:12.
