data_PCOD9543620
_publ_section_title
;
Structure prediction by ZEFSAII (Michael W. Deem and Ramdas Pophale) SiO2 
 PCOD9543620
Probable space group: P 4/M
;
_chemical_formula_sum "Si O2"
_cell_formula_units_Z 48
_cell_length_a 9.776913
_cell_length_b 9.776913
_cell_length_c 29.594283
_cell_angle_alpha 90.000000
_cell_angle_beta 90.000000
_cell_angle_gamma 90.000000
_cell_volume 2828.859146
_symmetry_space_group_name_H-M "P 4/M"
_symmetry_group_IT_number 83
_symmetry_cell_setting 'tetragonal'
loop_
_space_group_symop_operation_xyz
x,y,z
-y,x,z
-x,-y,z
y,-x,z
-x,-y,-z
y,-x,-z
x,y,-z
-y,x,-z
loop_
_atom_site_type_symbol
_atom_site_label
_atom_site_fract_x
_atom_site_fract_y
_atom_site_fract_z
Si Si1 0.877189 0.194925 0.785012
Si Si2 0.629256 0.146348 0.552895
Si Si3 0.885247 0.198473 0.320345
Si Si4 0.625909 0.696145 0.148970
Si Si5 0.624568 0.695450 0.048400
Si Si6 0.158619 0.651869 0.590488
O O1 0.860496 0.232190 0.732047
O O2 0.796893 0.302561 0.815748
O O3 0.041112 0.182270 0.792645
O O4 0.597033 0.134842 0.500000
O O5 0.500110 0.207989 0.579467
O O6 0.758266 0.240631 0.561145
O O7 0.655550 0.997864 0.573952
O O8 0.832671 0.304171 0.357391
O O9 0.048244 0.179589 0.327516
O O10 0.460534 0.682160 0.153468
O O11 0.659372 0.749683 0.098030
O O12 0.460018 0.680470 0.048002
O O13 0.665437 0.760246 0.000000
#
# Coordination Sequence:
#
# PCOD9543620 Si02
#       6
#     8   8   8   8   8   8
#     4   9  19  35  54  73  99 133 175 217 257 311
#     4  11  23  38  57  82 110 140 172 208 251 303
#     4   9  17  35  58  79  97 126 173 220 258 293
#     4   9  17  30  48  77 109 135 169 216 263 309
#     4   7  10  19  39  66  97 132 169 210 256 301
#     4  11  21  38  57  80 109 137 172 212 252 302
#
# _framework density 16.967972
#
# number of rings (size 3 to 8) (size 9 to 14) (size 15 to 20)
#    0.000    2.667    1.667    4.500    0.000    1.333 
#    3.000    1.667    0.000    1.000    0.000    5.833 
#    0.000    0.000    0.000    0.000    0.000    0.000 
#
# Total GULP energy -267231.073045 kJ/mol
# GULP energy per Si atom -5567.314022 kJ/mol
# Density = 1.692935 g / cm^3
# Si number density = 16.967972 Si / 1000 Ang^3
#
#
#
# Elastic Constant Matrix: (Units=GPa)
#
#
# Indices 1 2 3 4 5 6 
#
# 1 -168.1650 225.8638 34.9567 0.0000 0.0000 -120.6853
# 2 225.8638 -168.1650 34.9567 0.0000 0.0000 120.6853
# 3 34.9567 34.9567 145.0123 0.0000 0.0000 0.0000
# 4 0.0000 0.0000 0.0000 18.9814 0.0000 0.0000
# 5 0.0000 0.0000 0.0000 0.0000 18.9814 0.0000
# 6 -120.6853 120.6853 0.0000 0.0000 0.0000 -44.0683
#
#
#
# Elastic Compliance Matrix: (Units=1/GPa)
#
#
# Indices 1 2 3 4 5 6 
#
# 1 0.014114 0.010369 -0.005902 0.000000 0.000000 -0.010257
# 2 0.010369 0.014114 -0.005902 0.000000 0.000000 0.010257
# 3 -0.005902 -0.005902 0.009741 0.000000 0.000000 0.000000
# 4 0.000000 0.000000 0.000000 0.052683 0.000000 0.000000
# 5 0.000000 0.000000 0.000000 0.000000 0.052683 0.000000
# 6 -0.010257 0.010257 0.000000 0.000000 0.000000 0.033490
#
#
# Mechanical properties :
#
#
# Convention : Reuss Voigt Hill
#
# Bulk Modulus (GPa) = 28.49057 44.47072 36.48065
# Shear Modulus (GPa) = 26.12395 -33.69410 -3.78508
#
# Velocity S-wave (km/s) = 3.92804 -4.46101 -1.49518
# Velocity P-wave (km/s) = 6.11554 0.51825 4.30879
#
# Compressibility (1/GPa) = 0.03509933
#
# Stress axis : x y z
#
# Youngs Moduli (GPa) = 70.85161 70.85161 102.65547
#
# Poissons Ratio (x) = -0.73463 0.60585
# Poissons Ratio (y) = -0.73463 0.60585
# Poissons Ratio (z) = 0.41815 0.41815
#
# Static dielectric constant tensor:
#      x y z
#    x 1.569450 0.000000 0.000000 
#    y 0.000000 1.569450 0.000000 
#    z 0.000000 0.000000 1.601740 
# 
# From -- ./inp_files/3420.got.cif
#   From: 2010.05.17/outbox.cif.g08.bks.cpg/sg83_2_cif.got.tgz:3420.got - 2010.06.03 18:55:12.
