data_PCOD9543093
_publ_section_title
;
Structure prediction by ZEFSAII (Michael W. Deem and Ramdas Pophale) SiO2 
 PCOD9543093
Probable space group: I -4 
;
_chemical_formula_sum "Si O2"
_cell_formula_units_Z 36
_cell_length_a 15.066916
_cell_length_b 15.066916
_cell_length_c 8.078914
_cell_angle_alpha 90.000000
_cell_angle_beta 90.000000
_cell_angle_gamma 90.000000
_cell_volume 1834.010084
_symmetry_space_group_name_H-M "I -4 "
_symmetry_group_IT_number 82
_symmetry_cell_setting 'tetragonal'
loop_
_space_group_symop_operation_xyz
x,y,z
y,-x,-z
-x,-y,z
-y,x,-z
1/2+x,1/2+y,1/2+z
1/2+y,1/2-x,1/2-z
1/2-x,1/2-y,1/2+z
1/2-y,1/2+x,1/2-z
loop_
_atom_site_type_symbol
_atom_site_label
_atom_site_fract_x
_atom_site_fract_y
_atom_site_fract_z
Si Si1 0.618207 0.765423 0.189084
Si Si2 0.774209 0.211202 0.636105
Si Si3 0.000000 0.000000 0.000000
Si Si4 0.653552 0.908997 0.940135
Si Si5 0.500000 0.000000 0.750000
Si Si6 0.815660 0.948798 0.154892
O O1 0.682315 0.767571 0.348077
O O2 0.523562 0.725048 0.225842
O O3 0.672957 0.711339 0.048047
O O4 0.612922 0.862933 0.106205
O O5 0.677023 0.171150 0.675720
O O6 0.852777 0.185031 0.758673
O O7 0.023926 0.913809 0.894007
O O8 0.585659 0.976152 0.859758
O O9 0.748922 0.945098 0.997891
#
# Coordination Sequence:
#
# PCOD9543093 Si02
#       6
#     8   8   2   8   2   8
#     4   9  21  40  66  92 125 175 206 264 322 381
#     4   9  21  43  62  93 128 175 201 268 322 373
#     4  12  28  36  66 104 128 180 206 280 308 400
#     4   9  24  40  63  97 124 177 203 278 311 382
#     4  12  24  40  70  96 132 172 222 260 320 408
#     4  11  23  42  64  98 132 165 222 262 326 379
#
# _framework density 19.629117000000001
#
# number of rings (size 3 to 8) (size 9 to 14) (size 15 to 20)
#    1.333    0.889    0.000    1.333    3.111    7.111 
#    0.000    0.000    0.000    0.000    0.000    0.000 
#    0.000    0.000    0.000    0.000    0.000    0.000 
#
# Total GULP energy -100247.385435 kJ/mol
# GULP energy per Si atom -5569.299191 kJ/mol
# Density = 1.958444 g / cm^3
# Si number density = 19.629117 Si / 1000 Ang^3
#
#
#
# Elastic Constant Matrix: (Units=GPa)
#
#
# Indices 1 2 3 4 5 6 
#
# 1 90.7648 34.8797 32.0542 0.0000 0.0000 11.0553
# 2 34.8797 90.7648 32.0542 0.0000 0.0000 -11.0553
# 3 32.0542 32.0542 49.1569 0.0000 0.0000 0.0000
# 4 0.0000 0.0000 0.0000 24.9413 0.0000 0.0000
# 5 0.0000 0.0000 0.0000 0.0000 24.9413 0.0000
# 6 11.0553 -11.0553 0.0000 0.0000 0.0000 29.5447
#
#
#
# Elastic Compliance Matrix: (Units=1/GPa)
#
#
# Indices 1 2 3 4 5 6 
#
# 1 0.016465 -0.004538 -0.007778 0.000000 0.000000 -0.007859
# 2 -0.004538 0.016465 -0.007778 0.000000 0.000000 0.007859
# 3 -0.007778 -0.007778 0.030486 0.000000 0.000000 0.000000
# 4 0.000000 0.000000 0.000000 0.040094 0.000000 0.000000
# 5 0.000000 0.000000 0.000000 0.000000 0.040094 0.000000
# 6 -0.007859 0.007859 0.000000 0.000000 0.000000 0.039729
#
#
# Mechanical properties :
#
#
# Convention : Reuss Voigt Hill
#
# Bulk Modulus (GPa) = 43.04665 47.62918 45.33791
# Shear Modulus (GPa) = 21.62033 24.66537 23.14285
#
# Velocity S-wave (km/s) = 3.32240 3.54866 3.43739
# Velocity P-wave (km/s) = 6.05767 6.41154 6.23712
#
# Compressibility (1/GPa) = 0.02323061
#
# Stress axis : x y z
#
# Youngs Moduli (GPa) = 60.73354 60.73354 32.80164
#
# Poissons Ratio (x) = 0.27561 0.25512
# Poissons Ratio (y) = 0.27561 0.25512
# Poissons Ratio (z) = 0.47236 0.47236
#
# Static dielectric constant tensor:
#      x y z
#    x 1.683600 0.000000 0.000000 
#    y 0.000000 1.683600 0.000000 
#    z 0.000000 0.000000 1.703270 
# 
# From -- ./inp_files/875.got.cif
#   From: 2010.05.17/outbox.cif.g08.bks.cpg/sg82_1_cif.got.tgz:875.got - 2010.06.03 18:52:26.
