data_PCOD9543221
_publ_section_title
;
Structure prediction by ZEFSAII (Michael W. Deem and Ramdas Pophale) SiO2 
 PCOD9543221
Probable space group: P 4/M
;
_chemical_formula_sum "Si O2"
_cell_formula_units_Z 37
_cell_length_a 12.742051
_cell_length_b 12.742051
_cell_length_c 13.988327
_cell_angle_alpha 90.000000
_cell_angle_beta 90.000000
_cell_angle_gamma 90.000000
_cell_volume 2271.142865
_symmetry_space_group_name_H-M "P 4/M"
_symmetry_group_IT_number 83
_symmetry_cell_setting 'tetragonal'
loop_
_space_group_symop_operation_xyz
x,y,z
-y,x,z
-x,-y,z
y,-x,z
-x,-y,-z
y,-x,-z
x,y,-z
-y,x,-z
loop_
_atom_site_type_symbol
_atom_site_label
_atom_site_fract_x
_atom_site_fract_y
_atom_site_fract_z
Si Si1 0.608192 0.227765 0.798543
Si Si2 0.376087 0.218662 0.291515
Si Si3 0.336265 0.428451 0.000000
Si Si4 0.500000 0.500000 0.500000
Si Si5 0.392750 0.930973 0.500000
Si Si6 0.627101 0.012585 0.708942
Si Si7 0.455208 0.251378 0.500000
O O1 0.491720 0.235480 0.753423
O O2 0.687957 0.302533 0.742276
O O3 0.599642 0.269640 0.906169
O O4 0.645584 0.108224 0.781215
O O5 0.393253 0.219198 0.405044
O O6 0.334481 0.103120 0.263471
O O7 0.447692 0.366778 0.000000
O O8 0.476244 0.373647 0.500000
O O9 0.338636 0.955831 0.601140
O O10 0.435227 0.812368 0.500000
O O11 0.500000 0.000000 0.500000
O O12 0.500000 0.000000 0.704630
#
# Coordination Sequence:
#
# PCOD9543221 Si02
#       7
#     8   8   4   1   4   8   4
#     4  11  21  35  55  76 106 138 186 227 267 323
#     4  11  21  34  54  79 111 148 176 221 270 330
#     4  11  22  38  53  75 111 152 179 210 289 357
#     4  12  28  28  36  84 128 146 184 220 256 300
#     4  10  14  32  52  65 103 151 178 201 250 326
#     4   9  18  33  52  77 103 144 185 217 260 321
#     4  12  20  34  46  75 120 150 173 205 264 328
#
# _framework density 16.291356
#
# number of rings (size 3 to 8) (size 9 to 14) (size 15 to 20)
#    0.000    1.405    8.649    1.297    0.000    0.432 
#    0.000    5.946    0.000    0.649    0.000    0.000 
#    0.000    5.189    0.000    0.000    0.000    0.000 
#
# Total GULP energy -206026.604566 kJ/mol
# GULP energy per Si atom -5568.286610 kJ/mol
# Density = 1.625428 g / cm^3
# Si number density = 16.291356 Si / 1000 Ang^3
#
#
#
# Elastic Constant Matrix: (Units=GPa)
#
#
# Indices 1 2 3 4 5 6 
#
# 1 92.5112 33.0647 32.9819 0.0000 0.0000 -4.4221
# 2 33.0647 92.5112 32.9819 0.0000 0.0000 4.4221
# 3 32.9819 32.9819 114.8303 0.0000 0.0000 0.0000
# 4 0.0000 0.0000 0.0000 -3.0584 0.0000 0.0000
# 5 0.0000 0.0000 0.0000 0.0000 -3.0584 0.0000
# 6 -4.4221 4.4221 0.0000 0.0000 0.0000 5.1357
#
#
#
# Elastic Compliance Matrix: (Units=1/GPa)
#
#
# Indices 1 2 3 4 5 6 
#
# 1 0.014336 -0.004958 -0.002694 0.000000 0.000000 0.016613
# 2 -0.004958 0.014336 -0.002694 0.000000 0.000000 -0.016613
# 3 -0.002694 -0.002694 0.010256 0.000000 0.000000 0.000000
# 4 0.000000 0.000000 0.000000 -0.326966 0.000000 0.000000
# 5 0.000000 0.000000 0.000000 0.000000 -0.326966 0.000000
# 6 0.016613 -0.016613 0.000000 0.000000 0.000000 0.223326
#
#
# Mechanical properties :
#
#
# Convention : Reuss Voigt Hill
#
# Bulk Modulus (GPa) = 54.83126 55.32331 55.07729
# Shear Modulus (GPa) = -13.70202 13.19204 -0.25499
#
# Velocity S-wave (km/s) = -2.90325 2.84871 -0.39605
# Velocity P-wave (km/s) = 4.74249 6.69721 5.80275
#
# Compressibility (1/GPa) = 0.01823777
#
# Stress axis : x y z
#
# Youngs Moduli (GPa) = 69.75513 69.75513 97.50523
#
# Poissons Ratio (x) = 0.34582 0.26265
# Poissons Ratio (y) = 0.34582 0.26265
# Poissons Ratio (z) = 0.18790 0.18790
#
# Static dielectric constant tensor:
#      x y z
#    x 1.560230 0.000000 0.000000 
#    y 0.000000 1.560230 0.000000 
#    z 0.000000 0.000000 1.560430 
# 
# From -- ./inp_files/2313.got.cif
#   From: 2010.05.17/outbox.cif.g08.bks.cpg/sg83_2_cif.got.tgz:2313.got - 2010.06.03 18:55:12.
