data_PCOD9543527
_publ_section_title
;
Structure prediction by ZEFSAII (Michael W. Deem and Ramdas Pophale) SiO2 
 PCOD9543527
Probable space group: P 4/M
;
_chemical_formula_sum "Si O2"
_cell_formula_units_Z 20
_cell_length_a 7.221587
_cell_length_b 7.221587
_cell_length_c 14.851550
_cell_angle_alpha 90.000000
_cell_angle_beta 90.000000
_cell_angle_gamma 90.000000
_cell_volume 774.527919
_symmetry_space_group_name_H-M "P 4/M"
_symmetry_group_IT_number 83
_symmetry_cell_setting 'tetragonal'
loop_
_space_group_symop_operation_xyz
x,y,z
-y,x,z
-x,-y,z
y,-x,z
-x,-y,-z
y,-x,-z
x,y,-z
-y,x,-z
loop_
_atom_site_type_symbol
_atom_site_label
_atom_site_fract_x
_atom_site_fract_y
_atom_site_fract_z
Si Si1 0.500000 0.000000 0.655601
Si Si2 0.372140 0.783419 0.500000
Si Si3 0.280115 0.139873 0.805673
Si Si4 0.146805 0.721768 0.000000
O O1 0.350162 0.904958 0.589674
O O2 0.590200 0.843218 0.719568
O O3 0.267398 0.591201 0.500000
O O4 0.080698 0.235157 0.802735
O O5 0.366933 0.188423 0.903215
O O6 0.925998 0.762027 0.000000
#
# Coordination Sequence:
#
# PCOD9543527 Si02
#       4
#     4   4   8   4
#     4  11  20  31  52  74  88 115 160 199 228 266
#     4  10  22  38  50  64  92 124 152 190 242 288
#     4   9  17  30  48  71  98 124 151 185 224 268
#     4   7  12  25  44  66  96 128 148 172 220 272
#
# _framework density 25.822182999999999
#
# number of rings (size 3 to 8) (size 9 to 14) (size 15 to 20)
#    0.000    2.800    0.000    4.800    0.000    0.800 
#    0.000    0.000    0.000    9.600    0.000    0.000 
#    0.000   25.600    0.000    0.000    0.000    0.000 
#
# Total GULP energy -111738.084725 kJ/mol
# GULP energy per Si atom -5586.904236 kJ/mol
# Density = 2.576341 g / cm^3
# Si number density = 25.822183 Si / 1000 Ang^3
#
#
#
# Elastic Constant Matrix: (Units=GPa)
#
#
# Indices 1 2 3 4 5 6 
#
# 1 60.8611 -8.9476 7.6239 0.0000 0.0000 -12.8548
# 2 -8.9476 60.8611 7.6239 0.0000 0.0000 12.8548
# 3 7.6239 7.6239 200.9081 0.0000 0.0000 0.0000
# 4 0.0000 0.0000 0.0000 18.6141 0.0000 0.0000
# 5 0.0000 0.0000 0.0000 0.0000 18.6141 0.0000
# 6 -12.8548 12.8548 0.0000 0.0000 0.0000 24.6770
#
#
#
# Elastic Compliance Matrix: (Units=1/GPa)
#
#
# Indices 1 2 3 4 5 6 
#
# 1 0.018603 0.000877 -0.000739 0.000000 0.000000 0.009234
# 2 0.000877 0.018603 -0.000739 0.000000 0.000000 -0.009234
# 3 -0.000739 -0.000739 0.005034 0.000000 0.000000 0.000000
# 4 0.000000 0.000000 0.000000 0.053723 0.000000 0.000000
# 5 0.000000 0.000000 0.000000 0.000000 0.053723 0.000000
# 6 0.009234 -0.009234 0.000000 0.000000 0.000000 0.050144
#
#
# Mechanical properties :
#
#
# Convention : Reuss Voigt Hill
#
# Bulk Modulus (GPa) = 24.36852 37.24785 30.80818
# Shear Modulus (GPa) = 23.28731 33.46971 28.37851
#
# Velocity S-wave (km/s) = 3.00631 3.60413 3.31871
# Velocity P-wave (km/s) = 4.63768 5.63700 5.16158
#
# Compressibility (1/GPa) = 0.04103656
#
# Stress axis : x y z
#
# Youngs Moduli (GPa) = 53.75561 53.75561 198.66882
#
# Poissons Ratio (x) = -0.04716 0.14686
# Poissons Ratio (y) = -0.04716 0.14686
# Poissons Ratio (z) = 0.03974 0.03974
#
# Static dielectric constant tensor:
#      x y z
#    x 2.019530 0.000000 0.000000 
#    y 0.000000 2.019530 0.000000 
#    z 0.000000 0.000000 2.135310 
# 
# From -- ./inp_files/1411.got.cif
#   From: 2010.05.17/outbox.cif.g08.bks.cpg/sg83_1_cif.got.tgz:1411.got - 2010.06.03 18:55:12.
