data_PCOD9543117
_publ_section_title
;
Structure prediction by ZEFSAII (Michael W. Deem and Ramdas Pophale) SiO2 
 PCOD9543117
Probable space group: I -4 
;
_chemical_formula_sum "Si O2"
_cell_formula_units_Z 40
_cell_length_a 8.088725
_cell_length_b 8.088725
_cell_length_c 25.125794
_cell_angle_alpha 90.000000
_cell_angle_beta 90.000000
_cell_angle_gamma 90.000000
_cell_volume 1643.917187
_symmetry_space_group_name_H-M "I -4 "
_symmetry_group_IT_number 82
_symmetry_cell_setting 'tetragonal'
loop_
_space_group_symop_operation_xyz
x,y,z
y,-x,-z
-x,-y,z
-y,x,-z
1/2+x,1/2+y,1/2+z
1/2+y,1/2-x,1/2-z
1/2-x,1/2-y,1/2+z
1/2-y,1/2+x,1/2-z
loop_
_atom_site_type_symbol
_atom_site_label
_atom_site_fract_x
_atom_site_fract_y
_atom_site_fract_z
Si Si1 0.684129 0.920805 0.058759
Si Si2 0.254843 0.880090 0.330607
Si Si3 0.000000 0.000000 0.000000
Si Si4 0.322628 0.911780 0.552162
Si Si5 0.500000 0.000000 0.250000
Si Si6 0.500000 0.500000 0.000000
Si Si7 0.118734 0.249238 0.330174
Si Si8 0.500000 0.000000 0.750000
O O1 0.691780 0.827285 0.114387
O O2 0.500000 0.000000 0.061574
O O3 0.680249 0.818791 0.004110
O O4 0.847999 0.021043 0.042234
O O5 0.397315 0.869502 0.286068
O O6 0.076013 0.797378 0.325023
O O7 0.218920 0.077961 0.328229
O O8 0.313389 0.839453 0.610864
O O9 0.151444 0.007280 0.542043
O O10 0.500000 0.000000 0.551483
O O11 0.128024 0.395754 0.286957
#
# Coordination Sequence:
#
# PCOD9543117 Si02
#       8
#     8   8   2   8   2   2   8   2
#     4  11  27  49  73 115 154 197 253 320 387 480
#     4  11  25  46  73 102 141 199 255 313 393 465
#     4  12  32  48  76 120 166 200 260 316 404 482
#     4  11  24  42  71 106 144 189 246 299 374 462
#     4  12  24  48  70 100 140 192 256 330 376 464
#     4  12  24  44  72 104 146 200 232 304 384 442
#     4  11  24  44  71 105 144 195 254 315 389 465
#     4  12  24  44  66 112 152 192 260 342 384 456
#
# _framework density 24.332128000000001
#
# number of rings (size 3 to 8) (size 9 to 14) (size 15 to 20)
#    0.000    0.800    2.000    4.800   14.000    0.000 
#    0.000    2.000    0.000    0.000    0.000    0.000 
#    0.000    0.000    0.000    0.000    0.000    0.000 
#
# Total GULP energy -111388.459029 kJ/mol
# GULP energy per Si atom -5569.422951 kJ/mol
# Density = 2.427675 g / cm^3
# Si number density = 24.332128 Si / 1000 Ang^3
#
#
#
# Elastic Constant Matrix: (Units=GPa)
#
#
# Indices 1 2 3 4 5 6 
#
# 1 81.2953 21.8423 30.0658 0.0000 0.0000 9.5512
# 2 21.8423 81.2953 30.0658 0.0000 0.0000 -9.5512
# 3 30.0658 30.0658 186.6669 0.0000 0.0000 0.0000
# 4 0.0000 0.0000 0.0000 25.6614 0.0000 0.0000
# 5 0.0000 0.0000 0.0000 0.0000 25.6614 0.0000
# 6 9.5512 -9.5512 0.0000 0.0000 0.0000 9.6716
#
#
#
# Elastic Compliance Matrix: (Units=1/GPa)
#
#
# Indices 1 2 3 4 5 6 
#
# 1 0.017669 -0.006968 -0.001724 0.000000 0.000000 -0.024331
# 2 -0.006968 0.017669 -0.001724 0.000000 0.000000 0.024331
# 3 -0.001724 -0.001724 0.005912 0.000000 0.000000 0.000000
# 4 0.000000 0.000000 0.000000 0.038969 0.000000 0.000000
# 5 0.000000 0.000000 0.000000 0.000000 0.038969 0.000000
# 6 -0.024331 0.024331 0.000000 0.000000 0.000000 0.151452
#
#
# Mechanical properties :
#
#
# Convention : Reuss Voigt Hill
#
# Bulk Modulus (GPa) = 48.97268 57.02282 52.99775
# Shear Modulus (GPa) = 16.76286 30.01776 23.39031
#
# Velocity S-wave (km/s) = 2.62757 3.51617 3.10384
# Velocity P-wave (km/s) = 5.41996 6.32224 5.88841
#
# Compressibility (1/GPa) = 0.02041955
#
# Stress axis : x y z
#
# Youngs Moduli (GPa) = 56.59588 56.59588 169.13785
#
# Poissons Ratio (x) = 0.39439 0.29151
# Poissons Ratio (y) = 0.39439 0.29151
# Poissons Ratio (z) = 0.09754 0.09754
#
# Static dielectric constant tensor:
#      x y z
#    x 2.074810 0.000000 0.000000 
#    y 0.000000 2.074810 0.000000 
#    z 0.000000 0.000000 1.907660 
# 
# From -- ./inp_files/3454.got.cif
#   From: 2010.05.17/outbox.cif.g08.bks.cpg/sg82_2_cif.got.tgz:3454.got - 2010.06.03 18:52:26.
