data_PCOD9543525
_publ_section_title
;
Structure prediction by ZEFSAII (Michael W. Deem and Ramdas Pophale) SiO2 
 PCOD9543525
Probable space group: P 4/M
;
_chemical_formula_sum "Si O2"
_cell_formula_units_Z 48
_cell_length_a 11.641704
_cell_length_b 11.641704
_cell_length_c 18.085263
_cell_angle_alpha 90.000000
_cell_angle_beta 90.000000
_cell_angle_gamma 90.000000
_cell_volume 2451.082529
_symmetry_space_group_name_H-M "P 4/M"
_symmetry_group_IT_number 83
_symmetry_cell_setting 'tetragonal'
loop_
_space_group_symop_operation_xyz
x,y,z
-y,x,z
-x,-y,z
y,-x,z
-x,-y,-z
y,-x,-z
x,y,-z
-y,x,-z
loop_
_atom_site_type_symbol
_atom_site_label
_atom_site_fract_x
_atom_site_fract_y
_atom_site_fract_z
Si Si1 0.400483 0.093118 0.083385
Si Si2 0.494186 0.306042 0.153530
Si Si3 0.816111 0.950337 0.809790
Si Si4 0.500861 0.860519 0.293144
Si Si5 0.892679 0.262752 0.354814
Si Si6 0.315889 0.870277 0.417329
O O1 0.462623 0.216523 0.089181
O O2 0.297052 0.079827 0.142623
O O3 0.500000 0.000000 0.097467
O O4 0.355591 0.075701 0.000000
O O5 0.606310 0.386412 0.154012
O O6 0.510270 0.218310 0.221858
O O7 0.789689 0.941739 0.721911
O O8 0.921150 0.862659 0.825593
O O9 0.622575 0.829754 0.328596
O O10 0.403453 0.835511 0.353079
O O11 0.500000 0.000000 0.278541
O O12 0.807225 0.180293 0.396708
O O13 0.993624 0.302733 0.408304
O O14 0.351813 0.838813 0.500000
#
# Coordination Sequence:
#
# PCOD9543525 Si02
#       6
#     8   8   8   8   8   8
#     4  11  27  45  69 100 134 174 215 267 336 399
#     4  11  24  41  66  97 127 166 218 270 323 390
#     4  11  24  43  71 102 136 173 222 276 332 397
#     4  10  22  37  63  90 120 165 216 266 322 389
#     4  11  21  38  63  89 124 169 214 261 323 394
#     4  11  24  38  58  91 129 167 213 271 331 389
#
# _framework density 19.583182999999998
#
# number of rings (size 3 to 8) (size 9 to 14) (size 15 to 20)
#    0.000    1.167    3.333    2.000    4.667    5.333 
#    0.000    2.500    0.000    0.000    0.000    3.500 
#    0.000    0.000    0.000    0.000    0.000    0.000 
#
# Total GULP energy -267962.149047 kJ/mol
# GULP energy per Si atom -5582.544772 kJ/mol
# Density = 1.953861 g / cm^3
# Si number density = 19.583183 Si / 1000 Ang^3
#
#
#
# Elastic Constant Matrix: (Units=GPa)
#
#
# Indices 1 2 3 4 5 6 
#
# 1 68.4004 27.1459 22.9399 0.0000 0.0000 -0.0830
# 2 27.1459 68.4004 22.9399 0.0000 0.0000 0.0830
# 3 22.9399 22.9399 73.9271 0.0000 0.0000 0.0000
# 4 0.0000 0.0000 0.0000 7.2584 0.0000 0.0000
# 5 0.0000 0.0000 0.0000 0.0000 7.2584 0.0000
# 6 -0.0830 0.0830 0.0000 0.0000 0.0000 22.6707
#
#
#
# Elastic Compliance Matrix: (Units=1/GPa)
#
#
# Indices 1 2 3 4 5 6 
#
# 1 0.018269 -0.005971 -0.003816 0.000000 0.000000 0.000089
# 2 -0.005971 0.018269 -0.003816 0.000000 0.000000 -0.000089
# 3 -0.003816 -0.003816 0.015895 0.000000 0.000000 0.000000
# 4 0.000000 0.000000 0.000000 0.137772 0.000000 0.000000
# 5 0.000000 0.000000 0.000000 0.000000 0.137772 0.000000
# 6 0.000089 -0.000089 0.000000 0.000000 0.000000 0.044110
#
#
# Mechanical properties :
#
#
# Convention : Reuss Voigt Hill
#
# Bulk Modulus (GPa) = 39.63956 39.64212 39.64084
# Shear Modulus (GPa) = 12.26377 16.61763 14.44070
#
# Velocity S-wave (km/s) = 2.50519 2.91618 2.71846
# Velocity P-wave (km/s) = 5.35290 5.62367 5.48996
#
# Compressibility (1/GPa) = 0.02522732
#
# Stress axis : x y z
#
# Youngs Moduli (GPa) = 54.73634 54.73634 62.91176
#
# Poissons Ratio (x) = 0.32682 0.24009
# Poissons Ratio (y) = 0.32682 0.24009
# Poissons Ratio (z) = 0.20889 0.20889
#
# Static dielectric constant tensor:
#      x y z
#    x 1.686600 0.000000 0.000000 
#    y 0.000000 1.686600 0.000000 
#    z 0.000000 0.000000 1.700930 
# 
# From -- ./inp_files/2626.got.cif
#   From: 2010.05.17/outbox.cif.g08.bks.cpg/sg83_2_cif.got.tgz:2626.got - 2010.06.03 18:55:12.
