data_PCOD9543823
_publ_section_title
;
Structure prediction by ZEFSAII (Michael W. Deem and Ramdas Pophale) SiO2 
 PCOD9543823
Probable space group: P 4/M
;
_chemical_formula_sum "Si O2"
_cell_formula_units_Z 22
_cell_length_a 7.973695
_cell_length_b 7.973695
_cell_length_c 15.565542
_cell_angle_alpha 90.000000
_cell_angle_beta 90.000000
_cell_angle_gamma 90.000000
_cell_volume 989.654233
_symmetry_space_group_name_H-M "P 4/M"
_symmetry_group_IT_number 83
_symmetry_cell_setting 'tetragonal'
loop_
_space_group_symop_operation_xyz
x,y,z
-y,x,z
-x,-y,z
y,-x,z
-x,-y,-z
y,-x,-z
x,y,-z
-y,x,-z
loop_
_atom_site_type_symbol
_atom_site_label
_atom_site_fract_x
_atom_site_fract_y
_atom_site_fract_z
Si Si1 0.581194 0.770242 0.346461
Si Si2 0.000000 0.500000 0.500000
Si Si3 0.403593 0.234297 0.000000
Si Si4 0.266366 0.094097 0.174758
O O1 0.392014 0.700515 0.353998
O O2 0.620822 0.852964 0.255204
O O3 0.603142 0.897584 0.424271
O O4 0.595478 0.293251 0.000000
O O5 0.356735 0.133983 0.914557
O O6 0.097294 0.206091 0.178778
#
# Coordination Sequence:
#
# PCOD9543823 Si02
#       4
#     8   2   4   8
#     4  11  24  43  68  98 132 174 224 276 337 410
#     4  12  24  42  68  96 128 164 212 276 340 398
#     4  11  24  41  64  98 140 189 242 288 336 400
#     4  11  24  42  66 100 141 184 232 288 346 401
#
# _framework density 22.229987000000001
#
# number of rings (size 3 to 8) (size 9 to 14) (size 15 to 20)
#    0.000    0.909    0.000    6.545    0.000   11.636 
#    0.000    0.000    0.000    6.545    0.000    0.000 
#    0.000    0.000    0.000    0.000    0.000    0.000 
#
# Total GULP energy -122816.985057 kJ/mol
# GULP energy per Si atom -5582.590230 kJ/mol
# Density = 2.217939 g / cm^3
# Si number density = 22.229987 Si / 1000 Ang^3
#
#
#
# Elastic Constant Matrix: (Units=GPa)
#
#
# Indices 1 2 3 4 5 6 
#
# 1 106.2586 42.3234 57.8757 0.0000 0.0000 6.3960
# 2 42.3234 106.2586 57.8757 0.0000 0.0000 -6.3960
# 3 57.8757 57.8757 246.8097 0.0000 0.0000 0.0000
# 4 0.0000 0.0000 0.0000 35.2441 0.0000 0.0000
# 5 0.0000 0.0000 0.0000 0.0000 35.2441 0.0000
# 6 6.3960 -6.3960 0.0000 0.0000 0.0000 40.6031
#
#
#
# Elastic Compliance Matrix: (Units=1/GPa)
#
#
# Indices 1 2 3 4 5 6 
#
# 1 0.012192 -0.003958 -0.001931 0.000000 0.000000 -0.002544
# 2 -0.003958 0.012192 -0.001931 0.000000 0.000000 0.002544
# 3 -0.001931 -0.001931 0.004957 0.000000 0.000000 0.000000
# 4 0.000000 0.000000 0.000000 0.028374 0.000000 0.000000
# 5 0.000000 0.000000 0.000000 0.000000 0.028374 0.000000
# 6 -0.002544 0.002544 0.000000 0.000000 0.000000 0.025430
#
#
# Mechanical properties :
#
#
# Convention : Reuss Voigt Hill
#
# Bulk Modulus (GPa) = 72.97878 86.16404 79.57141
# Shear Modulus (GPa) = 37.95768 42.30173 40.12970
#
# Velocity S-wave (km/s) = 4.13667 4.36697 4.25338
# Velocity P-wave (km/s) = 7.46434 8.01696 7.74558
#
# Compressibility (1/GPa) = 0.01370261
#
# Stress axis : x y z
#
# Youngs Moduli (GPa) = 82.01953 82.01953 201.72215
#
# Poissons Ratio (x) = 0.32460 0.38952
# Poissons Ratio (y) = 0.32460 0.38952
# Poissons Ratio (z) = 0.15838 0.15838
#
# Static dielectric constant tensor:
#      x y z
#    x 1.837420 0.000000 0.000000 
#    y 0.000000 1.837420 0.000000 
#    z 0.000000 0.000000 1.728790 
# 
# From -- ./inp_files/2113.got.cif
#   From: 2010.05.17/outbox.cif.g08.bks.cpg/sg83_2_cif.got.tgz:2113.got - 2010.06.03 18:55:12.
