data_PCOD9543230
_publ_section_title
;
Structure prediction by ZEFSAII (Michael W. Deem and Ramdas Pophale) SiO2 
 PCOD9543230
Probable space group: P 4/M
;
_chemical_formula_sum "Si O2"
_cell_formula_units_Z 46
_cell_length_a 12.243955
_cell_length_b 12.243955
_cell_length_c 16.106127
_cell_angle_alpha 90.000000
_cell_angle_beta 90.000000
_cell_angle_gamma 90.000000
_cell_volume 2414.540914
_symmetry_space_group_name_H-M "P 4/M"
_symmetry_group_IT_number 83
_symmetry_cell_setting 'tetragonal'
loop_
_space_group_symop_operation_xyz
x,y,z
-y,x,z
-x,-y,z
y,-x,z
-x,-y,-z
y,-x,-z
x,y,-z
-y,x,-z
loop_
_atom_site_type_symbol
_atom_site_label
_atom_site_fract_x
_atom_site_fract_y
_atom_site_fract_z
Si Si1 0.763309 0.995004 0.318715
Si Si2 0.200245 0.368712 0.258223
Si Si3 0.000000 0.000000 0.386902
Si Si4 0.333149 0.577468 0.500000
Si Si5 0.606272 0.067827 0.906262
Si Si6 0.218579 0.615015 0.325483
Si Si7 0.978775 0.173190 0.128354
O O1 0.864369 0.998871 0.381351
O O2 0.678541 0.896389 0.329526
O O3 0.819652 0.976357 0.228341
O O4 0.696722 0.107714 0.310403
O O5 0.157567 0.368445 0.163378
O O6 0.207532 0.493361 0.288746
O O7 0.311767 0.302417 0.271500
O O8 0.360291 0.448726 0.500000
O O9 0.267875 0.606355 0.417348
O O10 0.500000 0.000000 0.881100
O O11 0.705631 0.981755 0.904594
O O12 0.592742 0.109828 0.000000
O O13 0.092380 0.116608 0.102537
#
# Coordination Sequence:
#
# PCOD9543230 Si02
#       7
#     8   8   2   4   8   8   8
#     4  11  19  35  60  94 130 165 213 252 309 393
#     4  11  23  39  64  94 126 168 224 263 323 396
#     4  12  16  32  64  93 121 180 204 246 308 380
#     4  11  24  46  69  96 129 159 212 289 338 378
#     4  10  22  38  55  84 129 171 211 265 320 371
#     4  12  23  41  68  97 123 165 214 273 334 393
#     4  10  17  32  57  87 117 158 207 257 306 361
#
# _framework density 19.051238999999999
#
# number of rings (size 3 to 8) (size 9 to 14) (size 15 to 20)
#    0.000    1.130    5.217    3.652    0.000    1.043 
#    0.000    6.087    0.000    0.522    0.000    1.217 
#    0.000    0.000    0.000    0.000    0.000    0.000 
#
# Total GULP energy -256443.474731 kJ/mol
# GULP energy per Si atom -5574.858146 kJ/mol
# Density = 1.900788 g / cm^3
# Si number density = 19.051239 Si / 1000 Ang^3
#
#
#
# Elastic Constant Matrix: (Units=GPa)
#
#
# Indices 1 2 3 4 5 6 
#
# 1 124.6035 26.9948 -7.6137 0.0000 0.0000 -0.6653
# 2 26.9948 124.6035 -7.6137 0.0000 0.0000 0.6653
# 3 -7.6137 -7.6137 56.5378 0.0000 0.0000 0.0000
# 4 0.0000 0.0000 0.0000 36.5480 0.0000 0.0000
# 5 0.0000 0.0000 0.0000 0.0000 36.5480 0.0000
# 6 -0.6653 0.6653 0.0000 0.0000 0.0000 45.7329
#
#
#
# Elastic Compliance Matrix: (Units=1/GPa)
#
#
# Indices 1 2 3 4 5 6 
#
# 1 0.008467 -0.001780 0.000900 0.000000 0.000000 0.000149
# 2 -0.001780 0.008467 0.000900 0.000000 0.000000 -0.000149
# 3 0.000900 0.000900 0.017930 0.000000 0.000000 0.000000
# 4 0.000000 0.000000 0.000000 0.027361 0.000000 0.000000
# 5 0.000000 0.000000 0.000000 0.000000 0.027361 0.000000
# 6 0.000149 -0.000149 0.000000 0.000000 0.000000 0.021870
#
#
# Mechanical properties :
#
#
# Convention : Reuss Voigt Hill
#
# Bulk Modulus (GPa) = 28.64881 36.58660 32.61770
# Shear Modulus (GPa) = 40.63385 43.36426 41.99906
#
# Velocity S-wave (km/s) = 4.62331 4.77612 4.70034
# Velocity P-wave (km/s) = 6.60079 7.04706 6.82757
#
# Compressibility (1/GPa) = 0.03490546
#
# Stress axis : x y z
#
# Youngs Moduli (GPa) = 118.10664 118.10664 55.77299
#
# Poissons Ratio (x) = 0.21024 -0.05022
# Poissons Ratio (y) = 0.21024 -0.05022
# Poissons Ratio (z) = -0.10635 -0.10635
#
# Static dielectric constant tensor:
#      x y z
#    x 1.655570 0.000000 0.000000 
#    y 0.000000 1.655570 0.000000 
#    z 0.000000 0.000000 1.697460 
# 
# From -- ./inp_files/2680.got.cif
#   From: 2010.05.17/outbox.cif.g08.bks.cpg/sg83_2_cif.got.tgz:2680.got - 2010.06.03 18:55:12.
