data_PCOD9543540
_publ_section_title
;
Structure prediction by ZEFSAII (Michael W. Deem and Ramdas Pophale) SiO2 
 PCOD9543540
Probable space group: P 4/M
;
_chemical_formula_sum "Si O2"
_cell_formula_units_Z 40
_cell_length_a 14.631462
_cell_length_b 14.631462
_cell_length_c 8.392723
_cell_angle_alpha 90.000000
_cell_angle_beta 90.000000
_cell_angle_gamma 90.000000
_cell_volume 1796.711456
_symmetry_space_group_name_H-M "P 4/M"
_symmetry_group_IT_number 83
_symmetry_cell_setting 'tetragonal'
loop_
_space_group_symop_operation_xyz
x,y,z
-y,x,z
-x,-y,z
y,-x,z
-x,-y,-z
y,-x,-z
x,y,-z
-y,x,-z
loop_
_atom_site_type_symbol
_atom_site_label
_atom_site_fract_x
_atom_site_fract_y
_atom_site_fract_z
Si Si1 0.354616 0.525053 0.306193
Si Si2 0.001455 0.396159 0.810288
Si Si3 0.644840 0.803309 0.307178
Si Si4 0.288218 0.827215 0.678932
Si Si5 0.873953 0.085811 0.178422
O O1 0.397673 0.428557 0.256439
O O2 0.354430 0.524136 0.500000
O O3 0.252610 0.553761 0.256970
O O4 0.096977 0.350780 0.760777
O O5 0.000000 0.500000 0.748857
O O6 0.907271 0.349949 0.750967
O O7 0.996988 0.396119 0.000000
O O8 0.648760 0.805714 0.500000
O O9 0.728610 0.738669 0.251527
O O10 0.323020 0.812830 0.500000
O O11 0.189120 0.874973 0.685951
O O12 0.976730 0.121473 0.187982
O O13 0.838179 0.109376 0.000000
#
# Coordination Sequence:
#
# PCOD9543540 Si02
#       5
#     8   8   8   8   8
#     4   8  15  30  56  90 124 156 195 247 309 380
#     4  11  26  45  63  87 123 171 218 259 312 377
#     4  10  22  38  63  96 126 162 208 261 323 378
#     4  11  23  37  57  88 120 154 200 254 310 369
#     4   9  18  33  54  79 109 149 193 237 291 354
#
# _framework density 22.262895
#
# number of rings (size 3 to 8) (size 9 to 14) (size 15 to 20)
#    0.000    2.200    0.000    3.600    2.800    7.200 
#    0.000    1.000    0.000    0.000    0.000    1.400 
#    0.000    0.000    0.000    0.000    0.000    0.000 
#
# Total GULP energy -223201.797051 kJ/mol
# GULP energy per Si atom -5580.044926 kJ/mol
# Density = 2.221222 g / cm^3
# Si number density = 22.262895 Si / 1000 Ang^3
#
#
#
# Elastic Constant Matrix: (Units=GPa)
#
#
# Indices 1 2 3 4 5 6 
#
# 1 61.4512 58.9196 10.1896 0.0000 0.0000 -18.1729
# 2 58.9196 61.4512 10.1896 0.0000 0.0000 18.1729
# 3 10.1896 10.1896 18.6628 0.0000 0.0000 0.0000
# 4 0.0000 0.0000 0.0000 15.2232 0.0000 0.0000
# 5 0.0000 0.0000 0.0000 0.0000 15.2232 0.0000
# 6 -18.1729 18.1729 0.0000 0.0000 0.0000 32.2207
#
#
#
# Elastic Compliance Matrix: (Units=1/GPa)
#
#
# Indices 1 2 3 4 5 6 
#
# 1 -0.023250 0.032404 -0.004998 0.000000 0.000000 -0.031390
# 2 0.032404 -0.023250 -0.004998 0.000000 0.000000 0.031390
# 3 -0.004998 -0.004998 0.059040 0.000000 0.000000 0.000000
# 4 0.000000 0.000000 0.000000 0.065689 0.000000 0.000000
# 5 0.000000 0.000000 0.000000 0.000000 0.065689 0.000000
# 6 -0.031390 0.031390 0.000000 0.000000 0.000000 -0.004373
#
#
# Mechanical properties :
#
#
# Convention : Reuss Voigt Hill
#
# Bulk Modulus (GPa) = 17.43488 33.35143 25.39316
# Shear Modulus (GPa) = 43.91870 16.68453 30.30161
#
# Velocity S-wave (km/s) = 4.44636 2.74055 3.69329
# Velocity P-wave (km/s) = 5.84881 5.00274 5.44224
#
# Compressibility (1/GPa) = 0.05735627
#
# Stress axis : x y z
#
# Youngs Moduli (GPa) = -43.01028 -43.01028 16.93767
#
# Poissons Ratio (x) = 1.39371 0.08465
# Poissons Ratio (y) = 1.39371 0.08465
# Poissons Ratio (z) = -0.21496 -0.21496
#
# Static dielectric constant tensor:
#      x y z
#    x 1.842280 0.000000 0.000000 
#    y 0.000000 1.842280 0.000000 
#    z 0.000000 0.000000 1.822740 
# 
# From -- ./inp_files/663.got.cif
#   From: 2010.05.17/outbox.cif.g08.bks.cpg/sg83_1_cif.got.tgz:663.got - 2010.06.03 18:55:12.
