data_PCOD9543601
_publ_section_title
;
Structure prediction by ZEFSAII (Michael W. Deem and Ramdas Pophale) SiO2 
 PCOD9543601
Probable space group: P 4/M
;
_chemical_formula_sum "Si O2"
_cell_formula_units_Z 46
_cell_length_a 11.754760
_cell_length_b 11.754760
_cell_length_c 16.888810
_cell_angle_alpha 90.000000
_cell_angle_beta 90.000000
_cell_angle_gamma 90.000000
_cell_volume 2333.600896
_symmetry_space_group_name_H-M "P 4/M"
_symmetry_group_IT_number 83
_symmetry_cell_setting 'tetragonal'
loop_
_space_group_symop_operation_xyz
x,y,z
-y,x,z
-x,-y,z
y,-x,z
-x,-y,-z
y,-x,-z
x,y,-z
-y,x,-z
loop_
_atom_site_type_symbol
_atom_site_label
_atom_site_fract_x
_atom_site_fract_y
_atom_site_fract_z
Si Si1 0.188471 0.964274 0.085113
Si Si2 0.695914 0.836784 0.714728
Si Si3 0.307445 0.910523 0.753442
Si Si4 0.491601 0.695158 0.000000
Si Si5 0.500000 0.500000 0.208322
Si Si6 0.326723 0.576143 0.593600
Si Si7 0.491235 0.232217 0.823380
O O1 0.264943 0.946250 0.159937
O O2 0.086294 0.872922 0.088268
O O3 0.247232 0.952591 0.000000
O O4 0.821304 0.782606 0.717471
O O5 0.625335 0.771938 0.647178
O O6 0.635160 0.803730 0.797750
O O7 0.689210 0.972198 0.705246
O O8 0.425883 0.848241 0.772234
O O9 0.386248 0.604715 0.000000
O O10 0.490903 0.765686 0.918323
O O11 0.486185 0.638692 0.202598
O O12 0.356635 0.444442 0.610343
O O13 0.303536 0.586084 0.500000
#
# Coordination Sequence:
#
# PCOD9543601 Si02
#       7
#     8   8   8   4   2   8   8
#     4   9  18  36  59  80 112 165 232 286 325 371
#     4  12  25  42  62  91 134 168 216 270 320 388
#     4  12  24  40  61  91 125 174 219 272 337 387
#     4  11  18  36  59  82 116 164 217 261 330 406
#     4  12  20  41  64  84 117 172 210 264 329 396
#     4   9  20  41  75 110 135 166 210 259 319 394
#     4  12  24  39  59  90 121 165 216 270 328 393
#
# _framework density 19.712026000000002
#
# number of rings (size 3 to 8) (size 9 to 14) (size 15 to 20)
#    0.000    1.130    5.217    2.609    1.217    0.348 
#    3.130    1.739    0.000    4.174    0.000    1.217 
#    0.000    0.000    0.000    0.000    0.000    0.000 
#
# Total GULP energy -256626.538002 kJ/mol
# GULP energy per Si atom -5578.837783 kJ/mol
# Density = 1.966716 g / cm^3
# Si number density = 19.712026 Si / 1000 Ang^3
#
#
#
# Elastic Constant Matrix: (Units=GPa)
#
#
# Indices 1 2 3 4 5 6 
#
# 1 121.9163 56.0793 43.2528 0.0000 0.0000 -5.5538
# 2 56.0793 121.9163 43.2528 0.0000 0.0000 5.5538
# 3 43.2528 43.2528 73.4963 0.0000 0.0000 0.0000
# 4 0.0000 0.0000 0.0000 28.5255 0.0000 0.0000
# 5 0.0000 0.0000 0.0000 0.0000 28.5255 0.0000
# 6 -5.5538 5.5538 0.0000 0.0000 0.0000 23.1667
#
#
#
# Elastic Compliance Matrix: (Units=1/GPa)
#
#
# Indices 1 2 3 4 5 6 
#
# 1 0.011849 -0.003980 -0.004631 0.000000 0.000000 0.003795
# 2 -0.003980 0.011849 -0.004631 0.000000 0.000000 -0.003795
# 3 -0.004631 -0.004631 0.019057 0.000000 0.000000 0.000000
# 4 0.000000 0.000000 0.000000 0.035056 0.000000 0.000000
# 5 0.000000 0.000000 0.000000 0.000000 0.035056 0.000000
# 6 0.003795 -0.003795 0.000000 0.000000 0.000000 0.044985
#
#
# Mechanical properties :
#
#
# Convention : Reuss Voigt Hill
#
# Bulk Modulus (GPa) = 61.45933 66.94427 64.20180
# Shear Modulus (GPa) = 26.34922 27.69316 27.02119
#
# Velocity S-wave (km/s) = 3.66007 3.75225 3.70644
# Velocity P-wave (km/s) = 7.00769 7.26687 7.13846
#
# Compressibility (1/GPa) = 0.01627092
#
# Stress axis : x y z
#
# Youngs Moduli (GPa) = 84.39568 84.39568 52.47550
#
# Poissons Ratio (x) = 0.33592 0.24300
# Poissons Ratio (y) = 0.33592 0.24300
# Poissons Ratio (z) = 0.39081 0.39081
#
# Static dielectric constant tensor:
#      x y z
#    x 1.727650 0.000000 0.000000 
#    y 0.000000 1.727650 0.000000 
#    z 0.000000 0.000000 1.716980 
# 
# From -- ./inp_files/2677.got.cif
#   From: 2010.05.17/outbox.cif.g08.bks.cpg/sg83_2_cif.got.tgz:2677.got - 2010.06.03 18:55:12.
