data_PCOD9543507
_publ_section_title
;
Structure prediction by ZEFSAII (Michael W. Deem and Ramdas Pophale) SiO2 
 PCOD9543507
Probable space group: P 4/M
;
_chemical_formula_sum "Si O2"
_cell_formula_units_Z 36
_cell_length_a 15.320631
_cell_length_b 15.320631
_cell_length_c 7.267075
_cell_angle_alpha 90.000000
_cell_angle_beta 90.000000
_cell_angle_gamma 90.000000
_cell_volume 1705.740447
_symmetry_space_group_name_H-M "P 4/M"
_symmetry_group_IT_number 83
_symmetry_cell_setting 'tetragonal'
loop_
_space_group_symop_operation_xyz
x,y,z
-y,x,z
-x,-y,z
y,-x,z
-x,-y,-z
y,-x,-z
x,y,-z
-y,x,-z
loop_
_atom_site_type_symbol
_atom_site_label
_atom_site_fract_x
_atom_site_fract_y
_atom_site_fract_z
Si Si1 0.227126 0.123714 0.276737
Si Si2 0.910762 0.547944 0.723673
Si Si3 0.625869 0.425907 0.000000
Si Si4 0.251974 0.926280 0.275352
Si Si5 0.597078 0.773984 0.279438
O O1 0.224537 0.122183 0.500000
O O2 0.147415 0.184169 0.215206
O O3 0.319060 0.167882 0.228413
O O4 0.225061 0.023444 0.216944
O O5 0.912714 0.548238 0.500000
O O6 0.907857 0.648386 0.782453
O O7 0.828226 0.489087 0.775707
O O8 0.000000 0.500000 0.782317
O O9 0.614705 0.530293 0.000000
O O10 0.682652 0.399132 0.823736
O O11 0.252357 0.925468 0.500000
O O12 0.597060 0.762981 0.500000
#
# Coordination Sequence:
#
# PCOD9543507 Si02
#       5
#     8   8   4   8   8
#     4   9  17  29  50  82 119 160 205 245 296 358
#     4   9  15  28  53  83 115 150 194 252 305 341
#     4  11  28  48  61  86 126 155 190 249 307 366
#     4   9  16  26  45  80 120 158 200 248 298 355
#     4  10  21  39  65  90 116 158 205 247 298 360
#
# _framework density 21.105202999999999
#
# number of rings (size 3 to 8) (size 9 to 14) (size 15 to 20)
#    0.000    2.556    2.222    0.000    3.111    1.333 
#    0.000    3.889    0.000    1.333    0.000    0.000 
#    0.000    1.778    0.000    0.222    0.000    0.000 
#
# Total GULP energy -201235.970904 kJ/mol
# GULP energy per Si atom -5589.888081 kJ/mol
# Density = 2.105717 g / cm^3
# Si number density = 21.105203 Si / 1000 Ang^3
#
#
#
# Elastic Constant Matrix: (Units=GPa)
#
#
# Indices 1 2 3 4 5 6 
#
# 1 143.9325 94.0293 16.8087 0.0000 0.0000 -11.4508
# 2 94.0293 143.9325 16.8087 0.0000 0.0000 11.4508
# 3 16.8087 16.8087 94.1887 0.0000 0.0000 0.0000
# 4 0.0000 0.0000 0.0000 228.5936 0.0000 0.0000
# 5 0.0000 0.0000 0.0000 0.0000 228.5936 0.0000
# 6 -11.4508 11.4508 0.0000 0.0000 0.0000 34.9306
#
#
#
# Elastic Compliance Matrix: (Units=1/GPa)
#
#
# Indices 1 2 3 4 5 6 
#
# 1 0.013949 -0.009638 -0.000769 0.000000 0.000000 0.007732
# 2 -0.009638 0.013949 -0.000769 0.000000 0.000000 -0.007732
# 3 -0.000769 -0.000769 0.010892 0.000000 0.000000 0.000000
# 4 0.000000 0.000000 0.000000 0.004375 0.000000 0.000000
# 5 0.000000 0.000000 0.000000 0.000000 0.004375 0.000000
# 6 0.007732 -0.007732 0.000000 0.000000 0.000000 0.033698
#
#
# Mechanical properties :
#
#
# Convention : Reuss Voigt Hill
#
# Bulk Modulus (GPa) = 60.84091 70.81633 65.82862
# Shear Modulus (GPa) = 45.84244 115.38403 80.61324
#
# Velocity S-wave (km/s) = 4.66563 7.40200 6.18699
# Velocity P-wave (km/s) = 7.61013 10.32858 9.07176
#
# Compressibility (1/GPa) = 0.01643631
#
# Stress axis : x y z
#
# Youngs Moduli (GPa) = 71.68872 71.68872 91.81406
#
# Poissons Ratio (x) = 0.69095 0.07064
# Poissons Ratio (y) = 0.69095 0.07064
# Poissons Ratio (z) = 0.05515 0.05515
#
# Static dielectric constant tensor:
#      x y z
#    x 1.709510 0.000000 0.000000 
#    y 0.000000 1.709510 0.000000 
#    z 0.000000 0.000000 1.799150 
# 
# From -- ./inp_files/537.got.cif
#   From: 2010.05.17/outbox.cif.g08.bks.cpg/sg83_1_cif.got.tgz:537.got - 2010.06.03 18:55:12.
