data_PCOD9543128
_publ_section_title
;
Structure prediction by ZEFSAII (Michael W. Deem and Ramdas Pophale) SiO2 
 PCOD9543128
Probable space group: I -4 
;
_chemical_formula_sum "Si O2"
_cell_formula_units_Z 32
_cell_length_a 8.139564
_cell_length_b 8.139564
_cell_length_c 19.884018
_cell_angle_alpha 90.000000
_cell_angle_beta 90.000000
_cell_angle_gamma 90.000000
_cell_volume 1317.365945
_symmetry_space_group_name_H-M "I -4 "
_symmetry_group_IT_number 82
_symmetry_cell_setting 'tetragonal'
loop_
_space_group_symop_operation_xyz
x,y,z
y,-x,-z
-x,-y,z
-y,x,-z
1/2+x,1/2+y,1/2+z
1/2+y,1/2-x,1/2-z
1/2-x,1/2-y,1/2+z
1/2-y,1/2+x,1/2-z
loop_
_atom_site_type_symbol
_atom_site_label
_atom_site_fract_x
_atom_site_fract_y
_atom_site_fract_z
Si Si1 0.420041 0.665297 0.609807
Si Si2 0.548044 0.264408 0.756905
Si Si3 0.185229 0.445059 0.951981
Si Si4 0.243302 0.127739 0.598532
O O1 0.500000 0.500000 0.581151
O O2 0.395906 0.637706 0.690761
O O3 0.242384 0.695726 0.576235
O O4 0.568695 0.798740 0.601230
O O5 0.375862 0.185050 0.737869
O O6 0.524617 0.303574 0.835346
O O7 0.247501 0.590565 0.903797
O O8 0.000000 0.500000 0.962957
O O9 0.264063 0.455611 0.026051
#
# Coordination Sequence:
#
# PCOD9543128 Si02
#       4
#     8   8   8   8
#     4  11  24  46  75 102 145 199 245 308 375 443
#     4   9  22  44  71  98 137 194 247 302 369 444
#     4  12  26  46  73 108 150 196 248 308 379 450
#     4  11  26  45  71 108 146 191 247 311 372 444
#
# _framework density 24.290894999999999
#
# number of rings (size 3 to 8) (size 9 to 14) (size 15 to 20)
#    0.000    1.250    2.500    1.500   10.500    4.500 
#    0.000    0.000    0.000    0.000    0.000    0.000 
#    0.000    0.000    0.000    0.000    0.000    0.000 
#
# Total GULP energy -89166.105485 kJ/mol
# GULP energy per Si atom -5572.881593 kJ/mol
# Density = 2.423561 g / cm^3
# Si number density = 24.290895 Si / 1000 Ang^3
#
#
#
# Elastic Constant Matrix: (Units=GPa)
#
#
# Indices 1 2 3 4 5 6 
#
# 1 120.7726 23.7813 36.8612 0.0000 0.0000 5.1184
# 2 23.7813 120.7726 36.8612 0.0000 0.0000 -5.1184
# 3 36.8612 36.8612 156.8902 0.0000 0.0000 0.0000
# 4 0.0000 0.0000 0.0000 19.6666 0.0000 0.0000
# 5 0.0000 0.0000 0.0000 0.0000 19.6666 0.0000
# 6 5.1184 -5.1184 0.0000 0.0000 0.0000 18.1254
#
#
#
# Elastic Compliance Matrix: (Units=1/GPa)
#
#
# Indices 1 2 3 4 5 6 
#
# 1 0.009243 -0.001384 -0.001847 0.000000 0.000000 -0.003001
# 2 -0.001384 0.009243 -0.001847 0.000000 0.000000 0.003001
# 3 -0.001847 -0.001847 0.007242 0.000000 0.000000 0.000000
# 4 0.000000 0.000000 0.000000 0.050848 0.000000 0.000000
# 5 0.000000 0.000000 0.000000 0.000000 0.050848 0.000000
# 6 -0.003001 0.003001 0.000000 0.000000 0.000000 0.056866
#
#
# Mechanical properties :
#
#
# Convention : Reuss Voigt Hill
#
# Bulk Modulus (GPa) = 64.20798 65.93807 65.07302
# Shear Modulus (GPa) = 25.04575 31.55384 28.29980
#
# Velocity S-wave (km/s) = 3.21452 3.60807 3.41697
# Velocity P-wave (km/s) = 6.34570 6.67545 6.51266
#
# Compressibility (1/GPa) = 0.01557439
#
# Stress axis : x y z
#
# Youngs Moduli (GPa) = 108.18686 108.18686 138.09106
#
# Poissons Ratio (x) = 0.14969 0.25500
# Poissons Ratio (y) = 0.14969 0.25500
# Poissons Ratio (z) = 0.19978 0.19978
#
# Static dielectric constant tensor:
#      x y z
#    x 2.009150 0.000000 0.000000 
#    y 0.000000 2.009150 0.000000 
#    z 0.000000 0.000000 1.972440 
# 
# From -- ./inp_files/2885.got.cif
#   From: 2010.05.17/outbox.cif.g08.bks.cpg/sg82_2_cif.got.tgz:2885.got - 2010.06.03 18:52:26.
