data_PCOD9543542
_publ_section_title
;
Structure prediction by ZEFSAII (Michael W. Deem and Ramdas Pophale) SiO2 
 PCOD9543542
Probable space group: P 4/M
;
_chemical_formula_sum "Si O2"
_cell_formula_units_Z 60
_cell_length_a 11.906159
_cell_length_b 11.906159
_cell_length_c 19.957650
_cell_angle_alpha 90.000000
_cell_angle_beta 90.000000
_cell_angle_gamma 90.000000
_cell_volume 2829.129050
_symmetry_space_group_name_H-M "P 4/M"
_symmetry_group_IT_number 83
_symmetry_cell_setting 'tetragonal'
loop_
_space_group_symop_operation_xyz
x,y,z
-y,x,z
-x,-y,z
y,-x,z
-x,-y,-z
y,-x,-z
x,y,-z
-y,x,-z
loop_
_atom_site_type_symbol
_atom_site_label
_atom_site_fract_x
_atom_site_fract_y
_atom_site_fract_z
Si Si1 0.804282 0.646907 0.242571
Si Si2 0.818149 0.957990 0.424278
Si Si3 0.780168 0.407867 0.722951
Si Si4 0.539810 0.327046 0.920028
Si Si5 0.980799 0.805653 0.000000
Si Si6 0.383579 0.998747 0.663732
Si Si7 0.678834 0.435706 0.425244
Si Si8 0.385099 0.925377 0.889494
O O1 0.746879 0.523525 0.240935
O O2 0.704747 0.735063 0.244436
O O3 0.875711 0.647681 0.311273
O O4 0.895841 0.661159 0.184457
O O5 0.777437 0.948988 0.500000
O O6 0.919000 0.871687 0.415390
O O7 0.718642 0.946616 0.373935
O O8 0.741889 0.413612 0.644771
O O9 0.914976 0.409997 0.723523
O O10 0.631684 0.417714 0.894976
O O11 0.574619 0.199649 0.909585
O O12 0.535326 0.338744 0.000000
O O13 0.969003 0.717078 0.062822
O O14 0.098451 0.879533 0.000000
O O15 0.500000 0.000000 0.622910
O O16 0.638700 0.565353 0.423526
O O17 0.731023 0.416456 0.500000
O O18 0.500000 0.000000 0.891017
#
# Coordination Sequence:
#
# PCOD9543542 Si02
#       8
#     8   8   8   8   4   8   8   8
#     4  11  26  41  62  96 128 176 215 275 324 407
#     4   9  18  35  60  85 107 141 200 265 317 373
#     4  11  21  40  63  87 134 172 218 274 332 397
#     4   9  20  38  63 102 143 172 212 269 324 397
#     4  11  29  52  78 107 138 182 234 291 339 406
#     4  10  22  39  56  81 123 164 207 247 317 389
#     4   9  17  32  57  88 121 163 219 276 332 394
#     4  12  26  43  73 101 138 181 227 278 348 414
#
# _framework density 21.207941000000002
#
# number of rings (size 3 to 8) (size 9 to 14) (size 15 to 20)
#    0.000    1.800    2.000    3.400    3.733    2.133 
#    0.000    2.667    0.000    1.600    0.000    0.000 
#    0.000    0.000    0.000    0.000    0.000    0.000 
#
# Total GULP energy -334521.011503 kJ/mol
# GULP energy per Si atom -5575.350192 kJ/mol
# Density = 2.115967 g / cm^3
# Si number density = 21.207941 Si / 1000 Ang^3
#
#
#
# Elastic Constant Matrix: (Units=GPa)
#
#
# Indices 1 2 3 4 5 6 
#
# 1 89.1950 30.8873 17.8441 0.0000 0.0000 8.6868
# 2 30.8873 89.1950 17.8441 0.0000 0.0000 -8.6868
# 3 17.8441 17.8441 82.2307 0.0000 0.0000 0.0000
# 4 0.0000 0.0000 0.0000 33.1936 0.0000 0.0000
# 5 0.0000 0.0000 0.0000 0.0000 33.1936 0.0000
# 6 8.6868 -8.6868 0.0000 0.0000 0.0000 15.2806
#
#
#
# Elastic Compliance Matrix: (Units=1/GPa)
#
#
# Indices 1 2 3 4 5 6 
#
# 1 0.014775 -0.005873 -0.001932 0.000000 0.000000 -0.011738
# 2 -0.005873 0.014775 -0.001932 0.000000 0.000000 0.011738
# 3 -0.001932 -0.001932 0.012999 0.000000 0.000000 0.000000
# 4 0.000000 0.000000 0.000000 0.030126 0.000000 0.000000
# 5 0.000000 0.000000 0.000000 0.000000 0.030126 0.000000
# 6 -0.011738 0.011738 0.000000 0.000000 0.000000 0.078788
#
#
# Mechanical properties :
#
#
# Convention : Reuss Voigt Hill
#
# Bulk Modulus (GPa) = 43.33512 43.75243 43.54378
# Shear Modulus (GPa) = 23.95152 29.26988 26.61070
#
# Velocity S-wave (km/s) = 3.36425 3.71905 3.54609
# Velocity P-wave (km/s) = 5.96395 6.25434 6.11087
#
# Compressibility (1/GPa) = 0.02307597
#
# Stress axis : x y z
#
# Youngs Moduli (GPa) = 67.68267 67.68267 76.92741
#
# Poissons Ratio (x) = 0.39751 0.14860
# Poissons Ratio (y) = 0.39751 0.14860
# Poissons Ratio (z) = 0.13074 0.13074
#
# Static dielectric constant tensor:
#      x y z
#    x 1.724210 0.000000 0.000000 
#    y 0.000000 1.724210 0.000000 
#    z 0.000000 0.000000 1.845440 
# 
# From -- ./inp_files/3063.got.cif
#   From: 2010.05.17/outbox.cif.g08.bks.cpg/sg83_2_cif.got.tgz:3063.got - 2010.06.03 18:55:12.
