data_PCOD9543697
_publ_section_title
;
Structure prediction by ZEFSAII (Michael W. Deem and Ramdas Pophale) SiO2 
 PCOD9543697
Probable space group: P 4/M
;
_chemical_formula_sum "Si O2"
_cell_formula_units_Z 48
_cell_length_a 8.101239
_cell_length_b 8.101239
_cell_length_c 32.869381
_cell_angle_alpha 90.000000
_cell_angle_beta 90.000000
_cell_angle_gamma 90.000000
_cell_volume 2157.219886
_symmetry_space_group_name_H-M "P 4/M"
_symmetry_group_IT_number 83
_symmetry_cell_setting 'tetragonal'
loop_
_space_group_symop_operation_xyz
x,y,z
-y,x,z
-x,-y,z
y,-x,z
-x,-y,-z
y,-x,-z
x,y,-z
-y,x,-z
loop_
_atom_site_type_symbol
_atom_site_label
_atom_site_fract_x
_atom_site_fract_y
_atom_site_fract_z
Si Si1 0.601472 0.762515 0.500000
Si Si2 0.764746 0.412004 0.922097
Si Si3 0.592158 0.764277 0.675269
Si Si4 0.920086 0.264656 0.246093
Si Si5 0.762566 0.400609 0.412974
Si Si6 0.764620 0.411766 0.831964
Si Si7 0.734920 0.921669 0.000000
O O1 0.409862 0.703761 0.500000
O O2 0.633956 0.847808 0.456449
O O3 0.699672 0.599219 0.924808
O O4 0.837660 0.384776 0.877026
O O5 0.879099 0.364082 0.959327
O O6 0.403640 0.701153 0.677402
O O7 0.636856 0.875778 0.713268
O O8 0.627240 0.844065 0.630875
O O9 0.878377 0.363535 0.205351
O O10 0.104740 0.198288 0.246168
O O11 0.703048 0.591525 0.412978
O O12 0.699785 0.599035 0.829286
O O13 0.894147 0.802412 0.000000
#
# Coordination Sequence:
#
# PCOD9543697 Si02
#       7
#     4   8   8   8   8   8   4
#     4   7   8  12  26  52  88 121 142 170 224 287
#     4   9  19  37  60  83 105 131 167 209 249 292
#     4   9  17  30  49  72  96 123 159 201 241 286
#     4  11  24  37  48  68  99 132 165 202 244 290
#     4   7  10  17  32  58  90 119 146 181 229 283
#     4   9  19  37  60  83 103 125 159 204 251 298
#     4  11  24  37  50  76 114 149 178 209 244 282
#
# _framework density 22.250858000000001
#
# number of rings (size 3 to 8) (size 9 to 14) (size 15 to 20)
#    0.000    3.000    0.000    4.500    0.000    7.333 
#    0.000    5.000    0.000    0.000    0.000    1.167 
#    0.000    8.000    0.000    0.000    0.000    0.000 
#
# Total GULP energy -268271.635990 kJ/mol
# GULP energy per Si atom -5588.992416 kJ/mol
# Density = 2.220021 g / cm^3
# Si number density = 22.250858 Si / 1000 Ang^3
#
#
#
# Elastic Constant Matrix: (Units=GPa)
#
#
# Indices 1 2 3 4 5 6 
#
# 1 52.8029 40.7302 65.1331 0.0000 0.0000 4.5383
# 2 40.7302 52.8029 65.1331 0.0000 0.0000 -4.5383
# 3 65.1331 65.1331 263.1202 0.0000 0.0000 0.0000
# 4 0.0000 0.0000 0.0000 -118.4884 0.0000 0.0000
# 5 0.0000 0.0000 0.0000 0.0000 -118.4884 0.0000
# 6 4.5383 -4.5383 0.0000 0.0000 0.0000 33.3706
#
#
#
# Elastic Compliance Matrix: (Units=1/GPa)
#
#
# Indices 1 2 3 4 5 6 
#
# 1 0.054291 -0.037974 -0.004039 0.000000 0.000000 -0.012548
# 2 -0.037974 0.054291 -0.004039 0.000000 0.000000 0.012548
# 3 -0.004039 -0.004039 0.005800 0.000000 0.000000 0.000000
# 4 0.000000 0.000000 0.000000 -0.008440 0.000000 0.000000
# 5 0.000000 0.000000 0.000000 0.000000 -0.008440 0.000000
# 6 -0.012548 0.012548 0.000000 0.000000 0.000000 0.033379
#
#
# Mechanical properties :
#
#
# Convention : Reuss Voigt Hill
#
# Bulk Modulus (GPa) = 44.88851 78.96873 61.92862
# Shear Modulus (GPa) = 21.70020 -27.53926 -2.91953
#
# Velocity S-wave (km/s) = 3.12629 -3.52187 -1.14671
# Velocity P-wave (km/s) = 5.76621 4.36224 5.11265
#
# Compressibility (1/GPa) = 0.02227742
#
# Stress axis : x y z
#
# Youngs Moduli (GPa) = 18.41928 18.41928 172.40750
#
# Poissons Ratio (x) = 0.69946 0.69636
# Poissons Ratio (y) = 0.69946 0.69636
# Poissons Ratio (z) = 0.07440 0.07440
#
# Static dielectric constant tensor:
#      x y z
#    x 1.789810 0.000000 0.000000 
#    y 0.000000 1.789810 0.000000 
#    z 0.000000 0.000000 1.842150 
# 
# From -- ./inp_files/3484.got.cif
#   From: 2010.05.17/outbox.cif.g08.bks.cpg/sg83_2_cif.got.tgz:3484.got - 2010.06.03 18:55:12.
