data_PCOD9543615
_publ_section_title
;
Structure prediction by ZEFSAII (Michael W. Deem and Ramdas Pophale) SiO2 
 PCOD9543615
Probable space group: P 4/M
;
_chemical_formula_sum "Si O2"
_cell_formula_units_Z 32
_cell_length_a 10.056871
_cell_length_b 10.056871
_cell_length_c 19.529831
_cell_angle_alpha 90.000000
_cell_angle_beta 90.000000
_cell_angle_gamma 90.000000
_cell_volume 1975.259886
_symmetry_space_group_name_H-M "P 4/M"
_symmetry_group_IT_number 83
_symmetry_cell_setting 'tetragonal'
loop_
_space_group_symop_operation_xyz
x,y,z
-y,x,z
-x,-y,z
y,-x,z
-x,-y,-z
y,-x,-z
x,y,-z
-y,x,-z
loop_
_atom_site_type_symbol
_atom_site_label
_atom_site_fract_x
_atom_site_fract_y
_atom_site_fract_z
Si Si1 0.138044 0.654325 0.864843
Si Si2 0.787049 0.924962 0.573514
Si Si3 0.635535 0.152176 0.080538
Si Si4 0.076376 0.787023 0.275990
O O1 0.113117 0.690971 0.785858
O O2 0.251752 0.747782 0.894961
O O3 0.172983 0.500967 0.878018
O O4 0.717835 0.900712 0.500000
O O5 0.922503 0.838097 0.573388
O O6 0.725237 0.902595 0.648225
O O7 0.678953 0.000964 0.095947
O O8 0.608688 0.167514 0.000000
O O9 0.163322 0.922993 0.270431
#
# Coordination Sequence:
#
# PCOD9543615 Si02
#       4
#     8   8   8   8
#     4  11  21  36  53  75 100 131 166 208 252 296
#     4   7  10  17  33  61  97 129 156 190 237 289
#     4  11  23  38  54  73  98 128 169 211 257 306
#     4   9  15  26  45  72 100 129 164 204 246 295
#
# _framework density 16.200400999999999
#
# number of rings (size 3 to 8) (size 9 to 14) (size 15 to 20)
#    0.000    2.500    2.500    5.250    0.000    1.000 
#    0.000    2.500    0.000    0.000    0.000    5.250 
#    0.000    0.000    0.000    2.250    0.000    0.000 
#
# Total GULP energy -178174.995958 kJ/mol
# GULP energy per Si atom -5567.968624 kJ/mol
# Density = 1.616353 g / cm^3
# Si number density = 16.200401 Si / 1000 Ang^3
#
#
#
# Elastic Constant Matrix: (Units=GPa)
#
#
# Indices 1 2 3 4 5 6 
#
# 1 19.1766 98.2497 34.8112 0.0000 0.0000 -19.4025
# 2 98.2497 19.1766 34.8112 0.0000 0.0000 19.4025
# 3 34.8112 34.8112 179.4859 0.0000 0.0000 0.0000
# 4 0.0000 0.0000 0.0000 -21.1316 0.0000 0.0000
# 5 0.0000 0.0000 0.0000 0.0000 -21.1316 0.0000
# 6 -19.4025 19.4025 0.0000 0.0000 0.0000 9.9616
#
#
#
# Elastic Compliance Matrix: (Units=1/GPa)
#
#
# Indices 1 2 3 4 5 6 
#
# 1 0.001578 0.008044 -0.001866 0.000000 0.000000 -0.012594
# 2 0.008044 0.001578 -0.001866 0.000000 0.000000 0.012594
# 3 -0.001866 -0.001866 0.006295 0.000000 0.000000 0.000000
# 4 0.000000 0.000000 0.000000 -0.047322 0.000000 0.000000
# 5 0.000000 0.000000 0.000000 0.000000 -0.047322 0.000000
# 6 -0.012594 0.012594 0.000000 0.000000 0.000000 0.051326
#
#
# Mechanical properties :
#
#
# Convention : Reuss Voigt Hill
#
# Bulk Modulus (GPa) = 55.32416 61.50925 58.41671
# Shear Modulus (GPa) = -137.11650 -3.12920 -70.12285
#
# Velocity S-wave (km/s) = -9.20986 -1.39131 -6.58624
# Velocity P-wave (km/s) = 8.88095 5.95560 4.65844
#
# Compressibility (1/GPa) = 0.01807528
#
# Stress axis : x y z
#
# Youngs Moduli (GPa) = 633.62064 633.62064 158.84619
#
# Poissons Ratio (x) = -5.09702 0.29645
# Poissons Ratio (y) = -5.09702 0.29645
# Poissons Ratio (z) = 1.18251 1.18251
#
# Static dielectric constant tensor:
#      x y z
#    x 1.525350 0.000000 0.000000 
#    y 0.000000 1.525350 0.000000 
#    z 0.000000 0.000000 1.596560 
# 
# From -- ./inp_files/2188.got.cif
#   From: 2010.05.17/outbox.cif.g08.bks.cpg/sg83_2_cif.got.tgz:2188.got - 2010.06.03 18:55:12.
