data_PCOD9543607
_publ_section_title
;
Structure prediction by ZEFSAII (Michael W. Deem and Ramdas Pophale) SiO2 
 PCOD9543607
Probable space group: P 4/M
;
_chemical_formula_sum "Si O2"
_cell_formula_units_Z 44
_cell_length_a 15.766096
_cell_length_b 15.766096
_cell_length_c 10.380002
_cell_angle_alpha 90.000000
_cell_angle_beta 90.000000
_cell_angle_gamma 90.000000
_cell_volume 2580.154846
_symmetry_space_group_name_H-M "P 4/M"
_symmetry_group_IT_number 83
_symmetry_cell_setting 'tetragonal'
loop_
_space_group_symop_operation_xyz
x,y,z
-y,x,z
-x,-y,z
y,-x,z
-x,-y,-z
y,-x,-z
x,y,-z
-y,x,-z
loop_
_atom_site_type_symbol
_atom_site_label
_atom_site_fract_x
_atom_site_fract_y
_atom_site_fract_z
Si Si1 0.548883 0.626774 0.656363
Si Si2 0.024629 0.262204 0.144515
Si Si3 0.344385 0.212678 0.651503
Si Si4 0.598572 0.982087 0.351211
Si Si5 0.817902 0.849274 0.770173
Si Si6 0.111455 0.087872 0.500000
O O1 0.452972 0.606656 0.698044
O O2 0.546930 0.626051 0.500000
O O3 0.589385 0.715737 0.693428
O O4 0.024595 0.335678 0.252584
O O5 0.935386 0.211993 0.160048
O O6 0.103181 0.198651 0.166861
O O7 0.028927 0.297377 0.000000
O O8 0.321637 0.228436 0.500000
O O9 0.384006 0.118692 0.656486
O O10 0.262819 0.210635 0.743776
O O11 0.615444 0.008427 0.500000
O O12 0.500000 0.000000 0.323061
O O13 0.845223 0.878393 0.627616
O O14 0.013607 0.114803 0.500000
#
# Coordination Sequence:
#
# PCOD9543607 Si02
#       6
#     8   8   8   8   8   4
#     4   8  14  25  41  65 100 136 165 199 251 316
#     4  11  24  38  54  76 108 146 180 218 266 322
#     4   9  17  28  48  74 102 134 170 215 268 312
#     4   9  20  37  56  79 105 136 178 228 271 319
#     4  11  21  34  52  75 107 138 180 225 263 315
#     4  11  20  32  52  78  98 139 182 228 276 319
#
# _framework density 17.053239999999999
#
# number of rings (size 3 to 8) (size 9 to 14) (size 15 to 20)
#    0.000    2.273    2.727    1.091    2.545    2.182 
#    0.000    4.545    0.000    0.000    0.000    0.000 
#    0.000    0.000    0.000   51.636    0.000   18.364 
#
# Total GULP energy -245296.078274 kJ/mol
# GULP energy per Si atom -5574.910870 kJ/mol
# Density = 1.701443 g / cm^3
# Si number density = 17.053240 Si / 1000 Ang^3
#
#
#
# Elastic Constant Matrix: (Units=GPa)
#
#
# Indices 1 2 3 4 5 6 
#
# 1 63.9914 22.0496 26.8394 0.0000 0.0000 -10.5337
# 2 22.0496 63.9914 26.8394 0.0000 0.0000 10.5337
# 3 26.8394 26.8394 74.2872 0.0000 0.0000 0.0000
# 4 0.0000 0.0000 0.0000 -50.5170 0.0000 0.0000
# 5 0.0000 0.0000 0.0000 0.0000 -50.5170 0.0000
# 6 -10.5337 10.5337 0.0000 0.0000 0.0000 29.6571
#
#
#
# Elastic Compliance Matrix: (Units=1/GPa)
#
#
# Indices 1 2 3 4 5 6 
#
# 1 0.022012 -0.007008 -0.005421 0.000000 0.000000 0.010307
# 2 -0.007008 0.022012 -0.005421 0.000000 0.000000 -0.010307
# 3 -0.005421 -0.005421 0.017378 0.000000 0.000000 0.000000
# 4 0.000000 0.000000 0.000000 -0.019795 0.000000 0.000000
# 5 0.000000 0.000000 0.000000 0.000000 -0.019795 0.000000
# 6 0.010307 -0.010307 0.000000 0.000000 0.000000 0.041041
#
#
# Mechanical properties :
#
#
# Convention : Reuss Voigt Hill
#
# Bulk Modulus (GPa) = 38.90557 39.30296 39.10427
# Shear Modulus (GPa) = 46.67657 -5.83928 20.41865
#
# Velocity S-wave (km/s) = 5.23741 -1.85245 3.46402
# Velocity P-wave (km/s) = 7.70959 4.30370 6.24338
#
# Compressibility (1/GPa) = 0.02570326
#
# Stress axis : x y z
#
# Youngs Moduli (GPa) = 45.42938 45.42938 57.54280
#
# Poissons Ratio (x) = 0.31836 0.31194
# Poissons Ratio (y) = 0.31836 0.31194
# Poissons Ratio (z) = 0.24627 0.24627
#
# Static dielectric constant tensor:
#      x y z
#    x 1.577300 0.000000 0.000000 
#    y 0.000000 1.577300 0.000000 
#    z 0.000000 0.000000 1.567820 
# 
# From -- ./inp_files/1716.got.cif
#   From: 2010.05.17/outbox.cif.g08.bks.cpg/sg83_1_cif.got.tgz:1716.got - 2010.06.03 18:55:12.
