data_PCOD9543706
_publ_section_title
;
Structure prediction by ZEFSAII (Michael W. Deem and Ramdas Pophale) SiO2 
 PCOD9543706
Probable space group: P 4/M
;
_chemical_formula_sum "Si O2"
_cell_formula_units_Z 44
_cell_length_a 7.977144
_cell_length_b 7.977144
_cell_length_c 30.699509
_cell_angle_alpha 90.000000
_cell_angle_beta 90.000000
_cell_angle_gamma 90.000000
_cell_volume 1953.557926
_symmetry_space_group_name_H-M "P 4/M"
_symmetry_group_IT_number 83
_symmetry_cell_setting 'tetragonal'
loop_
_space_group_symop_operation_xyz
x,y,z
-y,x,z
-x,-y,z
y,-x,z
-x,-y,-z
y,-x,-z
x,y,-z
-y,x,-z
loop_
_atom_site_type_symbol
_atom_site_label
_atom_site_fract_x
_atom_site_fract_y
_atom_site_fract_z
Si Si1 0.911003 0.732171 0.319596
Si Si2 0.232724 0.407411 0.233463
Si Si3 0.234240 0.395795 0.139783
Si Si4 0.419799 0.768301 0.500000
Si Si5 0.731220 0.089684 0.585469
Si Si6 0.235472 0.391889 0.953385
O O1 0.869212 0.630936 0.276584
O O2 0.879238 0.650968 0.366949
O O3 0.100922 0.796992 0.318485
O O4 0.401648 0.295806 0.234446
O O5 0.148565 0.367539 0.186520
O O6 0.409492 0.292812 0.139773
O O7 0.148795 0.358624 0.093219
O O8 0.299003 0.606952 0.500000
O O9 0.377841 0.865991 0.543991
O O10 0.899488 0.202744 0.583495
O O11 0.412401 0.291391 0.953387
O O12 0.149767 0.356460 0.000000
#
# Coordination Sequence:
#
# PCOD9543706 Si02
#       6
#     8   8   8   4   8   8
#     4   9  19  35  52  70  92 118 152 194 232 264
#     4   9  17  28  43  65  93 123 151 181 223 275
#     4   7  10  17  28  45  74 109 140 171 211 260
#     4  11  24  37  50  76 110 133 150 179 218 260
#     4   9  19  37  58  75  92 120 158 194 227 265
#     4   7   8  10  19  37  63  98 137 171 204 248
#
# _framework density 22.523005000000001
#
# number of rings (size 3 to 8) (size 9 to 14) (size 15 to 20)
#    0.000    3.545    0.000    4.364    0.000    4.364 
#    0.000    5.455    0.000    0.000    0.000    0.000 
#    0.000    1.455    0.000   16.182    0.000   14.545 
#
# Total GULP energy -245541.212636 kJ/mol
# GULP energy per Si atom -5580.482105 kJ/mol
# Density = 2.247174 g / cm^3
# Si number density = 22.523005 Si / 1000 Ang^3
#
#
#
# Elastic Constant Matrix: (Units=GPa)
#
#
# Indices 1 2 3 4 5 6 
#
# 1 35.3400 23.0418 55.1000 0.0000 0.0000 0.3835
# 2 23.0418 35.3400 55.1000 0.0000 0.0000 -0.3835
# 3 55.1000 55.1000 306.9125 0.0000 0.0000 0.0000
# 4 0.0000 0.0000 0.0000 51.5942 0.0000 0.0000
# 5 0.0000 0.0000 0.0000 0.0000 51.5942 0.0000
# 6 0.3835 -0.3835 0.0000 0.0000 0.0000 23.8549
#
#
#
# Elastic Compliance Matrix: (Units=1/GPa)
#
#
# Indices 1 2 3 4 5 6 
#
# 1 0.053651 -0.027743 -0.004651 0.000000 0.000000 -0.001309
# 2 -0.027743 0.053651 -0.004651 0.000000 0.000000 0.001309
# 3 -0.004651 -0.004651 0.004928 0.000000 0.000000 0.000000
# 4 0.000000 0.000000 0.000000 0.019382 0.000000 0.000000
# 5 0.000000 0.000000 0.000000 0.000000 0.019382 0.000000
# 6 -0.001309 0.001309 0.000000 0.000000 0.000000 0.041962
#
#
# Mechanical properties :
#
#
# Convention : Reuss Voigt Hill
#
# Bulk Modulus (GPa) = 26.21930 71.56400 48.89165
# Shear Modulus (GPa) = 17.87234 41.69870 29.78552
#
# Velocity S-wave (km/s) = 2.82000 4.30744 3.64049
# Velocity P-wave (km/s) = 4.71906 7.52206 6.27897
#
# Compressibility (1/GPa) = 0.03813984
#
# Stress axis : x y z
#
# Youngs Moduli (GPa) = 18.63885 18.63885 202.90697
#
# Poissons Ratio (x) = 0.51710 0.94379
# Poissons Ratio (y) = 0.51710 0.94379
# Poissons Ratio (z) = 0.08670 0.08670
#
# Static dielectric constant tensor:
#      x y z
#    x 1.833240 0.000000 0.000000 
#    y 0.000000 1.833240 0.000000 
#    z 0.000000 0.000000 1.904180 
# 
# From -- ./inp_files/3355.got.cif
#   From: 2010.05.17/outbox.cif.g08.bks.cpg/sg83_2_cif.got.tgz:3355.got - 2010.06.03 18:55:12.
