data_PCOD9543773
_publ_section_title
;
Structure prediction by ZEFSAII (Michael W. Deem and Ramdas Pophale) SiO2 
 PCOD9543773
Probable space group: P 4/M
;
_chemical_formula_sum "Si O2"
_cell_formula_units_Z 36
_cell_length_a 8.188995
_cell_length_b 8.188995
_cell_length_c 24.137811
_cell_angle_alpha 90.000000
_cell_angle_beta 90.000000
_cell_angle_gamma 90.000000
_cell_volume 1618.672895
_symmetry_space_group_name_H-M "P 4/M"
_symmetry_group_IT_number 83
_symmetry_cell_setting 'tetragonal'
loop_
_space_group_symop_operation_xyz
x,y,z
-y,x,z
-x,-y,z
y,-x,z
-x,-y,-z
y,-x,-z
x,y,-z
-y,x,-z
loop_
_atom_site_type_symbol
_atom_site_label
_atom_site_fract_x
_atom_site_fract_y
_atom_site_fract_z
Si Si1 0.908793 0.738722 0.212223
Si Si2 0.083498 0.262543 0.000000
Si Si3 0.084991 0.261825 0.664761
Si Si4 0.236999 0.417691 0.439244
Si Si5 0.761783 0.584105 0.106151
O O1 0.885924 0.666909 0.273884
O O2 0.853683 0.622117 0.163225
O O3 0.095320 0.800788 0.207638
O O4 0.127870 0.364292 0.054453
O O5 0.899314 0.197355 0.000000
O O6 0.129588 0.373039 0.613216
O O7 0.900385 0.197152 0.661651
O O8 0.398348 0.303924 0.436809
O O9 0.159875 0.389972 0.500000
O O10 0.600154 0.697809 0.103496
#
# Coordination Sequence:
#
# PCOD9543773 Si02
#       5
#     8   4   8   8   8
#     4   9  19  37  58  79 106 141 180 219 262 316
#     4  11  24  41  62  86 110 141 182 223 264 312
#     4   9  19  35  54  78 107 137 173 220 268 314
#     4   9  19  35  52  72 102 139 177 218 265 318
#     4  11  24  39  56  83 116 145 177 219 264 311
#
# _framework density 22.240442999999999
#
# number of rings (size 3 to 8) (size 9 to 14) (size 15 to 20)
#    0.000    2.333    0.000    4.000    0.000   10.667 
#    0.000   10.000    0.000    0.000    0.000    0.000 
#    0.000    0.000    0.000    0.000    0.000    0.000 
#
# Total GULP energy -201579.465930 kJ/mol
# GULP energy per Si atom -5599.429609 kJ/mol
# Density = 2.218982 g / cm^3
# Si number density = 22.240443 Si / 1000 Ang^3
#
#
#
# Elastic Constant Matrix: (Units=GPa)
#
#
# Indices 1 2 3 4 5 6 
#
# 1 72.7285 48.7432 68.9935 0.0000 0.0000 -0.7244
# 2 48.7432 72.7285 68.9935 0.0000 0.0000 0.7244
# 3 68.9935 68.9935 222.8278 0.0000 0.0000 0.0000
# 4 0.0000 0.0000 0.0000 419.4618 0.0000 0.0000
# 5 0.0000 0.0000 0.0000 0.0000 419.4618 0.0000
# 6 -0.7244 0.7244 0.0000 0.0000 0.0000 44.2052
#
#
#
# Elastic Compliance Matrix: (Units=1/GPa)
#
#
# Indices 1 2 3 4 5 6 
#
# 1 0.027216 -0.014517 -0.003932 0.000000 0.000000 0.000684
# 2 -0.014517 0.027216 -0.003932 0.000000 0.000000 -0.000684
# 3 -0.003932 -0.003932 0.006923 0.000000 0.000000 0.000000
# 4 0.000000 0.000000 0.000000 0.002384 0.000000 0.000000
# 5 0.000000 0.000000 0.000000 0.000000 0.002384 0.000000
# 6 0.000684 -0.000684 0.000000 0.000000 0.000000 0.022644
#
#
# Mechanical properties :
#
#
# Convention : Reuss Voigt Hill
#
# Bulk Modulus (GPa) = 60.26746 82.41612 71.34179
# Shear Modulus (GPa) = 35.95561 188.72943 112.34252
#
# Velocity S-wave (km/s) = 4.02515 9.22187 7.11494
# Velocity P-wave (km/s) = 6.98280 12.26898 9.98217
#
# Compressibility (1/GPa) = 0.01659270
#
# Stress axis : x y z
#
# Youngs Moduli (GPa) = 36.74285 36.74285 144.45400
#
# Poissons Ratio (x) = 0.53341 0.56798
# Poissons Ratio (y) = 0.53341 0.56798
# Poissons Ratio (z) = 0.14447 0.14447
#
# Static dielectric constant tensor:
#      x y z
#    x 1.799450 0.000000 0.000000 
#    y 0.000000 1.799450 0.000000 
#    z 0.000000 0.000000 1.784560 
# 
# From -- ./inp_files/2846.got.cif
#   From: 2010.05.17/outbox.cif.g08.bks.cpg/sg83_2_cif.got.tgz:2846.got - 2010.06.03 18:55:12.
