data_PCOD9543848
_publ_section_title
;
Structure prediction by ZEFSAII (Michael W. Deem and Ramdas Pophale) SiO2 
 PCOD9543848
Probable space group: P 4/M
;
_chemical_formula_sum "Si O2"
_cell_formula_units_Z 41
_cell_length_a 8.547794
_cell_length_b 8.547794
_cell_length_c 26.900253
_cell_angle_alpha 90.000000
_cell_angle_beta 90.000000
_cell_angle_gamma 90.000000
_cell_volume 1965.461128
_symmetry_space_group_name_H-M "P 4/M"
_symmetry_group_IT_number 83
_symmetry_cell_setting 'tetragonal'
loop_
_space_group_symop_operation_xyz
x,y,z
-y,x,z
-x,-y,z
y,-x,z
-x,-y,-z
y,-x,-z
x,y,-z
-y,x,-z
loop_
_atom_site_type_symbol
_atom_site_label
_atom_site_fract_x
_atom_site_fract_y
_atom_site_fract_z
Si Si1 0.896776 0.239776 0.604629
Si Si2 0.157644 0.598549 0.500000
Si Si3 0.500000 0.500000 0.500000
Si Si4 0.082880 0.748129 0.000000
Si Si5 0.250945 0.586521 0.693309
Si Si6 0.584350 0.751141 0.804175
Si Si7 0.252652 0.082325 0.891602
O O1 0.851652 0.303825 0.550701
O O2 0.853227 0.361225 0.647629
O O3 0.078298 0.197660 0.609930
O O4 0.308586 0.487412 0.500000
O O5 0.000000 0.500000 0.500000
O O6 0.108672 0.671531 0.053691
O O7 0.904939 0.811446 0.000000
O O8 0.309266 0.408583 0.690010
O O9 0.182540 0.609298 0.748576
O O10 0.406319 0.690243 0.808286
O O11 0.635433 0.867885 0.847187
O O12 0.095320 0.189335 0.888480
#
# Coordination Sequence:
#
# PCOD9543848 Si02
#       7
#     8   4   1   4   8   8   8
#     4  11  25  43  63  92 130 163 193 250 316 363
#     4  12  28  47  70 103 132 167 215 262 304 370
#     4  12  28  44  76 104 124 180 228 252 308 394
#     4   7  12  26  46  71 102 138 180 231 288 343
#     4   9  21  39  62  85 112 151 205 250 288 358
#     4   9  19  37  54  76 110 151 189 237 291 346
#     4   9  17  30  52  78 105 139 185 238 290 350
#
# _framework density 20.860246
#
# number of rings (size 3 to 8) (size 9 to 14) (size 15 to 20)
#    0.000    2.439    0.000    4.098    5.463    3.122 
#    0.000    6.829    0.000    4.683    0.000    0.000 
#    0.000    0.000    0.000    0.000    0.000    0.000 
#
# Total GULP energy -228839.553007 kJ/mol
# GULP energy per Si atom -5581.452512 kJ/mol
# Density = 2.081277 g / cm^3
# Si number density = 20.860246 Si / 1000 Ang^3
#
#
#
# Elastic Constant Matrix: (Units=GPa)
#
#
# Indices 1 2 3 4 5 6 
#
# 1 41.3290 35.2481 45.1351 0.0000 0.0000 4.0294
# 2 35.2481 41.3290 45.1351 0.0000 0.0000 -4.0294
# 3 45.1351 45.1351 178.4245 0.0000 0.0000 0.0000
# 4 0.0000 0.0000 0.0000 78.2006 0.0000 0.0000
# 5 0.0000 0.0000 0.0000 0.0000 78.2006 0.0000
# 6 4.0294 -4.0294 0.0000 0.0000 0.0000 30.5821
#
#
#
# Elastic Compliance Matrix: (Units=1/GPa)
#
#
# Indices 1 2 3 4 5 6 
#
# 1 0.108925 -0.090317 -0.004707 0.000000 0.000000 -0.026251
# 2 -0.090317 0.108925 -0.004707 0.000000 0.000000 0.026251
# 3 -0.004707 -0.004707 0.007986 0.000000 0.000000 0.000000
# 4 0.000000 0.000000 0.000000 0.012788 0.000000 0.000000
# 5 0.000000 0.000000 0.000000 0.000000 0.012788 0.000000
# 6 -0.026251 0.026251 0.000000 0.000000 0.000000 0.039616
#
#
# Mechanical properties :
#
#
# Convention : Reuss Voigt Hill
#
# Bulk Modulus (GPa) = 37.91782 56.90213 47.40998
# Shear Modulus (GPa) = 10.01440 46.43425 28.22433
#
# Velocity S-wave (km/s) = 2.19343 4.72314 3.68233
# Velocity P-wave (km/s) = 4.96300 7.55520 6.39189
#
# Compressibility (1/GPa) = 0.02637282
#
# Stress axis : x y z
#
# Youngs Moduli (GPa) = 9.18065 9.18065 125.21862
#
# Poissons Ratio (x) = 0.82917 0.58941
# Poissons Ratio (y) = 0.82917 0.58941
# Poissons Ratio (z) = 0.04321 0.04321
#
# Static dielectric constant tensor:
#      x y z
#    x 1.863790 0.000000 0.000000 
#    y 0.000000 1.863790 0.000000 
#    z 0.000000 0.000000 1.757930 
# 
# From -- ./inp_files/3308.got.cif
#   From: 2010.05.17/outbox.cif.g08.bks.cpg/sg83_2_cif.got.tgz:3308.got - 2010.06.03 18:55:12.
