data_PCOD9543007
_publ_section_title
;
Structure prediction by ZEFSAII (Michael W. Deem and Ramdas Pophale) SiO2 
 PCOD9543007
Probable space group: I -4 
;
_chemical_formula_sum "Si O2"
_cell_formula_units_Z 16
_cell_length_a 5.249556
_cell_length_b 5.249556
_cell_length_c 24.422654
_cell_angle_alpha 90.000000
_cell_angle_beta 90.000000
_cell_angle_gamma 90.000000
_cell_volume 673.035547
_symmetry_space_group_name_H-M "I -4 "
_symmetry_group_IT_number 82
_symmetry_cell_setting 'tetragonal'
loop_
_space_group_symop_operation_xyz
x,y,z
y,-x,-z
-x,-y,z
-y,x,-z
1/2+x,1/2+y,1/2+z
1/2+y,1/2-x,1/2-z
1/2-x,1/2-y,1/2+z
1/2-y,1/2+x,1/2-z
loop_
_atom_site_type_symbol
_atom_site_label
_atom_site_fract_x
_atom_site_fract_y
_atom_site_fract_z
Si Si1 0.500000 0.500000 0.317089
Si Si2 0.500000 0.000000 0.750000
Si Si3 0.000000 0.000000 0.500000
Si Si4 0.348022 0.743764 0.424420
O O1 0.744307 0.590304 0.282424
O O2 0.360795 0.699190 0.358918
O O3 0.088724 0.783548 0.457250
O O4 0.500000 0.500000 0.444172
O O5 0.500000 0.000000 0.435394
#
# Coordination Sequence:
#
# PCOD9543007 Si02
#       4
#     4   2   2   8
#     4  10  30  49  81 116 154 202 274 332 398 476
#     4  12  28  48  88 104 156 208 264 336 420 442
#     4  12  28  46  84 112 180 214 260 320 428 466
#     4  10  28  47  76 114 165 205 269 326 391 492
#
# _framework density 23.77289
#
# number of rings (size 3 to 8) (size 9 to 14) (size 15 to 20)
#    1.500    0.000    0.000    0.000   21.000    0.000 
#    0.000    0.000    0.000    0.000    0.000    0.000 
#    0.000    0.000    0.000    0.000    0.000    0.000 
#
# Total GULP energy -44554.230714 kJ/mol
# GULP energy per Si atom -5569.278839 kJ/mol
# Density = 2.371878 g / cm^3
# Si number density = 23.772890 Si / 1000 Ang^3
#
#
#
# Elastic Constant Matrix: (Units=GPa)
#
#
# Indices 1 2 3 4 5 6 
#
# 1 128.8617 20.4984 36.2547 0.0000 0.0000 0.3418
# 2 20.4984 128.8617 36.2547 0.0000 0.0000 -0.3418
# 3 36.2547 36.2547 124.9020 0.0000 0.0000 0.0000
# 4 0.0000 0.0000 0.0000 36.9139 0.0000 0.0000
# 5 0.0000 0.0000 0.0000 0.0000 36.9139 0.0000
# 6 0.3418 -0.3418 0.0000 0.0000 0.0000 41.3950
#
#
#
# Elastic Compliance Matrix: (Units=1/GPa)
#
#
# Indices 1 2 3 4 5 6 
#
# 1 0.008511 -0.000718 -0.002262 0.000000 0.000000 -0.000076
# 2 -0.000718 0.008511 -0.002262 0.000000 0.000000 0.000076
# 3 -0.002262 -0.002262 0.009320 0.000000 0.000000 0.000000
# 4 0.000000 0.000000 0.000000 0.027090 0.000000 0.000000
# 5 0.000000 0.000000 0.000000 0.000000 0.027090 0.000000
# 6 -0.000076 0.000076 0.000000 0.000000 0.000000 0.024159
#
#
# Mechanical properties :
#
#
# Convention : Reuss Voigt Hill
#
# Bulk Modulus (GPa) = 63.06065 63.18233 63.12149
# Shear Modulus (GPa) = 41.51086 42.35240 41.93163
#
# Velocity S-wave (km/s) = 4.18322 4.22541 4.20437
# Velocity P-wave (km/s) = 7.06515 7.10216 7.08368
#
# Compressibility (1/GPa) = 0.01585775
#
# Stress axis : x y z
#
# Youngs Moduli (GPa) = 117.49411 117.49411 107.30156
#
# Poissons Ratio (x) = 0.08432 0.24273
# Poissons Ratio (y) = 0.08432 0.24273
# Poissons Ratio (z) = 0.26579 0.26579
#
# Static dielectric constant tensor:
#      x y z
#    x 1.931490 0.000000 0.000000 
#    y 0.000000 1.931490 0.000000 
#    z 0.000000 0.000000 1.991630 
# 
# From -- ./inp_files/2754.got.cif
#   From: 2010.05.17/outbox.cif.g08.bks.cpg/sg82_2_cif.got.tgz:2754.got - 2010.06.03 18:52:26.
