data_PCOD9543605
_publ_section_title
;
Structure prediction by ZEFSAII (Michael W. Deem and Ramdas Pophale) SiO2 
 PCOD9543605
Probable space group: P 4/M
;
_chemical_formula_sum "Si O2"
_cell_formula_units_Z 44
_cell_length_a 17.605572
_cell_length_b 17.605572
_cell_length_c 9.759997
_cell_angle_alpha 90.000000
_cell_angle_beta 90.000000
_cell_angle_gamma 90.000000
_cell_volume 3025.171245
_symmetry_space_group_name_H-M "P 4/M"
_symmetry_group_IT_number 83
_symmetry_cell_setting 'tetragonal'
loop_
_space_group_symop_operation_xyz
x,y,z
-y,x,z
-x,-y,z
y,-x,z
-x,-y,-z
y,-x,-z
x,y,-z
-y,x,-z
loop_
_atom_site_type_symbol
_atom_site_label
_atom_site_fract_x
_atom_site_fract_y
_atom_site_fract_z
Si Si1 0.002602 0.407497 0.159781
Si Si2 0.382314 0.546993 0.500000
Si Si3 0.146656 0.410891 0.657417
Si Si4 0.718419 0.590639 0.146721
Si Si5 0.698852 0.416957 0.779512
Si Si6 0.856932 0.404471 0.660483
O O1 0.931302 0.382274 0.253043
O O2 0.000000 0.500000 0.156953
O O3 0.078662 0.385914 0.242611
O O4 0.000431 0.382975 0.000000
O O5 0.405346 0.459339 0.500000
O O6 0.334293 0.565791 0.631000
O O7 0.139255 0.385087 0.500000
O O8 0.226517 0.390261 0.727270
O O9 0.144186 0.503145 0.654820
O O10 0.702279 0.500157 0.152351
O O11 0.642710 0.641058 0.154678
O O12 0.757007 0.605449 0.000000
O O13 0.782638 0.384216 0.750123
O O14 0.855985 0.379174 0.500000
#
# Coordination Sequence:
#
# PCOD9543605 Si02
#       6
#     8   4   8   8   8   8
#     4   9  16  27  43  62  84 103 124 159 209 259
#     4  11  20  32  48  62  73 107 155 197 226 257
#     4   9  18  30  46  62  78 102 135 170 209 255
#     4  11  23  34  44  60  84 111 142 183 227 264
#     4  11  21  32  47  60  83 109 147 183 224 259
#     4   9  17  27  44  62  80 102 132 172 208 254
#
# _framework density 14.544632
#
# number of rings (size 3 to 8) (size 9 to 14) (size 15 to 20)
#    0.000    2.091    2.727    1.636    2.545    7.636 
#    0.000    0.909    0.000    0.000    0.000    0.000 
#    0.000    0.000    0.000    0.000    0.000    0.909 
#
# Total GULP energy -245074.955804 kJ/mol
# GULP energy per Si atom -5569.885359 kJ/mol
# Density = 1.451153 g / cm^3
# Si number density = 14.544632 Si / 1000 Ang^3
#
#
#
# Elastic Constant Matrix: (Units=GPa)
#
#
# Indices 1 2 3 4 5 6 
#
# 1 60.1063 17.8968 26.7584 0.0000 0.0000 -0.1799
# 2 17.8968 60.1063 26.7584 0.0000 0.0000 0.1799
# 3 26.7584 26.7584 116.3947 0.0000 0.0000 0.0000
# 4 0.0000 0.0000 0.0000 -3.4238 0.0000 0.0000
# 5 0.0000 0.0000 0.0000 0.0000 -3.4238 0.0000
# 6 -0.1799 0.1799 0.0000 0.0000 0.0000 2.0099
#
#
#
# Elastic Compliance Matrix: (Units=1/GPa)
#
#
# Indices 1 2 3 4 5 6 
#
# 1 0.019465 -0.004244 -0.003499 0.000000 0.000000 0.002122
# 2 -0.004244 0.019465 -0.003499 0.000000 0.000000 -0.002122
# 3 -0.003499 -0.003499 0.010200 0.000000 0.000000 0.000000
# 4 0.000000 0.000000 0.000000 -0.292070 0.000000 0.000000
# 5 0.000000 0.000000 0.000000 0.000000 -0.292070 0.000000
# 6 0.002122 -0.002122 0.000000 0.000000 0.000000 0.497909
#
#
# Mechanical properties :
#
#
# Convention : Reuss Voigt Hill
#
# Bulk Modulus (GPa) = 37.53022 42.15937 39.84480
# Shear Modulus (GPa) = -872.01320 10.04537 -430.98391
#
# Velocity S-wave (km/s) = -24.51213 2.63089 -17.23257
# Velocity P-wave (km/s) = 27.84361 6.18691 19.19621
#
# Compressibility (1/GPa) = 0.02664519
#
# Stress axis : x y z
#
# Youngs Moduli (GPa) = 51.37404 51.37404 98.03619
#
# Poissons Ratio (x) = 0.21805 0.34304
# Poissons Ratio (y) = 0.21805 0.34304
# Poissons Ratio (z) = 0.17977 0.17977
#
# Static dielectric constant tensor:
#      x y z
#    x 1.482870 0.000000 0.000000 
#    y 0.000000 1.482870 0.000000 
#    z 0.000000 0.000000 1.498010 
# 
# From -- ./inp_files/922.got.cif
#   From: 2010.05.17/outbox.cif.g08.bks.cpg/sg83_1_cif.got.tgz:922.got - 2010.06.03 18:55:12.
