data_PCOD9543412
_publ_section_title
;
Structure prediction by ZEFSAII (Michael W. Deem and Ramdas Pophale) SiO2 
 PCOD9543412
Probable space group: P 4/M
;
_chemical_formula_sum "Si O2"
_cell_formula_units_Z 48
_cell_length_a 16.376727
_cell_length_b 16.376727
_cell_length_c 10.362499
_cell_angle_alpha 90.000000
_cell_angle_beta 90.000000
_cell_angle_gamma 90.000000
_cell_volume 2779.193084
_symmetry_space_group_name_H-M "P 4/M"
_symmetry_group_IT_number 83
_symmetry_cell_setting 'tetragonal'
loop_
_space_group_symop_operation_xyz
x,y,z
-y,x,z
-x,-y,z
y,-x,z
-x,-y,-z
y,-x,-z
x,y,-z
-y,x,-z
loop_
_atom_site_type_symbol
_atom_site_label
_atom_site_fract_x
_atom_site_fract_y
_atom_site_fract_z
Si Si1 0.277943 0.389427 0.000000
Si Si2 0.419127 0.265725 0.000000
Si Si3 0.847010 0.425116 0.244790
Si Si4 0.871097 0.977637 0.843680
Si Si5 0.834954 0.618784 0.755881
Si Si6 0.740991 0.417824 0.500000
Si Si7 0.994313 0.315093 0.157590
Si Si8 0.387065 0.729494 0.500000
O O1 0.226029 0.366688 0.125512
O O2 0.362600 0.343610 0.000000
O O3 0.288992 0.486275 0.000000
O O4 0.403020 0.211153 0.874789
O O5 0.859564 0.522857 0.242176
O O6 0.798168 0.405072 0.375033
O O7 0.930920 0.378084 0.220298
O O8 0.935058 0.908316 0.801022
O O9 0.777075 0.967003 0.809905
O O10 0.873468 0.977834 0.000000
O O11 0.916404 0.669440 0.783352
O O12 0.784783 0.632973 0.624989
O O13 0.665974 0.353732 0.500000
O O14 0.714288 0.514134 0.500000
O O15 0.996760 0.324944 0.000000
#
# Coordination Sequence:
#
# PCOD9543412 Si02
#       8
#     4   4   8   8   8   4   8   4
#     4  10  20  34  53  79 110 144 184 234 285 334
#     4  10  20  34  53  79 110 144 184 234 285 334
#     4  10  21  36  55  80 112 145 184 235 282 335
#     4   8  16  30  45  68 104 137 171 219 268 320
#     4  10  21  36  55  80 112 145 184 235 282 335
#     4  10  22  40  59  83 116 154 194 240 291 338
#     4  11  20  33  56  85 108 149 188 225 286 356
#     4  10  22  40  59  83 116 154 194 240 291 338
#
# _framework density 17.2712
#
# number of rings (size 3 to 8) (size 9 to 14) (size 15 to 20)
#    0.000    2.167    1.667    2.000    0.000    4.333 
#    0.000    2.500    0.000    6.000    0.000    0.000 
#    0.000    4.000    0.000    0.000    0.000    0.000 
#
# Total GULP energy -267705.756533 kJ/mol
# GULP energy per Si atom -5577.203261 kJ/mol
# Density = 1.723189 g / cm^3
# Si number density = 17.271200 Si / 1000 Ang^3
#
#
#
# Elastic Constant Matrix: (Units=GPa)
#
#
# Indices 1 2 3 4 5 6 
#
# 1 12.0966 13.4833 15.5088 0.0000 0.0000 -10.1627
# 2 13.4833 12.0966 15.5088 0.0000 0.0000 10.1627
# 3 15.5088 15.5088 101.2414 0.0000 0.0000 0.0000
# 4 0.0000 0.0000 0.0000 -21.8909 0.0000 0.0000
# 5 0.0000 0.0000 0.0000 0.0000 -21.8909 0.0000
# 6 -10.1627 10.1627 0.0000 0.0000 0.0000 3.8031
#
#
#
# Elastic Compliance Matrix: (Units=1/GPa)
#
#
# Indices 1 2 3 4 5 6 
#
# 1 0.015029 0.032982 -0.007355 0.000000 0.000000 -0.047975
# 2 0.032982 0.015029 -0.007355 0.000000 0.000000 0.047975
# 3 -0.007355 -0.007355 0.012131 0.000000 0.000000 0.000000
# 4 0.000000 0.000000 0.000000 -0.045681 0.000000 0.000000
# 5 0.000000 0.000000 0.000000 0.000000 -0.045681 0.000000
# 6 -0.047975 0.047975 0.000000 0.000000 0.000000 0.006546
#
#
# Mechanical properties :
#
#
# Convention : Reuss Voigt Hill
#
# Bulk Modulus (GPa) = 12.70089 23.82624 18.26357
# Shear Modulus (GPa) = -94.46770 -2.60016 -48.53393
#
# Velocity S-wave (km/s) = -7.40374 -1.22832 -5.30680
# Velocity P-wave (km/s) = 8.10663 3.43710 5.19152
#
# Compressibility (1/GPa) = 0.07873462
#
# Stress axis : x y z
#
# Youngs Moduli (GPa) = 66.53775 66.53775 82.43582
#
# Poissons Ratio (x) = -2.19456 0.60629
# Poissons Ratio (y) = -2.19456 0.60629
# Poissons Ratio (z) = 0.48936 0.48936
#
# Static dielectric constant tensor:
#      x y z
#    x 1.578190 0.000000 0.000000 
#    y 0.000000 1.578190 0.000000 
#    z 0.000000 0.000000 1.565380 
# 
# From -- ./inp_files/1906.got.cif
#   From: 2010.05.17/outbox.cif.g08.bks.cpg/sg83_1_cif.got.tgz:1906.got - 2010.06.03 18:55:12.
