data_PCOD9543503
_publ_section_title
;
Structure prediction by ZEFSAII (Michael W. Deem and Ramdas Pophale) SiO2 
 PCOD9543503
Probable space group: P 4/M
;
_chemical_formula_sum "Si O2"
_cell_formula_units_Z 48
_cell_length_a 13.795364
_cell_length_b 13.795364
_cell_length_c 12.648365
_cell_angle_alpha 90.000000
_cell_angle_beta 90.000000
_cell_angle_gamma 90.000000
_cell_volume 2407.136499
_symmetry_space_group_name_H-M "P 4/M"
_symmetry_group_IT_number 83
_symmetry_cell_setting 'tetragonal'
loop_
_space_group_symop_operation_xyz
x,y,z
-y,x,z
-x,-y,z
y,-x,z
-x,-y,-z
y,-x,-z
x,y,-z
-y,x,-z
loop_
_atom_site_type_symbol
_atom_site_label
_atom_site_fract_x
_atom_site_fract_y
_atom_site_fract_z
Si Si1 0.605182 0.049925 0.218654
Si Si2 0.240369 0.466928 0.884167
Si Si3 0.235262 0.099545 0.876273
Si Si4 0.802864 0.697539 0.619940
Si Si5 0.895833 0.116138 0.675404
Si Si6 0.706754 0.339917 0.804800
O O1 0.585455 0.138378 0.137827
O O2 0.648737 0.104946 0.321052
O O3 0.500000 0.000000 0.236336
O O4 0.685494 0.976111 0.171951
O O5 0.258378 0.550556 0.799544
O O6 0.324384 0.388166 0.874814
O O7 0.237258 0.512373 0.000000
O O8 0.140419 0.102345 0.801221
O O9 0.281015 0.205642 0.858557
O O10 0.218069 0.080679 0.000000
O O11 0.793747 0.665165 0.500000
O O12 0.817586 0.813848 0.625394
O O13 0.709922 0.680619 0.693743
O O14 0.006848 0.131208 0.645116
#
# Coordination Sequence:
#
# PCOD9543503 Si02
#       6
#     8   8   8   8   8   8
#     4  11  22  38  62  93 125 154 208 255 293 364
#     4  11  21  37  61  90 126 164 196 245 310 364
#     4  11  21  37  59  87 128 167 197 244 305 359
#     4  10  23  44  64  86 121 162 204 261 309 343
#     4  10  21  39  58  86 122 156 210 249 287 371
#     4  10  23  39  58  89 123 154 208 254 292 372
#
# _framework density 19.940705000000001
#
# number of rings (size 3 to 8) (size 9 to 14) (size 15 to 20)
#    0.000    1.500    3.333    2.000    0.000    2.667 
#    0.000    5.833    0.000    0.000    0.000    4.667 
#    0.000    0.000    0.000    0.000    0.000    0.000 
#
# Total GULP energy -267821.449632 kJ/mol
# GULP energy per Si atom -5579.613534 kJ/mol
# Density = 1.989532 g / cm^3
# Si number density = 19.940705 Si / 1000 Ang^3
#
#
#
# Elastic Constant Matrix: (Units=GPa)
#
#
# Indices 1 2 3 4 5 6 
#
# 1 55.5326 6.5036 8.7319 0.0000 0.0000 3.9405
# 2 6.5036 55.5326 8.7319 0.0000 0.0000 -3.9405
# 3 8.7319 8.7319 123.5333 0.0000 0.0000 0.0000
# 4 0.0000 0.0000 0.0000 10.4580 0.0000 0.0000
# 5 0.0000 0.0000 0.0000 0.0000 10.4580 0.0000
# 6 3.9405 -3.9405 0.0000 0.0000 0.0000 28.8582
#
#
#
# Elastic Compliance Matrix: (Units=1/GPa)
#
#
# Indices 1 2 3 4 5 6 
#
# 1 0.018650 -0.002203 -0.001163 0.000000 0.000000 -0.002848
# 2 -0.002203 0.018650 -0.001163 0.000000 0.000000 0.002848
# 3 -0.001163 -0.001163 0.008259 0.000000 0.000000 0.000000
# 4 0.000000 0.000000 0.000000 0.095620 0.000000 0.000000
# 5 0.000000 0.000000 0.000000 0.000000 0.095620 0.000000
# 6 -0.002848 0.002848 0.000000 0.000000 0.000000 0.035430
#
#
# Mechanical properties :
#
#
# Convention : Reuss Voigt Hill
#
# Bulk Modulus (GPa) = 27.39505 31.39258 29.39381
# Shear Modulus (GPa) = 17.03837 23.99693 20.51765
#
# Velocity S-wave (km/s) = 2.92627 3.47279 3.21118
# Velocity P-wave (km/s) = 5.01852 5.64424 5.34055
#
# Compressibility (1/GPa) = 0.03650295
#
# Stress axis : x y z
#
# Youngs Moduli (GPa) = 53.61834 53.61834 121.07523
#
# Poissons Ratio (x) = 0.11815 0.14075
# Poissons Ratio (y) = 0.11815 0.14075
# Poissons Ratio (z) = 0.06233 0.06233
#
# Static dielectric constant tensor:
#      x y z
#    x 1.705430 0.000000 0.000000 
#    y 0.000000 1.705430 0.000000 
#    z 0.000000 0.000000 1.711950 
# 
# From -- ./inp_files/1843.got.cif
#   From: 2010.05.17/outbox.cif.g08.bks.cpg/sg83_1_cif.got.tgz:1843.got - 2010.06.03 18:55:12.
