data_PCOD9543272
_publ_section_title
;
Structure prediction by ZEFSAII (Michael W. Deem and Ramdas Pophale) SiO2 
 PCOD9543272
Probable space group: P 4/M
;
_chemical_formula_sum "Si O2"
_cell_formula_units_Z 48
_cell_length_a 14.623653
_cell_length_b 14.623653
_cell_length_c 16.132417
_cell_angle_alpha 90.000000
_cell_angle_beta 90.000000
_cell_angle_gamma 90.000000
_cell_volume 3449.937171
_symmetry_space_group_name_H-M "P 4/M"
_symmetry_group_IT_number 83
_symmetry_cell_setting 'tetragonal'
loop_
_space_group_symop_operation_xyz
x,y,z
-y,x,z
-x,-y,z
y,-x,z
-x,-y,-z
y,-x,-z
x,y,-z
-y,x,-z
loop_
_atom_site_type_symbol
_atom_site_label
_atom_site_fract_x
_atom_site_fract_y
_atom_site_fract_z
Si Si1 0.141850 0.959880 0.100482
Si Si2 0.636726 0.747128 0.841234
Si Si3 0.696963 0.166417 0.899799
Si Si4 0.636473 0.425934 0.317587
Si Si5 0.362073 0.565153 0.000000
Si Si6 0.426253 0.364106 0.500000
Si Si7 0.892511 0.492030 0.900874
O O1 0.240689 0.920837 0.123699
O O2 0.061036 0.889817 0.126842
O O3 0.140905 0.962056 0.000000
O O4 0.744443 0.739394 0.857240
O O5 0.608906 0.700005 0.755666
O O6 0.590636 0.845899 0.851880
O O7 0.591936 0.690784 0.917300
O O8 0.590039 0.153213 0.880352
O O9 0.703268 0.178020 0.000000
O O10 0.618968 0.535246 0.310604
O O11 0.675765 0.404608 0.409600
O O12 0.382234 0.457991 0.000000
O O13 0.535066 0.381709 0.500000
O O14 0.000000 0.500000 0.885367
O O15 0.880564 0.476464 0.000000
#
# Coordination Sequence:
#
# PCOD9543272 Si02
#       7
#     8   8   8   8   4   4   8
#     4   8  15  27  43  59  73  93 137 190 232 261
#     4  12  20  29  42  58  85 113 149 174 209 249
#     4  10  19  29  43  57  80 112 147 182 215 255
#     4   9  16  26  42  62  85 110 139 173 211 249
#     4  11  20  28  39  54  82 113 145 176 198 230
#     4   7  12  24  40  60  83 106 132 171 215 250
#     4  10  21  33  42  56  82 116 151 184 216 253
#
# _framework density 13.913297
#
# number of rings (size 3 to 8) (size 9 to 14) (size 15 to 20)
#    0.000    2.333    1.667    4.500    2.333    1.333 
#    0.000    0.000    0.000    0.000    0.000    0.583 
#    0.000    0.000    0.000    0.000    0.000    2.500 
#
# Total GULP energy -267401.129042 kJ/mol
# GULP energy per Si atom -5570.856855 kJ/mol
# Density = 1.388163 g / cm^3
# Si number density = 13.913297 Si / 1000 Ang^3
#
#
#
# Elastic Constant Matrix: (Units=GPa)
#
#
# Indices 1 2 3 4 5 6 
#
# 1 48.5043 -9.4416 3.9841 0.0000 0.0000 6.5174
# 2 -9.4416 48.5043 3.9841 0.0000 0.0000 -6.5174
# 3 3.9841 3.9841 64.7976 0.0000 0.0000 0.0000
# 4 0.0000 0.0000 0.0000 6.0454 0.0000 0.0000
# 5 0.0000 0.0000 0.0000 0.0000 6.0454 0.0000
# 6 6.5174 -6.5174 0.0000 0.0000 0.0000 28.4775
#
#
#
# Elastic Compliance Matrix: (Units=1/GPa)
#
#
# Indices 1 2 3 4 5 6 
#
# 1 0.022060 0.003865 -0.001594 0.000000 0.000000 -0.004164
# 2 0.003865 0.022060 -0.001594 0.000000 0.000000 0.004164
# 3 -0.001594 -0.001594 0.015629 0.000000 0.000000 0.000000
# 4 0.000000 0.000000 0.000000 0.165415 0.000000 0.000000
# 5 0.000000 0.000000 0.000000 0.000000 0.165415 0.000000
# 6 -0.004164 0.004164 0.000000 0.000000 0.000000 0.037021
#
#
# Mechanical properties :
#
#
# Convention : Reuss Voigt Hill
#
# Bulk Modulus (GPa) = 16.36589 17.65104 17.00846
# Shear Modulus (GPa) = 11.19541 18.99898 15.09719
#
# Velocity S-wave (km/s) = 2.83972 3.69931 3.29765
# Velocity P-wave (km/s) = 4.74767 5.56422 5.17208
#
# Compressibility (1/GPa) = 0.06110271
#
# Stress axis : x y z
#
# Youngs Moduli (GPa) = 45.33178 45.33178 63.98490
#
# Poissons Ratio (x) = -0.17523 0.10199
# Poissons Ratio (y) = -0.17523 0.10199
# Poissons Ratio (z) = 0.07226 0.07226
#
# Static dielectric constant tensor:
#      x y z
#    x 1.477200 0.000000 0.000000 
#    y 0.000000 1.477200 0.000000 
#    z 0.000000 0.000000 1.436170 
# 
# From -- ./inp_files/2371.got.cif
#   From: 2010.05.17/outbox.cif.g08.bks.cpg/sg83_2_cif.got.tgz:2371.got - 2010.06.03 18:55:12.
