data_PCOD9543172
_publ_section_title
;
Structure prediction by ZEFSAII (Michael W. Deem and Ramdas Pophale) SiO2 
 PCOD9543172
Probable space group: I -4 
;
_chemical_formula_sum "Si O2"
_cell_formula_units_Z 36
_cell_length_a 14.335082
_cell_length_b 14.335082
_cell_length_c 8.435152
_cell_angle_alpha 90.000000
_cell_angle_beta 90.000000
_cell_angle_gamma 90.000000
_cell_volume 1733.377983
_symmetry_space_group_name_H-M "I -4 "
_symmetry_group_IT_number 82
_symmetry_cell_setting 'tetragonal'
loop_
_space_group_symop_operation_xyz
x,y,z
y,-x,-z
-x,-y,z
-y,x,-z
1/2+x,1/2+y,1/2+z
1/2+y,1/2-x,1/2-z
1/2-x,1/2-y,1/2+z
1/2-y,1/2+x,1/2-z
loop_
_atom_site_type_symbol
_atom_site_label
_atom_site_fract_x
_atom_site_fract_y
_atom_site_fract_z
Si Si1 0.500000 0.000000 0.750000
Si Si2 0.791880 0.799285 0.838646
Si Si3 0.321860 0.525609 0.844132
Si Si4 0.000000 0.000000 0.500000
Si Si5 0.785954 0.518436 0.163911
Si Si6 0.330159 0.650580 0.301984
O O1 0.504437 0.101743 0.835896
O O2 0.725175 0.711460 0.820686
O O3 0.890743 0.780174 0.756297
O O4 0.740290 0.882555 0.743160
O O5 0.811322 0.820883 0.020910
O O6 0.355216 0.438584 0.739010
O O7 0.421876 0.559704 0.911585
O O8 0.254048 0.496920 0.987037
O O9 0.730242 0.442163 0.271089
#
# Coordination Sequence:
#
# PCOD9543172 Si02
#       6
#     2   8   8   2   8   8
#     4  12  28  40  72  98 140 184 222 264 340 400
#     4  12  25  43  69 101 136 180 230 283 340 404
#     4  12  23  44  70 103 136 174 228 287 343 400
#     4  12  20  36  74 100 128 176 210 292 348 388
#     4  12  23  45  70  98 137 180 226 279 343 403
#     4  12  25  43  69 101 136 180 230 283 340 404
#
# _framework density 20.768695999999998
#
# number of rings (size 3 to 8) (size 9 to 14) (size 15 to 20)
#    0.000    0.000    6.667    4.000    0.000    0.000 
#    0.000    2.222    0.000    2.667    0.000    0.000 
#    0.000    0.000    0.000    0.000    0.000    0.000 
#
# Total GULP energy -100581.931152 kJ/mol
# GULP energy per Si atom -5587.885064 kJ/mol
# Density = 2.072143 g / cm^3
# Si number density = 20.768696 Si / 1000 Ang^3
#
#
#
# Elastic Constant Matrix: (Units=GPa)
#
#
# Indices 1 2 3 4 5 6 
#
# 1 108.1371 -1.3075 3.2306 0.0000 0.0000 -5.5281
# 2 -1.3075 108.1371 3.2306 0.0000 0.0000 5.5281
# 3 3.2306 3.2306 88.6295 0.0000 0.0000 0.0000
# 4 0.0000 0.0000 0.0000 24.4597 0.0000 0.0000
# 5 0.0000 0.0000 0.0000 0.0000 24.4597 0.0000
# 6 -5.5281 5.5281 0.0000 0.0000 0.0000 7.6730
#
#
#
# Elastic Compliance Matrix: (Units=1/GPa)
#
#
# Indices 1 2 3 4 5 6 
#
# 1 0.009618 -0.000236 -0.000342 0.000000 0.000000 0.007100
# 2 -0.000236 0.009618 -0.000342 0.000000 0.000000 -0.007100
# 3 -0.000342 -0.000342 0.011308 0.000000 0.000000 0.000000
# 4 0.000000 0.000000 0.000000 0.040884 0.000000 0.000000
# 5 0.000000 0.000000 0.000000 0.000000 0.040884 0.000000
# 6 0.007100 -0.007100 0.000000 0.000000 0.000000 0.140557
#
#
# Mechanical properties :
#
#
# Convention : Reuss Voigt Hill
#
# Bulk Modulus (GPa) = 34.83982 35.02346 34.93164
# Shear Modulus (GPa) = 18.91962 31.30181 25.11072
#
# Velocity S-wave (km/s) = 3.02150 3.88643 3.48093
# Velocity P-wave (km/s) = 5.38370 6.08599 5.74559
#
# Compressibility (1/GPa) = 0.02870279
#
# Stress axis : x y z
#
# Youngs Moduli (GPa) = 103.97367 103.97367 88.43406
#
# Poissons Ratio (x) = 0.02458 0.03024
# Poissons Ratio (y) = 0.02458 0.03024
# Poissons Ratio (z) = 0.03555 0.03555
#
# Static dielectric constant tensor:
#      x y z
#    x 1.743120 0.000000 0.000000 
#    y 0.000000 1.743120 0.000000 
#    z 0.000000 0.000000 1.734420 
# 
# From -- ./inp_files/863.got.cif
#   From: 2010.05.17/outbox.cif.g08.bks.cpg/sg82_1_cif.got.tgz:863.got - 2010.06.03 18:52:26.
