data_PCOD9543457
_publ_section_title
;
Structure prediction by ZEFSAII (Michael W. Deem and Ramdas Pophale) SiO2 
 PCOD9543457
Probable space group: P 4/M
;
_chemical_formula_sum "Si O2"
_cell_formula_units_Z 36
_cell_length_a 15.248580
_cell_length_b 15.248580
_cell_length_c 7.779124
_cell_angle_alpha 90.000000
_cell_angle_beta 90.000000
_cell_angle_gamma 90.000000
_cell_volume 1808.795627
_symmetry_space_group_name_H-M "P 4/M"
_symmetry_group_IT_number 83
_symmetry_cell_setting 'tetragonal'
loop_
_space_group_symop_operation_xyz
x,y,z
-y,x,z
-x,-y,z
y,-x,z
-x,-y,-z
y,-x,-z
x,y,-z
-y,x,-z
loop_
_atom_site_type_symbol
_atom_site_label
_atom_site_fract_x
_atom_site_fract_y
_atom_site_fract_z
Si Si1 0.689744 0.104112 0.296188
Si Si2 0.646439 0.500243 0.000000
Si Si3 0.073017 0.121367 0.289860
Si Si4 0.413258 0.061068 0.196705
Si Si5 0.217817 0.477299 0.697930
O O1 0.691999 0.117905 0.500000
O O2 0.788145 0.116029 0.227908
O O3 0.610859 0.167002 0.235947
O O4 0.661484 0.003085 0.266018
O O5 0.584300 0.584841 0.000000
O O6 0.706028 0.502235 0.169556
O O7 0.074449 0.122438 0.500000
O O8 0.970528 0.116356 0.237713
O O9 0.443295 0.147332 0.295952
O O10 0.500000 0.000000 0.200389
O O11 0.394453 0.084708 0.000000
O O12 0.245504 0.464620 0.500000
#
# Coordination Sequence:
#
# PCOD9543457 Si02
#       5
#     8   4   8   8   8
#     4   9  17  29  51  86 120 151 194 244 290 337
#     4  11  26  48  67  84 114 151 190 239 303 381
#     4   8  14  27  46  70 109 157 195 228 271 324
#     4   9  16  29  53  82 116 155 187 228 289 344
#     4  10  20  38  63  91 119 146 188 245 299 355
#
# _framework density 19.902744999999999
#
# number of rings (size 3 to 8) (size 9 to 14) (size 15 to 20)
#    0.000    2.778    1.111    1.333    1.556    3.556 
#    4.000    1.111    0.000    1.333    0.000    1.556 
#    0.000    0.000    0.000    0.000    0.000    0.000 
#
# Total GULP energy -200658.499486 kJ/mol
# GULP energy per Si atom -5573.847208 kJ/mol
# Density = 1.985745 g / cm^3
# Si number density = 19.902745 Si / 1000 Ang^3
#
#
#
# Elastic Constant Matrix: (Units=GPa)
#
#
# Indices 1 2 3 4 5 6 
#
# 1 23.2343 3.9747 15.8305 0.0000 0.0000 22.3890
# 2 3.9747 23.2343 15.8305 0.0000 0.0000 -22.3890
# 3 15.8305 15.8305 66.0451 0.0000 0.0000 0.0000
# 4 0.0000 0.0000 0.0000 12.4766 0.0000 0.0000
# 5 0.0000 0.0000 0.0000 0.0000 12.4766 0.0000
# 6 22.3890 -22.3890 0.0000 0.0000 0.0000 -22.6359
#
#
#
# Elastic Compliance Matrix: (Units=1/GPa)
#
#
# Indices 1 2 3 4 5 6 
#
# 1 0.033352 0.017616 -0.012217 0.000000 0.000000 0.015564
# 2 0.017616 0.033352 -0.012217 0.000000 0.000000 -0.015564
# 3 -0.012217 -0.012217 0.020998 0.000000 0.000000 0.000000
# 4 0.000000 0.000000 0.000000 0.080150 0.000000 0.000000
# 5 0.000000 0.000000 0.000000 0.000000 0.080150 0.000000
# 6 0.015564 -0.015564 0.000000 0.000000 0.000000 -0.013389
#
#
# Mechanical properties :
#
#
# Convention : Reuss Voigt Hill
#
# Bulk Modulus (GPa) = 13.50129 20.42059 16.96094
# Shear Modulus (GPa) = 18.31931 5.58866 11.95399
#
# Velocity S-wave (km/s) = 3.03717 1.67752 2.45341
# Velocity P-wave (km/s) = 4.37007 3.74627 4.07014
#
# Compressibility (1/GPa) = 0.07406702
#
# Stress axis : x y z
#
# Youngs Moduli (GPa) = 29.98331 29.98331 47.62441
#
# Poissons Ratio (x) = -0.52819 0.58181
# Poissons Ratio (y) = -0.52819 0.58181
# Poissons Ratio (z) = 0.36630 0.36630
#
# Static dielectric constant tensor:
#      x y z
#    x 1.708880 0.000000 0.000000 
#    y 0.000000 1.708880 0.000000 
#    z 0.000000 0.000000 1.698180 
# 
# From -- ./inp_files/551.got.cif
#   From: 2010.05.17/outbox.cif.g08.bks.cpg/sg83_1_cif.got.tgz:551.got - 2010.06.03 18:55:12.
