data_PCOD9543385
_publ_section_title
;
Structure prediction by ZEFSAII (Michael W. Deem and Ramdas Pophale) SiO2 
 PCOD9543385
Probable space group: P 4/M
;
_chemical_formula_sum "Si O2"
_cell_formula_units_Z 25
_cell_length_a 12.399136
_cell_length_b 12.399136
_cell_length_c 8.972638
_cell_angle_alpha 90.000000
_cell_angle_beta 90.000000
_cell_angle_gamma 90.000000
_cell_volume 1379.440567
_symmetry_space_group_name_H-M "P 4/M"
_symmetry_group_IT_number 83
_symmetry_cell_setting 'tetragonal'
loop_
_space_group_symop_operation_xyz
x,y,z
-y,x,z
-x,-y,z
y,-x,z
-x,-y,-z
y,-x,-z
x,y,-z
-y,x,-z
loop_
_atom_site_type_symbol
_atom_site_label
_atom_site_fract_x
_atom_site_fract_y
_atom_site_fract_z
Si Si1 0.393842 0.070527 0.500000
Si Si2 0.355821 0.611063 0.000000
Si Si3 0.000000 0.000000 0.500000
Si Si4 0.226090 0.878093 0.500000
Si Si5 0.166618 0.073790 0.000000
Si Si6 0.798622 0.290466 0.752193
O O1 0.377608 0.145158 0.644846
O O2 0.500000 0.000000 0.500000
O O3 0.298915 0.982905 0.500000
O O4 0.353919 0.480903 0.000000
O O5 0.292011 0.658329 0.142466
O O6 0.897552 0.084288 0.500000
O O7 0.245578 0.803133 0.643985
O O8 0.234345 0.111350 0.142966
O O9 0.052207 0.137098 0.000000
#
# Coordination Sequence:
#
# PCOD9543385 Si02
#       6
#     4   4   1   4   4   8
#     4  11  24  39  61  91 126 159 196 245 319 375
#     4  10  24  46  67  83 113 163 218 274 317 355
#     4  12  20  36  64  90 136 164 204 234 304 392
#     4  11  22  37  63  92 127 167 202 249 309 382
#     4  10  20  32  57  87 125 161 198 235 287 365
#     4  10  22  40  58  92 121 157 206 249 309 366
#
# _framework density 18.123290999999998
#
# number of rings (size 3 to 8) (size 9 to 14) (size 15 to 20)
#    0.000    1.600    3.200    1.920    4.480    0.000 
#    0.000    1.600    0.000    7.680    0.000    0.000 
#    0.000    0.000    0.000    0.000    0.000    0.000 
#
# Total GULP energy -139337.792511 kJ/mol
# GULP energy per Si atom -5573.511700 kJ/mol
# Density = 1.808204 g / cm^3
# Si number density = 18.123291 Si / 1000 Ang^3
#
#
#
# Elastic Constant Matrix: (Units=GPa)
#
#
# Indices 1 2 3 4 5 6 
#
# 1 117.4628 52.9476 53.2963 0.0000 0.0000 -8.7490
# 2 52.9476 117.4628 53.2963 0.0000 0.0000 8.7490
# 3 53.2963 53.2963 137.6581 0.0000 0.0000 0.0000
# 4 0.0000 0.0000 0.0000 -6.1851 0.0000 0.0000
# 5 0.0000 0.0000 0.0000 0.0000 -6.1851 0.0000
# 6 -8.7490 8.7490 0.0000 0.0000 0.0000 37.8161
#
#
#
# Elastic Compliance Matrix: (Units=1/GPa)
#
#
# Indices 1 2 3 4 5 6 
#
# 1 0.012141 -0.004397 -0.002998 0.000000 0.000000 0.003826
# 2 -0.004397 0.012141 -0.002998 0.000000 0.000000 -0.003826
# 3 -0.002998 -0.002998 0.009586 0.000000 0.000000 0.000000
# 4 0.000000 0.000000 0.000000 -0.161679 0.000000 0.000000
# 5 0.000000 0.000000 0.000000 0.000000 -0.161679 0.000000
# 6 0.003826 -0.003826 0.000000 0.000000 0.000000 0.028214
#
#
# Mechanical properties :
#
#
# Convention : Reuss Voigt Hill
#
# Bulk Modulus (GPa) = 76.44822 76.85155 76.64988
# Shear Modulus (GPa) = -21.17478 19.29209 -0.94134
#
# Velocity S-wave (km/s) = -3.42186 3.26619 -0.72148
# Velocity P-wave (km/s) = 5.16350 7.53133 6.45688
#
# Compressibility (1/GPa) = 0.01308075
#
# Stress axis : x y z
#
# Youngs Moduli (GPa) = 82.36754 82.36754 104.32102
#
# Poissons Ratio (x) = 0.36219 0.31275
# Poissons Ratio (y) = 0.36219 0.31275
# Poissons Ratio (z) = 0.24694 0.24694
#
# Static dielectric constant tensor:
#      x y z
#    x 1.610860 0.000000 0.000000 
#    y 0.000000 1.610860 0.000000 
#    z 0.000000 0.000000 1.649080 
# 
# From -- ./inp_files/327.got.cif
#   From: 2010.05.17/outbox.cif.g08.bks.cpg/sg83_1_cif.got.tgz:327.got - 2010.06.03 18:55:12.
