data_PCOD9543962
_publ_section_title
;
Structure prediction by ZEFSAII (Michael W. Deem and Ramdas Pophale) SiO2 
 PCOD9543962
Probable space group: P 42/M
;
_chemical_formula_sum "Si O2"
_cell_formula_units_Z 52
_cell_length_a 16.321264
_cell_length_b 16.321264
_cell_length_c 12.099050
_cell_angle_alpha 90.000000
_cell_angle_beta 90.000000
_cell_angle_gamma 90.000000
_cell_volume 3222.989204
_symmetry_space_group_name_H-M "P 42/M"
_symmetry_group_IT_number 84
_symmetry_cell_setting 'tetragonal'
loop_
_space_group_symop_operation_xyz
x,y,z
-y,x,1/2+z
-x,-y,z
y,-x,1/2+z
-x,-y,-z
y,-x,1/2-z
x,y,-z
-y,x,1/2-z
loop_
_atom_site_type_symbol
_atom_site_label
_atom_site_fract_x
_atom_site_fract_y
_atom_site_fract_z
Si Si1 0.500000 0.000000 0.707109
Si Si2 0.646350 0.025206 0.125760
Si Si3 0.818301 0.507704 0.127027
Si Si4 0.104055 0.187030 0.130402
Si Si5 0.211813 0.679658 0.867231
Si Si6 0.780209 0.934819 0.743863
Si Si7 0.669445 0.192957 0.759284
O O1 0.578155 0.996469 0.787397
O O2 0.505952 0.082708 0.637396
O O3 0.659314 0.121594 0.149181
O O4 0.728277 0.976907 0.158159
O O5 0.622411 0.010385 0.000000
O O6 0.788553 0.416949 0.159723
O O7 0.789635 0.581748 0.204661
O O8 0.795286 0.522890 0.000000
O O9 0.145374 0.115283 0.202592
O O10 0.151040 0.270136 0.168604
O O11 0.009047 0.195032 0.163779
O O12 0.113677 0.174345 0.000000
O O13 0.129826 0.722837 0.820493
O O14 0.286061 0.728973 0.811265
O O15 0.213704 0.687564 0.000000
#
# Coordination Sequence:
#
# PCOD9543962 Si02
#       7
#     4   8   8   8   8   8   8
#     4  10  18  30  46  78 106 132 168 210 246 308
#     4  10  18  30  47  69 103 140 169 205 253 297
#     4  10  19  32  54  79 104 133 166 212 258 298
#     4  10  20  35  52  70  99 134 170 217 261 299
#     4  10  19  34  55  76 103 134 167 207 254 304
#     4  10  20  34  49  74  99 132 176 215 250 303
#     4   9  20  33  51  76 104 131 172 206 253 308
#
# _framework density 16.13409
#
# number of rings (size 3 to 8) (size 9 to 14) (size 15 to 20)
#    0.000    2.154    1.538    2.308    0.000    0.308 
#    0.000    3.077    0.000    0.462    0.000    2.154 
#    0.000    0.000    0.000    0.000    0.000    0.000 
#
# Total GULP energy -290028.525121 kJ/mol
# GULP energy per Si atom -5577.471637 kJ/mol
# Density = 1.609737 g / cm^3
# Si number density = 16.134090 Si / 1000 Ang^3
#
#
#
# Elastic Constant Matrix: (Units=GPa)
#
#
# Indices 1 2 3 4 5 6 
#
# 1 98.6455 47.8321 37.5873 0.0000 0.0000 -4.2923
# 2 47.8321 98.6455 37.5873 0.0000 0.0000 4.2923
# 3 37.5873 37.5873 78.3205 0.0000 0.0000 0.0000
# 4 0.0000 0.0000 0.0000 4.3240 0.0000 0.0000
# 5 0.0000 0.0000 0.0000 0.0000 4.3240 0.0000
# 6 -4.2923 4.2923 0.0000 0.0000 0.0000 21.8540
#
#
#
# Elastic Compliance Matrix: (Units=1/GPa)
#
#
# Indices 1 2 3 4 5 6 
#
# 1 0.014707 -0.005649 -0.004347 0.000000 0.000000 0.003998
# 2 -0.005649 0.014707 -0.004347 0.000000 0.000000 -0.003998
# 3 -0.004347 -0.004347 0.016941 0.000000 0.000000 0.000000
# 4 0.000000 0.000000 0.000000 0.231270 0.000000 0.000000
# 5 0.000000 0.000000 0.000000 0.000000 0.231270 0.000000
# 6 0.003998 -0.003998 0.000000 0.000000 0.000000 0.047329
#
#
# Mechanical properties :
#
#
# Convention : Reuss Voigt Hill
#
# Bulk Modulus (GPa) = 56.59895 57.95832 57.27864
# Shear Modulus (GPa) = 8.46315 16.27405 12.36860
#
# Velocity S-wave (km/s) = 2.29279 3.17941 2.77178
# Velocity P-wave (km/s) = 6.49351 7.03414 6.76922
#
# Compressibility (1/GPa) = 0.01766817
#
# Stress axis : x y z
#
# Youngs Moduli (GPa) = 67.99659 67.99659 59.03011
#
# Poissons Ratio (x) = 0.38409 0.25661
# Poissons Ratio (y) = 0.38409 0.25661
# Poissons Ratio (z) = 0.29559 0.29559
#
# Static dielectric constant tensor:
#      x y z
#    x 1.535710 0.000000 0.000000 
#    y 0.000000 1.535710 0.000000 
#    z 0.000000 0.000000 1.512750 
# 
# From -- ./inp_files/2236.got.cif
#   From: 2010.05.17/outbox.cif.g08.bks.cpg/sg84_2_cif.got.tgz:2236.got - 2010.06.03 18:57:40.
