data_PCOD9543426
_publ_section_title
;
Structure prediction by ZEFSAII (Michael W. Deem and Ramdas Pophale) SiO2 
 PCOD9543426
Probable space group: P 4/M
;
_chemical_formula_sum "Si O2"
_cell_formula_units_Z 32
_cell_length_a 15.435804
_cell_length_b 15.435804
_cell_length_c 7.747993
_cell_angle_alpha 90.000000
_cell_angle_beta 90.000000
_cell_angle_gamma 90.000000
_cell_volume 1846.068154
_symmetry_space_group_name_H-M "P 4/M"
_symmetry_group_IT_number 83
_symmetry_cell_setting 'tetragonal'
loop_
_space_group_symop_operation_xyz
x,y,z
-y,x,z
-x,-y,z
y,-x,z
-x,-y,-z
y,-x,-z
x,y,-z
-y,x,-z
loop_
_atom_site_type_symbol
_atom_site_label
_atom_site_fract_x
_atom_site_fract_y
_atom_site_fract_z
Si Si1 0.671909 0.700562 0.000000
Si Si2 0.174035 0.710247 0.693499
Si Si3 0.479684 0.099744 0.702185
Si Si4 0.067193 0.876686 0.208905
Si Si5 0.522686 0.230617 0.000000
O O1 0.709096 0.750558 0.833788
O O2 0.703840 0.602528 0.000000
O O3 0.568583 0.717696 0.000000
O O4 0.209576 0.707246 0.500000
O O5 0.117814 0.623069 0.720151
O O6 0.114129 0.793705 0.716273
O O7 0.502892 0.113732 0.500000
O O8 0.523672 0.167351 0.832924
O O9 0.500000 0.000000 0.745548
O O10 0.966600 0.886357 0.258939
O O11 0.069967 0.871228 0.000000
#
# Coordination Sequence:
#
# PCOD9543426 Si02
#       5
#     4   8   8   8   4
#     4  10  22  39  56  81 106 136 176 222 273 327
#     4  10  20  35  55  79 108 140 177 222 267 315
#     4   9  19  36  56  81 111 141 177 221 267 318
#     4   9  18  33  51  73 107 147 182 217 253 300
#     4  10  21  37  58  80 108 142 176 219 273 321
#
# _framework density 17.334136999999998
#
# number of rings (size 3 to 8) (size 9 to 14) (size 15 to 20)
#    0.000    2.500    1.250    1.125    0.000    4.250 
#    0.000    3.750    0.000    0.000    0.000    7.000 
#    0.000    0.000    0.000    0.000    0.000    0.000 
#
# Total GULP energy -178520.085585 kJ/mol
# GULP energy per Si atom -5578.752675 kJ/mol
# Density = 1.729468 g / cm^3
# Si number density = 17.334137 Si / 1000 Ang^3
#
#
#
# Elastic Constant Matrix: (Units=GPa)
#
#
# Indices 1 2 3 4 5 6 
#
# 1 90.6828 54.5935 55.2150 0.0000 0.0000 18.1248
# 2 54.5935 90.6828 55.2150 0.0000 0.0000 -18.1248
# 3 55.2150 55.2150 92.1746 0.0000 0.0000 0.0000
# 4 0.0000 0.0000 0.0000 6.9038 0.0000 0.0000
# 5 0.0000 0.0000 0.0000 0.0000 6.9038 0.0000
# 6 18.1248 -18.1248 0.0000 0.0000 0.0000 28.1915
#
#
#
# Elastic Compliance Matrix: (Units=1/GPa)
#
#
# Indices 1 2 3 4 5 6 
#
# 1 0.045431 -0.032793 -0.007571 0.000000 0.000000 -0.050292
# 2 -0.032793 0.045431 -0.007571 0.000000 0.000000 0.050292
# 3 -0.007571 -0.007571 0.019919 0.000000 0.000000 0.000000
# 4 0.000000 0.000000 0.000000 0.144848 0.000000 0.000000
# 5 0.000000 0.000000 0.000000 0.000000 0.144848 0.000000
# 6 -0.050292 0.050292 0.000000 0.000000 0.000000 0.100139
#
#
# Mechanical properties :
#
#
# Convention : Reuss Voigt Hill
#
# Bulk Modulus (GPa) = 67.05612 67.06524 67.06068
# Shear Modulus (GPa) = 8.31317 15.63426 11.97372
#
# Velocity S-wave (km/s) = 2.19232 3.00648 2.63108
# Velocity P-wave (km/s) = 6.72136 7.12921 6.92829
#
# Compressibility (1/GPa) = 0.01491288
#
# Stress axis : x y z
#
# Youngs Moduli (GPa) = 22.01129 22.01129 50.20362
#
# Poissons Ratio (x) = 0.72182 0.38007
# Poissons Ratio (y) = 0.72182 0.38007
# Poissons Ratio (z) = 0.16664 0.16664
#
# Static dielectric constant tensor:
#      x y z
#    x 1.557440 0.000000 0.000000 
#    y 0.000000 1.557440 0.000000 
#    z 0.000000 0.000000 1.617530 
# 
# From -- ./inp_files/460.got.cif
#   From: 2010.05.17/outbox.cif.g08.bks.cpg/sg83_1_cif.got.tgz:460.got - 2010.06.03 18:55:12.
