data_PCOD9543670
_publ_section_title
;
Structure prediction by ZEFSAII (Michael W. Deem and Ramdas Pophale) SiO2 
 PCOD9543670
Probable space group: P 4/M
;
_chemical_formula_sum "Si O2"
_cell_formula_units_Z 32
_cell_length_a 11.521823
_cell_length_b 11.521823
_cell_length_c 10.688602
_cell_angle_alpha 90.000000
_cell_angle_beta 90.000000
_cell_angle_gamma 90.000000
_cell_volume 1418.937624
_symmetry_space_group_name_H-M "P 4/M"
_symmetry_group_IT_number 83
_symmetry_cell_setting 'tetragonal'
loop_
_space_group_symop_operation_xyz
x,y,z
-y,x,z
-x,-y,z
y,-x,z
-x,-y,-z
y,-x,-z
x,y,-z
-y,x,-z
loop_
_atom_site_type_symbol
_atom_site_label
_atom_site_fract_x
_atom_site_fract_y
_atom_site_fract_z
Si Si1 0.934237 0.384353 0.222087
Si Si2 0.409242 0.154755 0.500000
Si Si3 0.328022 0.571662 0.150058
Si Si4 0.055881 0.187658 0.708836
Si Si5 0.196868 0.321538 0.500000
O O1 0.918559 0.386877 0.374031
O O2 0.799997 0.382488 0.180695
O O3 0.000000 0.500000 0.182201
O O4 0.018131 0.278064 0.182224
O O5 0.322749 0.263312 0.500000
O O6 0.540962 0.196535 0.500000
O O7 0.351689 0.438596 0.195060
O O8 0.335540 0.569514 0.000000
O O9 0.126151 0.271316 0.616924
O O10 0.927101 0.133669 0.694818
#
# Coordination Sequence:
#
# PCOD9543670 Si02
#       5
#     8   4   8   8   4
#     4  12  24  39  64  96 133 165 212 267 321 373
#     4  12  26  39  60  94 140 170 209 261 321 388
#     4   9  22  46  72  96 124 165 215 266 324 388
#     4  11  23  38  59  85 123 174 219 256 303 373
#     4  12  23  43  58  86 131 180 220 259 314 377
#
# _framework density 22.552081000000001
#
# number of rings (size 3 to 8) (size 9 to 14) (size 15 to 20)
#    0.000    1.000    5.000    2.625    7.000    1.750 
#    0.000    0.000    0.000    0.000    0.000    1.750 
#    0.000    0.000    0.000    0.000    0.000    0.000 
#
# Total GULP energy -178205.665895 kJ/mol
# GULP energy per Si atom -5568.927059 kJ/mol
# Density = 2.250075 g / cm^3
# Si number density = 22.552081 Si / 1000 Ang^3
#
#
#
# Elastic Constant Matrix: (Units=GPa)
#
#
# Indices 1 2 3 4 5 6 
#
# 1 157.1132 52.6066 -0.7197 0.0000 0.0000 -0.5786
# 2 52.6066 157.1132 -0.7197 0.0000 0.0000 0.5786
# 3 -0.7197 -0.7197 23.1774 0.0000 0.0000 0.0000
# 4 0.0000 0.0000 0.0000 -129.8013 0.0000 0.0000
# 5 0.0000 0.0000 0.0000 0.0000 -129.8013 0.0000
# 6 -0.5786 0.5786 0.0000 0.0000 0.0000 38.5028
#
#
#
# Elastic Compliance Matrix: (Units=1/GPa)
#
#
# Indices 1 2 3 4 5 6 
#
# 1 0.007170 -0.002401 0.000148 0.000000 0.000000 0.000144
# 2 -0.002401 0.007170 0.000148 0.000000 0.000000 -0.000144
# 3 0.000148 0.000148 0.043155 0.000000 0.000000 0.000000
# 4 0.000000 0.000000 0.000000 -0.007704 0.000000 0.000000
# 5 0.000000 0.000000 0.000000 0.000000 -0.007704 0.000000
# 6 0.000144 -0.000144 0.000000 0.000000 0.000000 0.025976
#
#
# Mechanical properties :
#
#
# Convention : Reuss Voigt Hill
#
# Bulk Modulus (GPa) = 18.76676 48.85979 33.81327
# Shear Modulus (GPa) = 55.53504 -25.13750 15.19877
#
# Velocity S-wave (km/s) = 4.96777 -3.34225 2.59885
# Velocity P-wave (km/s) = 6.42219 2.61117 4.90218
#
# Compressibility (1/GPa) = 0.05328571
#
# Stress axis : x y z
#
# Youngs Moduli (GPa) = 139.47337 139.47337 23.17243
#
# Poissons Ratio (x) = 0.33481 -0.00343
# Poissons Ratio (y) = 0.33481 -0.00343
# Poissons Ratio (z) = -0.02066 -0.02066
#
# Static dielectric constant tensor:
#      x y z
#    x 1.899340 0.000000 0.000000 
#    y 0.000000 1.899340 0.000000 
#    z 0.000000 0.000000 1.833350 
# 
# From -- ./inp_files/1575.got.cif
#   From: 2010.05.17/outbox.cif.g08.bks.cpg/sg83_1_cif.got.tgz:1575.got - 2010.06.03 18:55:12.
