data_PCOD9543154
_publ_section_title
;
Structure prediction by ZEFSAII (Michael W. Deem and Ramdas Pophale) SiO2 
 PCOD9543154
Probable space group: I -4 
;
_chemical_formula_sum "Si O2"
_cell_formula_units_Z 26
_cell_length_a 10.472519
_cell_length_b 10.472519
_cell_length_c 10.417636
_cell_angle_alpha 90.000000
_cell_angle_beta 90.000000
_cell_angle_gamma 90.000000
_cell_volume 1142.540208
_symmetry_space_group_name_H-M "I -4 "
_symmetry_group_IT_number 82
_symmetry_cell_setting 'tetragonal'
loop_
_space_group_symop_operation_xyz
x,y,z
y,-x,-z
-x,-y,z
-y,x,-z
1/2+x,1/2+y,1/2+z
1/2+y,1/2-x,1/2-z
1/2-x,1/2-y,1/2+z
1/2-y,1/2+x,1/2-z
loop_
_atom_site_type_symbol
_atom_site_label
_atom_site_fract_x
_atom_site_fract_y
_atom_site_fract_z
Si Si1 0.350460 0.458459 0.668168
Si Si2 0.965149 0.196933 0.545045
Si Si3 0.500000 0.000000 0.750000
Si Si4 0.198517 0.580666 0.431815
O O1 0.500000 0.500000 0.664619
O O2 0.293693 0.497469 0.805016
O O3 0.273434 0.518695 0.550448
O O4 0.347316 0.306407 0.649763
O O5 0.907785 0.324065 0.486176
O O6 0.086958 0.142614 0.469761
O O7 0.484563 0.875504 0.661503
#
# Coordination Sequence:
#
# PCOD9543154 Si02
#       4
#     8   8   2   8
#     4  12  25  47  74 108 149 198 244 294 380 441
#     4  11  26  45  75 105 145 194 243 302 373 444
#     4  12  32  48  74 108 148 196 256 310 380 416
#     4  12  28  46  75 106 147 191 248 313 361 444
#
# _framework density 22.756311
#
# number of rings (size 3 to 8) (size 9 to 14) (size 15 to 20)
#    0.000    0.308    6.154    1.846   12.923    0.000 
#    0.000    0.000    0.000    0.000    0.000    0.000 
#    0.000    0.000    0.000    0.000    0.000    0.000 
#
# Total GULP energy -72828.481732 kJ/mol
# GULP energy per Si atom -5602.190902 kJ/mol
# Density = 2.270452 g / cm^3
# Si number density = 22.756311 Si / 1000 Ang^3
#
#
#
# Elastic Constant Matrix: (Units=GPa)
#
#
# Indices 1 2 3 4 5 6 
#
# 1 62.6859 3.1035 17.9284 0.0000 0.0000 13.7748
# 2 3.1035 62.6859 17.9284 0.0000 0.0000 -13.7748
# 3 17.9284 17.9284 112.6165 0.0000 0.0000 0.0000
# 4 0.0000 0.0000 0.0000 26.1870 0.0000 0.0000
# 5 0.0000 0.0000 0.0000 0.0000 26.1870 0.0000
# 6 13.7748 -13.7748 0.0000 0.0000 0.0000 34.0228
#
#
#
# Elastic Compliance Matrix: (Units=1/GPa)
#
#
# Indices 1 2 3 4 5 6 
#
# 1 0.018647 -0.002002 -0.002650 0.000000 0.000000 -0.008360
# 2 -0.002002 0.018647 -0.002650 0.000000 0.000000 0.008360
# 3 -0.002650 -0.002650 0.009723 0.000000 0.000000 0.000000
# 4 0.000000 0.000000 0.000000 0.038187 0.000000 0.000000
# 5 0.000000 0.000000 0.000000 0.000000 0.038187 0.000000
# 6 -0.008360 0.008360 0.000000 0.000000 0.000000 0.036162
#
#
# Mechanical properties :
#
#
# Convention : Reuss Voigt Hill
#
# Bulk Modulus (GPa) = 30.85199 35.10098 32.97649
# Shear Modulus (GPa) = 27.03285 30.54787 28.79036
#
# Velocity S-wave (km/s) = 3.45037 3.66784 3.56077
# Velocity P-wave (km/s) = 5.42774 5.77889 5.60607
#
# Compressibility (1/GPa) = 0.03241282
#
# Stress axis : x y z
#
# Youngs Moduli (GPa) = 53.62901 53.62901 102.84500
#
# Poissons Ratio (x) = 0.10739 0.27251
# Poissons Ratio (y) = 0.10739 0.27251
# Poissons Ratio (z) = 0.14210 0.14210
#
# Static dielectric constant tensor:
#      x y z
#    x 1.831020 0.000000 0.000000 
#    y 0.000000 1.831020 0.000000 
#    z 0.000000 0.000000 1.819660 
# 
# From -- ./inp_files/607.got.cif
#   From: 2010.05.17/outbox.cif.g08.bks.cpg/sg82_1_cif.got.tgz:607.got - 2010.06.03 18:52:26.
