data_PCOD9543002
_publ_section_title
;
Structure prediction by ZEFSAII (Michael W. Deem and Ramdas Pophale) SiO2 
 PCOD9543002
Probable space group: I -4 
;
_chemical_formula_sum "Si O2"
_cell_formula_units_Z 40
_cell_length_a 8.583867
_cell_length_b 8.583867
_cell_length_c 24.526471
_cell_angle_alpha 90.000000
_cell_angle_beta 90.000000
_cell_angle_gamma 90.000000
_cell_volume 1807.178387
_symmetry_space_group_name_H-M "I -4 "
_symmetry_group_IT_number 82
_symmetry_cell_setting 'tetragonal'
loop_
_space_group_symop_operation_xyz
x,y,z
y,-x,-z
-x,-y,z
-y,x,-z
1/2+x,1/2+y,1/2+z
1/2+y,1/2-x,1/2-z
1/2-x,1/2-y,1/2+z
1/2-y,1/2+x,1/2-z
loop_
_atom_site_type_symbol
_atom_site_label
_atom_site_fract_x
_atom_site_fract_y
_atom_site_fract_z
Si Si1 0.092093 0.838809 0.748032
Si Si2 0.272216 0.856243 0.337685
Si Si3 0.765697 0.894841 0.934790
Si Si4 0.611619 0.256690 0.441200
Si Si5 0.825265 0.448962 0.166873
O O1 0.116518 0.765089 0.806593
O O2 0.258932 0.862046 0.719757
O O3 0.999880 0.736871 0.703551
O O4 0.000000 0.000000 0.753648
O O5 0.336477 0.872711 0.398186
O O6 0.098232 0.785612 0.341567
O O7 0.657949 0.831205 0.886864
O O8 0.934142 0.812557 0.933194
O O9 0.791376 0.082475 0.930030
O O10 0.705927 0.867345 0.996314
O O11 0.000000 0.500000 0.176892
#
# Coordination Sequence:
#
# PCOD9543002 Si02
#       5
#     8   8   8   8   8
#     4  10  27  43  62  99 132 168 221 272 335 393
#     4  11  24  43  65  89 135 173 213 271 331 393
#     4   9  19  38  65 100 125 162 226 261 321 391
#     4   9  19  38  66  94 132 169 205 277 321 380
#     4  11  23  40  68  93 124 164 224 273 319 396
#
# _framework density 22.133953999999999
#
# number of rings (size 3 to 8) (size 9 to 14) (size 15 to 20)
#    0.000    2.000    2.000    1.200   11.200    0.400 
#    3.600    0.000    0.000    0.000    0.000    0.000 
#    0.000    0.000    0.000    0.000    0.000    0.000 
#
# Total GULP energy -111890.562549 kJ/mol
# GULP energy per Si atom -5594.528127 kJ/mol
# Density = 2.208358 g / cm^3
# Si number density = 22.133954 Si / 1000 Ang^3
#
#
#
# Elastic Constant Matrix: (Units=GPa)
#
#
# Indices 1 2 3 4 5 6 
#
# 1 33.2669 -0.7081 18.9435 0.0000 0.0000 6.4129
# 2 -0.7081 33.2669 18.9435 0.0000 0.0000 -6.4129
# 3 18.9435 18.9435 109.9160 0.0000 0.0000 0.0000
# 4 0.0000 0.0000 0.0000 16.1112 0.0000 0.0000
# 5 0.0000 0.0000 0.0000 0.0000 16.1112 0.0000
# 6 6.4129 -6.4129 0.0000 0.0000 0.0000 21.4568
#
#
#
# Elastic Compliance Matrix: (Units=1/GPa)
#
#
# Indices 1 2 3 4 5 6 
#
# 1 0.035798 0.002621 -0.006621 0.000000 0.000000 -0.009916
# 2 0.002621 0.035798 -0.006621 0.000000 0.000000 0.009916
# 3 -0.006621 -0.006621 0.011380 0.000000 0.000000 0.000000
# 4 0.000000 0.000000 0.000000 0.062069 0.000000 0.000000
# 5 0.000000 0.000000 0.000000 0.000000 0.062069 0.000000
# 6 -0.009916 0.009916 0.000000 0.000000 0.000000 0.052532
#
#
# Mechanical properties :
#
#
# Convention : Reuss Voigt Hill
#
# Bulk Modulus (GPa) = 16.19903 27.86750 22.03327
# Shear Modulus (GPa) = 16.58566 20.02056 18.30311
#
# Velocity S-wave (km/s) = 2.74036 3.01078 2.87875
# Velocity P-wave (km/s) = 4.16501 4.97033 4.58538
#
# Compressibility (1/GPa) = 0.06173208
#
# Stress axis : x y z
#
# Youngs Moduli (GPa) = 27.93488 27.93488 87.87251
#
# Poissons Ratio (x) = -0.07321 0.58182
# Poissons Ratio (y) = -0.07321 0.58182
# Poissons Ratio (z) = 0.18496 0.18496
#
# Static dielectric constant tensor:
#      x y z
#    x 1.831940 0.000000 0.000000 
#    y 0.000000 1.831940 0.000000 
#    z 0.000000 0.000000 1.766980 
# 
# From -- ./inp_files/3345.got.cif
#   From: 2010.05.17/outbox.cif.g08.bks.cpg/sg82_2_cif.got.tgz:3345.got - 2010.06.03 18:52:26.
