data_PCOD9543307
_publ_section_title
;
Structure prediction by ZEFSAII (Michael W. Deem and Ramdas Pophale) SiO2 
 PCOD9543307
Probable space group: P 4/M
;
_chemical_formula_sum "Si O2"
_cell_formula_units_Z 48
_cell_length_a 14.901944
_cell_length_b 14.901944
_cell_length_c 13.535774
_cell_angle_alpha 90.000000
_cell_angle_beta 90.000000
_cell_angle_gamma 90.000000
_cell_volume 3005.861381
_symmetry_space_group_name_H-M "P 4/M"
_symmetry_group_IT_number 83
_symmetry_cell_setting 'tetragonal'
loop_
_space_group_symop_operation_xyz
x,y,z
-y,x,z
-x,-y,z
y,-x,z
-x,-y,-z
y,-x,-z
x,y,-z
-y,x,-z
loop_
_atom_site_type_symbol
_atom_site_label
_atom_site_fract_x
_atom_site_fract_y
_atom_site_fract_z
Si Si1 0.245186 0.587503 0.117850
Si Si2 0.618675 0.255568 0.880081
Si Si3 0.856322 0.043922 0.617503
Si Si4 0.958823 0.400553 0.118929
Si Si5 0.896601 0.722466 0.218670
Si Si6 0.901035 0.893599 0.882541
O O1 0.318239 0.660873 0.145325
O O2 0.275195 0.485795 0.136112
O O3 0.143846 0.601754 0.155078
O O4 0.236339 0.595572 0.000000
O O5 0.646486 0.176395 0.805328
O O6 0.629107 0.232149 0.000000
O O7 0.840774 0.048077 0.500000
O O8 0.768835 0.075316 0.678209
O O9 0.942384 0.108511 0.639556
O O10 0.000000 0.500000 0.137691
O O11 0.015855 0.321927 0.168952
O O12 0.962899 0.387361 0.000000
O O13 0.853547 0.808181 0.161307
O O14 0.005403 0.878780 0.853783
O O15 0.893993 0.891248 0.000000
#
# Coordination Sequence:
#
# PCOD9543307 Si02
#       6
#     8   8   8   8   8   8
#     4   9  19  33  47  67  99 139 176 211 244 284
#     4  10  20  33  48  71 101 134 178 216 247 292
#     4   9  20  38  54  70  97 131 168 209 252 302
#     4  10  19  32  46  67 106 142 161 188 245 310
#     4  12  20  28  49  73  92 126 167 206 241 303
#     4   9  18  28  36  57  95 127 151 183 224 272
#
# _framework density 15.9688
#
# number of rings (size 3 to 8) (size 9 to 14) (size 15 to 20)
#    0.000    2.167    1.667    3.500    4.667    1.667 
#    0.000    1.667    0.000    0.500    0.000    1.167 
#    0.000    0.000    0.000    1.500    0.000    0.167 
#
# Total GULP energy -267274.584743 kJ/mol
# GULP energy per Si atom -5568.220515 kJ/mol
# Density = 1.593245 g / cm^3
# Si number density = 15.968800 Si / 1000 Ang^3
#
#
#
# Elastic Constant Matrix: (Units=GPa)
#
#
# Indices 1 2 3 4 5 6 
#
# 1 88.7552 39.8491 20.2552 0.0000 0.0000 -4.9027
# 2 39.8491 88.7552 20.2552 0.0000 0.0000 4.9027
# 3 20.2552 20.2552 59.0561 0.0000 0.0000 0.0000
# 4 0.0000 0.0000 0.0000 16.3652 0.0000 0.0000
# 5 0.0000 0.0000 0.0000 0.0000 16.3652 0.0000
# 6 -4.9027 4.9027 0.0000 0.0000 0.0000 27.1882
#
#
#
# Elastic Compliance Matrix: (Units=1/GPa)
#
#
# Indices 1 2 3 4 5 6 
#
# 1 0.014966 -0.006248 -0.002990 0.000000 0.000000 0.003825
# 2 -0.006248 0.014966 -0.002990 0.000000 0.000000 -0.003825
# 3 -0.002990 -0.002990 0.018984 0.000000 0.000000 0.000000
# 4 0.000000 0.000000 0.000000 0.061105 0.000000 0.000000
# 5 0.000000 0.000000 0.000000 0.000000 0.061105 0.000000
# 6 0.003825 -0.003825 0.000000 0.000000 0.000000 0.038160
#
#
# Mechanical properties :
#
#
# Convention : Reuss Voigt Hill
#
# Bulk Modulus (GPa) = 40.88412 44.14284 42.51348
# Shear Modulus (GPa) = 20.66996 22.39750 21.53373
#
# Velocity S-wave (km/s) = 3.60168 3.74916 3.67616
# Velocity P-wave (km/s) = 6.55394 6.81505 6.68577
#
# Compressibility (1/GPa) = 0.02445937
#
# Stress axis : x y z
#
# Youngs Moduli (GPa) = 66.81819 66.81819 52.67566
#
# Poissons Ratio (x) = 0.41750 0.15750
# Poissons Ratio (y) = 0.41750 0.15750
# Poissons Ratio (z) = 0.19979 0.19979
#
# Static dielectric constant tensor:
#      x y z
#    x 1.562980 0.000000 0.000000 
#    y 0.000000 1.562980 0.000000 
#    z 0.000000 0.000000 1.536200 
# 
# From -- ./inp_files/2323.got.cif
#   From: 2010.05.17/outbox.cif.g08.bks.cpg/sg83_2_cif.got.tgz:2323.got - 2010.06.03 18:55:12.
