data_PCOD9543900
_publ_section_title
;
Structure prediction by ZEFSAII (Michael W. Deem and Ramdas Pophale) SiO2 
 PCOD9543900
Probable space group: P 4/M
;
_chemical_formula_sum "Si O2"
_cell_formula_units_Z 45
_cell_length_a 8.576453
_cell_length_b 8.576453
_cell_length_c 29.541048
_cell_angle_alpha 90.000000
_cell_angle_beta 90.000000
_cell_angle_gamma 90.000000
_cell_volume 2172.907917
_symmetry_space_group_name_H-M "P 4/M"
_symmetry_group_IT_number 83
_symmetry_cell_setting 'tetragonal'
loop_
_space_group_symop_operation_xyz
x,y,z
-y,x,z
-x,-y,z
y,-x,z
-x,-y,-z
y,-x,-z
x,y,-z
-y,x,-z
loop_
_atom_site_type_symbol
_atom_site_label
_atom_site_fract_x
_atom_site_fract_y
_atom_site_fract_z
Si Si1 0.750521 0.083487 0.269947
Si Si2 0.262876 0.386558 0.089956
Si Si3 0.751081 0.579381 0.448956
Si Si4 0.329285 0.925268 0.000000
Si Si5 0.919396 0.749015 0.628489
Si Si6 0.000000 0.000000 0.000000
Si Si7 0.405140 0.746272 0.809789
O O1 0.684855 0.104167 0.320673
O O2 0.639075 0.137543 0.230057
O O3 0.906498 0.189498 0.266290
O O4 0.429627 0.300983 0.087388
O O5 0.190437 0.366056 0.139963
O O6 0.165074 0.331005 0.047719
O O7 0.596624 0.687847 0.444719
O O8 0.813835 0.600069 0.500000
O O9 0.869296 0.631243 0.410390
O O10 0.185364 0.044245 0.000000
O O11 0.500000 0.000000 0.000000
O O12 0.095759 0.811770 0.624530
O O13 0.306791 0.584984 0.806391
#
# Coordination Sequence:
#
# PCOD9543900 Si02
#       7
#     8   8   8   4   8   1   8
#     4   9  19  37  54  76 107 145 184 224 283 339
#     4   9  18  37  63  86 114 160 204 236 296 368
#     4   9  19  35  52  74 106 140 175 219 274 333
#     4  12  24  43  64  89 132 166 196 258 312 350
#     4   9  19  35  54  74 104 140 181 227 271 333
#     4  12  28  44  60 104 132 148 220 268 284 376
#     4   9  19  36  56  82 113 143 187 236 275 336
#
# _framework density 20.709576999999999
#
# number of rings (size 3 to 8) (size 9 to 14) (size 15 to 20)
#    0.000    2.667    0.000    4.267    0.000    4.267 
#    9.600    8.000    0.000    0.000    0.000    0.000 
#    0.000    0.000    0.000    0.000    0.000    0.000 
#
# Total GULP energy -251117.356886 kJ/mol
# GULP energy per Si atom -5580.385709 kJ/mol
# Density = 2.066244 g / cm^3
# Si number density = 20.709577 Si / 1000 Ang^3
#
#
#
# Elastic Constant Matrix: (Units=GPa)
#
#
# Indices 1 2 3 4 5 6 
#
# 1 37.0939 27.0573 54.0185 0.0000 0.0000 1.7258
# 2 27.0573 37.0939 54.0185 0.0000 0.0000 -1.7258
# 3 54.0185 54.0185 184.6626 0.0000 0.0000 0.0000
# 4 0.0000 0.0000 0.0000 -87.6724 0.0000 0.0000
# 5 0.0000 0.0000 0.0000 0.0000 -87.6724 0.0000
# 6 1.7258 -1.7258 0.0000 0.0000 0.0000 32.4484
#
#
#
# Elastic Compliance Matrix: (Units=1/GPa)
#
#
# Indices 1 2 3 4 5 6 
#
# 1 0.066108 -0.035383 -0.008988 0.000000 0.000000 -0.005398
# 2 -0.035383 0.066108 -0.008988 0.000000 0.000000 0.005398
# 3 -0.008988 -0.008988 0.010673 0.000000 0.000000 0.000000
# 4 0.000000 0.000000 0.000000 -0.011406 0.000000 0.000000
# 5 0.000000 0.000000 0.000000 0.000000 -0.011406 0.000000
# 6 -0.005398 0.005398 0.000000 0.000000 0.000000 0.031392
#
#
# Mechanical properties :
#
#
# Convention : Reuss Voigt Hill
#
# Bulk Modulus (GPa) = 27.64612 58.78209 43.21410
# Shear Modulus (GPa) = 18.50188 -20.32887 -0.91349
#
# Velocity S-wave (km/s) = 2.99222 -3.13648 -0.66487
# Velocity P-wave (km/s) = 5.03152 3.91523 4.50806
#
# Compressibility (1/GPa) = 0.03617145
#
# Stress axis : x y z
#
# Youngs Moduli (GPa) = 15.12687 15.12687 93.69018
#
# Poissons Ratio (x) = 0.53524 0.84205
# Poissons Ratio (y) = 0.53524 0.84205
# Poissons Ratio (z) = 0.13595 0.13595
#
# Static dielectric constant tensor:
#      x y z
#    x 1.762150 0.000000 0.000000 
#    y 0.000000 1.762150 0.000000 
#    z 0.000000 0.000000 1.727280 
# 
# From -- ./inp_files/3392.got.cif
#   From: 2010.05.17/outbox.cif.g08.bks.cpg/sg83_2_cif.got.tgz:3392.got - 2010.06.03 18:55:12.
