data_PCOD9543755
_publ_section_title
;
Structure prediction by ZEFSAII (Michael W. Deem and Ramdas Pophale) SiO2 
 PCOD9543755
Probable space group: P 4/M
;
_chemical_formula_sum "Si O2"
_cell_formula_units_Z 44
_cell_length_a 7.975968
_cell_length_b 7.975968
_cell_length_c 30.254296
_cell_angle_alpha 90.000000
_cell_angle_beta 90.000000
_cell_angle_gamma 90.000000
_cell_volume 1924.659277
_symmetry_space_group_name_H-M "P 4/M"
_symmetry_group_IT_number 83
_symmetry_cell_setting 'tetragonal'
loop_
_space_group_symop_operation_xyz
x,y,z
-y,x,z
-x,-y,z
y,-x,z
-x,-y,-z
y,-x,-z
x,y,-z
-y,x,-z
loop_
_atom_site_type_symbol
_atom_site_label
_atom_site_fract_x
_atom_site_fract_y
_atom_site_fract_z
Si Si1 0.234148 0.399419 0.737565
Si Si2 0.268971 0.917291 0.000000
Si Si3 0.768674 0.583079 0.912972
Si Si4 0.086504 0.267077 0.825994
Si Si5 0.236324 0.389582 0.547306
Si Si6 0.392326 0.764149 0.358177
O O1 0.407387 0.293217 0.739801
O O2 0.123748 0.352637 0.779278
O O3 0.153256 0.362229 0.689423
O O4 0.369340 0.874557 0.044158
O O5 0.105236 0.798604 0.000000
O O6 0.604888 0.701529 0.914253
O O7 0.862668 0.621263 0.867535
O O8 0.897676 0.203152 0.828587
O O9 0.414176 0.290597 0.547309
O O10 0.150810 0.353747 0.500000
O O11 0.150098 0.355180 0.594601
O O12 0.291547 0.587760 0.358166
#
# Coordination Sequence:
#
# PCOD9543755 Si02
#       6
#     8   4   8   8   8   8
#     4   9  17  30  49  72  97 127 164 204 248 301
#     4  11  24  41  62  90 122 153 184 215 248 288
#     4  11  24  41  62  88 114 141 177 216 253 298
#     4  11  24  39  54  75 103 134 170 212 258 306
#     4   7   8  10  19  39  71 111 148 179 219 276
#     4   7  10  17  30  51  81 115 150 189 232 282
#
# _framework density 22.861191999999999
#
# number of rings (size 3 to 8) (size 9 to 14) (size 15 to 20)
#    0.000    2.818    0.000    5.455    0.000    9.455 
#    0.000    0.000    0.000    0.000    0.000    0.000 
#    0.000    1.455    0.000   16.182    0.000   14.545 
#
# Total GULP energy -245991.458010 kJ/mol
# GULP energy per Si atom -5590.714955 kJ/mol
# Density = 2.280916 g / cm^3
# Si number density = 22.861192 Si / 1000 Ang^3
#
#
#
# Elastic Constant Matrix: (Units=GPa)
#
#
# Indices 1 2 3 4 5 6 
#
# 1 62.2082 43.9943 51.7744 0.0000 0.0000 -3.2629
# 2 43.9943 62.2082 51.7744 0.0000 0.0000 3.2629
# 3 51.7744 51.7744 264.7412 0.0000 0.0000 0.0000
# 4 0.0000 0.0000 0.0000 105.7415 0.0000 0.0000
# 5 0.0000 0.0000 0.0000 0.0000 105.7415 0.0000
# 6 -3.2629 3.2629 0.0000 0.0000 0.0000 30.1756
#
#
#
# Elastic Compliance Matrix: (Units=1/GPa)
#
#
# Indices 1 2 3 4 5 6 
#
# 1 0.034375 -0.022741 -0.002275 0.000000 0.000000 0.006176
# 2 -0.022741 0.034375 -0.002275 0.000000 0.000000 -0.006176
# 3 -0.002275 -0.002275 0.004667 0.000000 0.000000 0.000000
# 4 0.000000 0.000000 0.000000 0.009457 0.000000 0.000000
# 5 0.000000 0.000000 0.000000 0.000000 0.009457 0.000000
# 6 0.006176 -0.006176 0.000000 0.000000 0.000000 0.034475
#
#
# Mechanical properties :
#
#
# Convention : Reuss Voigt Hill
#
# Bulk Modulus (GPa) = 53.09304 76.02710 64.56007
# Shear Modulus (GPa) = 26.64279 64.43934 45.54106
#
# Velocity S-wave (km/s) = 3.41752 5.31492 4.46810
# Velocity P-wave (km/s) = 6.23275 8.42572 7.41080
#
# Compressibility (1/GPa) = 0.01883486
#
# Stress axis : x y z
#
# Youngs Moduli (GPa) = 29.09066 29.09066 214.26041
#
# Poissons Ratio (x) = 0.66155 0.48751
# Poissons Ratio (y) = 0.66155 0.48751
# Poissons Ratio (z) = 0.06619 0.06619
#
# Static dielectric constant tensor:
#      x y z
#    x 1.823040 0.000000 0.000000 
#    y 0.000000 1.823040 0.000000 
#    z 0.000000 0.000000 1.878340 
# 
# From -- ./inp_files/3357.got.cif
#   From: 2010.05.17/outbox.cif.g08.bks.cpg/sg83_2_cif.got.tgz:3357.got - 2010.06.03 18:55:12.
