data_PCOD9543921
_publ_section_title
;
Structure prediction by ZEFSAII (Michael W. Deem and Ramdas Pophale) SiO2 
 PCOD9543921
Probable space group: P 4/M
;
_chemical_formula_sum "Si O2"
_cell_formula_units_Z 40
_cell_length_a 16.410794
_cell_length_b 16.410794
_cell_length_c 7.529162
_cell_angle_alpha 90.000000
_cell_angle_beta 90.000000
_cell_angle_gamma 90.000000
_cell_volume 2027.709937
_symmetry_space_group_name_H-M "P 4/M"
_symmetry_group_IT_number 83
_symmetry_cell_setting 'tetragonal'
loop_
_space_group_symop_operation_xyz
x,y,z
-y,x,z
-x,-y,z
y,-x,z
-x,-y,-z
y,-x,-z
x,y,-z
-y,x,-z
loop_
_atom_site_type_symbol
_atom_site_label
_atom_site_fract_x
_atom_site_fract_y
_atom_site_fract_z
Si Si1 0.181819 0.157952 0.287003
Si Si2 0.358816 0.216836 0.213040
Si Si3 0.758441 0.017259 0.713897
Si Si4 0.418391 0.042112 0.212293
Si Si5 0.617647 0.441409 0.216832
O O1 0.174385 0.152238 0.500000
O O2 0.262671 0.210190 0.249538
O O3 0.099210 0.198923 0.219038
O O4 0.199786 0.066385 0.220002
O O5 0.399425 0.133087 0.281958
O O6 0.400222 0.299277 0.280014
O O7 0.368329 0.216656 0.000000
O O8 0.765176 0.017038 0.500000
O O9 0.662850 0.010481 0.756172
O O10 0.500000 0.000000 0.282801
O O11 0.428059 0.049877 0.000000
O O12 0.606030 0.535522 0.270684
O O13 0.618543 0.440547 0.000000
#
# Coordination Sequence:
#
# PCOD9543921 Si02
#       5
#     8   8   8   8   8
#     4   9  18  32  48  67  91 118 149 185 224 267
#     4   9  17  29  46  67  90 118 150 184 224 266
#     4   9  18  32  49  68  91 119 151 187 226 269
#     4   9  18  31  46  67  95 123 152 187 225 267
#     4   8  14  25  42  65  90 114 145 185 222 258
#
# _framework density 19.726687999999999
#
# number of rings (size 3 to 8) (size 9 to 14) (size 15 to 20)
#    0.000    3.200    0.000    0.600    0.000    3.200 
#    0.000    6.000    0.000    1.200    0.000    7.000 
#    0.000    0.000    0.000    0.000    0.000    0.000 
#
# Total GULP energy -223057.607583 kJ/mol
# GULP energy per Si atom -5576.440190 kJ/mol
# Density = 1.968179 g / cm^3
# Si number density = 19.726688 Si / 1000 Ang^3
#
#
#
# Elastic Constant Matrix: (Units=GPa)
#
#
# Indices 1 2 3 4 5 6 
#
# 1 179.1484 138.8855 3.0315 0.0000 0.0000 -18.2802
# 2 138.8855 179.1484 3.0315 0.0000 0.0000 18.2802
# 3 3.0315 3.0315 48.9122 0.0000 0.0000 0.0000
# 4 0.0000 0.0000 0.0000 13.9293 0.0000 0.0000
# 5 0.0000 0.0000 0.0000 0.0000 13.9293 0.0000
# 6 -18.2802 18.2802 0.0000 0.0000 0.0000 30.2480
#
#
#
# Elastic Compliance Matrix: (Units=1/GPa)
#
#
# Indices 1 2 3 4 5 6 
#
# 1 0.029095 -0.025947 -0.000195 0.000000 0.000000 0.033264
# 2 -0.025947 0.029095 -0.000195 0.000000 0.000000 -0.033264
# 3 -0.000195 -0.000195 0.020469 0.000000 0.000000 0.000000
# 4 0.000000 0.000000 0.000000 0.071791 0.000000 0.000000
# 5 0.000000 0.000000 0.000000 0.000000 0.071791 0.000000
# 6 0.033264 -0.033264 0.000000 0.000000 0.000000 0.073266
#
#
# Mechanical properties :
#
#
# Convention : Reuss Voigt Hill
#
# Bulk Modulus (GPa) = 38.48429 77.45622 57.97026
# Shear Modulus (GPa) = 14.01174 29.10535 21.55855
#
# Velocity S-wave (km/s) = 2.66803 3.84530 3.30943
# Velocity P-wave (km/s) = 5.38909 7.68538 6.63729
#
# Compressibility (1/GPa) = 0.02598463
#
# Stress axis : x y z
#
# Youngs Moduli (GPa) = 34.37008 34.37008 48.85436
#
# Poissons Ratio (x) = 0.89180 0.00953
# Poissons Ratio (y) = 0.89180 0.00953
# Poissons Ratio (z) = 0.00671 0.00671
#
# Static dielectric constant tensor:
#      x y z
#    x 1.674350 0.000000 0.000000 
#    y 0.000000 1.674350 0.000000 
#    z 0.000000 0.000000 1.751390 
# 
# From -- ./inp_files/649.got.cif
#   From: 2010.05.17/outbox.cif.g08.bks.cpg/sg83_1_cif.got.tgz:649.got - 2010.06.03 18:55:12.
