data_PCOD9543273
_publ_section_title
;
Structure prediction by ZEFSAII (Michael W. Deem and Ramdas Pophale) SiO2 
 PCOD9543273
Probable space group: P 4/M
;
_chemical_formula_sum "Si O2"
_cell_formula_units_Z 56
_cell_length_a 18.575869
_cell_length_b 18.575869
_cell_length_c 7.228325
_cell_angle_alpha 90.000000
_cell_angle_beta 90.000000
_cell_angle_gamma 90.000000
_cell_volume 2494.226852
_symmetry_space_group_name_H-M "P 4/M"
_symmetry_group_IT_number 83
_symmetry_cell_setting 'tetragonal'
loop_
_space_group_symop_operation_xyz
x,y,z
-y,x,z
-x,-y,z
y,-x,z
-x,-y,-z
y,-x,-z
x,y,-z
-y,x,-z
loop_
_atom_site_type_symbol
_atom_site_label
_atom_site_fract_x
_atom_site_fract_y
_atom_site_fract_z
Si Si1 0.147976 0.286002 0.274933
Si Si2 0.416220 0.751843 0.274295
Si Si3 0.596444 0.564615 0.275971
Si Si4 0.989120 0.275315 0.707522
Si Si5 0.787448 0.426295 0.706181
Si Si6 0.951059 0.433613 0.222566
Si Si7 0.729513 0.826817 0.725722
O O1 0.143089 0.289899 0.500000
O O2 0.185244 0.361459 0.214762
O O3 0.068217 0.264136 0.208555
O O4 0.204734 0.224126 0.227520
O O5 0.417047 0.755199 0.500000
O O6 0.395429 0.669910 0.221680
O O7 0.499121 0.759313 0.211300
O O8 0.519564 0.596434 0.218041
O O9 0.595632 0.564514 0.500000
O O10 0.989639 0.243976 0.500000
O O11 0.985766 0.361579 0.702151
O O12 0.909604 0.258874 0.788217
O O13 0.754388 0.420067 0.500000
O O14 0.872427 0.442064 0.696596
O O15 0.790714 0.345890 0.788542
O O16 0.000000 0.500000 0.268975
O O17 0.945044 0.427744 0.000000
O O18 0.723097 0.830494 0.500000
#
# Coordination Sequence:
#
# PCOD9543273 Si02
#       7
#     8   8   8   8   8   8   8
#     4   9  16  25  40  63  87 111 145 186 222 259
#     4   9  16  22  35  58  84 114 147 184 221 259
#     4   8  14  22  30  45  77 119 151 179 223 270
#     4   9  17  30  47  65  87 116 148 182 220 265
#     4   9  17  28  42  63  88 115 148 179 212 258
#     4  10  19  29  43  63  88 117 145 176 218 264
#     4   8  15  26  41  61  85 114 144 178 220 261
#
# _framework density 22.451846
#
# number of rings (size 3 to 8) (size 9 to 14) (size 15 to 20)
#    0.000    3.143    0.000    2.571    2.000    2.286 
#    0.000    0.000    0.000    3.857    0.000    3.000 
#    0.000    0.000    0.000    6.714    0.000    7.714 
#
# Total GULP energy -312245.553021 kJ/mol
# GULP energy per Si atom -5575.813447 kJ/mol
# Density = 2.240074 g / cm^3
# Si number density = 22.451846 Si / 1000 Ang^3
#
#
#
# Elastic Constant Matrix: (Units=GPa)
#
#
# Indices 1 2 3 4 5 6 
#
# 1 62.5934 125.9440 1.0297 0.0000 0.0000 -23.0817
# 2 125.9440 62.5934 1.0297 0.0000 0.0000 23.0817
# 3 1.0297 1.0297 105.1619 0.0000 0.0000 0.0000
# 4 0.0000 0.0000 0.0000 -115.1193 0.0000 0.0000
# 5 0.0000 0.0000 0.0000 0.0000 -115.1193 0.0000
# 6 -23.0817 23.0817 0.0000 0.0000 0.0000 31.5815
#
#
#
# Elastic Compliance Matrix: (Units=1/GPa)
#
#
# Indices 1 2 3 4 5 6 
#
# 1 -0.002498 0.007802 -0.000052 0.000000 0.000000 -0.007528
# 2 0.007802 -0.002498 -0.000052 0.000000 0.000000 0.007528
# 3 -0.000052 -0.000052 0.009510 0.000000 0.000000 0.000000
# 4 0.000000 0.000000 0.000000 -0.008687 0.000000 0.000000
# 5 0.000000 0.000000 0.000000 0.000000 -0.008687 0.000000
# 6 -0.007528 0.007528 0.000000 0.000000 0.000000 0.020661
#
#
# Mechanical properties :
#
#
# Convention : Reuss Voigt Hill
#
# Bulk Modulus (GPa) = 50.22218 54.03948 52.13083
# Shear Modulus (GPa) = -5224.61746 -32.90839 -2628.76293
#
# Velocity S-wave (km/s) = -48.29166 -3.83264 -34.25473
# Velocity P-wave (km/s) = 55.56103 2.12974 39.25871
#
# Compressibility (1/GPa) = 0.01991152
#
# Stress axis : x y z
#
# Youngs Moduli (GPa) = -400.38353 -400.38353 105.15068
#
# Poissons Ratio (x) = 3.12386 0.00546
# Poissons Ratio (y) = 3.12386 0.00546
# Poissons Ratio (z) = -0.02080 -0.02080
#
# Static dielectric constant tensor:
#      x y z
#    x 1.786890 0.000000 0.000000 
#    y 0.000000 1.786890 0.000000 
#    z 0.000000 0.000000 1.867210 
# 
# From -- ./inp_files/1988.got.cif
#   From: 2010.05.17/outbox.cif.g08.bks.cpg/sg83_1_cif.got.tgz:1988.got - 2010.06.03 18:55:12.
