data_PCOD9543049
_publ_section_title
;
Structure prediction by ZEFSAII (Michael W. Deem and Ramdas Pophale) SiO2 
 PCOD9543049
Probable space group: I -4 
;
_chemical_formula_sum "Si O2"
_cell_formula_units_Z 40
_cell_length_a 8.867885
_cell_length_b 8.867885
_cell_length_c 23.468676
_cell_angle_alpha 90.000000
_cell_angle_beta 90.000000
_cell_angle_gamma 90.000000
_cell_volume 1845.562233
_symmetry_space_group_name_H-M "I -4 "
_symmetry_group_IT_number 82
_symmetry_cell_setting 'tetragonal'
loop_
_space_group_symop_operation_xyz
x,y,z
y,-x,-z
-x,-y,z
-y,x,-z
1/2+x,1/2+y,1/2+z
1/2+y,1/2-x,1/2-z
1/2-x,1/2-y,1/2+z
1/2-y,1/2+x,1/2-z
loop_
_atom_site_type_symbol
_atom_site_label
_atom_site_fract_x
_atom_site_fract_y
_atom_site_fract_z
Si Si1 0.272853 0.924460 0.770986
Si Si2 0.677079 0.175322 0.469588
Si Si3 0.330598 0.161933 0.435509
Si Si4 0.129179 0.394295 0.109873
Si Si5 0.615380 0.631304 0.836479
O O1 0.407237 0.817664 0.747707
O O2 0.280981 0.921049 0.839075
O O3 0.133539 0.872121 0.732121
O O4 0.507465 0.191490 0.445382
O O5 0.705604 0.240027 0.532627
O O6 0.794460 0.271826 0.432082
O O7 0.710843 0.997911 0.465105
O O8 0.270890 0.136958 0.371277
O O9 0.224736 0.521378 0.142627
O O10 0.000000 0.500000 0.082596
O O11 0.500000 0.500000 0.853677
#
# Coordination Sequence:
#
# PCOD9543049 Si02
#       5
#     8   8   8   8   8
#     4   9  17  36  62  91 126 167 218 274 331 398
#     4  11  26  44  68  94 138 179 231 288 348 414
#     4  11  26  45  64  98 134 181 231 285 351 412
#     4  11  21  41  69  95 131 182 225 278 339 411
#     4  11  21  40  68  96 129 176 232 275 332 418
#
# _framework density 21.673614000000001
#
# number of rings (size 3 to 8) (size 9 to 14) (size 15 to 20)
#    0.000    1.400    6.000    1.200    5.600    0.400 
#    7.200    0.000    0.000    2.400    0.000    0.000 
#    0.000    0.000    0.000    0.000    0.000    0.000 
#
# Total GULP energy -111524.661496 kJ/mol
# GULP energy per Si atom -5576.233075 kJ/mol
# Density = 2.162428 g / cm^3
# Si number density = 21.673614 Si / 1000 Ang^3
#
#
#
# Elastic Constant Matrix: (Units=GPa)
#
#
# Indices 1 2 3 4 5 6 
#
# 1 83.4848 45.9319 36.3704 0.0000 0.0000 4.9513
# 2 45.9319 83.4848 36.3704 0.0000 0.0000 -4.9513
# 3 36.3704 36.3704 102.8312 0.0000 0.0000 0.0000
# 4 0.0000 0.0000 0.0000 34.9297 0.0000 0.0000
# 5 0.0000 0.0000 0.0000 0.0000 34.9297 0.0000
# 6 4.9513 -4.9513 0.0000 0.0000 0.0000 17.1610
#
#
#
# Elastic Compliance Matrix: (Units=1/GPa)
#
#
# Indices 1 2 3 4 5 6 
#
# 1 0.019233 -0.009589 -0.003411 0.000000 0.000000 -0.008316
# 2 -0.009589 0.019233 -0.003411 0.000000 0.000000 0.008316
# 3 -0.003411 -0.003411 0.012138 0.000000 0.000000 0.000000
# 4 0.000000 0.000000 0.000000 0.028629 0.000000 0.000000
# 5 0.000000 0.000000 0.000000 0.000000 0.028629 0.000000
# 6 -0.008316 0.008316 0.000000 0.000000 0.000000 0.063070
#
#
# Mechanical properties :
#
#
# Convention : Reuss Voigt Hill
#
# Bulk Modulus (GPa) = 56.23738 56.34960 56.29349
# Shear Modulus (GPa) = 23.84574 27.47927 25.66250
#
# Velocity S-wave (km/s) = 3.32055 3.56458 3.44473
# Velocity P-wave (km/s) = 6.38006 6.55723 6.46925
#
# Compressibility (1/GPa) = 0.01778177
#
# Stress axis : x y z
#
# Youngs Moduli (GPa) = 51.99375 51.99375 82.38860
#
# Poissons Ratio (x) = 0.49856 0.28103
# Poissons Ratio (y) = 0.49856 0.28103
# Poissons Ratio (z) = 0.17735 0.17735
#
# Static dielectric constant tensor:
#      x y z
#    x 1.805650 0.000000 0.000000 
#    y 0.000000 1.805650 0.000000 
#    z 0.000000 0.000000 1.895540 
# 
# From -- ./inp_files/3362.got.cif
#   From: 2010.05.17/outbox.cif.g08.bks.cpg/sg82_2_cif.got.tgz:3362.got - 2010.06.03 18:52:26.
