data_PCOD9543719
_publ_section_title
;
Structure prediction by ZEFSAII (Michael W. Deem and Ramdas Pophale) SiO2 
 PCOD9543719
Probable space group: P 4/M
;
_chemical_formula_sum "Si O2"
_cell_formula_units_Z 40
_cell_length_a 8.151712
_cell_length_b 8.151712
_cell_length_c 26.569724
_cell_angle_alpha 90.000000
_cell_angle_beta 90.000000
_cell_angle_gamma 90.000000
_cell_volume 1765.569014
_symmetry_space_group_name_H-M "P 4/M"
_symmetry_group_IT_number 83
_symmetry_cell_setting 'tetragonal'
loop_
_space_group_symop_operation_xyz
x,y,z
-y,x,z
-x,-y,z
y,-x,z
-x,-y,-z
y,-x,-z
x,y,-z
-y,x,-z
loop_
_atom_site_type_symbol
_atom_site_label
_atom_site_fract_x
_atom_site_fract_y
_atom_site_fract_z
Si Si1 0.914076 0.736960 0.402012
Si Si2 0.762348 0.585287 0.304787
Si Si3 0.093112 0.261476 0.207801
Si Si4 0.762981 0.586851 0.500000
Si Si5 0.262398 0.910869 0.095461
Si Si6 0.763505 0.577991 0.000000
O O1 0.873574 0.638862 0.351449
O O2 0.864758 0.632046 0.450501
O O3 0.099653 0.800925 0.403025
O O4 0.599906 0.699011 0.307624
O O5 0.852015 0.621632 0.252402
O O6 0.116784 0.331125 0.151595
O O7 0.905481 0.200693 0.212075
O O8 0.599073 0.699476 0.500000
O O9 0.379108 0.862374 0.050204
O O10 0.097324 0.800864 0.091582
O O11 0.605079 0.696428 0.000000
#
# Coordination Sequence:
#
# PCOD9543719 Si02
#       6
#     8   8   8   4   8   4
#     4  11  24  41  62  88 116 149 193 239 280 329
#     4  11  24  39  56  83 118 153 189 230 278 332
#     4   9  19  37  60  85 111 141 182 231 280 332
#     4  11  24  41  62  90 122 153 188 231 280 336
#     4   9  19  37  60  83 107 139 183 232 278 329
#     4  11  24  37  50  76 114 149 182 225 276 330
#
# _framework density 22.655584000000001
#
# number of rings (size 3 to 8) (size 9 to 14) (size 15 to 20)
#    0.000    1.800    0.000    4.800    0.000   14.400 
#    0.000    6.000    0.000    0.000    0.000    0.000 
#    0.000    0.000    0.000    0.000    0.000    0.000 
#
# Total GULP energy -224276.322383 kJ/mol
# GULP energy per Si atom -5606.908060 kJ/mol
# Density = 2.260402 g / cm^3
# Si number density = 22.655584 Si / 1000 Ang^3
#
#
#
# Elastic Constant Matrix: (Units=GPa)
#
#
# Indices 1 2 3 4 5 6 
#
# 1 87.3865 58.3745 65.5836 0.0000 0.0000 0.5447
# 2 58.3745 87.3865 65.5836 0.0000 0.0000 -0.5447
# 3 65.5836 65.5836 201.6870 0.0000 0.0000 0.0000
# 4 0.0000 0.0000 0.0000-1627.9360 0.0000 0.0000
# 5 0.0000 0.0000 0.0000 0.0000-1627.9360 0.0000
# 6 0.5447 -0.5447 0.0000 0.0000 0.0000 47.7313
#
#
#
# Elastic Compliance Matrix: (Units=1/GPa)
#
#
# Indices 1 2 3 4 5 6 
#
# 1 0.022091 -0.012392 -0.003154 0.000000 0.000000 -0.000394
# 2 -0.012392 0.022091 -0.003154 0.000000 0.000000 0.000394
# 3 -0.003154 -0.003154 0.007009 0.000000 0.000000 0.000000
# 4 0.000000 0.000000 0.000000 -0.000614 0.000000 0.000000
# 5 0.000000 0.000000 0.000000 0.000000 -0.000614 0.000000
# 6 -0.000394 0.000394 0.000000 0.000000 0.000000 0.020960
#
#
# Mechanical properties :
#
#
# Convention : Reuss Voigt Hill
#
# Bulk Modulus (GPa) = 72.50921 83.94927 78.22924
# Shear Modulus (GPa) = 44.27961 -629.16692 -292.44365
#
# Velocity S-wave (km/s) = 4.42573 -16.68269 -11.37377
# Velocity P-wave (km/s) = 7.62828 18.27425 11.74218
#
# Compressibility (1/GPa) = 0.01379135
#
# Stress axis : x y z
#
# Youngs Moduli (GPa) = 45.26752 45.26752 142.66974
#
# Poissons Ratio (x) = 0.56097 0.44994
# Poissons Ratio (y) = 0.56097 0.44994
# Poissons Ratio (z) = 0.14276 0.14276
#
# Static dielectric constant tensor:
#      x y z
#    x 1.813380 0.000000 0.000000 
#    y 0.000000 1.813380 0.000000 
#    z 0.000000 0.000000 1.778600 
# 
# From -- ./inp_files/3259.got.cif
#   From: 2010.05.17/outbox.cif.g08.bks.cpg/sg83_2_cif.got.tgz:3259.got - 2010.06.03 18:55:12.
