data_PCOD9543264
_publ_section_title
;
Structure prediction by ZEFSAII (Michael W. Deem and Ramdas Pophale) SiO2 
 PCOD9543264
Probable space group: P 4/M
;
_chemical_formula_sum "Si O2"
_cell_formula_units_Z 64
_cell_length_a 19.820459
_cell_length_b 19.820459
_cell_length_c 7.704950
_cell_angle_alpha 90.000000
_cell_angle_beta 90.000000
_cell_angle_gamma 90.000000
_cell_volume 3026.894192
_symmetry_space_group_name_H-M "P 4/M"
_symmetry_group_IT_number 83
_symmetry_cell_setting 'tetragonal'
loop_
_space_group_symop_operation_xyz
x,y,z
-y,x,z
-x,-y,z
y,-x,z
-x,-y,-z
y,-x,-z
x,y,-z
-y,x,-z
loop_
_atom_site_type_symbol
_atom_site_label
_atom_site_fract_x
_atom_site_fract_y
_atom_site_fract_z
Si Si1 0.218822 0.571122 0.713712
Si Si2 0.777180 0.091773 0.701917
Si Si3 0.155560 0.776494 0.295281
Si Si4 0.916536 0.352391 0.708017
Si Si5 0.302414 0.297333 0.293924
Si Si6 0.990745 0.892218 0.209587
Si Si7 0.627091 0.069153 0.194337
Si Si8 0.579029 0.213109 0.296604
O O1 0.218994 0.571573 0.500000
O O2 0.144877 0.599486 0.765905
O O3 0.276509 0.623623 0.773077
O O4 0.228064 0.494975 0.775925
O O5 0.761826 0.107258 0.500000
O O6 0.825613 0.150214 0.777918
O O7 0.819774 0.023465 0.713044
O O8 0.706803 0.085248 0.796415
O O9 0.140058 0.786638 0.500000
O O10 0.101408 0.723077 0.222803
O O11 0.227678 0.738967 0.280373
O O12 0.910694 0.347423 0.500000
O O13 0.991813 0.378096 0.743724
O O14 0.310315 0.309564 0.500000
O O15 0.257891 0.359211 0.222238
O O16 0.057860 0.930437 0.264547
O O17 0.991315 0.888085 0.000000
O O18 0.593095 0.132862 0.286728
O O19 0.601386 0.071093 0.000000
O O20 0.576085 0.229455 0.500000
#
# Coordination Sequence:
#
# PCOD9543264 Si02
#       8
#     8   8   8   8   8   8   8   8
#     4   8  16  30  55  86 107 137 182 222 263 310
#     4  11  21  34  53  76  96 126 175 225 272 316
#     4   8  15  29  51  74  95 124 167 220 264 300
#     4   9  18  35  55  76 105 137 178 222 260 314
#     4   8  13  27  51  79 108 132 167 217 258 301
#     4   9  20  38  53  68  98 136 169 210 271 333
#     4  12  25  37  49  74 109 143 178 220 277 331
#     4  10  18  33  58  82 107 142 182 222 264 315
#
# _framework density 21.143782999999999
#
# number of rings (size 3 to 8) (size 9 to 14) (size 15 to 20)
#    0.000    2.625    1.250    3.375    1.750    1.000 
#    0.000    4.375    0.000    1.125    0.000    2.625 
#    0.000    0.000    0.000    1.125    0.000    1.250 
#
# Total GULP energy -356869.651465 kJ/mol
# GULP energy per Si atom -5576.088304 kJ/mol
# Density = 2.109566 g / cm^3
# Si number density = 21.143783 Si / 1000 Ang^3
#
#
#
# Elastic Constant Matrix: (Units=GPa)
#
#
# Indices 1 2 3 4 5 6 
#
# 1 121.9054 40.5105 3.9042 0.0000 0.0000 6.6291
# 2 40.5105 121.9054 3.9042 0.0000 0.0000 -6.6291
# 3 3.9042 3.9042 29.4224 0.0000 0.0000 0.0000
# 4 0.0000 0.0000 0.0000 -10.7909 0.0000 0.0000
# 5 0.0000 0.0000 0.0000 0.0000 -10.7909 0.0000
# 6 6.6291 -6.6291 0.0000 0.0000 0.0000 33.6031
#
#
#
# Elastic Compliance Matrix: (Units=1/GPa)
#
#
# Indices 1 2 3 4 5 6 
#
# 1 0.009445 -0.003249 -0.000822 0.000000 0.000000 -0.002504
# 2 -0.003249 0.009445 -0.000822 0.000000 0.000000 0.002504
# 3 -0.000822 -0.000822 0.034206 0.000000 0.000000 0.000000
# 4 0.000000 0.000000 0.000000 -0.092670 0.000000 0.000000
# 5 0.000000 0.000000 0.000000 0.000000 -0.092670 0.000000
# 6 -0.002504 0.002504 0.000000 0.000000 0.000000 0.030747
#
#
# Mechanical properties :
#
#
# Convention : Reuss Voigt Hill
#
# Bulk Modulus (GPa) = 23.08933 41.09676 32.09305
# Shear Modulus (GPa) = -64.70445 17.39854 -23.65295
#
# Velocity S-wave (km/s) = -5.53792 2.87168 -3.34828
# Velocity P-wave (km/s) = 5.47243 5.52036 0.51325
#
# Compressibility (1/GPa) = 0.04331005
#
# Stress axis : x y z
#
# Youngs Moduli (GPa) = 105.87481 105.87481 29.23473
#
# Poissons Ratio (x) = 0.34394 0.02404
# Poissons Ratio (y) = 0.34394 0.02404
# Poissons Ratio (z) = 0.08705 0.08705
#
# Static dielectric constant tensor:
#      x y z
#    x 1.794010 0.000000 0.000000 
#    y 0.000000 1.794010 0.000000 
#    z 0.000000 0.000000 1.799170 
# 
# From -- ./inp_files/1306.got.cif
#   From: 2010.05.17/outbox.cif.g08.bks.cpg/sg83_1_cif.got.tgz:1306.got - 2010.06.03 18:55:12.
