data_PCOD9543883
_publ_section_title
;
Structure prediction by ZEFSAII (Michael W. Deem and Ramdas Pophale) SiO2 
 PCOD9543883
Probable space group: P 4/M
;
_chemical_formula_sum "Si O2"
_cell_formula_units_Z 25
_cell_length_a 7.241866
_cell_length_b 7.241866
_cell_length_c 17.069245
_cell_angle_alpha 90.000000
_cell_angle_beta 90.000000
_cell_angle_gamma 90.000000
_cell_volume 895.190122
_symmetry_space_group_name_H-M "P 4/M"
_symmetry_group_IT_number 83
_symmetry_cell_setting 'tetragonal'
loop_
_space_group_symop_operation_xyz
x,y,z
-y,x,z
-x,-y,z
y,-x,z
-x,-y,-z
y,-x,-z
x,y,-z
-y,x,-z
loop_
_atom_site_type_symbol
_atom_site_label
_atom_site_fract_x
_atom_site_fract_y
_atom_site_fract_z
Si Si1 0.500000 0.500000 0.500000
Si Si2 0.320782 0.236297 0.661842
Si Si3 0.667364 0.765879 0.832334
Si Si4 0.876495 0.323002 0.500000
Si Si5 0.768218 0.334641 0.000000
O O1 0.653232 0.658209 0.500000
O O2 0.547661 0.256078 0.657185
O O3 0.280436 0.155270 0.747837
O O4 0.253881 0.111779 0.589692
O O5 0.444410 0.743617 0.832232
O O6 0.716060 0.854861 0.916079
O O7 0.000000 0.500000 0.500000
O O8 0.742875 0.557862 0.000000
#
# Coordination Sequence:
#
# PCOD9543883 Si02
#       5
#     1   8   8   4   4
#     4  12  20  44  52  72 116 126 164 236 236 296
#     4   9  13  24  40  58  84 119 151 197 244 284
#     4   7  10  13  26  45  71 106 141 178 232 276
#     4  12  20  28  52  74  92 136 170 202 266 302
#     4   7   8  12  18  40  71  98 136 181 215 278
#
# _framework density 27.927029999999998
#
# number of rings (size 3 to 8) (size 9 to 14) (size 15 to 20)
#    0.000    3.360    3.200    3.840    0.000    0.000 
#    0.000    0.000    0.000    0.480    0.000    1.120 
#    0.000    0.000    0.000    0.160    0.000    0.320 
#
# Total GULP energy -139185.305699 kJ/mol
# GULP energy per Si atom -5567.412228 kJ/mol
# Density = 2.786347 g / cm^3
# Si number density = 27.927030 Si / 1000 Ang^3
#
#
#
# Elastic Constant Matrix: (Units=GPa)
#
#
# Indices 1 2 3 4 5 6 
#
# 1 101.6626 18.5852 30.1103 0.0000 0.0000 -15.3912
# 2 18.5852 101.6626 30.1103 0.0000 0.0000 15.3912
# 3 30.1103 30.1103 408.2716 0.0000 0.0000 0.0000
# 4 0.0000 0.0000 0.0000 -71.2877 0.0000 0.0000
# 5 0.0000 0.0000 0.0000 0.0000 -71.2877 0.0000
# 6 -15.3912 15.3912 0.0000 0.0000 0.0000 22.8523
#
#
#
# Elastic Compliance Matrix: (Units=1/GPa)
#
#
# Indices 1 2 3 4 5 6 
#
# 1 0.012337 -0.003702 -0.000637 0.000000 0.000000 0.010803
# 2 -0.003702 0.012337 -0.000637 0.000000 0.000000 -0.010803
# 3 -0.000637 -0.000637 0.002543 0.000000 0.000000 0.000000
# 4 0.000000 0.000000 0.000000 -0.014028 0.000000 0.000000
# 5 0.000000 0.000000 0.000000 0.000000 -0.014028 0.000000
# 6 0.010803 -0.010803 0.000000 0.000000 0.000000 0.058311
#
#
# Mechanical properties :
#
#
# Convention : Reuss Voigt Hill
#
# Bulk Modulus (GPa) = 57.91696 85.46760 71.69228
# Shear Modulus (GPa) = 68.32373 11.57479 39.94926
#
# Velocity S-wave (km/s) = 4.95159 2.03805 3.78628
# Velocity P-wave (km/s) = 7.31263 6.01735 6.69639
#
# Compressibility (1/GPa) = 0.01726610
#
# Stress axis : x y z
#
# Youngs Moduli (GPa) = 81.05434 81.05434 393.19223
#
# Poissons Ratio (x) = 0.30009 0.25040
# Poissons Ratio (y) = 0.30009 0.25040
# Poissons Ratio (z) = 0.05162 0.05162
#
# Static dielectric constant tensor:
#      x y z
#    x 2.107740 0.000000 0.000000 
#    y 0.000000 2.107740 0.000000 
#    z 0.000000 0.000000 2.430190 
# 
# From -- ./inp_files/2761.got.cif
#   From: 2010.05.17/outbox.cif.g08.bks.cpg/sg83_2_cif.got.tgz:2761.got - 2010.06.03 18:55:12.
