data_PCOD9543990
_publ_section_title
;
Structure prediction by ZEFSAII (Michael W. Deem and Ramdas Pophale) SiO2 
 PCOD9543990
Probable space group: P 42/M
;
_chemical_formula_sum "Si O2"
_cell_formula_units_Z 48
_cell_length_a 11.937144
_cell_length_b 11.937144
_cell_length_c 11.765473
_cell_angle_alpha 90.000000
_cell_angle_beta 90.000000
_cell_angle_gamma 90.000000
_cell_volume 1676.525862
_symmetry_space_group_name_H-M "P 42/M"
_symmetry_group_IT_number 84
_symmetry_cell_setting 'tetragonal'
loop_
_space_group_symop_operation_xyz
x,y,z
-y,x,1/2+z
-x,-y,z
y,-x,1/2+z
-x,-y,-z
y,-x,1/2-z
x,y,-z
-y,x,1/2-z
loop_
_atom_site_type_symbol
_atom_site_label
_atom_site_fract_x
_atom_site_fract_y
_atom_site_fract_z
Si Si1 0.095526 0.779389 0.875388
Si Si2 0.393118 0.889308 0.383438
Si Si3 0.896434 0.568914 0.647233
Si Si4 0.243776 0.068547 0.127137
Si Si5 0.335512 0.657395 0.122819
Si Si6 0.359717 0.296850 0.872488
O O1 0.087338 0.825400 0.744317
O O2 0.211383 0.710612 0.876680
O O3 0.989960 0.694633 0.879576
O O4 0.090783 0.840395 0.000000
O O5 0.458219 0.889792 0.500000
O O6 0.470003 0.891112 0.276444
O O7 0.330426 0.771962 0.373511
O O8 0.765998 0.581115 0.617026
O O9 0.000000 0.500000 0.600832
O O10 0.947465 0.695440 0.635202
O O11 0.343575 0.162199 0.129233
O O12 0.192476 0.080841 0.000000
O O13 0.343271 0.600883 0.248448
O O14 0.348310 0.596372 0.000000
O O15 0.398843 0.332009 0.000000
#
# Coordination Sequence:
#
# PCOD9543990 Si02
#       6
#     8   8   8   8   8   8
#     4   8  14  25  40  55  69  89 121 159 195 228
#     4   8  14  26  43  59  74  94 125 165 201 232
#     4  10  19  27  36  54  80 107 132 158 190 230
#     4   9  16  25  37  52  71  96 125 155 187 226
#     4   9  16  25  37  52  71  96 125 155 187 226
#     4   8  14  25  40  55  69  89 121 159 195 228
#
# _framework density 28.630633
#
# number of rings (size 3 to 8) (size 9 to 14) (size 15 to 20)
#    0.000    3.333    0.000    0.500    0.000    1.667 
#    0.000    0.000    0.000    1.000    0.000   12.833 
#    0.000    0.000    0.000    0.000    0.000  213.333 
#
# Total GULP energy -267568.266631 kJ/mol
# GULP energy per Si atom -5574.338888 kJ/mol
# Density = 2.856547 g / cm^3
# Si number density = 28.630633 Si / 1000 Ang^3
#
#
#
# Elastic Constant Matrix: (Units=GPa)
#
#
# Indices 1 2 3 4 5 6 
#
# 1 97.6552 24.2692 27.3790 0.0000 0.0000 2.5801
# 2 24.2692 97.6552 27.3790 0.0000 0.0000 -2.5801
# 3 27.3790 27.3790 407.3852 0.0000 0.0000 0.0000
# 4 0.0000 0.0000 0.0000 18.6498 0.0000 0.0000
# 5 0.0000 0.0000 0.0000 0.0000 18.6498 0.0000
# 6 2.5801 -2.5801 0.0000 0.0000 0.0000 51.1812
#
#
#
# Elastic Compliance Matrix: (Units=1/GPa)
#
#
# Indices 1 2 3 4 5 6 
#
# 1 0.011066 -0.002609 -0.000568 0.000000 0.000000 -0.000689
# 2 -0.002609 0.011066 -0.000568 0.000000 0.000000 0.000689
# 3 -0.000568 -0.000568 0.002531 0.000000 0.000000 0.000000
# 4 0.000000 0.000000 0.000000 0.053620 0.000000 0.000000
# 5 0.000000 0.000000 0.000000 0.000000 0.053620 0.000000
# 6 -0.000689 0.000689 0.000000 0.000000 0.000000 0.019608
#
#
# Mechanical properties :
#
#
# Convention : Reuss Voigt Hill
#
# Bulk Modulus (GPa) = 58.23529 84.52778 71.38153
# Shear Modulus (GPa) = 30.35334 52.60738 41.48036
#
# Velocity S-wave (km/s) = 3.25956 4.29120 3.81045
# Velocity P-wave (km/s) = 5.87798 7.35800 6.65923
#
# Compressibility (1/GPa) = 0.01717172
#
# Stress axis : x y z
#
# Youngs Moduli (GPa) = 90.36642 90.36642 395.08896
#
# Poissons Ratio (x) = 0.23577 0.22456
# Poissons Ratio (y) = 0.23577 0.22456
# Poissons Ratio (z) = 0.05136 0.05136
#
# Static dielectric constant tensor:
#      x y z
#    x 2.232610 0.000000 0.000000 
#    y 0.000000 2.232610 0.000000 
#    z 0.000000 0.000000 2.305620 
# 
# From -- ./inp_files/2172.got.cif
#   From: 2010.05.17/outbox.cif.g08.bks.cpg/sg84_2_cif.got.tgz:2172.got - 2010.06.03 18:57:40.
