data_PCOD9543880
_publ_section_title
;
Structure prediction by ZEFSAII (Michael W. Deem and Ramdas Pophale) SiO2 
 PCOD9543880
Probable space group: P 4/M
;
_chemical_formula_sum "Si O2"
_cell_formula_units_Z 48
_cell_length_a 13.778645
_cell_length_b 13.778645
_cell_length_c 16.394024
_cell_angle_alpha 90.000000
_cell_angle_beta 90.000000
_cell_angle_gamma 90.000000
_cell_volume 3112.422802
_symmetry_space_group_name_H-M "P 4/M"
_symmetry_group_IT_number 83
_symmetry_cell_setting 'tetragonal'
loop_
_space_group_symop_operation_xyz
x,y,z
-y,x,z
-x,-y,z
y,-x,z
-x,-y,-z
y,-x,-z
x,y,-z
-y,x,-z
loop_
_atom_site_type_symbol
_atom_site_label
_atom_site_fract_x
_atom_site_fract_y
_atom_site_fract_z
Si Si1 0.107403 0.623994 0.318778
Si Si2 0.898046 0.373411 0.500000
Si Si3 0.874924 0.105265 0.091946
Si Si4 0.104402 0.126341 0.590661
Si Si5 0.215261 0.797132 0.751439
Si Si6 0.873975 0.605966 0.680754
Si Si7 0.878969 0.608092 0.500000
O O1 0.138304 0.656341 0.411006
O O2 0.166665 0.691844 0.258030
O O3 0.129997 0.509981 0.308687
O O4 0.989577 0.632678 0.312871
O O5 0.890082 0.490713 0.500000
O O6 0.012127 0.350640 0.500000
O O7 0.818361 0.154916 0.164893
O O8 0.988811 0.131107 0.099454
O O9 0.843361 0.131799 0.000000
O O10 0.135690 0.162522 0.500000
O O11 0.144408 0.174443 0.672371
O O12 0.987572 0.131314 0.593175
O O13 0.330505 0.809987 0.741475
O O14 0.837697 0.630494 0.588655
#
# Coordination Sequence:
#
# PCOD9543880 Si02
#       7
#     8   4   8   8   8   8   4
#     4   9  18  30  43  63  92 122 153 192 232 272
#     4   7  12  25  40  54  82 122 152 176 216 270
#     4   9  18  32  48  68  95 123 151 184 224 279
#     4   9  18  28  36  58  97 123 136 169 221 272
#     4  12  20  27  48  69  84 117 164 194 222 274
#     4   9  18  30  43  63  92 122 153 192 232 272
#     4   7  12  25  40  54  82 122 152 176 216 270
#
# _framework density 15.422069
#
# number of rings (size 3 to 8) (size 9 to 14) (size 15 to 20)
#    0.000    2.833    0.000    6.000    2.333    1.333 
#    0.000    0.000    0.000    1.500    0.000    4.667 
#    0.000    4.000    0.000    1.500    0.000    0.333 
#
# Total GULP energy -267434.860567 kJ/mol
# GULP energy per Si atom -5571.559595 kJ/mol
# Density = 1.538697 g / cm^3
# Si number density = 15.422069 Si / 1000 Ang^3
#
#
#
# Elastic Constant Matrix: (Units=GPa)
#
#
# Indices 1 2 3 4 5 6 
#
# 1 45.4444 20.1294 28.2291 0.0000 0.0000 1.6987
# 2 20.1294 45.4444 28.2291 0.0000 0.0000 -1.6987
# 3 28.2291 28.2291 93.6189 0.0000 0.0000 0.0000
# 4 0.0000 0.0000 0.0000 19.8245 0.0000 0.0000
# 5 0.0000 0.0000 0.0000 0.0000 19.8245 0.0000
# 6 1.6987 -1.6987 0.0000 0.0000 0.0000 15.4278
#
#
#
# Elastic Compliance Matrix: (Units=1/GPa)
#
#
# Indices 1 2 3 4 5 6 
#
# 1 0.030346 -0.009749 -0.006211 0.000000 0.000000 -0.004415
# 2 -0.009749 0.030346 -0.006211 0.000000 0.000000 0.004415
# 3 -0.006211 -0.006211 0.014427 0.000000 0.000000 0.000000
# 4 0.000000 0.000000 0.000000 0.050443 0.000000 0.000000
# 5 0.000000 0.000000 0.000000 0.000000 0.050443 0.000000
# 6 -0.004415 0.004415 0.000000 0.000000 0.000000 0.065790
#
#
# Mechanical properties :
#
#
# Convention : Reuss Voigt Hill
#
# Bulk Modulus (GPa) = 32.48991 37.52033 35.00512
# Shear Modulus (GPa) = 16.86944 18.21007 17.53975
#
# Velocity S-wave (km/s) = 3.31093 3.43998 3.37607
# Velocity P-wave (km/s) = 5.97739 6.33717 6.15991
#
# Compressibility (1/GPa) = 0.03077879
#
# Stress axis : x y z
#
# Youngs Moduli (GPa) = 32.95327 32.95327 69.31401
#
# Poissons Ratio (x) = 0.32125 0.43049
# Poissons Ratio (y) = 0.32125 0.43049
# Poissons Ratio (z) = 0.20467 0.20467
#
# Static dielectric constant tensor:
#      x y z
#    x 1.537840 0.000000 0.000000 
#    y 0.000000 1.537840 0.000000 
#    z 0.000000 0.000000 1.518240 
# 
# From -- ./inp_files/2373.got.cif
#   From: 2010.05.17/outbox.cif.g08.bks.cpg/sg83_2_cif.got.tgz:2373.got - 2010.06.03 18:55:12.
