data_PCOD9543536
_publ_section_title
;
Structure prediction by ZEFSAII (Michael W. Deem and Ramdas Pophale) SiO2 
 PCOD9543536
Probable space group: P 4/M
;
_chemical_formula_sum "Si O2"
_cell_formula_units_Z 40
_cell_length_a 8.158407
_cell_length_b 8.158407
_cell_length_c 27.938208
_cell_angle_alpha 90.000000
_cell_angle_beta 90.000000
_cell_angle_gamma 90.000000
_cell_volume 1859.556083
_symmetry_space_group_name_H-M "P 4/M"
_symmetry_group_IT_number 83
_symmetry_cell_setting 'tetragonal'
loop_
_space_group_symop_operation_xyz
x,y,z
-y,x,z
-x,-y,z
y,-x,z
-x,-y,-z
y,-x,-z
x,y,-z
-y,x,-z
loop_
_atom_site_type_symbol
_atom_site_label
_atom_site_fract_x
_atom_site_fract_y
_atom_site_fract_z
Si Si1 0.911233 0.738338 0.658696
Si Si2 0.737032 0.087209 0.946704
Si Si3 0.088168 0.262691 0.765419
Si Si4 0.577822 0.236492 0.143897
Si Si5 0.000000 0.500000 0.419066
Si Si6 0.416231 0.235958 0.500000
O O1 0.885970 0.667635 0.712030
O O2 0.890921 0.611679 0.615989
O O3 0.099430 0.800902 0.655276
O O4 0.620776 0.136589 0.903658
O O5 0.901332 0.198274 0.943079
O O6 0.666665 0.112832 0.000000
O O7 0.137468 0.379354 0.808371
O O8 0.902037 0.198586 0.769116
O O9 0.696204 0.394879 0.143812
O O10 0.119432 0.602262 0.453850
O O11 0.604892 0.301384 0.500000
#
# Coordination Sequence:
#
# PCOD9543536 Si02
#       6
#     8   8   8   8   4   4
#     4   9  19  35  55  82 111 138 179 233 280 325
#     4   9  19  37  60  83 105 134 179 231 278 328
#     4   9  19  36  57  79 104 137 178 225 275 328
#     4  11  24  37  50  76 113 147 180 221 269 325
#     4  11  20  34  60  84 108 150 191 228 276 324
#     4  10  22  38  54  80 118 154 190 228 270 326
#
# _framework density 21.51051
#
# number of rings (size 3 to 8) (size 9 to 14) (size 15 to 20)
#    0.000    2.300    0.000    4.200    0.000    8.800 
#    0.000    3.000    0.000    7.200    0.000    0.000 
#    0.000    0.000    0.000    0.000    0.000    0.000 
#
# Total GULP energy -223749.887447 kJ/mol
# GULP energy per Si atom -5593.747186 kJ/mol
# Density = 2.146155 g / cm^3
# Si number density = 21.510510 Si / 1000 Ang^3
#
#
#
# Elastic Constant Matrix: (Units=GPa)
#
#
# Indices 1 2 3 4 5 6 
#
# 1 53.4166 22.2865 50.7418 0.0000 0.0000 3.6234
# 2 22.2865 53.4166 50.7418 0.0000 0.0000 -3.6234
# 3 50.7418 50.7418 195.5599 0.0000 0.0000 0.0000
# 4 0.0000 0.0000 0.0000 191.1844 0.0000 0.0000
# 5 0.0000 0.0000 0.0000 0.0000 191.1844 0.0000
# 6 3.6234 -3.6234 0.0000 0.0000 0.0000 33.4719
#
#
#
# Elastic Compliance Matrix: (Units=1/GPa)
#
#
# Indices 1 2 3 4 5 6 
#
# 1 0.026604 -0.006349 -0.005255 0.000000 0.000000 -0.003567
# 2 -0.006349 0.026604 -0.005255 0.000000 0.000000 0.003567
# 3 -0.005255 -0.005255 0.007841 0.000000 0.000000 0.000000
# 4 0.000000 0.000000 0.000000 0.005231 0.000000 0.000000
# 5 0.000000 0.000000 0.000000 0.000000 0.005231 0.000000
# 6 -0.003567 0.003567 0.000000 0.000000 0.000000 0.030648
#
#
# Mechanical properties :
#
#
# Convention : Reuss Voigt Hill
#
# Bulk Modulus (GPa) = 36.59211 61.10370 48.84790
# Shear Modulus (GPa) = 34.48544 95.07634 64.78089
#
# Velocity S-wave (km/s) = 4.00833 6.65552 5.49375
# Velocity P-wave (km/s) = 6.20246 9.35571 7.93725
#
# Compressibility (1/GPa) = 0.02732830
#
# Stress axis : x y z
#
# Youngs Moduli (GPa) = 37.58806 37.58806 127.53817
#
# Poissons Ratio (x) = 0.23867 0.67027
# Poissons Ratio (y) = 0.23867 0.67027
# Poissons Ratio (z) = 0.19754 0.19754
#
# Static dielectric constant tensor:
#      x y z
#    x 1.779540 0.000000 0.000000 
#    y 0.000000 1.779540 0.000000 
#    z 0.000000 0.000000 1.761150 
# 
# From -- ./inp_files/3249.got.cif
#   From: 2010.05.17/outbox.cif.g08.bks.cpg/sg83_2_cif.got.tgz:3249.got - 2010.06.03 18:55:12.
