data_PCOD9543799
_publ_section_title
;
Structure prediction by ZEFSAII (Michael W. Deem and Ramdas Pophale) SiO2 
 PCOD9543799
Probable space group: P 4/M
;
_chemical_formula_sum "Si O2"
_cell_formula_units_Z 44
_cell_length_a 7.810243
_cell_length_b 7.810243
_cell_length_c 31.333605
_cell_angle_alpha 90.000000
_cell_angle_beta 90.000000
_cell_angle_gamma 90.000000
_cell_volume 1911.346638
_symmetry_space_group_name_H-M "P 4/M"
_symmetry_group_IT_number 83
_symmetry_cell_setting 'tetragonal'
loop_
_space_group_symop_operation_xyz
x,y,z
-y,x,z
-x,-y,z
y,-x,z
-x,-y,-z
y,-x,-z
x,y,-z
-y,x,-z
loop_
_atom_site_type_symbol
_atom_site_label
_atom_site_fract_x
_atom_site_fract_y
_atom_site_fract_z
Si Si1 0.000000 0.500000 0.158914
Si Si2 0.766285 0.619751 0.500000
Si Si3 0.381932 0.766530 0.408742
Si Si4 0.102726 0.731536 0.000000
Si Si5 0.611839 0.232678 0.316639
Si Si6 0.598658 0.768658 0.088956
Si Si7 0.097554 0.267320 0.228058
O O1 0.098940 0.627762 0.127181
O O2 0.128848 0.403000 0.190759
O O3 0.582096 0.715982 0.500000
O O4 0.853288 0.657353 0.454345
O O5 0.284601 0.583255 0.408718
O O6 0.348098 0.851017 0.362874
O O7 0.150036 0.632396 0.042923
O O8 0.906006 0.787157 0.000000
O O9 0.714405 0.412556 0.315007
O O10 0.659784 0.126944 0.275192
O O11 0.401439 0.711220 0.092412
O O12 0.900978 0.211101 0.223511
#
# Coordination Sequence:
#
# PCOD9543799 Si02
#       7
#     4   4   8   4   8   8   8
#     4  12  24  43  64  86 118 153 190 236 288 342
#     4   7   8  12  26  54  94 131 162 205 262 318
#     4   7  10  17  33  61  96 132 169 212 264 320
#     4  11  24  43  68  97 130 168 204 237 278 327
#     4   9  17  31  52  77 106 142 184 228 275 330
#     4  11  24  42  67  97 126 158 196 238 282 329
#     4  11  24  40  58  81 109 144 187 235 287 341
#
# _framework density 23.020420999999999
#
# number of rings (size 3 to 8) (size 9 to 14) (size 15 to 20)
#    0.000    2.364    0.000    6.000    0.000    1.818 
#    0.000    3.636    0.000    0.000    0.000    1.273 
#    0.000    9.455    0.000    0.273    0.000    0.182 
#
# Total GULP energy -245972.119618 kJ/mol
# GULP energy per Si atom -5590.275446 kJ/mol
# Density = 2.296803 g / cm^3
# Si number density = 23.020421 Si / 1000 Ang^3
#
#
#
# Elastic Constant Matrix: (Units=GPa)
#
#
# Indices 1 2 3 4 5 6 
#
# 1 55.7995 8.6845 37.0330 0.0000 0.0000 3.1912
# 2 8.6845 55.7995 37.0330 0.0000 0.0000 -3.1912
# 3 37.0330 37.0330 249.1643 0.0000 0.0000 0.0000
# 4 0.0000 0.0000 0.0000 1.4452 0.0000 0.0000
# 5 0.0000 0.0000 0.0000 0.0000 1.4452 0.0000
# 6 3.1912 -3.1912 0.0000 0.0000 0.0000 24.5564
#
#
#
# Elastic Compliance Matrix: (Units=1/GPa)
#
#
# Indices 1 2 3 4 5 6 
#
# 1 0.020153 -0.001452 -0.002779 0.000000 0.000000 -0.002808
# 2 -0.001452 0.020153 -0.002779 0.000000 0.000000 0.002808
# 3 -0.002779 -0.002779 0.004840 0.000000 0.000000 0.000000
# 4 0.000000 0.000000 0.000000 0.691960 0.000000 0.000000
# 5 0.000000 0.000000 0.000000 0.000000 0.691960 0.000000
# 6 -0.002808 0.002808 0.000000 0.000000 0.000000 0.041452
#
#
# Mechanical properties :
#
#
# Convention : Reuss Voigt Hill
#
# Bulk Modulus (GPa) = 32.13129 58.47380 45.30254
# Shear Modulus (GPa) = 3.34468 24.02354 13.68411
#
# Velocity S-wave (km/s) = 1.20668 3.23395 2.44075
# Velocity P-wave (km/s) = 3.99117 6.27698 5.25975
#
# Compressibility (1/GPa) = 0.03112231
#
# Stress axis : x y z
#
# Youngs Moduli (GPa) = 49.62148 49.62148 206.62844
#
# Poissons Ratio (x) = 0.07207 0.57430
# Poissons Ratio (y) = 0.07207 0.57430
# Poissons Ratio (z) = 0.13792 0.13792
#
# Static dielectric constant tensor:
#      x y z
#    x 1.882700 0.000000 0.000000 
#    y 0.000000 1.882700 0.000000 
#    z 0.000000 0.000000 1.879860 
# 
# From -- ./inp_files/3387.got.cif
#   From: 2010.05.17/outbox.cif.g08.bks.cpg/sg83_2_cif.got.tgz:3387.got - 2010.06.03 18:55:12.
