data_PCOD9543511
_publ_section_title
;
Structure prediction by ZEFSAII (Michael W. Deem and Ramdas Pophale) SiO2 
 PCOD9543511
Probable space group: P 4/M
;
_chemical_formula_sum "Si O2"
_cell_formula_units_Z 38
_cell_length_a 11.050711
_cell_length_b 11.050711
_cell_length_c 15.748889
_cell_angle_alpha 90.000000
_cell_angle_beta 90.000000
_cell_angle_gamma 90.000000
_cell_volume 1923.226191
_symmetry_space_group_name_H-M "P 4/M"
_symmetry_group_IT_number 83
_symmetry_cell_setting 'tetragonal'
loop_
_space_group_symop_operation_xyz
x,y,z
-y,x,z
-x,-y,z
y,-x,z
-x,-y,-z
y,-x,-z
x,y,-z
-y,x,-z
loop_
_atom_site_type_symbol
_atom_site_label
_atom_site_fract_x
_atom_site_fract_y
_atom_site_fract_z
Si Si1 0.067743 0.805856 0.500000
Si Si2 0.232347 0.576062 0.801153
Si Si3 0.959914 0.369212 0.346443
Si Si4 0.189826 0.333025 0.899191
Si Si5 0.500000 0.500000 0.250999
Si Si6 0.194687 0.947050 0.771976
O O1 0.087530 0.720802 0.418537
O O2 0.927619 0.852169 0.500000
O O3 0.134646 0.605344 0.729173
O O4 0.186662 0.468941 0.862647
O O5 0.269357 0.691969 0.857783
O O6 0.354116 0.529257 0.756521
O O7 0.000000 0.500000 0.380528
O O8 0.068795 0.296368 0.299947
O O9 0.077155 0.258469 0.861456
O O10 0.195904 0.332515 0.000000
O O11 0.080750 0.859464 0.762501
#
# Coordination Sequence:
#
# PCOD9543511 Si02
#       6
#     4   8   8   8   2   8
#     4  11  27  46  72 107 137 177 224 276 328 419
#     4  10  21  40  64  96 131 180 225 284 344 396
#     4  12  23  43  70  99 132 171 223 279 348 401
#     4  11  22  39  63  94 133 181 239 288 331 395
#     4   8  20  36  65  93 124 168 222 260 332 401
#     4  11  23  40  62  90 131 181 221 274 340 404
#
# _framework density 19.758467
#
# number of rings (size 3 to 8) (size 9 to 14) (size 15 to 20)
#    0.000    1.158    4.211    2.211    0.000    2.526 
#    0.000    5.263    0.000    0.632    0.000    0.000 
#    0.000    0.000    0.000    0.000    0.000    0.000 
#
# Total GULP energy -211710.598097 kJ/mol
# GULP energy per Si atom -5571.331529 kJ/mol
# Density = 1.971350 g / cm^3
# Si number density = 19.758467 Si / 1000 Ang^3
#
#
#
# Elastic Constant Matrix: (Units=GPa)
#
#
# Indices 1 2 3 4 5 6 
#
# 1 87.2898 31.1781 23.4936 0.0000 0.0000 3.2739
# 2 31.1781 87.2898 23.4936 0.0000 0.0000 -3.2739
# 3 23.4936 23.4936 103.0385 0.0000 0.0000 0.0000
# 4 0.0000 0.0000 0.0000 26.7224 0.0000 0.0000
# 5 0.0000 0.0000 0.0000 0.0000 26.7224 0.0000
# 6 3.2739 -3.2739 0.0000 0.0000 0.0000 36.0236
#
#
#
# Elastic Compliance Matrix: (Units=1/GPa)
#
#
# Indices 1 2 3 4 5 6 
#
# 1 0.013646 -0.004366 -0.002116 0.000000 0.000000 -0.001637
# 2 -0.004366 0.013646 -0.002116 0.000000 0.000000 0.001637
# 3 -0.002116 -0.002116 0.010670 0.000000 0.000000 0.000000
# 4 0.000000 0.000000 0.000000 0.037422 0.000000 0.000000
# 5 0.000000 0.000000 0.000000 0.000000 0.037422 0.000000
# 6 -0.001637 0.001637 0.000000 0.000000 0.000000 0.028057
#
#
# Mechanical properties :
#
#
# Convention : Reuss Voigt Hill
#
# Bulk Modulus (GPa) = 48.15383 48.21651 48.18517
# Shear Modulus (GPa) = 30.30628 31.19052 30.74840
#
# Velocity S-wave (km/s) = 3.92067 3.97746 3.94917
# Velocity P-wave (km/s) = 6.70222 6.74904 6.72567
#
# Compressibility (1/GPa) = 0.02076678
#
# Stress axis : x y z
#
# Youngs Moduli (GPa) = 73.27888 73.27888 93.72042
#
# Poissons Ratio (x) = 0.31995 0.19831
# Poissons Ratio (y) = 0.31995 0.19831
# Poissons Ratio (z) = 0.15506 0.15506
#
# Static dielectric constant tensor:
#      x y z
#    x 1.725740 0.000000 0.000000 
#    y 0.000000 1.725740 0.000000 
#    z 0.000000 0.000000 1.684890 
# 
# From -- ./inp_files/2303.got.cif
#   From: 2010.05.17/outbox.cif.g08.bks.cpg/sg83_2_cif.got.tgz:2303.got - 2010.06.03 18:55:12.
