data_PCOD9543120
_publ_section_title
;
Structure prediction by ZEFSAII (Michael W. Deem and Ramdas Pophale) SiO2 
 PCOD9543120
Probable space group: I -4 
;
_chemical_formula_sum "Si O2"
_cell_formula_units_Z 36
_cell_length_a 11.570173
_cell_length_b 11.570173
_cell_length_c 11.635662
_cell_angle_alpha 90.000000
_cell_angle_beta 90.000000
_cell_angle_gamma 90.000000
_cell_volume 1557.653311
_symmetry_space_group_name_H-M "I -4 "
_symmetry_group_IT_number 82
_symmetry_cell_setting 'tetragonal'
loop_
_space_group_symop_operation_xyz
x,y,z
y,-x,-z
-x,-y,z
-y,x,-z
1/2+x,1/2+y,1/2+z
1/2+y,1/2-x,1/2-z
1/2-x,1/2-y,1/2+z
1/2-y,1/2+x,1/2-z
loop_
_atom_site_type_symbol
_atom_site_label
_atom_site_fract_x
_atom_site_fract_y
_atom_site_fract_z
Si Si1 0.000000 0.500000 0.750000
Si Si2 0.000000 0.500000 0.250000
Si Si3 0.227721 0.371953 0.230592
Si Si4 0.514727 0.315494 0.999083
Si Si5 0.661747 0.580266 0.456462
Si Si6 0.837230 0.343615 0.870281
O O1 0.957666 0.391164 0.823400
O O2 0.100421 0.402957 0.276353
O O3 0.245759 0.424204 0.103135
O O4 0.317386 0.425242 0.321218
O O5 0.264240 0.237875 0.215430
O O6 0.407398 0.392683 0.953521
O O7 0.457384 0.235181 0.094680
O O8 0.647983 0.453832 0.510513
O O9 0.769485 0.641967 0.515784
#
# Coordination Sequence:
#
# PCOD9543120 Si02
#       6
#     2   2   8   8   8   8
#     4  12  28  46  68  94 132 176 220 278 336 394
#     4  12  24  38  68  96 124 174 216 262 336 392
#     4  11  24  43  66  96 135 172 218 279 328 387
#     4   9  21  40  66  95 127 171 220 267 326 396
#     4  11  25  43  66  95 130 172 219 271 334 399
#     4  11  25  43  66  96 130 172 222 272 332 399
#
# _framework density 23.111688000000001
#
# number of rings (size 3 to 8) (size 9 to 14) (size 15 to 20)
#    0.000    1.333    0.000    4.000    0.000   21.333 
#    0.000    0.000    0.000    0.000    0.000    0.000 
#    0.000    0.000    0.000    0.000    0.000    0.000 
#
# Total GULP energy -100445.020311 kJ/mol
# GULP energy per Si atom -5580.278906 kJ/mol
# Density = 2.305909 g / cm^3
# Si number density = 23.111688 Si / 1000 Ang^3
#
#
#
# Elastic Constant Matrix: (Units=GPa)
#
#
# Indices 1 2 3 4 5 6 
#
# 1 73.4548 14.6920 12.0151 0.0000 0.0000 7.8826
# 2 14.6920 73.4548 12.0151 0.0000 0.0000 -7.8826
# 3 12.0151 12.0151 38.2998 0.0000 0.0000 0.0000
# 4 0.0000 0.0000 0.0000 24.9762 0.0000 0.0000
# 5 0.0000 0.0000 0.0000 0.0000 24.9762 0.0000
# 6 7.8826 -7.8826 0.0000 0.0000 0.0000 39.5534
#
#
#
# Elastic Compliance Matrix: (Units=1/GPa)
#
#
# Indices 1 2 3 4 5 6 
#
# 1 0.015192 -0.002787 -0.003892 0.000000 0.000000 -0.003583
# 2 -0.002787 0.015192 -0.003892 0.000000 0.000000 0.003583
# 3 -0.003892 -0.003892 0.028552 0.000000 0.000000 0.000000
# 4 0.000000 0.000000 0.000000 0.040038 0.000000 0.000000
# 5 0.000000 0.000000 0.000000 0.000000 0.040038 0.000000
# 6 -0.003583 0.003583 0.000000 0.000000 0.000000 0.026710
#
#
# Mechanical properties :
#
#
# Convention : Reuss Voigt Hill
#
# Bulk Modulus (GPa) = 26.45801 29.18375 27.82088
# Shear Modulus (GPa) = 25.06746 27.66696 26.36721
#
# Velocity S-wave (km/s) = 3.29693 3.46366 3.38133
# Velocity P-wave (km/s) = 5.09566 5.35263 5.22573
#
# Compressibility (1/GPa) = 0.03779574
#
# Stress axis : x y z
#
# Youngs Moduli (GPa) = 65.82298 65.82298 35.02433
#
# Poissons Ratio (x) = 0.18342 0.13631
# Poissons Ratio (y) = 0.18342 0.13631
# Poissons Ratio (z) = 0.25617 0.25617
#
# Static dielectric constant tensor:
#      x y z
#    x 1.879800 0.000000 0.000000 
#    y 0.000000 1.879800 0.000000 
#    z 0.000000 0.000000 1.814590 
# 
# From -- ./inp_files/1607.got.cif
#   From: 2010.05.17/outbox.cif.g08.bks.cpg/sg82_1_cif.got.tgz:1607.got - 2010.06.03 18:52:26.
