data_PCOD9543470
_publ_section_title
;
Structure prediction by ZEFSAII (Michael W. Deem and Ramdas Pophale) SiO2 
 PCOD9543470
Probable space group: P 4/M
;
_chemical_formula_sum "Si O2"
_cell_formula_units_Z 40
_cell_length_a 15.162443
_cell_length_b 15.162443
_cell_length_c 7.695876
_cell_angle_alpha 90.000000
_cell_angle_beta 90.000000
_cell_angle_gamma 90.000000
_cell_volume 1769.279412
_symmetry_space_group_name_H-M "P 4/M"
_symmetry_group_IT_number 83
_symmetry_cell_setting 'tetragonal'
loop_
_space_group_symop_operation_xyz
x,y,z
-y,x,z
-x,-y,z
y,-x,z
-x,-y,-z
y,-x,-z
x,y,-z
-y,x,-z
loop_
_atom_site_type_symbol
_atom_site_label
_atom_site_fract_x
_atom_site_fract_y
_atom_site_fract_z
Si Si1 0.741865 0.599415 0.199395
Si Si2 0.940998 0.581345 0.793926
Si Si3 0.921005 0.116934 0.288189
Si Si4 0.731955 0.408913 0.298054
Si Si5 0.898684 0.306408 0.289817
O O1 0.841805 0.595039 0.274837
O O2 0.706095 0.499393 0.206950
O O3 0.671801 0.664196 0.285782
O O4 0.748810 0.628646 0.000000
O O5 0.000000 0.500000 0.721050
O O6 0.003961 0.664847 0.764881
O O7 0.930774 0.565103 0.000000
O O8 0.919403 0.115824 0.500000
O O9 0.876984 0.207370 0.230867
O O10 0.023604 0.118008 0.233136
O O11 0.743158 0.431490 0.500000
O O12 0.825593 0.374714 0.225576
O O13 0.895419 0.307515 0.500000
#
# Coordination Sequence:
#
# PCOD9543470 Si02
#       5
#     8   8   8   8   8
#     4  11  24  43  66  90 120 165 208 246 301 372
#     4  10  21  39  61  85 118 157 196 240 289 349
#     4   8  15  29  49  76 113 154 193 233 282 346
#     4  11  24  41  62  93 126 155 200 262 316 361
#     4  10  21  34  57  89 119 154 196 248 305 357
#
# _framework density 22.608074999999999
#
# number of rings (size 3 to 8) (size 9 to 14) (size 15 to 20)
#    0.000    2.000    2.000    1.800    2.800    3.200 
#    0.000    2.000    0.000    0.000    0.000    1.400 
#    0.000    0.000    0.000    0.000    0.000    0.000 
#
# Total GULP energy -223416.541917 kJ/mol
# GULP energy per Si atom -5585.413548 kJ/mol
# Density = 2.255662 g / cm^3
# Si number density = 22.608075 Si / 1000 Ang^3
#
#
#
# Elastic Constant Matrix: (Units=GPa)
#
#
# Indices 1 2 3 4 5 6 
#
# 1 87.3088 19.0960 -2.6837 0.0000 0.0000 9.0120
# 2 19.0960 87.3088 -2.6837 0.0000 0.0000 -9.0120
# 3 -2.6837 -2.6837 45.0866 0.0000 0.0000 0.0000
# 4 0.0000 0.0000 0.0000 -16.3251 0.0000 0.0000
# 5 0.0000 0.0000 0.0000 0.0000 -16.3251 0.0000
# 6 9.0120 -9.0120 0.0000 0.0000 0.0000 33.1908
#
#
#
# Elastic Compliance Matrix: (Units=1/GPa)
#
#
# Indices 1 2 3 4 5 6 
#
# 1 0.012610 -0.003183 0.000561 0.000000 0.000000 -0.004288
# 2 -0.003183 0.012610 0.000561 0.000000 0.000000 0.004288
# 3 0.000561 0.000561 0.022246 0.000000 0.000000 0.000000
# 4 0.000000 0.000000 0.000000 -0.061255 0.000000 0.000000
# 5 0.000000 0.000000 0.000000 0.000000 -0.061255 0.000000
# 6 -0.004288 0.004288 0.000000 0.000000 0.000000 0.032457
#
#
# Mechanical properties :
#
#
# Convention : Reuss Voigt Hill
#
# Bulk Modulus (GPa) = 23.07151 27.46235 25.26693
# Shear Modulus (GPa) = -208.18357 13.83982 -97.17187
#
# Velocity S-wave (km/s) = -9.60644 2.47688 -6.56311
# Velocity P-wave (km/s) = 10.62157 4.51147 6.79942
#
# Compressibility (1/GPa) = 0.04334351
#
# Stress axis : x y z
#
# Youngs Moduli (GPa) = 79.30393 79.30393 44.95118
#
# Poissons Ratio (x) = 0.25245 -0.02522
# Poissons Ratio (y) = 0.25245 -0.02522
# Poissons Ratio (z) = -0.04450 -0.04450
#
# Static dielectric constant tensor:
#      x y z
#    x 1.835560 0.000000 0.000000 
#    y 0.000000 1.835560 0.000000 
#    z 0.000000 0.000000 1.833140 
# 
# From -- ./inp_files/661.got.cif
#   From: 2010.05.17/outbox.cif.g08.bks.cpg/sg83_1_cif.got.tgz:661.got - 2010.06.03 18:55:12.
