data_PCOD9543724
_publ_section_title
;
Structure prediction by ZEFSAII (Michael W. Deem and Ramdas Pophale) SiO2 
 PCOD9543724
Probable space group: P 4/M
;
_chemical_formula_sum "Si O2"
_cell_formula_units_Z 34
_cell_length_a 8.221176
_cell_length_b 8.221176
_cell_length_c 23.585602
_cell_angle_alpha 90.000000
_cell_angle_beta 90.000000
_cell_angle_gamma 90.000000
_cell_volume 1594.097414
_symmetry_space_group_name_H-M "P 4/M"
_symmetry_group_IT_number 83
_symmetry_cell_setting 'tetragonal'
loop_
_space_group_symop_operation_xyz
x,y,z
-y,x,z
-x,-y,z
y,-x,z
-x,-y,-z
y,-x,-z
x,y,-z
-y,x,-z
loop_
_atom_site_type_symbol
_atom_site_label
_atom_site_fract_x
_atom_site_fract_y
_atom_site_fract_z
Si Si1 0.262206 0.924258 0.669218
Si Si2 0.413734 0.761027 0.436439
Si Si3 0.500000 0.000000 0.000000
Si Si4 0.421831 0.763551 0.097072
Si Si5 0.416170 0.761065 0.225925
O O1 0.362874 0.880192 0.613292
O O2 0.362243 0.882839 0.725548
O O3 0.105372 0.806029 0.668994
O O4 0.303272 0.598136 0.431425
O O5 0.389885 0.827962 0.500000
O O6 0.401649 0.898229 0.049822
O O7 0.306412 0.605877 0.089771
O O8 0.398398 0.822565 0.161526
O O9 0.304158 0.599771 0.231961
#
# Coordination Sequence:
#
# PCOD9543724 Si02
#       5
#     8   8   2   8   8
#     4  11  24  37  51  79 119 156 188 231 290 352
#     4   9  19  37  60  84 109 142 192 249 295 341
#     4  12  20  30  60  90 112 146 182 222 276 330
#     4   9  20  38  58  83 114 147 188 234 274 324
#     4   9  19  37  60  82 105 140 190 240 279 324
#
# _framework density 21.328682000000001
#
# number of rings (size 3 to 8) (size 9 to 14) (size 15 to 20)
#    0.000    2.353    0.000    4.235    0.000   11.294 
#    0.000    3.529    0.000    5.647    0.000    0.000 
#    0.000    0.000    0.000    0.000    0.000    0.000 
#
# Total GULP energy -189677.244568 kJ/mol
# GULP energy per Si atom -5578.742487 kJ/mol
# Density = 2.128014 g / cm^3
# Si number density = 21.328682 Si / 1000 Ang^3
#
#
#
# Elastic Constant Matrix: (Units=GPa)
#
#
# Indices 1 2 3 4 5 6 
#
# 1 62.2521 39.9186 69.5601 0.0000 0.0000 -3.6075
# 2 39.9186 62.2521 69.5601 0.0000 0.0000 3.6075
# 3 69.5601 69.5601 195.5518 0.0000 0.0000 0.0000
# 4 0.0000 0.0000 0.0000 48.3704 0.0000 0.0000
# 5 0.0000 0.0000 0.0000 0.0000 48.3704 0.0000
# 6 -3.6075 3.6075 0.0000 0.0000 0.0000 34.4416
#
#
#
# Elastic Compliance Matrix: (Units=1/GPa)
#
#
# Indices 1 2 3 4 5 6 
#
# 1 0.032662 -0.013681 -0.006752 0.000000 0.000000 0.004854
# 2 -0.013681 0.032662 -0.006752 0.000000 0.000000 -0.004854
# 3 -0.006752 -0.006752 0.009917 0.000000 0.000000 0.000000
# 4 0.000000 0.000000 0.000000 0.020674 0.000000 0.000000
# 5 0.000000 0.000000 0.000000 0.000000 0.020674 0.000000
# 6 0.004854 -0.004854 0.000000 0.000000 0.000000 0.030052
#
#
# Mechanical properties :
#
#
# Convention : Reuss Voigt Hill
#
# Bulk Modulus (GPa) = 47.91082 75.34815 61.62949
# Shear Modulus (GPa) = 24.04210 35.63762 29.83986
#
# Velocity S-wave (km/s) = 3.36105 4.09207 3.74444
# Velocity P-wave (km/s) = 6.12977 7.59806 6.90307
#
# Compressibility (1/GPa) = 0.02087211
#
# Stress axis : x y z
#
# Youngs Moduli (GPa) = 30.61619 30.61619 100.83571
#
# Poissons Ratio (x) = 0.41887 0.68082
# Poissons Ratio (y) = 0.41887 0.68082
# Poissons Ratio (z) = 0.20671 0.20671
#
# Static dielectric constant tensor:
#      x y z
#    x 1.768620 0.000000 0.000000 
#    y 0.000000 1.768620 0.000000 
#    z 0.000000 0.000000 1.729040 
# 
# From -- ./inp_files/2835.got.cif
#   From: 2010.05.17/outbox.cif.g08.bks.cpg/sg83_2_cif.got.tgz:2835.got - 2010.06.03 18:55:12.
