data_PCOD9543868
_publ_section_title
;
Structure prediction by ZEFSAII (Michael W. Deem and Ramdas Pophale) SiO2 
 PCOD9543868
Probable space group: P 4/M
;
_chemical_formula_sum "Si O2"
_cell_formula_units_Z 34
_cell_length_a 8.487945
_cell_length_b 8.487945
_cell_length_c 21.325264
_cell_angle_alpha 90.000000
_cell_angle_beta 90.000000
_cell_angle_gamma 90.000000
_cell_volume 1536.383130
_symmetry_space_group_name_H-M "P 4/M"
_symmetry_group_IT_number 83
_symmetry_cell_setting 'tetragonal'
loop_
_space_group_symop_operation_xyz
x,y,z
-y,x,z
-x,-y,z
y,-x,z
-x,-y,-z
y,-x,-z
x,y,-z
-y,x,-z
loop_
_atom_site_type_symbol
_atom_site_label
_atom_site_fract_x
_atom_site_fract_y
_atom_site_fract_z
Si Si1 0.571702 0.244048 0.930777
Si Si2 0.659960 0.284037 0.568928
Si Si3 0.500000 0.500000 0.285826
Si Si4 0.852709 0.612167 0.306568
Si Si5 0.919464 0.754034 0.827008
O O1 0.685211 0.397011 0.927102
O O2 0.616963 0.134840 0.873324
O O3 0.594493 0.171558 0.000000
O O4 0.710033 0.467697 0.572164
O O5 0.704368 0.222792 0.500000
O O6 0.708980 0.190040 0.630418
O O7 0.694228 0.515606 0.288582
O O8 0.899619 0.708396 0.245226
O O9 0.000000 0.500000 0.321409
O O10 0.096093 0.808655 0.839548
#
# Coordination Sequence:
#
# PCOD9543868 Si02
#       5
#     8   8   2   8   8
#     4   9  21  41  68 100 128 161 211 268 328 403
#     4   9  17  34  61  93 129 167 213 274 337 403
#     4  12  24  44  65  96 133 176 216 286 344 392
#     4  12  24  39  67  99 130 175 228 271 343 408
#     4  11  27  44  60  91 133 174 221 279 333 394
#
# _framework density 22.129899000000002
#
# number of rings (size 3 to 8) (size 9 to 14) (size 15 to 20)
#    0.000    1.647    2.353    2.824    6.588    1.412 
#    0.000    3.529    0.000    0.000    0.000    1.647 
#    0.000    0.000    0.000    0.000    0.000    0.000 
#
# Total GULP energy -189570.831449 kJ/mol
# GULP energy per Si atom -5575.612690 kJ/mol
# Density = 2.207953 g / cm^3
# Si number density = 22.129899 Si / 1000 Ang^3
#
#
#
# Elastic Constant Matrix: (Units=GPa)
#
#
# Indices 1 2 3 4 5 6 
#
# 1 67.4943 7.6377 17.5224 0.0000 0.0000 -11.7658
# 2 7.6377 67.4943 17.5224 0.0000 0.0000 11.7658
# 3 17.5224 17.5224 141.8151 0.0000 0.0000 0.0000
# 4 0.0000 0.0000 0.0000 137.3216 0.0000 0.0000
# 5 0.0000 0.0000 0.0000 0.0000 137.3216 0.0000
# 6 -11.7658 11.7658 0.0000 0.0000 0.0000 18.3728
#
#
#
# Elastic Compliance Matrix: (Units=1/GPa)
#
#
# Indices 1 2 3 4 5 6 
#
# 1 0.018226 -0.004102 -0.001745 0.000000 0.000000 0.014299
# 2 -0.004102 0.018226 -0.001745 0.000000 0.000000 -0.014299
# 3 -0.001745 -0.001745 0.007483 0.000000 0.000000 0.000000
# 4 0.000000 0.000000 0.000000 0.007282 0.000000 0.000000
# 5 0.000000 0.000000 0.000000 0.000000 0.007282 0.000000
# 6 0.014299 -0.014299 0.000000 0.000000 0.000000 0.072742
#
#
# Mechanical properties :
#
#
# Convention : Reuss Voigt Hill
#
# Bulk Modulus (GPa) = 34.78262 40.24098 37.51180
# Shear Modulus (GPa) = 32.04951 74.21129 53.13040
#
# Velocity S-wave (km/s) = 3.80971 5.79717 4.90515
# Velocity P-wave (km/s) = 5.92482 7.93934 7.00487
#
# Compressibility (1/GPa) = 0.02874999
#
# Stress axis : x y z
#
# Youngs Moduli (GPa) = 54.86701 54.86701 133.64185
#
# Poissons Ratio (x) = 0.22506 0.23322
# Poissons Ratio (y) = 0.22506 0.23322
# Poissons Ratio (z) = 0.09575 0.09575
#
# Static dielectric constant tensor:
#      x y z
#    x 1.793330 0.000000 0.000000 
#    y 0.000000 1.793330 0.000000 
#    z 0.000000 0.000000 1.858340 
# 
# From -- ./inp_files/2837.got.cif
#   From: 2010.05.17/outbox.cif.g08.bks.cpg/sg83_2_cif.got.tgz:2837.got - 2010.06.03 18:55:12.
