data_PCOD9543344
_publ_section_title
;
Structure prediction by ZEFSAII (Michael W. Deem and Ramdas Pophale) SiO2 
 PCOD9543344
Probable space group: P 4/M
;
_chemical_formula_sum "Si O2"
_cell_formula_units_Z 44
_cell_length_a 13.659793
_cell_length_b 13.659793
_cell_length_c 13.373793
_cell_angle_alpha 90.000000
_cell_angle_beta 90.000000
_cell_angle_gamma 90.000000
_cell_volume 2495.415298
_symmetry_space_group_name_H-M "P 4/M"
_symmetry_group_IT_number 83
_symmetry_cell_setting 'tetragonal'
loop_
_space_group_symop_operation_xyz
x,y,z
-y,x,z
-x,-y,z
y,-x,z
-x,-y,-z
y,-x,-z
x,y,-z
-y,x,-z
loop_
_atom_site_type_symbol
_atom_site_label
_atom_site_fract_x
_atom_site_fract_y
_atom_site_fract_z
Si Si1 0.885679 0.384192 0.287849
Si Si2 0.789315 0.789314 0.196277
Si Si3 0.116309 0.116310 0.391793
Si Si4 0.384193 0.885679 0.287849
Si Si5 0.219179 0.616195 0.500000
Si Si6 0.116847 0.883153 0.000000
Si Si7 0.219179 0.383805 0.500000
O O1 0.819306 0.323238 0.210997
O O2 0.880398 0.500000 0.269527
O O3 0.844767 0.366694 0.399959
O O4 0.000000 0.354462 0.281338
O O5 0.837846 0.837845 0.294515
O O6 0.819307 0.676762 0.210997
O O7 0.835425 0.835425 0.097829
O O8 0.152809 0.152811 0.500000
O O9 0.999999 0.132245 0.389317
O O10 0.366695 0.844767 0.399959
O O11 0.245601 0.500000 0.500000
O O12 0.314045 0.685956 0.500000
O O13 0.000000 0.866679 0.000000
#
# Coordination Sequence:
#
# PCOD9543344 Si02
#       7
#     8   8   8   8   4   4   4
#     4  10  21  36  55  81 113 149 193 241 289 343
#     4  12  22  37  58  79 109 151 191 229 286 345
#     4   9  18  30  46  74 107 137 174 218 265 327
#     4  10  21  36  55  81 113 149 193 241 289 343
#     4  10  19  34  53  82 118 154 191 236 292 346
#     4  11  24  40  58  86 120 151 186 230 286 351
#     4  10  19  34  53  82 118 154 191 236 292 346
#
# _framework density 17.632334
#
# number of rings (size 3 to 8) (size 9 to 14) (size 15 to 20)
#    0.000    1.727    1.818    4.364    2.545    3.818 
#    0.000    0.909    0.000    3.818    0.000    0.000 
#    0.000    1.455    0.000    0.000    0.000    0.000 
#
# Total GULP energy -245808.821726 kJ/mol
# GULP energy per Si atom -5586.564130 kJ/mol
# Density = 1.759220 g / cm^3
# Si number density = 17.632334 Si / 1000 Ang^3
#
#
#
# Elastic Constant Matrix: (Units=GPa)
#
#
# Indices 1 2 3 4 5 6 
#
# 1 97.6964 47.4574 32.6103 0.0000 0.0000 0.0000
# 2 47.4574 97.6964 32.6103 0.0000 0.0000 0.0000
# 3 32.6103 32.6103 95.2174 0.0000 0.0000 0.0000
# 4 0.0000 0.0000 0.0000 19.8642 0.0000 0.0000
# 5 0.0000 0.0000 0.0000 0.0000 19.8642 0.0000
# 6 0.0000 0.0000 0.0000 0.0000 0.0000 30.5860
#
#
#
# Elastic Compliance Matrix: (Units=1/GPa)
#
#
# Indices 1 2 3 4 5 6 
#
# 1 0.014024 -0.005881 -0.002789 0.000000 0.000000 0.000000
# 2 -0.005881 0.014024 -0.002789 0.000000 0.000000 0.000000
# 3 -0.002789 -0.002789 0.012412 0.000000 0.000000 0.000000
# 4 0.000000 0.000000 0.000000 0.050342 0.000000 0.000000
# 5 0.000000 0.000000 0.000000 0.000000 0.050342 0.000000
# 6 0.000000 0.000000 0.000000 0.000000 0.000000 0.032695
#
#
# Mechanical properties :
#
#
# Convention : Reuss Voigt Hill
#
# Bulk Modulus (GPa) = 57.00437 57.32955 57.16696
# Shear Modulus (GPa) = 24.67888 25.92502 25.30195
#
# Velocity S-wave (km/s) = 3.74523 3.83862 3.79222
# Velocity P-wave (km/s) = 7.14857 7.22711 7.18795
#
# Compressibility (1/GPa) = 0.01754251
#
# Stress axis : x y z
#
# Youngs Moduli (GPa) = 71.30867 71.30867 80.56497
#
# Poissons Ratio (x) = 0.41939 0.22466
# Poissons Ratio (y) = 0.41939 0.22466
# Poissons Ratio (z) = 0.19885 0.19885
#
# Static dielectric constant tensor:
#      x y z
#    x 1.641840 0.000000 0.000000 
#    y 0.000000 1.641840 0.000000 
#    z 0.000000 0.000000 1.567200 
# 
# From -- ./inp_files/1774.got.cif
#   From: 2010.05.17/outbox.cif.g08.bks.cpg/sg83_1_cif.got.tgz:1774.got - 2010.06.03 18:55:12.
