data_PCOD9543208
_publ_section_title
;
Structure prediction by ZEFSAII (Michael W. Deem and Ramdas Pophale) SiO2 
 PCOD9543208
Probable space group: I -4 
;
_chemical_formula_sum "Si O2"
_cell_formula_units_Z 52
_cell_length_a 19.873183
_cell_length_b 19.873183
_cell_length_c 5.167748
_cell_angle_alpha 90.000000
_cell_angle_beta 90.000000
_cell_angle_gamma 90.000000
_cell_volume 2040.967979
_symmetry_space_group_name_H-M "I -4 "
_symmetry_group_IT_number 82
_symmetry_cell_setting 'tetragonal'
loop_
_space_group_symop_operation_xyz
x,y,z
y,-x,-z
-x,-y,z
-y,x,-z
1/2+x,1/2+y,1/2+z
1/2+y,1/2-x,1/2-z
1/2-x,1/2-y,1/2+z
1/2-y,1/2+x,1/2-z
loop_
_atom_site_type_symbol
_atom_site_label
_atom_site_fract_x
_atom_site_fract_y
_atom_site_fract_z
Si Si1 0.407517 0.617991 0.600565
Si Si2 0.553343 0.298369 0.094923
Si Si3 0.781921 0.235133 0.240517
Si Si4 0.000000 0.000000 0.000000
Si Si5 0.270411 0.589304 0.779633
Si Si6 0.859302 0.458209 0.484647
Si Si7 0.500000 0.000000 0.250000
Si Si8 0.318345 0.093728 0.708893
O O1 0.430964 0.662886 0.358985
O O2 0.453966 0.553298 0.646161
O O3 0.330310 0.595000 0.565617
O O4 0.415085 0.659992 0.861793
O O5 0.473449 0.294402 0.051659
O O6 0.581420 0.222103 0.062076
O O7 0.754960 0.281185 0.472577
O O8 0.774238 0.163821 0.393122
O O9 0.851277 0.270535 0.157605
O O10 0.196505 0.569157 0.684389
O O11 0.877413 0.393091 0.314554
O O12 0.825307 0.521275 0.341420
O O13 0.931162 0.483175 0.596183
#
# Coordination Sequence:
#
# PCOD9543208 Si02
#       8
#     8   8   8   2   8   8   2   8
#     4  12  29  47  77 116 165 215 275 332 401 486
#     4  12  29  49  77 118 164 216 272 339 403 487
#     4  12  30  50  82 119 163 209 269 339 413 491
#     4  12  28  50  76 114 168 226 272 330 400 498
#     4  12  28  48  83 115 166 212 280 335 418 487
#     4  12  28  51  83 124 161 224 272 354 418 506
#     4  12  28  54  84 116 172 210 292 342 436 498
#     4  12  28  50  84 118 170 211 281 341 423 494
#
# _framework density 25.478109
#
# number of rings (size 3 to 8) (size 9 to 14) (size 15 to 20)
#    0.000    0.000    4.615    2.769    8.615    1.846 
#    0.000    0.000    0.000    0.000    0.000    0.000 
#    0.000    0.000    0.000    0.000    0.000    0.000 
#
# Total GULP energy -145378.403390 kJ/mol
# GULP energy per Si atom -5591.477053 kJ/mol
# Density = 2.542012 g / cm^3
# Si number density = 25.478109 Si / 1000 Ang^3
#
#
#
# Elastic Constant Matrix: (Units=GPa)
#
#
# Indices 1 2 3 4 5 6 
#
# 1 139.3300 68.5521 28.0583 0.0000 0.0000 -4.6527
# 2 68.5521 139.3300 28.0583 0.0000 0.0000 4.6527
# 3 28.0583 28.0583 85.8803 0.0000 0.0000 0.0000
# 4 0.0000 0.0000 0.0000 34.7920 0.0000 0.0000
# 5 0.0000 0.0000 0.0000 0.0000 34.7920 0.0000
# 6 -4.6527 4.6527 0.0000 0.0000 0.0000 50.0570
#
#
#
# Elastic Compliance Matrix: (Units=1/GPa)
#
#
# Indices 1 2 3 4 5 6 
#
# 1 0.009790 -0.004514 -0.001724 0.000000 0.000000 0.001329
# 2 -0.004514 0.009790 -0.001724 0.000000 0.000000 -0.001329
# 3 -0.001724 -0.001724 0.012770 0.000000 0.000000 0.000000
# 4 0.000000 0.000000 0.000000 0.028742 0.000000 0.000000
# 5 0.000000 0.000000 0.000000 0.000000 0.028742 0.000000
# 6 0.001329 -0.001329 0.000000 0.000000 0.000000 0.020224
#
#
# Mechanical properties :
#
#
# Convention : Reuss Voigt Hill
#
# Bulk Modulus (GPa) = 60.87459 68.20864 64.54162
# Shear Modulus (GPa) = 38.03539 39.91965 38.97752
#
# Velocity S-wave (km/s) = 3.86795 3.96260 3.91556
# Velocity P-wave (km/s) = 6.62517 6.91129 6.76974
#
# Compressibility (1/GPa) = 0.01642722
#
# Stress axis : x y z
#
# Youngs Moduli (GPa) = 102.14917 102.14917 78.30612
#
# Poissons Ratio (x) = 0.46109 0.13497
# Poissons Ratio (y) = 0.46109 0.13497
# Poissons Ratio (z) = 0.17607 0.17607
#
# Static dielectric constant tensor:
#      x y z
#    x 2.070250 0.000000 0.000000 
#    y 0.000000 2.070250 0.000000 
#    z 0.000000 0.000000 1.973030 
# 
# From -- ./inp_files/421.got.cif
#   From: 2010.05.17/outbox.cif.g08.bks.cpg/sg82_1_cif.got.tgz:421.got - 2010.06.03 18:52:26.
