data_PCOD9543242
_publ_section_title
;
Structure prediction by ZEFSAII (Michael W. Deem and Ramdas Pophale) SiO2 
 PCOD9543242
Probable space group: P 4/M
;
_chemical_formula_sum "Si O2"
_cell_formula_units_Z 64
_cell_length_a 21.203089
_cell_length_b 21.203089
_cell_length_c 9.014526
_cell_angle_alpha 90.000000
_cell_angle_beta 90.000000
_cell_angle_gamma 90.000000
_cell_volume 4052.669316
_symmetry_space_group_name_H-M "P 4/M"
_symmetry_group_IT_number 83
_symmetry_cell_setting 'tetragonal'
loop_
_space_group_symop_operation_xyz
x,y,z
-y,x,z
-x,-y,z
y,-x,z
-x,-y,-z
y,-x,-z
x,y,-z
-y,x,-z
loop_
_atom_site_type_symbol
_atom_site_label
_atom_site_fract_x
_atom_site_fract_y
_atom_site_fract_z
Si Si1 0.852011 0.579460 0.821420
Si Si2 0.767239 0.684146 0.671387
Si Si3 0.115575 0.218940 0.334701
Si Si4 0.685488 0.787226 0.177270
Si Si5 0.995638 0.249888 0.165662
Si Si6 0.783944 0.877713 0.669829
Si Si7 0.132770 0.564072 0.179545
Si Si8 0.995795 0.600581 0.171572
O O1 0.798481 0.623590 0.750302
O O2 0.841766 0.505616 0.790035
O O3 0.924491 0.593105 0.767370
O O4 0.851333 0.589869 0.000000
O O5 0.751630 0.670618 0.500000
O O6 0.825175 0.733956 0.672646
O O7 0.709597 0.721799 0.749198
O O8 0.087485 0.225965 0.500000
O O9 0.146469 0.150636 0.317995
O O10 0.066665 0.234374 0.208287
O O11 0.737783 0.839100 0.222383
O O12 0.619506 0.819482 0.227896
O O13 0.683737 0.779245 0.000000
O O14 0.949510 0.219597 0.284082
O O15 0.989135 0.325294 0.171946
O O16 0.979553 0.229024 0.000000
O O17 0.763026 0.867148 0.500000
O O18 0.059838 0.569619 0.235814
O O19 0.127737 0.570923 0.000000
O O20 0.990661 0.578337 0.000000
#
# Coordination Sequence:
#
# PCOD9543242 Si02
#       8
#     8   8   8   8   8   8   8   8
#     4  10  18  30  50  71  96 132 166 196 235 279
#     4  10  20  33  47  67  96 127 161 201 243 283
#     4   9  19  33  47  64  89 120 154 193 240 287
#     4  10  18  31  50  71  94 122 163 206 239 276
#     4  11  19  29  49  72  92 118 157 198 237 282
#     4  10  20  33  48  68  93 123 154 193 246 293
#     4   9  17  29  47  72  99 127 162 201 235 276
#     4   9  16  27  43  69  97 126 161 195 230 271
#
# _framework density 15.792061
#
# number of rings (size 3 to 8) (size 9 to 14) (size 15 to 20)
#    0.000    2.250    2.500    2.625    0.000    4.000 
#    0.000    1.250    0.000    1.125    0.000    2.625 
#    0.000    0.500    0.000    5.750    0.000    2.250 
#
# Total GULP energy -356347.076295 kJ/mol
# GULP energy per Si atom -5567.923067 kJ/mol
# Density = 1.575612 g / cm^3
# Si number density = 15.792061 Si / 1000 Ang^3
#
#
#
# Elastic Constant Matrix: (Units=GPa)
#
#
# Indices 1 2 3 4 5 6 
#
# 1 47.4664 24.5729 20.1487 0.0000 0.0000 -1.7647
# 2 24.5729 47.4664 20.1487 0.0000 0.0000 1.7647
# 3 20.1487 20.1487 38.9646 0.0000 0.0000 0.0000
# 4 0.0000 0.0000 0.0000 12.2556 0.0000 0.0000
# 5 0.0000 0.0000 0.0000 0.0000 12.2556 0.0000
# 6 -1.7647 1.7647 0.0000 0.0000 0.0000 13.2544
#
#
#
# Elastic Compliance Matrix: (Units=1/GPa)
#
#
# Indices 1 2 3 4 5 6 
#
# 1 0.032063 -0.012533 -0.010099 0.000000 0.000000 0.005937
# 2 -0.012533 0.032063 -0.010099 0.000000 0.000000 -0.005937
# 3 -0.010099 -0.010099 0.036109 0.000000 0.000000 0.000000
# 4 0.000000 0.000000 0.000000 0.081595 0.000000 0.000000
# 5 0.000000 0.000000 0.000000 0.000000 0.081595 0.000000
# 6 0.005937 -0.005937 0.000000 0.000000 0.000000 0.077028
#
#
# Mechanical properties :
#
#
# Convention : Reuss Voigt Hill
#
# Bulk Modulus (GPa) = 28.75789 29.29309 29.02549
# Shear Modulus (GPa) = 11.97584 12.15494 12.06539
#
# Velocity S-wave (km/s) = 2.75679 2.77733 2.76708
# Velocity P-wave (km/s) = 5.32758 5.37348 5.35058
#
# Compressibility (1/GPa) = 0.03477307
#
# Stress axis : x y z
#
# Youngs Moduli (GPa) = 31.18836 31.18836 27.69385
#
# Poissons Ratio (x) = 0.39087 0.27969
# Poissons Ratio (y) = 0.39087 0.27969
# Poissons Ratio (z) = 0.31498 0.31498
#
# Static dielectric constant tensor:
#      x y z
#    x 1.535830 0.000000 0.000000 
#    y 0.000000 1.535830 0.000000 
#    z 0.000000 0.000000 1.540670 
# 
# From -- ./inp_files/1289.got.cif
#   From: 2010.05.17/outbox.cif.g08.bks.cpg/sg83_1_cif.got.tgz:1289.got - 2010.06.03 18:55:12.
