data_PCOD9543959
_publ_section_title
;
Structure prediction by ZEFSAII (Michael W. Deem and Ramdas Pophale) SiO2 
 PCOD9543959
Probable space group: P 42/M
;
_chemical_formula_sum "Si O2"
_cell_formula_units_Z 40
_cell_length_a 14.524631
_cell_length_b 14.524631
_cell_length_c 8.033785
_cell_angle_alpha 90.000000
_cell_angle_beta 90.000000
_cell_angle_gamma 90.000000
_cell_volume 1694.846695
_symmetry_space_group_name_H-M "P 42/M"
_symmetry_group_IT_number 84
_symmetry_cell_setting 'tetragonal'
loop_
_space_group_symop_operation_xyz
x,y,z
-y,x,1/2+z
-x,-y,z
y,-x,1/2+z
-x,-y,-z
y,-x,1/2-z
x,y,-z
-y,x,1/2-z
loop_
_atom_site_type_symbol
_atom_site_label
_atom_site_fract_x
_atom_site_fract_y
_atom_site_fract_z
Si Si1 0.892537 0.498532 0.199885
Si Si2 0.681264 0.205446 0.693206
Si Si3 0.142947 0.003174 0.807715
Si Si4 0.431655 0.612969 0.321334
Si Si5 0.290839 0.136565 0.798632
O O1 0.850267 0.594630 0.267140
O O2 0.855108 0.398246 0.253410
O O3 0.000000 0.500000 0.240519
O O4 0.879935 0.501848 0.000000
O O5 0.693423 0.174272 0.500000
O O6 0.641651 0.308665 0.692309
O O7 0.781482 0.224842 0.769196
O O8 0.242356 0.039983 0.748410
O O9 0.074188 0.091205 0.797488
O O10 0.149006 0.973641 0.000000
O O11 0.513652 0.614591 0.191029
O O12 0.478578 0.624568 0.500000
O O13 0.285454 0.140323 0.000000
#
# Coordination Sequence:
#
# PCOD9543959 Si02
#       5
#     8   8   8   8   8
#     4  10  22  39  62  88 118 158 203 250 304 367
#     4   9  19  36  55  79 110 149 193 237 288 347
#     4  10  21  37  61  89 120 157 199 253 310 366
#     4  10  18  29  48  71 101 134 173 223 274 329
#     4  10  22  39  61  87 121 161 201 249 307 365
#
# _framework density 23.600954999999999
#
# number of rings (size 3 to 8) (size 9 to 14) (size 15 to 20)
#    0.000    2.200    0.000    3.600    2.800    2.000 
#    0.000    3.000    0.000    0.000    0.000    0.000 
#    0.000    0.000    0.000    0.000    0.000    0.000 
#
# Total GULP energy -223119.327842 kJ/mol
# GULP energy per Si atom -5577.983196 kJ/mol
# Density = 2.354724 g / cm^3
# Si number density = 23.600955 Si / 1000 Ang^3
#
#
#
# Elastic Constant Matrix: (Units=GPa)
#
#
# Indices 1 2 3 4 5 6 
#
# 1 50.2811 53.0073 4.6574 0.0000 0.0000 25.4157
# 2 53.0073 50.2811 4.6574 0.0000 0.0000 -25.4157
# 3 4.6574 4.6574 20.2043 0.0000 0.0000 0.0000
# 4 0.0000 0.0000 0.0000 14.6754 0.0000 0.0000
# 5 0.0000 0.0000 0.0000 0.0000 14.6754 0.0000
# 6 25.4157 -25.4157 0.0000 0.0000 0.0000 22.8756
#
#
#
# Elastic Compliance Matrix: (Units=1/GPa)
#
#
# Indices 1 2 3 4 5 6 
#
# 1 -0.003502 0.013389 -0.002279 0.000000 0.000000 0.018767
# 2 0.013389 -0.003502 -0.002279 0.000000 0.000000 -0.018767
# 3 -0.002279 -0.002279 0.050545 0.000000 0.000000 0.000000
# 4 0.000000 0.000000 0.000000 0.068141 0.000000 0.000000
# 5 0.000000 0.000000 0.000000 0.000000 0.068141 0.000000
# 6 0.018767 -0.018767 0.000000 0.000000 0.000000 0.002013
#
#
# Mechanical properties :
#
#
# Convention : Reuss Voigt Hill
#
# Bulk Modulus (GPa) = 16.33910 27.26785 21.80348
# Shear Modulus (GPa) = 27.08921 14.34157 20.71539
#
# Velocity S-wave (km/s) = 3.39160 2.46777 2.96587
# Velocity P-wave (km/s) = 4.71968 4.43831 4.58116
#
# Compressibility (1/GPa) = 0.06120289
#
# Stress axis : x y z
#
# Youngs Moduli (GPa) = -285.54275 -285.54275 19.78430
#
# Poissons Ratio (x) = 3.82321 0.04509
# Poissons Ratio (y) = 3.82321 0.04509
# Poissons Ratio (z) = -0.65079 -0.65079
#
# Static dielectric constant tensor:
#      x y z
#    x 1.919870 0.000000 0.000000 
#    y 0.000000 1.919870 0.000000 
#    z 0.000000 0.000000 1.886090 
# 
# From -- ./inp_files/771.got.cif
#   From: 2010.05.17/outbox.cif.g08.bks.cpg/sg84_1_cif.got.tgz:771.got - 2010.06.03 18:57:40.
