data_PCOD9543109
_publ_section_title
;
Structure prediction by ZEFSAII (Michael W. Deem and Ramdas Pophale) SiO2 
 PCOD9543109
Probable space group: I -4 
;
_chemical_formula_sum "Si O2"
_cell_formula_units_Z 44
_cell_length_a 17.769166
_cell_length_b 17.769166
_cell_length_c 6.637713
_cell_angle_alpha 90.000000
_cell_angle_beta 90.000000
_cell_angle_gamma 90.000000
_cell_volume 2095.813144
_symmetry_space_group_name_H-M "I -4 "
_symmetry_group_IT_number 82
_symmetry_cell_setting 'tetragonal'
loop_
_space_group_symop_operation_xyz
x,y,z
y,-x,-z
-x,-y,z
-y,x,-z
1/2+x,1/2+y,1/2+z
1/2+y,1/2-x,1/2-z
1/2-x,1/2-y,1/2+z
1/2-y,1/2+x,1/2-z
loop_
_atom_site_type_symbol
_atom_site_label
_atom_site_fract_x
_atom_site_fract_y
_atom_site_fract_z
Si Si1 0.421708 0.129606 0.518603
Si Si2 0.500000 0.000000 0.250000
Si Si3 0.000000 0.000000 0.000000
Si Si4 0.046553 0.093211 0.624362
Si Si5 0.161150 0.808868 0.417058
Si Si6 0.711102 0.826459 0.225306
Si Si7 0.695859 0.930379 0.838984
O O1 0.465468 0.065899 0.389865
O O2 0.359508 0.167937 0.376443
O O3 0.375414 0.091145 0.699711
O O4 0.482533 0.187938 0.604805
O O5 0.975415 0.933960 0.847037
O O6 0.102030 0.162637 0.617080
O O7 0.973181 0.094993 0.485074
O O8 0.149001 0.783766 0.646476
O O9 0.242125 0.777287 0.352079
O O10 0.097503 0.769089 0.281939
O O11 0.695264 0.881717 0.041706
#
# Coordination Sequence:
#
# PCOD9543109 Si02
#       7
#     8   2   2   8   8   8   8
#     4  11  24  39  65  95 128 169 218 259 321 376
#     4  12  20  42  64  92 134 172 204 278 308 376
#     4   8  18  40  64  94 124 160 206 264 324 378
#     4   9  21  41  63  96 125 158 213 270 316 388
#     4  11  24  42  64  90 130 171 210 267 322 380
#     4  11  24  43  62  91 129 172 213 262 318 382
#     4  11  24  42  64  93 130 169 215 263 314 381
#
# _framework density 20.994240000000001
#
# number of rings (size 3 to 8) (size 9 to 14) (size 15 to 20)
#    0.000    1.636    3.636    1.091    0.000    7.273 
#    0.000    0.000    0.000    0.000    0.000    0.000 
#    0.000    0.000    0.000    0.000    0.000    0.000 
#
# Total GULP energy -122925.173393 kJ/mol
# GULP energy per Si atom -5587.507881 kJ/mol
# Density = 2.094646 g / cm^3
# Si number density = 20.994240 Si / 1000 Ang^3
#
#
#
# Elastic Constant Matrix: (Units=GPa)
#
#
# Indices 1 2 3 4 5 6 
#
# 1 38.0677 -9.4451 10.1404 0.0000 0.0000 13.9015
# 2 -9.4451 38.0677 10.1404 0.0000 0.0000 -13.9015
# 3 10.1404 10.1404 120.1661 0.0000 0.0000 0.0000
# 4 0.0000 0.0000 0.0000 24.6859 0.0000 0.0000
# 5 0.0000 0.0000 0.0000 0.0000 24.6859 0.0000
# 6 13.9015 -13.9015 0.0000 0.0000 0.0000 31.8900
#
#
#
# Elastic Compliance Matrix: (Units=1/GPa)
#
#
# Indices 1 2 3 4 5 6 
#
# 1 0.032707 0.004453 -0.003136 0.000000 0.000000 -0.012317
# 2 0.004453 0.032707 -0.003136 0.000000 0.000000 0.012317
# 3 -0.003136 -0.003136 0.008851 0.000000 0.000000 0.000000
# 4 0.000000 0.000000 0.000000 0.040509 0.000000 0.000000
# 5 0.000000 0.000000 0.000000 0.000000 0.040509 0.000000
# 6 -0.012317 0.012317 0.000000 0.000000 0.000000 0.042096
#
#
# Mechanical properties :
#
#
# Convention : Reuss Voigt Hill
#
# Bulk Modulus (GPa) = 14.15896 24.21920 19.18908
# Shear Modulus (GPa) = 22.26592 28.61675 25.44133
#
# Velocity S-wave (km/s) = 3.26018 3.69599 3.48490
# Velocity P-wave (km/s) = 4.57499 5.45664 5.03515
#
# Compressibility (1/GPa) = 0.07062663
#
# Stress axis : x y z
#
# Youngs Moduli (GPa) = 30.57473 30.57473 112.98104
#
# Poissons Ratio (x) = -0.13613 0.35428
# Poissons Ratio (y) = -0.13613 0.35428
# Poissons Ratio (z) = 0.09587 0.09587
#
# Static dielectric constant tensor:
#      x y z
#    x 1.746060 0.000000 0.000000 
#    y 0.000000 1.746060 0.000000 
#    z 0.000000 0.000000 1.736130 
# 
# From -- ./inp_files/324.got.cif
#   From: 2010.05.17/outbox.cif.g08.bks.cpg/sg82_1_cif.got.tgz:324.got - 2010.06.03 18:52:26.
