data_PCOD9543203
_publ_section_title
;
Structure prediction by ZEFSAII (Michael W. Deem and Ramdas Pophale) SiO2 
 PCOD9543203
Probable space group: I -4 
;
_chemical_formula_sum "Si O2"
_cell_formula_units_Z 18
_cell_length_a 9.831573
_cell_length_b 9.831573
_cell_length_c 7.296332
_cell_angle_alpha 90.000000
_cell_angle_beta 90.000000
_cell_angle_gamma 90.000000
_cell_volume 705.262194
_symmetry_space_group_name_H-M "I -4 "
_symmetry_group_IT_number 82
_symmetry_cell_setting 'tetragonal'
loop_
_space_group_symop_operation_xyz
x,y,z
y,-x,-z
-x,-y,z
-y,x,-z
1/2+x,1/2+y,1/2+z
1/2+y,1/2-x,1/2-z
1/2-x,1/2-y,1/2+z
1/2-y,1/2+x,1/2-z
loop_
_atom_site_type_symbol
_atom_site_label
_atom_site_fract_x
_atom_site_fract_y
_atom_site_fract_z
Si Si1 0.652858 0.292333 0.233828
Si Si2 0.500000 0.500000 0.500000
Si Si3 0.845363 0.452858 0.007280
O O1 0.569975 0.389132 0.369681
O O2 0.573357 0.258098 0.045707
O O3 0.665398 0.148642 0.333786
O O4 0.791199 0.367459 0.179006
O O5 0.000000 0.500000 0.024333
#
# Coordination Sequence:
#
# PCOD9543203 Si02
#       3
#     8   2   8
#     4  12  25  52  77 117 164 212 276 335 415 487
#     4  12  28  50  76 116 160 218 276 340 404 498
#     4  12  26  52  81 120 164 214 274 342 410 494
#
# _framework density 25.522421999999999
#
# number of rings (size 3 to 8) (size 9 to 14) (size 15 to 20)
#    0.000    0.000    4.444    5.333    0.000    0.000 
#    8.000    0.000    0.000    0.000    0.000    0.000 
#    0.000    0.000    0.000    0.000    0.000    0.000 
#
# Total GULP energy -50566.185335 kJ/mol
# GULP energy per Si atom -5618.465037 kJ/mol
# Density = 2.546433 g / cm^3
# Si number density = 25.522422 Si / 1000 Ang^3
#
#
#
# Elastic Constant Matrix: (Units=GPa)
#
#
# Indices 1 2 3 4 5 6 
#
# 1 151.2299 79.5143 53.7635 0.0000 0.0000 21.1235
# 2 79.5143 151.2299 53.7635 0.0000 0.0000 -21.1235
# 3 53.7635 53.7635 102.1008 0.0000 0.0000 0.0000
# 4 0.0000 0.0000 0.0000 61.1702 0.0000 0.0000
# 5 0.0000 0.0000 0.0000 0.0000 61.1702 0.0000
# 6 21.1235 -21.1235 0.0000 0.0000 0.0000 60.5274
#
#
#
# Elastic Compliance Matrix: (Units=1/GPa)
#
#
# Indices 1 2 3 4 5 6 
#
# 1 0.011648 -0.005905 -0.003024 0.000000 0.000000 -0.006126
# 2 -0.005905 0.011648 -0.003024 0.000000 0.000000 0.006126
# 3 -0.003024 -0.003024 0.012979 0.000000 0.000000 0.000000
# 4 0.000000 0.000000 0.000000 0.016348 0.000000 0.000000
# 5 0.000000 0.000000 0.000000 0.000000 0.016348 0.000000
# 6 -0.006126 0.006126 0.000000 0.000000 0.000000 0.020797
#
#
# Mechanical properties :
#
#
# Convention : Reuss Voigt Hill
#
# Bulk Modulus (GPa) = 80.84951 86.51593 83.68272
# Shear Modulus (GPa) = 42.44613 51.07485 46.76049
#
# Velocity S-wave (km/s) = 4.08253 4.47830 4.28499
# Velocity P-wave (km/s) = 7.34638 7.79178 7.57236
#
# Compressibility (1/GPa) = 0.01236866
#
# Stress axis : x y z
#
# Youngs Moduli (GPa) = 85.85303 85.85303 77.04693
#
# Poissons Ratio (x) = 0.50694 0.23300
# Poissons Ratio (y) = 0.50694 0.23300
# Poissons Ratio (z) = 0.25963 0.25963
#
# Static dielectric constant tensor:
#      x y z
#    x 2.012580 0.000000 0.000000 
#    y 0.000000 2.012580 0.000000 
#    z 0.000000 0.000000 2.007600 
# 
# From -- ./inp_files/60.got.cif
#   From: 2010.05.17/outbox.cif.g08.bks.cpg/sg82_1_cif.got.tgz:60.got - 2010.06.03 18:52:26.
