data_PCOD9543521
_publ_section_title
;
Structure prediction by ZEFSAII (Michael W. Deem and Ramdas Pophale) SiO2 
 PCOD9543521
Probable space group: P 4/M
;
_chemical_formula_sum "Si O2"
_cell_formula_units_Z 40
_cell_length_a 7.801855
_cell_length_b 7.801855
_cell_length_c 29.198032
_cell_angle_alpha 90.000000
_cell_angle_beta 90.000000
_cell_angle_gamma 90.000000
_cell_volume 1777.253300
_symmetry_space_group_name_H-M "P 4/M"
_symmetry_group_IT_number 83
_symmetry_cell_setting 'tetragonal'
loop_
_space_group_symop_operation_xyz
x,y,z
-y,x,z
-x,-y,z
y,-x,z
-x,-y,-z
y,-x,-z
x,y,-z
-y,x,-z
loop_
_atom_site_type_symbol
_atom_site_label
_atom_site_fract_x
_atom_site_fract_y
_atom_site_fract_z
Si Si1 0.391949 0.231416 0.754910
Si Si2 0.500000 0.000000 0.421849
Si Si3 0.607278 0.768435 0.653203
Si Si4 0.768824 0.602320 0.000000
Si Si5 0.000000 0.500000 0.829304
Si Si6 0.899470 0.728808 0.500000
Si Si7 0.901279 0.731098 0.095494
O O1 0.592380 0.287008 0.758107
O O2 0.361242 0.157855 0.704017
O O3 0.369339 0.098756 0.795796
O O4 0.371791 0.102199 0.388412
O O5 0.390188 0.878699 0.455431
O O6 0.407173 0.712763 0.650319
O O7 0.594456 0.712887 0.000000
O O8 0.867753 0.649406 0.953879
O O9 0.128068 0.400767 0.863322
O O10 0.788022 0.900257 0.500000
O O11 0.098678 0.788559 0.099092
#
# Coordination Sequence:
#
# PCOD9543521 Si02
#       7
#     8   4   8   4   4   4   8
#     4   9  19  35  54  78 109 142 175 218 270 315
#     4  11  19  32  55  76  97 136 181 217 264 320
#     4   9  18  33  53  78 105 133 173 223 269 314
#     4  11  24  43  66  89 110 138 182 229 270 321
#     4  12  21  35  57  82 111 145 187 220 252 316
#     4  10  22  36  48  70 106 140 172 216 268 322
#     4  11  24  40  59  84 115 149 181 221 274 322
#
# _framework density 22.506637999999999
#
# number of rings (size 3 to 8) (size 9 to 14) (size 15 to 20)
#    0.000    1.800    0.000    6.000    0.000    2.000 
#    0.000    2.000    0.000    4.800    0.000   16.800 
#    0.000    0.000    0.000    0.000    0.000    0.000 
#
# Total GULP energy -223709.180959 kJ/mol
# GULP energy per Si atom -5592.729524 kJ/mol
# Density = 2.245541 g / cm^3
# Si number density = 22.506638 Si / 1000 Ang^3
#
#
#
# Elastic Constant Matrix: (Units=GPa)
#
#
# Indices 1 2 3 4 5 6 
#
# 1 54.6071 -6.5699 23.0220 0.0000 0.0000 8.9959
# 2 -6.5699 54.6071 23.0220 0.0000 0.0000 -8.9959
# 3 23.0220 23.0220 182.0481 0.0000 0.0000 0.0000
# 4 0.0000 0.0000 0.0000 20.9617 0.0000 0.0000
# 5 0.0000 0.0000 0.0000 0.0000 20.9617 0.0000
# 6 8.9959 -8.9959 0.0000 0.0000 0.0000 26.0870
#
#
#
# Elastic Compliance Matrix: (Units=1/GPa)
#
#
# Indices 1 2 3 4 5 6 
#
# 1 0.020940 0.002749 -0.002996 0.000000 0.000000 -0.006273
# 2 0.002749 0.020940 -0.002996 0.000000 0.000000 0.006273
# 3 -0.002996 -0.002996 0.006251 0.000000 0.000000 0.000000
# 4 0.000000 0.000000 0.000000 0.047706 0.000000 0.000000
# 5 0.000000 0.000000 0.000000 0.000000 0.047706 0.000000
# 6 -0.006273 0.006273 0.000000 0.000000 0.000000 0.042660
#
#
# Mechanical properties :
#
#
# Convention : Reuss Voigt Hill
#
# Bulk Modulus (GPa) = 24.01241 41.13452 32.57346
# Shear Modulus (GPa) = 24.20506 30.38798 27.29652
#
# Velocity S-wave (km/s) = 3.28298 3.67846 3.48634
# Velocity P-wave (km/s) = 5.00628 6.02974 5.54169
#
# Compressibility (1/GPa) = 0.04164514
#
# Stress axis : x y z
#
# Youngs Moduli (GPa) = 47.75617 47.75617 159.98130
#
# Poissons Ratio (x) = -0.13128 0.47925
# Poissons Ratio (y) = -0.13128 0.47925
# Poissons Ratio (z) = 0.14306 0.14306
#
# Static dielectric constant tensor:
#      x y z
#    x 1.828990 0.000000 0.000000 
#    y 0.000000 1.828990 0.000000 
#    z 0.000000 0.000000 1.830200 
# 
# From -- ./inp_files/3296.got.cif
#   From: 2010.05.17/outbox.cif.g08.bks.cpg/sg83_2_cif.got.tgz:3296.got - 2010.06.03 18:55:12.
