data_PCOD9543488
_publ_section_title
;
Structure prediction by ZEFSAII (Michael W. Deem and Ramdas Pophale) SiO2 
 PCOD9543488
Probable space group: P 4/M
;
_chemical_formula_sum "Si O2"
_cell_formula_units_Z 40
_cell_length_a 15.528493
_cell_length_b 15.528493
_cell_length_c 8.676578
_cell_angle_alpha 90.000000
_cell_angle_beta 90.000000
_cell_angle_gamma 90.000000
_cell_volume 2092.218782
_symmetry_space_group_name_H-M "P 4/M"
_symmetry_group_IT_number 83
_symmetry_cell_setting 'tetragonal'
loop_
_space_group_symop_operation_xyz
x,y,z
-y,x,z
-x,-y,z
y,-x,z
-x,-y,-z
y,-x,-z
x,y,-z
-y,x,-z
loop_
_atom_site_type_symbol
_atom_site_label
_atom_site_fract_x
_atom_site_fract_y
_atom_site_fract_z
Si Si1 0.741442 0.512617 0.319114
Si Si2 0.438983 0.917455 0.177515
Si Si3 0.031014 0.255725 0.314249
Si Si4 0.162606 0.794436 0.685559
Si Si5 0.310279 0.669204 0.182878
O O1 0.726335 0.501121 0.500000
O O2 0.842344 0.523961 0.283450
O O3 0.708740 0.428822 0.229920
O O4 0.698629 0.600882 0.261188
O O5 0.344699 0.943777 0.233856
O O6 0.500000 0.000000 0.184433
O O7 0.435641 0.886651 0.000000
O O8 0.031087 0.267912 0.500000
O O9 0.107223 0.188539 0.278001
O O10 0.935206 0.226799 0.268253
O O11 0.168582 0.784299 0.500000
O O12 0.232237 0.730040 0.759275
O O13 0.317716 0.677348 0.000000
#
# Coordination Sequence:
#
# PCOD9543488 Si02
#       5
#     8   8   8   8   8
#     4  12  25  43  67  94 127 169 215 263 318 384
#     4  11  23  39  61  93 128 165 214 268 325 380
#     4  10  21  37  61  90 127 171 218 265 319 382
#     4  10  21  39  62  93 129 173 219 266 320 382
#     4  12  25  43  66  95 130 169 212 266 325 384
#
# _framework density 19.118459000000001
#
# number of rings (size 3 to 8) (size 9 to 14) (size 15 to 20)
#    0.000    1.000    2.000    5.400    0.000    6.400 
#    0.000    4.000    0.000    0.000    0.000    2.800 
#    0.000    0.000    0.000    0.000    0.000    0.000 
#
# Total GULP energy -223740.233305 kJ/mol
# GULP energy per Si atom -5593.505833 kJ/mol
# Density = 1.907494 g / cm^3
# Si number density = 19.118459 Si / 1000 Ang^3
#
#
#
# Elastic Constant Matrix: (Units=GPa)
#
#
# Indices 1 2 3 4 5 6 
#
# 1 68.1621 -10.2975 -5.4991 0.0000 0.0000 -0.6694
# 2 -10.2975 68.1621 -5.4991 0.0000 0.0000 0.6694
# 3 -5.4991 -5.4991 31.7703 0.0000 0.0000 0.0000
# 4 0.0000 0.0000 0.0000 57.7625 0.0000 0.0000
# 5 0.0000 0.0000 0.0000 0.0000 57.7625 0.0000
# 6 -0.6694 0.6694 0.0000 0.0000 0.0000 34.8439
#
#
#
# Elastic Compliance Matrix: (Units=1/GPa)
#
#
# Indices 1 2 3 4 5 6 
#
# 1 0.015310 0.002560 0.003093 0.000000 0.000000 0.000245
# 2 0.002560 0.015310 0.003093 0.000000 0.000000 -0.000245
# 3 0.003093 0.003093 0.032547 0.000000 0.000000 0.000000
# 4 0.000000 0.000000 0.000000 0.017312 0.000000 0.000000
# 5 0.000000 0.000000 0.000000 0.000000 0.017312 0.000000
# 6 0.000245 -0.000245 0.000000 0.000000 0.000000 0.028709
#
#
# Mechanical properties :
#
#
# Convention : Reuss Voigt Hill
#
# Bulk Modulus (GPa) = 12.39802 13.94479 13.17140
# Shear Modulus (GPa) = 36.79361 42.69980 39.74670
#
# Velocity S-wave (km/s) = 4.39168 4.73105 4.56452
# Velocity P-wave (km/s) = 5.67580 6.09537 5.88932
#
# Compressibility (1/GPa) = 0.08065804
#
# Stress axis : x y z
#
# Youngs Moduli (GPa) = 65.31848 65.31848 30.72509
#
# Poissons Ratio (x) = -0.16722 -0.09503
# Poissons Ratio (y) = -0.16722 -0.09503
# Poissons Ratio (z) = -0.20203 -0.20203
#
# Static dielectric constant tensor:
#      x y z
#    x 1.640780 0.000000 0.000000 
#    y 0.000000 1.640780 0.000000 
#    z 0.000000 0.000000 1.648310 
# 
# From -- ./inp_files/636.got.cif
#   From: 2010.05.17/outbox.cif.g08.bks.cpg/sg83_1_cif.got.tgz:636.got - 2010.06.03 18:55:12.
