data_PCOD9543207
_publ_section_title
;
Structure prediction by ZEFSAII (Michael W. Deem and Ramdas Pophale) SiO2 
 PCOD9543207
Probable space group: I -4 
;
_chemical_formula_sum "Si O2"
_cell_formula_units_Z 28
_cell_length_a 13.746460
_cell_length_b 13.746460
_cell_length_c 5.755550
_cell_angle_alpha 90.000000
_cell_angle_beta 90.000000
_cell_angle_gamma 90.000000
_cell_volume 1087.598441
_symmetry_space_group_name_H-M "I -4 "
_symmetry_group_IT_number 82
_symmetry_cell_setting 'tetragonal'
loop_
_space_group_symop_operation_xyz
x,y,z
y,-x,-z
-x,-y,z
-y,x,-z
1/2+x,1/2+y,1/2+z
1/2+y,1/2-x,1/2-z
1/2-x,1/2-y,1/2+z
1/2-y,1/2+x,1/2-z
loop_
_atom_site_type_symbol
_atom_site_label
_atom_site_fract_x
_atom_site_fract_y
_atom_site_fract_z
Si Si1 0.524717 0.859737 0.145753
Si Si2 0.492087 0.289593 0.826850
Si Si3 0.500000 0.500000 0.000000
Si Si4 0.500000 0.000000 0.750000
Si Si5 0.789928 0.710767 0.190906
O O1 0.415829 0.897804 0.198596
O O2 0.529954 0.748033 0.092962
O O3 0.543705 0.916539 0.906515
O O4 0.597258 0.241775 0.779079
O O5 0.402543 0.248366 0.676699
O O6 0.495637 0.404427 0.840206
O O7 0.756092 0.756376 0.441867
#
# Coordination Sequence:
#
# PCOD9543207 Si02
#       5
#     8   8   2   2   8
#     4   9  20  37  71 113 164 204 279 356 437 490
#     4  12  27  51  89 124 179 241 304 372 456 550
#     4  12  28  52  82 124 186 244 290 360 482 560
#     4   8  14  36  56 114 148 200 246 364 408 490
#     4  12  31  57  90 131 182 239 310 378 457 543
#
# _framework density 25.744795
#
# number of rings (size 3 to 8) (size 9 to 14) (size 15 to 20)
#    0.000    1.429    2.857    1.714    4.000    9.714 
#    0.000    0.000    0.000    0.000    0.000    0.000 
#    0.000    0.000    0.000    0.000    0.000    0.000 
#
# Total GULP energy -78148.788621 kJ/mol
# GULP energy per Si atom -5582.056330 kJ/mol
# Density = 2.568620 g / cm^3
# Si number density = 25.744795 Si / 1000 Ang^3
#
#
#
# Elastic Constant Matrix: (Units=GPa)
#
#
# Indices 1 2 3 4 5 6 
#
# 1 172.6197 7.4706 32.2878 0.0000 0.0000 -2.1492
# 2 7.4706 172.6197 32.2878 0.0000 0.0000 2.1492
# 3 32.2878 32.2878 104.1760 0.0000 0.0000 0.0000
# 4 0.0000 0.0000 0.0000 40.4743 0.0000 0.0000
# 5 0.0000 0.0000 0.0000 0.0000 40.4743 0.0000
# 6 -2.1492 2.1492 0.0000 0.0000 0.0000 29.4008
#
#
#
# Elastic Compliance Matrix: (Units=1/GPa)
#
#
# Indices 1 2 3 4 5 6 
#
# 1 0.006157 0.000090 -0.001936 0.000000 0.000000 0.000443
# 2 0.000090 0.006157 -0.001936 0.000000 0.000000 -0.000443
# 3 -0.001936 -0.001936 0.010799 0.000000 0.000000 0.000000
# 4 0.000000 0.000000 0.000000 0.024707 0.000000 0.000000
# 5 0.000000 0.000000 0.000000 0.000000 0.024707 0.000000
# 6 0.000443 -0.000443 0.000000 0.000000 0.000000 0.034078
#
#
# Mechanical properties :
#
#
# Convention : Reuss Voigt Hill
#
# Bulk Modulus (GPa) = 64.31412 65.94530 65.12971
# Shear Modulus (GPa) = 41.89293 47.22782 44.56037
#
# Velocity S-wave (km/s) = 4.03828 4.28771 4.16486
# Velocity P-wave (km/s) = 6.83954 7.08401 6.96285
#
# Compressibility (1/GPa) = 0.01554868
#
# Stress axis : x y z
#
# Youngs Moduli (GPa) = 162.42058 162.42058 92.59839
#
# Poissons Ratio (x) = -0.01465 0.17929
# Poissons Ratio (y) = -0.01465 0.17929
# Poissons Ratio (z) = 0.31447 0.31447
#
# Static dielectric constant tensor:
#      x y z
#    x 2.110780 0.000000 0.000000 
#    y 0.000000 2.110780 0.000000 
#    z 0.000000 0.000000 2.115630 
# 
# From -- ./inp_files/127.got.cif
#   From: 2010.05.17/outbox.cif.g08.bks.cpg/sg82_1_cif.got.tgz:127.got - 2010.06.03 18:52:26.
