data_PCOD9543572
_publ_section_title
;
Structure prediction by ZEFSAII (Michael W. Deem and Ramdas Pophale) SiO2 
 PCOD9543572
Probable space group: P 4/M
;
_chemical_formula_sum "Si O2"
_cell_formula_units_Z 56
_cell_length_a 13.732553
_cell_length_b 13.732553
_cell_length_c 12.137002
_cell_angle_alpha 90.000000
_cell_angle_beta 90.000000
_cell_angle_gamma 90.000000
_cell_volume 2288.832393
_symmetry_space_group_name_H-M "P 4/M"
_symmetry_group_IT_number 83
_symmetry_cell_setting 'tetragonal'
loop_
_space_group_symop_operation_xyz
x,y,z
-y,x,z
-x,-y,z
y,-x,z
-x,-y,-z
y,-x,-z
x,y,-z
-y,x,-z
loop_
_atom_site_type_symbol
_atom_site_label
_atom_site_fract_x
_atom_site_fract_y
_atom_site_fract_z
Si Si1 0.995429 0.213058 0.875185
Si Si2 0.193871 0.719846 0.740729
Si Si3 0.349782 0.474607 0.658568
Si Si4 0.603486 0.298195 0.124573
Si Si5 0.514798 0.862983 0.376069
Si Si6 0.875857 0.091967 0.669510
Si Si7 0.920816 0.576512 0.838502
O O1 0.893829 0.248967 0.822127
O O2 0.055840 0.139236 0.797931
O O3 0.055335 0.314011 0.870586
O O4 0.984428 0.179966 0.000000
O O5 0.292979 0.706367 0.809930
O O6 0.159928 0.619849 0.681522
O O7 0.196533 0.815836 0.660816
O O8 0.422945 0.391866 0.621656
O O9 0.350237 0.469373 0.791547
O O10 0.241794 0.463087 0.619372
O O11 0.560300 0.188573 0.121705
O O12 0.613929 0.334766 0.000000
O O13 0.528574 0.898916 0.500000
O O14 0.443121 0.920052 0.293381
O O15 0.980659 0.131069 0.626620
O O16 0.000000 0.500000 0.881120
#
# Coordination Sequence:
#
# PCOD9543572 Si02
#       7
#     8   8   8   8   8   8   8
#     4  11  22  37  62  94 135 181 217 262 328 394
#     4  11  21  42  61  93 132 166 222 274 321 396
#     4  10  22  43  63  89 124 155 210 263 312 389
#     4  11  23  39  62  90 131 174 206 252 315 388
#     4  11  25  45  68  91 123 169 218 279 340 383
#     4   9  20  37  63  94 132 174 216 267 320 382
#     4  11  23  43  60  94 132 166 220 272 317 395
#
# _framework density 24.466625000000001
#
# number of rings (size 3 to 8) (size 9 to 14) (size 15 to 20)
#    0.000    1.429    4.286    0.857    0.000    4.857 
#    0.000    4.286    0.000    3.429    0.000    4.000 
#    0.000    0.000    0.000    0.000    0.000    0.000 
#
# Total GULP energy -312415.672755 kJ/mol
# GULP energy per Si atom -5578.851299 kJ/mol
# Density = 2.441094 g / cm^3
# Si number density = 24.466625 Si / 1000 Ang^3
#
#
#
# Elastic Constant Matrix: (Units=GPa)
#
#
# Indices 1 2 3 4 5 6 
#
# 1 86.0653 12.1631 19.3493 0.0000 0.0000 -9.6360
# 2 12.1631 86.0653 19.3493 0.0000 0.0000 9.6360
# 3 19.3493 19.3493 173.4945 0.0000 0.0000 0.0000
# 4 0.0000 0.0000 0.0000 58.9847 0.0000 0.0000
# 5 0.0000 0.0000 0.0000 0.0000 58.9847 0.0000
# 6 -9.6360 9.6360 0.0000 0.0000 0.0000 32.6779
#
#
#
# Elastic Compliance Matrix: (Units=1/GPa)
#
#
# Indices 1 2 3 4 5 6 
#
# 1 0.012653 -0.002005 -0.001188 0.000000 0.000000 0.004323
# 2 -0.002005 0.012653 -0.001188 0.000000 0.000000 -0.004323
# 3 -0.001188 -0.001188 0.006029 0.000000 0.000000 0.000000
# 4 0.000000 0.000000 0.000000 0.016954 0.000000 0.000000
# 5 0.000000 0.000000 0.000000 0.000000 0.016954 0.000000
# 6 0.004323 -0.004323 0.000000 0.000000 0.000000 0.033151
#
#
# Mechanical properties :
#
#
# Convention : Reuss Voigt Hill
#
# Bulk Modulus (GPa) = 44.29690 49.70540 47.00115
# Shear Modulus (GPa) = 43.59988 49.78036 46.69012
#
# Velocity S-wave (km/s) = 4.22597 4.51557 4.37317
# Velocity P-wave (km/s) = 6.47735 6.89543 6.68966
#
# Compressibility (1/GPa) = 0.02257494
#
# Stress axis : x y z
#
# Youngs Moduli (GPa) = 79.03008 79.03008 165.87155
#
# Poissons Ratio (x) = 0.15847 0.19698
# Poissons Ratio (y) = 0.15847 0.19698
# Poissons Ratio (z) = 0.09385 0.09385
#
# Static dielectric constant tensor:
#      x y z
#    x 1.979370 0.000000 0.000000 
#    y 0.000000 1.979370 0.000000 
#    z 0.000000 0.000000 2.027770 
# 
# From -- ./inp_files/1948.got.cif
#   From: 2010.05.17/outbox.cif.g08.bks.cpg/sg83_1_cif.got.tgz:1948.got - 2010.06.03 18:55:12.
