data_PCOD9543350
_publ_section_title
;
Structure prediction by ZEFSAII (Michael W. Deem and Ramdas Pophale) SiO2 
 PCOD9543350
Probable space group: P 4/M
;
_chemical_formula_sum "Si O2"
_cell_formula_units_Z 36
_cell_length_a 14.892662
_cell_length_b 14.892662
_cell_length_c 8.022318
_cell_angle_alpha 90.000000
_cell_angle_beta 90.000000
_cell_angle_gamma 90.000000
_cell_volume 1779.280992
_symmetry_space_group_name_H-M "P 4/M"
_symmetry_group_IT_number 83
_symmetry_cell_setting 'tetragonal'
loop_
_space_group_symop_operation_xyz
x,y,z
-y,x,z
-x,-y,z
y,-x,z
-x,-y,-z
y,-x,-z
x,y,-z
-y,x,-z
loop_
_atom_site_type_symbol
_atom_site_label
_atom_site_fract_x
_atom_site_fract_y
_atom_site_fract_z
Si Si1 0.480810 0.777233 0.316190
Si Si2 0.891571 0.685857 0.801944
Si Si3 0.350334 0.495478 0.000000
Si Si4 0.588745 0.936946 0.809172
Si Si5 0.878651 0.079970 0.298660
O O1 0.483678 0.736813 0.500000
O O2 0.385498 0.828044 0.288999
O O3 0.559132 0.852032 0.297085
O O4 0.492284 0.709530 0.164981
O O5 0.872763 0.789816 0.769164
O O6 0.994642 0.664820 0.748169
O O7 0.886635 0.666450 0.000000
O O8 0.416050 0.410618 0.000000
O O9 0.500000 0.000000 0.814344
O O10 0.607836 0.908643 0.000000
O O11 0.875718 0.082345 0.500000
O O12 0.974861 0.119708 0.246561
#
# Coordination Sequence:
#
# PCOD9543350 Si02
#       5
#     8   8   4   8   8
#     4  11  21  39  67  95 123 154 198 251 307 371
#     4  10  19  34  58  89 125 162 203 256 305 352
#     4  11  26  50  71  88 122 159 194 251 315 383
#     4   8  15  31  55  84 122 160 191 238 303 356
#     4   9  19  36  53  74 116 169 214 253 294 347
#
# _framework density 20.232893000000001
#
# number of rings (size 3 to 8) (size 9 to 14) (size 15 to 20)
#    0.000    2.333    2.222    2.667    0.000    6.667 
#    4.000    2.222    0.000    0.000    0.000    0.000 
#    0.000    0.000    0.000    0.000    0.000    0.000 
#
# Total GULP energy -200920.962951 kJ/mol
# GULP energy per Si atom -5581.137860 kJ/mol
# Density = 2.018684 g / cm^3
# Si number density = 20.232893 Si / 1000 Ang^3
#
#
#
# Elastic Constant Matrix: (Units=GPa)
#
#
# Indices 1 2 3 4 5 6 
#
# 1 55.0750 -17.8128 28.5046 0.0000 0.0000 -12.4212
# 2 -17.8128 55.0750 28.5046 0.0000 0.0000 12.4212
# 3 28.5046 28.5046 117.6368 0.0000 0.0000 0.0000
# 4 0.0000 0.0000 0.0000 0.7197 0.0000 0.0000
# 5 0.0000 0.0000 0.0000 0.0000 0.7197 0.0000
# 6 -12.4212 12.4212 0.0000 0.0000 0.0000 34.5407
#
#
#
# Elastic Compliance Matrix: (Units=1/GPa)
#
#
# Indices 1 2 3 4 5 6 
#
# 1 0.029142 0.013505 -0.010334 0.000000 0.000000 0.005623
# 2 0.013505 0.029142 -0.010334 0.000000 0.000000 -0.005623
# 3 -0.010334 -0.010334 0.013509 0.000000 0.000000 0.000000
# 4 0.000000 0.000000 0.000000 1.389418 0.000000 0.000000
# 5 0.000000 0.000000 0.000000 0.000000 1.389418 0.000000
# 6 0.005623 -0.005623 0.000000 0.000000 0.000000 0.032996
#
#
# Mechanical properties :
#
#
# Convention : Reuss Voigt Hill
#
# Bulk Modulus (GPa) = 17.40112 34.01993 25.71053
# Shear Modulus (GPa) = 1.71403 19.76871 10.74137
#
# Velocity S-wave (km/s) = 0.92141 3.12918 2.30660
# Velocity P-wave (km/s) = 3.12267 5.46867 4.45295
#
# Compressibility (1/GPa) = 0.05746757
#
# Stress axis : x y z
#
# Youngs Moduli (GPa) = 34.31518 34.31518 74.02627
#
# Poissons Ratio (x) = -0.46344 0.76497
# Poissons Ratio (y) = -0.46344 0.76497
# Poissons Ratio (z) = 0.35461 0.35461
#
# Static dielectric constant tensor:
#      x y z
#    x 1.721230 0.000000 0.000000 
#    y 0.000000 1.721230 0.000000 
#    z 0.000000 0.000000 1.717110 
# 
# From -- ./inp_files/565.got.cif
#   From: 2010.05.17/outbox.cif.g08.bks.cpg/sg83_1_cif.got.tgz:565.got - 2010.06.03 18:55:12.
