data_PCOD9543059
_publ_section_title
;
Structure prediction by ZEFSAII (Michael W. Deem and Ramdas Pophale) SiO2 
 PCOD9543059
Probable space group: I -4 
;
_chemical_formula_sum "Si O2"
_cell_formula_units_Z 40
_cell_length_a 10.324006
_cell_length_b 10.324006
_cell_length_c 17.407041
_cell_angle_alpha 90.000000
_cell_angle_beta 90.000000
_cell_angle_gamma 90.000000
_cell_volume 1855.331204
_symmetry_space_group_name_H-M "I -4 "
_symmetry_group_IT_number 82
_symmetry_cell_setting 'tetragonal'
loop_
_space_group_symop_operation_xyz
x,y,z
y,-x,-z
-x,-y,z
-y,x,-z
1/2+x,1/2+y,1/2+z
1/2+y,1/2-x,1/2-z
1/2-x,1/2-y,1/2+z
1/2-y,1/2+x,1/2-z
loop_
_atom_site_type_symbol
_atom_site_label
_atom_site_fract_x
_atom_site_fract_y
_atom_site_fract_z
Si Si1 0.004287 0.158999 0.316762
Si Si2 0.942160 0.793749 0.484452
Si Si3 0.205429 0.941571 0.985905
Si Si4 0.760403 0.183875 0.823736
Si Si5 0.376556 0.059918 0.101264
O O1 0.861847 0.222655 0.309974
O O2 0.067865 0.222258 0.393063
O O3 0.087627 0.204461 0.244401
O O4 0.000000 0.000000 0.323926
O O5 0.912582 0.675070 0.540921
O O6 0.087862 0.847126 0.494917
O O7 0.255142 0.895964 0.903461
O O8 0.087039 0.852271 0.013983
O O9 0.315412 0.947276 0.049273
O O10 0.883855 0.273731 0.840392
O O11 0.500000 0.000000 0.140968
#
# Coordination Sequence:
#
# PCOD9543059 Si02
#       5
#     8   8   8   8   8
#     4  12  26  48  70 102 145 187 234 307 354 425
#     4  11  21  45  73  96 132 180 242 292 346 413
#     4   9  21  42  70 105 141 184 230 292 347 414
#     4  11  26  47  68 105 142 188 236 286 375 416
#     4  11  23  40  74 106 136 182 242 289 353 432
#
# _framework density 21.559494000000001
#
# number of rings (size 3 to 8) (size 9 to 14) (size 15 to 20)
#    0.000    1.200    4.000    1.200   11.200    0.400 
#    7.200    0.000    0.000    0.000    0.000    0.000 
#    0.000    0.000    0.000    0.000    0.000    0.000 
#
# Total GULP energy -111817.657206 kJ/mol
# GULP energy per Si atom -5590.882860 kJ/mol
# Density = 2.151042 g / cm^3
# Si number density = 21.559494 Si / 1000 Ang^3
#
#
#
# Elastic Constant Matrix: (Units=GPa)
#
#
# Indices 1 2 3 4 5 6 
#
# 1 69.9607 21.3064 29.3875 0.0000 0.0000 -1.7848
# 2 21.3064 69.9607 29.3875 0.0000 0.0000 1.7848
# 3 29.3875 29.3875 105.9787 0.0000 0.0000 0.0000
# 4 0.0000 0.0000 0.0000 20.8138 0.0000 0.0000
# 5 0.0000 0.0000 0.0000 0.0000 20.8138 0.0000
# 6 -1.7848 1.7848 0.0000 0.0000 0.0000 22.7270
#
#
#
# Elastic Compliance Matrix: (Units=1/GPa)
#
#
# Indices 1 2 3 4 5 6 
#
# 1 0.017006 -0.003667 -0.003699 0.000000 0.000000 0.001623
# 2 -0.003667 0.017006 -0.003699 0.000000 0.000000 -0.001623
# 3 -0.003699 -0.003699 0.011487 0.000000 0.000000 0.000000
# 4 0.000000 0.000000 0.000000 0.048045 0.000000 0.000000
# 5 0.000000 0.000000 0.000000 0.000000 0.048045 0.000000
# 6 0.001623 -0.001623 0.000000 0.000000 0.000000 0.044256
#
#
# Mechanical properties :
#
#
# Convention : Reuss Voigt Hill
#
# Bulk Modulus (GPa) = 42.79059 45.11813 43.95436
# Shear Modulus (GPa) = 23.17362 23.92548 23.54955
#
# Velocity S-wave (km/s) = 3.28208 3.33489 3.30859
# Velocity P-wave (km/s) = 5.85265 5.98343 5.91840
#
# Compressibility (1/GPa) = 0.02336962
#
# Stress axis : x y z
#
# Youngs Moduli (GPa) = 58.80433 58.80433 87.05345
#
# Poissons Ratio (x) = 0.21562 0.32199
# Poissons Ratio (y) = 0.21562 0.32199
# Poissons Ratio (z) = 0.21751 0.21751
#
# Static dielectric constant tensor:
#      x y z
#    x 1.803580 0.000000 0.000000 
#    y 0.000000 1.803580 0.000000 
#    z 0.000000 0.000000 1.764240 
# 
# From -- ./inp_files/2188.got.cif
#   From: 2010.05.17/outbox.cif.g08.bks.cpg/sg82_2_cif.got.tgz:2188.got - 2010.06.03 18:52:26.
