data_PCOD9543756
_publ_section_title
;
Structure prediction by ZEFSAII (Michael W. Deem and Ramdas Pophale) SiO2 
 PCOD9543756
Probable space group: P 4/M
;
_chemical_formula_sum "Si O2"
_cell_formula_units_Z 48
_cell_length_a 8.028904
_cell_length_b 8.028904
_cell_length_c 32.626819
_cell_angle_alpha 90.000000
_cell_angle_beta 90.000000
_cell_angle_gamma 90.000000
_cell_volume 2103.232403
_symmetry_space_group_name_H-M "P 4/M"
_symmetry_group_IT_number 83
_symmetry_cell_setting 'tetragonal'
loop_
_space_group_symop_operation_xyz
x,y,z
-y,x,z
-x,-y,z
y,-x,z
-x,-y,-z
y,-x,-z
x,y,-z
-y,x,-z
loop_
_atom_site_type_symbol
_atom_site_label
_atom_site_fract_x
_atom_site_fract_y
_atom_site_fract_z
Si Si1 0.914298 0.733190 0.419018
Si Si2 0.265409 0.913063 0.742008
Si Si3 0.763149 0.606841 0.000000
Si Si4 0.586314 0.233268 0.500000
Si Si5 0.584800 0.233261 0.338348
Si Si6 0.236927 0.394845 0.087656
Si Si7 0.599623 0.235601 0.823433
O O1 0.867748 0.630617 0.459311
O O2 0.872636 0.633972 0.377897
O O3 0.102141 0.798493 0.419435
O O4 0.376721 0.861522 0.703594
O O5 0.352176 0.875468 0.785106
O O6 0.101011 0.797769 0.739671
O O7 0.587498 0.707077 0.000000
O O8 0.848763 0.640930 0.956134
O O9 0.701755 0.398268 0.500000
O O10 0.701127 0.397330 0.339537
O O11 0.411420 0.293483 0.087660
O O12 0.155418 0.364832 0.131835
O O13 0.705384 0.407707 0.821194
#
# Coordination Sequence:
#
# PCOD9543756 Si02
#       7
#     8   8   4   4   8   8   8
#     4  11  24  41  62  90 122 155 192 231 272 321
#     4  11  24  39  54  75 103 136 176 219 262 312
#     4   7   8  12  26  52  88 125 154 186 238 299
#     4  11  24  41  62  90 122 157 200 243 280 322
#     4  11  24  41  62  88 114 141 177 220 267 322
#     4   7  10  17  32  58  92 125 156 194 243 300
#     4   9  17  30  49  74 102 131 166 209 257 311
#
# _framework density 22.822016999999999
#
# number of rings (size 3 to 8) (size 9 to 14) (size 15 to 20)
#    0.000    2.333    0.000    5.500    0.000   12.000 
#    0.000    0.000    0.000    0.000    0.000    1.167 
#    0.000    8.000    0.000    0.000    0.000    0.000 
#
# Total GULP energy -268679.558144 kJ/mol
# GULP energy per Si atom -5597.490795 kJ/mol
# Density = 2.277007 g / cm^3
# Si number density = 22.822017 Si / 1000 Ang^3
#
#
#
# Elastic Constant Matrix: (Units=GPa)
#
#
# Indices 1 2 3 4 5 6 
#
# 1 75.9980 50.4731 53.8375 0.0000 0.0000 -2.1464
# 2 50.4731 75.9980 53.8375 0.0000 0.0000 2.1464
# 3 53.8375 53.8375 246.9406 0.0000 0.0000 0.0000
# 4 0.0000 0.0000 0.0000 107.2850 0.0000 0.0000
# 5 0.0000 0.0000 0.0000 0.0000 107.2850 0.0000
# 6 -2.1464 2.1464 0.0000 0.0000 0.0000 36.9232
#
#
#
# Elastic Compliance Matrix: (Units=1/GPa)
#
#
# Indices 1 2 3 4 5 6 
#
# 1 0.024637 -0.014928 -0.002117 0.000000 0.000000 0.002300
# 2 -0.014928 0.024637 -0.002117 0.000000 0.000000 -0.002300
# 3 -0.002117 -0.002117 0.004973 0.000000 0.000000 0.000000
# 4 0.000000 0.000000 0.000000 0.009321 0.000000 0.000000
# 5 0.000000 0.000000 0.000000 0.000000 0.009321 0.000000
# 6 0.002300 -0.002300 0.000000 0.000000 0.000000 0.027351
#
#
# Mechanical properties :
#
#
# Convention : Reuss Voigt Hill
#
# Bulk Modulus (GPa) = 62.79938 79.47028 71.13483
# Shear Modulus (GPa) = 34.75400 66.35119 50.55259
#
# Velocity S-wave (km/s) = 3.90658 5.39782 4.71157
# Velocity P-wave (km/s) = 6.92280 8.58755 7.79972
#
# Compressibility (1/GPa) = 0.01592373
#
# Stress axis : x y z
#
# Youngs Moduli (GPa) = 40.58999 40.58999 201.10446
#
# Poissons Ratio (x) = 0.60591 0.42569
# Poissons Ratio (y) = 0.60591 0.42569
# Poissons Ratio (z) = 0.08592 0.08592
#
# Static dielectric constant tensor:
#      x y z
#    x 1.823440 0.000000 0.000000 
#    y 0.000000 1.823440 0.000000 
#    z 0.000000 0.000000 1.840990 
# 
# From -- ./inp_files/3439.got.cif
#   From: 2010.05.17/outbox.cif.g08.bks.cpg/sg83_2_cif.got.tgz:3439.got - 2010.06.03 18:55:12.
