data_PCOD9543446
_publ_section_title
;
Structure prediction by ZEFSAII (Michael W. Deem and Ramdas Pophale) SiO2 
 PCOD9543446
Probable space group: P 4/M
;
_chemical_formula_sum "Si O2"
_cell_formula_units_Z 52
_cell_length_a 16.821884
_cell_length_b 16.821884
_cell_length_c 10.332111
_cell_angle_alpha 90.000000
_cell_angle_beta 90.000000
_cell_angle_gamma 90.000000
_cell_volume 2923.737183
_symmetry_space_group_name_H-M "P 4/M"
_symmetry_group_IT_number 83
_symmetry_cell_setting 'tetragonal'
loop_
_space_group_symop_operation_xyz
x,y,z
-y,x,z
-x,-y,z
y,-x,z
-x,-y,-z
y,-x,-z
x,y,-z
-y,x,-z
loop_
_atom_site_type_symbol
_atom_site_label
_atom_site_fract_x
_atom_site_fract_y
_atom_site_fract_z
Si Si1 0.089835 0.358655 0.149029
Si Si2 0.916468 0.778080 0.642140
Si Si3 0.887736 0.928633 0.000000
Si Si4 0.909811 0.195710 0.729370
Si Si5 0.218003 0.497033 0.152052
Si Si6 0.497453 0.633841 0.347715
Si Si7 0.908617 0.364026 0.848220
O O1 0.097933 0.286551 0.247437
O O2 0.159997 0.421352 0.168441
O O3 0.000196 0.393288 0.166481
O O4 0.093529 0.330341 0.000000
O O5 0.920084 0.740785 0.500000
O O6 0.847788 0.843369 0.647138
O O7 0.002156 0.816824 0.672757
O O8 0.843553 0.904290 0.870591
O O9 0.976081 0.894171 0.000000
O O10 0.898768 0.289207 0.753906
O O11 0.292114 0.496238 0.249729
O O12 0.159123 0.571395 0.175062
O O13 0.243285 0.499197 0.000000
O O14 0.421688 0.575396 0.327641
O O15 0.496943 0.658016 0.500000
O O16 0.901996 0.339536 0.000000
#
# Coordination Sequence:
#
# PCOD9543446 Si02
#       7
#     8   8   4   8   8   8   8
#     4   9  20  37  58  79 108 147 186 226 273 331
#     4  11  24  38  53  76 111 150 189 236 284 325
#     4  11  20  32  54  86 105 143 201 240 273 337
#     4  11  21  35  55  78 112 146 191 232 283 332
#     4  10  20  36  59  91 116 137 177 228 279 327
#     4   9  20  40  62  82 109 148 185 215 261 332
#     4   9  18  33  57  82 110 145 182 227 273 326
#
# _framework density 17.785456
#
# number of rings (size 3 to 8) (size 9 to 14) (size 15 to 20)
#    0.000    2.077    2.308    1.385    2.154    4.615 
#    0.000   10.000    0.000    4.615    0.000    0.000 
#    0.000    0.000    0.000    0.000    0.000    0.000 
#
# Total GULP energy -290064.322604 kJ/mol
# GULP energy per Si atom -5578.160050 kJ/mol
# Density = 1.774498 g / cm^3
# Si number density = 17.785456 Si / 1000 Ang^3
#
#
#
# Elastic Constant Matrix: (Units=GPa)
#
#
# Indices 1 2 3 4 5 6 
#
# 1 92.5448 45.3662 63.3177 0.0000 0.0000 -1.3042
# 2 45.3662 92.5448 63.3177 0.0000 0.0000 1.3042
# 3 63.3177 63.3177 115.8915 0.0000 0.0000 0.0000
# 4 0.0000 0.0000 0.0000 5.1508 0.0000 0.0000
# 5 0.0000 0.0000 0.0000 0.0000 5.1508 0.0000
# 6 -1.3042 1.3042 0.0000 0.0000 0.0000 15.0277
#
#
#
# Elastic Compliance Matrix: (Units=1/GPa)
#
#
# Indices 1 2 3 4 5 6 
#
# 1 0.017925 -0.003374 -0.007950 0.000000 0.000000 0.001848
# 2 -0.003374 0.017925 -0.007950 0.000000 0.000000 -0.001848
# 3 -0.007950 -0.007950 0.017316 0.000000 0.000000 0.000000
# 4 0.000000 0.000000 0.000000 0.194144 0.000000 0.000000
# 5 0.000000 0.000000 0.000000 0.000000 0.194144 0.000000
# 6 0.001848 -0.001848 0.000000 0.000000 0.000000 0.066865
#
#
# Mechanical properties :
#
#
# Convention : Reuss Voigt Hill
#
# Bulk Modulus (GPa) = 68.40949 71.66492 70.03720
# Shear Modulus (GPa) = 9.06229 13.66451 11.36340
#
# Velocity S-wave (km/s) = 2.25973 2.77482 2.53042
# Velocity P-wave (km/s) = 6.73467 7.11673 6.92833
#
# Compressibility (1/GPa) = 0.01461785
#
# Stress axis : x y z
#
# Youngs Moduli (GPa) = 55.78907 55.78907 57.75065
#
# Poissons Ratio (x) = 0.18821 0.45912
# Poissons Ratio (y) = 0.18821 0.45912
# Poissons Ratio (z) = 0.44353 0.44353
#
# Static dielectric constant tensor:
#      x y z
#    x 1.600120 0.000000 0.000000 
#    y 0.000000 1.600120 0.000000 
#    z 0.000000 0.000000 1.597470 
# 
# From -- ./inp_files/1011.got.cif
#   From: 2010.05.17/outbox.cif.g08.bks.cpg/sg83_1_cif.got.tgz:1011.got - 2010.06.03 18:55:12.
