data_PCOD9543795
_publ_section_title
;
Structure prediction by ZEFSAII (Michael W. Deem and Ramdas Pophale) SiO2 
 PCOD9543795
Probable space group: P 4/M
;
_chemical_formula_sum "Si O2"
_cell_formula_units_Z 41
_cell_length_a 8.031499
_cell_length_b 8.031499
_cell_length_c 28.291028
_cell_angle_alpha 90.000000
_cell_angle_beta 90.000000
_cell_angle_gamma 90.000000
_cell_volume 1824.912087
_symmetry_space_group_name_H-M "P 4/M"
_symmetry_group_IT_number 83
_symmetry_cell_setting 'tetragonal'
loop_
_space_group_symop_operation_xyz
x,y,z
-y,x,z
-x,-y,z
y,-x,z
-x,-y,-z
y,-x,-z
x,y,-z
-y,x,-z
loop_
_atom_site_type_symbol
_atom_site_label
_atom_site_fract_x
_atom_site_fract_y
_atom_site_fract_z
Si Si1 0.000000 0.500000 0.128514
Si Si2 0.129082 0.646473 0.500000
Si Si3 0.252391 0.126452 0.298632
Si Si4 0.150113 0.757347 0.402242
Si Si5 0.901806 0.736777 0.053187
Si Si6 0.000000 0.000000 0.500000
Si Si7 0.596215 0.759712 0.797374
O O1 0.121801 0.398325 0.093747
O O2 0.899602 0.376742 0.163151
O O3 0.213482 0.659308 0.448368
O O4 0.000000 0.500000 0.500000
O O5 0.004613 0.801823 0.500000
O O6 0.319624 0.176818 0.350505
O O7 0.366904 0.175110 0.255075
O O8 0.070856 0.214084 0.295657
O O9 0.947486 0.781683 0.403826
O O10 0.794889 0.904955 0.057396
O O11 0.875773 0.670418 0.000000
O O12 0.404630 0.706205 0.803082
#
# Coordination Sequence:
#
# PCOD9543795 Si02
#       7
#     4   4   8   8   8   1   8
#     4  12  21  36  60  84 110 155 206 238 278 358
#     4  12  20  32  62  96 118 172 208 238 334 396
#     4   9  19  36  61  86 110 150 202 248 299 366
#     4   9  15  33  59  84 119 155 191 250 305 359
#     4   9  19  36  58  87 119 148 184 237 296 346
#     4  12  20  44  60  80 156 156 204 300 308 384
#     4  11  24  40  55  80 119 158 197 248 309 354
#
# _framework density 22.466835
#
# number of rings (size 3 to 8) (size 9 to 14) (size 15 to 20)
#    0.000    1.951    1.951    4.390    0.000    0.000 
#    8.780    1.951    0.000    0.293    0.000    8.195 
#    0.000    0.000    0.000    0.000    0.000    0.000 
#
# Total GULP energy -228658.590111 kJ/mol
# GULP energy per Si atom -5577.038783 kJ/mol
# Density = 2.241570 g / cm^3
# Si number density = 22.466835 Si / 1000 Ang^3
#
#
#
# Elastic Constant Matrix: (Units=GPa)
#
#
# Indices 1 2 3 4 5 6 
#
# 1 48.0125 -3.4599 19.0535 0.0000 0.0000 2.1067
# 2 -3.4599 48.0125 19.0535 0.0000 0.0000 -2.1067
# 3 19.0535 19.0535 188.1832 0.0000 0.0000 0.0000
# 4 0.0000 0.0000 0.0000 16.0897 0.0000 0.0000
# 5 0.0000 0.0000 0.0000 0.0000 16.0897 0.0000
# 6 2.1067 -2.1067 0.0000 0.0000 0.0000 17.5373
#
#
#
# Elastic Compliance Matrix: (Units=1/GPa)
#
#
# Indices 1 2 3 4 5 6 
#
# 1 0.022097 0.002476 -0.002488 0.000000 0.000000 -0.002357
# 2 0.002476 0.022097 -0.002488 0.000000 0.000000 0.002357
# 3 -0.002488 -0.002488 0.005818 0.000000 0.000000 0.000000
# 4 0.000000 0.000000 0.000000 0.062151 0.000000 0.000000
# 5 0.000000 0.000000 0.000000 0.000000 0.062151 0.000000
# 6 -0.002357 0.002357 0.000000 0.000000 0.000000 0.057588
#
#
# Mechanical properties :
#
#
# Convention : Reuss Voigt Hill
#
# Bulk Modulus (GPa) = 22.21601 39.27801 30.74701
# Shear Modulus (GPa) = 19.84865 26.58077 23.21471
#
# Velocity S-wave (km/s) = 2.97554 3.44337 3.21797
# Velocity P-wave (km/s) = 4.65993 5.77319 5.24617
#
# Compressibility (1/GPa) = 0.04501259
#
# Stress axis : x y z
#
# Youngs Moduli (GPa) = 45.25467 45.25467 171.88627
#
# Poissons Ratio (x) = -0.11207 0.42766
# Poissons Ratio (y) = -0.11207 0.42766
# Poissons Ratio (z) = 0.11260 0.11260
#
# Static dielectric constant tensor:
#      x y z
#    x 1.858750 0.000000 0.000000 
#    y 0.000000 1.858750 0.000000 
#    z 0.000000 0.000000 1.921290 
# 
# From -- ./inp_files/3303.got.cif
#   From: 2010.05.17/outbox.cif.g08.bks.cpg/sg83_2_cif.got.tgz:3303.got - 2010.06.03 18:55:12.
