data_PCOD9543244
_publ_section_title
;
Structure prediction by ZEFSAII (Michael W. Deem and Ramdas Pophale) SiO2 
 PCOD9543244
Probable space group: P 4/M
;
_chemical_formula_sum "Si O2"
_cell_formula_units_Z 52
_cell_length_a 18.827231
_cell_length_b 18.827231
_cell_length_c 7.456714
_cell_angle_alpha 90.000000
_cell_angle_beta 90.000000
_cell_angle_gamma 90.000000
_cell_volume 2643.141348
_symmetry_space_group_name_H-M "P 4/M"
_symmetry_group_IT_number 83
_symmetry_cell_setting 'tetragonal'
loop_
_space_group_symop_operation_xyz
x,y,z
-y,x,z
-x,-y,z
y,-x,z
-x,-y,-z
y,-x,-z
x,y,-z
-y,x,-z
loop_
_atom_site_type_symbol
_atom_site_label
_atom_site_fract_x
_atom_site_fract_y
_atom_site_fract_z
Si Si1 0.144386 0.185112 0.284111
Si Si2 0.068808 0.329866 0.284214
Si Si3 0.733829 0.287718 0.718541
Si Si4 0.049206 0.563834 0.207698
Si Si5 0.089072 0.079288 0.000000
Si Si6 0.789163 0.436269 0.705178
Si Si7 0.407668 0.788138 0.719370
O O1 0.141757 0.175254 0.500000
O O2 0.090710 0.249894 0.234656
O O3 0.222757 0.213958 0.234027
O O4 0.123935 0.116035 0.173557
O O5 0.067545 0.331306 0.500000
O O6 0.133504 0.381106 0.225020
O O7 0.995796 0.363865 0.220150
O O8 0.734845 0.288610 0.500000
O O9 0.758354 0.364163 0.786090
O O10 0.654467 0.265567 0.772949
O O11 0.125452 0.569051 0.297122
O O12 0.000000 0.500000 0.281814
O O13 0.063009 0.547291 0.000000
O O14 0.005185 0.096527 0.000000
O O15 0.763140 0.438226 0.500000
O O16 0.772077 0.513389 0.784776
O O17 0.409429 0.789475 0.500000
#
# Coordination Sequence:
#
# PCOD9543244 Si02
#       7
#     8   8   8   8   4   8   8
#     4   9  20  40  62  82 110 146 185 235 281 328
#     4   9  17  32  54  75  99 141 182 209 258 330
#     4   8  16  32  53  80 106 135 184 225 261 323
#     4  11  22  31  42  71 113 141 164 214 272 328
#     4  11  26  44  62  86 109 139 187 234 286 346
#     4  10  18  30  52  74  99 140 180 217 260 319
#     4   8  14  27  49  73  99 133 174 217 256 308
#
# _framework density 19.673562
#
# number of rings (size 3 to 8) (size 9 to 14) (size 15 to 20)
#    0.000    2.692    1.538    2.308    1.077    2.462 
#    1.385    3.846    0.000    0.462    0.000    3.231 
#    0.000    0.000    0.000    1.385    0.000    1.538 
#
# Total GULP energy -290198.992846 kJ/mol
# GULP energy per Si atom -5580.749862 kJ/mol
# Density = 1.962878 g / cm^3
# Si number density = 19.673562 Si / 1000 Ang^3
#
#
#
# Elastic Constant Matrix: (Units=GPa)
#
#
# Indices 1 2 3 4 5 6 
#
# 1 104.3822 58.3300 13.6192 0.0000 0.0000 -11.9823
# 2 58.3300 104.3822 13.6192 0.0000 0.0000 11.9823
# 3 13.6192 13.6192 67.8538 0.0000 0.0000 0.0000
# 4 0.0000 0.0000 0.0000 -10.9819 0.0000 0.0000
# 5 0.0000 0.0000 0.0000 0.0000 -10.9819 0.0000
# 6 -11.9823 11.9823 0.0000 0.0000 0.0000 30.9048
#
#
#
# Elastic Compliance Matrix: (Units=1/GPa)
#
#
# Indices 1 2 3 4 5 6 
#
# 1 0.016781 -0.010422 -0.001276 0.000000 0.000000 0.010547
# 2 -0.010422 0.016781 -0.001276 0.000000 0.000000 -0.010547
# 3 -0.001276 -0.001276 0.015250 0.000000 0.000000 0.000000
# 4 0.000000 0.000000 0.000000 -0.091059 0.000000 0.000000
# 5 0.000000 0.000000 0.000000 0.000000 -0.091059 0.000000
# 6 0.010547 -0.010547 0.000000 0.000000 0.000000 0.040536
#
#
# Mechanical properties :
#
#
# Convention : Reuss Voigt Hill
#
# Bulk Modulus (GPa) = 43.73840 49.75056 46.74448
# Shear Modulus (GPa) = -84.46101 14.52484 -34.96808
#
# Velocity S-wave (km/s) = -6.55930 2.72010 -4.22051
# Velocity P-wave (km/s) = 5.92331 5.93365 0.24762
#
# Compressibility (1/GPa) = 0.02286321
#
# Stress axis : x y z
#
# Youngs Moduli (GPa) = 59.59038 59.59038 65.57391
#
# Poissons Ratio (x) = 0.62103 0.08370
# Poissons Ratio (y) = 0.62103 0.08370
# Poissons Ratio (z) = 0.07606 0.07606
#
# Static dielectric constant tensor:
#      x y z
#    x 1.682290 0.000000 0.000000 
#    y 0.000000 1.682290 0.000000 
#    z 0.000000 0.000000 1.760130 
# 
# From -- ./inp_files/1001.got.cif
#   From: 2010.05.17/outbox.cif.g08.bks.cpg/sg83_1_cif.got.tgz:1001.got - 2010.06.03 18:55:12.
