data_PCOD9543288
_publ_section_title
;
Structure prediction by ZEFSAII (Michael W. Deem and Ramdas Pophale) SiO2 
 PCOD9543288
Probable space group: P 4/M
;
_chemical_formula_sum "Si O2"
_cell_formula_units_Z 64
_cell_length_a 19.741599
_cell_length_b 19.741599
_cell_length_c 7.516359
_cell_angle_alpha 90.000000
_cell_angle_beta 90.000000
_cell_angle_gamma 90.000000
_cell_volume 2929.356088
_symmetry_space_group_name_H-M "P 4/M"
_symmetry_group_IT_number 83
_symmetry_cell_setting 'tetragonal'
loop_
_space_group_symop_operation_xyz
x,y,z
-y,x,z
-x,-y,z
y,-x,z
-x,-y,-z
y,-x,-z
x,y,-z
-y,x,-z
loop_
_atom_site_type_symbol
_atom_site_label
_atom_site_fract_x
_atom_site_fract_y
_atom_site_fract_z
Si Si1 0.773935 0.077079 0.794911
Si Si2 0.766294 0.422225 0.208068
Si Si3 0.288557 0.300159 0.217216
Si Si4 0.061007 0.374588 0.786284
Si Si5 0.652535 0.905803 0.288647
Si Si6 0.200927 0.431409 0.781608
Si Si7 0.003616 0.107386 0.217802
Si Si8 0.839319 0.214553 0.296463
O O1 0.699694 0.084558 0.718443
O O2 0.818069 0.016945 0.714079
O O3 0.820709 0.143627 0.793883
O O4 0.761505 0.059978 0.000000
O O5 0.712891 0.366225 0.275843
O O6 0.842764 0.392137 0.221726
O O7 0.768874 0.497650 0.283528
O O8 0.750546 0.429135 0.000000
O O9 0.247727 0.367418 0.269995
O O10 0.251304 0.233535 0.287960
O O11 0.286076 0.296986 0.000000
O O12 0.121984 0.423276 0.724118
O O13 0.980705 0.377480 0.744898
O O14 0.064205 0.379005 0.000000
O O15 0.657264 0.897553 0.500000
O O16 0.729463 0.891365 0.219131
O O17 0.200687 0.431902 0.000000
O O18 0.938501 0.066804 0.274288
O O19 0.002417 0.108603 0.000000
O O20 0.857228 0.199555 0.500000
#
# Coordination Sequence:
#
# PCOD9543288 Si02
#       8
#     8   8   8   8   8   8   8   8
#     4  10  19  30  49  73  92 122 166 211 254 305
#     4   9  18  33  57  80 101 139 176 208 255 304
#     4   9  16  32  55  77 101 131 171 211 245 297
#     4  10  20  33  50  74 103 133 169 217 262 302
#     4  10  22  37  50  71 105 138 173 213 252 306
#     4   9  17  32  53  80 108 131 169 218 258 300
#     4   8  15  27  42  63  89 114 148 201 255 297
#     4  10  20  33  49  69  97 132 165 209 258 298
#
# _framework density 21.847807
#
# number of rings (size 3 to 8) (size 9 to 14) (size 15 to 20)
#    0.000    2.625    1.250    1.125    1.750    2.500 
#    0.000    3.750    0.000    0.375    0.000    3.500 
#    0.000    0.000    0.000    6.250    0.000    6.500 
#
# Total GULP energy -356759.007121 kJ/mol
# GULP energy per Si atom -5574.359486 kJ/mol
# Density = 2.179808 g / cm^3
# Si number density = 21.847807 Si / 1000 Ang^3
#
#
#
# Elastic Constant Matrix: (Units=GPa)
#
#
# Indices 1 2 3 4 5 6 
#
# 1 134.2610 -11.9626 -8.5287 0.0000 0.0000 14.8348
# 2 -11.9626 134.2610 -8.5287 0.0000 0.0000 -14.8348
# 3 -8.5287 -8.5287 61.9738 0.0000 0.0000 0.0000
# 4 0.0000 0.0000 0.0000********** 0.0000 0.0000
# 5 0.0000 0.0000 0.0000 0.0000********** 0.0000
# 6 14.8348 -14.8348 0.0000 0.0000 0.0000 33.5577
#
#
#
# Elastic Compliance Matrix: (Units=1/GPa)
#
#
# Indices 1 2 3 4 5 6 
#
# 1 0.007925 0.000412 0.001147 0.000000 0.000000 -0.003321
# 2 0.000412 0.007925 0.001147 0.000000 0.000000 0.003321
# 3 0.001147 0.001147 0.016452 0.000000 0.000000 0.000000
# 4 0.000000 0.000000 0.000000 -0.000081 0.000000 0.000000
# 5 0.000000 0.000000 0.000000 0.000000 -0.000081 0.000000
# 6 -0.003321 0.003321 0.000000 0.000000 0.000000 0.032736
#
#
# Mechanical properties :
#
#
# Convention : Reuss Voigt Hill
#
# Bulk Modulus (GPa) = 26.51521 30.27288 28.39404
# Shear Modulus (GPa) = 69.41245 -4911.09999 -2420.84377
#
# Velocity S-wave (km/s) = 5.64268 -47.46313 -33.32348
# Velocity P-wave (km/s) = 7.39025 54.67887 38.30902
#
# Compressibility (1/GPa) = 0.03771421
#
# Stress axis : x y z
#
# Youngs Moduli (GPa) = 126.18725 126.18725 60.78432
#
# Poissons Ratio (x) = -0.05199 -0.06974
# Poissons Ratio (y) = -0.05199 -0.06974
# Poissons Ratio (z) = -0.14477 -0.14477
#
# Static dielectric constant tensor:
#      x y z
#    x 1.827470 0.000000 0.000000 
#    y 0.000000 1.827470 0.000000 
#    z 0.000000 0.000000 1.872270 
# 
# From -- ./inp_files/1278.got.cif
#   From: 2010.05.17/outbox.cif.g08.bks.cpg/sg83_1_cif.got.tgz:1278.got - 2010.06.03 18:55:12.
