data_PCOD9543484
_publ_section_title
;
Structure prediction by ZEFSAII (Michael W. Deem and Ramdas Pophale) SiO2 
 PCOD9543484
Probable space group: P 4/M
;
_chemical_formula_sum "Si O2"
_cell_formula_units_Z 60
_cell_length_a 11.501010
_cell_length_b 11.501010
_cell_length_c 24.130373
_cell_angle_alpha 90.000000
_cell_angle_beta 90.000000
_cell_angle_gamma 90.000000
_cell_volume 3191.802402
_symmetry_space_group_name_H-M "P 4/M"
_symmetry_group_IT_number 83
_symmetry_cell_setting 'tetragonal'
loop_
_space_group_symop_operation_xyz
x,y,z
-y,x,z
-x,-y,z
y,-x,z
-x,-y,-z
y,-x,-z
x,y,-z
-y,x,-z
loop_
_atom_site_type_symbol
_atom_site_label
_atom_site_fract_x
_atom_site_fract_y
_atom_site_fract_z
Si Si1 0.915853 0.822971 0.559846
Si Si2 0.771991 0.383222 0.184813
Si Si3 0.168267 0.220225 0.320998
Si Si4 0.957972 0.819989 0.125276
Si Si5 0.201700 0.381787 0.116077
Si Si6 0.606903 0.653086 0.700203
Si Si7 0.979238 0.243545 0.244315
Si Si8 0.687329 0.555527 0.000000
O O1 0.888781 0.766127 0.500000
O O2 0.882576 0.767564 0.617999
O O3 0.052492 0.851327 0.560505
O O4 0.710828 0.293356 0.142467
O O5 0.801112 0.504864 0.155302
O O6 0.678146 0.396246 0.234014
O O7 0.886197 0.328317 0.214380
O O8 0.302370 0.255806 0.323457
O O9 0.171346 0.093308 0.290813
O O10 0.089050 0.294807 0.278270
O O11 0.917588 0.690848 0.111222
O O12 0.083538 0.864850 0.105894
O O13 0.963621 0.822321 0.192335
O O14 0.242589 0.420753 0.055816
O O15 0.472879 0.655958 0.684080
O O16 0.575109 0.639021 0.000000
#
# Coordination Sequence:
#
# PCOD9543484 Si02
#       8
#     8   8   8   8   8   8   8   4
#     4   9  17  30  51  83 122 162 199 241 295 347
#     4  11  22  37  60  87 124 153 186 239 304 364
#     4  11  20  34  56  87 121 159 197 248 289 354
#     4  11  22  39  60  85 119 163 197 231 288 365
#     4  12  23  42  63  92 120 151 192 248 298 360
#     4  10  21  37  55  81 116 155 193 239 305 367
#     4  11  21  35  54  90 119 159 196 234 288 357
#     4  11  24  42  70  95 114 148 200 256 301 358
#
# _framework density 18.798157
#
# number of rings (size 3 to 8) (size 9 to 14) (size 15 to 20)
#    0.000    1.267    6.667    1.200    0.000    1.067 
#    2.400    0.667    0.000    3.200    0.000    2.800 
#    0.000    0.000    0.000    0.000    0.000    0.000 
#
# Total GULP energy -334393.908425 kJ/mol
# GULP energy per Si atom -5573.231807 kJ/mol
# Density = 1.875537 g / cm^3
# Si number density = 18.798157 Si / 1000 Ang^3
#
#
#
# Elastic Constant Matrix: (Units=GPa)
#
#
# Indices 1 2 3 4 5 6 
#
# 1 50.7193 36.6719 18.3121 0.0000 0.0000 -0.0854
# 2 36.6719 50.7193 18.3121 0.0000 0.0000 0.0854
# 3 18.3121 18.3121 87.6986 0.0000 0.0000 0.0000
# 4 0.0000 0.0000 0.0000 16.0549 0.0000 0.0000
# 5 0.0000 0.0000 0.0000 0.0000 16.0549 0.0000
# 6 -0.0854 0.0854 0.0000 0.0000 0.0000 21.7434
#
#
#
# Elastic Compliance Matrix: (Units=1/GPa)
#
#
# Indices 1 2 3 4 5 6 
#
# 1 0.041866 -0.029326 -0.002618 0.000000 0.000000 0.000280
# 2 -0.029326 0.041866 -0.002618 0.000000 0.000000 -0.000280
# 3 -0.002618 -0.002618 0.012496 0.000000 0.000000 0.000000
# 4 0.000000 0.000000 0.000000 0.062286 0.000000 0.000000
# 5 0.000000 0.000000 0.000000 0.000000 0.062286 0.000000
# 6 0.000280 -0.000280 0.000000 0.000000 0.000000 0.045993
#
#
# Mechanical properties :
#
#
# Convention : Reuss Voigt Hill
#
# Bulk Modulus (GPa) = 36.89680 37.30327 37.10004
# Shear Modulus (GPa) = 14.49473 18.49336 16.49405
#
# Velocity S-wave (km/s) = 2.77983 3.13994 2.96536
# Velocity P-wave (km/s) = 5.47483 5.74742 5.61278
#
# Compressibility (1/GPa) = 0.02710262
#
# Stress axis : x y z
#
# Youngs Moduli (GPa) = 23.88588 23.88588 80.02431
#
# Poissons Ratio (x) = 0.70047 0.20954
# Poissons Ratio (y) = 0.70047 0.20954
# Poissons Ratio (z) = 0.06254 0.06254
#
# Static dielectric constant tensor:
#      x y z
#    x 1.688650 0.000000 0.000000 
#    y 0.000000 1.688650 0.000000 
#    z 0.000000 0.000000 1.652450 
# 
# From -- ./inp_files/3055.got.cif
#   From: 2010.05.17/outbox.cif.g08.bks.cpg/sg83_2_cif.got.tgz:3055.got - 2010.06.03 18:55:12.
