data_PCOD9543081
_publ_section_title
;
Structure prediction by ZEFSAII (Michael W. Deem and Ramdas Pophale) SiO2 
 PCOD9543081
Probable space group: I -4 
;
_chemical_formula_sum "Si O2"
_cell_formula_units_Z 34
_cell_length_a 9.019279
_cell_length_b 9.019279
_cell_length_c 17.994301
_cell_angle_alpha 90.000000
_cell_angle_beta 90.000000
_cell_angle_gamma 90.000000
_cell_volume 1463.789487
_symmetry_space_group_name_H-M "I -4 "
_symmetry_group_IT_number 82
_symmetry_cell_setting 'tetragonal'
loop_
_space_group_symop_operation_xyz
x,y,z
y,-x,-z
-x,-y,z
-y,x,-z
1/2+x,1/2+y,1/2+z
1/2+y,1/2-x,1/2-z
1/2-x,1/2-y,1/2+z
1/2-y,1/2+x,1/2-z
loop_
_atom_site_type_symbol
_atom_site_label
_atom_site_fract_x
_atom_site_fract_y
_atom_site_fract_z
Si Si1 0.556619 0.849460 0.061124
Si Si2 0.773340 0.242227 0.070228
Si Si3 0.706511 0.915022 0.216078
Si Si4 0.500000 0.500000 0.500000
Si Si5 0.697311 0.096344 0.721695
O O1 0.400213 0.785840 0.087673
O O2 0.659850 0.887594 0.131416
O O3 0.500000 0.000000 0.022389
O O4 0.652825 0.764529 0.001810
O O5 0.830836 0.330548 0.141867
O O6 0.883363 0.104602 0.047236
O O7 0.584154 0.822100 0.262802
O O8 0.862472 0.854988 0.243286
O O9 0.577246 0.166718 0.778152
#
# Coordination Sequence:
#
# PCOD9543081 Si02
#       5
#     8   8   8   2   8
#     4  12  25  45  75 102 146 184 237 300 346 428
#     4  12  28  48  71 110 142 192 237 293 365 425
#     4  11  22  45  71 102 133 184 235 288 349 404
#     4  12  28  44  84 100 140 196 238 284 364 432
#     4  11  28  46  70 101 144 186 234 294 351 418
#
# _framework density 23.227384000000001
#
# number of rings (size 3 to 8) (size 9 to 14) (size 15 to 20)
#    0.000    0.471    7.059    0.000    9.882    1.412 
#    0.000    0.000    0.000    0.000    0.000    0.000 
#    0.000    0.000    0.000    0.000    0.000    0.000 
#
# Total GULP energy -94984.332422 kJ/mol
# GULP energy per Si atom -5587.313672 kJ/mol
# Density = 2.317452 g / cm^3
# Si number density = 23.227384 Si / 1000 Ang^3
#
#
#
# Elastic Constant Matrix: (Units=GPa)
#
#
# Indices 1 2 3 4 5 6 
#
# 1 44.6707 14.9719 22.4295 0.0000 0.0000 -0.9970
# 2 14.9719 44.6707 22.4295 0.0000 0.0000 0.9970
# 3 22.4295 22.4295 123.2627 0.0000 0.0000 0.0000
# 4 0.0000 0.0000 0.0000 27.3277 0.0000 0.0000
# 5 0.0000 0.0000 0.0000 0.0000 27.3277 0.0000
# 6 -0.9970 0.9970 0.0000 0.0000 0.0000 32.1635
#
#
#
# Elastic Compliance Matrix: (Units=1/GPa)
#
#
# Indices 1 2 3 4 5 6 
#
# 1 0.026583 -0.007158 -0.003535 0.000000 0.000000 0.001046
# 2 -0.007158 0.026583 -0.003535 0.000000 0.000000 -0.001046
# 3 -0.003535 -0.003535 0.009399 0.000000 0.000000 0.000000
# 4 0.000000 0.000000 0.000000 0.036593 0.000000 0.000000
# 5 0.000000 0.000000 0.000000 0.000000 0.036593 0.000000
# 6 0.001046 -0.001046 0.000000 0.000000 0.000000 0.031156
#
#
# Mechanical properties :
#
#
# Convention : Reuss Voigt Hill
#
# Bulk Modulus (GPa) = 29.31643 36.91844 33.11744
# Shear Modulus (GPa) = 24.18576 27.54864 25.86720
#
# Velocity S-wave (km/s) = 3.23036 3.44763 3.34076
# Velocity P-wave (km/s) = 5.15388 5.63712 5.40091
#
# Compressibility (1/GPa) = 0.03411056
#
# Stress axis : x y z
#
# Youngs Moduli (GPa) = 37.61755 37.61755 106.39278
#
# Poissons Ratio (x) = 0.26928 0.37607
# Poissons Ratio (y) = 0.26928 0.37607
# Poissons Ratio (z) = 0.13297 0.13297
#
# Static dielectric constant tensor:
#      x y z
#    x 1.902790 0.000000 0.000000 
#    y 0.000000 1.902790 0.000000 
#    z 0.000000 0.000000 1.847500 
# 
# From -- ./inp_files/2952.got.cif
#   From: 2010.05.17/outbox.cif.g08.bks.cpg/sg82_2_cif.got.tgz:2952.got - 2010.06.03 18:52:26.
