data_PCOD9543863
_publ_section_title
;
Structure prediction by ZEFSAII (Michael W. Deem and Ramdas Pophale) SiO2 
 PCOD9543863
Probable space group: P 4/M
;
_chemical_formula_sum "Si O2"
_cell_formula_units_Z 48
_cell_length_a 10.703295
_cell_length_b 10.703295
_cell_length_c 21.353954
_cell_angle_alpha 90.000000
_cell_angle_beta 90.000000
_cell_angle_gamma 90.000000
_cell_volume 2446.320157
_symmetry_space_group_name_H-M "P 4/M"
_symmetry_group_IT_number 83
_symmetry_cell_setting 'tetragonal'
loop_
_space_group_symop_operation_xyz
x,y,z
-y,x,z
-x,-y,z
y,-x,z
-x,-y,-z
y,-x,-z
x,y,-z
-y,x,-z
loop_
_atom_site_type_symbol
_atom_site_label
_atom_site_fract_x
_atom_site_fract_y
_atom_site_fract_z
Si Si1 0.708726 0.528810 0.929136
Si Si2 0.883102 0.831850 0.750841
Si Si3 0.496548 0.292434 0.689404
Si Si4 0.142401 0.550693 0.568230
Si Si5 0.165113 0.120535 0.601990
Si Si6 0.862226 0.558794 0.805147
O O1 0.602249 0.635094 0.922835
O O2 0.807093 0.543364 0.874143
O O3 0.759681 0.535899 0.000000
O O4 0.848259 0.841735 0.676274
O O5 0.843955 0.702631 0.782359
O O6 0.030971 0.834070 0.768328
O O7 0.617184 0.378976 0.687624
O O8 0.505570 0.206085 0.628996
O O9 0.485133 0.215858 0.752997
O O10 0.194168 0.514465 0.500000
O O11 0.161221 0.700665 0.576508
O O12 0.000000 0.500000 0.569515
O O13 0.027139 0.166102 0.583125
O O14 0.000000 0.500000 0.802668
#
# Coordination Sequence:
#
# PCOD9543863 Si02
#       6
#     8   8   8   8   8   8
#     4   9  20  41  66  93 131 175 215 259 308 360
#     4   9  21  39  60  90 127 163 203 255 317 372
#     4  11  26  44  63  88 121 162 210 257 312 381
#     4  11  26  42  61  89 121 158 202 259 322 385
#     4   9  20  39  65  89 115 156 205 260 314 371
#     4  12  25  35  66 100 128 163 208 262 316 372
#
# _framework density 19.621307000000002
#
# number of rings (size 3 to 8) (size 9 to 14) (size 15 to 20)
#    0.000    1.833    0.000    4.000   16.333    3.000 
#    0.000    1.667    0.000    0.000    0.000    1.167 
#    0.000    0.000    0.000    0.000    0.000    0.000 
#
# Total GULP energy -267531.349168 kJ/mol
# GULP energy per Si atom -5573.569774 kJ/mol
# Density = 1.957665 g / cm^3
# Si number density = 19.621307 Si / 1000 Ang^3
#
#
#
# Elastic Constant Matrix: (Units=GPa)
#
#
# Indices 1 2 3 4 5 6 
#
# 1 62.1059 21.7545 46.0030 0.0000 0.0000 -2.5220
# 2 21.7545 62.1059 46.0030 0.0000 0.0000 2.5220
# 3 46.0030 46.0030 115.8359 0.0000 0.0000 0.0000
# 4 0.0000 0.0000 0.0000 12.2950 0.0000 0.0000
# 5 0.0000 0.0000 0.0000 0.0000 12.2950 0.0000
# 6 -2.5220 2.5220 0.0000 0.0000 0.0000 5.7536
#
#
#
# Elastic Compliance Matrix: (Units=1/GPa)
#
#
# Indices 1 2 3 4 5 6 
#
# 1 0.023676 -0.002543 -0.008392 0.000000 0.000000 0.011493
# 2 -0.002543 0.023676 -0.008392 0.000000 0.000000 -0.011493
# 3 -0.008392 -0.008392 0.015299 0.000000 0.000000 0.000000
# 4 0.000000 0.000000 0.000000 0.081334 0.000000 0.000000
# 5 0.000000 0.000000 0.000000 0.000000 0.081334 0.000000
# 6 0.011493 -0.011493 0.000000 0.000000 0.000000 0.183880
#
#
# Mechanical properties :
#
#
# Convention : Reuss Voigt Hill
#
# Bulk Modulus (GPa) = 41.67798 51.95211 46.81504
# Shear Modulus (GPa) = 10.96848 14.48787 12.72817
#
# Velocity S-wave (km/s) = 2.36690 2.72025 2.54971
# Velocity P-wave (km/s) = 5.36255 6.03334 5.70781
#
# Compressibility (1/GPa) = 0.02399349
#
# Stress axis : x y z
#
# Youngs Moduli (GPa) = 42.23770 42.23770 65.36444
#
# Poissons Ratio (x) = 0.10742 0.54857
# Poissons Ratio (y) = 0.10742 0.54857
# Poissons Ratio (z) = 0.35448 0.35448
#
# Static dielectric constant tensor:
#      x y z
#    x 1.716070 0.000000 0.000000 
#    y 0.000000 1.716070 0.000000 
#    z 0.000000 0.000000 1.675700 
# 
# From -- ./inp_files/2623.got.cif
#   From: 2010.05.17/outbox.cif.g08.bks.cpg/sg83_2_cif.got.tgz:2623.got - 2010.06.03 18:55:12.
