data_PCOD9543946
_publ_section_title
;
Structure prediction by ZEFSAII (Michael W. Deem and Ramdas Pophale) SiO2 
 PCOD9543946
Probable space group: P 42/M
;
_chemical_formula_sum "Si O2"
_cell_formula_units_Z 40
_cell_length_a 8.734091
_cell_length_b 8.734091
_cell_length_c 25.152283
_cell_angle_alpha 90.000000
_cell_angle_beta 90.000000
_cell_angle_gamma 90.000000
_cell_volume 1918.725449
_symmetry_space_group_name_H-M "P 42/M"
_symmetry_group_IT_number 84
_symmetry_cell_setting 'tetragonal'
loop_
_space_group_symop_operation_xyz
x,y,z
-y,x,1/2+z
-x,-y,z
y,-x,1/2+z
-x,-y,-z
y,-x,1/2-z
x,y,-z
-y,x,1/2-z
loop_
_atom_site_type_symbol
_atom_site_label
_atom_site_fract_x
_atom_site_fract_y
_atom_site_fract_z
Si Si1 0.673018 0.436114 0.500000
Si Si2 0.539433 0.735337 0.230979
Si Si3 0.221843 0.048437 0.274352
Si Si4 0.563133 0.673623 0.115556
Si Si5 0.066874 0.328248 0.000000
Si Si6 0.932821 0.672899 0.115576
O O1 0.500000 0.500000 0.500000
O O2 0.739739 0.482574 0.557546
O O3 0.664827 0.251578 0.500000
O O4 0.667392 0.600736 0.235879
O O5 0.618498 0.879484 0.257082
O O6 0.503584 0.754938 0.168838
O O7 0.090248 0.173274 0.263929
O O8 0.232200 0.994108 0.334704
O O9 0.500000 0.500000 0.118289
O O10 0.748056 0.669153 0.117817
O O11 0.020949 0.262085 0.057363
O O12 0.000000 0.500000 0.000000
O O13 0.000000 0.500000 0.119203
#
# Coordination Sequence:
#
# PCOD9543946 Si02
#       6
#     4   8   8   8   4   8
#     4   8  16  26  48  73 109 142 172 216 286 334
#     4  11  21  34  56  82 111 145 191 240 291 343
#     4  11  24  38  53  77 115 159 192 235 288 344
#     4  10  17  32  50  80 111 142 179 231 278 342
#     4   8  16  30  52  80 106 141 182 241 287 330
#     4  10  19  34  56  81 113 145 191 239 289 340
#
# _framework density 20.847172
#
# number of rings (size 3 to 8) (size 9 to 14) (size 15 to 20)
#    0.000    2.000    4.000    1.200    0.000    0.000 
#    0.000    0.000    0.000    3.600    0.000    0.000 
#    0.000    3.200    0.000    0.100    0.000    0.000 
#
# Total GULP energy -223132.760948 kJ/mol
# GULP energy per Si atom -5578.319024 kJ/mol
# Density = 2.079972 g / cm^3
# Si number density = 20.847172 Si / 1000 Ang^3
#
#
#
# Elastic Constant Matrix: (Units=GPa)
#
#
# Indices 1 2 3 4 5 6 
#
# 1 23.7861 39.0616 26.2868 0.0000 0.0000 -4.8531
# 2 39.0616 23.7861 26.2868 0.0000 0.0000 4.8531
# 3 26.2868 26.2868 244.9718 0.0000 0.0000 0.0000
# 4 0.0000 0.0000 0.0000 7.8770 0.0000 0.0000
# 5 0.0000 0.0000 0.0000 0.0000 7.8770 0.0000
# 6 -4.8531 4.8531 0.0000 0.0000 0.0000 33.3078
#
#
#
# Elastic Compliance Matrix: (Units=1/GPa)
#
#
# Indices 1 2 3 4 5 6 
#
# 1 -0.021218 0.038699 -0.001876 0.000000 0.000000 -0.008730
# 2 0.038699 -0.021218 -0.001876 0.000000 0.000000 0.008730
# 3 -0.001876 -0.001876 0.004485 0.000000 0.000000 0.000000
# 4 0.000000 0.000000 0.000000 0.126953 0.000000 0.000000
# 5 0.000000 0.000000 0.000000 0.000000 0.126953 0.000000
# 6 -0.008730 0.008730 0.000000 0.000000 0.000000 0.027479
#
#
# Mechanical properties :
#
#
# Convention : Reuss Voigt Hill
#
# Bulk Modulus (GPa) = 31.30594 52.86828 42.08711
# Shear Modulus (GPa) = 27.14650 23.20625 25.17637
#
# Velocity S-wave (km/s) = 3.61247 3.34003 3.47892
# Velocity P-wave (km/s) = 5.69644 6.34739 6.03070
#
# Compressibility (1/GPa) = 0.03194282
#
# Stress axis : x y z
#
# Youngs Moduli (GPa) = -47.12946 -47.12946 222.98222
#
# Poissons Ratio (x) = 1.82385 0.41826
# Poissons Ratio (y) = 1.82385 0.41826
# Poissons Ratio (z) = -0.08840 -0.08840
#
# Static dielectric constant tensor:
#      x y z
#    x 1.853850 0.000000 0.000000 
#    y 0.000000 1.853850 0.000000 
#    z 0.000000 0.000000 1.803850 
# 
# From -- ./inp_files/5371.got.cif
#   From: 2010.05.17/outbox.cif.g08.bks.cpg/sg84_3_cif.got.tgz:5371.got - 2010.06.03 18:57:40.
