data_PCOD9543834
_publ_section_title
;
Structure prediction by ZEFSAII (Michael W. Deem and Ramdas Pophale) SiO2 
 PCOD9543834
Probable space group: P 4/M
;
_chemical_formula_sum "Si O2"
_cell_formula_units_Z 34
_cell_length_a 9.660533
_cell_length_b 9.660533
_cell_length_c 18.977301
_cell_angle_alpha 90.000000
_cell_angle_beta 90.000000
_cell_angle_gamma 90.000000
_cell_volume 1771.073654
_symmetry_space_group_name_H-M "P 4/M"
_symmetry_group_IT_number 83
_symmetry_cell_setting 'tetragonal'
loop_
_space_group_symop_operation_xyz
x,y,z
-y,x,z
-x,-y,z
y,-x,z
-x,-y,-z
y,-x,-z
x,y,-z
-y,x,-z
loop_
_atom_site_type_symbol
_atom_site_label
_atom_site_fract_x
_atom_site_fract_y
_atom_site_fract_z
Si Si1 0.244120 0.223137 0.662157
Si Si2 0.316522 0.355228 0.809444
Si Si3 0.485703 0.837369 0.422268
Si Si4 0.000000 0.000000 0.663893
Si Si5 0.178178 0.857233 0.084342
O O1 0.248906 0.293498 0.738730
O O2 0.401569 0.202603 0.636035
O O3 0.189819 0.332702 0.605269
O O4 0.149725 0.086261 0.663394
O O5 0.478337 0.312563 0.810964
O O6 0.234181 0.287578 0.874166
O O7 0.510601 0.773693 0.500000
O O8 0.500000 0.000000 0.429559
O O9 0.020580 0.812212 0.102404
O O10 0.193667 0.845092 0.000000
#
# Coordination Sequence:
#
# PCOD9543834 Si02
#       5
#     8   8   8   2   8
#     4  12  24  46  65  97 128 171 222 270 329 396
#     4  11  25  42  64  93 132 172 212 267 316 380
#     4  11  24  43  67  95 130 169 216 275 335 394
#     4  12  28  40  69  96 129 168 216 270 340 392
#     4   9  21  42  68  98 131 169 215 262 314 379
#
# _framework density 19.197396000000001
#
# number of rings (size 3 to 8) (size 9 to 14) (size 15 to 20)
#    0.000    1.176    4.706    1.412    3.294    2.353 
#    0.000    7.059    0.000    0.000    0.000    0.000 
#    0.000    0.000    0.000    0.000    0.000    0.000 
#
# Total GULP energy -189273.683009 kJ/mol
# GULP energy per Si atom -5566.873030 kJ/mol
# Density = 1.915370 g / cm^3
# Si number density = 19.197396 Si / 1000 Ang^3
#
#
#
# Elastic Constant Matrix: (Units=GPa)
#
#
# Indices 1 2 3 4 5 6 
#
# 1 49.1714 2.3636 13.8622 0.0000 0.0000 -0.4183
# 2 2.3636 49.1714 13.8622 0.0000 0.0000 0.4183
# 3 13.8622 13.8622 50.9972 0.0000 0.0000 0.0000
# 4 0.0000 0.0000 0.0000 21.8134 0.0000 0.0000
# 5 0.0000 0.0000 0.0000 0.0000 21.8134 0.0000
# 6 -0.4183 0.4183 0.0000 0.0000 0.0000 50.6934
#
#
#
# Elastic Compliance Matrix: (Units=1/GPa)
#
#
# Indices 1 2 3 4 5 6 
#
# 1 0.022047 0.000680 -0.006178 0.000000 0.000000 0.000176
# 2 0.000680 0.022047 -0.006178 0.000000 0.000000 -0.000176
# 3 -0.006178 -0.006178 0.022968 0.000000 0.000000 0.000000
# 4 0.000000 0.000000 0.000000 0.045843 0.000000 0.000000
# 5 0.000000 0.000000 0.000000 0.000000 0.045843 0.000000
# 6 0.000176 -0.000176 0.000000 0.000000 0.000000 0.019729
#
#
# Mechanical properties :
#
#
# Convention : Reuss Voigt Hill
#
# Bulk Modulus (GPa) = 22.87732 23.27957 23.07844
# Shear Modulus (GPa) = 23.10534 26.81417 24.95975
#
# Velocity S-wave (km/s) = 3.47301 3.74138 3.60969
# Velocity P-wave (km/s) = 5.29388 5.55127 5.42410
#
# Compressibility (1/GPa) = 0.04371142
#
# Stress axis : x y z
#
# Youngs Moduli (GPa) = 45.35664 45.35664 43.53965
#
# Poissons Ratio (x) = -0.03086 0.26899
# Poissons Ratio (y) = -0.03086 0.26899
# Poissons Ratio (z) = 0.28021 0.28021
#
# Static dielectric constant tensor:
#      x y z
#    x 1.583010 0.000000 0.000000 
#    y 0.000000 1.583010 0.000000 
#    z 0.000000 0.000000 1.683160 
# 
# From -- ./inp_files/2841.got.cif
#   From: 2010.05.17/outbox.cif.g08.bks.cpg/sg83_2_cif.got.tgz:2841.got - 2010.06.03 18:55:12.
