data_PCOD9543818
_publ_section_title
;
Structure prediction by ZEFSAII (Michael W. Deem and Ramdas Pophale) SiO2 
 PCOD9543818
Probable space group: P 4/M
;
_chemical_formula_sum "Si O2"
_cell_formula_units_Z 48
_cell_length_a 8.078889
_cell_length_b 8.078889
_cell_length_c 33.411723
_cell_angle_alpha 90.000000
_cell_angle_beta 90.000000
_cell_angle_gamma 90.000000
_cell_volume 2180.731288
_symmetry_space_group_name_H-M "P 4/M"
_symmetry_group_IT_number 83
_symmetry_cell_setting 'tetragonal'
loop_
_space_group_symop_operation_xyz
x,y,z
-y,x,z
-x,-y,z
y,-x,z
-x,-y,-z
y,-x,-z
x,y,-z
-y,x,-z
loop_
_atom_site_type_symbol
_atom_site_label
_atom_site_fract_x
_atom_site_fract_y
_atom_site_fract_z
Si Si1 0.587214 0.235163 0.620617
Si Si2 0.500000 0.000000 0.225905
Si Si3 0.762773 0.405591 0.919856
Si Si4 0.737219 0.905717 0.000000
Si Si5 0.736415 0.909702 0.160036
Si Si6 0.235966 0.407506 0.709037
Si Si7 0.084667 0.265944 0.456395
O O1 0.700129 0.399867 0.618847
O O2 0.617879 0.160822 0.664705
O O3 0.629892 0.127227 0.582424
O O4 0.389173 0.112836 0.196755
O O5 0.614827 0.107990 0.255262
O O6 0.704042 0.594971 0.919000
O O7 0.858921 0.362824 0.960356
O O8 0.868438 0.354651 0.881317
O O9 0.905054 0.796172 0.000000
O O10 0.900335 0.797489 0.161857
O O11 0.401538 0.298039 0.711784
O O12 0.114774 0.346361 0.500000
O O13 0.897908 0.199193 0.455086
#
# Coordination Sequence:
#
# PCOD9543818 Si02
#       7
#     8   4   8   4   8   8   8
#     4   9  19  35  54  79 111 144 182 229 278 332
#     4  12  22  38  64  89 113 152 198 242 292 354
#     4  11  24  42  65  94 126 164 211 255 296 351
#     4  11  24  41  64  96 132 169 208 252 302 350
#     4  11  24  41  61  89 125 160 198 247 302 354
#     4   9  20  38  58  83 115 149 187 235 290 345
#     4   9  19  35  53  76 108 144 182 225 274 331
#
# _framework density 22.010964999999999
#
# number of rings (size 3 to 8) (size 9 to 14) (size 15 to 20)
#    0.000    1.917    0.000    5.000    0.000    8.667 
#    0.000    4.167    0.000    2.000    0.000    0.000 
#    0.000    0.000    0.000    0.000    0.000    0.000 
#
# Total GULP energy -268656.410507 kJ/mol
# GULP energy per Si atom -5597.008552 kJ/mol
# Density = 2.196087 g / cm^3
# Si number density = 22.010965 Si / 1000 Ang^3
#
#
#
# Elastic Constant Matrix: (Units=GPa)
#
#
# Indices 1 2 3 4 5 6 
#
# 1 66.9834 27.6514 57.3370 0.0000 0.0000 -3.5680
# 2 27.6514 66.9834 57.3370 0.0000 0.0000 3.5680
# 3 57.3370 57.3370 231.1855 0.0000 0.0000 0.0000
# 4 0.0000 0.0000 0.0000 64.8743 0.0000 0.0000
# 5 0.0000 0.0000 0.0000 0.0000 64.8743 0.0000
# 6 -3.5680 3.5680 0.0000 0.0000 0.0000 35.2566
#
#
#
# Elastic Compliance Matrix: (Units=1/GPa)
#
#
# Indices 1 2 3 4 5 6 
#
# 1 0.020504 -0.005397 -0.003747 0.000000 0.000000 0.002621
# 2 -0.005397 0.020504 -0.003747 0.000000 0.000000 -0.002621
# 3 -0.003747 -0.003747 0.006184 0.000000 0.000000 0.000000
# 4 0.000000 0.000000 0.000000 0.015414 0.000000 0.000000
# 5 0.000000 0.000000 0.000000 0.000000 0.015414 0.000000
# 6 0.002621 -0.002621 0.000000 0.000000 0.000000 0.028894
#
#
# Mechanical properties :
#
#
# Convention : Reuss Voigt Hill
#
# Bulk Modulus (GPa) = 46.70463 72.20035 59.45249
# Shear Modulus (GPa) = 35.75739 47.85617 41.80678
#
# Velocity S-wave (km/s) = 4.03491 4.66789 4.36289
# Velocity P-wave (km/s) = 6.55532 7.86927 7.24216
#
# Compressibility (1/GPa) = 0.02141115
#
# Stress axis : x y z
#
# Youngs Moduli (GPa) = 48.77187 48.77187 161.70720
#
# Poissons Ratio (x) = 0.26320 0.60588
# Poissons Ratio (y) = 0.26320 0.60588
# Poissons Ratio (z) = 0.18274 0.18274
#
# Static dielectric constant tensor:
#      x y z
#    x 1.811750 0.000000 0.000000 
#    y 0.000000 1.811750 0.000000 
#    z 0.000000 0.000000 1.780210 
# 
# From -- ./inp_files/3454.got.cif
#   From: 2010.05.17/outbox.cif.g08.bks.cpg/sg83_2_cif.got.tgz:3454.got - 2010.06.03 18:55:12.
