data_PCOD9543356
_publ_section_title
;
Structure prediction by ZEFSAII (Michael W. Deem and Ramdas Pophale) SiO2 
 PCOD9543356
Probable space group: P 4/M
;
_chemical_formula_sum "Si O2"
_cell_formula_units_Z 52
_cell_length_a 18.643136
_cell_length_b 18.643136
_cell_length_c 8.388965
_cell_angle_alpha 90.000000
_cell_angle_beta 90.000000
_cell_angle_gamma 90.000000
_cell_volume 2915.723371
_symmetry_space_group_name_H-M "P 4/M"
_symmetry_group_IT_number 83
_symmetry_cell_setting 'tetragonal'
loop_
_space_group_symop_operation_xyz
x,y,z
-y,x,z
-x,-y,z
y,-x,z
-x,-y,-z
y,-x,-z
x,y,-z
-y,x,-z
loop_
_atom_site_type_symbol
_atom_site_label
_atom_site_fract_x
_atom_site_fract_y
_atom_site_fract_z
Si Si1 0.490759 0.240837 0.693425
Si Si2 0.833863 0.636206 0.311197
Si Si3 0.872539 0.362473 0.313773
Si Si4 0.568456 0.402087 0.500000
Si Si5 0.581154 0.016278 0.812621
Si Si6 0.760374 0.257250 0.179018
Si Si7 0.645388 0.385862 0.823259
O O1 0.492440 0.252516 0.500000
O O2 0.568366 0.213549 0.749635
O O3 0.431970 0.177748 0.719083
O O4 0.457511 0.308475 0.785516
O O5 0.823491 0.637828 0.500000
O O6 0.807700 0.712526 0.245052
O O7 0.915321 0.615987 0.271403
O O8 0.890507 0.363783 0.500000
O O9 0.944926 0.372594 0.215513
O O10 0.826365 0.291449 0.275382
O O11 0.594058 0.483950 0.500000
O O12 0.597926 0.371446 0.665995
O O13 0.500000 0.000000 0.752998
O O14 0.575971 0.032624 0.000000
O O15 0.702945 0.322161 0.173549
O O16 0.784472 0.241387 0.000000
O O17 0.611469 0.390997 0.000000
#
# Coordination Sequence:
#
# PCOD9543356 Si02
#       7
#     8   8   8   4   8   8   8
#     4   9  18  32  52  77 106 139 177 225 274 328
#     4  11  22  34  55  82 109 143 185 230 273 328
#     4  10  19  35  56  76 106 148 188 221 272 337
#     4  11  26  42  54  68  94 125 171 233 285 337
#     4  11  22  35  53  80 117 151 182 227 280 335
#     4  10  22  37  53  79 108 138 179 227 276 330
#     4  10  22  37  58  77  97 132 175 223 283 342
#
# _framework density 17.834339
#
# number of rings (size 3 to 8) (size 9 to 14) (size 15 to 20)
#    0.000    1.769    2.308    1.846    4.308    3.077 
#    0.000    0.769    0.000    0.000    0.000    0.000 
#    0.000    0.615    0.000    6.154    0.000    3.692 
#
# Total GULP energy -290360.943603 kJ/mol
# GULP energy per Si atom -5583.864300 kJ/mol
# Density = 1.779375 g / cm^3
# Si number density = 17.834339 Si / 1000 Ang^3
#
#
#
# Elastic Constant Matrix: (Units=GPa)
#
#
# Indices 1 2 3 4 5 6 
#
# 1 65.4175 15.7630 2.0866 0.0000 0.0000 -1.3534
# 2 15.7630 65.4175 2.0866 0.0000 0.0000 1.3534
# 3 2.0866 2.0866 63.2352 0.0000 0.0000 0.0000
# 4 0.0000 0.0000 0.0000 22.5787 0.0000 0.0000
# 5 0.0000 0.0000 0.0000 0.0000 22.5787 0.0000
# 6 -1.3534 1.3534 0.0000 0.0000 0.0000 21.8641
#
#
#
# Elastic Compliance Matrix: (Units=1/GPa)
#
#
# Indices 1 2 3 4 5 6 
#
# 1 0.016273 -0.003934 -0.000407 0.000000 0.000000 0.001251
# 2 -0.003934 0.016273 -0.000407 0.000000 0.000000 -0.001251
# 3 -0.000407 -0.000407 0.015841 0.000000 0.000000 0.000000
# 4 0.000000 0.000000 0.000000 0.044289 0.000000 0.000000
# 5 0.000000 0.000000 0.000000 0.000000 0.044289 0.000000
# 6 0.001251 -0.001251 0.000000 0.000000 0.000000 0.045892
#
#
# Mechanical properties :
#
#
# Convention : Reuss Voigt Hill
#
# Bulk Modulus (GPa) = 25.71320 25.99361 25.85341
# Shear Modulus (GPa) = 24.35239 25.01324 24.68282
#
# Velocity S-wave (km/s) = 3.69925 3.74910 3.72426
# Velocity P-wave (km/s) = 5.71795 5.77475 5.74642
#
# Compressibility (1/GPa) = 0.03889054
#
# Stress axis : x y z
#
# Youngs Moduli (GPa) = 61.45052 61.45052 63.12795
#
# Poissons Ratio (x) = 0.24175 0.02570
# Poissons Ratio (y) = 0.24175 0.02570
# Poissons Ratio (z) = 0.02502 0.02502
#
# Static dielectric constant tensor:
#      x y z
#    x 1.614850 0.000000 0.000000 
#    y 0.000000 1.614850 0.000000 
#    z 0.000000 0.000000 1.645700 
# 
# From -- ./inp_files/1035.got.cif
#   From: 2010.05.17/outbox.cif.g08.bks.cpg/sg83_1_cif.got.tgz:1035.got - 2010.06.03 18:55:12.
