data_PCOD9543168
_publ_section_title
;
Structure prediction by ZEFSAII (Michael W. Deem and Ramdas Pophale) SiO2 
 PCOD9543168
Probable space group: I -4 
;
_chemical_formula_sum "Si O2"
_cell_formula_units_Z 26
_cell_length_a 8.003576
_cell_length_b 8.003576
_cell_length_c 15.642929
_cell_angle_alpha 90.000000
_cell_angle_beta 90.000000
_cell_angle_gamma 90.000000
_cell_volume 1002.042682
_symmetry_space_group_name_H-M "I -4 "
_symmetry_group_IT_number 82
_symmetry_cell_setting 'tetragonal'
loop_
_space_group_symop_operation_xyz
x,y,z
y,-x,-z
-x,-y,z
-y,x,-z
1/2+x,1/2+y,1/2+z
1/2+y,1/2-x,1/2-z
1/2-x,1/2-y,1/2+z
1/2-y,1/2+x,1/2-z
loop_
_atom_site_type_symbol
_atom_site_label
_atom_site_fract_x
_atom_site_fract_y
_atom_site_fract_z
Si Si1 0.086732 0.287077 0.699277
Si Si2 0.178714 0.670558 0.557914
Si Si3 0.000000 0.000000 0.000000
Si Si4 0.187568 0.480540 0.127808
O O1 0.206948 0.435466 0.732309
O O2 0.186929 0.116638 0.689908
O O3 0.995687 0.335463 0.610729
O O4 0.333480 0.540724 0.555219
O O5 0.127810 0.683150 0.459137
O O6 0.250535 0.839788 0.598219
O O7 0.000000 0.500000 0.159123
#
# Coordination Sequence:
#
# PCOD9543168 Si02
#       4
#     8   8   2   8
#     4  11  29  51  84 124 188 235 292 374 475 514
#     4  12  26  50  85 129 176 238 299 372 441 555
#     4  12  28  44  92 132 176 220 338 352 424 556
#     4  12  26  51  91 124 172 240 313 360 454 550
#
# _framework density 25.947002000000001
#
# number of rings (size 3 to 8) (size 9 to 14) (size 15 to 20)
#    0.000    0.308    6.154    0.923   12.923    0.000 
#   16.615    0.000    0.000    0.000    0.000    0.000 
#    0.000    0.000    0.000    0.000    0.000    0.000 
#
# Total GULP energy -72814.692995 kJ/mol
# GULP energy per Si atom -5601.130230 kJ/mol
# Density = 2.588795 g / cm^3
# Si number density = 25.947002 Si / 1000 Ang^3
#
#
#
# Elastic Constant Matrix: (Units=GPa)
#
#
# Indices 1 2 3 4 5 6 
#
# 1 159.4239 73.8707 49.9435 0.0000 0.0000 -4.4863
# 2 73.8707 159.4239 49.9435 0.0000 0.0000 4.4863
# 3 49.9435 49.9435 118.8529 0.0000 0.0000 0.0000
# 4 0.0000 0.0000 0.0000 47.3319 0.0000 0.0000
# 5 0.0000 0.0000 0.0000 0.0000 47.3319 0.0000
# 6 -4.4863 4.4863 0.0000 0.0000 0.0000 65.5421
#
#
#
# Elastic Compliance Matrix: (Units=1/GPa)
#
#
# Indices 1 2 3 4 5 6 
#
# 1 0.008500 -0.003273 -0.002196 0.000000 0.000000 0.000806
# 2 -0.003273 0.008500 -0.002196 0.000000 0.000000 -0.000806
# 3 -0.002196 -0.002196 0.010260 0.000000 0.000000 0.000000
# 4 0.000000 0.000000 0.000000 0.021127 0.000000 0.000000
# 5 0.000000 0.000000 0.000000 0.000000 0.021127 0.000000
# 6 0.000806 -0.000806 0.000000 0.000000 0.000000 0.015368
#
#
# Mechanical properties :
#
#
# Convention : Reuss Voigt Hill
#
# Bulk Modulus (GPa) = 83.83782 87.24623 85.54202
# Shear Modulus (GPa) = 47.98930 49.63737 48.81333
#
# Velocity S-wave (km/s) = 4.30526 4.37856 4.34207
# Velocity P-wave (km/s) = 7.55612 7.69807 7.62743
#
# Compressibility (1/GPa) = 0.01192779
#
# Stress axis : x y z
#
# Youngs Moduli (GPa) = 117.64723 117.64723 97.46919
#
# Poissons Ratio (x) = 0.38508 0.21408
# Poissons Ratio (y) = 0.38508 0.21408
# Poissons Ratio (z) = 0.25840 0.25840
#
# Static dielectric constant tensor:
#      x y z
#    x 2.067300 0.000000 0.000000 
#    y 0.000000 2.067300 0.000000 
#    z 0.000000 0.000000 2.048650 
# 
# From -- ./inp_files/2419.got.cif
#   From: 2010.05.17/outbox.cif.g08.bks.cpg/sg82_2_cif.got.tgz:2419.got - 2010.06.03 18:52:26.
