data_PCOD9543787
_publ_section_title
;
Structure prediction by ZEFSAII (Michael W. Deem and Ramdas Pophale) SiO2 
 PCOD9543787
Probable space group: P 4/M
;
_chemical_formula_sum "Si O2"
_cell_formula_units_Z 48
_cell_length_a 8.067946
_cell_length_b 8.067946
_cell_length_c 33.400426
_cell_angle_alpha 90.000000
_cell_angle_beta 90.000000
_cell_angle_gamma 90.000000
_cell_volume 2174.092268
_symmetry_space_group_name_H-M "P 4/M"
_symmetry_group_IT_number 83
_symmetry_cell_setting 'tetragonal'
loop_
_space_group_symop_operation_xyz
x,y,z
-y,x,z
-x,-y,z
y,-x,z
-x,-y,-z
y,-x,-z
x,y,-z
-y,x,-z
loop_
_atom_site_type_symbol
_atom_site_label
_atom_site_fract_x
_atom_site_fract_y
_atom_site_fract_z
Si Si1 0.914112 0.735491 0.622887
Si Si2 0.903256 0.264144 0.912856
Si Si3 0.765254 0.586197 0.701040
Si Si4 0.000000 0.500000 0.847560
Si Si5 0.595915 0.236662 0.544518
Si Si6 0.914423 0.734653 0.220292
Si Si7 0.100092 0.737357 0.000000
O O1 0.860611 0.623887 0.660122
O O2 0.878490 0.648164 0.580798
O O3 0.100975 0.799064 0.625322
O O4 0.885228 0.390544 0.876713
O O5 0.870379 0.342965 0.956768
O O6 0.095525 0.202860 0.910245
O O7 0.601093 0.701111 0.702238
O O8 0.872694 0.637547 0.739274
O O9 0.896228 0.618301 0.818154
O O10 0.703357 0.405963 0.547516
O O11 0.623394 0.165486 0.500000
O O12 0.102991 0.799841 0.219247
O O13 0.908567 0.796074 0.000000
#
# Coordination Sequence:
#
# PCOD9543787 Si02
#       7
#     8   8   8   4   8   8   4
#     4  11  24  39  57  86 122 159 199 242 290 349
#     4   9  18  34  56  83 116 155 198 244 297 354
#     4  11  24  42  65  92 119 148 189 243 299 356
#     4  12  22  33  56  86 116 150 193 244 296 350
#     4   9  19  37  60  86 117 154 198 248 301 356
#     4  11  24  42  62  84 114 153 196 242 296 359
#     4   7  12  27  52  80 112 150 194 244 292 345
#
# _framework density 22.078178000000001
#
# number of rings (size 3 to 8) (size 9 to 14) (size 15 to 20)
#    0.000    1.917    0.000    5.500    0.000    9.000 
#    0.000    2.500    0.000    4.500    0.000    0.000 
#    0.000   16.000    0.000    0.000    0.000    0.000 
#
# Total GULP energy -268651.234262 kJ/mol
# GULP energy per Si atom -5596.900714 kJ/mol
# Density = 2.202793 g / cm^3
# Si number density = 22.078178 Si / 1000 Ang^3
#
#
#
# Elastic Constant Matrix: (Units=GPa)
#
#
# Indices 1 2 3 4 5 6 
#
# 1 89.7939 41.4380 64.8138 0.0000 0.0000 -0.9732
# 2 41.4380 89.7939 64.8138 0.0000 0.0000 0.9732
# 3 64.8138 64.8138 218.5892 0.0000 0.0000 0.0000
# 4 0.0000 0.0000 0.0000 1408.4709 0.0000 0.0000
# 5 0.0000 0.0000 0.0000 0.0000 1408.4709 0.0000
# 6 -0.9732 0.9732 0.0000 0.0000 0.0000 31.2575
#
#
#
# Elastic Compliance Matrix: (Units=1/GPa)
#
#
# Indices 1 2 3 4 5 6 
#
# 1 0.015741 -0.004965 -0.003195 0.000000 0.000000 0.000645
# 2 -0.004965 0.015741 -0.003195 0.000000 0.000000 -0.000645
# 3 -0.003195 -0.003195 0.006470 0.000000 0.000000 0.000000
# 4 0.000000 0.000000 0.000000 0.000710 0.000000 0.000000
# 5 0.000000 0.000000 0.000000 0.000000 0.000710 0.000000
# 6 0.000645 -0.000645 0.000000 0.000000 0.000000 0.032032
#
#
# Mechanical properties :
#
#
# Convention : Reuss Voigt Hill
#
# Bulk Modulus (GPa) = 65.61180 82.25646 73.93413
# Shear Modulus (GPa) = 50.40548 584.78062 317.59305
#
# Velocity S-wave (km/s) = 4.78331 16.29243 12.00673
# Velocity P-wave (km/s) = 7.76461 19.78034 15.02583
#
# Compressibility (1/GPa) = 0.01524116
#
# Stress axis : x y z
#
# Youngs Moduli (GPa) = 63.52779 63.52779 154.56782
#
# Poissons Ratio (x) = 0.31540 0.49389
# Poissons Ratio (y) = 0.31540 0.49389
# Poissons Ratio (z) = 0.20299 0.20299
#
# Static dielectric constant tensor:
#      x y z
#    x 1.813050 0.000000 0.000000 
#    y 0.000000 1.813050 0.000000 
#    z 0.000000 0.000000 1.796640 
# 
# From -- ./inp_files/3471.got.cif
#   From: 2010.05.17/outbox.cif.g08.bks.cpg/sg83_2_cif.got.tgz:3471.got - 2010.06.03 18:55:12.
