data_PCOD9543815
_publ_section_title
;
Structure prediction by ZEFSAII (Michael W. Deem and Ramdas Pophale) SiO2 
 PCOD9543815
Probable space group: P 4/M
;
_chemical_formula_sum "Si O2"
_cell_formula_units_Z 48
_cell_length_a 7.920133
_cell_length_b 7.920133
_cell_length_c 34.057129
_cell_angle_alpha 90.000000
_cell_angle_beta 90.000000
_cell_angle_gamma 90.000000
_cell_volume 2136.352846
_symmetry_space_group_name_H-M "P 4/M"
_symmetry_group_IT_number 83
_symmetry_cell_setting 'tetragonal'
loop_
_space_group_symop_operation_xyz
x,y,z
-y,x,z
-x,-y,z
y,-x,z
-x,-y,-z
y,-x,-z
x,y,-z
-y,x,-z
loop_
_atom_site_type_symbol
_atom_site_label
_atom_site_fract_x
_atom_site_fract_y
_atom_site_fract_z
Si Si1 0.232888 0.397181 0.209371
Si Si2 0.400089 0.234011 0.000000
Si Si3 0.500000 0.000000 0.854747
Si Si4 0.266501 0.095757 0.080677
Si Si5 0.232707 0.396003 0.294810
Si Si6 0.768898 0.593670 0.379062
Si Si7 0.269567 0.909527 0.457577
O O1 0.405840 0.291301 0.207055
O O2 0.103947 0.376424 0.173915
O O3 0.152014 0.363516 0.252397
O O4 0.593987 0.290523 0.000000
O O5 0.352678 0.133741 0.960840
O O6 0.395288 0.121653 0.883617
O O7 0.098638 0.207848 0.083105
O O8 0.408329 0.291722 0.294828
O O9 0.145602 0.366172 0.336828
O O10 0.598721 0.705784 0.379782
O O11 0.869186 0.631396 0.418304
O O12 0.354211 0.875824 0.500000
O O13 0.101047 0.795293 0.456831
#
# Coordination Sequence:
#
# PCOD9543815 Si02
#       7
#     8   4   4   8   8   8   8
#     4   9  18  34  55  77 105 143 183 225 273 319
#     4  11  24  43  68  95 118 144 188 241 278 317
#     4  12  22  35  56  86 116 146 193 238 264 312
#     4  11  24  41  61  86 121 161 191 224 280 336
#     4   7  12  27  49  71  98 131 166 208 261 315
#     4   9  17  30  50  76 102 127 161 210 262 311
#     4   9  19  35  50  65  93 133 170 204 249 309
#
# _framework density 22.468198000000001
#
# number of rings (size 3 to 8) (size 9 to 14) (size 15 to 20)
#    0.000    2.583    0.000    5.000    0.000    3.000 
#    0.000    9.167    0.000    0.000    0.000    2.333 
#    0.000    0.000    0.000    0.000    0.000    0.000 
#
# Total GULP energy -268192.351727 kJ/mol
# GULP energy per Si atom -5587.340661 kJ/mol
# Density = 2.241706 g / cm^3
# Si number density = 22.468198 Si / 1000 Ang^3
#
#
#
# Elastic Constant Matrix: (Units=GPa)
#
#
# Indices 1 2 3 4 5 6 
#
# 1 48.3040 10.1911 42.1197 0.0000 0.0000 -4.5576
# 2 10.1911 48.3040 42.1197 0.0000 0.0000 4.5576
# 3 42.1197 42.1197 248.3894 0.0000 0.0000 0.0000
# 4 0.0000 0.0000 0.0000 102.6369 0.0000 0.0000
# 5 0.0000 0.0000 0.0000 0.0000 102.6369 0.0000
# 6 -4.5576 4.5576 0.0000 0.0000 0.0000 26.1576
#
#
#
# Elastic Compliance Matrix: (Units=1/GPa)
#
#
# Indices 1 2 3 4 5 6 
#
# 1 0.024999 -0.002380 -0.003836 0.000000 0.000000 0.004770
# 2 -0.002380 0.024999 -0.003836 0.000000 0.000000 -0.004770
# 3 -0.003836 -0.003836 0.005327 0.000000 0.000000 0.000000
# 4 0.000000 0.000000 0.000000 0.009743 0.000000 0.000000
# 5 0.000000 0.000000 0.000000 0.000000 0.009743 0.000000
# 6 0.004770 -0.004770 0.000000 0.000000 0.000000 0.039892
#
#
# Mechanical properties :
#
#
# Convention : Reuss Voigt Hill
#
# Bulk Modulus (GPa) = 28.39079 59.31761 43.85420
# Shear Modulus (GPa) = 34.11908 62.99075 48.55492
#
# Velocity S-wave (km/s) = 3.90109 5.30060 4.65375
# Velocity P-wave (km/s) = 5.74062 7.99499 6.95969
#
# Compressibility (1/GPa) = 0.03522270
#
# Stress axis : x y z
#
# Youngs Moduli (GPa) = 40.00177 40.00177 187.73226
#
# Poissons Ratio (x) = 0.09520 0.72006
# Poissons Ratio (y) = 0.09520 0.72006
# Poissons Ratio (z) = 0.15343 0.15343
#
# Static dielectric constant tensor:
#      x y z
#    x 1.839190 0.000000 0.000000 
#    y 0.000000 1.839190 0.000000 
#    z 0.000000 0.000000 1.859570 
# 
# From -- ./inp_files/3450.got.cif
#   From: 2010.05.17/outbox.cif.g08.bks.cpg/sg83_2_cif.got.tgz:3450.got - 2010.06.03 18:55:12.
