data_PCOD9543732
_publ_section_title
;
Structure prediction by ZEFSAII (Michael W. Deem and Ramdas Pophale) SiO2 
 PCOD9543732
Probable space group: P 4/M
;
_chemical_formula_sum "Si O2"
_cell_formula_units_Z 48
_cell_length_a 8.442129
_cell_length_b 8.442129
_cell_length_c 33.539569
_cell_angle_alpha 90.000000
_cell_angle_beta 90.000000
_cell_angle_gamma 90.000000
_cell_volume 2390.349723
_symmetry_space_group_name_H-M "P 4/M"
_symmetry_group_IT_number 83
_symmetry_cell_setting 'tetragonal'
loop_
_space_group_symop_operation_xyz
x,y,z
-y,x,z
-x,-y,z
y,-x,z
-x,-y,-z
y,-x,-z
x,y,-z
-y,x,-z
loop_
_atom_site_type_symbol
_atom_site_label
_atom_site_fract_x
_atom_site_fract_y
_atom_site_fract_z
Si Si1 0.454078 0.238219 0.302637
Si Si2 0.744135 0.917150 0.457417
Si Si3 0.921570 0.258551 0.369795
Si Si4 0.242584 0.576683 0.000000
Si Si5 0.041623 0.739018 0.159156
Si Si6 0.072268 0.740064 0.928899
Si Si7 0.500000 0.000000 0.769366
O O1 0.621612 0.325349 0.306243
O O2 0.384719 0.121108 0.336216
O O3 0.476422 0.145541 0.261170
O O4 0.660072 0.888346 0.500000
O O5 0.668984 0.893900 0.414096
O O6 0.902763 0.809455 0.457563
O O7 0.100538 0.189535 0.366543
O O8 0.309873 0.398585 0.000000
O O9 0.136537 0.620093 0.038272
O O10 0.073831 0.666067 0.115540
O O11 0.034411 0.638198 0.198856
O O12 0.873962 0.826473 0.159729
O O13 0.895569 0.813353 0.933055
#
# Coordination Sequence:
#
# PCOD9543732 Si02
#       7
#     8   8   8   4   8   8   4
#     4  11  24  39  54  77 110 146 183 227 285 349
#     4   7  10  19  40  73 109 141 178 228 279 322
#     4   9  17  31  54  83 113 148 191 234 275 327
#     4  11  24  37  52  84 128 167 204 239 268 312
#     4   9  20  38  60  87 114 140 180 234 285 335
#     4   9  19  37  60  85 113 148 192 238 285 335
#     4  12  22  38  62  83 105 140 182 228 284 348
#
# _framework density 20.080743999999999
#
# number of rings (size 3 to 8) (size 9 to 14) (size 15 to 20)
#    0.000    2.583    0.000    5.000    0.000    4.667 
#    0.000    1.667    0.000    3.000    0.000    6.417 
#    0.000    0.000    0.000    0.000    0.000    0.000 
#
# Total GULP energy -267209.328460 kJ/mol
# GULP energy per Si atom -5566.861010 kJ/mol
# Density = 2.003504 g / cm^3
# Si number density = 20.080744 Si / 1000 Ang^3
#
#
#
# Elastic Constant Matrix: (Units=GPa)
#
#
# Indices 1 2 3 4 5 6 
#
# 1 69.5993 44.1093 72.4268 0.0000 0.0000 -2.4142
# 2 44.1093 69.5993 72.4268 0.0000 0.0000 2.4142
# 3 72.4268 72.4268 211.1449 0.0000 0.0000 0.0000
# 4 0.0000 0.0000 0.0000 -18.6255 0.0000 0.0000
# 5 0.0000 0.0000 0.0000 0.0000 -18.6255 0.0000
# 6 -2.4142 2.4142 0.0000 0.0000 0.0000 29.3408
#
#
#
# Elastic Compliance Matrix: (Units=1/GPa)
#
#
# Indices 1 2 3 4 5 6 
#
# 1 0.027736 -0.012116 -0.005358 0.000000 0.000000 0.003279
# 2 -0.012116 0.027736 -0.005358 0.000000 0.000000 -0.003279
# 3 -0.005358 -0.005358 0.008412 0.000000 0.000000 0.000000
# 4 0.000000 0.000000 0.000000 -0.053690 0.000000 0.000000
# 5 0.000000 0.000000 0.000000 0.000000 -0.053690 0.000000
# 6 0.003279 -0.003279 0.000000 0.000000 0.000000 0.034622
#
#
# Mechanical properties :
#
#
# Convention : Reuss Voigt Hill
#
# Bulk Modulus (GPa) = 54.88510 80.91879 67.90195
# Shear Modulus (GPa) = 116.65023 9.17668 62.91345
#
# Velocity S-wave (km/s) = 7.62999 2.14005 5.60341
# Velocity P-wave (km/s) = 10.24762 6.81840 8.70357
#
# Compressibility (1/GPa) = 0.01821988
#
# Stress axis : x y z
#
# Youngs Moduli (GPa) = 36.05420 36.05420 118.88036
#
# Poissons Ratio (x) = 0.43684 0.63695
# Poissons Ratio (y) = 0.43684 0.63695
# Poissons Ratio (z) = 0.19318 0.19318
#
# Static dielectric constant tensor:
#      x y z
#    x 1.782890 0.000000 0.000000 
#    y 0.000000 1.782890 0.000000 
#    z 0.000000 0.000000 1.746340 
# 
# From -- ./inp_files/3503.got.cif
#   From: 2010.05.17/outbox.cif.g08.bks.cpg/sg83_2_cif.got.tgz:3503.got - 2010.06.03 18:55:12.
