data_PCOD9543663
_publ_section_title
;
Structure prediction by ZEFSAII (Michael W. Deem and Ramdas Pophale) SiO2 
 PCOD9543663
Probable space group: P 4/M
;
_chemical_formula_sum "Si O2"
_cell_formula_units_Z 40
_cell_length_a 12.179219
_cell_length_b 12.179219
_cell_length_c 14.551613
_cell_angle_alpha 90.000000
_cell_angle_beta 90.000000
_cell_angle_gamma 90.000000
_cell_volume 2158.489875
_symmetry_space_group_name_H-M "P 4/M"
_symmetry_group_IT_number 83
_symmetry_cell_setting 'tetragonal'
loop_
_space_group_symop_operation_xyz
x,y,z
-y,x,z
-x,-y,z
y,-x,z
-x,-y,-z
y,-x,-z
x,y,-z
-y,x,-z
loop_
_atom_site_type_symbol
_atom_site_label
_atom_site_fract_x
_atom_site_fract_y
_atom_site_fract_z
Si Si1 0.547149 0.333202 0.110660
Si Si2 0.822552 0.974336 0.610582
Si Si3 0.464947 0.322498 0.610993
Si Si4 0.452037 0.120217 0.898084
Si Si5 0.091600 0.596992 0.702983
O O1 0.630014 0.425697 0.144107
O O2 0.550118 0.204802 0.128452
O O3 0.553585 0.343817 0.000000
O O4 0.813105 0.972974 0.500000
O O5 0.704717 0.953713 0.653624
O O6 0.909922 0.879145 0.636060
O O7 0.583844 0.374720 0.635158
O O8 0.462137 0.310745 0.500000
O O9 0.441937 0.205516 0.656653
O O10 0.375158 0.116924 0.809812
O O11 0.500000 0.000000 0.906754
O O12 0.408930 0.153091 0.000000
O O13 0.000000 0.500000 0.699554
#
# Coordination Sequence:
#
# PCOD9543663 Si02
#       5
#     8   8   8   8   8
#     4   8  14  27  49  75  98 125 170 223 269 314
#     4   9  20  40  63  85 111 144 181 228 283 329
#     4   9  20  38  57  82 120 157 180 213 279 351
#     4   9  19  36  51  70 108 150 183 223 273 319
#     4  11  23  35  56  88 113 144 194 235 271 327
#
# _framework density 18.531476000000001
#
# number of rings (size 3 to 8) (size 9 to 14) (size 15 to 20)
#    0.000    2.800    0.000    2.400    2.800    3.200 
#    3.600    2.000    0.000    0.000    0.000    1.400 
#    0.000    0.000    0.000    0.000    0.000    0.000 
#
# Total GULP energy -222734.934269 kJ/mol
# GULP energy per Si atom -5568.373357 kJ/mol
# Density = 1.848930 g / cm^3
# Si number density = 18.531476 Si / 1000 Ang^3
#
#
#
# Elastic Constant Matrix: (Units=GPa)
#
#
# Indices 1 2 3 4 5 6 
#
# 1 120.5874 47.0164 36.2802 0.0000 0.0000 0.8434
# 2 47.0164 120.5874 36.2802 0.0000 0.0000 -0.8434
# 3 36.2802 36.2802 81.4942 0.0000 0.0000 0.0000
# 4 0.0000 0.0000 0.0000 -11.1506 0.0000 0.0000
# 5 0.0000 0.0000 0.0000 0.0000 -11.1506 0.0000
# 6 0.8434 -0.8434 0.0000 0.0000 0.0000 9.9585
#
#
#
# Elastic Compliance Matrix: (Units=1/GPa)
#
#
# Indices 1 2 3 4 5 6 
#
# 1 0.010505 -0.003114 -0.003290 0.000000 0.000000 -0.001153
# 2 -0.003114 0.010505 -0.003290 0.000000 0.000000 0.001153
# 3 -0.003290 -0.003290 0.015200 0.000000 0.000000 0.000000
# 4 0.000000 0.000000 0.000000 -0.089681 0.000000 0.000000
# 5 0.000000 0.000000 0.000000 0.000000 -0.089681 0.000000
# 6 -0.001153 0.001153 0.000000 0.000000 0.000000 0.100612
#
#
# Mechanical properties :
#
#
# Convention : Reuss Voigt Hill
#
# Bulk Modulus (GPa) = 59.44977 62.42473 60.93725
# Shear Modulus (GPa) = -284.99509 11.07093 -136.96208
#
# Velocity S-wave (km/s) = -12.41465 2.44685 -8.60629
# Velocity P-wave (km/s) = 13.16617 6.46078 8.11192
#
# Compressibility (1/GPa) = 0.01682092
#
# Stress axis : x y z
#
# Youngs Moduli (GPa) = 95.19410 95.19410 65.78744
#
# Poissons Ratio (x) = 0.29643 0.21646
# Poissons Ratio (y) = 0.29643 0.21646
# Poissons Ratio (z) = 0.31322 0.31322
#
# Static dielectric constant tensor:
#      x y z
#    x 1.647310 0.000000 0.000000 
#    y 0.000000 1.647310 0.000000 
#    z 0.000000 0.000000 1.714300 
# 
# From -- ./inp_files/2253.got.cif
#   From: 2010.05.17/outbox.cif.g08.bks.cpg/sg83_2_cif.got.tgz:2253.got - 2010.06.03 18:55:12.
