data_PCOD9543983
_publ_section_title
;
Structure prediction by ZEFSAII (Michael W. Deem and Ramdas Pophale) SiO2 
 PCOD9543983
Probable space group: P 42/M
;
_chemical_formula_sum "Si O2"
_cell_formula_units_Z 64
_cell_length_a 11.365672
_cell_length_b 11.365672
_cell_length_c 21.731165
_cell_angle_alpha 90.000000
_cell_angle_beta 90.000000
_cell_angle_gamma 90.000000
_cell_volume 2807.199298
_symmetry_space_group_name_H-M "P 42/M"
_symmetry_group_IT_number 84
_symmetry_cell_setting 'tetragonal'
loop_
_space_group_symop_operation_xyz
x,y,z
-y,x,1/2+z
-x,-y,z
y,-x,1/2+z
-x,-y,-z
y,-x,1/2-z
x,y,-z
-y,x,1/2-z
loop_
_atom_site_type_symbol
_atom_site_label
_atom_site_fract_x
_atom_site_fract_y
_atom_site_fract_z
Si Si1 0.526087 0.294753 0.665197
Si Si2 0.804961 0.101726 0.824870
Si Si3 0.919095 0.394226 0.109394
Si Si4 0.995006 0.864192 0.098903
Si Si5 0.626549 0.946824 0.754471
Si Si6 0.928103 0.252988 0.427929
Si Si7 0.716169 0.632781 0.292833
Si Si8 0.767558 0.409910 0.356836
O O1 0.456859 0.209090 0.618274
O O2 0.587775 0.239042 0.726357
O O3 0.423577 0.369438 0.698452
O O4 0.635260 0.362336 0.635096
O O5 0.756829 0.229128 0.809843
O O6 0.942913 0.110164 0.835948
O O7 0.739588 0.018542 0.777367
O O8 0.760186 0.048843 0.890254
O O9 0.954027 0.379523 0.181282
O O10 0.000000 0.500000 0.082600
O O11 0.943212 0.262354 0.080515
O O12 0.855741 0.846739 0.096381
O O13 0.000000 0.000000 0.069136
O O14 0.635855 0.823882 0.792066
O O15 0.500000 0.000000 0.776748
O O16 0.944693 0.244810 0.500000
O O17 0.857055 0.367823 0.408304
O O18 0.762930 0.547394 0.345920
#
# Coordination Sequence:
#
# PCOD9543983 Si02
#       8
#     8   8   8   8   8   8   8   8
#     4  12  22  34  60  93 140 182 214 243 310 392
#     4  10  21  37  62  90 123 156 210 271 322 382
#     4  11  20  35  57  88 130 179 214 251 314 401
#     4  10  22  42  59  90 121 161 212 277 336 396
#     4  10  18  35  55  81 129 176 205 251 312 383
#     4  10  24  46  70  89 117 164 222 283 347 391
#     4  12  20  36  58  96 137 176 213 247 304 397
#     4  11  22  36  61  95 128 170 220 262 309 384
#
# _framework density 22.798522999999999
#
# number of rings (size 3 to 8) (size 9 to 14) (size 15 to 20)
#    0.000    1.250    5.000    1.875    0.000    2.250 
#    4.500    1.250    0.000    5.625    0.000    0.000 
#    0.000    0.000    0.000    0.000    0.000    0.000 
#
# Total GULP energy -356369.879543 kJ/mol
# GULP energy per Si atom -5568.279368 kJ/mol
# Density = 2.274663 g / cm^3
# Si number density = 22.798523 Si / 1000 Ang^3
#
#
#
# Elastic Constant Matrix: (Units=GPa)
#
#
# Indices 1 2 3 4 5 6 
#
# 1 85.0807 5.7567 13.8616 0.0000 0.0000 2.7261
# 2 5.7567 85.0807 13.8616 0.0000 0.0000 -2.7261
# 3 13.8616 13.8616 73.8129 0.0000 0.0000 0.0000
# 4 0.0000 0.0000 0.0000 -0.6958 0.0000 0.0000
# 5 0.0000 0.0000 0.0000 0.0000 -0.6958 0.0000
# 6 2.7261 -2.7261 0.0000 0.0000 0.0000 43.0290
#
#
#
# Elastic Compliance Matrix: (Units=1/GPa)
#
#
# Indices 1 2 3 4 5 6 
#
# 1 0.012170 -0.000492 -0.002193 0.000000 0.000000 -0.000802
# 2 -0.000492 0.012170 -0.002193 0.000000 0.000000 0.000802
# 3 -0.002193 -0.002193 0.014371 0.000000 0.000000 0.000000
# 4 0.000000 0.000000 0.000000 -1.437262 0.000000 0.000000
# 5 0.000000 0.000000 0.000000 0.000000 -1.437262 0.000000
# 6 -0.000802 0.000802 0.000000 0.000000 0.000000 0.023342
#
#
# Mechanical properties :
#
#
# Convention : Reuss Voigt Hill
#
# Bulk Modulus (GPa) = 34.53607 34.54821 34.54214
# Shear Modulus (GPa) = -1.79015 22.36044 10.28515
#
# Velocity S-wave (km/s) = -0.88708 3.13515 2.12629
# Velocity P-wave (km/s) = 3.75926 5.31903 4.60566
#
# Compressibility (1/GPa) = 0.02895524
#
# Stress axis : x y z
#
# Youngs Moduli (GPa) = 82.17040 82.17040 69.58238
#
# Poissons Ratio (x) = 0.04041 0.15260
# Poissons Ratio (y) = 0.04041 0.15260
# Poissons Ratio (z) = 0.18020 0.18020
#
# Static dielectric constant tensor:
#      x y z
#    x 1.952530 0.000000 0.000000 
#    y 0.000000 1.952530 0.000000 
#    z 0.000000 0.000000 1.798090 
# 
# From -- ./inp_files/5077.got.cif
#   From: 2010.05.17/outbox.cif.g08.bks.cpg/sg84_3_cif.got.tgz:5077.got - 2010.06.03 18:57:40.
