data_PCOD9543606
_publ_section_title
;
Structure prediction by ZEFSAII (Michael W. Deem and Ramdas Pophale) SiO2 
 PCOD9543606
Probable space group: P 4/M
;
_chemical_formula_sum "Si O2"
_cell_formula_units_Z 33
_cell_length_a 13.256414
_cell_length_b 13.256414
_cell_length_c 11.792031
_cell_angle_alpha 90.000000
_cell_angle_beta 90.000000
_cell_angle_gamma 90.000000
_cell_volume 2072.243231
_symmetry_space_group_name_H-M "P 4/M"
_symmetry_group_IT_number 83
_symmetry_cell_setting 'tetragonal'
loop_
_space_group_symop_operation_xyz
x,y,z
-y,x,z
-x,-y,z
y,-x,z
-x,-y,-z
y,-x,-z
x,y,-z
-y,x,-z
loop_
_atom_site_type_symbol
_atom_site_label
_atom_site_fract_x
_atom_site_fract_y
_atom_site_fract_z
Si Si1 0.114637 0.467327 0.500000
Si Si2 0.500000 0.500000 0.500000
Si Si3 0.213751 0.328867 0.685697
Si Si4 0.616396 0.704735 0.500000
Si Si5 0.862707 0.096043 0.635448
Si Si6 0.651121 0.570027 0.135556
O O1 0.143149 0.401082 0.610070
O O2 0.187395 0.563631 0.500000
O O3 0.000000 0.500000 0.500000
O O4 0.528786 0.620937 0.500000
O O5 0.311949 0.307777 0.608331
O O6 0.154985 0.224011 0.701554
O O7 0.256042 0.383924 0.796483
O O8 0.843265 0.109895 0.500000
O O9 0.975950 0.135669 0.657317
O O10 0.546999 0.628818 0.165031
O O11 0.663738 0.575949 0.000000
#
# Coordination Sequence:
#
# PCOD9543606 Si02
#       6
#     4   1   8   4   8   8
#     4  11  24  33  45  79 116 137 164 205 269 321
#     4  12  20  36  40  72 114 140 172 200 256 314
#     4  11  20  32  52  75 100 139 169 208 261 313
#     4  11  22  31  47  74 105 141 166 207 255 322
#     4   9  18  33  52  74 101 133 175 217 252 308
#     4   9  19  35  55  76 100 135 180 220 251 299
#
# _framework density 15.924772000000001
#
# number of rings (size 3 to 8) (size 9 to 14) (size 15 to 20)
#    0.000    1.939    4.848    2.909    3.394    0.000 
#    0.000    0.000    0.000    2.182    0.000    1.697 
#    0.000    0.000    0.000    0.000    0.000    0.000 
#
# Total GULP energy -183893.224531 kJ/mol
# GULP energy per Si atom -5572.521955 kJ/mol
# Density = 1.588853 g / cm^3
# Si number density = 15.924772 Si / 1000 Ang^3
#
#
#
# Elastic Constant Matrix: (Units=GPa)
#
#
# Indices 1 2 3 4 5 6 
#
# 1 101.9757 58.2061 38.3044 0.0000 0.0000 -6.0389
# 2 58.2061 101.9757 38.3044 0.0000 0.0000 6.0389
# 3 38.3044 38.3044 46.8501 0.0000 0.0000 0.0000
# 4 0.0000 0.0000 0.0000 13.7114 0.0000 0.0000
# 5 0.0000 0.0000 0.0000 0.0000 13.7114 0.0000
# 6 -6.0389 6.0389 0.0000 0.0000 0.0000 38.7465
#
#
#
# Elastic Compliance Matrix: (Units=1/GPa)
#
#
# Indices 1 2 3 4 5 6 
#
# 1 0.017063 -0.006811 -0.008382 0.000000 0.000000 0.003721
# 2 -0.006811 0.017063 -0.008382 0.000000 0.000000 -0.003721
# 3 -0.008382 -0.008382 0.035050 0.000000 0.000000 0.000000
# 4 0.000000 0.000000 0.000000 0.072932 0.000000 0.000000
# 5 0.000000 0.000000 0.000000 0.000000 0.072932 0.000000
# 6 0.003721 -0.003721 0.000000 0.000000 0.000000 0.026969
#
#
# Mechanical properties :
#
#
# Convention : Reuss Voigt Hill
#
# Bulk Modulus (GPa) = 45.39919 57.82572 51.61245
# Shear Modulus (GPa) = 16.86352 20.96633 18.91493
#
# Velocity S-wave (km/s) = 3.25768 3.63242 3.45014
# Velocity P-wave (km/s) = 6.53608 7.34733 6.95355
#
# Compressibility (1/GPa) = 0.02202683
#
# Stress axis : x y z
#
# Youngs Moduli (GPa) = 58.60787 58.60787 28.53060
#
# Poissons Ratio (x) = 0.39918 0.23913
# Poissons Ratio (y) = 0.39918 0.23913
# Poissons Ratio (z) = 0.49123 0.49123
#
# Static dielectric constant tensor:
#      x y z
#    x 1.534920 0.000000 0.000000 
#    y 0.000000 1.534920 0.000000 
#    z 0.000000 0.000000 1.530570 
# 
# From -- ./inp_files/1589.got.cif
#   From: 2010.05.17/outbox.cif.g08.bks.cpg/sg83_1_cif.got.tgz:1589.got - 2010.06.03 18:55:12.
