data_PCOD9543740
_publ_section_title
;
Structure prediction by ZEFSAII (Michael W. Deem and Ramdas Pophale) SiO2 
 PCOD9543740
Probable space group: P 4/M
;
_chemical_formula_sum "Si O2"
_cell_formula_units_Z 48
_cell_length_a 8.094178
_cell_length_b 8.094178
_cell_length_c 33.170346
_cell_angle_alpha 90.000000
_cell_angle_beta 90.000000
_cell_angle_gamma 90.000000
_cell_volume 2173.179018
_symmetry_space_group_name_H-M "P 4/M"
_symmetry_group_IT_number 83
_symmetry_cell_setting 'tetragonal'
loop_
_space_group_symop_operation_xyz
x,y,z
-y,x,z
-x,-y,z
y,-x,z
-x,-y,-z
y,-x,-z
x,y,-z
-y,x,-z
loop_
_atom_site_type_symbol
_atom_site_label
_atom_site_fract_x
_atom_site_fract_y
_atom_site_fract_z
Si Si1 0.098569 0.261425 0.245864
Si Si2 0.764476 0.583023 0.922412
Si Si3 0.262012 0.094910 0.454729
Si Si4 0.095999 0.262350 0.844096
Si Si5 0.587243 0.237452 0.675166
Si Si6 0.500000 0.000000 0.609681
Si Si7 0.080593 0.265748 0.000000
O O1 0.124217 0.331336 0.200878
O O2 0.153845 0.377817 0.281900
O O3 0.908362 0.204041 0.249090
O O4 0.602557 0.699283 0.924706
O O5 0.852080 0.620428 0.880186
O O6 0.876478 0.633508 0.959994
O O7 0.329223 0.120516 0.500000
O O8 0.394442 0.117209 0.419785
O O9 0.202650 0.903784 0.451311
O O10 0.906564 0.202851 0.847370
O O11 0.701342 0.398648 0.672041
O O12 0.614146 0.107399 0.639384
O O13 0.895612 0.198061 0.000000
#
# Coordination Sequence:
#
# PCOD9543740 Si02
#       7
#     8   8   8   8   8   4   4
#     4   9  19  38  62  85 111 148 194 241 288 343
#     4  11  24  39  56  84 120 154 189 231 282 342
#     4   9  19  36  58  85 114 145 188 241 290 338
#     4   9  19  37  61  87 113 144 188 236 280 334
#     4  11  24  38  53  79 115 151 190 239 291 344
#     4  12  21  36  58  82 112 154 194 231 286 354
#     4  11  24  41  62  86 112 145 190 241 290 344
#
# _framework density 22.087457000000001
#
# number of rings (size 3 to 8) (size 9 to 14) (size 15 to 20)
#    0.000    1.917    0.000    5.250    0.000    6.667 
#    0.000    6.667    0.000    0.000    0.000    7.000 
#    0.000    0.000    0.000    0.000    0.000    0.000 
#
# Total GULP energy -268739.359829 kJ/mol
# GULP energy per Si atom -5598.736663 kJ/mol
# Density = 2.203719 g / cm^3
# Si number density = 22.087457 Si / 1000 Ang^3
#
#
#
# Elastic Constant Matrix: (Units=GPa)
#
#
# Indices 1 2 3 4 5 6 
#
# 1 64.4746 25.7167 50.0089 0.0000 0.0000 -3.1812
# 2 25.7167 64.4746 50.0089 0.0000 0.0000 3.1812
# 3 50.0089 50.0089 190.0358 0.0000 0.0000 0.0000
# 4 0.0000 0.0000 0.0000 53.9936 0.0000 0.0000
# 5 0.0000 0.0000 0.0000 0.0000 53.9936 0.0000
# 6 -3.1812 3.1812 0.0000 0.0000 0.0000 35.3214
#
#
#
# Elastic Compliance Matrix: (Units=1/GPa)
#
#
# Indices 1 2 3 4 5 6 
#
# 1 0.020922 -0.005266 -0.004120 0.000000 0.000000 0.002359
# 2 -0.005266 0.020922 -0.004120 0.000000 0.000000 -0.002359
# 3 -0.004120 -0.004120 0.007431 0.000000 0.000000 0.000000
# 4 0.000000 0.000000 0.000000 0.018521 0.000000 0.000000
# 5 0.000000 0.000000 0.000000 0.000000 0.018521 0.000000
# 6 0.002359 -0.002359 0.000000 0.000000 0.000000 0.028736
#
#
# Mechanical properties :
#
#
# Convention : Reuss Voigt Hill
#
# Bulk Modulus (GPa) = 44.91701 63.38380 54.15040
# Shear Modulus (GPa) = 33.44783 41.54511 37.49647
#
# Velocity S-wave (km/s) = 3.89567 4.34168 4.12471
# Velocity P-wave (km/s) = 6.37300 7.34116 6.87415
#
# Compressibility (1/GPa) = 0.02226328
#
# Stress axis : x y z
#
# Youngs Moduli (GPa) = 47.79557 47.79557 134.57835
#
# Poissons Ratio (x) = 0.25169 0.55448
# Poissons Ratio (y) = 0.25169 0.55448
# Poissons Ratio (z) = 0.19692 0.19692
#
# Static dielectric constant tensor:
#      x y z
#    x 1.815330 0.000000 0.000000 
#    y 0.000000 1.815330 0.000000 
#    z 0.000000 0.000000 1.774920 
# 
# From -- ./inp_files/3479.got.cif
#   From: 2010.05.17/outbox.cif.g08.bks.cpg/sg83_2_cif.got.tgz:3479.got - 2010.06.03 18:55:12.
