data_PCOD9543156
_publ_section_title
;
Structure prediction by ZEFSAII (Michael W. Deem and Ramdas Pophale) SiO2 
 PCOD9543156
Probable space group: I -4 
;
_chemical_formula_sum "Si O2"
_cell_formula_units_Z 40
_cell_length_a 8.549048
_cell_length_b 8.549048
_cell_length_c 24.204268
_cell_angle_alpha 90.000000
_cell_angle_beta 90.000000
_cell_angle_gamma 90.000000
_cell_volume 1768.998497
_symmetry_space_group_name_H-M "I -4 "
_symmetry_group_IT_number 82
_symmetry_cell_setting 'tetragonal'
loop_
_space_group_symop_operation_xyz
x,y,z
y,-x,-z
-x,-y,z
-y,x,-z
1/2+x,1/2+y,1/2+z
1/2+y,1/2-x,1/2-z
1/2-x,1/2-y,1/2+z
1/2-y,1/2+x,1/2-z
loop_
_atom_site_type_symbol
_atom_site_label
_atom_site_fract_x
_atom_site_fract_y
_atom_site_fract_z
Si Si1 0.623238 0.612222 0.131044
Si Si2 0.882784 0.359241 0.681097
Si Si3 0.621471 0.208875 0.759580
Si Si4 0.703668 0.381734 0.566765
Si Si5 0.246184 0.879086 0.949057
O O1 0.500000 0.500000 0.101262
O O2 0.505730 0.732939 0.159617
O O3 0.711356 0.551230 0.185638
O O4 0.757136 0.676475 0.091924
O O5 0.759303 0.303564 0.728202
O O6 0.782167 0.393377 0.626098
O O7 0.000000 0.500000 0.694821
O O8 0.463531 0.185062 0.723977
O O9 0.804004 0.347155 0.511617
O O10 0.562104 0.255115 0.567994
O O11 0.652336 0.559343 0.552592
#
# Coordination Sequence:
#
# PCOD9543156 Si02
#       5
#     8   8   8   8   8
#     4  12  25  44  64 104 142 175 229 292 353 414
#     4  12  25  42  69 102 140 177 231 293 348 413
#     4  11  26  48  71  95 137 190 236 283 352 426
#     4   9  19  41  70 101 131 183 236 279 347 410
#     4   9  19  41  71  98 136 180 233 288 336 422
#
# _framework density 22.611664000000001
#
# number of rings (size 3 to 8) (size 9 to 14) (size 15 to 20)
#    0.000    1.400    4.000    2.400    2.800    0.000 
#    7.200    0.000    0.000    0.000    0.000    0.000 
#    0.000    0.000    0.000    0.000    0.000    0.000 
#
# Total GULP energy -111465.372756 kJ/mol
# GULP energy per Si atom -5573.268638 kJ/mol
# Density = 2.256020 g / cm^3
# Si number density = 22.611664 Si / 1000 Ang^3
#
#
#
# Elastic Constant Matrix: (Units=GPa)
#
#
# Indices 1 2 3 4 5 6 
#
# 1 72.1612 42.0092 37.1522 0.0000 0.0000 -1.3803
# 2 42.0092 72.1612 37.1522 0.0000 0.0000 1.3803
# 3 37.1522 37.1522 124.3401 0.0000 0.0000 0.0000
# 4 0.0000 0.0000 0.0000 25.3761 0.0000 0.0000
# 5 0.0000 0.0000 0.0000 0.0000 25.3761 0.0000
# 6 -1.3803 1.3803 0.0000 0.0000 0.0000 37.5447
#
#
#
# Elastic Compliance Matrix: (Units=1/GPa)
#
#
# Indices 1 2 3 4 5 6 
#
# 1 0.022075 -0.011202 -0.003249 0.000000 0.000000 0.001223
# 2 -0.011202 0.022075 -0.003249 0.000000 0.000000 -0.001223
# 3 -0.003249 -0.003249 0.009984 0.000000 0.000000 0.000000
# 4 0.000000 0.000000 0.000000 0.039407 0.000000 0.000000
# 5 0.000000 0.000000 0.000000 0.000000 0.039407 0.000000
# 6 0.001223 -0.001223 0.000000 0.000000 0.000000 0.026725
#
#
# Mechanical properties :
#
#
# Convention : Reuss Voigt Hill
#
# Bulk Modulus (GPa) = 53.37606 55.69884 54.53745
# Shear Modulus (GPa) = 24.83630 27.81598 26.32614
#
# Velocity S-wave (km/s) = 3.31778 3.51117 3.41585
# Velocity P-wave (km/s) = 6.19142 6.41280 6.30308
#
# Compressibility (1/GPa) = 0.01873499
#
# Stress axis : x y z
#
# Youngs Moduli (GPa) = 45.29951 45.29951 100.16070
#
# Poissons Ratio (x) = 0.50745 0.32541
# Poissons Ratio (y) = 0.50745 0.32541
# Poissons Ratio (z) = 0.14717 0.14717
#
# Static dielectric constant tensor:
#      x y z
#    x 1.827750 0.000000 0.000000 
#    y 0.000000 1.827750 0.000000 
#    z 0.000000 0.000000 2.020190 
# 
# From -- ./inp_files/3343.got.cif
#   From: 2010.05.17/outbox.cif.g08.bks.cpg/sg82_2_cif.got.tgz:3343.got - 2010.06.03 18:52:26.
