data_PCOD9543809
_publ_section_title
;
Structure prediction by ZEFSAII (Michael W. Deem and Ramdas Pophale) SiO2 
 PCOD9543809
Probable space group: P 4/M
;
_chemical_formula_sum "Si O2"
_cell_formula_units_Z 38
_cell_length_a 8.502342
_cell_length_b 8.502342
_cell_length_c 24.656600
_cell_angle_alpha 90.000000
_cell_angle_beta 90.000000
_cell_angle_gamma 90.000000
_cell_volume 1782.421163
_symmetry_space_group_name_H-M "P 4/M"
_symmetry_group_IT_number 83
_symmetry_cell_setting 'tetragonal'
loop_
_space_group_symop_operation_xyz
x,y,z
-y,x,z
-x,-y,z
y,-x,z
-x,-y,-z
y,-x,-z
x,y,-z
-y,x,-z
loop_
_atom_site_type_symbol
_atom_site_label
_atom_site_fract_x
_atom_site_fract_y
_atom_site_fract_z
Si Si1 0.598569 0.255581 0.280848
Si Si2 0.843354 0.781578 0.940977
Si Si3 0.091861 0.340801 0.832775
Si Si4 0.749495 0.087655 0.500000
Si Si5 0.596648 0.250460 0.400077
Si Si6 0.000000 0.000000 0.178516
O O1 0.696619 0.416386 0.280391
O O2 0.635333 0.167138 0.226026
O O3 0.627053 0.180177 0.339968
O O4 0.800866 0.691276 0.886183
O O5 0.035465 0.790833 0.939550
O O6 0.797341 0.716134 0.000000
O O7 0.000000 0.500000 0.845639
O O8 0.978419 0.190826 0.824303
O O9 0.650334 0.134924 0.447154
O O10 0.908201 0.193524 0.500000
O O11 0.695174 0.414522 0.404667
#
# Coordination Sequence:
#
# PCOD9543809 Si02
#       6
#     8   8   8   4   8   2
#     4   9  20  40  62  89 125 164 212 267 320 383
#     4   9  17  34  58  84 121 165 209 266 323 377
#     4  12  22  37  64  93 127 171 213 263 331 393
#     4  11  24  41  54  88 132 159 192 247 314 370
#     4   9  19  40  67  88 113 157 209 254 304 369
#     4  12  24  44  57  96 136 157 220 272 310 396
#
# _framework density 21.319317999999999
#
# number of rings (size 3 to 8) (size 9 to 14) (size 15 to 20)
#    0.000    2.000    2.105    3.789    0.000    2.947 
#   11.368    0.000    0.000    0.000    0.000    1.474 
#    0.000    0.000    0.000    0.000    0.000    0.000 
#
# Total GULP energy -211561.291656 kJ/mol
# GULP energy per Si atom -5567.402412 kJ/mol
# Density = 2.127079 g / cm^3
# Si number density = 21.319318 Si / 1000 Ang^3
#
#
#
# Elastic Constant Matrix: (Units=GPa)
#
#
# Indices 1 2 3 4 5 6 
#
# 1 27.1619 19.9780 15.3144 0.0000 0.0000 -20.4315
# 2 19.9780 27.1619 15.3144 0.0000 0.0000 20.4315
# 3 15.3144 15.3144 178.3134 0.0000 0.0000 0.0000
# 4 0.0000 0.0000 0.0000 -1.1214 0.0000 0.0000
# 5 0.0000 0.0000 0.0000 0.0000 -1.1214 0.0000
# 6 -20.4315 20.4315 0.0000 0.0000 0.0000 8.8733
#
#
#
# Elastic Compliance Matrix: (Units=1/GPa)
#
#
# Indices 1 2 3 4 5 6 
#
# 1 0.005480 0.016987 -0.001930 0.000000 0.000000 -0.026495
# 2 0.016987 0.005480 -0.001930 0.000000 0.000000 0.026495
# 3 -0.001930 -0.001930 0.005940 0.000000 0.000000 0.000000
# 4 0.000000 0.000000 0.000000 -0.891740 0.000000 0.000000
# 5 0.000000 0.000000 0.000000 0.000000 -0.891740 0.000000
# 6 -0.026495 0.026495 0.000000 0.000000 0.000000 -0.009316
#
#
# Mechanical properties :
#
#
# Convention : Reuss Voigt Hill
#
# Bulk Modulus (GPa) = 23.17197 37.09451 30.13324
# Shear Modulus (GPa) = -2.79679 13.46147 5.33234
#
# Velocity S-wave (km/s) = -1.14660 2.51554 1.58323
# Velocity P-wave (km/s) = 3.02319 5.08670 4.18415
#
# Compressibility (1/GPa) = 0.04315559
#
# Stress axis : x y z
#
# Youngs Moduli (GPa) = 182.47393 182.47393 168.36300
#
# Poissons Ratio (x) = -3.09968 0.32487
# Poissons Ratio (y) = -3.09968 0.32487
# Poissons Ratio (z) = 0.35210 0.35210
#
# Static dielectric constant tensor:
#      x y z
#    x 1.792840 0.000000 0.000000 
#    y 0.000000 1.792840 0.000000 
#    z 0.000000 0.000000 1.845680 
# 
# From -- ./inp_files/3111.got.cif
#   From: 2010.05.17/outbox.cif.g08.bks.cpg/sg83_2_cif.got.tgz:3111.got - 2010.06.03 18:55:12.
