data_PCOD9544603
_publ_section_title
;
Structure prediction by ZEFSAII (Michael W. Deem and Ramdas Pophale) SiO2 
 PCOD9544603
Probable space group: P 4/N
;
_chemical_formula_sum "Si O2"
_cell_formula_units_Z 58
_cell_length_a 16.983936
_cell_length_b 16.983936
_cell_length_c 7.847685
_cell_angle_alpha 90.000000
_cell_angle_beta 90.000000
_cell_angle_gamma 90.000000
_cell_volume 2263.696773
_symmetry_space_group_name_H-M "P 4/N"
_symmetry_group_IT_number 85
_symmetry_cell_setting 'tetragonal'
loop_
_space_group_symop_operation_xyz
x,y,z
1/2-y,x,z
1/2-x,1/2-y,z
y,1/2-x,z
-x,-y,-z
1/2+y,-x,-z
1/2+x,1/2+y,-z
-y,1/2+x,-z
loop_
_atom_site_type_symbol
_atom_site_label
_atom_site_fract_x
_atom_site_fract_y
_atom_site_fract_z
Si Si1 0.243481 0.661664 0.289237
Si Si2 0.920256 0.315231 0.854296
Si Si3 0.978181 0.270047 0.505296
Si Si4 0.902448 0.637582 0.684824
Si Si5 0.119723 0.446936 0.643477
Si Si6 0.653392 0.842309 0.046854
Si Si7 0.250000 0.250000 0.378054
Si Si8 0.629789 0.088642 0.122769
O O1 0.250000 0.750000 0.345690
O O2 0.173928 0.670159 0.153619
O O3 0.224889 0.597850 0.432998
O O4 0.327772 0.639834 0.215204
O O5 0.949532 0.324527 0.660653
O O6 0.938046 0.223640 0.907573
O O7 0.935169 0.388327 0.979270
O O8 0.022378 0.307472 0.345969
O O9 0.037203 0.210305 0.594077
O O10 0.915758 0.571232 0.541129
O O11 0.885487 0.618172 0.880787
O O12 0.825181 0.687896 0.630481
O O13 0.095522 0.523576 0.749354
O O14 0.119222 0.375120 0.777219
O O15 0.643221 0.747737 0.037336
#
# Coordination Sequence:
#
# PCOD9544603 Si02
#       8
#     8   8   8   8   8   8   2   8
#     4  10  23  41  72 102 138 192 249 291 358 438
#     4  10  21  38  66  99 137 178 234 301 353 429
#     4  11  25  41  68 109 141 183 242 310 359 432
#     4  12  23  47  68 104 138 181 239 299 365 436
#     4  11  25  40  66 101 143 175 237 299 367 435
#     4  11  22  40  72 101 127 176 233 293 367 434
#     4  12  20  44  78  92 136 182 228 304 366 428
#     4  10  21  42  63  98 135 184 235 303 361 424
#
# _framework density 25.621808000000001
#
# number of rings (size 3 to 8) (size 9 to 14) (size 15 to 20)
#    0.000    1.241    4.138    0.828    5.793    2.207 
#    2.483    1.379    0.000    0.000    0.000    0.000 
#    0.000    0.000    0.000    0.000    0.000    0.000 
#
# Total GULP energy -323423.461846 kJ/mol
# GULP energy per Si atom -5576.266584 kJ/mol
# Density = 2.556349 g / cm^3
# Si number density = 25.621808 Si / 1000 Ang^3
#
#
#
# Elastic Constant Matrix: (Units=GPa)
#
#
# Indices 1 2 3 4 5 6 
#
# 1 94.0758 -2.5094 28.3360 0.0000 0.0000 6.9268
# 2 -2.5094 94.0758 28.3360 0.0000 0.0000 -6.9268
# 3 28.3360 28.3360 115.5081 0.0000 0.0000 0.0000
# 4 0.0000 0.0000 0.0000 191.3575 0.0000 0.0000
# 5 0.0000 0.0000 0.0000 0.0000 191.3575 0.0000
# 6 6.9268 -6.9268 0.0000 0.0000 0.0000 14.6605
#
#
#
# Elastic Compliance Matrix: (Units=1/GPa)
#
#
# Indices 1 2 3 4 5 6 
#
# 1 0.011991 0.000885 -0.003159 0.000000 0.000000 -0.005247
# 2 0.000885 0.011991 -0.003159 0.000000 0.000000 0.005247
# 3 -0.003159 -0.003159 0.010207 0.000000 0.000000 0.000000
# 4 0.000000 0.000000 0.000000 0.005226 0.000000 0.000000
# 5 0.000000 0.000000 0.000000 0.000000 0.005226 0.000000
# 6 -0.005247 0.005247 0.000000 0.000000 0.000000 0.073169
#
#
# Mechanical properties :
#
#
# Convention : Reuss Voigt Hill
#
# Bulk Modulus (GPa) = 42.87357 45.77611 44.32484
# Shear Modulus (GPa) = 36.64349 96.10823 66.37586
#
# Velocity S-wave (km/s) = 3.78586 6.13121 5.09532
# Velocity P-wave (km/s) = 5.98998 8.24786 7.20788
#
# Compressibility (1/GPa) = 0.02332439
#
# Stress axis : x y z
#
# Youngs Moduli (GPa) = 83.39510 83.39510 97.97039
#
# Poissons Ratio (x) = -0.07380 0.30946
# Poissons Ratio (y) = -0.07380 0.30946
# Poissons Ratio (z) = 0.26342 0.26342
#
# Static dielectric constant tensor:
#      x y z
#    x 3.388840 0.000000 0.000000 
#    y 0.000000 3.388840 0.000000 
#    z 0.000000 0.000000 2.385110 
# 
# From -- ./inp_files/1186.got.cif
#   From: 2010.05.17/outbox.cif.g08.bks.cpg/sg85_cif.got.tgz:1186.got - 2010.06.03 19:01:16.
