data_PCOD9544355
_publ_section_title
;
Structure prediction by ZEFSAII (Michael W. Deem and Ramdas Pophale) SiO2 
 PCOD9544355
Probable space group: P 42/M
;
_chemical_formula_sum "Si O2"
_cell_formula_units_Z 48
_cell_length_a 9.374825
_cell_length_b 9.374825
_cell_length_c 28.287313
_cell_angle_alpha 90.000000
_cell_angle_beta 90.000000
_cell_angle_gamma 90.000000
_cell_volume 2486.096802
_symmetry_space_group_name_H-M "P 42/M"
_symmetry_group_IT_number 84
_symmetry_cell_setting 'tetragonal'
loop_
_space_group_symop_operation_xyz
x,y,z
-y,x,1/2+z
-x,-y,z
y,-x,1/2+z
-x,-y,-z
y,-x,1/2-z
x,y,-z
-y,x,1/2-z
loop_
_atom_site_type_symbol
_atom_site_label
_atom_site_fract_x
_atom_site_fract_y
_atom_site_fract_z
Si Si1 0.671677 0.516790 0.399860
Si Si2 0.852502 0.300303 0.658843
Si Si3 0.652837 0.071872 0.500000
Si Si4 0.342805 0.316638 0.252379
Si Si5 0.029247 0.160095 0.092456
Si Si6 0.185549 0.249452 0.650832
Si Si7 0.648642 0.412803 0.500000
O O1 0.500000 0.500000 0.394093
O O2 0.761117 0.432278 0.360753
O O3 0.725482 0.675275 0.391120
O O4 0.718070 0.460450 0.451039
O O5 0.784691 0.281710 0.710818
O O6 0.823953 0.176587 0.620672
O O7 0.024897 0.310720 0.658601
O O8 0.736249 0.027994 0.547645
O O9 0.633579 0.243330 0.500000
O O10 0.500000 0.000000 0.500000
O O11 0.307185 0.484476 0.244580
O O12 0.273345 0.269825 0.301478
O O13 0.911684 0.177460 0.133294
O O14 0.000000 0.000000 0.074067
O O15 0.500000 0.500000 0.500000
#
# Coordination Sequence:
#
# PCOD9544355 Si02
#       7
#     8   8   4   8   8   8   4
#     4  11  22  42  68  94 135 167 211 272 323 384
#     4  11  23  44  65  92 130 173 221 269 321 392
#     4  12  25  41  71 100 130 174 222 264 325 393
#     4  11  24  41  63  92 130 172 214 274 333 380
#     4  10  25  46  66  93 135 176 216 272 325 384
#     4  11  25  42  66  95 127 174 223 265 326 389
#     4  10  24  41  66  99 133 169 210 267 325 378
#
# _framework density 19.307375
#
# number of rings (size 3 to 8) (size 9 to 14) (size 15 to 20)
#    0.000    1.167    3.333    1.750    7.000    1.333 
#    0.000    2.500    0.000    0.000    0.000    0.000 
#    0.000    0.000    0.000    0.000    0.000    0.000 
#
# Total GULP energy -267818.085792 kJ/mol
# GULP energy per Si atom -5579.543454 kJ/mol
# Density = 1.926343 g / cm^3
# Si number density = 19.307375 Si / 1000 Ang^3
#
#
#
# Elastic Constant Matrix: (Units=GPa)
#
#
# Indices 1 2 3 4 5 6 
#
# 1 74.5829 30.9411 42.7744 0.0000 0.0000 2.2307
# 2 30.9411 74.5829 42.7744 0.0000 0.0000 -2.2307
# 3 42.7744 42.7744 138.7675 0.0000 0.0000 0.0000
# 4 0.0000 0.0000 0.0000 77.8148 0.0000 0.0000
# 5 0.0000 0.0000 0.0000 0.0000 77.8148 0.0000
# 6 2.2307 -2.2307 0.0000 0.0000 0.0000 25.7250
#
#
#
# Elastic Compliance Matrix: (Units=1/GPa)
#
#
# Indices 1 2 3 4 5 6 
#
# 1 0.017876 -0.005243 -0.003894 0.000000 0.000000 -0.002005
# 2 -0.005243 0.017876 -0.003894 0.000000 0.000000 0.002005
# 3 -0.003894 -0.003894 0.009607 0.000000 0.000000 0.000000
# 4 0.000000 0.000000 0.000000 0.012851 0.000000 0.000000
# 5 0.000000 0.000000 0.000000 0.000000 0.012851 0.000000
# 6 -0.002005 0.002005 0.000000 0.000000 0.000000 0.039220
#
#
# Mechanical properties :
#
#
# Convention : Reuss Voigt Hill
#
# Bulk Modulus (GPa) = 51.82079 57.87923 54.85001
# Shear Modulus (GPa) = 35.01980 47.70049 41.36015
#
# Velocity S-wave (km/s) = 4.26350 4.97589 4.63341
# Velocity P-wave (km/s) = 7.15085 7.94075 7.55613
#
# Compressibility (1/GPa) = 0.01929728
#
# Stress axis : x y z
#
# Youngs Moduli (GPa) = 55.94040 55.94040 104.09020
#
# Poissons Ratio (x) = 0.29327 0.40535
# Poissons Ratio (y) = 0.29327 0.40535
# Poissons Ratio (z) = 0.21785 0.21785
#
# Static dielectric constant tensor:
#      x y z
#    x 1.664900 0.000000 0.000000 
#    y 0.000000 1.664900 0.000000 
#    z 0.000000 0.000000 1.668620 
# 
# From -- ./inp_files/5827.got.cif
#   From: 2010.05.17/outbox.cif.g08.bks.cpg/sg84_3_cif.got.tgz:5827.got - 2010.06.03 18:57:40.
