data_PCOD9544043
_publ_section_title
;
Structure prediction by ZEFSAII (Michael W. Deem and Ramdas Pophale) SiO2 
 PCOD9544043
Probable space group: P 42/M
;
_chemical_formula_sum "Si O2"
_cell_formula_units_Z 48
_cell_length_a 15.700609
_cell_length_b 15.700609
_cell_length_c 11.038528
_cell_angle_alpha 90.000000
_cell_angle_beta 90.000000
_cell_angle_gamma 90.000000
_cell_volume 2721.097856
_symmetry_space_group_name_H-M "P 42/M"
_symmetry_group_IT_number 84
_symmetry_cell_setting 'tetragonal'
loop_
_space_group_symop_operation_xyz
x,y,z
-y,x,1/2+z
-x,-y,z
y,-x,1/2+z
-x,-y,-z
y,-x,1/2-z
x,y,-z
-y,x,1/2-z
loop_
_atom_site_type_symbol
_atom_site_label
_atom_site_fract_x
_atom_site_fract_y
_atom_site_fract_z
Si Si1 0.134169 0.349427 0.758798
Si Si2 0.112463 0.524545 0.365505
Si Si3 0.292673 0.588883 0.704522
Si Si4 0.258410 0.218744 0.642486
Si Si5 0.949657 0.359358 0.142590
Si Si6 0.297034 0.437623 0.871300
O O1 0.115794 0.422909 0.658102
O O2 0.178027 0.263836 0.707103
O O3 0.206149 0.395135 0.840800
O O4 0.046725 0.333433 0.829998
O O5 0.077408 0.544499 0.500000
O O6 0.207520 0.562127 0.363834
O O7 0.071874 0.568949 0.245133
O O8 0.266920 0.658718 0.805502
O O9 0.322552 0.503684 0.769207
O O10 0.363827 0.633961 0.627444
O O11 0.249374 0.232032 0.500000
O O12 0.283198 0.119216 0.662145
O O13 0.940857 0.386620 0.000000
O O14 0.290395 0.482353 0.000000
#
# Coordination Sequence:
#
# PCOD9544043 Si02
#       6
#     8   8   8   8   8   8
#     4  10  20  32  53  79 101 133 172 208 256 310
#     4  10  20  33  51  78 111 140 170 211 256 303
#     4   9  19  32  48  72  98 133 175 212 254 301
#     4   9  18  34  53  74 103 135 166 207 257 309
#     4  10  21  36  55  80 108 137 173 214 255 303
#     4  10  19  33  50  67  95 132 172 216 258 304
#
# _framework density 17.639939999999999
#
# number of rings (size 3 to 8) (size 9 to 14) (size 15 to 20)
#    0.000    2.333    0.000    2.500    0.000    7.667 
#    0.000    4.167    0.000    0.500    0.000    2.333 
#    0.000    0.000    0.000    0.000    0.000    0.000 
#
# Total GULP energy -267290.950121 kJ/mol
# GULP energy per Si atom -5568.561461 kJ/mol
# Density = 1.759979 g / cm^3
# Si number density = 17.639940 Si / 1000 Ang^3
#
#
#
# Elastic Constant Matrix: (Units=GPa)
#
#
# Indices 1 2 3 4 5 6 
#
# 1 84.3129 44.9396 39.2966 0.0000 0.0000 0.4062
# 2 44.9396 84.3129 39.2966 0.0000 0.0000 -0.4062
# 3 39.2966 39.2966 113.6682 0.0000 0.0000 0.0000
# 4 0.0000 0.0000 0.0000 -11.5685 0.0000 0.0000
# 5 0.0000 0.0000 0.0000 0.0000 -11.5685 0.0000
# 6 0.4062 -0.4062 0.0000 0.0000 0.0000 23.9689
#
#
#
# Elastic Compliance Matrix: (Units=1/GPa)
#
#
# Indices 1 2 3 4 5 6 
#
# 1 0.017601 -0.007805 -0.003387 0.000000 0.000000 -0.000431
# 2 -0.007805 0.017601 -0.003387 0.000000 0.000000 0.000431
# 3 -0.003387 -0.003387 0.011139 0.000000 0.000000 0.000000
# 4 0.000000 0.000000 0.000000 -0.086442 0.000000 0.000000
# 5 0.000000 0.000000 0.000000 0.000000 -0.086442 0.000000
# 6 -0.000431 0.000431 0.000000 0.000000 0.000000 0.041735
#
#
# Mechanical properties :
#
#
# Convention : Reuss Voigt Hill
#
# Bulk Modulus (GPa) = 58.19110 58.81772 58.50441
# Shear Modulus (GPa) = -100.15946 10.75047 -44.70449
#
# Velocity S-wave (km/s) = -7.54342 2.47136 -5.03962
# Velocity P-wave (km/s) = 6.54302 6.44666 0.79110
#
# Compressibility (1/GPa) = 0.01718476
#
# Stress axis : x y z
#
# Youngs Moduli (GPa) = 56.81360 56.81360 89.77358
#
# Poissons Ratio (x) = 0.44345 0.30403
# Poissons Ratio (y) = 0.44345 0.30403
# Poissons Ratio (z) = 0.19241 0.19241
#
# Static dielectric constant tensor:
#      x y z
#    x 1.600790 0.000000 0.000000 
#    y 0.000000 1.600790 0.000000 
#    z 0.000000 0.000000 1.629360 
# 
# From -- ./inp_files/2169.got.cif
#   From: 2010.05.17/outbox.cif.g08.bks.cpg/sg84_2_cif.got.tgz:2169.got - 2010.06.03 18:57:40.
