data_PCOD9544307
_publ_section_title
;
Structure prediction by ZEFSAII (Michael W. Deem and Ramdas Pophale) SiO2 
 PCOD9544307
Probable space group: P 42/M
;
_chemical_formula_sum "Si O2"
_cell_formula_units_Z 40
_cell_length_a 14.345237
_cell_length_b 14.345237
_cell_length_c 8.406301
_cell_angle_alpha 90.000000
_cell_angle_beta 90.000000
_cell_angle_gamma 90.000000
_cell_volume 1729.897583
_symmetry_space_group_name_H-M "P 42/M"
_symmetry_group_IT_number 84
_symmetry_cell_setting 'tetragonal'
loop_
_space_group_symop_operation_xyz
x,y,z
-y,x,1/2+z
-x,-y,z
y,-x,1/2+z
-x,-y,-z
y,-x,1/2-z
x,y,-z
-y,x,1/2-z
loop_
_atom_site_type_symbol
_atom_site_label
_atom_site_fract_x
_atom_site_fract_y
_atom_site_fract_z
Si Si1 0.890909 0.519574 0.322319
Si Si2 0.676189 0.207960 0.682548
Si Si3 0.144822 0.029436 0.690792
Si Si4 0.367375 0.441775 0.310479
Si Si5 0.316479 0.146878 0.688227
O O1 0.852084 0.534491 0.500000
O O2 0.883245 0.619455 0.233133
O O3 0.850081 0.420382 0.259993
O O4 0.000000 0.500000 0.329066
O O5 0.704636 0.203006 0.500000
O O6 0.590626 0.277343 0.717799
O O7 0.760299 0.255086 0.778072
O O8 0.146101 0.018779 0.500000
O O9 0.246024 0.065145 0.745878
O O10 0.066740 0.107317 0.734693
O O11 0.386567 0.548544 0.271582
O O12 0.366097 0.425534 0.500000
O O13 0.328240 0.136589 0.500000
#
# Coordination Sequence:
#
# PCOD9544307 Si02
#       5
#     8   8   8   8   8
#     4  11  26  47  70  99 137 180 227 284 348 414
#     4  12  25  42  65  92 127 172 220 272 330 398
#     4  10  22  40  66  98 134 173 221 280 341 406
#     4  11  21  36  58  86 121 158 204 259 318 380
#     4  11  25  44  68 101 137 180 231 283 342 412
#
# _framework density 23.122757
#
# number of rings (size 3 to 8) (size 9 to 14) (size 15 to 20)
#    0.000    1.000    0.000    7.800    2.800    4.800 
#    0.000    0.000    0.000    0.000    0.000    0.000 
#    0.000    0.000    0.000    0.000    0.000    0.000 
#
# Total GULP energy -223492.737501 kJ/mol
# GULP energy per Si atom -5587.318438 kJ/mol
# Density = 2.307013 g / cm^3
# Si number density = 23.122757 Si / 1000 Ang^3
#
#
#
# Elastic Constant Matrix: (Units=GPa)
#
#
# Indices 1 2 3 4 5 6 
#
# 1 77.2193 28.2859 -2.3418 0.0000 0.0000 8.4699
# 2 28.2859 77.2193 -2.3418 0.0000 0.0000 -8.4699
# 3 -2.3418 -2.3418 51.3727 0.0000 0.0000 0.0000
# 4 0.0000 0.0000 0.0000 -44.6884 0.0000 0.0000
# 5 0.0000 0.0000 0.0000 0.0000 -44.6884 0.0000
# 6 8.4699 -8.4699 0.0000 0.0000 0.0000 48.6947
#
#
#
# Elastic Compliance Matrix: (Units=1/GPa)
#
#
# Indices 1 2 3 4 5 6 
#
# 1 0.015621 -0.006124 0.000433 0.000000 0.000000 -0.003782
# 2 -0.006124 0.015621 0.000433 0.000000 0.000000 0.003782
# 3 0.000433 0.000433 0.019505 0.000000 0.000000 0.000000
# 4 0.000000 0.000000 0.000000 -0.022377 0.000000 0.000000
# 5 0.000000 0.000000 0.000000 0.000000 -0.022377 0.000000
# 6 -0.003782 0.003782 0.000000 0.000000 0.000000 0.021852
#
#
# Mechanical properties :
#
#
# Convention : Reuss Voigt Hill
#
# Bulk Modulus (GPa) = 24.85603 28.11287 26.48445
# Shear Modulus (GPa) = 96.57731 4.01087 50.29409
#
# Velocity S-wave (km/s) = 6.46977 1.31847 4.66885
# Velocity P-wave (km/s) = 8.15987 3.80819 6.36733
#
# Compressibility (1/GPa) = 0.04023169
#
# Stress axis : x y z
#
# Youngs Moduli (GPa) = 64.01490 64.01490 51.26871
#
# Poissons Ratio (x) = 0.39202 -0.02220
# Poissons Ratio (y) = 0.39202 -0.02220
# Poissons Ratio (z) = -0.02771 -0.02771
#
# Static dielectric constant tensor:
#      x y z
#    x 2.000450 0.000000 0.000000 
#    y 0.000000 2.000450 0.000000 
#    z 0.000000 0.000000 1.775680 
# 
# From -- ./inp_files/770.got.cif
#   From: 2010.05.17/outbox.cif.g08.bks.cpg/sg84_1_cif.got.tgz:770.got - 2010.06.03 18:57:40.
