data_PCOD9544887
_publ_section_title
;
Structure prediction by ZEFSAII (Michael W. Deem and Ramdas Pophale) SiO2 
 PCOD9544887
Probable space group: P 42/N
;
_chemical_formula_sum "Si O2"
_cell_formula_units_Z 38
_cell_length_a 13.683919
_cell_length_b 13.683919
_cell_length_c 10.164992
_cell_angle_alpha 90.000000
_cell_angle_beta 90.000000
_cell_angle_gamma 90.000000
_cell_volume 1903.391084
_symmetry_space_group_name_H-M "P 42/N"
_symmetry_group_IT_number 86
_space_group.IT_coordinate_system_code '2'
_symmetry_cell_setting 'tetragonal'
loop_
_space_group_symop_operation_xyz
x,y,z
-y,1/2+x,1/2+z
1/2-x,1/2-y,z
1/2+y,-x,1/2+z
-x,-y,-z
y,1/2-x,1/2-z
1/2+x,1/2+y,-z
1/2-y,x,1/2-z
loop_
_atom_site_type_symbol
_atom_site_label
_atom_site_fract_x
_atom_site_fract_y
_atom_site_fract_z
Si Si1 0.250000 0.750000 0.263213
Si Si2 0.250000 0.250000 0.750000
Si Si3 0.900053 0.454547 0.552036
Si Si4 0.774880 0.431718 0.088868
Si Si5 0.417839 0.612611 0.653724
Si Si6 0.738027 0.540167 0.357971
O O1 0.326318 0.691290 0.354389
O O2 0.314626 0.824790 0.179793
O O3 0.344353 0.239786 0.843074
O O4 0.911179 0.336678 0.542727
O O5 0.889197 0.473858 0.708291
O O6 0.811436 0.497090 0.466657
O O7 0.000000 0.500000 0.500000
O O8 0.841536 0.469046 0.971668
O O9 0.771601 0.501924 0.213833
O O10 0.368556 0.508340 0.625078
#
# Coordination Sequence:
#
# PCOD9544887 Si02
#       6
#     4   2   8   8   8   8
#     4   8  14  26  50  84 118 136 152 198 278 346
#     4  12  24  44  56  70 104 164 212 218 248 336
#     4  10  20  35  53  79 114 149 180 221 280 337
#     4  10  18  32  57  89 112 134 173 229 286 337
#     4  10  18  32  57  87 112 134 173 234 293 331
#     4  10  21  36  58  78 109 153 189 225 269 333
#
# _framework density 19.964368
#
# number of rings (size 3 to 8) (size 9 to 14) (size 15 to 20)
#    0.000    2.526    0.000    8.211    0.000    0.000 
#    0.000    6.316    0.000    1.263    0.000    0.000 
#    0.000    0.000    0.000    0.000    0.000    0.000 
#
# Total GULP energy -212099.567980 kJ/mol
# GULP energy per Si atom -5581.567578 kJ/mol
# Density = 1.991893 g / cm^3
# Si number density = 19.964368 Si / 1000 Ang^3
#
#
#
# Elastic Constant Matrix: (Units=GPa)
#
#
# Indices 1 2 3 4 5 6 
#
# 1 81.2499 7.1877 18.2929 0.0000 0.0000 -5.3487
# 2 7.1877 81.2499 18.2929 0.0000 0.0000 5.3487
# 3 18.2929 18.2929 78.4196 0.0000 0.0000 0.0000
# 4 0.0000 0.0000 0.0000 9.8006 0.0000 0.0000
# 5 0.0000 0.0000 0.0000 0.0000 9.8006 0.0000
# 6 -5.3487 5.3487 0.0000 0.0000 0.0000 14.1176
#
#
#
# Elastic Compliance Matrix: (Units=1/GPa)
#
#
# Indices 1 2 3 4 5 6 
#
# 1 0.013399 -0.000884 -0.002919 0.000000 0.000000 0.005412
# 2 -0.000884 0.013399 -0.002919 0.000000 0.000000 -0.005412
# 3 -0.002919 -0.002919 0.014114 0.000000 0.000000 0.000000
# 4 0.000000 0.000000 0.000000 0.102034 0.000000 0.000000
# 5 0.000000 0.000000 0.000000 0.000000 0.102034 0.000000
# 6 0.005412 -0.005412 0.000000 0.000000 0.000000 0.074934
#
#
# Mechanical properties :
#
#
# Convention : Reuss Voigt Hill
#
# Bulk Modulus (GPa) = 36.40785 36.49626 36.45206
# Shear Modulus (GPa) = 14.59778 19.88682 17.24230
#
# Velocity S-wave (km/s) = 2.70699 3.15955 2.94199
# Velocity P-wave (km/s) = 5.29588 5.62412 5.46247
#
# Compressibility (1/GPa) = 0.02746660
#
# Stress axis : x y z
#
# Youngs Moduli (GPa) = 74.62975 74.62975 70.85197
#
# Poissons Ratio (x) = 0.06600 0.20685
# Poissons Ratio (y) = 0.06600 0.20685
# Poissons Ratio (z) = 0.21787 0.21787
#
# Static dielectric constant tensor:
#      x y z
#    x 1.730140 0.000000 0.000000 
#    y 0.000000 1.730140 0.000000 
#    z 0.000000 0.000000 1.754450 
# 
# From -- ./inp_files/2151.got.cif
#   From: 2010.05.17/outbox.cif.g08.bks.cpg/sg86_2_cif.got.tgz:2151.got - 2010.06.03 19:03:11.
