data_PCOD9544532
_publ_section_title
;
Structure prediction by ZEFSAII (Michael W. Deem and Ramdas Pophale) SiO2 
 PCOD9544532
Probable space group: P 4/N
;
_chemical_formula_sum "Si O2"
_cell_formula_units_Z 64
_cell_length_a 16.788928
_cell_length_b 16.788928
_cell_length_c 12.293798
_cell_angle_alpha 90.000000
_cell_angle_beta 90.000000
_cell_angle_gamma 90.000000
_cell_volume 3465.229526
_symmetry_space_group_name_H-M "P 4/N"
_symmetry_group_IT_number 85
_symmetry_cell_setting 'tetragonal'
loop_
_space_group_symop_operation_xyz
x,y,z
1/2-y,x,z
1/2-x,1/2-y,z
y,1/2-x,z
-x,-y,-z
1/2+y,-x,-z
1/2+x,1/2+y,-z
-y,1/2+x,-z
loop_
_atom_site_type_symbol
_atom_site_label
_atom_site_fract_x
_atom_site_fract_y
_atom_site_fract_z
Si Si1 0.608520 0.992132 0.947888
Si Si2 0.314345 0.533219 0.686855
Si Si3 0.826715 0.141968 0.511517
Si Si4 0.840479 0.158137 0.972183
Si Si5 0.270372 0.118959 0.985423
Si Si6 0.648028 0.097405 0.257896
Si Si7 0.969877 0.534430 0.177968
Si Si8 0.118484 0.246387 0.730001
O O1 0.696493 0.954549 0.945825
O O2 0.548942 0.982061 0.847488
O O3 0.615680 0.086882 0.966291
O O4 0.568233 0.954878 0.057187
O O5 0.347429 0.580533 0.584008
O O6 0.244440 0.585968 0.741328
O O7 0.385040 0.498540 0.762418
O O8 0.260229 0.457011 0.655470
O O9 0.730900 0.145404 0.520129
O O10 0.624196 0.135854 0.371778
O O11 0.848329 0.131821 0.847094
O O12 0.752815 0.143906 0.017341
O O13 0.336892 0.187351 0.005689
O O14 0.404733 0.262670 0.857786
O O15 0.597477 0.016224 0.240503
O O16 0.175796 0.172420 0.713247
#
# Coordination Sequence:
#
# PCOD9544532 Si02
#       8
#     8   8   8   8   8   8   8   8
#     4  10  20  33  47  73 111 141 169 213 270 313
#     4  11  19  33  55  75 102 140 177 219 268 312
#     4   9  21  38  56  75  99 139 182 219 261 312
#     4  10  21  34  53  79 106 141 179 211 253 316
#     4   9  17  29  47  70  99 139 179 211 253 316
#     4  10  21  37  53  76 109 136 171 222 263 309
#     4  10  21  32  49  77 105 137 174 214 264 321
#     4   9  16  27  48  78 105 131 167 213 266 317
#
# _framework density 18.469194999999999
#
# number of rings (size 3 to 8) (size 9 to 14) (size 15 to 20)
#    0.000    2.250    0.000    5.250    0.000    8.500 
#    0.000    0.000    0.000    0.000    0.000    0.000 
#    0.000    2.000    0.000    0.000    0.000    0.000 
#
# Total GULP energy -356547.055311 kJ/mol
# GULP energy per Si atom -5571.047739 kJ/mol
# Density = 1.842716 g / cm^3
# Si number density = 18.469195 Si / 1000 Ang^3
#
#
#
# Elastic Constant Matrix: (Units=GPa)
#
#
# Indices 1 2 3 4 5 6 
#
# 1 63.5456 25.7508 36.9766 0.0000 0.0000 -3.3987
# 2 25.7508 63.5456 36.9766 0.0000 0.0000 3.3987
# 3 36.9766 36.9766 68.6348 0.0000 0.0000 0.0000
# 4 0.0000 0.0000 0.0000 25.8172 0.0000 0.0000
# 5 0.0000 0.0000 0.0000 0.0000 25.8172 0.0000
# 6 -3.3987 3.3987 0.0000 0.0000 0.0000 32.2735
#
#
#
# Elastic Compliance Matrix: (Units=1/GPa)
#
#
# Indices 1 2 3 4 5 6 
#
# 1 0.023595 -0.003374 -0.010894 0.000000 0.000000 0.002840
# 2 -0.003374 0.023595 -0.010894 0.000000 0.000000 -0.002840
# 3 -0.010894 -0.010894 0.026308 0.000000 0.000000 0.000000
# 4 0.000000 0.000000 0.000000 0.038734 0.000000 0.000000
# 5 0.000000 0.000000 0.000000 0.000000 0.038734 0.000000
# 6 0.002840 -0.002840 0.000000 0.000000 0.000000 0.031583
#
#
# Mechanical properties :
#
#
# Convention : Reuss Voigt Hill
#
# Bulk Modulus (GPa) = 43.15177 43.90376 43.52776
# Shear Modulus (GPa) = 20.78162 23.18303 21.98232
#
# Velocity S-wave (km/s) = 3.35805 3.54676 3.45369
# Velocity P-wave (km/s) = 6.20082 6.37147 6.28673
#
# Compressibility (1/GPa) = 0.02317402
#
# Stress axis : x y z
#
# Youngs Moduli (GPa) = 42.38184 42.38184 38.01174
#
# Poissons Ratio (x) = 0.14302 0.41409
# Poissons Ratio (y) = 0.14302 0.41409
# Poissons Ratio (z) = 0.46169 0.46169
#
# Static dielectric constant tensor:
#      x y z
#    x 1.691340 0.000000 0.000000 
#    y 0.000000 1.691340 0.000000 
#    z 0.000000 0.000000 1.604030 
# 
# From -- ./inp_files/1849.got.cif
#   From: 2010.05.17/outbox.cif.g08.bks.cpg/sg85_cif.got.tgz:1849.got - 2010.06.03 19:01:16.
