data_PCOD9544164
_publ_section_title
;
Structure prediction by ZEFSAII (Michael W. Deem and Ramdas Pophale) SiO2 
 PCOD9544164
Probable space group: P 42/M
;
_chemical_formula_sum "Si O2"
_cell_formula_units_Z 48
_cell_length_a 9.046910
_cell_length_b 9.046910
_cell_length_c 28.870204
_cell_angle_alpha 90.000000
_cell_angle_beta 90.000000
_cell_angle_gamma 90.000000
_cell_volume 2362.927477
_symmetry_space_group_name_H-M "P 42/M"
_symmetry_group_IT_number 84
_symmetry_cell_setting 'tetragonal'
loop_
_space_group_symop_operation_xyz
x,y,z
-y,x,1/2+z
-x,-y,z
y,-x,1/2+z
-x,-y,-z
y,-x,1/2-z
x,y,-z
-y,x,1/2-z
loop_
_atom_site_type_symbol
_atom_site_label
_atom_site_fract_x
_atom_site_fract_y
_atom_site_fract_z
Si Si1 0.565566 0.664472 0.859025
Si Si2 0.785386 0.672498 0.299689
Si Si3 0.167541 0.442220 0.448618
Si Si4 0.122859 0.193484 0.143134
Si Si5 0.335039 0.033528 0.727653
Si Si6 0.141766 0.171924 0.391460
O O1 0.500000 0.500000 0.860802
O O2 0.491384 0.733342 0.812466
O O3 0.517872 0.745011 0.906721
O O4 0.740867 0.694369 0.856833
O O5 0.945708 0.672857 0.275943
O O6 0.776550 0.742553 0.350526
O O7 0.692172 0.791380 0.270399
O O8 0.227744 0.470048 0.500000
O O9 0.156513 0.268400 0.437005
O O10 0.000000 0.500000 0.446696
O O11 0.040638 0.214770 0.192801
O O12 0.989276 0.213522 0.106631
O O13 0.169570 0.026729 0.128704
O O14 0.500000 0.000000 0.709085
#
# Coordination Sequence:
#
# PCOD9544164 Si02
#       6
#     8   8   8   8   8   8
#     4  11  23  40  62  88 124 167 204 254 319 385
#     4  10  23  36  57  82 113 161 203 250 310 350
#     4  10  20  38  65  94 122 154 201 255 315 384
#     4  10  20  37  59  84 118 158 208 251 306 371
#     4  11  23  37  54  82 118 158 204 258 297 360
#     4   9  19  37  61  85 113 155 200 252 308 367
#
# _framework density 20.313784999999999
#
# number of rings (size 3 to 8) (size 9 to 14) (size 15 to 20)
#    0.000    1.833    1.667    2.000    4.667    2.000 
#    0.000    2.500    0.000    1.000    0.000    0.000 
#    0.000    0.000    0.000    0.000    0.000    0.000 
#
# Total GULP energy -267343.528048 kJ/mol
# GULP energy per Si atom -5569.656834 kJ/mol
# Density = 2.026755 g / cm^3
# Si number density = 20.313785 Si / 1000 Ang^3
#
#
#
# Elastic Constant Matrix: (Units=GPa)
#
#
# Indices 1 2 3 4 5 6 
#
# 1 93.6832 22.6745 28.7046 0.0000 0.0000 15.3611
# 2 22.6745 93.6832 28.7046 0.0000 0.0000 -15.3611
# 3 28.7046 28.7046 96.6525 0.0000 0.0000 0.0000
# 4 0.0000 0.0000 0.0000 -12.9254 0.0000 0.0000
# 5 0.0000 0.0000 0.0000 0.0000 -12.9254 0.0000
# 6 15.3611 -15.3611 0.0000 0.0000 0.0000 25.7446
#
#
#
# Elastic Compliance Matrix: (Units=1/GPa)
#
#
# Indices 1 2 3 4 5 6 
#
# 1 0.014527 -0.004457 -0.002991 0.000000 0.000000 -0.011327
# 2 -0.004457 0.014527 -0.002991 0.000000 0.000000 0.011327
# 3 -0.002991 -0.002991 0.012123 0.000000 0.000000 0.000000
# 4 0.000000 0.000000 0.000000 -0.077367 0.000000 0.000000
# 5 0.000000 0.000000 0.000000 0.000000 -0.077367 0.000000
# 6 -0.011327 0.011327 0.000000 0.000000 0.000000 0.052360
#
#
# Mechanical properties :
#
#
# Convention : Reuss Voigt Hill
#
# Bulk Modulus (GPa) = 49.26166 49.35403 49.30785
# Shear Modulus (GPa) = -149.00835 13.57442 -67.71697
#
# Velocity S-wave (km/s) = -8.57395 2.58783 -5.77995
# Velocity P-wave (km/s) = 8.58567 5.76869 4.49644
#
# Compressibility (1/GPa) = 0.02029976
#
# Stress axis : x y z
#
# Youngs Moduli (GPa) = 68.83940 68.83940 82.49002
#
# Poissons Ratio (x) = 0.30681 0.24669
# Poissons Ratio (y) = 0.30681 0.24669
# Poissons Ratio (z) = 0.20587 0.20587
#
# Static dielectric constant tensor:
#      x y z
#    x 1.794500 0.000000 0.000000 
#    y 0.000000 1.794500 0.000000 
#    z 0.000000 0.000000 1.716670 
# 
# From -- ./inp_files/5785.got.cif
#   From: 2010.05.17/outbox.cif.g08.bks.cpg/sg84_3_cif.got.tgz:5785.got - 2010.06.03 18:57:40.
