data_PCOD9544439
_publ_section_title
;
Structure prediction by ZEFSAII (Michael W. Deem and Ramdas Pophale) SiO2 
 PCOD9544439
Probable space group: P 42/M
;
_chemical_formula_sum "Si O2"
_cell_formula_units_Z 18
_cell_length_a 5.011416
_cell_length_b 5.011416
_cell_length_c 31.170863
_cell_angle_alpha 90.000000
_cell_angle_beta 90.000000
_cell_angle_gamma 90.000000
_cell_volume 782.834103
_symmetry_space_group_name_H-M "P 42/M"
_symmetry_group_IT_number 84
_symmetry_cell_setting 'tetragonal'
loop_
_space_group_symop_operation_xyz
x,y,z
-y,x,1/2+z
-x,-y,z
y,-x,1/2+z
-x,-y,-z
y,-x,1/2-z
x,y,-z
-y,x,1/2-z
loop_
_atom_site_type_symbol
_atom_site_label
_atom_site_fract_x
_atom_site_fract_y
_atom_site_fract_z
Si Si1 0.811337 0.247263 0.000000
Si Si2 0.000000 0.500000 0.422749
Si Si3 0.500000 0.000000 0.691304
Si Si4 0.500000 0.500000 0.133608
Si Si5 0.000000 0.000000 0.750000
O O1 0.650361 0.196669 0.043474
O O2 0.000000 0.500000 0.000000
O O3 0.000000 0.000000 0.000000
O O4 0.763071 0.392433 0.392153
O O5 0.587524 0.750505 0.662183
O O6 0.749500 0.080346 0.720721
#
# Coordination Sequence:
#
# PCOD9544439 Si02
#       5
#     4   4   4   4   2
#     4  11  24  43  70  95 135 198 238 293 354 419
#     4  11  26  43  66 103 142 184 244 295 352 425
#     4  12  26  45  74 104 138 184 228 286 362 421
#     4  12  26  44  70 106 142 180 232 298 356 418
#     4  12  24  48  72 100 140 178 232 280 344 456
#
# _framework density 22.993378
#
# number of rings (size 3 to 8) (size 9 to 14) (size 15 to 20)
#    0.000    0.444    0.000    8.000    9.333    3.556 
#    0.000    0.000    0.000    0.000    0.000    0.000 
#    0.000    0.000    0.000    0.000    0.000    0.000 
#
# Total GULP energy -100413.154361 kJ/mol
# GULP energy per Si atom -5578.508576 kJ/mol
# Density = 2.294104 g / cm^3
# Si number density = 22.993378 Si / 1000 Ang^3
#
#
#
# Elastic Constant Matrix: (Units=GPa)
#
#
# Indices 1 2 3 4 5 6 
#
# 1 127.0252 0.9762 30.4388 0.0000 0.0000 -5.4817
# 2 0.9762 127.0252 30.4388 0.0000 0.0000 5.4817
# 3 30.4388 30.4388 91.2513 0.0000 0.0000 0.0000
# 4 0.0000 0.0000 0.0000 38.9089 0.0000 0.0000
# 5 0.0000 0.0000 0.0000 0.0000 38.9089 0.0000
# 6 -5.4817 5.4817 0.0000 0.0000 0.0000 47.8223
#
#
#
# Elastic Compliance Matrix: (Units=1/GPa)
#
#
# Indices 1 2 3 4 5 6 
#
# 1 0.008649 0.000636 -0.003097 0.000000 0.000000 0.000919
# 2 0.000636 0.008649 -0.003097 0.000000 0.000000 -0.000919
# 3 -0.003097 -0.003097 0.013025 0.000000 0.000000 0.000000
# 4 0.000000 0.000000 0.000000 0.025701 0.000000 0.000000
# 5 0.000000 0.000000 0.000000 0.000000 0.025701 0.000000
# 6 0.000919 -0.000919 0.000000 0.000000 0.000000 0.021121
#
#
# Mechanical properties :
#
#
# Convention : Reuss Voigt Hill
#
# Bulk Modulus (GPa) = 52.06524 52.11213 52.08869
# Shear Modulus (GPa) = 41.53964 44.02456 42.78210
#
# Velocity S-wave (km/s) = 4.25501 4.38043 4.31818
# Velocity P-wave (km/s) = 6.84346 6.94964 6.89675
#
# Compressibility (1/GPa) = 0.01920667
#
# Stress axis : x y z
#
# Youngs Moduli (GPa) = 115.61466 115.61466 76.77459
#
# Poissons Ratio (x) = -0.07354 0.23780
# Poissons Ratio (y) = -0.07354 0.23780
# Poissons Ratio (z) = 0.35810 0.35810
#
# Static dielectric constant tensor:
#      x y z
#    x 1.863450 0.000000 0.000000 
#    y 0.000000 1.863450 0.000000 
#    z 0.000000 0.000000 1.667750 
# 
# From -- ./inp_files/4647.got.cif
#   From: 2010.05.17/outbox.cif.g08.bks.cpg/sg84_3_cif.got.tgz:4647.got - 2010.06.03 18:57:40.
