data_PCOD9544764
_publ_section_title
;
Structure prediction by ZEFSAII (Michael W. Deem and Ramdas Pophale) SiO2 
 PCOD9544764
Probable space group: P 4/N
;
_chemical_formula_sum "Si O2"
_cell_formula_units_Z 50
_cell_length_a 8.448610
_cell_length_b 8.448610
_cell_length_c 33.553405
_cell_angle_alpha 90.000000
_cell_angle_beta 90.000000
_cell_angle_gamma 90.000000
_cell_volume 2395.008862
_symmetry_space_group_name_H-M "P 4/N"
_symmetry_group_IT_number 85
_symmetry_cell_setting 'tetragonal'
loop_
_space_group_symop_operation_xyz
x,y,z
1/2-y,x,z
1/2-x,1/2-y,z
y,1/2-x,z
-x,-y,-z
1/2+y,-x,-z
1/2+x,1/2+y,-z
-y,1/2+x,-z
loop_
_atom_site_type_symbol
_atom_site_label
_atom_site_fract_x
_atom_site_fract_y
_atom_site_fract_z
Si Si1 0.996468 0.168495 0.310330
Si Si2 0.913236 0.538765 0.541567
Si Si3 0.829666 0.004888 0.062286
Si Si4 0.250000 0.750000 0.000000
Si Si5 0.490749 0.145623 0.618709
Si Si6 0.169835 0.995247 0.847759
Si Si7 0.170026 0.505816 0.222607
O O1 0.153186 0.059304 0.311844
O O2 0.921454 0.143871 0.266654
O O3 0.899117 0.120738 0.348763
O O4 0.961240 0.722928 0.546182
O O5 0.000000 0.500000 0.500000
O O6 0.964242 0.410189 0.574438
O O7 0.649267 0.940342 0.058447
O O8 0.850902 0.068210 0.107291
O O9 0.850945 0.136820 0.028917
O O10 0.449821 0.327910 0.624804
O O11 0.348337 0.059547 0.844176
O O12 0.118906 0.877301 0.813247
O O13 0.059835 0.348597 0.220117
#
# Coordination Sequence:
#
# PCOD9544764 Si02
#       7
#     8   8   8   2   8   8   8
#     4   9  19  37  58  80 109 145 183 225 276 329
#     4  11  24  41  62  88 116 148 189 235 282 334
#     4   9  20  37  53  76 110 141 175 223 274 324
#     4  12  20  32  60  84 100 140 188 224 268 328
#     4  11  24  39  56  83 117 150 188 233 277 328
#     4   9  19  35  53  74 105 143 178 216 266 324
#     4   9  19  35  55  81 111 140 177 227 274 321
#
# _framework density 20.876747000000002
#
# number of rings (size 3 to 8) (size 9 to 14) (size 15 to 20)
#    0.000    2.240    0.000    4.320    0.000   11.200 
#    0.000    4.800    0.000    1.920    0.000    0.000 
#    0.000    0.000    0.000    0.000    0.000    0.000 
#
# Total GULP energy -279219.042466 kJ/mol
# GULP energy per Si atom -5584.380849 kJ/mol
# Density = 2.082923 g / cm^3
# Si number density = 20.876747 Si / 1000 Ang^3
#
#
#
# Elastic Constant Matrix: (Units=GPa)
#
#
# Indices 1 2 3 4 5 6 
#
# 1 21.3487 25.3967 26.2620 0.0000 0.0000 -4.8624
# 2 25.3967 21.3487 26.2620 0.0000 0.0000 4.8624
# 3 26.2620 26.2620 144.4541 0.0000 0.0000 0.0000
# 4 0.0000 0.0000 0.0000 12.9067 0.0000 0.0000
# 5 0.0000 0.0000 0.0000 0.0000 12.9067 0.0000
# 6 -4.8624 4.8624 0.0000 0.0000 0.0000 29.3586
#
#
#
# Elastic Compliance Matrix: (Units=1/GPa)
#
#
# Indices 1 2 3 4 5 6 
#
# 1 -0.074918 0.101802 -0.004888 0.000000 0.000000 -0.029268
# 2 0.101802 -0.074918 -0.004888 0.000000 0.000000 0.029268
# 3 -0.004888 -0.004888 0.008700 0.000000 0.000000 0.000000
# 4 0.000000 0.000000 0.000000 0.077479 0.000000 0.000000
# 5 0.000000 0.000000 0.000000 0.000000 0.077479 0.000000
# 6 -0.029268 0.029268 0.000000 0.000000 0.000000 0.024367
#
#
# Mechanical properties :
#
#
# Convention : Reuss Voigt Hill
#
# Bulk Modulus (GPa) = 23.30029 38.11031 30.70530
# Shear Modulus (GPa) = -38.00535 18.31646 -9.84445
#
# Velocity S-wave (km/s) = -4.27132 2.96524 -2.17388
# Velocity P-wave (km/s) = 3.62497 5.47888 2.90497
#
# Compressibility (1/GPa) = 0.04291791
#
# Stress axis : x y z
#
# Youngs Moduli (GPa) = -13.34789 -13.34789 114.94566
#
# Poissons Ratio (x) = 1.35885 0.56181
# Poissons Ratio (y) = 1.35885 0.56181
# Poissons Ratio (z) = -0.06524 -0.06524
#
# Static dielectric constant tensor:
#      x y z
#    x 1.765960 0.000000 0.000000 
#    y 0.000000 1.765960 0.000000 
#    z 0.000000 0.000000 1.740820 
# 
# From -- ./inp_files/2481.got.cif
#   From: 2010.05.17/outbox.cif.g08.bks.cpg/sg85_cif.got.tgz:2481.got - 2010.06.03 19:01:16.
