data_PCOD9544525
_publ_section_title
;
Structure prediction by ZEFSAII (Michael W. Deem and Ramdas Pophale) SiO2 
 PCOD9544525
Probable space group: P 4/N
;
_chemical_formula_sum "Si O2"
_cell_formula_units_Z 24
_cell_length_a 13.352126
_cell_length_b 13.352126
_cell_length_c 5.058665
_cell_angle_alpha 90.000000
_cell_angle_beta 90.000000
_cell_angle_gamma 90.000000
_cell_volume 901.855097
_symmetry_space_group_name_H-M "P 4/N"
_symmetry_group_IT_number 85
_symmetry_cell_setting 'tetragonal'
loop_
_space_group_symop_operation_xyz
x,y,z
1/2-y,x,z
1/2-x,1/2-y,z
y,1/2-x,z
-x,-y,-z
1/2+y,-x,-z
1/2+x,1/2+y,-z
-y,1/2+x,-z
loop_
_atom_site_type_symbol
_atom_site_label
_atom_site_fract_x
_atom_site_fract_y
_atom_site_fract_z
Si Si1 0.808017 0.108241 0.524761
Si Si2 0.863955 0.492235 0.783595
Si Si3 0.352602 0.116962 0.723298
O O1 0.710361 0.144297 0.357530
O O2 0.895766 0.075960 0.327816
O O3 0.752927 0.042131 0.742855
O O4 0.889279 0.535585 0.065582
O O5 0.875481 0.580389 0.571136
O O6 0.384127 0.231403 0.759010
#
# Coordination Sequence:
#
# PCOD9544525 Si02
#       3
#     8   8   8
#     4   7  16  38  61  88 115 148 172 229 294 351
#     4  10  19  39  62  86 110 150 188 229 283 344
#     4  11  24  40  57  78 114 160 195 230 274 327
#
# _framework density 26.611813999999999
#
# number of rings (size 3 to 8) (size 9 to 14) (size 15 to 20)
#    2.000    0.667    0.000    2.000    0.000    5.333 
#    0.000   13.333    0.000    0.000    0.000    0.000 
#    0.000    0.000    0.000    0.000    0.000    0.000 
#
# Total GULP energy -134077.788609 kJ/mol
# GULP energy per Si atom -5586.574525 kJ/mol
# Density = 2.655124 g / cm^3
# Si number density = 26.611814 Si / 1000 Ang^3
#
#
#
# Elastic Constant Matrix: (Units=GPa)
#
#
# Indices 1 2 3 4 5 6 
#
# 1 99.3339 21.0646 18.3356 0.0000 0.0000 2.4153
# 2 21.0646 99.3339 18.3356 0.0000 0.0000 -2.4153
# 3 18.3356 18.3356 73.6149 0.0000 0.0000 0.0000
# 4 0.0000 0.0000 0.0000 27.4863 0.0000 0.0000
# 5 0.0000 0.0000 0.0000 0.0000 27.4863 0.0000
# 6 2.4153 -2.4153 0.0000 0.0000 0.0000 51.8946
#
#
#
# Elastic Compliance Matrix: (Units=1/GPa)
#
#
# Indices 1 2 3 4 5 6 
#
# 1 0.010900 -0.001913 -0.002239 0.000000 0.000000 -0.000596
# 2 -0.001913 0.010900 -0.002239 0.000000 0.000000 0.000596
# 3 -0.002239 -0.002239 0.014699 0.000000 0.000000 0.000000
# 4 0.000000 0.000000 0.000000 0.036382 0.000000 0.000000
# 5 0.000000 0.000000 0.000000 0.000000 0.036382 0.000000
# 6 -0.000596 0.000596 0.000000 0.000000 0.000000 0.019325
#
#
# Mechanical properties :
#
#
# Convention : Reuss Voigt Hill
#
# Bulk Modulus (GPa) = 42.15817 43.08383 42.62100
# Shear Modulus (GPa) = 33.49506 35.67656 34.58581
#
# Velocity S-wave (km/s) = 3.55160 3.66543 3.60896
# Velocity P-wave (km/s) = 5.71793 5.84284 5.78072
#
# Compressibility (1/GPa) = 0.02372020
#
# Stress axis : x y z
#
# Youngs Moduli (GPa) = 91.73979 91.73979 68.03022
#
# Poissons Ratio (x) = 0.17548 0.15229
# Poissons Ratio (y) = 0.17548 0.15229
# Poissons Ratio (z) = 0.20537 0.20537
#
# Static dielectric constant tensor:
#      x y z
#    x 2.168730 0.000000 0.000000 
#    y 0.000000 2.168730 0.000000 
#    z 0.000000 0.000000 1.958280 
# 
# From -- ./inp_files/107.got.cif
#   From: 2010.05.17/outbox.cif.g08.bks.cpg/sg85_cif.got.tgz:107.got - 2010.06.03 19:01:16.
