data_PCOD9544338
_publ_section_title
;
Structure prediction by ZEFSAII (Michael W. Deem and Ramdas Pophale) SiO2 
 PCOD9544338
Probable space group: P 42/M
;
_chemical_formula_sum "Si O2"
_cell_formula_units_Z 40
_cell_length_a 9.480822
_cell_length_b 9.480822
_cell_length_c 23.614031
_cell_angle_alpha 90.000000
_cell_angle_beta 90.000000
_cell_angle_gamma 90.000000
_cell_volume 2122.570455
_symmetry_space_group_name_H-M "P 42/M"
_symmetry_group_IT_number 84
_symmetry_cell_setting 'tetragonal'
loop_
_space_group_symop_operation_xyz
x,y,z
-y,x,1/2+z
-x,-y,z
y,-x,1/2+z
-x,-y,-z
y,-x,1/2-z
x,y,-z
-y,x,1/2-z
loop_
_atom_site_type_symbol
_atom_site_label
_atom_site_fract_x
_atom_site_fract_y
_atom_site_fract_z
Si Si1 0.648822 0.081137 0.060968
Si Si2 0.582567 0.646658 0.566028
Si Si3 0.172720 0.487182 0.827636
Si Si4 0.757141 0.274634 0.743129
Si Si5 0.669942 0.025492 0.181001
O O1 0.623870 0.248363 0.069602
O O2 0.722209 0.021374 0.116656
O O3 0.500000 0.000000 0.058352
O O4 0.720373 0.061883 0.000000
O O5 0.500000 0.500000 0.577556
O O6 0.551928 0.685906 0.500000
O O7 0.538715 0.762456 0.612796
O O8 0.237215 0.575596 0.774673
O O9 0.236293 0.334785 0.811959
O O10 0.000000 0.500000 0.826654
O O11 0.703511 0.174446 0.792420
O O12 0.915348 0.255707 0.721817
O O13 0.500000 0.000000 0.181173
#
# Coordination Sequence:
#
# PCOD9544338 Si02
#       5
#     8   8   8   8   8
#     4   9  19  36  59  88 124 155 193 254 307 352
#     4  10  23  41  66  97 121 159 213 257 307 368
#     4  12  26  42  60  92 127 165 208 253 318 371
#     4  12  22  41  58  89 127 158 202 260 302 372
#     4  11  22  39  58  90 123 157 204 250 310 369
#
# _framework density 18.845074
#
# number of rings (size 3 to 8) (size 9 to 14) (size 15 to 20)
#    0.000    1.200    6.000    0.000    8.400    0.800 
#    0.000    0.000    0.000    0.000    0.000    4.200 
#    0.000    0.000    0.000    0.000    0.000    0.000 
#
# Total GULP energy -222691.378505 kJ/mol
# GULP energy per Si atom -5567.284463 kJ/mol
# Density = 1.880218 g / cm^3
# Si number density = 18.845074 Si / 1000 Ang^3
#
#
#
# Elastic Constant Matrix: (Units=GPa)
#
#
# Indices 1 2 3 4 5 6 
#
# 1 36.1987 27.4796 13.4992 0.0000 0.0000 5.9593
# 2 27.4796 36.1987 13.4992 0.0000 0.0000 -5.9593
# 3 13.4992 13.4992 120.6011 0.0000 0.0000 0.0000
# 4 0.0000 0.0000 0.0000 -85.1223 0.0000 0.0000
# 5 0.0000 0.0000 0.0000 0.0000 -85.1223 0.0000
# 6 5.9593 -5.9593 0.0000 0.0000 0.0000 15.7063
#
#
#
# Elastic Compliance Matrix: (Units=1/GPa)
#
#
# Indices 1 2 3 4 5 6 
#
# 1 0.127374 -0.110888 -0.001845 0.000000 0.000000 -0.090401
# 2 -0.110888 0.127374 -0.001845 0.000000 0.000000 0.090401
# 3 -0.001845 -0.001845 0.008705 0.000000 0.000000 0.000000
# 4 0.000000 0.000000 0.000000 -0.011748 0.000000 0.000000
# 5 0.000000 0.000000 0.000000 0.000000 -0.011748 0.000000
# 6 -0.090401 0.090401 0.000000 0.000000 0.000000 0.132269
#
#
# Mechanical properties :
#
#
# Convention : Reuss Voigt Hill
#
# Bulk Modulus (GPa) = 29.15779 33.55049 31.35414
# Shear Modulus (GPa) = 8.15905 -21.67293 -6.75694
#
# Velocity S-wave (km/s) = 2.08301 -3.39493 -1.89560
# Velocity P-wave (km/s) = 4.61424 1.57308 3.44716
#
# Compressibility (1/GPa) = 0.03429615
#
# Stress axis : x y z
#
# Youngs Moduli (GPa) = 7.85087 7.85087 114.87773
#
# Poissons Ratio (x) = 0.87057 0.21199
# Poissons Ratio (y) = 0.87057 0.21199
# Poissons Ratio (z) = 0.01449 0.01449
#
# Static dielectric constant tensor:
#      x y z
#    x 1.618090 0.000000 0.000000 
#    y 0.000000 1.618090 0.000000 
#    z 0.000000 0.000000 1.688530 
# 
# From -- ./inp_files/4794.got.cif
#   From: 2010.05.17/outbox.cif.g08.bks.cpg/sg84_3_cif.got.tgz:4794.got - 2010.06.03 18:57:40.
