data_PCOD9544403
_publ_section_title
;
Structure prediction by ZEFSAII (Michael W. Deem and Ramdas Pophale) SiO2 
 PCOD9544403
Probable space group: P 42/M
;
_chemical_formula_sum "Si O2"
_cell_formula_units_Z 40
_cell_length_a 16.310072
_cell_length_b 16.310072
_cell_length_c 8.599880
_cell_angle_alpha 90.000000
_cell_angle_beta 90.000000
_cell_angle_gamma 90.000000
_cell_volume 2287.726736
_symmetry_space_group_name_H-M "P 42/M"
_symmetry_group_IT_number 84
_symmetry_cell_setting 'tetragonal'
loop_
_space_group_symop_operation_xyz
x,y,z
-y,x,1/2+z
-x,-y,z
y,-x,1/2+z
-x,-y,-z
y,-x,1/2-z
x,y,-z
-y,x,1/2-z
loop_
_atom_site_type_symbol
_atom_site_label
_atom_site_fract_x
_atom_site_fract_y
_atom_site_fract_z
Si Si1 0.582374 0.043802 0.689460
Si Si2 0.016955 0.759519 0.187641
Si Si3 0.777405 0.640118 0.188043
Si Si4 0.160283 0.181322 0.187292
Si Si5 0.559534 0.387021 0.814830
O O1 0.581360 0.042925 0.500000
O O2 0.665103 0.996569 0.737232
O O3 0.592595 0.139043 0.733951
O O4 0.500000 0.000000 0.744968
O O5 0.934497 0.807562 0.237075
O O6 0.099712 0.798779 0.249322
O O7 0.018852 0.760395 0.000000
O O8 0.792298 0.735175 0.232611
O O9 0.696767 0.601472 0.260867
O O10 0.771080 0.636630 0.000000
O O11 0.160724 0.178776 0.000000
O O12 0.466253 0.393996 0.754214
O O13 0.559562 0.393209 0.000000
#
# Coordination Sequence:
#
# PCOD9544403 Si02
#       5
#     8   8   8   8   8
#     4   8  15  30  52  75  99 129 166 208 251 297
#     4   9  18  32  50  73  99 130 171 212 252 304
#     4   9  18  34  53  75 105 135 166 208 258 308
#     4   9  19  34  50  71 103 137 166 209 263 305
#     4  11  22  37  56  78 105 136 172 211 253 299
#
# _framework density 17.484605999999999
#
# number of rings (size 3 to 8) (size 9 to 14) (size 15 to 20)
#    0.000    2.800    0.000    4.800    0.000    3.600 
#    0.000    7.000    0.000    1.200    0.000    0.000 
#    0.000    0.000    0.000    0.000    0.000    0.000 
#
# Total GULP energy -223048.836495 kJ/mol
# GULP energy per Si atom -5576.220912 kJ/mol
# Density = 1.744481 g / cm^3
# Si number density = 17.484606 Si / 1000 Ang^3
#
#
#
# Elastic Constant Matrix: (Units=GPa)
#
#
# Indices 1 2 3 4 5 6 
#
# 1 152.5124 113.1605 26.9502 0.0000 0.0000 18.1338
# 2 113.1605 152.5124 26.9502 0.0000 0.0000 -18.1338
# 3 26.9502 26.9502 28.4340 0.0000 0.0000 0.0000
# 4 0.0000 0.0000 0.0000 24.6082 0.0000 0.0000
# 5 0.0000 0.0000 0.0000 0.0000 24.6082 0.0000
# 6 18.1338 -18.1338 0.0000 0.0000 0.0000 30.2047
#
#
#
# Elastic Compliance Matrix: (Units=1/GPa)
#
#
# Indices 1 2 3 4 5 6 
#
# 1 0.030774 -0.026114 -0.004417 0.000000 0.000000 -0.034154
# 2 -0.026114 0.030774 -0.004417 0.000000 0.000000 0.034154
# 3 -0.004417 -0.004417 0.043542 0.000000 0.000000 0.000000
# 4 0.000000 0.000000 0.000000 0.040637 0.000000 0.000000
# 5 0.000000 0.000000 0.000000 0.000000 0.040637 0.000000
# 6 -0.034154 0.034154 0.000000 0.000000 0.000000 0.074116
#
#
# Mechanical properties :
#
#
# Convention : Reuss Voigt Hill
#
# Bulk Modulus (GPa) = 28.41353 74.17563 51.29458
# Shear Modulus (GPa) = 14.61526 26.97742 20.79634
#
# Velocity S-wave (km/s) = 2.89432 3.93227 3.45252
# Velocity P-wave (km/s) = 5.23978 7.94559 6.73007
#
# Compressibility (1/GPa) = 0.03519450
#
# Stress axis : x y z
#
# Youngs Moduli (GPa) = 32.49474 32.49474 22.96631
#
# Poissons Ratio (x) = 0.84857 0.10144
# Poissons Ratio (y) = 0.84857 0.10144
# Poissons Ratio (z) = 0.14353 0.14353
#
# Static dielectric constant tensor:
#      x y z
#    x 1.578450 0.000000 0.000000 
#    y 0.000000 1.578450 0.000000 
#    z 0.000000 0.000000 1.598200 
# 
# From -- ./inp_files/754.got.cif
#   From: 2010.05.17/outbox.cif.g08.bks.cpg/sg84_1_cif.got.tgz:754.got - 2010.06.03 18:57:40.
