data_PCOD9544570
_publ_section_title
;
Structure prediction by ZEFSAII (Michael W. Deem and Ramdas Pophale) SiO2 
 PCOD9544570
Probable space group: P 4/N
;
_chemical_formula_sum "Si O2"
_cell_formula_units_Z 48
_cell_length_a 16.188962
_cell_length_b 16.188962
_cell_length_c 9.524098
_cell_angle_alpha 90.000000
_cell_angle_beta 90.000000
_cell_angle_gamma 90.000000
_cell_volume 2496.099325
_symmetry_space_group_name_H-M "P 4/N"
_symmetry_group_IT_number 85
_symmetry_cell_setting 'tetragonal'
loop_
_space_group_symop_operation_xyz
x,y,z
1/2-y,x,z
1/2-x,1/2-y,z
y,1/2-x,z
-x,-y,-z
1/2+y,-x,-z
1/2+x,1/2+y,-z
-y,1/2+x,-z
loop_
_atom_site_type_symbol
_atom_site_label
_atom_site_fract_x
_atom_site_fract_y
_atom_site_fract_z
Si Si1 0.688917 0.418808 0.771425
Si Si2 0.499852 0.213724 0.940849
Si Si3 0.647289 0.076225 0.600826
Si Si4 0.555192 0.604701 0.042159
Si Si5 0.526990 0.510219 0.752553
Si Si6 0.900864 0.240577 0.666972
O O1 0.779820 0.437416 0.713676
O O2 0.687808 0.435086 0.938470
O O3 0.663742 0.325260 0.732474
O O4 0.619870 0.483124 0.710639
O O5 0.459008 0.299975 0.977099
O O6 0.428636 0.146547 0.938117
O O7 0.544711 0.224172 0.793280
O O8 0.564555 0.026131 0.643501
O O9 0.633878 0.175729 0.595954
O O10 0.687334 0.052625 0.451856
O O11 0.509853 0.574602 0.184334
O O12 0.525206 0.563276 0.896964
#
# Coordination Sequence:
#
# PCOD9544570 Si02
#       6
#     8   8   8   8   8   8
#     4  11  24  40  64  91 124 166 211 252 316 377
#     4  11  23  41  65  92 120 163 215 255 308 377
#     4  12  24  44  60  91 136 161 206 263 320 383
#     4  10  20  39  63  93 121 158 211 259 305 365
#     4  10  21  40  63  87 127 167 205 256 304 381
#     4  12  25  40  61  96 127 167 203 261 326 382
#
# _framework density 19.230003
#
# number of rings (size 3 to 8) (size 9 to 14) (size 15 to 20)
#    0.000    1.000    6.667    0.500    2.333    1.000 
#    3.000    0.000    0.000    0.500    0.000    0.000 
#    0.000    0.000    0.000    0.000    0.000    0.000 
#
# Total GULP energy -267829.159761 kJ/mol
# GULP energy per Si atom -5579.774162 kJ/mol
# Density = 1.918623 g / cm^3
# Si number density = 19.230003 Si / 1000 Ang^3
#
#
#
# Elastic Constant Matrix: (Units=GPa)
#
#
# Indices 1 2 3 4 5 6 
#
# 1 69.2832 18.7923 31.0180 0.0000 0.0000 0.0092
# 2 18.7923 69.2832 31.0180 0.0000 0.0000 -0.0092
# 3 31.0180 31.0180 71.2276 0.0000 0.0000 0.0000
# 4 0.0000 0.0000 0.0000 32.2235 0.0000 0.0000
# 5 0.0000 0.0000 0.0000 0.0000 32.2235 0.0000
# 6 0.0092 -0.0092 0.0000 0.0000 0.0000 25.2814
#
#
#
# Elastic Compliance Matrix: (Units=1/GPa)
#
#
# Indices 1 2 3 4 5 6 
#
# 1 0.018091 -0.001714 -0.007132 0.000000 0.000000 -0.000007
# 2 -0.001714 0.018091 -0.007132 0.000000 0.000000 0.000007
# 3 -0.007132 -0.007132 0.020251 0.000000 0.000000 0.000000
# 4 0.000000 0.000000 0.000000 0.031033 0.000000 0.000000
# 5 0.000000 0.000000 0.000000 0.000000 0.031033 0.000000
# 6 -0.000007 0.000007 0.000000 0.000000 0.000000 0.039555
#
#
# Mechanical properties :
#
#
# Convention : Reuss Voigt Hill
#
# Bulk Modulus (GPa) = 40.85315 41.27229 41.06272
# Shear Modulus (GPa) = 25.23078 26.54338 25.88708
#
# Velocity S-wave (km/s) = 3.62616 3.71928 3.67302
# Velocity P-wave (km/s) = 6.23078 6.32085 6.27598
#
# Compressibility (1/GPa) = 0.02447792
#
# Stress axis : x y z
#
# Youngs Moduli (GPa) = 55.27481 55.27481 49.38000
#
# Poissons Ratio (x) = 0.09475 0.35218
# Poissons Ratio (y) = 0.09475 0.35218
# Poissons Ratio (z) = 0.39422 0.39422
#
# Static dielectric constant tensor:
#      x y z
#    x 1.679750 0.000000 0.000000 
#    y 0.000000 1.679750 0.000000 
#    z 0.000000 0.000000 1.711570 
# 
# From -- ./inp_files/1072.got.cif
#   From: 2010.05.17/outbox.cif.g08.bks.cpg/sg85_cif.got.tgz:1072.got - 2010.06.03 19:01:16.
