data_PCOD9544543
_publ_section_title
;
Structure prediction by ZEFSAII (Michael W. Deem and Ramdas Pophale) SiO2 
 PCOD9544543
Probable space group: P 4/N
;
_chemical_formula_sum "Si O2"
_cell_formula_units_Z 56
_cell_length_a 15.533285
_cell_length_b 15.533285
_cell_length_c 12.861069
_cell_angle_alpha 90.000000
_cell_angle_beta 90.000000
_cell_angle_gamma 90.000000
_cell_volume 3103.156577
_symmetry_space_group_name_H-M "P 4/N"
_symmetry_group_IT_number 85
_symmetry_cell_setting 'tetragonal'
loop_
_space_group_symop_operation_xyz
x,y,z
1/2-y,x,z
1/2-x,1/2-y,z
y,1/2-x,z
-x,-y,-z
1/2+y,-x,-z
1/2+x,1/2+y,-z
-y,1/2+x,-z
loop_
_atom_site_type_symbol
_atom_site_label
_atom_site_fract_x
_atom_site_fract_y
_atom_site_fract_z
Si Si1 0.649312 0.853166 0.062488
Si Si2 0.047627 0.051411 0.751334
Si Si3 0.210725 0.870543 0.043387
Si Si4 0.421353 0.648142 0.389441
Si Si5 0.852571 0.249498 0.268335
Si Si6 0.643428 0.417313 0.396076
Si Si7 0.480689 0.075530 0.079654
O O1 0.632231 0.751218 0.069512
O O2 0.599898 0.900409 0.157158
O O3 0.612550 0.889068 0.952844
O O4 0.005367 0.119859 0.672843
O O5 0.108240 0.990574 0.681109
O O6 0.969232 0.999204 0.809163
O O7 0.262110 0.880114 0.150445
O O8 0.149834 0.952391 0.044396
O O9 0.284457 0.849897 0.958290
O O10 0.341441 0.624386 0.314588
O O11 0.420744 0.751928 0.409329
O O12 0.403568 0.592651 0.493132
O O13 0.750000 0.250000 0.267638
O O14 0.879881 0.172083 0.339981
O O15 0.500000 0.000000 0.000000
#
# Coordination Sequence:
#
# PCOD9544543 Si02
#       7
#     8   8   8   8   8   8   8
#     4  10  23  42  61  82 115 161 204 243 296 361
#     4  11  23  39  59  91 117 154 200 254 300 353
#     4  11  22  35  57  88 122 159 195 241 304 365
#     4  11  21  40  60  87 117 157 196 248 304 364
#     4  10  20  34  55  85 117 153 191 233 294 361
#     4  11  23  37  62  85 122 154 198 248 304 361
#     4  10  24  36  55  84 118 154 199 244 298 351
#
# _framework density 18.046139
#
# number of rings (size 3 to 8) (size 9 to 14) (size 15 to 20)
#    0.000    1.429    4.286    1.286    8.000    0.000 
#    0.000    0.000    0.000    0.000    0.000    0.000 
#    0.000    0.000    0.000    0.000    0.000    0.000 
#
# Total GULP energy -312024.750353 kJ/mol
# GULP energy per Si atom -5571.870542 kJ/mol
# Density = 1.800507 g / cm^3
# Si number density = 18.046139 Si / 1000 Ang^3
#
#
#
# Elastic Constant Matrix: (Units=GPa)
#
#
# Indices 1 2 3 4 5 6 
#
# 1 61.4292 33.6575 24.8633 0.0000 0.0000 -1.2052
# 2 33.6575 61.4292 24.8633 0.0000 0.0000 1.2052
# 3 24.8633 24.8633 83.4539 0.0000 0.0000 0.0000
# 4 0.0000 0.0000 0.0000 30.3110 0.0000 0.0000
# 5 0.0000 0.0000 0.0000 0.0000 30.3110 0.0000
# 6 -1.2052 1.2052 0.0000 0.0000 0.0000 24.5048
#
#
#
# Elastic Compliance Matrix: (Units=1/GPa)
#
#
# Indices 1 2 3 4 5 6 
#
# 1 0.024310 -0.011852 -0.003711 0.000000 0.000000 0.001779
# 2 -0.011852 0.024310 -0.003711 0.000000 0.000000 -0.001779
# 3 -0.003711 -0.003711 0.014194 0.000000 0.000000 0.000000
# 4 0.000000 0.000000 0.000000 0.032991 0.000000 0.000000
# 5 0.000000 0.000000 0.000000 0.000000 0.032991 0.000000
# 6 0.001779 -0.001779 0.000000 0.000000 0.000000 0.040983
#
#
# Mechanical properties :
#
#
# Convention : Reuss Voigt Hill
#
# Bulk Modulus (GPa) = 41.21408 41.45339 41.33374
# Shear Modulus (GPa) = 23.10339 25.22058 24.16198
#
# Velocity S-wave (km/s) = 3.58193 3.74245 3.66307
# Velocity P-wave (km/s) = 6.32413 6.45719 6.39101
#
# Compressibility (1/GPa) = 0.02426355
#
# Stress axis : x y z
#
# Youngs Moduli (GPa) = 41.13540 41.13540 70.45139
#
# Poissons Ratio (x) = 0.48755 0.26148
# Poissons Ratio (y) = 0.48755 0.26148
# Poissons Ratio (z) = 0.15267 0.15267
#
# Static dielectric constant tensor:
#      x y z
#    x 1.633870 0.000000 0.000000 
#    y 0.000000 1.633870 0.000000 
#    z 0.000000 0.000000 1.607110 
# 
# From -- ./inp_files/1775.got.cif
#   From: 2010.05.17/outbox.cif.g08.bks.cpg/sg85_cif.got.tgz:1775.got - 2010.06.03 19:01:16.
