data_PCOD9544565
_publ_section_title
;
Structure prediction by ZEFSAII (Michael W. Deem and Ramdas Pophale) SiO2 
 PCOD9544565
Probable space group: P 4/N
;
_chemical_formula_sum "Si O2"
_cell_formula_units_Z 48
_cell_length_a 14.153875
_cell_length_b 14.153875
_cell_length_c 11.612663
_cell_angle_alpha 90.000000
_cell_angle_beta 90.000000
_cell_angle_gamma 90.000000
_cell_volume 2326.390066
_symmetry_space_group_name_H-M "P 4/N"
_symmetry_group_IT_number 85
_symmetry_cell_setting 'tetragonal'
loop_
_space_group_symop_operation_xyz
x,y,z
1/2-y,x,z
1/2-x,1/2-y,z
y,1/2-x,z
-x,-y,-z
1/2+y,-x,-z
1/2+x,1/2+y,-z
-y,1/2+x,-z
loop_
_atom_site_type_symbol
_atom_site_label
_atom_site_fract_x
_atom_site_fract_y
_atom_site_fract_z
Si Si1 0.575315 0.577797 0.653605
Si Si2 0.616486 0.116627 0.909237
Si Si3 0.513989 0.244086 0.245363
Si Si4 0.061599 0.439746 0.780982
Si Si5 0.116788 0.331199 0.573584
Si Si6 0.381624 0.675317 0.169604
O O1 0.521617 0.677538 0.664235
O O2 0.661834 0.565049 0.745678
O O3 0.500215 0.500940 0.691687
O O4 0.620297 0.558512 0.529077
O O5 0.509096 0.084542 0.885022
O O6 0.632798 0.212499 0.834933
O O7 0.688474 0.035920 0.864434
O O8 0.636816 0.139846 0.041062
O O9 0.612289 0.184141 0.254097
O O10 0.088965 0.350798 0.704730
O O11 0.147059 0.509073 0.812048
O O12 0.125210 0.220472 0.556680
#
# Coordination Sequence:
#
# PCOD9544565 Si02
#       6
#     8   8   8   8   8   8
#     4  10  20  38  59  87 118 156 203 253 305 352
#     4  11  21  38  61  88 120 164 204 247 304 366
#     4  10  21  35  60  90 116 154 204 257 293 360
#     4  10  23  37  58  88 124 151 202 255 304 356
#     4  11  21  37  63  85 113 162 200 246 309 364
#     4  11  21  38  61  88 120 164 204 247 304 366
#
# _framework density 20.632826999999999
#
# number of rings (size 3 to 8) (size 9 to 14) (size 15 to 20)
#    0.000    1.500    3.333    2.500    0.000    0.333 
#    0.000    0.000    0.000    0.000    0.000    0.000 
#    0.000    0.000    0.000    0.000    0.000    0.000 
#
# Total GULP energy -267291.815471 kJ/mol
# GULP energy per Si atom -5568.579489 kJ/mol
# Density = 2.058587 g / cm^3
# Si number density = 20.632827 Si / 1000 Ang^3
#
#
#
# Elastic Constant Matrix: (Units=GPa)
#
#
# Indices 1 2 3 4 5 6 
#
# 1 86.1961 -18.4506 16.2684 0.0000 0.0000 5.6300
# 2 -18.4506 86.1961 16.2684 0.0000 0.0000 -5.6300
# 3 16.2684 16.2684 43.7568 0.0000 0.0000 0.0000
# 4 0.0000 0.0000 0.0000 25.9702 0.0000 0.0000
# 5 0.0000 0.0000 0.0000 0.0000 25.9702 0.0000
# 6 5.6300 -5.6300 0.0000 0.0000 0.0000 32.8131
#
#
#
# Elastic Compliance Matrix: (Units=1/GPa)
#
#
# Indices 1 2 3 4 5 6 
#
# 1 0.013853 0.004117 -0.006681 0.000000 0.000000 -0.001670
# 2 0.004117 0.013853 -0.006681 0.000000 0.000000 0.001670
# 3 -0.006681 -0.006681 0.027822 0.000000 0.000000 0.000000
# 4 0.000000 0.000000 0.000000 0.038506 0.000000 0.000000
# 5 0.000000 0.000000 0.000000 0.000000 0.038506 0.000000
# 6 -0.001670 0.001670 0.000000 0.000000 0.000000 0.031049
#
#
# Mechanical properties :
#
#
# Convention : Reuss Voigt Hill
#
# Bulk Modulus (GPa) = 26.99996 27.14682 27.07339
# Shear Modulus (GPa) = 25.71710 30.42154 28.06932
#
# Velocity S-wave (km/s) = 3.53429 3.84399 3.69239
# Velocity P-wave (km/s) = 5.45612 5.73475 5.59717
#
# Compressibility (1/GPa) = 0.03703710
#
# Stress axis : x y z
#
# Youngs Moduli (GPa) = 72.18756 72.18756 35.94339
#
# Poissons Ratio (x) = -0.29720 0.24014
# Poissons Ratio (y) = -0.29720 0.24014
# Poissons Ratio (z) = 0.48229 0.48229
#
# Static dielectric constant tensor:
#      x y z
#    x 1.784160 0.000000 0.000000 
#    y 0.000000 1.784160 0.000000 
#    z 0.000000 0.000000 1.745160 
# 
# From -- ./inp_files/1633.got.cif
#   From: 2010.05.17/outbox.cif.g08.bks.cpg/sg85_cif.got.tgz:1633.got - 2010.06.03 19:01:16.
