data_PCOD9544189
_publ_section_title
;
Structure prediction by ZEFSAII (Michael W. Deem and Ramdas Pophale) SiO2 
 PCOD9544189
Probable space group: P 42/M
;
_chemical_formula_sum "Si O2"
_cell_formula_units_Z 48
_cell_length_a 8.465032
_cell_length_b 8.465032
_cell_length_c 30.005319
_cell_angle_alpha 90.000000
_cell_angle_beta 90.000000
_cell_angle_gamma 90.000000
_cell_volume 2150.084145
_symmetry_space_group_name_H-M "P 42/M"
_symmetry_group_IT_number 84
_symmetry_cell_setting 'tetragonal'
loop_
_space_group_symop_operation_xyz
x,y,z
-y,x,1/2+z
-x,-y,z
y,-x,1/2+z
-x,-y,-z
y,-x,1/2-z
x,y,-z
-y,x,1/2-z
loop_
_atom_site_type_symbol
_atom_site_label
_atom_site_fract_x
_atom_site_fract_y
_atom_site_fract_z
Si Si1 0.200400 0.175138 0.750153
Si Si2 0.384594 0.373022 0.675220
Si Si3 0.947747 0.817289 0.593848
Si Si4 0.557019 0.182795 0.500000
Si Si5 0.389718 0.133587 0.834041
Si Si6 0.935166 0.180581 0.500000
Si Si7 0.177201 0.568720 0.905884
O O1 0.289583 0.264557 0.710105
O O2 0.283258 0.213307 0.796664
O O3 0.014993 0.212789 0.753901
O O4 0.500000 0.500000 0.697527
O O5 0.258907 0.483225 0.648672
O O6 0.476586 0.271247 0.638494
O O7 0.758807 0.822979 0.595574
O O8 0.041799 0.717187 0.630568
O O9 0.999426 0.750880 0.545783
O O10 0.000000 0.000000 0.598231
O O11 0.746181 0.183229 0.500000
O O12 0.491279 0.247811 0.453051
O O13 0.500000 0.000000 0.500000
O O14 0.500000 0.000000 0.811550
O O15 0.000000 0.000000 0.500000
O O16 0.000000 0.500000 0.903230
#
# Coordination Sequence:
#
# PCOD9544189 Si02
#       7
#     8   8   8   4   8   4   8
#     4  11  26  49  78 103 133 183 242 291 345 418
#     4  12  30  47  71 105 147 187 228 293 366 423
#     4  11  23  41  74 101 139 182 239 293 345 416
#     4  10  20  38  64  98 144 179 236 290 344 421
#     4  12  26  47  68 103 145 180 232 287 351 424
#     4  10  20  38  66 104 132 184 238 292 346 408
#     4  11  23  43  69 104 139 188 236 287 351 424
#
# _framework density 22.324705999999999
#
# number of rings (size 3 to 8) (size 9 to 14) (size 15 to 20)
#    0.000    0.833    3.333    4.500   11.667    0.667 
#    0.000    1.667    0.000    0.000    0.000    0.000 
#    0.000    0.000    0.000    0.000    0.000    0.000 
#
# Total GULP energy -268281.092229 kJ/mol
# GULP energy per Si atom -5589.189421 kJ/mol
# Density = 2.227389 g / cm^3
# Si number density = 22.324706 Si / 1000 Ang^3
#
#
#
# Elastic Constant Matrix: (Units=GPa)
#
#
# Indices 1 2 3 4 5 6 
#
# 1 105.9169 54.8416 70.7455 0.0000 0.0000 2.8700
# 2 54.8416 105.9169 70.7455 0.0000 0.0000 -2.8700
# 3 70.7455 70.7455 176.8134 0.0000 0.0000 0.0000
# 4 0.0000 0.0000 0.0000 -0.4652 0.0000 0.0000
# 5 0.0000 0.0000 0.0000 0.0000 -0.4652 0.0000
# 6 2.8700 -2.8700 0.0000 0.0000 0.0000 41.9232
#
#
#
# Elastic Compliance Matrix: (Units=1/GPa)
#
#
# Indices 1 2 3 4 5 6 
#
# 1 0.014666 -0.005064 -0.003842 0.000000 0.000000 -0.001351
# 2 -0.005064 0.014666 -0.003842 0.000000 0.000000 0.001351
# 3 -0.003842 -0.003842 0.008730 0.000000 0.000000 0.000000
# 4 0.000000 0.000000 0.000000 -2.149470 0.000000 0.000000
# 5 0.000000 0.000000 0.000000 0.000000 -2.149470 0.000000
# 6 -0.001351 0.001351 0.000000 0.000000 0.000000 0.024038
#
#
# Mechanical properties :
#
#
# Convention : Reuss Voigt Hill
#
# Bulk Modulus (GPa) = 79.57710 86.81248 83.19479
# Shear Modulus (GPa) = -1.18845 21.01950 9.91553
#
# Velocity S-wave (km/s) = -0.73041 3.07177 2.10977
# Velocity P-wave (km/s) = 5.91704 7.17996 6.57887
#
# Compressibility (1/GPa) = 0.01256643
#
# Stress axis : x y z
#
# Youngs Moduli (GPa) = 68.18337 68.18337 114.54696
#
# Poissons Ratio (x) = 0.34531 0.44007
# Poissons Ratio (y) = 0.34531 0.44007
# Poissons Ratio (z) = 0.26195 0.26195
#
# Static dielectric constant tensor:
#      x y z
#    x 1.862230 0.000000 0.000000 
#    y 0.000000 1.862230 0.000000 
#    z 0.000000 0.000000 1.829240 
# 
# From -- ./inp_files/5873.got.cif
#   From: 2010.05.17/outbox.cif.g08.bks.cpg/sg84_3_cif.got.tgz:5873.got - 2010.06.03 18:57:40.
