data_PCOD9544035
_publ_section_title
;
Structure prediction by ZEFSAII (Michael W. Deem and Ramdas Pophale) SiO2 
 PCOD9544035
Probable space group: P 42/M
;
_chemical_formula_sum "Si O2"
_cell_formula_units_Z 40
_cell_length_a 14.383274
_cell_length_b 14.383274
_cell_length_c 8.740355
_cell_angle_alpha 90.000000
_cell_angle_beta 90.000000
_cell_angle_gamma 90.000000
_cell_volume 1808.192152
_symmetry_space_group_name_H-M "P 42/M"
_symmetry_group_IT_number 84
_symmetry_cell_setting 'tetragonal'
loop_
_space_group_symop_operation_xyz
x,y,z
-y,x,1/2+z
-x,-y,z
y,-x,1/2+z
-x,-y,-z
y,-x,1/2-z
x,y,-z
-y,x,1/2-z
loop_
_atom_site_type_symbol
_atom_site_label
_atom_site_fract_x
_atom_site_fract_y
_atom_site_fract_z
Si Si1 0.201079 0.324837 0.826834
Si Si2 0.456306 0.622049 0.669194
Si Si3 0.972024 0.142788 0.184165
Si Si4 0.305786 0.139267 0.187301
Si Si5 0.512404 0.109904 0.169922
O O1 0.284943 0.398965 0.828121
O O2 0.247552 0.231039 0.765293
O O3 0.125556 0.387124 0.743699
O O4 0.170266 0.304194 0.000000
O O5 0.537620 0.612909 0.791903
O O6 0.496801 0.610737 0.500000
O O7 0.944645 0.244570 0.245152
O O8 0.069152 0.104523 0.252015
O O9 0.974495 0.139665 0.000000
O O10 0.413647 0.144359 0.239905
O O11 0.307319 0.133837 0.000000
O O12 0.500000 0.000000 0.160420
O O13 0.517274 0.151820 0.000000
#
# Coordination Sequence:
#
# PCOD9544035 Si02
#       5
#     8   8   8   8   8
#     4  10  22  38  58  84 119 162 206 258 313 372
#     4  10  19  32  52  80 112 149 192 243 300 356
#     4  11  23  41  66  96 128 165 210 264 324 386
#     4  10  22  41  63  92 131 170 214 268 326 385
#     4  10  23  42  64  91 126 168 214 267 324 386
#
# _framework density 22.121542000000002
#
# number of rings (size 3 to 8) (size 9 to 14) (size 15 to 20)
#    0.000    1.800    0.000    4.800    2.800    5.200 
#    0.000    0.000    0.000    0.000    0.000    0.000 
#    0.000    0.000    0.000    0.000    0.000    0.000 
#
# Total GULP energy -223258.783256 kJ/mol
# GULP energy per Si atom -5581.469581 kJ/mol
# Density = 2.207119 g / cm^3
# Si number density = 22.121542 Si / 1000 Ang^3
#
#
#
# Elastic Constant Matrix: (Units=GPa)
#
#
# Indices 1 2 3 4 5 6 
#
# 1 50.0159 9.8212 4.2327 0.0000 0.0000 15.3346
# 2 9.8212 50.0159 4.2327 0.0000 0.0000 -15.3346
# 3 4.2327 4.2327 52.6697 0.0000 0.0000 0.0000
# 4 0.0000 0.0000 0.0000 -4.6164 0.0000 0.0000
# 5 0.0000 0.0000 0.0000 0.0000 -4.6164 0.0000
# 6 15.3346 -15.3346 0.0000 0.0000 0.0000 35.8362
#
#
#
# Elastic Compliance Matrix: (Units=1/GPa)
#
#
# Indices 1 2 3 4 5 6 
#
# 1 0.026922 -0.010018 -0.001358 0.000000 0.000000 -0.015807
# 2 -0.010018 0.026922 -0.001358 0.000000 0.000000 0.015807
# 3 -0.001358 -0.001358 0.019205 0.000000 0.000000 0.000000
# 4 0.000000 0.000000 0.000000 -0.216621 0.000000 0.000000
# 5 0.000000 0.000000 0.000000 0.000000 -0.216621 0.000000
# 6 -0.015807 0.015807 0.000000 0.000000 0.000000 0.041433
#
#
# Mechanical properties :
#
#
# Convention : Reuss Voigt Hill
#
# Bulk Modulus (GPa) = 21.01764 21.03055 21.02409
# Shear Modulus (GPa) = -18.02242 14.28169 -1.87037
#
# Velocity S-wave (km/s) = -2.85739 2.54362 -0.92051
# Velocity P-wave (km/s) = 1.16818 4.26077 2.89737
#
# Compressibility (1/GPa) = 0.04757908
#
# Stress axis : x y z
#
# Youngs Moduli (GPa) = 37.14434 37.14434 52.07091
#
# Poissons Ratio (x) = 0.37210 0.07074
# Poissons Ratio (y) = 0.37210 0.07074
# Poissons Ratio (z) = 0.05046 0.05046
#
# Static dielectric constant tensor:
#      x y z
#    x 1.855330 0.000000 0.000000 
#    y 0.000000 1.855330 0.000000 
#    z 0.000000 0.000000 1.864540 
# 
# From -- ./inp_files/783.got.cif
#   From: 2010.05.17/outbox.cif.g08.bks.cpg/sg84_1_cif.got.tgz:783.got - 2010.06.03 18:57:40.
