data_PCOD9544927
_publ_section_title
;
Structure prediction by ZEFSAII (Michael W. Deem and Ramdas Pophale) SiO2 
 PCOD9544927
Probable space group: P 42/N
;
_chemical_formula_sum "Si O2"
_cell_formula_units_Z 42
_cell_length_a 10.865768
_cell_length_b 10.865768
_cell_length_c 13.164208
_cell_angle_alpha 90.000000
_cell_angle_beta 90.000000
_cell_angle_gamma 90.000000
_cell_volume 1554.231088
_symmetry_space_group_name_H-M "P 42/N"
_symmetry_group_IT_number 86
_space_group.IT_coordinate_system_code '2'
_symmetry_cell_setting 'tetragonal'
loop_
_space_group_symop_operation_xyz
x,y,z
-y,1/2+x,1/2+z
1/2-x,1/2-y,z
1/2+y,-x,1/2+z
-x,-y,-z
y,1/2-x,1/2-z
1/2+x,1/2+y,-z
1/2-y,x,1/2-z
loop_
_atom_site_type_symbol
_atom_site_label
_atom_site_fract_x
_atom_site_fract_y
_atom_site_fract_z
Si Si1 0.887310 0.690911 0.044164
Si Si2 0.042811 0.542925 0.878904
Si Si3 0.397068 0.746318 0.542108
Si Si4 0.106909 0.775068 0.765912
Si Si5 0.750000 0.750000 0.750000
Si Si6 0.933580 0.894342 0.907147
O O1 0.750000 0.750000 0.052043
O O2 0.933634 0.599787 0.951150
O O3 0.932242 0.603800 0.135738
O O4 0.957402 0.811297 0.007430
O O5 0.167145 0.573105 0.943463
O O6 0.047522 0.639604 0.787066
O O7 0.250000 0.750000 0.540913
O O8 0.423044 0.684644 0.652348
O O9 0.485371 0.864557 0.553084
O O10 0.250000 0.750000 0.774496
O O11 0.057531 0.878276 0.842573
O O12 0.838752 0.822608 0.829166
#
# Coordination Sequence:
#
# PCOD9544927 Si02
#       6
#     8   8   8   8   2   8
#     4  10  19  35  59  94 130 174 216 283 354 398
#     4  10  21  37  60  92 134 168 230 286 341 421
#     4  11  22  39  61  92 132 177 229 285 352 408
#     4  10  23  40  59  93 136 180 221 288 351 414
#     4  12  16  28  60  96 116 148 232 282 312 400
#     4  11  20  34  62  93 127 171 229 283 334 412
#
# _framework density 27.023008999999998
#
# number of rings (size 3 to 8) (size 9 to 14) (size 15 to 20)
#    0.000    1.524    4.762    0.571    0.000    1.524 
#    3.429    2.857    0.000    0.000    0.000    0.000 
#    0.000    0.000    0.000    0.000    0.000    0.000 
#
# Total GULP energy -234136.628645 kJ/mol
# GULP energy per Si atom -5574.681634 kJ/mol
# Density = 2.696150 g / cm^3
# Si number density = 27.023009 Si / 1000 Ang^3
#
#
#
# Elastic Constant Matrix: (Units=GPa)
#
#
# Indices 1 2 3 4 5 6 
#
# 1 163.5061 74.7754 29.8509 0.0000 0.0000 7.4930
# 2 74.7754 163.5061 29.8509 0.0000 0.0000 -7.4930
# 3 29.8509 29.8509 55.9960 0.0000 0.0000 0.0000
# 4 0.0000 0.0000 0.0000 31.8926 0.0000 0.0000
# 5 0.0000 0.0000 0.0000 0.0000 31.8926 0.0000
# 6 7.4930 -7.4930 0.0000 0.0000 0.0000 56.8617
#
#
#
# Elastic Compliance Matrix: (Units=1/GPa)
#
#
# Indices 1 2 3 4 5 6 
#
# 1 0.008185 -0.003341 -0.002582 0.000000 0.000000 -0.001519
# 2 -0.003341 0.008185 -0.002582 0.000000 0.000000 0.001519
# 3 -0.002582 -0.002582 0.020611 0.000000 0.000000 0.000000
# 4 0.000000 0.000000 0.000000 0.031355 0.000000 0.000000
# 5 0.000000 0.000000 0.000000 0.000000 0.031355 0.000000
# 6 -0.001519 0.001519 0.000000 0.000000 0.000000 0.017987
#
#
# Mechanical properties :
#
#
# Convention : Reuss Voigt Hill
#
# Bulk Modulus (GPa) = 50.07437 72.44030 61.25733
# Shear Modulus (GPa) = 35.37389 40.69810 38.03600
#
# Velocity S-wave (km/s) = 3.62198 3.88500 3.75579
# Velocity P-wave (km/s) = 6.00517 6.85488 6.44405
#
# Compressibility (1/GPa) = 0.01997030
#
# Stress axis : x y z
#
# Youngs Moduli (GPa) = 122.17274 122.17274 48.51681
#
# Poissons Ratio (x) = 0.40824 0.12528
# Poissons Ratio (y) = 0.40824 0.12528
# Poissons Ratio (z) = 0.31546 0.31546
#
# Static dielectric constant tensor:
#      x y z
#    x 2.256740 0.000000 0.000000 
#    y 0.000000 2.256740 0.000000 
#    z 0.000000 0.000000 2.165640 
# 
# From -- ./inp_files/3451.got.cif
#   From: 2010.05.17/outbox.cif.g08.bks.cpg/sg86_2_cif.got.tgz:3451.got - 2010.06.03 19:03:11.
