data_PCOD9544120
_publ_section_title
;
Structure prediction by ZEFSAII (Michael W. Deem and Ramdas Pophale) SiO2 
 PCOD9544120
Probable space group: P 42/M
;
_chemical_formula_sum "Si O2"
_cell_formula_units_Z 48
_cell_length_a 9.617209
_cell_length_b 9.617209
_cell_length_c 18.036632
_cell_angle_alpha 90.000000
_cell_angle_beta 90.000000
_cell_angle_gamma 90.000000
_cell_volume 1668.220881
_symmetry_space_group_name_H-M "P 42/M"
_symmetry_group_IT_number 84
_symmetry_cell_setting 'tetragonal'
loop_
_space_group_symop_operation_xyz
x,y,z
-y,x,1/2+z
-x,-y,z
y,-x,1/2+z
-x,-y,-z
y,-x,1/2-z
x,y,-z
-y,x,1/2-z
loop_
_atom_site_type_symbol
_atom_site_label
_atom_site_fract_x
_atom_site_fract_y
_atom_site_fract_z
Si Si1 0.728792 0.134153 0.915627
Si Si2 0.848818 0.834038 0.226563
Si Si3 0.366079 0.600116 0.416972
Si Si4 0.035161 0.206712 0.916156
Si Si5 0.568160 0.831098 0.369834
Si Si6 0.452046 0.822748 0.794912
O O1 0.732027 0.302081 0.898855
O O2 0.622970 0.074019 0.855203
O O3 0.894896 0.112041 0.907321
O O4 0.690820 0.105986 0.000000
O O5 0.843638 0.835091 0.138697
O O6 0.777534 0.697154 0.258675
O O7 0.016359 0.814936 0.239977
O O8 0.500000 0.500000 0.417064
O O9 0.302043 0.594088 0.500000
O O10 0.436570 0.750531 0.403232
O O11 0.273035 0.544867 0.348505
O O12 0.974244 0.360942 0.897842
O O13 0.078557 0.198144 0.000000
O O14 0.536310 0.850906 0.281359
#
# Coordination Sequence:
#
# PCOD9544120 Si02
#       6
#     8   8   8   8   8   8
#     4   9  17  36  60  89 129 173 212 265 332 400
#     4  11  24  44  67  95 129 172 238 303 345 391
#     4  11  21  34  59  97 140 184 222 262 329 430
#     4   9  19  42  69  96 130 173 225 291 354 401
#     4  10  20  34  60  96 133 173 219 267 333 416
#     4  12  22  35  60  99 139 178 220 275 343 415
#
# _framework density 28.773171000000001
#
# number of rings (size 3 to 8) (size 9 to 14) (size 15 to 20)
#    1.000    0.667    3.333    2.500    0.000    0.667 
#    0.000    6.667    0.000    0.000    0.000   17.500 
#    0.000    0.000    0.000    0.000    0.000    0.000 
#
# Total GULP energy -268000.646998 kJ/mol
# GULP energy per Si atom -5583.346812 kJ/mol
# Density = 2.870768 g / cm^3
# Si number density = 28.773171 Si / 1000 Ang^3
#
#
#
# Elastic Constant Matrix: (Units=GPa)
#
#
# Indices 1 2 3 4 5 6 
#
# 1 150.1031 29.6539 27.8672 0.0000 0.0000 -1.5339
# 2 29.6539 150.1031 27.8672 0.0000 0.0000 1.5339
# 3 27.8672 27.8672 253.9941 0.0000 0.0000 0.0000
# 4 0.0000 0.0000 0.0000 32.9280 0.0000 0.0000
# 5 0.0000 0.0000 0.0000 0.0000 32.9280 0.0000
# 6 -1.5339 1.5339 0.0000 0.0000 0.0000 47.5896
#
#
#
# Elastic Compliance Matrix: (Units=1/GPa)
#
#
# Indices 1 2 3 4 5 6 
#
# 1 0.007034 -0.001275 -0.000632 0.000000 0.000000 0.000268
# 2 -0.001275 0.007034 -0.000632 0.000000 0.000000 -0.000268
# 3 -0.000632 -0.000632 0.004076 0.000000 0.000000 0.000000
# 4 0.000000 0.000000 0.000000 0.030369 0.000000 0.000000
# 5 0.000000 0.000000 0.000000 0.000000 0.030369 0.000000
# 6 0.000268 -0.000268 0.000000 0.000000 0.000000 0.021030
#
#
# Mechanical properties :
#
#
# Convention : Reuss Voigt Hill
#
# Bulk Modulus (GPa) = 76.53282 80.55299 78.54291
# Shear Modulus (GPa) = 45.72659 53.94326 49.83493
#
# Velocity S-wave (km/s) = 3.99081 4.33457 4.16624
# Velocity P-wave (km/s) = 6.92040 7.28752 7.10633
#
# Compressibility (1/GPa) = 0.01306629
#
# Stress axis : x y z
#
# Youngs Moduli (GPa) = 142.16616 142.16616 245.35372
#
# Poissons Ratio (x) = 0.18127 0.15503
# Poissons Ratio (y) = 0.18127 0.15503
# Poissons Ratio (z) = 0.08983 0.08983
#
# Static dielectric constant tensor:
#      x y z
#    x 2.386010 0.000000 0.000000 
#    y 0.000000 2.386010 0.000000 
#    z 0.000000 0.000000 2.222020 
# 
# From -- ./inp_files/3767.got.cif
#   From: 2010.05.17/outbox.cif.g08.bks.cpg/sg84_2_cif.got.tgz:3767.got - 2010.06.03 18:57:40.
