data_PCOD9544263
_publ_section_title
;
Structure prediction by ZEFSAII (Michael W. Deem and Ramdas Pophale) SiO2 
 PCOD9544263
Probable space group: P 42/M
;
_chemical_formula_sum "Si O2"
_cell_formula_units_Z 52
_cell_length_a 18.700959
_cell_length_b 18.700959
_cell_length_c 7.620020
_cell_angle_alpha 90.000000
_cell_angle_beta 90.000000
_cell_angle_gamma 90.000000
_cell_volume 2664.918105
_symmetry_space_group_name_H-M "P 42/M"
_symmetry_group_IT_number 84
_symmetry_cell_setting 'tetragonal'
loop_
_space_group_symop_operation_xyz
x,y,z
-y,x,1/2+z
-x,-y,z
y,-x,1/2+z
-x,-y,-z
y,-x,1/2-z
x,y,-z
-y,x,1/2-z
loop_
_atom_site_type_symbol
_atom_site_label
_atom_site_fract_x
_atom_site_fract_y
_atom_site_fract_z
Si Si1 0.419211 0.177157 0.308450
Si Si2 0.268464 0.656359 0.500000
Si Si3 0.377172 0.022180 0.201111
Si Si4 0.855194 0.847079 0.288936
Si Si5 0.872118 0.572791 0.288806
Si Si6 0.295115 0.768687 0.789199
Si Si7 0.783091 0.993027 0.294246
O O1 0.401779 0.207211 0.500000
O O2 0.387240 0.223653 0.153314
O O3 0.504080 0.166824 0.287461
O O4 0.387368 0.097046 0.295763
O O5 0.307155 0.703939 0.657012
O O6 0.419335 0.953850 0.273678
O O7 0.293613 0.001443 0.203167
O O8 0.400381 0.033917 0.000000
O O9 0.858797 0.848550 0.500000
O O10 0.800655 0.783301 0.242089
O O11 0.934144 0.827175 0.225479
O O12 0.825796 0.923519 0.227639
O O13 0.875014 0.564722 0.500000
O O14 0.829316 0.645595 0.254405
O O15 0.296687 0.753687 0.000000
O O16 0.768335 0.981611 0.500000
#
# Coordination Sequence:
#
# PCOD9544263 Si02
#       7
#     8   4   8   8   8   8   8
#     4  12  25  40  62  95 133 171 212 265 311 378
#     4  12  24  42  63  92 129 172 210 252 319 376
#     4  11  21  38  61  88 124 170 211 263 325 387
#     4  10  22  40  55  82 114 156 214 280 327 375
#     4  10  21  40  64  94 130 169 214 261 319 387
#     4  10  22  41  65  91 126 167 214 260 313 385
#     4  11  23  36  58  82 115 158 219 272 332 382
#
# _framework density 19.512794
#
# number of rings (size 3 to 8) (size 9 to 14) (size 15 to 20)
#    0.000    1.231    3.077    2.769    2.154    5.846 
#    0.000    1.538    0.000    0.000    0.000    0.000 
#    0.000    1.846    0.000    0.000    0.000    0.000 
#
# Total GULP energy -289660.263849 kJ/mol
# GULP energy per Si atom -5570.389689 kJ/mol
# Density = 1.946838 g / cm^3
# Si number density = 19.512794 Si / 1000 Ang^3
#
#
#
# Elastic Constant Matrix: (Units=GPa)
#
#
# Indices 1 2 3 4 5 6 
#
# 1 28.9255 19.8360 5.3208 0.0000 0.0000 -9.1136
# 2 19.8360 28.9255 5.3208 0.0000 0.0000 9.1136
# 3 5.3208 5.3208 94.5385 0.0000 0.0000 0.0000
# 4 0.0000 0.0000 0.0000 45.4259 0.0000 0.0000
# 5 0.0000 0.0000 0.0000 0.0000 45.4259 0.0000
# 6 -9.1136 9.1136 0.0000 0.0000 0.0000 37.5863
#
#
#
# Elastic Compliance Matrix: (Units=1/GPa)
#
#
# Indices 1 2 3 4 5 6 
#
# 1 0.117449 -0.096686 -0.001169 0.000000 0.000000 0.051921
# 2 -0.096686 0.117449 -0.001169 0.000000 0.000000 -0.051921
# 3 -0.001169 -0.001169 0.010709 0.000000 0.000000 0.000000
# 4 0.000000 0.000000 0.000000 0.022014 0.000000 0.000000
# 5 0.000000 0.000000 0.000000 0.000000 0.022014 0.000000
# 6 0.051921 -0.051921 0.000000 0.000000 0.000000 0.051784
#
#
# Mechanical properties :
#
#
# Convention : Reuss Voigt Hill
#
# Bulk Modulus (GPa) = 21.02565 23.70496 22.36531
# Shear Modulus (GPa) = 9.00386 33.81509 21.40947
#
# Velocity S-wave (km/s) = 2.15043 4.16741 3.31600
# Velocity P-wave (km/s) = 4.11880 5.94401 5.11350
#
# Compressibility (1/GPa) = 0.04756095
#
# Stress axis : x y z
#
# Youngs Moduli (GPa) = 8.51436 8.51436 93.37729
#
# Poissons Ratio (x) = 0.82322 0.10912
# Poissons Ratio (y) = 0.82322 0.10912
# Poissons Ratio (z) = 0.00995 0.00995
#
# Static dielectric constant tensor:
#      x y z
#    x 1.671260 0.000000 0.000000 
#    y 0.000000 1.671260 0.000000 
#    z 0.000000 0.000000 1.745050 
# 
# From -- ./inp_files/1107.got.cif
#   From: 2010.05.17/outbox.cif.g08.bks.cpg/sg84_1_cif.got.tgz:1107.got - 2010.06.03 18:57:40.
