data_PCOD9544900
_publ_section_title
;
Structure prediction by ZEFSAII (Michael W. Deem and Ramdas Pophale) SiO2 
 PCOD9544900
Probable space group: P 42/N
;
_chemical_formula_sum "Si O2"
_cell_formula_units_Z 54
_cell_length_a 16.150724
_cell_length_b 16.150724
_cell_length_c 11.297581
_cell_angle_alpha 90.000000
_cell_angle_beta 90.000000
_cell_angle_gamma 90.000000
_cell_volume 2946.927522
_symmetry_space_group_name_H-M "P 42/N"
_symmetry_group_IT_number 86
_space_group.IT_coordinate_system_code '2'
_symmetry_cell_setting 'tetragonal'
loop_
_space_group_symop_operation_xyz
x,y,z
-y,1/2+x,1/2+z
1/2-x,1/2-y,z
1/2+y,-x,1/2+z
-x,-y,-z
y,1/2-x,1/2-z
1/2+x,1/2+y,-z
1/2-y,x,1/2-z
loop_
_atom_site_type_symbol
_atom_site_label
_atom_site_fract_x
_atom_site_fract_y
_atom_site_fract_z
Si Si1 0.750000 0.750000 0.250000
Si Si2 0.222660 0.577641 0.321502
Si Si3 0.750000 0.250000 0.312706
Si Si4 0.119279 0.677193 0.038612
Si Si5 0.657479 0.527935 0.286294
Si Si6 0.454858 0.921145 0.444313
Si Si7 0.409885 0.294897 0.641588
Si Si8 0.030606 0.752453 0.563421
O O1 0.759340 0.827633 0.164026
O O2 0.231549 0.670917 0.268584
O O3 0.293533 0.574793 0.420060
O O4 0.135774 0.563180 0.387752
O O5 0.233745 0.522431 0.204088
O O6 0.752096 0.329758 0.398916
O O7 0.188791 0.606720 0.021422
O O8 0.049769 0.646280 0.128513
O O9 0.610434 0.510236 0.164845
O O10 0.754620 0.534512 0.247024
O O11 0.619912 0.611212 0.342221
O O12 0.450892 0.843223 0.533818
O O13 0.500000 0.000000 0.500000
O O14 0.453673 0.279551 0.517441
#
# Coordination Sequence:
#
# PCOD9544900 Si02
#       8
#     2   8   4   8   8   8   8   8
#     4   8  16  40  64  88 102 164 220 264 310 368
#     4  11  21  37  57  91 125 164 200 244 316 377
#     4  10  18  36  58  84 128 160 204 238 296 374
#     4  11  22  35  61  91 127 164 199 244 317 387
#     4  10  21  40  60  93 114 161 215 259 311 375
#     4  11  23  40  60  87 126 165 211 258 308 375
#     4   9  20  37  65  83 119 152 213 270 307 357
#     4  10  22  40  58  92 125 160 203 262 314 373
#
# _framework density 18.324171
#
# number of rings (size 3 to 8) (size 9 to 14) (size 15 to 20)
#    0.000    1.778    2.963    3.111    4.148    1.778 
#    2.667    0.000    0.000    0.000    0.000    0.000 
#    0.000    0.000    0.000    0.000    0.000    0.000 
#
# Total GULP energy -300883.336320 kJ/mol
# GULP energy per Si atom -5571.913636 kJ/mol
# Density = 1.828246 g / cm^3
# Si number density = 18.324171 Si / 1000 Ang^3
#
#
#
# Elastic Constant Matrix: (Units=GPa)
#
#
# Indices 1 2 3 4 5 6 
#
# 1 90.0065 46.6099 50.9142 0.0000 0.0000 -3.7006
# 2 46.6099 90.0065 50.9142 0.0000 0.0000 3.7006
# 3 50.9142 50.9142 108.8332 0.0000 0.0000 0.0000
# 4 0.0000 0.0000 0.0000 28.3475 0.0000 0.0000
# 5 0.0000 0.0000 0.0000 0.0000 28.3475 0.0000
# 6 -3.7006 3.7006 0.0000 0.0000 0.0000 25.9616
#
#
#
# Elastic Compliance Matrix: (Units=1/GPa)
#
#
# Indices 1 2 3 4 5 6 
#
# 1 0.017428 -0.006189 -0.005258 0.000000 0.000000 0.003366
# 2 -0.006189 0.017428 -0.005258 0.000000 0.000000 -0.003366
# 3 -0.005258 -0.005258 0.014108 0.000000 0.000000 0.000000
# 4 0.000000 0.000000 0.000000 0.035277 0.000000 0.000000
# 5 0.000000 0.000000 0.000000 0.000000 0.035277 0.000000
# 6 0.003366 -0.003366 0.000000 0.000000 0.000000 0.039478
#
#
# Mechanical properties :
#
#
# Convention : Reuss Voigt Hill
#
# Bulk Modulus (GPa) = 64.29093 65.08029 64.68561
# Shear Modulus (GPa) = 25.30508 25.89184 25.59846
#
# Velocity S-wave (km/s) = 3.72017 3.76305 3.74167
# Velocity P-wave (km/s) = 7.32218 7.38065 7.35147
#
# Compressibility (1/GPa) = 0.01555429
#
# Stress axis : x y z
#
# Youngs Moduli (GPa) = 57.37890 57.37890 70.88380
#
# Poissons Ratio (x) = 0.35514 0.37268
# Poissons Ratio (y) = 0.35514 0.37268
# Poissons Ratio (z) = 0.30168 0.30168
#
# Static dielectric constant tensor:
#      x y z
#    x 1.661800 0.000000 0.000000 
#    y 0.000000 1.661800 0.000000 
#    z 0.000000 0.000000 1.653600 
# 
# From -- ./inp_files/2402.got.cif
#   From: 2010.05.17/outbox.cif.g08.bks.cpg/sg86_2_cif.got.tgz:2402.got - 2010.06.03 19:03:11.
