data_PCOD9544414
_publ_section_title
;
Structure prediction by ZEFSAII (Michael W. Deem and Ramdas Pophale) SiO2 
 PCOD9544414
Probable space group: P 42/M
;
_chemical_formula_sum "Si O2"
_cell_formula_units_Z 40
_cell_length_a 14.719322
_cell_length_b 14.719322
_cell_length_c 9.443589
_cell_angle_alpha 90.000000
_cell_angle_beta 90.000000
_cell_angle_gamma 90.000000
_cell_volume 2046.033262
_symmetry_space_group_name_H-M "P 42/M"
_symmetry_group_IT_number 84
_symmetry_cell_setting 'tetragonal'
loop_
_space_group_symop_operation_xyz
x,y,z
-y,x,1/2+z
-x,-y,z
y,-x,1/2+z
-x,-y,-z
y,-x,1/2-z
x,y,-z
-y,x,1/2-z
loop_
_atom_site_type_symbol
_atom_site_label
_atom_site_fract_x
_atom_site_fract_y
_atom_site_fract_z
Si Si1 0.781297 0.540086 0.739195
Si Si2 0.120902 0.937245 0.325607
Si Si3 0.065885 0.588466 0.837015
Si Si4 0.467591 0.656921 0.500000
Si Si5 0.532952 0.365055 0.000000
Si Si6 0.922949 0.699159 0.331857
O O1 0.841159 0.451155 0.774491
O O2 0.702989 0.526939 0.628273
O O3 0.849153 0.619516 0.690357
O O4 0.721349 0.561696 0.873973
O O5 0.114400 0.939443 0.500000
O O6 0.214912 0.897627 0.265841
O O7 0.037052 0.886040 0.248688
O O8 0.000000 0.500000 0.843431
O O9 0.016482 0.659439 0.734390
O O10 0.075806 0.621343 0.000000
O O11 0.573520 0.624345 0.500000
O O12 0.422160 0.558974 0.500000
O O13 0.930520 0.720172 0.500000
#
# Coordination Sequence:
#
# PCOD9544414 Si02
#       6
#     8   8   8   4   4   8
#     4  11  22  41  65  93 129 164 222 275 326 392
#     4  11  23  44  70  95 133 174 211 253 317 388
#     4   9  19  36  61  88 125 168 204 259 333 385
#     4  11  24  44  67  88 130 175 222 271 341 399
#     4  11  24  44  65  94 124 177 220 275 337 399
#     4  11  23  40  64  97 134 170 217 272 325 384
#
# _framework density 19.550025000000002
#
# number of rings (size 3 to 8) (size 9 to 14) (size 15 to 20)
#    0.000    1.400    2.000    4.200    4.200    2.800 
#    7.200    0.000    0.000    0.000    0.000    0.000 
#    0.000    0.000    0.000    0.000    0.000    0.000 
#
# Total GULP energy -222909.313773 kJ/mol
# GULP energy per Si atom -5572.732844 kJ/mol
# Density = 1.950553 g / cm^3
# Si number density = 19.550025 Si / 1000 Ang^3
#
#
#
# Elastic Constant Matrix: (Units=GPa)
#
#
# Indices 1 2 3 4 5 6 
#
# 1 59.7033 3.0611 20.1201 0.0000 0.0000 -7.5696
# 2 3.0611 59.7033 20.1201 0.0000 0.0000 7.5696
# 3 20.1201 20.1201 184.3059 0.0000 0.0000 0.0000
# 4 0.0000 0.0000 0.0000 44.7958 0.0000 0.0000
# 5 0.0000 0.0000 0.0000 0.0000 44.7958 0.0000
# 6 -7.5696 7.5696 0.0000 0.0000 0.0000 10.9056
#
#
#
# Elastic Compliance Matrix: (Units=1/GPa)
#
#
# Indices 1 2 3 4 5 6 
#
# 1 0.019404 -0.002272 -0.001870 0.000000 0.000000 0.015045
# 2 -0.002272 0.019404 -0.001870 0.000000 0.000000 -0.015045
# 3 -0.001870 -0.001870 0.005834 0.000000 0.000000 0.000000
# 4 0.000000 0.000000 0.000000 0.022324 0.000000 0.000000
# 5 0.000000 0.000000 0.000000 0.000000 0.022324 0.000000
# 6 0.015045 -0.015045 0.000000 0.000000 0.000000 0.112582
#
#
# Mechanical properties :
#
#
# Convention : Reuss Voigt Hill
#
# Bulk Modulus (GPa) = 30.65925 43.36834 37.01380
# Shear Modulus (GPa) = 22.24514 37.46019 29.85267
#
# Velocity S-wave (km/s) = 3.37687 4.38210 3.91191
# Velocity P-wave (km/s) = 5.56065 6.91630 6.27519
#
# Compressibility (1/GPa) = 0.03261658
#
# Stress axis : x y z
#
# Youngs Moduli (GPa) = 51.53622 51.53622 171.40621
#
# Poissons Ratio (x) = 0.11710 0.32057
# Poissons Ratio (y) = 0.11710 0.32057
# Poissons Ratio (z) = 0.09638 0.09638
#
# Static dielectric constant tensor:
#      x y z
#    x 1.642360 0.000000 0.000000 
#    y 0.000000 1.642360 0.000000 
#    z 0.000000 0.000000 1.607800 
# 
# From -- ./inp_files/821.got.cif
#   From: 2010.05.17/outbox.cif.g08.bks.cpg/sg84_1_cif.got.tgz:821.got - 2010.06.03 18:57:40.
