data_PCOD9544190
_publ_section_title
;
Structure prediction by ZEFSAII (Michael W. Deem and Ramdas Pophale) SiO2 
 PCOD9544190
Probable space group: P 42/M
;
_chemical_formula_sum "Si O2"
_cell_formula_units_Z 48
_cell_length_a 9.392202
_cell_length_b 9.392202
_cell_length_c 28.261214
_cell_angle_alpha 90.000000
_cell_angle_beta 90.000000
_cell_angle_gamma 90.000000
_cell_volume 2493.019426
_symmetry_space_group_name_H-M "P 42/M"
_symmetry_group_IT_number 84
_symmetry_cell_setting 'tetragonal'
loop_
_space_group_symop_operation_xyz
x,y,z
-y,x,1/2+z
-x,-y,z
y,-x,1/2+z
-x,-y,-z
y,-x,1/2-z
x,y,-z
-y,x,1/2-z
loop_
_atom_site_type_symbol
_atom_site_label
_atom_site_fract_x
_atom_site_fract_y
_atom_site_fract_z
Si Si1 0.612670 0.889543 0.054748
Si Si2 0.798529 0.190879 0.364946
Si Si3 0.378165 0.403260 0.445545
Si Si4 0.527797 0.841496 0.617140
Si Si5 0.328311 0.010108 0.210828
Si Si6 0.897574 0.228894 0.186108
O O1 0.751561 0.869842 0.086741
O O2 0.511299 0.752172 0.053616
O O3 0.500000 0.000000 0.076186
O O4 0.647236 0.928162 0.000000
O O5 0.630147 0.212911 0.372064
O O6 0.859599 0.288843 0.323426
O O7 0.823565 0.027453 0.348001
O O8 0.500000 0.500000 0.423275
O O9 0.414564 0.368304 0.500000
O O10 0.379006 0.257658 0.416950
O O11 0.619174 0.854733 0.664582
O O12 0.500000 0.000000 0.597058
O O13 0.237590 0.876291 0.189841
O O14 0.500000 0.000000 0.213735
O O15 0.259386 0.038558 0.262195
#
# Coordination Sequence:
#
# PCOD9544190 Si02
#       6
#     8   8   8   8   8   8
#     4  10  22  40  64  99 137 171 216 266 316 389
#     4  11  22  40  67  95 124 170 210 260 326 374
#     4  10  20  38  65  91 125 173 213 256 321 383
#     4  10  23  40  60  92 131 161 208 272 316 375
#     4  12  25  43  67  92 124 171 217 260 326 391
#     4  11  25  44  65  91 128 164 214 272 316 390
#
# _framework density 19.25376
#
# number of rings (size 3 to 8) (size 9 to 14) (size 15 to 20)
#    0.000    1.333    3.333    2.500    4.667    0.333 
#    0.000    2.500    0.000    2.000    0.000    0.000 
#    0.000    0.000    0.000    0.000    0.000    0.000 
#
# Total GULP energy -267525.113076 kJ/mol
# GULP energy per Si atom -5573.439856 kJ/mol
# Density = 1.920994 g / cm^3
# Si number density = 19.253760 Si / 1000 Ang^3
#
#
#
# Elastic Constant Matrix: (Units=GPa)
#
#
# Indices 1 2 3 4 5 6 
#
# 1 73.7576 34.3148 22.4911 0.0000 0.0000 12.6296
# 2 34.3148 73.7576 22.4911 0.0000 0.0000 -12.6296
# 3 22.4911 22.4911 83.3433 0.0000 0.0000 0.0000
# 4 0.0000 0.0000 0.0000 32.8295 0.0000 0.0000
# 5 0.0000 0.0000 0.0000 0.0000 32.8295 0.0000
# 6 12.6296 -12.6296 0.0000 0.0000 0.0000 30.6278
#
#
#
# Elastic Compliance Matrix: (Units=1/GPa)
#
#
# Indices 1 2 3 4 5 6 
#
# 1 0.022437 -0.012013 -0.002813 0.000000 0.000000 -0.014206
# 2 -0.012013 0.022437 -0.002813 0.000000 0.000000 0.014206
# 3 -0.002813 -0.002813 0.013517 0.000000 0.000000 0.000000
# 4 0.000000 0.000000 0.000000 0.030460 0.000000 0.000000
# 5 0.000000 0.000000 0.000000 0.000000 0.030460 0.000000
# 6 -0.014206 0.014206 0.000000 0.000000 0.000000 0.044366
#
#
# Mechanical properties :
#
#
# Convention : Reuss Voigt Hill
#
# Bulk Modulus (GPa) = 43.26647 43.27249 43.26948
# Shear Modulus (GPa) = 24.19413 29.36144 26.77778
#
# Velocity S-wave (km/s) = 3.54869 3.90932 3.73336
# Velocity P-wave (km/s) = 6.26988 6.54986 6.41140
#
# Compressibility (1/GPa) = 0.02311259
#
# Stress axis : x y z
#
# Youngs Moduli (GPa) = 44.56852 44.56852 73.98204
#
# Poissons Ratio (x) = 0.53542 0.20811
# Poissons Ratio (y) = 0.53542 0.20811
# Poissons Ratio (z) = 0.12537 0.12537
#
# Static dielectric constant tensor:
#      x y z
#    x 1.676400 0.000000 0.000000 
#    y 0.000000 1.676400 0.000000 
#    z 0.000000 0.000000 1.672170 
# 
# From -- ./inp_files/5794.got.cif
#   From: 2010.05.17/outbox.cif.g08.bks.cpg/sg84_3_cif.got.tgz:5794.got - 2010.06.03 18:57:40.
