data_PCOD9544560
_publ_section_title
;
Structure prediction by ZEFSAII (Michael W. Deem and Ramdas Pophale) SiO2 
 PCOD9544560
Probable space group: P 4/N
;
_chemical_formula_sum "Si O2"
_cell_formula_units_Z 34
_cell_length_a 10.480228
_cell_length_b 10.480228
_cell_length_c 14.051816
_cell_angle_alpha 90.000000
_cell_angle_beta 90.000000
_cell_angle_gamma 90.000000
_cell_volume 1543.383725
_symmetry_space_group_name_H-M "P 4/N"
_symmetry_group_IT_number 85
_symmetry_cell_setting 'tetragonal'
loop_
_space_group_symop_operation_xyz
x,y,z
1/2-y,x,z
1/2-x,1/2-y,z
y,1/2-x,z
-x,-y,-z
1/2+y,-x,-z
1/2+x,1/2+y,-z
-y,1/2+x,-z
loop_
_atom_site_type_symbol
_atom_site_label
_atom_site_fract_x
_atom_site_fract_y
_atom_site_fract_z
Si Si1 0.198275 0.447734 0.805104
Si Si2 0.750000 0.250000 0.500000
Si Si3 0.601522 0.616944 0.610312
Si Si4 0.889832 0.398540 0.032948
Si Si5 0.140031 0.494651 0.597875
O O1 0.100434 0.336874 0.835858
O O2 0.146902 0.572687 0.856887
O O3 0.212758 0.455308 0.691413
O O4 0.868900 0.192344 0.559556
O O5 0.741239 0.576362 0.643969
O O6 0.507035 0.505460 0.634061
O O7 0.594016 0.629216 0.494924
O O8 0.922624 0.248704 0.018224
O O9 0.000000 0.500000 0.000000
#
# Coordination Sequence:
#
# PCOD9544560 Si02
#       5
#     8   2   8   8   8
#     4  11  24  43  71 104 134 176 238 292 348 436
#     4  12  24  40  56  92 130 184 224 288 344 412
#     4  10  20  37  57  81 122 176 224 266 332 399
#     4  11  24  47  77 108 145 189 227 289 374 439
#     4  11  23  38  60  90 130 179 224 288 337 394
#
# _framework density 22.029520000000002
#
# number of rings (size 3 to 8) (size 9 to 14) (size 15 to 20)
#    0.000    1.176    4.706    1.412    3.294    4.235 
#    4.235    0.000    0.000    0.000    0.000    0.000 
#    0.000    0.000    0.000    0.000    0.000    0.000 
#
# Total GULP energy -189622.606194 kJ/mol
# GULP energy per Si atom -5577.135476 kJ/mol
# Density = 2.197938 g / cm^3
# Si number density = 22.029520 Si / 1000 Ang^3
#
#
#
# Elastic Constant Matrix: (Units=GPa)
#
#
# Indices 1 2 3 4 5 6 
#
# 1 119.4936 40.8789 8.8258 0.0000 0.0000 -2.4706
# 2 40.8789 119.4936 8.8258 0.0000 0.0000 2.4706
# 3 8.8258 8.8258 48.2849 0.0000 0.0000 0.0000
# 4 0.0000 0.0000 0.0000 24.9478 0.0000 0.0000
# 5 0.0000 0.0000 0.0000 0.0000 24.9478 0.0000
# 6 -2.4706 2.4706 0.0000 0.0000 0.0000 32.2958
#
#
#
# Elastic Compliance Matrix: (Units=1/GPa)
#
#
# Indices 1 2 3 4 5 6 
#
# 1 0.009573 -0.003209 -0.001163 0.000000 0.000000 0.000978
# 2 -0.003209 0.009573 -0.001163 0.000000 0.000000 -0.000978
# 3 -0.001163 -0.001163 0.021136 0.000000 0.000000 0.000000
# 4 0.000000 0.000000 0.000000 0.040084 0.000000 0.000000
# 5 0.000000 0.000000 0.000000 0.000000 0.040084 0.000000
# 6 0.000978 -0.000978 0.000000 0.000000 0.000000 0.031113
#
#
# Mechanical properties :
#
#
# Convention : Reuss Voigt Hill
#
# Bulk Modulus (GPa) = 34.23487 44.92592 39.58040
# Shear Modulus (GPa) = 29.00754 31.68774 30.34764
#
# Velocity S-wave (km/s) = 3.63265 3.79677 3.71562
# Velocity P-wave (km/s) = 5.75926 6.29749 6.03438
#
# Compressibility (1/GPa) = 0.02920998
#
# Stress axis : x y z
#
# Youngs Moduli (GPa) = 104.46474 104.46474 47.31348
#
# Poissons Ratio (x) = 0.33524 0.05503
# Poissons Ratio (y) = 0.33524 0.05503
# Poissons Ratio (z) = 0.12151 0.12151
#
# Static dielectric constant tensor:
#      x y z
#    x 1.841120 0.000000 0.000000 
#    y 0.000000 1.841120 0.000000 
#    z 0.000000 0.000000 1.795230 
# 
# From -- ./inp_files/1481.got.cif
#   From: 2010.05.17/outbox.cif.g08.bks.cpg/sg85_cif.got.tgz:1481.got - 2010.06.03 19:01:16.
