data_PCOD9544268
_publ_section_title
;
Structure prediction by ZEFSAII (Michael W. Deem and Ramdas Pophale) SiO2 
 PCOD9544268
Probable space group: P 42/M
;
_chemical_formula_sum "Si O2"
_cell_formula_units_Z 34
_cell_length_a 8.365893
_cell_length_b 8.365893
_cell_length_c 21.781445
_cell_angle_alpha 90.000000
_cell_angle_beta 90.000000
_cell_angle_gamma 90.000000
_cell_volume 1524.443382
_symmetry_space_group_name_H-M "P 42/M"
_symmetry_group_IT_number 84
_symmetry_cell_setting 'tetragonal'
loop_
_space_group_symop_operation_xyz
x,y,z
-y,x,1/2+z
-x,-y,z
y,-x,1/2+z
-x,-y,-z
y,-x,1/2-z
x,y,-z
-y,x,1/2-z
loop_
_atom_site_type_symbol
_atom_site_label
_atom_site_fract_x
_atom_site_fract_y
_atom_site_fract_z
Si Si1 0.690494 0.976063 0.431840
Si Si2 0.327740 0.679704 0.272175
Si Si3 0.840714 0.107107 0.823726
Si Si4 0.686074 0.831736 0.895538
Si Si5 0.500000 0.000000 0.000000
O O1 0.726565 0.906549 0.500000
O O2 0.782200 0.145737 0.426883
O O3 0.500000 0.000000 0.427246
O O4 0.757368 0.876014 0.374801
O O5 0.511693 0.715304 0.258842
O O6 0.222227 0.815044 0.238920
O O7 0.301703 0.657002 0.344330
O O8 0.712585 0.989673 0.854169
O O9 0.000000 0.000000 0.818183
O O10 0.558706 0.872911 0.946510
#
# Coordination Sequence:
#
# PCOD9544268 Si02
#       5
#     8   8   8   8   2
#     4  10  21  40  67  97 134 178 229 285 348 416
#     4  11  25  46  69  99 139 180 230 289 359 420
#     4  10  24  40  68 100 135 177 231 289 350 412
#     4  11  24  40  68  95 135 180 224 290 343 419
#     4  12  24  44  60  98 134 176 232 272 354 414
#
# _framework density 22.303225000000001
#
# number of rings (size 3 to 8) (size 9 to 14) (size 15 to 20)
#    0.000    1.412    1.176    2.824    8.235    1.412 
#    2.118    0.000    0.000    4.235    0.000    0.000 
#    0.000    0.000    0.000    0.000    0.000    0.000 
#
# Total GULP energy -189609.402015 kJ/mol
# GULP energy per Si atom -5576.747118 kJ/mol
# Density = 2.225246 g / cm^3
# Si number density = 22.303225 Si / 1000 Ang^3
#
#
#
# Elastic Constant Matrix: (Units=GPa)
#
#
# Indices 1 2 3 4 5 6 
#
# 1 49.7432 4.0019 17.6689 0.0000 0.0000 2.3483
# 2 4.0019 49.7432 17.6689 0.0000 0.0000 -2.3483
# 3 17.6689 17.6689 137.1640 0.0000 0.0000 0.0000
# 4 0.0000 0.0000 0.0000 -7.3501 0.0000 0.0000
# 5 0.0000 0.0000 0.0000 0.0000 -7.3501 0.0000
# 6 2.3483 -2.3483 0.0000 0.0000 0.0000 26.0746
#
#
#
# Elastic Compliance Matrix: (Units=1/GPa)
#
#
# Indices 1 2 3 4 5 6 
#
# 1 0.021197 -0.000869 -0.002619 0.000000 0.000000 -0.001987
# 2 -0.000869 0.021197 -0.002619 0.000000 0.000000 0.001987
# 3 -0.002619 -0.002619 0.007965 0.000000 0.000000 0.000000
# 4 0.000000 0.000000 0.000000 -0.136052 0.000000 0.000000
# 5 0.000000 0.000000 0.000000 0.000000 -0.136052 0.000000
# 6 -0.001987 0.001987 0.000000 0.000000 0.000000 0.038709
#
#
# Mechanical properties :
#
#
# Convention : Reuss Voigt Hill
#
# Bulk Modulus (GPa) = 26.21435 35.03661 30.62548
# Shear Modulus (GPa) = -31.62414 15.42892 -8.09761
#
# Velocity S-wave (km/s) = -3.76961 2.63302 -1.90750
# Velocity P-wave (km/s) = 2.67722 4.99871 2.98493
#
# Compressibility (1/GPa) = 0.03814705
#
# Stress axis : x y z
#
# Youngs Moduli (GPa) = 47.17625 47.17625 125.54660
#
# Poissons Ratio (x) = 0.04100 0.32875
# Poissons Ratio (y) = 0.04100 0.32875
# Poissons Ratio (z) = 0.12353 0.12353
#
# Static dielectric constant tensor:
#      x y z
#    x 1.833950 0.000000 0.000000 
#    y 0.000000 1.833950 0.000000 
#    z 0.000000 0.000000 1.844630 
# 
# From -- ./inp_files/4233.got.cif
#   From: 2010.05.17/outbox.cif.g08.bks.cpg/sg84_3_cif.got.tgz:4233.got - 2010.06.03 18:57:40.
