data_PCOD9544016
_publ_section_title
;
Structure prediction by ZEFSAII (Michael W. Deem and Ramdas Pophale) SiO2 
 PCOD9544016
Probable space group: P 42/M
;
_chemical_formula_sum "Si O2"
_cell_formula_units_Z 56
_cell_length_a 11.287915
_cell_length_b 11.287915
_cell_length_c 24.105884
_cell_angle_alpha 90.000000
_cell_angle_beta 90.000000
_cell_angle_gamma 90.000000
_cell_volume 3071.500025
_symmetry_space_group_name_H-M "P 42/M"
_symmetry_group_IT_number 84
_symmetry_cell_setting 'tetragonal'
loop_
_space_group_symop_operation_xyz
x,y,z
-y,x,1/2+z
-x,-y,z
y,-x,1/2+z
-x,-y,-z
y,-x,1/2-z
x,y,-z
-y,x,1/2-z
loop_
_atom_site_type_symbol
_atom_site_label
_atom_site_fract_x
_atom_site_fract_y
_atom_site_fract_z
Si Si1 0.309841 0.058498 0.935840
Si Si2 0.699921 0.520967 0.251227
Si Si3 0.757394 0.588269 0.133218
Si Si4 0.769485 0.461165 0.369579
Si Si5 0.843146 0.155340 0.064058
Si Si6 0.336658 0.631997 0.063692
Si Si7 0.092237 0.244095 0.935744
O O1 0.415525 0.112590 0.899705
O O2 0.203102 0.154469 0.937036
O O3 0.247042 0.941317 0.911718
O O4 0.348304 0.038927 0.000000
O O5 0.623737 0.400085 0.242538
O O6 0.775047 0.545787 0.196114
O O7 0.775285 0.511835 0.307406
O O8 0.654904 0.687199 0.135654
O O9 0.701307 0.482707 0.097542
O O10 0.868773 0.645980 0.102069
O O11 0.699889 0.554672 0.407706
O O12 0.774183 0.278642 0.064109
O O13 0.975021 0.177046 0.085966
O O14 0.860070 0.114686 0.000000
O O15 0.365883 0.602884 0.000000
O O16 0.069612 0.280742 0.000000
#
# Coordination Sequence:
#
# PCOD9544016 Si02
#       7
#     8   8   8   8   8   8   8
#     4   9  17  31  52  77 103 134 176 221 263 312
#     4   9  16  30  50  73 100 134 175 210 261 320
#     4  10  19  31  50  78 102 137 173 219 261 315
#     4  10  19  31  50  78 102 137 173 219 261 315
#     4   9  19  33  49  71 103 143 175 207 262 320
#     4  11  21  31  47  75 111 143 167 209 270 320
#     4   9  17  31  52  77 103 134 176 221 263 312
#
# _framework density 18.232133000000001
#
# number of rings (size 3 to 8) (size 9 to 14) (size 15 to 20)
#    0.000    2.429    1.429    1.714    0.000    5.143 
#    0.000    4.286    0.000    3.429    0.000    0.000 
#    4.286    0.000    0.000    0.000    0.000    0.000 
#
# Total GULP energy -312243.684083 kJ/mol
# GULP energy per Si atom -5575.780073 kJ/mol
# Density = 1.819064 g / cm^3
# Si number density = 18.232133 Si / 1000 Ang^3
#
#
#
# Elastic Constant Matrix: (Units=GPa)
#
#
# Indices 1 2 3 4 5 6 
#
# 1 28.5876 34.3216 26.7740 0.0000 0.0000 -0.4162
# 2 34.3216 28.5876 26.7740 0.0000 0.0000 0.4162
# 3 26.7740 26.7740 105.3364 0.0000 0.0000 0.0000
# 4 0.0000 0.0000 0.0000 -0.4798 0.0000 0.0000
# 5 0.0000 0.0000 0.0000 0.0000 -0.4798 0.0000
# 6 -0.4162 0.4162 0.0000 0.0000 0.0000 25.3905
#
#
#
# Elastic Compliance Matrix: (Units=1/GPa)
#
#
# Indices 1 2 3 4 5 6 
#
# 1 -0.076850 0.097135 -0.005156 0.000000 0.000000 -0.002852
# 2 0.097135 -0.076850 -0.005156 0.000000 0.000000 0.002852
# 3 -0.005156 -0.005156 0.012114 0.000000 0.000000 0.000000
# 4 0.000000 0.000000 0.000000 -2.084188 0.000000 0.000000
# 5 0.000000 0.000000 0.000000 0.000000 -2.084188 0.000000
# 6 -0.002852 0.002852 0.000000 0.000000 0.000000 0.039291
#
#
# Mechanical properties :
#
#
# Convention : Reuss Voigt Hill
#
# Bulk Modulus (GPa) = 31.19141 37.58343 34.38742
# Shear Modulus (GPa) = -1.12774 9.86231 4.36728
#
# Velocity S-wave (km/s) = -0.78733 2.32831 1.54938
# Velocity P-wave (km/s) = 4.03962 5.28078 4.70134
#
# Compressibility (1/GPa) = 0.03206011
#
# Stress axis : x y z
#
# Youngs Moduli (GPa) = -13.01232 -13.01232 82.54641
#
# Poissons Ratio (x) = 1.26395 0.42560
# Poissons Ratio (y) = 1.26395 0.42560
# Poissons Ratio (z) = -0.06709 -0.06709
#
# Static dielectric constant tensor:
#      x y z
#    x 1.636740 0.000000 0.000000 
#    y 0.000000 1.636740 0.000000 
#    z 0.000000 0.000000 1.627330 
# 
# From -- ./inp_files/5048.got.cif
#   From: 2010.05.17/outbox.cif.g08.bks.cpg/sg84_3_cif.got.tgz:5048.got - 2010.06.03 18:57:40.
