data_PCOD9544741
_publ_section_title
;
Structure prediction by ZEFSAII (Michael W. Deem and Ramdas Pophale) SiO2 
 PCOD9544741
Probable space group: P 4/N
;
_chemical_formula_sum "Si O2"
_cell_formula_units_Z 58
_cell_length_a 18.120620
_cell_length_b 18.120620
_cell_length_c 8.947664
_cell_angle_alpha 90.000000
_cell_angle_beta 90.000000
_cell_angle_gamma 90.000000
_cell_volume 2938.026938
_symmetry_space_group_name_H-M "P 4/N"
_symmetry_group_IT_number 85
_symmetry_cell_setting 'tetragonal'
loop_
_space_group_symop_operation_xyz
x,y,z
1/2-y,x,z
1/2-x,1/2-y,z
y,1/2-x,z
-x,-y,-z
1/2+y,-x,-z
1/2+x,1/2+y,-z
-y,1/2+x,-z
loop_
_atom_site_type_symbol
_atom_site_label
_atom_site_fract_x
_atom_site_fract_y
_atom_site_fract_z
Si Si1 0.271162 0.370852 0.225009
Si Si2 0.250000 0.750000 0.000000
Si Si3 0.630515 0.781273 0.423480
Si Si4 0.856008 0.301771 0.499046
Si Si5 0.129601 0.670385 0.824247
Si Si6 0.272842 0.989029 0.055034
Si Si7 0.811005 0.019602 0.251214
Si Si8 0.447647 0.565581 0.948293
O O1 0.192194 0.331642 0.198523
O O2 0.280230 0.390228 0.400254
O O3 0.271658 0.441100 0.119228
O O4 0.191433 0.790806 0.107342
O O5 0.663213 0.699132 0.395881
O O6 0.560671 0.803646 0.325775
O O7 0.835607 0.219972 0.440493
O O8 0.873546 0.346971 0.349837
O O9 0.919018 0.298091 0.621861
O O10 0.081135 0.742902 0.855610
O O11 0.092942 0.605937 0.919347
O O12 0.360042 0.993810 0.085905
O O13 0.248952 0.978266 0.882847
O O14 0.891001 0.037694 0.179156
O O15 0.500000 0.500000 0.000000
#
# Coordination Sequence:
#
# PCOD9544741 Si02
#       8
#     8   2   8   8   8   8   8   8
#     4   9  20  39  66  96 122 161 215 269 321 381
#     4  12  20  40  70  96 120 164 230 268 324 372
#     4   9  20  41  66  91 124 162 214 275 330 387
#     4  11  23  39  67  98 129 163 219 271 318 387
#     4  11  23  40  67  91 126 169 210 268 322 376
#     4  11  23  38  63  87 130 169 213 258 318 385
#     4  11  25  41  65  95 130 171 215 265 330 387
#     4  11  26  43  60  92 135 172 216 263 323 388
#
# _framework density 19.741140000000001
#
# number of rings (size 3 to 8) (size 9 to 14) (size 15 to 20)
#    0.000    1.517    1.379    4.138    9.655    0.000 
#    0.000    2.069    0.000    0.000    0.000    0.000 
#    0.000    0.000    0.000    0.000    0.000    0.000 
#
# Total GULP energy -323922.567316 kJ/mol
# GULP energy per Si atom -5584.871850 kJ/mol
# Density = 1.969621 g / cm^3
# Si number density = 19.741140 Si / 1000 Ang^3
#
#
#
# Elastic Constant Matrix: (Units=GPa)
#
#
# Indices 1 2 3 4 5 6 
#
# 1 85.8727 10.5668 44.9958 0.0000 0.0000 0.2286
# 2 10.5668 85.8727 44.9958 0.0000 0.0000 -0.2286
# 3 44.9958 44.9958 104.3990 0.0000 0.0000 0.0000
# 4 0.0000 0.0000 0.0000 25.0267 0.0000 0.0000
# 5 0.0000 0.0000 0.0000 0.0000 25.0267 0.0000
# 6 0.2286 -0.2286 0.0000 0.0000 0.0000 28.6420
#
#
#
# Elastic Compliance Matrix: (Units=1/GPa)
#
#
# Indices 1 2 3 4 5 6 
#
# 1 0.015312 0.002033 -0.007476 0.000000 0.000000 -0.000106
# 2 0.002033 0.015312 -0.007476 0.000000 0.000000 0.000106
# 3 -0.007476 -0.007476 0.016023 0.000000 0.000000 0.000000
# 4 0.000000 0.000000 0.000000 0.039957 0.000000 0.000000
# 5 0.000000 0.000000 0.000000 0.000000 0.039957 0.000000
# 6 -0.000106 0.000106 0.000000 0.000000 0.000000 0.034915
#
#
# Mechanical properties :
#
#
# Convention : Reuss Voigt Hill
#
# Bulk Modulus (GPa) = 48.05378 53.02902 50.54140
# Shear Modulus (GPa) = 25.73979 27.44483 26.59231
#
# Velocity S-wave (km/s) = 3.61483 3.73263 3.67420
# Velocity P-wave (km/s) = 6.46664 6.74516 6.60737
#
# Compressibility (1/GPa) = 0.02081002
#
# Stress axis : x y z
#
# Youngs Moduli (GPa) = 65.30634 65.30634 62.41159
#
# Poissons Ratio (x) = -0.13274 0.46657
# Poissons Ratio (y) = -0.13274 0.46657
# Poissons Ratio (z) = 0.48821 0.48821
#
# Static dielectric constant tensor:
#      x y z
#    x 1.692880 0.000000 0.000000 
#    y 0.000000 1.692880 0.000000 
#    z 0.000000 0.000000 1.695260 
# 
# From -- ./inp_files/1183.got.cif
#   From: 2010.05.17/outbox.cif.g08.bks.cpg/sg85_cif.got.tgz:1183.got - 2010.06.03 19:01:16.
