data_PCOD9544793
_publ_section_title
;
Structure prediction by ZEFSAII (Michael W. Deem and Ramdas Pophale) SiO2 
 PCOD9544793
Probable space group: P 4/N
;
_chemical_formula_sum "Si O2"
_cell_formula_units_Z 32
_cell_length_a 9.252635
_cell_length_b 9.252635
_cell_length_c 18.622685
_cell_angle_alpha 90.000000
_cell_angle_beta 90.000000
_cell_angle_gamma 90.000000
_cell_volume 1594.311424
_symmetry_space_group_name_H-M "P 4/N"
_symmetry_group_IT_number 85
_symmetry_cell_setting 'tetragonal'
loop_
_space_group_symop_operation_xyz
x,y,z
1/2-y,x,z
1/2-x,1/2-y,z
y,1/2-x,z
-x,-y,-z
1/2+y,-x,-z
1/2+x,1/2+y,-z
-y,1/2+x,-z
loop_
_atom_site_type_symbol
_atom_site_label
_atom_site_fract_x
_atom_site_fract_y
_atom_site_fract_z
Si Si1 0.041379 0.379253 0.699036
Si Si2 0.032130 0.153070 0.190674
Si Si3 0.088921 0.437028 0.432340
Si Si4 0.369426 0.916208 0.031307
O O1 0.059249 0.205640 0.697428
O O2 0.938955 0.414124 0.766944
O O3 0.964136 0.464299 0.633916
O O4 0.180672 0.067305 0.208412
O O5 0.985363 0.165541 0.107316
O O6 0.054078 0.264514 0.431813
O O7 0.000000 0.500000 0.500000
O O8 0.416457 0.750373 0.031450
O O9 0.500000 0.000000 0.000000
#
# Coordination Sequence:
#
# PCOD9544793 Si02
#       4
#     8   8   8   8
#     4  11  26  44  65  98 134 173 220 272 327 390
#     4  11  24  43  66  93 128 170 216 273 333 397
#     4  11  24  43  69 102 138 177 221 269 320 383
#     4  11  24  41  64  94 126 166 215 268 333 394
#
# _framework density 20.071361
#
# number of rings (size 3 to 8) (size 9 to 14) (size 15 to 20)
#    0.000    1.000    2.500    3.000    3.500   11.000 
#    0.000    0.000    0.000    0.000    0.000    0.000 
#    0.000    0.000    0.000    0.000    0.000    0.000 
#
# Total GULP energy -178303.112667 kJ/mol
# GULP energy per Si atom -5571.972271 kJ/mol
# Density = 2.002568 g / cm^3
# Si number density = 20.071361 Si / 1000 Ang^3
#
#
#
# Elastic Constant Matrix: (Units=GPa)
#
#
# Indices 1 2 3 4 5 6 
#
# 1 86.9160 57.6945 12.4915 0.0000 0.0000 -0.7632
# 2 57.6945 86.9160 12.4915 0.0000 0.0000 0.7632
# 3 12.4915 12.4915 54.0150 0.0000 0.0000 0.0000
# 4 0.0000 0.0000 0.0000 37.9635 0.0000 0.0000
# 5 0.0000 0.0000 0.0000 0.0000 37.9635 0.0000
# 6 -0.7632 0.7632 0.0000 0.0000 0.0000 39.4327
#
#
#
# Elastic Compliance Matrix: (Units=1/GPa)
#
#
# Indices 1 2 3 4 5 6 
#
# 1 0.020729 -0.013527 -0.001666 0.000000 0.000000 0.000663
# 2 -0.013527 0.020729 -0.001666 0.000000 0.000000 -0.000663
# 3 -0.001666 -0.001666 0.019284 0.000000 0.000000 0.000000
# 4 0.000000 0.000000 0.000000 0.026341 0.000000 0.000000
# 5 0.000000 0.000000 0.000000 0.000000 0.026341 0.000000
# 6 0.000663 -0.000663 0.000000 0.000000 0.000000 0.025385
#
#
# Mechanical properties :
#
#
# Convention : Reuss Voigt Hill
#
# Bulk Modulus (GPa) = 37.00050 43.68910 40.34480
# Shear Modulus (GPa) = 27.54287 32.74990 30.14638
#
# Velocity S-wave (km/s) = 3.70840 4.04378 3.87972
# Velocity P-wave (km/s) = 6.06719 6.60432 6.34145
#
# Compressibility (1/GPa) = 0.02702666
#
# Stress axis : x y z
#
# Youngs Moduli (GPa) = 48.24054 48.24054 51.85700
#
# Poissons Ratio (x) = 0.65253 0.08638
# Poissons Ratio (y) = 0.65253 0.08638
# Poissons Ratio (z) = 0.08036 0.08036
#
# Static dielectric constant tensor:
#      x y z
#    x 1.586660 0.000000 0.000000 
#    y 0.000000 1.586660 0.000000 
#    z 0.000000 0.000000 1.650360 
# 
# From -- ./inp_files/2140.got.cif
#   From: 2010.05.17/outbox.cif.g08.bks.cpg/sg85_cif.got.tgz:2140.got - 2010.06.03 19:01:16.
