data_PCOD9544816
_publ_section_title
;
Structure prediction by ZEFSAII (Michael W. Deem and Ramdas Pophale) SiO2 
 PCOD9544816
Probable space group: P 4/N
;
_chemical_formula_sum "Si O2"
_cell_formula_units_Z 32
_cell_length_a 15.460826
_cell_length_b 15.460826
_cell_length_c 4.653913
_cell_angle_alpha 90.000000
_cell_angle_beta 90.000000
_cell_angle_gamma 90.000000
_cell_volume 1112.458056
_symmetry_space_group_name_H-M "P 4/N"
_symmetry_group_IT_number 85
_symmetry_cell_setting 'tetragonal'
loop_
_space_group_symop_operation_xyz
x,y,z
1/2-y,x,z
1/2-x,1/2-y,z
y,1/2-x,z
-x,-y,-z
1/2+y,-x,-z
1/2+x,1/2+y,-z
-y,1/2+x,-z
loop_
_atom_site_type_symbol
_atom_site_label
_atom_site_fract_x
_atom_site_fract_y
_atom_site_fract_z
Si Si1 0.627340 0.609486 0.766907
Si Si2 0.421137 0.239499 0.772232
Si Si3 0.353364 0.849970 0.055674
Si Si4 0.115315 0.538501 0.555775
O O1 0.687809 0.627584 0.487194
O O2 0.540699 0.572415 0.619202
O O3 0.617771 0.692090 0.987731
O O4 0.668996 0.545608 0.000605
O O5 0.491693 0.291148 0.592920
O O6 0.397421 0.926728 0.872807
O O7 0.365619 0.750539 0.974274
O O8 0.379076 0.874041 0.377045
#
# Coordination Sequence:
#
# PCOD9544816 Si02
#       4
#     8   8   8   8
#     4  12  22  40  61  96 133 178 222 260 307 373
#     4  12  22  40  61  96 133 178 222 260 307 373
#     4  11  24  44  74 102 119 152 214 280 343 394
#     4  12  22  43  63  96 138 168 200 280 326 376
#
# _framework density 28.765132999999999
#
# number of rings (size 3 to 8) (size 9 to 14) (size 15 to 20)
#    0.000    0.250    7.500    1.500    0.000    2.500 
#    9.000    0.000    0.000   30.000    0.000    0.000 
#    0.000    0.000    0.000    0.000    0.000    0.000 
#
# Total GULP energy -178609.101397 kJ/mol
# GULP energy per Si atom -5581.534419 kJ/mol
# Density = 2.869966 g / cm^3
# Si number density = 28.765133 Si / 1000 Ang^3
#
#
#
# Elastic Constant Matrix: (Units=GPa)
#
#
# Indices 1 2 3 4 5 6 
#
# 1 69.5663 1.2741 7.0135 0.0000 0.0000 -9.5355
# 2 1.2741 69.5663 7.0135 0.0000 0.0000 9.5355
# 3 7.0135 7.0135 156.0611 0.0000 0.0000 0.0000
# 4 0.0000 0.0000 0.0000 33.3961 0.0000 0.0000
# 5 0.0000 0.0000 0.0000 0.0000 33.3961 0.0000
# 6 -9.5355 9.5355 0.0000 0.0000 0.0000 29.7823
#
#
#
# Elastic Compliance Matrix: (Units=1/GPa)
#
#
# Indices 1 2 3 4 5 6 
#
# 1 0.015162 -0.000919 -0.000640 0.000000 0.000000 0.005149
# 2 -0.000919 0.015162 -0.000640 0.000000 0.000000 -0.005149
# 3 -0.000640 -0.000640 0.006465 0.000000 0.000000 0.000000
# 4 0.000000 0.000000 0.000000 0.029944 0.000000 0.000000
# 5 0.000000 0.000000 0.000000 0.000000 0.029944 0.000000
# 6 0.005149 -0.005149 0.000000 0.000000 0.000000 0.036874
#
#
# Mechanical properties :
#
#
# Convention : Reuss Voigt Hill
#
# Bulk Modulus (GPa) = 30.87288 36.19954 33.53621
# Shear Modulus (GPa) = 33.61454 37.97441 35.79448
#
# Velocity S-wave (km/s) = 3.42217 3.63733 3.53139
# Velocity P-wave (km/s) = 5.13527 5.50019 5.32086
#
# Compressibility (1/GPa) = 0.03239089
#
# Stress axis : x y z
#
# Youngs Moduli (GPa) = 65.95499 65.95499 154.67235
#
# Poissons Ratio (x) = 0.06060 0.09900
# Poissons Ratio (y) = 0.06060 0.09900
# Poissons Ratio (z) = 0.04222 0.04222
#
# Static dielectric constant tensor:
#      x y z
#    x 2.414190 0.000000 0.000000 
#    y 0.000000 2.414190 0.000000 
#    z 0.000000 0.000000 2.038710 
# 
# From -- ./inp_files/281.got.cif
#   From: 2010.05.17/outbox.cif.g08.bks.cpg/sg85_cif.got.tgz:281.got - 2010.06.03 19:01:16.
