data_PCOD9544691
_publ_section_title
;
Structure prediction by ZEFSAII (Michael W. Deem and Ramdas Pophale) SiO2 
 PCOD9544691
Probable space group: P 4/N
;
_chemical_formula_sum "Si O2"
_cell_formula_units_Z 42
_cell_length_a 14.588119
_cell_length_b 14.588119
_cell_length_c 10.275636
_cell_angle_alpha 90.000000
_cell_angle_beta 90.000000
_cell_angle_gamma 90.000000
_cell_volume 2186.791143
_symmetry_space_group_name_H-M "P 4/N"
_symmetry_group_IT_number 85
_symmetry_cell_setting 'tetragonal'
loop_
_space_group_symop_operation_xyz
x,y,z
1/2-y,x,z
1/2-x,1/2-y,z
y,1/2-x,z
-x,-y,-z
1/2+y,-x,-z
1/2+x,1/2+y,-z
-y,1/2+x,-z
loop_
_atom_site_type_symbol
_atom_site_label
_atom_site_fract_x
_atom_site_fract_y
_atom_site_fract_z
Si Si1 0.648764 0.232533 0.244602
Si Si2 0.112264 0.516901 0.146513
Si Si3 0.321214 0.115251 0.357902
Si Si4 0.811017 0.606535 0.357409
Si Si5 0.901103 0.471164 0.158582
Si Si6 0.250000 0.750000 0.500000
O O1 0.750000 0.250000 0.186789
O O2 0.595153 0.324397 0.208319
O O3 0.605014 0.136958 0.196144
O O4 0.667602 0.227791 0.400296
O O5 0.149108 0.430589 0.225573
O O6 0.003253 0.513769 0.170638
O O7 0.126556 0.517906 0.992074
O O8 0.368865 0.213258 0.359875
O O9 0.337872 0.069161 0.498477
O O10 0.865435 0.703657 0.345627
O O11 0.837168 0.531614 0.251330
#
# Coordination Sequence:
#
# PCOD9544691 Si02
#       6
#     8   8   8   8   8   2
#     4  10  25  44  68  92 139 176 223 282 337 400
#     4  11  25  42  62  97 131 169 230 272 333 411
#     4   9  19  39  63  91 129 171 213 273 340 396
#     4   9  21  39  63  95 133 172 220 276 336 398
#     4  11  26  41  67  99 131 181 226 275 342 402
#     4   8  24  44  66 100 128 176 238 268 340 420
#
# _framework density 19.206223000000001
#
# number of rings (size 3 to 8) (size 9 to 14) (size 15 to 20)
#    0.571    1.524    0.000    2.286    8.000    3.810 
#    3.429    1.905    0.000    0.000    0.000    0.000 
#    0.000    0.000    0.000    0.000    0.000    0.000 
#
# Total GULP energy -233921.332639 kJ/mol
# GULP energy per Si atom -5569.555539 kJ/mol
# Density = 1.916251 g / cm^3
# Si number density = 19.206223 Si / 1000 Ang^3
#
#
#
# Elastic Constant Matrix: (Units=GPa)
#
#
# Indices 1 2 3 4 5 6 
#
# 1 73.7595 33.1728 53.3654 0.0000 0.0000 3.7116
# 2 33.1728 73.7595 53.3654 0.0000 0.0000 -3.7116
# 3 53.3654 53.3654 114.0123 0.0000 0.0000 0.0000
# 4 0.0000 0.0000 0.0000 31.4445 0.0000 0.0000
# 5 0.0000 0.0000 0.0000 0.0000 31.4445 0.0000
# 6 3.7116 -3.7116 0.0000 0.0000 0.0000 34.6600
#
#
#
# Elastic Compliance Matrix: (Units=1/GPa)
#
#
# Indices 1 2 3 4 5 6 
#
# 1 0.021341 -0.003790 -0.008215 0.000000 0.000000 -0.002691
# 2 -0.003790 0.021341 -0.008215 0.000000 0.000000 0.002691
# 3 -0.008215 -0.008215 0.016462 0.000000 0.000000 0.000000
# 4 0.000000 0.000000 0.000000 0.031802 0.000000 0.000000
# 5 0.000000 0.000000 0.000000 0.000000 0.031802 0.000000
# 6 -0.002691 0.002691 0.000000 0.000000 0.000000 0.029428
#
#
# Mechanical properties :
#
#
# Convention : Reuss Voigt Hill
#
# Bulk Modulus (GPa) = 53.46598 60.14873 56.80735
# Shear Modulus (GPa) = 25.14443 27.61830 26.38136
#
# Velocity S-wave (km/s) = 3.62219 3.79619 3.71021
# Velocity P-wave (km/s) = 6.73735 7.11337 6.92791
#
# Compressibility (1/GPa) = 0.01870348
#
# Stress axis : x y z
#
# Youngs Moduli (GPa) = 46.85773 46.85773 60.74751
#
# Poissons Ratio (x) = 0.17758 0.49906
# Poissons Ratio (y) = 0.17758 0.49906
# Poissons Ratio (z) = 0.38495 0.38495
#
# Static dielectric constant tensor:
#      x y z
#    x 1.769360 0.000000 0.000000 
#    y 0.000000 1.769360 0.000000 
#    z 0.000000 0.000000 1.692440 
# 
# From -- ./inp_files/966.got.cif
#   From: 2010.05.17/outbox.cif.g08.bks.cpg/sg85_cif.got.tgz:966.got - 2010.06.03 19:01:16.
