data_PCOD9544686
_publ_section_title
;
Structure prediction by ZEFSAII (Michael W. Deem and Ramdas Pophale) SiO2 
 PCOD9544686
Probable space group: P 4/N
;
_chemical_formula_sum "Si O2"
_cell_formula_units_Z 32
_cell_length_a 11.229722
_cell_length_b 11.229722
_cell_length_c 10.806804
_cell_angle_alpha 90.000000
_cell_angle_beta 90.000000
_cell_angle_gamma 90.000000
_cell_volume 1362.809917
_symmetry_space_group_name_H-M "P 4/N"
_symmetry_group_IT_number 85
_symmetry_cell_setting 'tetragonal'
loop_
_space_group_symop_operation_xyz
x,y,z
1/2-y,x,z
1/2-x,1/2-y,z
y,1/2-x,z
-x,-y,-z
1/2+y,-x,-z
1/2+x,1/2+y,-z
-y,1/2+x,-z
loop_
_atom_site_type_symbol
_atom_site_label
_atom_site_fract_x
_atom_site_fract_y
_atom_site_fract_z
Si Si1 0.318707 0.924177 0.054636
Si Si2 0.080853 0.346031 0.516342
Si Si3 0.555674 0.000394 0.701586
Si Si4 0.416335 0.349845 0.845184
O O1 0.351398 0.946227 0.198353
O O2 0.392639 0.814457 0.992860
O O3 0.355384 0.046338 0.987563
O O4 0.093655 0.207893 0.548228
O O5 0.075501 0.376874 0.370248
O O6 0.972732 0.406093 0.590486
O O7 0.430162 0.991057 0.772884
O O8 0.288656 0.406055 0.816193
#
# Coordination Sequence:
#
# PCOD9544686 Si02
#       4
#     8   8   8   8
#     4  11  25  43  65 104 148 189 224 285 361 431
#     4  10  24  45  70 100 133 184 244 302 349 411
#     4  11  23  42  69  98 138 183 228 290 354 418
#     4  11  23  41  68  99 134 183 234 281 341 418
#
# _framework density 23.480896999999999
#
# number of rings (size 3 to 8) (size 9 to 14) (size 15 to 20)
#    0.000    1.250    2.500    2.250    3.500    2.000 
#    0.000    2.500    0.000    6.750    0.000    0.000 
#    0.000    0.000    0.000    0.000    0.000    0.000 
#
# Total GULP energy -178521.498874 kJ/mol
# GULP energy per Si atom -5578.796840 kJ/mol
# Density = 2.342745 g / cm^3
# Si number density = 23.480897 Si / 1000 Ang^3
#
#
#
# Elastic Constant Matrix: (Units=GPa)
#
#
# Indices 1 2 3 4 5 6 
#
# 1 59.2424 7.7649 33.3989 0.0000 0.0000 -6.0519
# 2 7.7649 59.2424 33.3989 0.0000 0.0000 6.0519
# 3 33.3989 33.3989 145.7180 0.0000 0.0000 0.0000
# 4 0.0000 0.0000 0.0000 40.5392 0.0000 0.0000
# 5 0.0000 0.0000 0.0000 0.0000 40.5392 0.0000
# 6 -6.0519 6.0519 0.0000 0.0000 0.0000 19.9179
#
#
#
# Elastic Compliance Matrix: (Units=1/GPa)
#
#
# Indices 1 2 3 4 5 6 
#
# 1 0.020132 -0.000789 -0.004434 0.000000 0.000000 0.006357
# 2 -0.000789 0.020132 -0.004434 0.000000 0.000000 -0.006357
# 3 -0.004434 -0.004434 0.008895 0.000000 0.000000 0.000000
# 4 0.000000 0.000000 0.000000 0.024668 0.000000 0.000000
# 5 0.000000 0.000000 0.000000 0.000000 0.024668 0.000000
# 6 0.006357 -0.006357 0.000000 0.000000 0.000000 0.054069
#
#
# Mechanical properties :
#
#
# Convention : Reuss Voigt Hill
#
# Bulk Modulus (GPa) = 33.50359 45.92540 39.71450
# Shear Modulus (GPa) = 27.49921 32.84191 30.17056
#
# Velocity S-wave (km/s) = 3.42589 3.74393 3.58844
# Velocity P-wave (km/s) = 5.47251 6.18793 5.84118
#
# Compressibility (1/GPa) = 0.02984754
#
# Stress axis : x y z
#
# Youngs Moduli (GPa) = 49.67219 49.67219 112.42351
#
# Poissons Ratio (x) = 0.03917 0.49844
# Poissons Ratio (y) = 0.03917 0.49844
# Poissons Ratio (z) = 0.22022 0.22022
#
# Static dielectric constant tensor:
#      x y z
#    x 1.901680 0.000000 0.000000 
#    y 0.000000 1.901680 0.000000 
#    z 0.000000 0.000000 1.968750 
# 
# From -- ./inp_files/1410.got.cif
#   From: 2010.05.17/outbox.cif.g08.bks.cpg/sg85_cif.got.tgz:1410.got - 2010.06.03 19:01:16.
