data_PCOD9544847
_publ_section_title
;
Structure prediction by ZEFSAII (Michael W. Deem and Ramdas Pophale) SiO2 
 PCOD9544847
Probable space group: P 4/N
;
_chemical_formula_sum "Si O2"
_cell_formula_units_Z 34
_cell_length_a 7.208274
_cell_length_b 7.208274
_cell_length_c 24.613331
_cell_angle_alpha 90.000000
_cell_angle_beta 90.000000
_cell_angle_gamma 90.000000
_cell_volume 1278.889334
_symmetry_space_group_name_H-M "P 4/N"
_symmetry_group_IT_number 85
_symmetry_cell_setting 'tetragonal'
loop_
_space_group_symop_operation_xyz
x,y,z
1/2-y,x,z
1/2-x,1/2-y,z
y,1/2-x,z
-x,-y,-z
1/2+y,-x,-z
1/2+x,1/2+y,-z
-y,1/2+x,-z
loop_
_atom_site_type_symbol
_atom_site_label
_atom_site_fract_x
_atom_site_fract_y
_atom_site_fract_z
Si Si1 0.414156 0.979964 0.793846
Si Si2 0.896708 0.472066 0.088923
Si Si3 0.066259 0.508673 0.677880
Si Si4 0.250000 0.750000 0.000000
Si Si5 0.547035 0.979281 0.436611
O O1 0.493431 0.190339 0.793837
O O2 0.452395 0.889693 0.852221
O O3 0.475242 0.897560 0.735846
O O4 0.987156 0.674562 0.087100
O O5 0.911964 0.336586 0.037988
O O6 0.002641 0.292173 0.678512
O O7 0.991020 0.580276 0.619638
O O8 0.496376 0.765545 0.431758
O O9 0.500000 0.000000 0.500000
#
# Coordination Sequence:
#
# PCOD9544847 Si02
#       5
#     8   8   8   2   8
#     4   7  10  20  40  61  79 102 136 178 218 252
#     4   9  18  31  46  65  89 118 149 181 222 270
#     4   7  10  19  38  61  80 102 137 179 216 248
#     4  12  20  28  44  68  96 120 144 182 228 280
#     4   9  17  28  43  64  89 116 146 179 218 263
#
# _framework density 26.585569
#
# number of rings (size 3 to 8) (size 9 to 14) (size 15 to 20)
#    0.000    3.765    0.000    4.941    0.000    0.471 
#    0.000    0.000    0.000   11.294    0.000    0.000 
#    0.000    3.765    0.000    0.000    0.000    0.000 
#
# Total GULP energy -189299.007818 kJ/mol
# GULP energy per Si atom -5567.617877 kJ/mol
# Density = 2.652506 g / cm^3
# Si number density = 26.585569 Si / 1000 Ang^3
#
#
#
# Elastic Constant Matrix: (Units=GPa)
#
#
# Indices 1 2 3 4 5 6 
#
# 1 80.2983 -3.8011 22.3232 0.0000 0.0000 -0.9008
# 2 -3.8011 80.2983 22.3232 0.0000 0.0000 0.9008
# 3 22.3232 22.3232 339.3799 0.0000 0.0000 0.0000
# 4 0.0000 0.0000 0.0000 6.4948 0.0000 0.0000
# 5 0.0000 0.0000 0.0000 0.0000 6.4948 0.0000
# 6 -0.9008 0.9008 0.0000 0.0000 0.0000 9.1522
#
#
#
# Elastic Compliance Matrix: (Units=1/GPa)
#
#
# Indices 1 2 3 4 5 6 
#
# 1 0.012755 0.000839 -0.000894 0.000000 0.000000 0.001173
# 2 0.000839 0.012755 -0.000894 0.000000 0.000000 -0.001173
# 3 -0.000894 -0.000894 0.003064 0.000000 0.000000 0.000000
# 4 0.000000 0.000000 0.000000 0.153970 0.000000 0.000000
# 5 0.000000 0.000000 0.000000 0.000000 0.153970 0.000000
# 6 0.001173 -0.001173 0.000000 0.000000 0.000000 0.109494
#
#
# Mechanical properties :
#
#
# Convention : Reuss Voigt Hill
#
# Bulk Modulus (GPa) = 37.48698 64.62970 51.05834
# Shear Modulus (GPa) = 10.94573 35.03709 22.99141
#
# Velocity S-wave (km/s) = 2.03128 3.63423 2.94395
# Velocity P-wave (km/s) = 4.43087 6.47866 5.55003
#
# Compressibility (1/GPa) = 0.02667593
#
# Stress axis : x y z
#
# Youngs Moduli (GPa) = 78.40048 78.40048 326.35136
#
# Poissons Ratio (x) = -0.06579 0.29182
# Poissons Ratio (y) = -0.06579 0.29182
# Poissons Ratio (z) = 0.07010 0.07010
#
# Static dielectric constant tensor:
#      x y z
#    x 2.022710 0.000000 0.000000 
#    y 0.000000 2.022710 0.000000 
#    z 0.000000 0.000000 2.297410 
# 
# From -- ./inp_files/2193.got.cif
#   From: 2010.05.17/outbox.cif.g08.bks.cpg/sg85_cif.got.tgz:2193.got - 2010.06.03 19:01:16.
