data_PCOD9544513
_publ_section_title
;
Structure prediction by ZEFSAII (Michael W. Deem and Ramdas Pophale) SiO2 
 PCOD9544513
Probable space group: P 4/N
;
_chemical_formula_sum "Si O2"
_cell_formula_units_Z 58
_cell_length_a 17.555598
_cell_length_b 17.555598
_cell_length_c 7.488268
_cell_angle_alpha 90.000000
_cell_angle_beta 90.000000
_cell_angle_gamma 90.000000
_cell_volume 2307.876868
_symmetry_space_group_name_H-M "P 4/N"
_symmetry_group_IT_number 85
_symmetry_cell_setting 'tetragonal'
loop_
_space_group_symop_operation_xyz
x,y,z
1/2-y,x,z
1/2-x,1/2-y,z
y,1/2-x,z
-x,-y,-z
1/2+y,-x,-z
1/2+x,1/2+y,-z
-y,1/2+x,-z
loop_
_atom_site_type_symbol
_atom_site_label
_atom_site_fract_x
_atom_site_fract_y
_atom_site_fract_z
Si Si1 0.285134 0.133246 0.264500
Si Si2 0.250000 0.250000 0.678894
Si Si3 0.022885 0.782870 0.783711
Si Si4 0.017737 0.943163 0.845058
Si Si5 0.375723 0.517703 0.344125
Si Si6 0.598251 0.695553 0.158281
Si Si7 0.652926 0.321695 0.485900
Si Si8 0.343044 0.468405 0.731806
O O1 0.339155 0.201622 0.314254
O O2 0.303271 0.051059 0.337743
O O3 0.289325 0.126279 0.046964
O O4 0.340622 0.267530 0.706267
O O5 0.014971 0.855697 0.914068
O O6 0.014247 0.691850 0.806445
O O7 0.098445 0.799481 0.676474
O O8 0.952453 0.972417 0.706657
O O9 0.102979 0.960986 0.784211
O O10 0.000000 0.000000 0.000000
O O11 0.380959 0.607556 0.399626
O O12 0.343149 0.476836 0.519536
O O13 0.609038 0.605969 0.199109
O O14 0.530840 0.757085 0.191098
O O15 0.738620 0.341305 0.419954
#
# Coordination Sequence:
#
# PCOD9544513 Si02
#       8
#     8   2   8   8   8   8   8   8
#     4  11  19  37  64  94 141 193 231 271 336 419
#     4   8  12  32  52  84 134 168 228 256 294 392
#     4  11  24  41  67  96 134 174 229 285 350 415
#     4  12  27  47  64 101 140 180 232 289 351 425
#     4  11  25  44  70  98 134 182 226 296 355 409
#     4  10  19  35  63 100 134 186 228 265 336 408
#     4   9  20  43  71  96 125 170 230 293 354 409
#     4  11  23  39  69 101 141 181 229 288 329 416
#
# _framework density 25.131323999999999
#
# number of rings (size 3 to 8) (size 9 to 14) (size 15 to 20)
#    0.000    1.379    4.138    2.069    3.862    1.103 
#    0.000    0.000    0.000    0.000    0.000    0.000 
#    0.000    0.000    0.000    0.000    0.000    0.000 
#
# Total GULP energy -322887.068087 kJ/mol
# GULP energy per Si atom -5567.018415 kJ/mol
# Density = 2.507412 g / cm^3
# Si number density = 25.131324 Si / 1000 Ang^3
#
#
#
# Elastic Constant Matrix: (Units=GPa)
#
#
# Indices 1 2 3 4 5 6 
#
# 1 142.7227 -3.6302 1.3607 0.0000 0.0000 15.4478
# 2 -3.6302 142.7227 1.3607 0.0000 0.0000 -15.4478
# 3 1.3607 1.3607 53.1095 0.0000 0.0000 0.0000
# 4 0.0000 0.0000 0.0000 29.1415 0.0000 0.0000
# 5 0.0000 0.0000 0.0000 0.0000 29.1415 0.0000
# 6 15.4478 -15.4478 0.0000 0.0000 0.0000 33.3463
#
#
#
# Elastic Compliance Matrix: (Units=1/GPa)
#
#
# Indices 1 2 3 4 5 6 
#
# 1 0.007383 -0.000190 -0.000184 0.000000 0.000000 -0.003508
# 2 -0.000190 0.007383 -0.000184 0.000000 0.000000 0.003508
# 3 -0.000184 -0.000184 0.018838 0.000000 0.000000 0.000000
# 4 0.000000 0.000000 0.000000 0.034315 0.000000 0.000000
# 5 0.000000 0.000000 0.000000 0.000000 0.034315 0.000000
# 6 -0.003508 0.003508 0.000000 0.000000 0.000000 0.033239
#
#
# Mechanical properties :
#
#
# Convention : Reuss Voigt Hill
#
# Bulk Modulus (GPa) = 30.78113 37.41526 34.09819
# Shear Modulus (GPa) = 33.91639 40.95675 37.43657
#
# Velocity S-wave (km/s) = 3.67763 4.04135 3.86377
# Velocity P-wave (km/s) = 5.50527 6.05779 5.78813
#
# Compressibility (1/GPa) = 0.03248744
#
# Stress axis : x y z
#
# Youngs Moduli (GPa) = 135.44170 135.44170 53.08288
#
# Poissons Ratio (x) = 0.02576 0.00978
# Poissons Ratio (y) = 0.02576 0.00978
# Poissons Ratio (z) = 0.02496 0.02496
#
# Static dielectric constant tensor:
#      x y z
#    x 2.278760 0.000000 0.000000 
#    y 0.000000 2.278760 0.000000 
#    z 0.000000 0.000000 2.130970 
# 
# From -- ./inp_files/1192.got.cif
#   From: 2010.05.17/outbox.cif.g08.bks.cpg/sg85_cif.got.tgz:1192.got - 2010.06.03 19:01:16.
