data_PCOD9544002
_publ_section_title
;
Structure prediction by ZEFSAII (Michael W. Deem and Ramdas Pophale) SiO2 
 PCOD9544002
Probable space group: P 42/M
;
_chemical_formula_sum "Si O2"
_cell_formula_units_Z 64
_cell_length_a 20.695608
_cell_length_b 20.695608
_cell_length_c 8.119016
_cell_angle_alpha 90.000000
_cell_angle_beta 90.000000
_cell_angle_gamma 90.000000
_cell_volume 3477.441052
_symmetry_space_group_name_H-M "P 42/M"
_symmetry_group_IT_number 84
_symmetry_cell_setting 'tetragonal'
loop_
_space_group_symop_operation_xyz
x,y,z
-y,x,1/2+z
-x,-y,z
y,-x,1/2+z
-x,-y,-z
y,-x,1/2-z
x,y,-z
-y,x,1/2-z
loop_
_atom_site_type_symbol
_atom_site_label
_atom_site_fract_x
_atom_site_fract_y
_atom_site_fract_z
Si Si1 0.295551 0.214557 0.200500
Si Si2 0.792150 0.674267 0.200134
Si Si3 0.762359 0.090351 0.807857
Si Si4 0.129661 0.443874 0.196284
Si Si5 0.176042 0.125718 0.808956
Si Si6 0.980411 0.092919 0.819277
Si Si7 0.872823 0.408615 0.698275
Si Si8 0.989875 0.645750 0.301309
O O1 0.272706 0.286853 0.246052
O O2 0.238896 0.164425 0.252736
O O3 0.363597 0.186148 0.257561
O O4 0.295453 0.213335 0.000000
O O5 0.849033 0.713696 0.288728
O O6 0.807912 0.600181 0.241484
O O7 0.800113 0.681004 0.000000
O O8 0.824448 0.115922 0.710987
O O9 0.717290 0.032024 0.744544
O O10 0.779144 0.080717 0.000000
O O11 0.132519 0.516566 0.258514
O O12 0.065693 0.405992 0.256928
O O13 0.125888 0.445580 0.000000
O O14 0.156372 0.059969 0.720527
O O15 0.186392 0.111210 0.000000
O O16 0.034179 0.071168 0.690543
O O17 0.009539 0.095213 0.000000
O O18 0.874501 0.404187 0.500000
O O19 0.940764 0.378574 0.758953
O O20 0.991864 0.649760 0.500000
#
# Coordination Sequence:
#
# PCOD9544002 Si02
#       8
#     8   8   8   8   8   8   8   8
#     4   8  16  31  50  68  89 121 154 184 222 270
#     4   8  15  30  48  63  84 117 156 191 224 267
#     4   9  16  27  44  66  89 117 156 194 227 265
#     4  10  19  30  46  67  91 122 157 191 227 270
#     4  10  19  33  51  70  92 120 153 189 234 286
#     4  11  22  37  53  69  87 110 144 189 241 290
#     4  10  19  31  46  66  93 122 153 188 227 271
#     4   9  18  30  44  64  92 126 160 193 227 268
#
# _framework density 18.404337000000002
#
# number of rings (size 3 to 8) (size 9 to 14) (size 15 to 20)
#    0.000    2.625    0.000    3.750    0.000    4.000 
#    0.000    5.625    0.000    0.000    0.000    0.000 
#    0.000    0.500    0.000    6.250    0.000    0.000 
#
# Total GULP energy -356819.462227 kJ/mol
# GULP energy per Si atom -5575.304097 kJ/mol
# Density = 1.836245 g / cm^3
# Si number density = 18.404337 Si / 1000 Ang^3
#
#
#
# Elastic Constant Matrix: (Units=GPa)
#
#
# Indices 1 2 3 4 5 6 
#
# 1 64.7183 63.1509 2.1252 0.0000 0.0000 -5.6493
# 2 63.1509 64.7183 2.1252 0.0000 0.0000 5.6493
# 3 2.1252 2.1252 23.8090 0.0000 0.0000 0.0000
# 4 0.0000 0.0000 0.0000 12.4588 0.0000 0.0000
# 5 0.0000 0.0000 0.0000 0.0000 12.4588 0.0000
# 6 -5.6493 5.6493 0.0000 0.0000 0.0000 23.2930
#
#
#
# Elastic Compliance Matrix: (Units=1/GPa)
#
#
# Indices 1 2 3 4 5 6 
#
# 1 -0.422400 0.430243 -0.000700 0.000000 0.000000 -0.206792
# 2 0.430243 -0.422400 -0.000700 0.000000 0.000000 0.206792
# 3 -0.000700 -0.000700 0.042126 0.000000 0.000000 0.000000
# 4 0.000000 0.000000 0.000000 0.080264 0.000000 0.000000
# 5 0.000000 0.000000 0.000000 0.000000 0.080264 0.000000
# 6 -0.206792 0.206792 0.000000 0.000000 0.000000 -0.057376
#
#
# Mechanical properties :
#
#
# Convention : Reuss Voigt Hill
#
# Bulk Modulus (GPa) = 18.17755 32.00533 25.09144
# Shear Modulus (GPa) = -3.24914 15.36509 6.05797
#
# Velocity S-wave (km/s) = -1.33013 2.89253 1.81625
# Velocity P-wave (km/s) = 2.74576 5.34636 4.24987
#
# Compressibility (1/GPa) = 0.05501290
#
# Stress axis : x y z
#
# Youngs Moduli (GPa) = -2.36743 -2.36743 23.73836
#
# Poissons Ratio (x) = 1.01857 0.01662
# Poissons Ratio (y) = 1.01857 0.01662
# Poissons Ratio (z) = -0.00166 -0.00166
#
# Static dielectric constant tensor:
#      x y z
#    x 1.667030 0.000000 0.000000 
#    y 0.000000 1.667030 0.000000 
#    z 0.000000 0.000000 1.656340 
# 
# From -- ./inp_files/1373.got.cif
#   From: 2010.05.17/outbox.cif.g08.bks.cpg/sg84_1_cif.got.tgz:1373.got - 2010.06.03 18:57:40.
