data_PCOD9544718
_publ_section_title
;
Structure prediction by ZEFSAII (Michael W. Deem and Ramdas Pophale) SiO2 
 PCOD9544718
Probable space group: P 4/N
;
_chemical_formula_sum "Si O2"
_cell_formula_units_Z 56
_cell_length_a 15.296070
_cell_length_b 15.296070
_cell_length_c 11.546003
_cell_angle_alpha 90.000000
_cell_angle_beta 90.000000
_cell_angle_gamma 90.000000
_cell_volume 2701.415521
_symmetry_space_group_name_H-M "P 4/N"
_symmetry_group_IT_number 85
_symmetry_cell_setting 'tetragonal'
loop_
_space_group_symop_operation_xyz
x,y,z
1/2-y,x,z
1/2-x,1/2-y,z
y,1/2-x,z
-x,-y,-z
1/2+y,-x,-z
1/2+x,1/2+y,-z
-y,1/2+x,-z
loop_
_atom_site_type_symbol
_atom_site_label
_atom_site_fract_x
_atom_site_fract_y
_atom_site_fract_z
Si Si1 0.654503 0.390268 0.726635
Si Si2 0.854498 0.650525 0.950812
Si Si3 0.034212 0.357052 0.835634
Si Si4 0.544301 0.959249 0.758582
Si Si5 0.065115 0.830753 0.599840
Si Si6 0.268194 0.548390 0.629178
Si Si7 0.696640 0.383098 0.988888
O O1 0.596305 0.472659 0.688130
O O2 0.749274 0.396383 0.670968
O O3 0.611954 0.296745 0.700772
O O4 0.659815 0.404311 0.863586
O O5 0.869612 0.753206 0.928426
O O6 0.912516 0.592462 0.865374
O O7 0.879459 0.637531 0.085923
O O8 0.004217 0.454880 0.806127
O O9 0.026714 0.302089 0.716507
O O10 0.960893 0.316346 0.921461
O O11 0.620233 0.992593 0.674306
O O12 0.146784 0.897419 0.585658
O O13 0.026686 0.790877 0.481819
O O14 0.796986 0.355323 0.970848
#
# Coordination Sequence:
#
# PCOD9544718 Si02
#       7
#     8   8   8   8   8   8   8
#     4  12  23  38  65  93 127 176 214 279 329 404
#     4  11  25  43  66  91 128 177 223 269 327 406
#     4  11  24  40  65  99 133 174 208 283 346 406
#     4  11  25  41  65  96 134 171 225 275 336 394
#     4  11  24  44  65  95 132 179 227 273 335 406
#     4  11  23  41  67  95 135 176 218 274 344 412
#     4  11  22  34  58  99 136 162 208 266 352 419
#
# _framework density 20.729875
#
# number of rings (size 3 to 8) (size 9 to 14) (size 15 to 20)
#    0.000    0.857    4.286    3.429    6.000    0.571 
#    0.000    0.000    0.000    0.000    0.000    0.000 
#    0.000    0.000    0.000    0.000    0.000    0.000 
#
# Total GULP energy -313105.414006 kJ/mol
# GULP energy per Si atom -5591.168107 kJ/mol
# Density = 2.068269 g / cm^3
# Si number density = 20.729875 Si / 1000 Ang^3
#
#
#
# Elastic Constant Matrix: (Units=GPa)
#
#
# Indices 1 2 3 4 5 6 
#
# 1 19.8882 -9.3909 25.5687 0.0000 0.0000 -1.0523
# 2 -9.3909 19.8882 25.5687 0.0000 0.0000 1.0523
# 3 25.5687 25.5687 89.6506 0.0000 0.0000 0.0000
# 4 0.0000 0.0000 0.0000 24.9123 0.0000 0.0000
# 5 0.0000 0.0000 0.0000 0.0000 24.9123 0.0000
# 6 -1.0523 1.0523 0.0000 0.0000 0.0000 9.0032
#
#
#
# Elastic Compliance Matrix: (Units=1/GPa)
#
#
# Indices 1 2 3 4 5 6 
#
# 1 -0.105111 -0.139555 0.069779 0.000000 0.000000 0.004026
# 2 -0.139555 -0.105111 0.069779 0.000000 0.000000 -0.004026
# 3 0.069779 0.069779 -0.028648 0.000000 0.000000 0.000000
# 4 0.000000 0.000000 0.000000 0.040141 0.000000 0.000000
# 5 0.000000 0.000000 0.000000 0.000000 0.040141 0.000000
# 6 0.004026 -0.004026 0.000000 0.000000 0.000000 0.112013
#
#
# Mechanical properties :
#
#
# Convention : Reuss Voigt Hill
#
# Bulk Modulus (GPa) = -4.18652 23.65777 9.73562
# Shear Modulus (GPa) = -39.61790 17.61094 -11.00348
#
# Velocity S-wave (km/s) = -4.37641 2.91786 -2.30642
# Velocity P-wave (km/s) = 5.24988 4.77379 1.54471
#
# Compressibility (1/GPa) = -0.23886160
#
# Stress axis : x y z
#
# Youngs Moduli (GPa) = -9.51375 -9.51375 -34.90613
#
# Poissons Ratio (x) = -1.32769 2.43573
# Poissons Ratio (y) = -1.32769 2.43573
# Poissons Ratio (z) = 0.66386 0.66386
#
# Static dielectric constant tensor:
#      x y z
#    x 1.743600 0.000000 0.000000 
#    y 0.000000 1.743600 0.000000 
#    z 0.000000 0.000000 1.759980 
# 
# From -- ./inp_files/1764.got.cif
#   From: 2010.05.17/outbox.cif.g08.bks.cpg/sg85_cif.got.tgz:1764.got - 2010.06.03 19:01:16.
