data_PCOD9544951
_publ_section_title
;
Structure prediction by ZEFSAII (Michael W. Deem and Ramdas Pophale) SiO2 
 PCOD9544951
Probable space group: P 42/N
;
_chemical_formula_sum "Si O2"
_cell_formula_units_Z 64
_cell_length_a 22.037668
_cell_length_b 22.037668
_cell_length_c 5.661236
_cell_angle_alpha 90.000000
_cell_angle_beta 90.000000
_cell_angle_gamma 90.000000
_cell_volume 2749.429144
_symmetry_space_group_name_H-M "P 42/N"
_symmetry_group_IT_number 86
_space_group.IT_coordinate_system_code '2'
_symmetry_cell_setting 'tetragonal'
loop_
_space_group_symop_operation_xyz
x,y,z
-y,1/2+x,1/2+z
1/2-x,1/2-y,z
1/2+y,-x,1/2+z
-x,-y,-z
y,1/2-x,1/2-z
1/2+x,1/2+y,-z
1/2-y,x,1/2-z
loop_
_atom_site_type_symbol
_atom_site_label
_atom_site_fract_x
_atom_site_fract_y
_atom_site_fract_z
Si Si1 0.996927 0.137846 0.801723
Si Si2 0.535981 0.090777 0.403582
Si Si3 0.105138 0.291053 0.726403
Si Si4 0.413088 0.755134 0.118093
Si Si5 0.369170 0.492380 0.592846
Si Si6 0.789718 0.527194 0.912939
Si Si7 0.682016 0.879084 0.524870
Si Si8 0.596202 0.219696 0.363329
O O1 0.969252 0.075707 0.886949
O O2 0.951891 0.192634 0.879438
O O3 0.002969 0.147227 0.519404
O O4 0.063739 0.148924 0.900732
O O5 0.502739 0.096946 0.656058
O O6 0.582411 0.148359 0.386889
O O7 0.499067 0.097006 0.157413
O O8 0.049334 0.253081 0.624035
O O9 0.140318 0.242257 0.881249
O O10 0.138195 0.322694 0.508603
O O11 0.074545 0.340428 0.895099
O O12 0.457251 0.814795 0.101860
O O13 0.382940 0.758249 0.378593
O O14 0.372192 0.761886 0.882487
O O15 0.799097 0.587709 0.763343
O O16 0.752534 0.469823 0.820688
#
# Coordination Sequence:
#
# PCOD9544951 Si02
#       8
#     8   8   8   8   8   8   8   8
#     4  10  20  34  55  93 116 156 203 258 296 367
#     4  10  20  31  59  88 126 154 206 253 298 363
#     4  11  23  41  64  89 113 166 209 257 325 374
#     4   9  15  29  54  76 110 152 198 237 288 342
#     4  10  19  38  57  86 120 170 198 247 311 377
#     4  10  19  38  60  83 115 161 200 256 310 373
#     4  11  23  41  65  85 120 158 211 263 318 374
#     4   9  15  30  52  78 109 156 194 236 291 353
#
# _framework density 23.277560999999999
#
# number of rings (size 3 to 8) (size 9 to 14) (size 15 to 20)
#    0.000    2.000    6.250    0.750    1.750    2.250 
#    0.000    1.250    0.000    0.000    0.000    0.000 
#    0.000  108.000    0.000    0.000    0.000    0.000 
#
# Total GULP energy -356698.142893 kJ/mol
# GULP energy per Si atom -5573.408483 kJ/mol
# Density = 2.322458 g / cm^3
# Si number density = 23.277561 Si / 1000 Ang^3
#
#
#
# Elastic Constant Matrix: (Units=GPa)
#
#
# Indices 1 2 3 4 5 6 
#
# 1 21.0037 17.7595 3.3187 0.0000 0.0000 8.7351
# 2 17.7595 21.0037 3.3187 0.0000 0.0000 -8.7351
# 3 3.3187 3.3187 119.6175 0.0000 0.0000 0.0000
# 4 0.0000 0.0000 0.0000 9.6372 0.0000 0.0000
# 5 0.0000 0.0000 0.0000 0.0000 9.6372 0.0000
# 6 8.7351 -8.7351 0.0000 0.0000 0.0000 12.8584
#
#
#
# Elastic Compliance Matrix: (Units=1/GPa)
#
#
# Indices 1 2 3 4 5 6 
#
# 1 -0.045019 0.070940 -0.000719 0.000000 0.000000 0.078774
# 2 0.070940 -0.045019 -0.000719 0.000000 0.000000 -0.078774
# 3 -0.000719 -0.000719 0.008400 0.000000 0.000000 0.000000
# 4 0.000000 0.000000 0.000000 0.103765 0.000000 0.000000
# 5 0.000000 0.000000 0.000000 0.000000 0.103765 0.000000
# 6 0.078774 -0.078774 0.000000 0.000000 0.000000 -0.029257
#
#
# Mechanical properties :
#
#
# Convention : Reuss Voigt Hill
#
# Bulk Modulus (GPa) = 17.43225 23.37982 20.40604
# Shear Modulus (GPa) = -215.07999 15.57509 -99.75245
#
# Velocity S-wave (km/s) = -9.62282 2.58951 -6.55336
# Velocity P-wave (km/s) = 10.76846 4.35964 6.96251
#
# Compressibility (1/GPa) = 0.05736495
#
# Stress axis : x y z
#
# Youngs Moduli (GPa) = -22.21281 -22.21281 119.04921
#
# Poissons Ratio (x) = 1.57577 0.08561
# Poissons Ratio (y) = 1.57577 0.08561
# Poissons Ratio (z) = -0.01597 -0.01597
#
# Static dielectric constant tensor:
#      x y z
#    x 1.892630 0.000000 0.000000 
#    y 0.000000 1.892630 0.000000 
#    z 0.000000 0.000000 2.096510 
# 
# From -- ./inp_files/550.got.cif
#   From: 2010.05.17/outbox.cif.g08.bks.cpg/sg86_1_cif.got.tgz:550.got - 2010.06.03 19:03:11.
