data_PCOD9544492
_publ_section_title
;
Structure prediction by ZEFSAII (Michael W. Deem and Ramdas Pophale) SiO2 
 PCOD9544492
Probable space group: P 4/N
;
_chemical_formula_sum "Si O2"
_cell_formula_units_Z 64
_cell_length_a 26.145061
_cell_length_b 26.145061
_cell_length_c 5.892166
_cell_angle_alpha 90.000000
_cell_angle_beta 90.000000
_cell_angle_gamma 90.000000
_cell_volume 4027.673825
_symmetry_space_group_name_H-M "P 4/N"
_symmetry_group_IT_number 85
_symmetry_cell_setting 'tetragonal'
loop_
_space_group_symop_operation_xyz
x,y,z
1/2-y,x,z
1/2-x,1/2-y,z
y,1/2-x,z
-x,-y,-z
1/2+y,-x,-z
1/2+x,1/2+y,-z
-y,1/2+x,-z
loop_
_atom_site_type_symbol
_atom_site_label
_atom_site_fract_x
_atom_site_fract_y
_atom_site_fract_z
Si Si1 0.417938 0.013915 0.543372
Si Si2 0.322809 0.070074 0.314102
Si Si3 0.332087 0.228490 0.922082
Si Si4 0.584100 0.479992 0.456631
Si Si5 0.574494 0.604605 0.073100
Si Si6 0.340026 0.369981 0.561429
Si Si7 0.711488 0.564713 0.792253
Si Si8 0.997483 0.623783 0.949324
O O1 0.367170 0.035077 0.422724
O O2 0.466379 0.052547 0.528889
O O3 0.403845 0.020125 0.808297
O O4 0.436211 0.959344 0.459793
O O5 0.328600 0.125831 0.428647
O O6 0.265704 0.049682 0.313647
O O7 0.342788 0.075270 0.059790
O O8 0.310093 0.284812 0.963037
O O9 0.348303 0.212085 0.667315
O O10 0.382640 0.220136 0.069405
O O11 0.611269 0.480236 0.204441
O O12 0.613116 0.475362 0.703122
O O13 0.621639 0.610514 0.245924
O O14 0.588354 0.553668 0.937791
O O15 0.326801 0.417736 0.405044
O O16 0.682229 0.522578 0.938791
#
# Coordination Sequence:
#
# PCOD9544492 Si02
#       8
#     8   8   8   8   8   8   8   8
#     4   9  20  33  51  76  93 123 158 211 265 314
#     4  11  21  34  51  71  94 129 168 221 269 316
#     4  11  23  34  45  62  83 121 175 227 273 313
#     4  10  21  34  57  73 101 126 164 211 260 313
#     4  10  18  33  50  67  95 118 164 209 262 305
#     4  11  19  35  45  63  89 129 164 218 264 309
#     4  12  22  32  50  67  94 128 171 212 267 308
#     4  11  20  35  51  74  98 131 163 205 251 313
#
# _framework density 15.890064000000001
#
# number of rings (size 3 to 8) (size 9 to 14) (size 15 to 20)
#    0.000    1.375    3.750    3.750    1.750    2.500 
#    0.000    1.250    0.000    0.000    0.000    0.000 
#    0.000    0.000    0.000    0.000    0.000    3.750 
#
# Total GULP energy -356318.233123 kJ/mol
# GULP energy per Si atom -5567.472393 kJ/mol
# Density = 1.585390 g / cm^3
# Si number density = 15.890064 Si / 1000 Ang^3
#
#
#
# Elastic Constant Matrix: (Units=GPa)
#
#
# Indices 1 2 3 4 5 6 
#
# 1 50.3722 32.6901 22.5051 0.0000 0.0000 3.2162
# 2 32.6901 50.3722 22.5051 0.0000 0.0000 -3.2162
# 3 22.5051 22.5051 76.3775 0.0000 0.0000 0.0000
# 4 0.0000 0.0000 0.0000 19.2078 0.0000 0.0000
# 5 0.0000 0.0000 0.0000 0.0000 19.2078 0.0000
# 6 3.2162 -3.2162 0.0000 0.0000 0.0000 26.6024
#
#
#
# Elastic Compliance Matrix: (Units=1/GPa)
#
#
# Indices 1 2 3 4 5 6 
#
# 1 0.036741 -0.022415 -0.004221 0.000000 0.000000 -0.007152
# 2 -0.022415 0.036741 -0.004221 0.000000 0.000000 0.007152
# 3 -0.004221 -0.004221 0.015581 0.000000 0.000000 0.000000
# 4 0.000000 0.000000 0.000000 0.052062 0.000000 0.000000
# 5 0.000000 0.000000 0.000000 0.000000 0.052062 0.000000
# 6 -0.007152 0.007152 0.000000 0.000000 0.000000 0.039320
#
#
# Mechanical properties :
#
#
# Convention : Reuss Voigt Hill
#
# Bulk Modulus (GPa) = 36.56547 36.94695 36.75621
# Shear Modulus (GPa) = 16.48323 19.63171 18.05747
#
# Velocity S-wave (km/s) = 3.22425 3.51874 3.37471
# Velocity P-wave (km/s) = 6.07639 6.30958 6.19408
#
# Compressibility (1/GPa) = 0.02734820
#
# Stress axis : x y z
#
# Youngs Moduli (GPa) = 27.21730 27.21730 64.18237
#
# Poissons Ratio (x) = 0.61007 0.27094
# Poissons Ratio (y) = 0.61007 0.27094
# Poissons Ratio (z) = 0.11490 0.11490
#
# Static dielectric constant tensor:
#      x y z
#    x 1.544860 0.000000 0.000000 
#    y 0.000000 1.544860 0.000000 
#    z 0.000000 0.000000 1.681150 
# 
# From -- ./inp_files/605.got.cif
#   From: 2010.05.17/outbox.cif.g08.bks.cpg/sg85_cif.got.tgz:605.got - 2010.06.03 19:01:16.
