data_PCOD9544039
_publ_section_title
;
Structure prediction by ZEFSAII (Michael W. Deem and Ramdas Pophale) SiO2 
 PCOD9544039
Probable space group: P 42/M
;
_chemical_formula_sum "Si O2"
_cell_formula_units_Z 56
_cell_length_a 14.592151
_cell_length_b 14.592151
_cell_length_c 15.039681
_cell_angle_alpha 90.000000
_cell_angle_beta 90.000000
_cell_angle_gamma 90.000000
_cell_volume 3202.412372
_symmetry_space_group_name_H-M "P 42/M"
_symmetry_group_IT_number 84
_symmetry_cell_setting 'tetragonal'
loop_
_space_group_symop_operation_xyz
x,y,z
-y,x,1/2+z
-x,-y,z
y,-x,1/2+z
-x,-y,-z
y,-x,1/2-z
x,y,-z
-y,x,1/2-z
loop_
_atom_site_type_symbol
_atom_site_label
_atom_site_fract_x
_atom_site_fract_y
_atom_site_fract_z
Si Si1 0.754855 0.743546 0.736389
Si Si2 0.899839 0.772262 0.597591
Si Si3 0.995841 0.394602 0.845789
Si Si4 0.616911 0.202016 0.399993
Si Si5 0.109427 0.015289 0.598316
Si Si6 0.791521 0.399176 0.098810
Si Si7 0.774742 0.956311 0.234093
O O1 0.835352 0.719678 0.666432
O O2 0.755573 0.676581 0.820482
O O3 0.662370 0.750029 0.677528
O O4 0.779397 0.847044 0.767114
O O5 0.900542 0.731477 0.500000
O O6 0.864903 0.877061 0.591436
O O7 0.999874 0.787566 0.638489
O O8 0.091239 0.372871 0.893856
O O9 0.000000 0.500000 0.818165
O O10 0.901709 0.383121 0.900184
O O11 0.983240 0.326545 0.764795
O O12 0.643100 0.231158 0.500000
O O13 0.508164 0.221832 0.388177
O O14 0.135042 0.975109 0.500000
O O15 0.159615 0.994385 0.691886
O O16 0.000000 0.000000 0.607622
O O17 0.757563 0.373223 0.000000
#
# Coordination Sequence:
#
# PCOD9544039 Si02
#       7
#     8   8   8   8   8   8   8
#     4  10  20  34  51  75 103 141 167 213 260 315
#     4  10  20  32  45  67  97 134 177 208 242 299
#     4   9  17  31  51  77 104 130 167 219 267 303
#     4  10  19  32  54  83 106 131 173 222 269 310
#     4   9  20  32  44  62  91 133 175 213 244 286
#     4   9  18  33  55  80 106 135 173 221 265 309
#     4  10  20  31  47  71 100 138 170 206 251 302
#
# _framework density 17.486816999999999
#
# number of rings (size 3 to 8) (size 9 to 14) (size 15 to 20)
#    0.000    2.429    1.429    0.857    4.000    6.286 
#    0.000    0.000    0.000    2.571    0.000    2.000 
#    0.000    0.000    0.000    0.000    0.000    0.000 
#
# Total GULP energy -311859.562846 kJ/mol
# GULP energy per Si atom -5568.920765 kJ/mol
# Density = 1.744702 g / cm^3
# Si number density = 17.486817 Si / 1000 Ang^3
#
#
#
# Elastic Constant Matrix: (Units=GPa)
#
#
# Indices 1 2 3 4 5 6 
#
# 1 53.6695 23.8254 51.8136 0.0000 0.0000 -1.6642
# 2 23.8254 53.6695 51.8136 0.0000 0.0000 1.6642
# 3 51.8136 51.8136 140.5743 0.0000 0.0000 0.0000
# 4 0.0000 0.0000 0.0000 14.4319 0.0000 0.0000
# 5 0.0000 0.0000 0.0000 0.0000 14.4319 0.0000
# 6 -1.6642 1.6642 0.0000 0.0000 0.0000 18.1007
#
#
#
# Elastic Compliance Matrix: (Units=1/GPa)
#
#
# Indices 1 2 3 4 5 6 
#
# 1 0.029650 -0.004205 -0.009379 0.000000 0.000000 0.003113
# 2 -0.004205 0.029650 -0.009379 0.000000 0.000000 -0.003113
# 3 -0.009379 -0.009379 0.014027 0.000000 0.000000 0.000000
# 4 0.000000 0.000000 0.000000 0.069291 0.000000 0.000000
# 5 0.000000 0.000000 0.000000 0.000000 0.069291 0.000000
# 6 0.003113 -0.003113 0.000000 0.000000 0.000000 0.055819
#
#
# Mechanical properties :
#
#
# Convention : Reuss Voigt Hill
#
# Bulk Modulus (GPa) = 36.49205 55.86871 46.18038
# Shear Modulus (GPa) = 15.49005 17.42359 16.45682
#
# Velocity S-wave (km/s) = 2.97949 3.15998 3.07106
# Velocity P-wave (km/s) = 5.72277 6.73293 6.24830
#
# Compressibility (1/GPa) = 0.02740323
#
# Stress axis : x y z
#
# Youngs Moduli (GPa) = 33.72668 33.72668 71.28863
#
# Poissons Ratio (x) = 0.14181 0.66861
# Poissons Ratio (y) = 0.14181 0.66861
# Poissons Ratio (z) = 0.31632 0.31632
#
# Static dielectric constant tensor:
#      x y z
#    x 1.618830 0.000000 0.000000 
#    y 0.000000 1.618830 0.000000 
#    z 0.000000 0.000000 1.646810 
# 
# From -- ./inp_files/3131.got.cif
#   From: 2010.05.17/outbox.cif.g08.bks.cpg/sg84_2_cif.got.tgz:3131.got - 2010.06.03 18:57:40.
