data_PCOD9544752
_publ_section_title
;
Structure prediction by ZEFSAII (Michael W. Deem and Ramdas Pophale) SiO2 
 PCOD9544752
Probable space group: P 4/N
;
_chemical_formula_sum "Si O2"
_cell_formula_units_Z 48
_cell_length_a 9.999058
_cell_length_b 9.999058
_cell_length_c 19.072312
_cell_angle_alpha 90.000000
_cell_angle_beta 90.000000
_cell_angle_gamma 90.000000
_cell_volume 1906.871895
_symmetry_space_group_name_H-M "P 4/N"
_symmetry_group_IT_number 85
_symmetry_cell_setting 'tetragonal'
loop_
_space_group_symop_operation_xyz
x,y,z
1/2-y,x,z
1/2-x,1/2-y,z
y,1/2-x,z
-x,-y,-z
1/2+y,-x,-z
1/2+x,1/2+y,-z
-y,1/2+x,-z
loop_
_atom_site_type_symbol
_atom_site_label
_atom_site_fract_x
_atom_site_fract_y
_atom_site_fract_z
Si Si1 0.207018 0.470958 0.888409
Si Si2 0.662146 0.952608 0.545392
Si Si3 0.912039 0.266947 0.593192
Si Si4 0.224133 0.906022 0.745522
Si Si5 0.542549 0.660594 0.807570
Si Si6 0.195547 0.470556 0.037883
O O1 0.101670 0.350321 0.889237
O O2 0.201353 0.543906 0.814757
O O3 0.184556 0.544733 0.963143
O O4 0.582752 0.816719 0.562534
O O5 0.586238 0.073522 0.582194
O O6 0.687021 0.006333 0.465681
O O7 0.750000 0.250000 0.585542
O O8 0.963948 0.234170 0.670824
O O9 0.250000 0.750000 0.739892
O O10 0.064733 0.907725 0.757735
O O11 0.683440 0.583532 0.799628
O O12 0.473093 0.664524 0.885497
O O13 0.096247 0.342220 0.037571
#
# Coordination Sequence:
#
# PCOD9544752 Si02
#       6
#     8   8   8   8   8   8
#     4   9  19  39  62  84 118 164 210 257 309 365
#     4  11  23  42  72 102 123 157 206 250 306 371
#     4  11  23  43  65  89 130 168 199 252 307 363
#     4  11  26  39  56  91 129 160 201 252 310 362
#     4   9  19  39  62  84 118 164 210 257 309 365
#     4   7  12  30  59  82 106 154 211 255 304 356
#
# _framework density 25.172115000000002
#
# number of rings (size 3 to 8) (size 9 to 14) (size 15 to 20)
#    0.000    2.333    1.667    2.500    2.333    2.667 
#    3.000    5.833    0.000    0.000    0.000    0.000 
#    0.000    0.000    0.000    0.000    0.000    0.000 
#
# Total GULP energy -268107.003447 kJ/mol
# GULP energy per Si atom -5585.562572 kJ/mol
# Density = 2.511482 g / cm^3
# Si number density = 25.172115 Si / 1000 Ang^3
#
#
#
# Elastic Constant Matrix: (Units=GPa)
#
#
# Indices 1 2 3 4 5 6 
#
# 1 38.5966 35.8144 -14.6863 0.0000 0.0000 0.1195
# 2 35.8144 38.5966 -14.6863 0.0000 0.0000 -0.1195
# 3 -14.6863 -14.6863 87.6469 0.0000 0.0000 0.0000
# 4 0.0000 0.0000 0.0000 -82.6944 0.0000 0.0000
# 5 0.0000 0.0000 0.0000 0.0000 -82.6944 0.0000
# 6 0.1195 -0.1195 0.0000 0.0000 0.0000 23.7451
#
#
#
# Elastic Compliance Matrix: (Units=1/GPa)
#
#
# Indices 1 2 3 4 5 6 
#
# 1 0.186985 -0.172594 0.002411 0.000000 0.000000 -0.001810
# 2 -0.172594 0.186985 0.002411 0.000000 0.000000 0.001810
# 3 0.002411 0.002411 0.012218 0.000000 0.000000 0.000000
# 4 0.000000 0.000000 0.000000 -0.012093 0.000000 0.000000
# 5 0.000000 0.000000 0.000000 0.000000 -0.012093 0.000000
# 6 -0.001810 0.001810 0.000000 0.000000 0.000000 0.042132
#
#
# Mechanical properties :
#
#
# Convention : Reuss Voigt Hill
#
# Bulk Modulus (GPa) = 19.74557 19.74708 19.74633
# Shear Modulus (GPa) = 6.60887 -17.76885 -5.57999
#
# Velocity S-wave (km/s) = 1.62209 -2.65975 -1.49049
# Velocity P-wave (km/s) = 3.37187 1.25320 2.21348
#
# Compressibility (1/GPa) = 0.05064428
#
# Stress axis : x y z
#
# Youngs Moduli (GPa) = 5.34802 5.34802 81.84973
#
# Poissons Ratio (x) = 0.92304 -0.19737
# Poissons Ratio (y) = 0.92304 -0.19737
# Poissons Ratio (z) = -0.01290 -0.01290
#
# Static dielectric constant tensor:
#      x y z
#    x 2.062910 0.000000 0.000000 
#    y 0.000000 2.062910 0.000000 
#    z 0.000000 0.000000 2.086500 
# 
# From -- ./inp_files/2102.got.cif
#   From: 2010.05.17/outbox.cif.g08.bks.cpg/sg85_cif.got.tgz:2102.got - 2010.06.03 19:01:16.
