data_PCOD9544592
_publ_section_title
;
Structure prediction by ZEFSAII (Michael W. Deem and Ramdas Pophale) SiO2 
 PCOD9544592
Probable space group: P 4/N
;
_chemical_formula_sum "Si O2"
_cell_formula_units_Z 64
_cell_length_a 24.478555
_cell_length_b 24.478555
_cell_length_c 5.112667
_cell_angle_alpha 90.000000
_cell_angle_beta 90.000000
_cell_angle_gamma 90.000000
_cell_volume 3063.508302
_symmetry_space_group_name_H-M "P 4/N"
_symmetry_group_IT_number 85
_symmetry_cell_setting 'tetragonal'
loop_
_space_group_symop_operation_xyz
x,y,z
1/2-y,x,z
1/2-x,1/2-y,z
y,1/2-x,z
-x,-y,-z
1/2+y,-x,-z
1/2+x,1/2+y,-z
-y,1/2+x,-z
loop_
_atom_site_type_symbol
_atom_site_label
_atom_site_fract_x
_atom_site_fract_y
_atom_site_fract_z
Si Si1 0.332955 0.911739 0.723598
Si Si2 0.565420 0.426338 0.054087
Si Si3 0.704899 0.972386 0.368241
Si Si4 0.961632 0.611733 0.065123
Si Si5 0.110457 0.669775 0.386063
Si Si6 0.668586 0.264805 0.927645
Si Si7 0.510929 0.821872 0.566999
Si Si8 0.456561 0.362805 0.146716
O O1 0.342150 0.861112 0.539229
O O2 0.303485 0.884223 0.975713
O O3 0.301593 0.962163 0.606668
O O4 0.394149 0.932322 0.781330
O O5 0.623975 0.412095 0.183926
O O6 0.513026 0.397322 0.181209
O O7 0.566192 0.490991 0.028823
O O8 0.766309 0.961956 0.460720
O O9 0.663893 0.944329 0.573750
O O10 0.685393 0.963036 0.070069
O O11 0.975148 0.660489 0.861348
O O12 0.904557 0.586560 0.976150
O O13 0.967623 0.632231 0.362552
O O14 0.139405 0.723004 0.271239
O O15 0.055183 0.682560 0.546817
O O16 0.720879 0.304183 0.873669
#
# Coordination Sequence:
#
# PCOD9544592 Si02
#       8
#     8   8   8   8   8   8   8   8
#     4  11  21  39  58  79 112 161 222 275 326 379
#     4  10  21  38  59  84 120 164 210 268 335 382
#     4  11  23  41  65  95 126 172 210 260 319 393
#     4  11  23  40  65  95 131 165 212 263 323 393
#     4  11  21  39  58  79 112 161 222 275 326 379
#     4  11  24  38  52  76 110 162 226 292 331 350
#     4  11  23  41  65  95 126 172 210 260 319 393
#     4  11  23  40  65  95 131 165 212 263 323 393
#
# _framework density 20.891082999999998
#
# number of rings (size 3 to 8) (size 9 to 14) (size 15 to 20)
#    0.000    1.125    5.000    1.875    0.000    2.000 
#    9.000    3.750    0.000    0.000    0.000    0.000 
#    0.000   35.000    0.000    0.000    0.000    0.000 
#
# Total GULP energy -356726.607130 kJ/mol
# GULP energy per Si atom -5573.853236 kJ/mol
# Density = 2.084353 g / cm^3
# Si number density = 20.891083 Si / 1000 Ang^3
#
#
#
# Elastic Constant Matrix: (Units=GPa)
#
#
# Indices 1 2 3 4 5 6 
#
# 1 43.6110 12.5281 -4.4607 0.0000 0.0000 3.3036
# 2 12.5281 43.6110 -4.4607 0.0000 0.0000 -3.3036
# 3 -4.4607 -4.4607 50.9336 0.0000 0.0000 0.0000
# 4 0.0000 0.0000 0.0000 21.0362 0.0000 0.0000
# 5 0.0000 0.0000 0.0000 0.0000 21.0362 0.0000
# 6 3.3036 -3.3036 0.0000 0.0000 0.0000 23.2087
#
#
#
# Elastic Compliance Matrix: (Units=1/GPa)
#
#
# Indices 1 2 3 4 5 6 
#
# 1 0.025620 -0.007556 0.001582 0.000000 0.000000 -0.004722
# 2 -0.007556 0.025620 0.001582 0.000000 0.000000 0.004722
# 3 0.001582 0.001582 0.019911 0.000000 0.000000 0.000000
# 4 0.000000 0.000000 0.000000 0.047537 0.000000 0.000000
# 5 0.000000 0.000000 0.000000 0.000000 0.047537 0.000000
# 6 -0.004722 0.004722 0.000000 0.000000 0.000000 0.044432
#
#
# Mechanical properties :
#
#
# Convention : Reuss Voigt Hill
#
# Bulk Modulus (GPa) = 16.03406 16.15213 16.09309
# Shear Modulus (GPa) = 20.81348 22.02616 21.41982
#
# Velocity S-wave (km/s) = 3.15982 3.25057 3.20552
# Velocity P-wave (km/s) = 4.58305 4.67297 4.62823
#
# Compressibility (1/GPa) = 0.06236725
#
# Stress axis : x y z
#
# Youngs Moduli (GPa) = 39.03190 39.03190 50.22469
#
# Poissons Ratio (x) = 0.29492 -0.07946
# Poissons Ratio (y) = 0.29492 -0.07946
# Poissons Ratio (z) = -0.06175 -0.06175
#
# Static dielectric constant tensor:
#      x y z
#    x 1.794470 0.000000 0.000000 
#    y 0.000000 1.794470 0.000000 
#    z 0.000000 0.000000 1.826590 
# 
# From -- ./inp_files/577.got.cif
#   From: 2010.05.17/outbox.cif.g08.bks.cpg/sg85_cif.got.tgz:577.got - 2010.06.03 19:01:16.
