data_PCOD9544939
_publ_section_title
;
Structure prediction by ZEFSAII (Michael W. Deem and Ramdas Pophale) SiO2 
 PCOD9544939
Probable space group: P 42/N
;
_chemical_formula_sum "Si O2"
_cell_formula_units_Z 24
_cell_length_a 9.349845
_cell_length_b 9.349845
_cell_length_c 11.908906
_cell_angle_alpha 90.000000
_cell_angle_beta 90.000000
_cell_angle_gamma 90.000000
_cell_volume 1041.071817
_symmetry_space_group_name_H-M "P 42/N"
_symmetry_group_IT_number 86
_space_group.IT_coordinate_system_code '2'
_symmetry_cell_setting 'tetragonal'
loop_
_space_group_symop_operation_xyz
x,y,z
-y,1/2+x,1/2+z
1/2-x,1/2-y,z
1/2+y,-x,1/2+z
-x,-y,-z
y,1/2-x,1/2-z
1/2+x,1/2+y,-z
1/2-y,x,1/2-z
loop_
_atom_site_type_symbol
_atom_site_label
_atom_site_fract_x
_atom_site_fract_y
_atom_site_fract_z
Si Si1 0.570511 0.663315 0.193817
Si Si2 0.070366 0.408884 0.398197
Si Si3 0.412602 0.140604 0.030082
O O1 0.573683 0.782576 0.291129
O O2 0.445504 0.547510 0.195319
O O3 0.579705 0.761366 0.082779
O O4 0.086689 0.243190 0.430481
O O5 0.234582 0.458336 0.381417
O O6 0.000000 0.500000 0.500000
O O7 0.500000 0.000000 0.000000
#
# Coordination Sequence:
#
# PCOD9544939 Si02
#       3
#     8   8   8
#     4  10  19  36  62  91 124 164 215 272 321 371
#     4   9  18  35  60  88 122 163 206 248 307 386
#     4  10  21  39  63  94 128 166 211 259 317 399
#
# _framework density 23.053166000000001
#
# number of rings (size 3 to 8) (size 9 to 14) (size 15 to 20)
#    0.000    2.333    0.000    8.000    0.000    5.333 
#    0.000    6.667    0.000    4.000    0.000    0.000 
#    0.000    0.000    0.000    6.667    0.000    0.000 
#
# Total GULP energy -133603.484056 kJ/mol
# GULP energy per Si atom -5566.811836 kJ/mol
# Density = 2.300070 g / cm^3
# Si number density = 23.053166 Si / 1000 Ang^3
#
#
#
# Elastic Constant Matrix: (Units=GPa)
#
#
# Indices 1 2 3 4 5 6 
#
# 1 176.5222 142.0248 45.0022 0.0000 0.0000 -0.9281
# 2 142.0248 176.5222 45.0022 0.0000 0.0000 0.9281
# 3 45.0022 45.0022 49.4543 0.0000 0.0000 0.0000
# 4 0.0000 0.0000 0.0000 34.4458 0.0000 0.0000
# 5 0.0000 0.0000 0.0000 0.0000 34.4458 0.0000
# 6 -0.9281 0.9281 0.0000 0.0000 0.0000 59.6507
#
#
#
# Elastic Compliance Matrix: (Units=1/GPa)
#
#
# Indices 1 2 3 4 5 6 
#
# 1 0.016619 -0.012393 -0.003845 0.000000 0.000000 0.000451
# 2 -0.012393 0.016619 -0.003845 0.000000 0.000000 -0.000451
# 3 -0.003845 -0.003845 0.027219 0.000000 0.000000 0.000000
# 4 0.000000 0.000000 0.000000 0.029031 0.000000 0.000000
# 5 0.000000 0.000000 0.000000 0.000000 0.029031 0.000000
# 6 0.000451 -0.000451 0.000000 0.000000 0.000000 0.016778
#
#
# Mechanical properties :
#
#
# Convention : Reuss Voigt Hill
#
# Bulk Modulus (GPa) = 49.28736 96.28410 72.78573
# Shear Modulus (GPa) = 27.43820 37.07309 32.25564
#
# Velocity S-wave (km/s) = 3.45369 4.01453 3.74463
# Velocity P-wave (km/s) = 6.10985 7.95898 7.09492
#
# Compressibility (1/GPa) = 0.02028918
#
# Stress axis : x y z
#
# Youngs Moduli (GPa) = 60.17272 60.17272 36.73911
#
# Poissons Ratio (x) = 0.74573 0.14127
# Poissons Ratio (y) = 0.74573 0.14127
# Poissons Ratio (z) = 0.23138 0.23138
#
# Static dielectric constant tensor:
#      x y z
#    x 1.895270 0.000000 0.000000 
#    y 0.000000 1.895270 0.000000 
#    z 0.000000 0.000000 2.263510 
# 
# From -- ./inp_files/3184.got.cif
#   From: 2010.05.17/outbox.cif.g08.bks.cpg/sg86_2_cif.got.tgz:3184.got - 2010.06.03 19:03:11.
