data_PCOD9544421
_publ_section_title
;
Structure prediction by ZEFSAII (Michael W. Deem and Ramdas Pophale) SiO2 
 PCOD9544421
Probable space group: P 42/M
;
_chemical_formula_sum "Si O2"
_cell_formula_units_Z 48
_cell_length_a 9.011369
_cell_length_b 9.011369
_cell_length_c 28.840978
_cell_angle_alpha 90.000000
_cell_angle_beta 90.000000
_cell_angle_gamma 90.000000
_cell_volume 2342.025021
_symmetry_space_group_name_H-M "P 42/M"
_symmetry_group_IT_number 84
_symmetry_cell_setting 'tetragonal'
loop_
_space_group_symop_operation_xyz
x,y,z
-y,x,1/2+z
-x,-y,z
y,-x,1/2+z
-x,-y,-z
y,-x,1/2-z
x,y,-z
-y,x,1/2-z
loop_
_atom_site_type_symbol
_atom_site_label
_atom_site_fract_x
_atom_site_fract_y
_atom_site_fract_z
Si Si1 0.890386 0.860009 0.947017
Si Si2 0.143441 0.784402 0.300314
Si Si3 0.864426 0.201883 0.803343
Si Si4 0.103139 0.634421 0.106686
Si Si5 0.402368 0.142538 0.113496
Si Si6 0.602484 0.356344 0.051861
O O1 0.737443 0.892947 0.920248
O O2 0.986670 0.741052 0.919094
O O3 0.858891 0.813459 0.000000
O O4 0.000000 0.000000 0.948091
O O5 0.175295 0.737293 0.247481
O O6 0.202795 0.675330 0.339712
O O7 0.964771 0.800241 0.306172
O O8 0.194715 0.955292 0.305402
O O9 0.821496 0.292394 0.848422
O O10 0.236345 0.600386 0.071449
O O11 0.000000 0.500000 0.122168
O O12 0.514095 0.248352 0.086052
O O13 0.500000 0.000000 0.125779
O O14 0.500000 0.500000 0.048785
O O15 0.619087 0.290864 0.000000
#
# Coordination Sequence:
#
# PCOD9544421 Si02
#       6
#     8   8   8   8   8   8
#     4  11  23  39  62  91 122 160 213 266 314 373
#     4   9  18  35  64  93 125 161 203 256 316 372
#     4   9  18  36  62  96 124 156 206 262 310 371
#     4  12  24  40  65  92 123 163 218 272 315 380
#     4  12  23  37  63  92 128 164 206 259 322 386
#     4  11  26  45  62  86 127 174 213 256 325 393
#
# _framework density 20.495083999999999
#
# number of rings (size 3 to 8) (size 9 to 14) (size 15 to 20)
#    0.000    1.333    1.667    6.000    0.000    6.000 
#    0.000    0.000    0.000    0.000    0.000    0.000 
#    0.000    0.000    0.000    0.000    0.000    0.000 
#
# Total GULP energy -268157.202929 kJ/mol
# GULP energy per Si atom -5586.608394 kJ/mol
# Density = 2.044844 g / cm^3
# Si number density = 20.495084 Si / 1000 Ang^3
#
#
#
# Elastic Constant Matrix: (Units=GPa)
#
#
# Indices 1 2 3 4 5 6 
#
# 1 49.5179 -10.9790 10.0956 0.0000 0.0000 -0.4241
# 2 -10.9790 49.5179 10.0956 0.0000 0.0000 0.4241
# 3 10.0956 10.0956 135.0819 0.0000 0.0000 0.0000
# 4 0.0000 0.0000 0.0000 -10.5113 0.0000 0.0000
# 5 0.0000 0.0000 0.0000 0.0000 -10.5113 0.0000
# 6 -0.4241 0.4241 0.0000 0.0000 0.0000 26.5415
#
#
#
# Elastic Compliance Matrix: (Units=1/GPa)
#
#
# Indices 1 2 3 4 5 6 
#
# 1 0.021769 0.005236 -0.002018 0.000000 0.000000 0.000264
# 2 0.005236 0.021769 -0.002018 0.000000 0.000000 -0.000264
# 3 -0.002018 -0.002018 0.007705 0.000000 0.000000 0.000000
# 4 0.000000 0.000000 0.000000 -0.095136 0.000000 0.000000
# 5 0.000000 0.000000 0.000000 0.000000 -0.095136 0.000000
# 6 0.000264 -0.000264 0.000000 0.000000 0.000000 0.037685
#
#
# Mechanical properties :
#
#
# Convention : Reuss Voigt Hill
#
# Bulk Modulus (GPa) = 18.64217 28.06024 23.35121
# Shear Modulus (GPa) = -58.23366 16.09748 -21.06809
#
# Velocity S-wave (km/s) = -5.33621 2.80559 -3.20966
# Velocity P-wave (km/s) = 5.37133 4.92098 1.52236
#
# Compressibility (1/GPa) = 0.05364182
#
# Stress axis : x y z
#
# Youngs Moduli (GPa) = 45.93619 45.93619 129.79266
#
# Poissons Ratio (x) = -0.24051 0.26196
# Poissons Ratio (y) = -0.24051 0.26196
# Poissons Ratio (z) = 0.09271 0.09271
#
# Static dielectric constant tensor:
#      x y z
#    x 1.726320 0.000000 0.000000 
#    y 0.000000 1.726320 0.000000 
#    z 0.000000 0.000000 1.760810 
# 
# From -- ./inp_files/5820.got.cif
#   From: 2010.05.17/outbox.cif.g08.bks.cpg/sg84_3_cif.got.tgz:5820.got - 2010.06.03 18:57:40.
