data_PCOD9544666
_publ_section_title
;
Structure prediction by ZEFSAII (Michael W. Deem and Ramdas Pophale) SiO2 
 PCOD9544666
Probable space group: P 4/N
;
_chemical_formula_sum "Si O2"
_cell_formula_units_Z 28
_cell_length_a 15.146166
_cell_length_b 15.146166
_cell_length_c 4.781711
_cell_angle_alpha 90.000000
_cell_angle_beta 90.000000
_cell_angle_gamma 90.000000
_cell_volume 1096.954841
_symmetry_space_group_name_H-M "P 4/N"
_symmetry_group_IT_number 85
_symmetry_cell_setting 'tetragonal'
loop_
_space_group_symop_operation_xyz
x,y,z
1/2-y,x,z
1/2-x,1/2-y,z
y,1/2-x,z
-x,-y,-z
1/2+y,-x,-z
1/2+x,1/2+y,-z
-y,1/2+x,-z
loop_
_atom_site_type_symbol
_atom_site_label
_atom_site_fract_x
_atom_site_fract_y
_atom_site_fract_z
Si Si1 0.608974 0.115588 0.010083
Si Si2 0.146895 0.007195 0.500590
Si Si3 0.563502 0.675205 0.229036
Si Si4 0.750000 0.750000 0.038117
Si Si5 0.250000 0.750000 0.000000
O O1 0.519659 0.123269 0.188456
O O2 0.673528 0.190748 0.135444
O O3 0.655628 0.022296 0.046025
O O4 0.579120 0.132506 0.694324
O O5 0.085397 0.086207 0.604515
O O6 0.245820 0.040364 0.557344
O O7 0.650439 0.705240 0.061651
#
# Coordination Sequence:
#
# PCOD9544666 Si02
#       5
#     8   8   8   2   2
#     4  12  26  44  70 100 143 182 237 286 353 412
#     4  11  26  43  71 102 137 186 231 291 347 420
#     4  10  22  45  71 101 143 181 239 288 355 411
#     4   8  20  44  72 106 136 190 236 298 344 426
#     4  12  28  46  72 110 144 190 232 294 348 430
#
# _framework density 25.525207999999999
#
# number of rings (size 3 to 8) (size 9 to 14) (size 15 to 20)
#    0.000    1.143    2.857    1.714    4.000    3.429 
#    0.000    0.000    0.000   15.429    0.000    0.000 
#    0.000    0.000    0.000    0.000    0.000    0.000 
#
# Total GULP energy -156465.743290 kJ/mol
# GULP energy per Si atom -5588.062260 kJ/mol
# Density = 2.546711 g / cm^3
# Si number density = 25.525208 Si / 1000 Ang^3
#
#
#
# Elastic Constant Matrix: (Units=GPa)
#
#
# Indices 1 2 3 4 5 6 
#
# 1 148.7457 18.4995 10.8440 0.0000 0.0000 30.0907
# 2 18.4995 148.7457 10.8440 0.0000 0.0000 -30.0907
# 3 10.8440 10.8440 70.6801 0.0000 0.0000 0.0000
# 4 0.0000 0.0000 0.0000 9.1473 0.0000 0.0000
# 5 0.0000 0.0000 0.0000 0.0000 9.1473 0.0000
# 6 30.0907 -30.0907 0.0000 0.0000 0.0000 92.0852
#
#
#
# Elastic Compliance Matrix: (Units=1/GPa)
#
#
# Indices 1 2 3 4 5 6 
#
# 1 0.007572 -0.001471 -0.000936 0.000000 0.000000 -0.002955
# 2 -0.001471 0.007572 -0.000936 0.000000 0.000000 0.002955
# 3 -0.000936 -0.000936 0.014435 0.000000 0.000000 0.000000
# 4 0.000000 0.000000 0.000000 0.109322 0.000000 0.000000
# 5 0.000000 0.000000 0.000000 0.000000 0.109322 0.000000
# 6 -0.002955 0.002955 0.000000 0.000000 0.000000 0.012791
#
#
# Mechanical properties :
#
#
# Convention : Reuss Voigt Hill
#
# Bulk Modulus (GPa) = 43.68189 49.83850 46.76020
# Shear Modulus (GPa) = 18.15997 43.94155 31.05076
#
# Velocity S-wave (km/s) = 2.67020 4.15359 3.49158
# Velocity P-wave (km/s) = 5.16304 6.52462 5.88335
#
# Compressibility (1/GPa) = 0.02289278
#
# Stress axis : x y z
#
# Youngs Moduli (GPa) = 132.06735 132.06735 69.27386
#
# Poissons Ratio (x) = 0.19431 0.06484
# Poissons Ratio (y) = 0.19431 0.06484
# Poissons Ratio (z) = 0.12361 0.12361
#
# Static dielectric constant tensor:
#      x y z
#    x 1.981790 0.000000 0.000000 
#    y 0.000000 1.981790 0.000000 
#    z 0.000000 0.000000 1.976480 
# 
# From -- ./inp_files/226.got.cif
#   From: 2010.05.17/outbox.cif.g08.bks.cpg/sg85_cif.got.tgz:226.got - 2010.06.03 19:01:16.
