data_PCOD9544894
_publ_section_title
;
Structure prediction by ZEFSAII (Michael W. Deem and Ramdas Pophale) SiO2 
 PCOD9544894
Probable space group: P 42/N
;
_chemical_formula_sum "Si O2"
_cell_formula_units_Z 60
_cell_length_a 14.723715
_cell_length_b 14.723715
_cell_length_c 15.005544
_cell_angle_alpha 90.000000
_cell_angle_beta 90.000000
_cell_angle_gamma 90.000000
_cell_volume 3253.018622
_symmetry_space_group_name_H-M "P 42/N"
_symmetry_group_IT_number 86
_space_group.IT_coordinate_system_code '2'
_symmetry_cell_setting 'tetragonal'
loop_
_space_group_symop_operation_xyz
x,y,z
-y,1/2+x,1/2+z
1/2-x,1/2-y,z
1/2+y,-x,1/2+z
-x,-y,-z
y,1/2-x,1/2-z
1/2+x,1/2+y,-z
1/2-y,x,1/2-z
loop_
_atom_site_type_symbol
_atom_site_label
_atom_site_fract_x
_atom_site_fract_y
_atom_site_fract_z
Si Si1 0.792394 0.907036 0.879051
Si Si2 0.523083 0.511664 0.637844
Si Si3 0.159100 0.449821 0.265376
Si Si4 0.250000 0.250000 0.513563
Si Si5 0.859650 0.930510 0.467952
Si Si6 0.302442 0.596999 0.311573
Si Si7 0.378397 0.769077 0.009867
Si Si8 0.119425 0.725415 0.606591
O O1 0.888246 0.896888 0.831305
O O2 0.715399 0.888559 0.804548
O O3 0.778264 0.011329 0.906593
O O4 0.788919 0.831576 0.953853
O O5 0.493412 0.587758 0.707714
O O6 0.579729 0.564737 0.559611
O O7 0.437414 0.456335 0.602656
O O8 0.596481 0.443410 0.680335
O O9 0.232767 0.512395 0.311706
O O10 0.197327 0.160885 0.553222
O O11 0.792742 0.016346 0.477738
O O12 0.282251 0.646278 0.405267
O O13 0.287676 0.638450 0.212817
O O14 0.350480 0.672009 0.049315
O O15 0.318863 0.840043 0.067835
#
# Coordination Sequence:
#
# PCOD9544894 Si02
#       8
#     8   8   8   4   8   8   8   8
#     4  11  20  31  53  90 123 154 190 255 327 366
#     4  10  18  34  56  84 120 162 203 253 314 386
#     4  11  17  32  53  89 122 153 195 259 315 379
#     4  12  22  33  54  90 129 164 198 252 308 393
#     4  10  21  34  56  85 120 164 206 246 310 373
#     4  10  21  36  60  89 120 159 208 252 319 382
#     4  10  22  40  59  86 126 160 208 267 301 380
#     4  10  22  39  62  86 123 160 212 264 311 369
#
# _framework density 18.444407000000002
#
# number of rings (size 3 to 8) (size 9 to 14) (size 15 to 20)
#    0.000    1.600    4.000    4.000    3.733    2.133 
#    0.000    2.667    0.000    1.600    0.000    0.000 
#    0.000    0.000    0.000    0.000    0.000    0.000 
#
# Total GULP energy -334299.069622 kJ/mol
# GULP energy per Si atom -5571.651160 kJ/mol
# Density = 1.840243 g / cm^3
# Si number density = 18.444407 Si / 1000 Ang^3
#
#
#
# Elastic Constant Matrix: (Units=GPa)
#
#
# Indices 1 2 3 4 5 6 
#
# 1 98.4180 43.0040 30.5653 0.0000 0.0000 0.6645
# 2 43.0040 98.4180 30.5653 0.0000 0.0000 -0.6645
# 3 30.5653 30.5653 90.3206 0.0000 0.0000 0.0000
# 4 0.0000 0.0000 0.0000 25.2892 0.0000 0.0000
# 5 0.0000 0.0000 0.0000 0.0000 25.2892 0.0000
# 6 0.6645 -0.6645 0.0000 0.0000 0.0000 28.7486
#
#
#
# Elastic Compliance Matrix: (Units=1/GPa)
#
#
# Indices 1 2 3 4 5 6 
#
# 1 0.013169 -0.004887 -0.002803 0.000000 0.000000 -0.000417
# 2 -0.004887 0.013169 -0.002803 0.000000 0.000000 0.000417
# 3 -0.002803 -0.002803 0.012969 0.000000 0.000000 0.000000
# 4 0.000000 0.000000 0.000000 0.039543 0.000000 0.000000
# 5 0.000000 0.000000 0.000000 0.000000 0.039543 0.000000
# 6 -0.000417 0.000417 0.000000 0.000000 0.000000 0.034804
#
#
# Mechanical properties :
#
#
# Convention : Reuss Voigt Hill
#
# Bulk Modulus (GPa) = 54.57823 55.04729 54.81276
# Shear Modulus (GPa) = 27.73332 28.06687 27.90009
#
# Velocity S-wave (km/s) = 3.88186 3.90513 3.89351
# Velocity P-wave (km/s) = 7.05313 7.08824 7.07071
#
# Compressibility (1/GPa) = 0.01832232
#
# Stress axis : x y z
#
# Youngs Moduli (GPa) = 75.93421 75.93421 77.10860
#
# Poissons Ratio (x) = 0.37107 0.21613
# Poissons Ratio (y) = 0.37107 0.21613
# Poissons Ratio (z) = 0.21284 0.21284
#
# Static dielectric constant tensor:
#      x y z
#    x 1.653560 0.000000 0.000000 
#    y 0.000000 1.653560 0.000000 
#    z 0.000000 0.000000 1.682060 
# 
# From -- ./inp_files/3090.got.cif
#   From: 2010.05.17/outbox.cif.g08.bks.cpg/sg86_2_cif.got.tgz:3090.got - 2010.06.03 19:03:11.
