data_PCOD9544770
_publ_section_title
;
Structure prediction by ZEFSAII (Michael W. Deem and Ramdas Pophale) SiO2 
 PCOD9544770
Probable space group: P 4/N
;
_chemical_formula_sum "Si O2"
_cell_formula_units_Z 40
_cell_length_a 9.529081
_cell_length_b 9.529081
_cell_length_c 22.929143
_cell_angle_alpha 90.000000
_cell_angle_beta 90.000000
_cell_angle_gamma 90.000000
_cell_volume 2082.043793
_symmetry_space_group_name_H-M "P 4/N"
_symmetry_group_IT_number 85
_symmetry_cell_setting 'tetragonal'
loop_
_space_group_symop_operation_xyz
x,y,z
1/2-y,x,z
1/2-x,1/2-y,z
y,1/2-x,z
-x,-y,-z
1/2+y,-x,-z
1/2+x,1/2+y,-z
-y,1/2+x,-z
loop_
_atom_site_type_symbol
_atom_site_label
_atom_site_fract_x
_atom_site_fract_y
_atom_site_fract_z
Si Si1 0.145082 0.454356 0.721972
Si Si2 0.912727 0.374021 0.475845
Si Si3 0.030025 0.330738 0.347136
Si Si4 0.933591 0.887935 0.138485
Si Si5 0.425649 0.090971 0.050354
O O1 0.067505 0.308326 0.705088
O O2 0.122081 0.455078 0.791862
O O3 0.084004 0.594155 0.693434
O O4 0.918957 0.248788 0.522743
O O5 0.000000 0.500000 0.500000
O O6 0.972304 0.334608 0.413173
O O7 0.076599 0.170717 0.337682
O O8 0.776554 0.939269 0.121181
O O9 0.040627 0.993937 0.108609
O O10 0.440591 0.259366 0.046853
O O11 0.500000 0.000000 0.000000
#
# Coordination Sequence:
#
# PCOD9544770 Si02
#       5
#     8   8   8   8   8
#     4   9  21  40  63  91 120 156 199 246 298 353
#     4  11  24  41  62  88 118 153 193 239 297 358
#     4  11  24  41  60  86 121 156 194 245 299 353
#     4   9  19  39  63  88 121 157 200 249 298 353
#     4  11  24  39  58  88 124 161 204 251 300 354
#
# _framework density 19.21189
#
# number of rings (size 3 to 8) (size 9 to 14) (size 15 to 20)
#    0.000    1.800    2.000    2.400    2.800    7.200 
#    0.000    6.000    0.000    0.000    0.000    0.000 
#    0.000    0.000    0.000    0.000    0.000    0.000 
#
# Total GULP energy -223105.688474 kJ/mol
# GULP energy per Si atom -5577.642212 kJ/mol
# Density = 1.916816 g / cm^3
# Si number density = 19.211890 Si / 1000 Ang^3
#
#
#
# Elastic Constant Matrix: (Units=GPa)
#
#
# Indices 1 2 3 4 5 6 
#
# 1 77.2285 57.0685 11.4465 0.0000 0.0000 -0.3035
# 2 57.0685 77.2285 11.4465 0.0000 0.0000 0.3035
# 3 11.4465 11.4465 26.8157 0.0000 0.0000 0.0000
# 4 0.0000 0.0000 0.0000 34.3897 0.0000 0.0000
# 5 0.0000 0.0000 0.0000 0.0000 34.3897 0.0000
# 6 -0.3035 0.3035 0.0000 0.0000 0.0000 40.9293
#
#
#
# Elastic Compliance Matrix: (Units=1/GPa)
#
#
# Indices 1 2 3 4 5 6 
#
# 1 0.028822 -0.020792 -0.003428 0.000000 0.000000 0.000368
# 2 -0.020792 0.028822 -0.003428 0.000000 0.000000 -0.000368
# 3 -0.003428 -0.003428 0.040218 0.000000 0.000000 0.000000
# 4 0.000000 0.000000 0.000000 0.029078 0.000000 0.000000
# 5 0.000000 0.000000 0.000000 0.000000 0.029078 0.000000
# 6 0.000368 -0.000368 0.000000 0.000000 0.000000 0.024438
#
#
# Mechanical properties :
#
#
# Convention : Reuss Voigt Hill
#
# Bulk Modulus (GPa) = 23.49210 37.91065 30.70137
# Shear Modulus (GPa) = 20.00464 28.69581 24.35022
#
# Velocity S-wave (km/s) = 3.23036 3.86897 3.56400
# Velocity P-wave (km/s) = 5.11548 6.30351 5.74031
#
# Compressibility (1/GPa) = 0.04256751
#
# Stress axis : x y z
#
# Youngs Moduli (GPa) = 34.69529 34.69529 24.86444
#
# Poissons Ratio (x) = 0.72138 0.08523
# Poissons Ratio (y) = 0.72138 0.08523
# Poissons Ratio (z) = 0.11893 0.11893
#
# Static dielectric constant tensor:
#      x y z
#    x 1.621140 0.000000 0.000000 
#    y 0.000000 1.621140 0.000000 
#    z 0.000000 0.000000 1.672980 
# 
# From -- ./inp_files/2308.got.cif
#   From: 2010.05.17/outbox.cif.g08.bks.cpg/sg85_cif.got.tgz:2308.got - 2010.06.03 19:01:16.
