data_PCOD9544581
_publ_section_title
;
Structure prediction by ZEFSAII (Michael W. Deem and Ramdas Pophale) SiO2 
 PCOD9544581
Probable space group: P 4/N
;
_chemical_formula_sum "Si O2"
_cell_formula_units_Z 64
_cell_length_a 17.867636
_cell_length_b 17.867636
_cell_length_c 9.299631
_cell_angle_alpha 90.000000
_cell_angle_beta 90.000000
_cell_angle_gamma 90.000000
_cell_volume 2968.929667
_symmetry_space_group_name_H-M "P 4/N"
_symmetry_group_IT_number 85
_symmetry_cell_setting 'tetragonal'
loop_
_space_group_symop_operation_xyz
x,y,z
1/2-y,x,z
1/2-x,1/2-y,z
y,1/2-x,z
-x,-y,-z
1/2+y,-x,-z
1/2+x,1/2+y,-z
-y,1/2+x,-z
loop_
_atom_site_type_symbol
_atom_site_label
_atom_site_fract_x
_atom_site_fract_y
_atom_site_fract_z
Si Si1 0.629798 0.744978 0.053283
Si Si2 0.165882 0.527225 0.600325
Si Si3 0.463209 0.926752 0.812500
Si Si4 0.469192 0.759050 0.907246
Si Si5 0.957627 0.088454 0.137955
Si Si6 0.159162 0.800662 0.577804
Si Si7 0.282747 0.134838 0.601079
Si Si8 0.294274 0.594922 0.804237
O O1 0.680641 0.674815 0.006824
O O2 0.547515 0.752907 0.992825
O O3 0.629476 0.730906 0.225489
O O4 0.090445 0.542222 0.688237
O O5 0.168096 0.579196 0.461483
O O6 0.183201 0.443210 0.556734
O O7 0.233862 0.553265 0.705523
O O8 0.541824 0.971188 0.807943
O O9 0.468809 0.835947 0.815628
O O10 0.425997 0.950623 0.965620
O O11 0.406597 0.768575 0.031671
O O12 0.461581 0.677469 0.838508
O O13 0.877654 0.058699 0.198110
O O14 0.213404 0.836250 0.455037
O O15 0.192527 0.825545 0.728539
O O16 0.338934 0.200604 0.554041
#
# Coordination Sequence:
#
# PCOD9544581 Si02
#       8
#     8   8   8   8   8   8   8   8
#     4   9  16  27  49  80 110 143 184 229 286 349
#     4  11  20  37  60  82 114 155 194 242 305 352
#     4  10  22  34  55  87 116 158 194 235 301 363
#     4  11  19  34  54  82 116 161 188 239 293 354
#     4  10  21  36  54  84 124 147 189 245 294 355
#     4   9  21  40  60  80 106 153 197 249 285 341
#     4   9  18  30  54  88 114 142 184 240 298 353
#     4  10  21  36  57  80 110 149 195 239 293 348
#
# _framework density 21.556588999999999
#
# number of rings (size 3 to 8) (size 9 to 14) (size 15 to 20)
#    0.000    2.125    2.500    1.500    3.500    2.000 
#    0.000    0.625    0.000    0.000    0.000    0.000 
#    0.000    0.000    0.000    0.625    0.000    0.000 
#
# Total GULP energy -357074.513249 kJ/mol
# GULP energy per Si atom -5579.289270 kJ/mol
# Density = 2.150753 g / cm^3
# Si number density = 21.556589 Si / 1000 Ang^3
#
#
#
# Elastic Constant Matrix: (Units=GPa)
#
#
# Indices 1 2 3 4 5 6 
#
# 1 136.3983 61.8171 38.2937 0.0000 0.0000 3.6993
# 2 61.8171 136.3983 38.2937 0.0000 0.0000 -3.6993
# 3 38.2937 38.2937 46.8288 0.0000 0.0000 0.0000
# 4 0.0000 0.0000 0.0000 12.3210 0.0000 0.0000
# 5 0.0000 0.0000 0.0000 0.0000 12.3210 0.0000
# 6 3.6993 -3.6993 0.0000 0.0000 0.0000 12.6688
#
#
#
# Elastic Compliance Matrix: (Units=1/GPa)
#
#
# Indices 1 2 3 4 5 6 
#
# 1 0.010592 -0.003216 -0.006031 0.000000 0.000000 -0.004032
# 2 -0.003216 0.010592 -0.006031 0.000000 0.000000 0.004032
# 3 -0.006031 -0.006031 0.031218 0.000000 0.000000 0.000000
# 4 0.000000 0.000000 0.000000 0.081162 0.000000 0.000000
# 5 0.000000 0.000000 0.000000 0.000000 0.081162 0.000000
# 6 -0.004032 0.004032 0.000000 0.000000 0.000000 0.081289
#
#
# Mechanical properties :
#
#
# Convention : Reuss Voigt Hill
#
# Bulk Modulus (GPa) = 45.77833 66.27053 56.02443
# Shear Modulus (GPa) = 14.97662 19.54355 17.26009
#
# Velocity S-wave (km/s) = 2.63869 3.01427 2.83271
# Velocity P-wave (km/s) = 5.52865 6.55162 6.06176
#
# Compressibility (1/GPa) = 0.02184440
#
# Stress axis : x y z
#
# Youngs Moduli (GPa) = 94.41293 94.41293 32.03263
#
# Poissons Ratio (x) = 0.30367 0.19319
# Poissons Ratio (y) = 0.30367 0.19319
# Poissons Ratio (z) = 0.56942 0.56942
#
# Static dielectric constant tensor:
#      x y z
#    x 1.798710 0.000000 0.000000 
#    y 0.000000 1.798710 0.000000 
#    z 0.000000 0.000000 1.793270 
# 
# From -- ./inp_files/1857.got.cif
#   From: 2010.05.17/outbox.cif.g08.bks.cpg/sg85_cif.got.tgz:1857.got - 2010.06.03 19:01:16.
