data_PCOD9544021
_publ_section_title
;
Structure prediction by ZEFSAII (Michael W. Deem and Ramdas Pophale) SiO2 
 PCOD9544021
Probable space group: P 42/M
;
_chemical_formula_sum "Si O2"
_cell_formula_units_Z 46
_cell_length_a 15.014976
_cell_length_b 15.014976
_cell_length_c 7.736719
_cell_angle_alpha 90.000000
_cell_angle_beta 90.000000
_cell_angle_gamma 90.000000
_cell_volume 1744.239463
_symmetry_space_group_name_H-M "P 42/M"
_symmetry_group_IT_number 84
_symmetry_cell_setting 'tetragonal'
loop_
_space_group_symop_operation_xyz
x,y,z
-y,x,1/2+z
-x,-y,z
y,-x,1/2+z
-x,-y,-z
y,-x,1/2-z
x,y,-z
-y,x,1/2-z
loop_
_atom_site_type_symbol
_atom_site_label
_atom_site_fract_x
_atom_site_fract_y
_atom_site_fract_z
Si Si1 0.134789 0.586315 0.500000
Si Si2 0.099873 0.161298 0.293155
Si Si3 0.711501 0.254763 0.203199
Si Si4 0.000000 0.000000 0.750000
Si Si5 0.970340 0.323617 0.802124
Si Si6 0.450358 0.861409 0.312686
Si Si7 0.430380 0.375508 0.198188
O O1 0.155229 0.511971 0.651221
O O2 0.302895 0.640754 0.761445
O O3 0.097290 0.140230 0.500000
O O4 0.197199 0.201210 0.253234
O O5 0.030804 0.239164 0.246938
O O6 0.071353 0.073884 0.189007
O O7 0.901761 0.346793 0.346837
O O8 0.631779 0.206714 0.304019
O O9 0.697586 0.240192 0.000000
O O10 0.040941 0.405907 0.799215
O O11 0.937275 0.313015 0.000000
O O12 0.495099 0.853249 0.500000
O O13 0.385783 0.474135 0.210804
O O14 0.449483 0.355159 0.000000
#
# Coordination Sequence:
#
# PCOD9544021 Si02
#       7
#     4   8   8   2   8   8   8
#     4  12  19  32  56  89 136 184 234 293 359 442
#     4  10  23  45  72 102 137 181 238 316 392 460
#     4  10  20  40  67  98 143 193 243 306 380 443
#     4  12  26  48  84 114 134 184 262 326 400 490
#     4  10  20  34  58  90 131 177 229 290 366 445
#     4  10  19  31  53  91 133 187 240 286 353 437
#     4  11  22  40  69 108 150 199 254 302 353 433
#
# _framework density 26.372523999999999
#
# number of rings (size 3 to 8) (size 9 to 14) (size 15 to 20)
#    0.000    1.565    1.739    4.957    0.000    3.478 
#    0.000    1.739    0.000    2.087    0.000    0.000 
#    0.000    0.000    0.000    0.000    0.000    0.000 
#
# Total GULP energy -256582.427798 kJ/mol
# GULP energy per Si atom -5577.878865 kJ/mol
# Density = 2.631250 g / cm^3
# Si number density = 26.372524 Si / 1000 Ang^3
#
#
#
# Elastic Constant Matrix: (Units=GPa)
#
#
# Indices 1 2 3 4 5 6 
#
# 1 112.6373 99.9970 51.8733 0.0000 0.0000 6.5443
# 2 99.9970 112.6373 51.8733 0.0000 0.0000 -6.5443
# 3 51.8733 51.8733 209.6931 0.0000 0.0000 0.0000
# 4 0.0000 0.0000 0.0000 -16.1145 0.0000 0.0000
# 5 0.0000 0.0000 0.0000 0.0000 -16.1145 0.0000
# 6 6.5443 -6.5443 0.0000 0.0000 0.0000 59.5066
#
#
#
# Elastic Compliance Matrix: (Units=1/GPa)
#
#
# Indices 1 2 3 4 5 6 
#
# 1 0.047314 -0.041965 -0.001323 0.000000 0.000000 -0.009819
# 2 -0.041965 0.047314 -0.001323 0.000000 0.000000 0.009819
# 3 -0.001323 -0.001323 0.005423 0.000000 0.000000 0.000000
# 4 0.000000 0.000000 0.000000 -0.062056 0.000000 0.000000
# 5 0.000000 0.000000 0.000000 0.000000 -0.062056 0.000000
# 6 -0.009819 0.009819 0.000000 0.000000 0.000000 0.018964
#
#
# Mechanical properties :
#
#
# Convention : Reuss Voigt Hill
#
# Bulk Modulus (GPa) = 92.35275 93.60610 92.97942
# Shear Modulus (GPa) = 56.98940 20.87045 38.92992
#
# Velocity S-wave (km/s) = 4.65363 2.81618 3.84624
# Velocity P-wave (km/s) = 7.99810 6.79304 7.42007
#
# Compressibility (1/GPa) = 0.01082805
#
# Stress axis : x y z
#
# Youngs Moduli (GPa) = 21.13557 21.13557 184.38353
#
# Poissons Ratio (x) = 0.88696 0.24396
# Poissons Ratio (y) = 0.88696 0.24396
# Poissons Ratio (z) = 0.02796 0.02796
#
# Static dielectric constant tensor:
#      x y z
#    x 2.103280 0.000000 0.000000 
#    y 0.000000 2.103280 0.000000 
#    z 0.000000 0.000000 2.001280 
# 
# From -- ./inp_files/1036.got.cif
#   From: 2010.05.17/outbox.cif.g08.bks.cpg/sg84_1_cif.got.tgz:1036.got - 2010.06.03 18:57:40.
