data_PCOD9544989
_publ_section_title
;
Structure prediction by ZEFSAII (Michael W. Deem and Ramdas Pophale) SiO2 
 PCOD9544989
Probable space group: P 42/N
;
_chemical_formula_sum "Si O2"
_cell_formula_units_Z 52
_cell_length_a 16.225149
_cell_length_b 16.225149
_cell_length_c 8.802257
_cell_angle_alpha 90.000000
_cell_angle_beta 90.000000
_cell_angle_gamma 90.000000
_cell_volume 2317.242216
_symmetry_space_group_name_H-M "P 42/N"
_symmetry_group_IT_number 86
_space_group.IT_coordinate_system_code '2'
_symmetry_cell_setting 'tetragonal'
loop_
_space_group_symop_operation_xyz
x,y,z
-y,1/2+x,1/2+z
1/2-x,1/2-y,z
1/2+y,-x,1/2+z
-x,-y,-z
y,1/2-x,1/2-z
1/2+x,1/2+y,-z
1/2-y,x,1/2-z
loop_
_atom_site_type_symbol
_atom_site_label
_atom_site_fract_x
_atom_site_fract_y
_atom_site_fract_z
Si Si1 0.810625 0.076231 0.669589
Si Si2 0.858149 0.477656 0.817267
Si Si3 0.810625 0.076231 0.330414
Si Si4 0.155325 0.168519 0.318981
Si Si5 0.358149 0.977657 0.817265
Si Si6 0.831481 0.655325 0.181019
Si Si7 0.750000 0.250000 0.750002
O O1 0.735525 0.037366 0.761678
O O2 0.813891 0.039527 0.500002
O O3 0.902640 0.083981 0.737965
O O4 0.784028 0.172302 0.658921
O O5 0.916019 0.402639 0.762037
O O6 0.879462 0.571696 0.778043
O O7 0.859614 0.471912 0.000001
O O8 0.735524 0.037366 0.238325
O O9 0.784028 0.172301 0.341083
O O10 0.142367 0.264065 0.272619
O O11 0.169516 0.163522 0.500000
O O12 0.379462 0.071697 0.778042
O O13 0.735935 0.642367 0.227382
#
# Coordination Sequence:
#
# PCOD9544989 Si02
#       7
#     8   8   8   8   8   8   4
#     4   9  16  27  46  70  97 131 165 195 233 283
#     4   9  19  33  48  72 104 131 159 199 242 284
#     4   9  16  27  46  70  97 131 165 195 233 283
#     4  10  20  36  56  75  95 122 161 206 247 288
#     4   9  19  33  48  72 104 131 159 199 242 284
#     4  10  20  36  56  75  95 122 161 206 247 288
#     4   8  14  24  40  66  98 128 164 202 234 268
#
# _framework density 22.440469
#
# number of rings (size 3 to 8) (size 9 to 14) (size 15 to 20)
#    0.000    2.769    0.000    2.308    0.000    9.846 
#    0.000    1.538    0.000    9.231    0.000    0.000 
#    0.000    0.000    0.000    0.000    0.000    0.000 
#
# Total GULP energy -289929.043760 kJ/mol
# GULP energy per Si atom -5575.558534 kJ/mol
# Density = 2.238939 g / cm^3
# Si number density = 22.440469 Si / 1000 Ang^3
#
#
#
# Elastic Constant Matrix: (Units=GPa)
#
#
# Indices 1 2 3 4 5 6 
#
# 1 113.3162 -6.6963 7.6166 0.0000 0.0000 6.4317
# 2 -6.6963 113.3162 7.6166 0.0000 0.0000 -6.4317
# 3 7.6166 7.6166 32.2674 0.0000 0.0000 0.0000
# 4 0.0000 0.0000 0.0000 48.3240 0.0000 0.0000
# 5 0.0000 0.0000 0.0000 0.0000 48.3240 0.0000
# 6 6.4317 -6.4317 0.0000 0.0000 0.0000 -2.9619
#
#
#
# Elastic Compliance Matrix: (Units=1/GPa)
#
#
# Indices 1 2 3 4 5 6 
#
# 1 0.008233 0.001474 -0.002291 0.000000 0.000000 0.014678
# 2 0.001474 0.008233 -0.002291 0.000000 0.000000 -0.014678
# 3 -0.002291 -0.002291 0.032073 0.000000 0.000000 0.000000
# 4 0.000000 0.000000 0.000000 0.020694 0.000000 0.000000
# 5 0.000000 0.000000 0.000000 0.000000 0.020694 0.000000
# 6 0.014678 -0.014678 0.000000 0.000000 0.000000 -0.273877
#
#
# Mechanical properties :
#
#
# Convention : Reuss Voigt Hill
#
# Bulk Modulus (GPa) = 23.62898 30.66374 27.14636
# Shear Modulus (GPa) = -30.55739 35.42807 2.43534
#
# Velocity S-wave (km/s) = -3.69414 3.97767 1.04288
# Velocity P-wave (km/s) = 2.76461 5.89830 3.68422
#
# Compressibility (1/GPa) = 0.04232091
#
# Stress axis : x y z
#
# Youngs Moduli (GPa) = 121.46446 121.46446 31.17919
#
# Poissons Ratio (x) = -0.17899 0.07144
# Poissons Ratio (y) = -0.17899 0.07144
# Poissons Ratio (z) = 0.27830 0.27830
#
# Static dielectric constant tensor:
#      x y z
#    x 1.880840 0.000000 0.000000 
#    y 0.000000 1.880840 0.000000 
#    z 0.000000 0.000000 1.774010 
# 
# From -- ./inp_files/1395.got.cif
#   From: 2010.05.17/outbox.cif.g08.bks.cpg/sg86_1_cif.got.tgz:1395.got - 2010.06.03 19:03:11.
