data_PCOD9544934
_publ_section_title
;
Structure prediction by ZEFSAII (Michael W. Deem and Ramdas Pophale) SiO2 
 PCOD9544934
Probable space group: P 42/N
;
_chemical_formula_sum "Si O2"
_cell_formula_units_Z 18
_cell_length_a 9.617089
_cell_length_b 9.617089
_cell_length_c 6.868407
_cell_angle_alpha 90.000000
_cell_angle_beta 90.000000
_cell_angle_gamma 90.000000
_cell_volume 635.247980
_symmetry_space_group_name_H-M "P 42/N"
_symmetry_group_IT_number 86
_space_group.IT_coordinate_system_code '2'
_symmetry_cell_setting 'tetragonal'
loop_
_space_group_symop_operation_xyz
x,y,z
-y,1/2+x,1/2+z
1/2-x,1/2-y,z
1/2+y,-x,1/2+z
-x,-y,-z
y,1/2-x,1/2-z
1/2+x,1/2+y,-z
1/2-y,x,1/2-z
loop_
_atom_site_type_symbol
_atom_site_label
_atom_site_fract_x
_atom_site_fract_y
_atom_site_fract_z
Si Si1 0.275750 0.912157 0.994562
Si Si2 0.250000 0.250000 0.250000
Si Si3 0.449029 0.471480 0.234629
O O1 0.250000 0.750000 0.978270
O O2 0.134981 0.002140 0.032173
O O3 0.373675 0.928518 0.188738
O O4 0.376050 0.962735 0.823636
O O5 0.322579 0.383001 0.349116
#
# Coordination Sequence:
#
# PCOD9544934 Si02
#       3
#     8   2   8
#     4  10  19  36  58  84 117 156 195 240 293 352
#     4   8  16  36  56  84 122 156 192 242 296 352
#     4   9  19  35  58  84 118 156 196 242 296 347
#
# _framework density 28.335391999999999
#
# number of rings (size 3 to 8) (size 9 to 14) (size 15 to 20)
#    0.000    2.667    0.000    1.333    0.000    0.000 
#    0.000   40.000    0.000    0.000    0.000    0.000 
#    0.000    0.000    0.000    0.000    0.000    0.000 
#
# Total GULP energy -100298.655338 kJ/mol
# GULP energy per Si atom -5572.147519 kJ/mol
# Density = 2.827090 g / cm^3
# Si number density = 28.335392 Si / 1000 Ang^3
#
#
#
# Elastic Constant Matrix: (Units=GPa)
#
#
# Indices 1 2 3 4 5 6 
#
# 1 101.2221 19.8926 -37.6485 0.0000 0.0000 -36.1321
# 2 19.8926 101.2221 -37.6485 0.0000 0.0000 36.1321
# 3 -37.6485 -37.6485 41.5969 0.0000 0.0000 0.0000
# 4 0.0000 0.0000 0.0000 25.5917 0.0000 0.0000
# 5 0.0000 0.0000 0.0000 0.0000 25.5917 0.0000
# 6 -36.1321 36.1321 0.0000 0.0000 0.0000 30.3166
#
#
#
# Elastic Compliance Matrix: (Units=1/GPa)
#
#
# Indices 1 2 3 4 5 6 
#
# 1 -0.094797 0.113677 0.017088 0.000000 0.000000 -0.248464
# 2 0.113677 -0.094797 0.017088 0.000000 0.000000 0.248464
# 3 0.017088 0.017088 0.054972 0.000000 0.000000 0.000000
# 4 0.000000 0.000000 0.000000 0.039075 0.000000 0.000000
# 5 0.000000 0.000000 0.000000 0.000000 0.039075 0.000000
# 6 -0.248464 0.248464 0.000000 0.000000 0.000000 -0.559267
#
#
# Mechanical properties :
#
#
# Convention : Reuss Voigt Hill
#
# Bulk Modulus (GPa) = 6.20787 14.80361 10.50574
# Shear Modulus (GPa) = -5.82921 36.26302 15.21691
#
# Velocity S-wave (km/s) = -1.43586 3.58128 2.31990
# Velocity P-wave (km/s) = 0.74384 4.72615 3.30024
#
# Compressibility (1/GPa) = 0.16108581
#
# Stress axis : x y z
#
# Youngs Moduli (GPa) = -10.54888 -10.54888 18.19093
#
# Poissons Ratio (x) = 1.19917 -0.31085
# Poissons Ratio (y) = 1.19917 -0.31085
# Poissons Ratio (z) = 0.18026 0.18026
#
# Static dielectric constant tensor:
#      x y z
#    x 2.285640 0.000000 0.000000 
#    y 0.000000 2.285640 0.000000 
#    z 0.000000 0.000000 2.792050 
# 
# From -- ./inp_files/98.got.cif
#   From: 2010.05.17/outbox.cif.g08.bks.cpg/sg86_1_cif.got.tgz:98.got - 2010.06.03 19:03:11.
