data_PCOD9544910
_publ_section_title
;
Structure prediction by ZEFSAII (Michael W. Deem and Ramdas Pophale) SiO2 
 PCOD9544910
Probable space group: P 42/N
;
_chemical_formula_sum "Si O2"
_cell_formula_units_Z 48
_cell_length_a 15.151377
_cell_length_b 15.151377
_cell_length_c 7.396777
_cell_angle_alpha 90.000000
_cell_angle_beta 90.000000
_cell_angle_gamma 90.000000
_cell_volume 1698.035379
_symmetry_space_group_name_H-M "P 42/N"
_symmetry_group_IT_number 86
_space_group.IT_coordinate_system_code '2'
_symmetry_cell_setting 'tetragonal'
loop_
_space_group_symop_operation_xyz
x,y,z
-y,1/2+x,1/2+z
1/2-x,1/2-y,z
1/2+y,-x,1/2+z
-x,-y,-z
y,1/2-x,1/2-z
1/2+x,1/2+y,-z
1/2-y,x,1/2-z
loop_
_atom_site_type_symbol
_atom_site_label
_atom_site_fract_x
_atom_site_fract_y
_atom_site_fract_z
Si Si1 0.162484 0.145681 0.808047
Si Si2 0.091376 0.767710 0.949172
Si Si3 0.627514 0.678471 0.793570
Si Si4 0.960399 0.366591 0.586989
Si Si5 0.681398 0.094434 0.128468
Si Si6 0.995827 0.601508 0.816646
O O1 0.144262 0.229837 0.679886
O O2 0.131796 0.044294 0.778613
O O3 0.112585 0.174158 0.991799
O O4 0.102466 0.862883 0.853224
O O5 0.170116 0.697883 0.917083
O O6 0.013677 0.703584 0.878966
O O7 0.086001 0.791718 0.160296
O O8 0.638630 0.773242 0.711624
O O9 0.577840 0.606174 0.673418
O O10 0.946090 0.264314 0.529780
O O11 0.986979 0.410834 0.398677
O O12 0.582848 0.057107 0.099937
#
# Coordination Sequence:
#
# PCOD9544910 Si02
#       6
#     8   8   8   8   8   8
#     4  10  21  38  55  80 107 135 181 228 271 320
#     4   9  19  32  52  79 107 140 175 215 255 316
#     4  10  19  35  60  77  98 140 184 223 270 317
#     4  10  19  33  54  77 108 143 177 213 270 315
#     4   9  19  31  52  80 105 142 173 211 259 315
#     4   8  20  34  48  80 111 134 176 225 258 320
#
# _framework density 28.267963000000002
#
# number of rings (size 3 to 8) (size 9 to 14) (size 15 to 20)
#    1.000    1.667    0.000    2.500    2.333    4.000 
#    0.000    1.667    0.000   10.000    0.000    0.000 
#    0.000    0.000    0.000    0.000    0.000    0.000 
#
# Total GULP energy -267986.173898 kJ/mol
# GULP energy per Si atom -5583.045290 kJ/mol
# Density = 2.820362 g / cm^3
# Si number density = 28.267963 Si / 1000 Ang^3
#
#
#
# Elastic Constant Matrix: (Units=GPa)
#
#
# Indices 1 2 3 4 5 6 
#
# 1 141.8461 -8.8531 36.4429 0.0000 0.0000 -27.7824
# 2 -8.8531 141.8461 36.4429 0.0000 0.0000 27.7824
# 3 36.4429 36.4429 87.0509 0.0000 0.0000 0.0000
# 4 0.0000 0.0000 0.0000 -59.1268 0.0000 0.0000
# 5 0.0000 0.0000 0.0000 0.0000 -59.1268 0.0000
# 6 -27.7824 27.7824 0.0000 0.0000 0.0000 -29.4998
#
#
#
# Elastic Compliance Matrix: (Units=1/GPa)
#
#
# Indices 1 2 3 4 5 6 
#
# 1 0.007342 0.002416 -0.004085 0.000000 0.000000 -0.004639
# 2 0.002416 0.007342 -0.004085 0.000000 0.000000 0.004639
# 3 -0.004085 -0.004085 0.014908 0.000000 0.000000 0.000000
# 4 0.000000 0.000000 0.000000 -0.016913 0.000000 0.000000
# 5 0.000000 0.000000 0.000000 0.000000 -0.016913 0.000000
# 6 -0.004639 0.004639 0.000000 0.000000 0.000000 -0.025161
#
#
# Mechanical properties :
#
#
# Convention : Reuss Voigt Hill
#
# Bulk Modulus (GPa) = 55.29887 55.42317 55.36102
# Shear Modulus (GPa) = -421.58205 -9.10332 -215.34268
#
# Velocity S-wave (km/s) = -12.22545 -1.79648 -8.73753
# Velocity P-wave (km/s) = 13.40437 3.91737 9.06453
#
# Compressibility (1/GPa) = 0.01808355
#
# Stress axis : x y z
#
# Youngs Moduli (GPa) = 136.20826 136.20826 67.07860
#
# Poissons Ratio (x) = -0.32912 0.27402
# Poissons Ratio (y) = -0.32912 0.27402
# Poissons Ratio (z) = 0.55642 0.55642
#
# Static dielectric constant tensor:
#      x y z
#    x 2.270070 0.000000 0.000000 
#    y 0.000000 2.270070 0.000000 
#    z 0.000000 0.000000 2.110790 
# 
# From -- ./inp_files/1341.got.cif
#   From: 2010.05.17/outbox.cif.g08.bks.cpg/sg86_1_cif.got.tgz:1341.got - 2010.06.03 19:03:11.
