data_PCOD9544339
_publ_section_title
;
Structure prediction by ZEFSAII (Michael W. Deem and Ramdas Pophale) SiO2 
 PCOD9544339
Probable space group: P 42/M
;
_chemical_formula_sum "Si O2"
_cell_formula_units_Z 40
_cell_length_a 9.092802
_cell_length_b 9.092802
_cell_length_c 23.520912
_cell_angle_alpha 90.000000
_cell_angle_beta 90.000000
_cell_angle_gamma 90.000000
_cell_volume 1944.686617
_symmetry_space_group_name_H-M "P 42/M"
_symmetry_group_IT_number 84
_symmetry_cell_setting 'tetragonal'
loop_
_space_group_symop_operation_xyz
x,y,z
-y,x,1/2+z
-x,-y,z
y,-x,1/2+z
-x,-y,-z
y,-x,1/2-z
x,y,-z
-y,x,1/2-z
loop_
_atom_site_type_symbol
_atom_site_label
_atom_site_fract_x
_atom_site_fract_y
_atom_site_fract_z
Si Si1 0.078082 0.655639 0.565684
Si Si2 0.166366 0.061651 0.823808
Si Si3 0.666829 0.165683 0.245342
Si Si4 0.673282 0.447401 0.820863
Si Si5 0.661519 0.570673 0.938468
O O1 0.040132 0.691964 0.500000
O O2 0.040643 0.778644 0.612047
O O3 0.254945 0.640622 0.569091
O O4 0.000000 0.500000 0.579196
O O5 0.172060 0.226376 0.800125
O O6 0.287951 0.985503 0.783361
O O7 0.000000 0.000000 0.816236
O O8 0.517260 0.224040 0.272357
O O9 0.686463 0.276652 0.192275
O O10 0.500000 0.500000 0.815869
O O11 0.728800 0.497333 0.882569
O O12 0.500000 0.500000 0.941401
O O13 0.734916 0.545102 0.000000
#
# Coordination Sequence:
#
# PCOD9544339 Si02
#       5
#     8   8   8   8   8
#     4  10  23  41  67  96 119 164 220 259 308 372
#     4  12  26  44  59  88 130 169 207 254 312 372
#     4  12  22  41  58  89 127 158 202 261 308 377
#     4  11  22  37  59  94 120 153 206 254 319 374
#     4   9  19  36  58  89 128 154 189 258 317 359
#
# _framework density 20.568868999999999
#
# number of rings (size 3 to 8) (size 9 to 14) (size 15 to 20)
#    0.000    1.200    6.000    0.000    8.400    0.400 
#    0.000    0.000    0.000    0.000    0.000    4.200 
#    0.000    0.000    0.000    0.000    0.000    0.000 
#
# Total GULP energy -222903.929346 kJ/mol
# GULP energy per Si atom -5572.598234 kJ/mol
# Density = 2.052205 g / cm^3
# Si number density = 20.568869 Si / 1000 Ang^3
#
#
#
# Elastic Constant Matrix: (Units=GPa)
#
#
# Indices 1 2 3 4 5 6 
#
# 1 33.5042 14.5991 18.5438 0.0000 0.0000 1.6869
# 2 14.5991 33.5042 18.5438 0.0000 0.0000 -1.6869
# 3 18.5438 18.5438 141.4651 0.0000 0.0000 0.0000
# 4 0.0000 0.0000 0.0000 29.0472 0.0000 0.0000
# 5 0.0000 0.0000 0.0000 0.0000 29.0472 0.0000
# 6 1.6869 -1.6869 0.0000 0.0000 0.0000 18.0234
#
#
#
# Elastic Compliance Matrix: (Units=1/GPa)
#
#
# Indices 1 2 3 4 5 6 
#
# 1 0.038460 -0.015334 -0.003031 0.000000 0.000000 -0.005035
# 2 -0.015334 0.038460 -0.003031 0.000000 0.000000 0.005035
# 3 -0.003031 -0.003031 0.007864 0.000000 0.000000 0.000000
# 4 0.000000 0.000000 0.000000 0.034427 0.000000 0.000000
# 5 0.000000 0.000000 0.000000 0.000000 0.034427 0.000000
# 6 -0.005035 0.005035 0.000000 0.000000 0.000000 0.056426
#
#
# Mechanical properties :
#
#
# Convention : Reuss Voigt Hill
#
# Bulk Modulus (GPa) = 23.81542 34.64964 29.23253
# Shear Modulus (GPa) = 18.73683 25.67600 22.20642
#
# Velocity S-wave (km/s) = 3.02144 3.53695 3.28931
# Velocity P-wave (km/s) = 4.87603 5.79330 5.35434
#
# Compressibility (1/GPa) = 0.04198961
#
# Stress axis : x y z
#
# Youngs Moduli (GPa) = 26.00098 26.00098 127.16785
#
# Poissons Ratio (x) = 0.39871 0.38550
# Poissons Ratio (y) = 0.39871 0.38550
# Poissons Ratio (z) = 0.07882 0.07882
#
# Static dielectric constant tensor:
#      x y z
#    x 1.528920 0.000000 0.000000 
#    y 0.000000 1.528920 0.000000 
#    z 0.000000 0.000000 1.794340 
# 
# From -- ./inp_files/4783.got.cif
#   From: 2010.05.17/outbox.cif.g08.bks.cpg/sg84_3_cif.got.tgz:4783.got - 2010.06.03 18:57:40.
