data_PCOD9544026
_publ_section_title
;
Structure prediction by ZEFSAII (Michael W. Deem and Ramdas Pophale) SiO2 
 PCOD9544026
Probable space group: P 42/M
;
_chemical_formula_sum "Si O2"
_cell_formula_units_Z 64
_cell_length_a 17.472999
_cell_length_b 17.472999
_cell_length_c 13.725819
_cell_angle_alpha 90.000000
_cell_angle_beta 90.000000
_cell_angle_gamma 90.000000
_cell_volume 4190.570696
_symmetry_space_group_name_H-M "P 42/M"
_symmetry_group_IT_number 84
_symmetry_cell_setting 'tetragonal'
loop_
_space_group_symop_operation_xyz
x,y,z
-y,x,1/2+z
-x,-y,z
y,-x,1/2+z
-x,-y,-z
y,-x,1/2-z
x,y,-z
-y,x,1/2-z
loop_
_atom_site_type_symbol
_atom_site_label
_atom_site_fract_x
_atom_site_fract_y
_atom_site_fract_z
Si Si1 0.325683 0.673110 0.614256
Si Si2 0.811592 0.782696 0.114824
Si Si3 0.049133 0.921579 0.884814
Si Si4 0.286213 0.061094 0.113290
Si Si5 0.192013 0.954960 0.249541
Si Si6 0.919636 0.466338 0.616923
Si Si7 0.751833 0.487975 0.615549
Si Si8 0.617113 0.543968 0.251765
O O1 0.341452 0.676212 0.500000
O O2 0.283130 0.751010 0.641234
O O3 0.268073 0.601837 0.629587
O O4 0.403049 0.654325 0.670047
O O5 0.767123 0.863828 0.122244
O O6 0.882084 0.781972 0.188328
O O7 0.833576 0.774664 0.000000
O O8 0.130368 0.933415 0.833542
O O9 0.007383 0.854180 0.826449
O O10 0.054895 0.906583 0.000000
O O11 0.000000 0.000000 0.872949
O O12 0.374896 0.080864 0.130112
O O13 0.257566 0.000236 0.192192
O O14 0.279198 0.034434 0.000000
O O15 0.919174 0.479673 0.500000
O O16 0.838604 0.500756 0.652741
O O17 0.000000 0.500000 0.655024
O O18 0.749708 0.503349 0.500000
O O19 0.682431 0.531528 0.667697
O O20 0.460498 0.411916 0.283924
#
# Coordination Sequence:
#
# PCOD9544026 Si02
#       8
#     8   8   8   8   8   8   8   8
#     4   9  17  31  50  70  95 133 170 202 238 289
#     4  10  19  32  50  69  92 127 171 208 241 286
#     4  11  20  31  44  64  95 130 163 197 245 299
#     4  10  19  32  49  70  96 126 162 202 245 293
#     4  12  19  31  46  70  94 127 162 203 250 291
#     4   9  17  30  49  72  96 124 162 205 244 286
#     4   9  16  29  49  70  99 135 162 191 245 298
#     4   9  18  30  47  77 108 131 158 198 245 298
#
# _framework density 15.272382
#
# number of rings (size 3 to 8) (size 9 to 14) (size 15 to 20)
#    0.000    2.125    3.750    0.750    0.000    3.500 
#    0.000    2.500    0.000    0.750    0.000    3.500 
#    0.000    4.500    0.000    0.000    0.000    0.000 
#
# Total GULP energy -356489.680502 kJ/mol
# GULP energy per Si atom -5570.151258 kJ/mol
# Density = 1.523762 g / cm^3
# Si number density = 15.272382 Si / 1000 Ang^3
#
#
#
# Elastic Constant Matrix: (Units=GPa)
#
#
# Indices 1 2 3 4 5 6 
#
# 1 67.7641 46.1006 32.6363 0.0000 0.0000 4.8917
# 2 46.1006 67.7641 32.6363 0.0000 0.0000 -4.8917
# 3 32.6363 32.6363 52.8451 0.0000 0.0000 0.0000
# 4 0.0000 0.0000 0.0000 16.8713 0.0000 0.0000
# 5 0.0000 0.0000 0.0000 0.0000 16.8713 0.0000
# 6 4.8917 -4.8917 0.0000 0.0000 0.0000 20.2220
#
#
#
# Elastic Compliance Matrix: (Units=1/GPa)
#
#
# Indices 1 2 3 4 5 6 
#
# 1 0.032709 -0.019113 -0.008396 0.000000 0.000000 -0.012536
# 2 -0.019113 0.032709 -0.008396 0.000000 0.000000 0.012536
# 3 -0.008396 -0.008396 0.029294 0.000000 0.000000 0.000000
# 4 0.000000 0.000000 0.000000 0.059272 0.000000 0.000000
# 5 0.000000 0.000000 0.000000 0.000000 0.059272 0.000000
# 6 -0.012536 0.012536 0.000000 0.000000 0.000000 0.055516
#
#
# Mechanical properties :
#
#
# Convention : Reuss Voigt Hill
#
# Bulk Modulus (GPa) = 43.66866 45.67996 44.67431
# Shear Modulus (GPa) = 14.35885 15.92626 15.14256
#
# Velocity S-wave (km/s) = 3.06957 3.23277 3.15222
# Velocity P-wave (km/s) = 6.42015 6.62642 6.52410
#
# Compressibility (1/GPa) = 0.02289972
#
# Stress axis : x y z
#
# Youngs Moduli (GPa) = 30.57286 30.57286 34.13641
#
# Poissons Ratio (x) = 0.58434 0.28662
# Poissons Ratio (y) = 0.58434 0.28662
# Poissons Ratio (z) = 0.25670 0.25670
#
# Static dielectric constant tensor:
#      x y z
#    x 1.516670 0.000000 0.000000 
#    y 0.000000 1.516670 0.000000 
#    z 0.000000 0.000000 1.483570 
# 
# From -- ./inp_files/2353.got.cif
#   From: 2010.05.17/outbox.cif.g08.bks.cpg/sg84_2_cif.got.tgz:2353.got - 2010.06.03 18:57:40.
