data_PCOD9544642
_publ_section_title
;
Structure prediction by ZEFSAII (Michael W. Deem and Ramdas Pophale) SiO2 
 PCOD9544642
Probable space group: P 4/N
;
_chemical_formula_sum "Si O2"
_cell_formula_units_Z 58
_cell_length_a 17.670506
_cell_length_b 17.670506
_cell_length_c 7.272430
_cell_angle_alpha 90.000000
_cell_angle_beta 90.000000
_cell_angle_gamma 90.000000
_cell_volume 2270.792867
_symmetry_space_group_name_H-M "P 4/N"
_symmetry_group_IT_number 85
_symmetry_cell_setting 'tetragonal'
loop_
_space_group_symop_operation_xyz
x,y,z
1/2-y,x,z
1/2-x,1/2-y,z
y,1/2-x,z
-x,-y,-z
1/2+y,-x,-z
1/2+x,1/2+y,-z
-y,1/2+x,-z
loop_
_atom_site_type_symbol
_atom_site_label
_atom_site_fract_x
_atom_site_fract_y
_atom_site_fract_z
Si Si1 0.876546 0.733819 0.022423
Si Si2 0.538668 0.994027 0.198655
Si Si3 0.352741 0.763690 0.103312
Si Si4 0.626783 0.137313 0.360807
Si Si5 0.525967 0.376126 0.343114
Si Si6 0.825557 0.592013 0.353517
Si Si7 0.250000 0.250000 0.551886
Si Si8 0.022730 0.737856 0.855243
O O1 0.828447 0.811473 0.010591
O O2 0.936470 0.713687 0.867691
O O3 0.921277 0.756730 0.209146
O O4 0.589537 0.067084 0.248150
O O5 0.463472 0.992815 0.323025
O O6 0.595061 0.923936 0.242813
O O7 0.500000 0.000000 0.000000
O O8 0.349700 0.710779 0.280139
O O9 0.328597 0.707722 0.931365
O O10 0.433972 0.790325 0.037176
O O11 0.569618 0.204722 0.315003
O O12 0.628799 0.109471 0.568819
O O13 0.467684 0.334419 0.481238
O O14 0.519453 0.328692 0.157068
O O15 0.807660 0.675612 0.431787
#
# Coordination Sequence:
#
# PCOD9544642 Si02
#       8
#     8   8   8   8   8   8   2   8
#     4  11  23  45  66 100 140 183 235 287 349 434
#     4  11  24  43  70  96 133 186 239 296 351 420
#     4   9  19  40  67  96 128 167 226 288 346 419
#     4  10  22  40  63  98 132 176 230 287 358 418
#     4  11  25  43  64  98 141 183 235 294 355 425
#     4  11  22  43  68  94 145 182 237 291 350 442
#     4  12  24  44  68 110 136 200 236 274 388 436
#     4  11  24  40  69  97 134 180 232 292 350 417
#
# _framework density 25.541739
#
# number of rings (size 3 to 8) (size 9 to 14) (size 15 to 20)
#    0.000    1.379    1.379    4.966    3.862    3.310 
#    0.000    0.000    0.000    0.828    0.000    0.000 
#    0.000    0.000    0.000    0.000    0.000    0.000 
#
# Total GULP energy -323391.234451 kJ/mol
# GULP energy per Si atom -5575.710939 kJ/mol
# Density = 2.548360 g / cm^3
# Si number density = 25.541739 Si / 1000 Ang^3
#
#
#
# Elastic Constant Matrix: (Units=GPa)
#
#
# Indices 1 2 3 4 5 6 
#
# 1 111.3011 26.7994 -1.8795 0.0000 0.0000 0.0575
# 2 26.7994 111.3011 -1.8795 0.0000 0.0000 -0.0575
# 3 -1.8795 -1.8795 37.7980 0.0000 0.0000 0.0000
# 4 0.0000 0.0000 0.0000 19.1264 0.0000 0.0000
# 5 0.0000 0.0000 0.0000 0.0000 19.1264 0.0000
# 6 0.0575 -0.0575 0.0000 0.0000 0.0000 25.5545
#
#
#
# Elastic Compliance Matrix: (Units=1/GPa)
#
#
# Indices 1 2 3 4 5 6 
#
# 1 0.009543 -0.002292 0.000361 0.000000 0.000000 -0.000027
# 2 -0.002292 0.009543 0.000361 0.000000 0.000000 0.000027
# 3 0.000361 0.000361 0.026492 0.000000 0.000000 0.000000
# 4 0.000000 0.000000 0.000000 0.052284 0.000000 0.000000
# 5 0.000000 0.000000 0.000000 0.000000 0.052284 0.000000
# 6 -0.000027 0.000027 0.000000 0.000000 0.000000 0.039132
#
#
# Mechanical properties :
#
#
# Convention : Reuss Voigt Hill
#
# Bulk Modulus (GPa) = 23.56472 34.05344 28.80908
# Shear Modulus (GPa) = 24.20561 28.58543 26.39552
#
# Velocity S-wave (km/s) = 3.08179 3.34902 3.21818
# Velocity P-wave (km/s) = 4.68073 5.32128 5.01125
#
# Compressibility (1/GPa) = 0.04243631
#
# Stress axis : x y z
#
# Youngs Moduli (GPa) = 104.79417 104.79417 37.74685
#
# Poissons Ratio (x) = 0.24015 -0.01361
# Poissons Ratio (y) = 0.24015 -0.01361
# Poissons Ratio (z) = -0.03778 -0.03778
#
# Static dielectric constant tensor:
#      x y z
#    x 2.054970 0.000000 0.000000 
#    y 0.000000 2.054970 0.000000 
#    z 0.000000 0.000000 2.161110 
# 
# From -- ./inp_files/1189.got.cif
#   From: 2010.05.17/outbox.cif.g08.bks.cpg/sg85_cif.got.tgz:1189.got - 2010.06.03 19:01:16.
