data_PCOD9544959
_publ_section_title
;
Structure prediction by ZEFSAII (Michael W. Deem and Ramdas Pophale) SiO2 
 PCOD9544959
Probable space group: P 42/N
;
_chemical_formula_sum "Si O2"
_cell_formula_units_Z 60
_cell_length_a 17.255755
_cell_length_b 17.255755
_cell_length_c 9.303608
_cell_angle_alpha 90.000000
_cell_angle_beta 90.000000
_cell_angle_gamma 90.000000
_cell_volume 2770.252372
_symmetry_space_group_name_H-M "P 42/N"
_symmetry_group_IT_number 86
_space_group.IT_coordinate_system_code '2'
_symmetry_cell_setting 'tetragonal'
loop_
_space_group_symop_operation_xyz
x,y,z
-y,1/2+x,1/2+z
1/2-x,1/2-y,z
1/2+y,-x,1/2+z
-x,-y,-z
y,1/2-x,1/2-z
1/2+x,1/2+y,-z
1/2-y,x,1/2-z
loop_
_atom_site_type_symbol
_atom_site_label
_atom_site_fract_x
_atom_site_fract_y
_atom_site_fract_z
Si Si1 0.487493 0.140572 0.577355
Si Si2 0.750000 0.250000 0.976842
Si Si3 0.437874 0.926075 0.169366
Si Si4 0.908688 0.996265 0.778146
Si Si5 0.830613 0.352426 0.226708
Si Si6 0.356850 0.192066 0.778332
Si Si7 0.134326 0.073076 0.479799
Si Si8 0.313623 0.989449 0.973885
O O1 0.559079 0.122281 0.683466
O O2 0.481048 0.083159 0.445553
O O3 0.414485 0.140867 0.683985
O O4 0.491282 0.224527 0.503826
O O5 0.689463 0.293694 0.867697
O O6 0.800617 0.302893 0.087994
O O7 0.488872 0.885208 0.045985
O O8 0.353707 0.940495 0.102508
O O9 0.482726 0.006732 0.206015
O O10 0.859024 0.933548 0.689235
O O11 0.865649 0.078018 0.755544
O O12 0.810955 0.440554 0.174692
O O13 0.273464 0.155172 0.796552
O O14 0.394877 0.206351 0.932764
O O15 0.063726 0.129771 0.525479
#
# Coordination Sequence:
#
# PCOD9544959 Si02
#       8
#     8   4   8   8   8   8   8   8
#     4  11  24  38  64  98 124 160 222 261 315 380
#     4  10  26  40  62  88 134 166 208 260 316 380
#     4  10  21  41  66  88 125 170 209 267 313 374
#     4  11  21  41  63  93 129 158 213 264 317 371
#     4  11  22  43  60  89 124 171 207 255 314 381
#     4  10  21  41  64  88 123 164 208 259 318 385
#     4  10  19  40  66  89 119 166 206 257 316 374
#     4  11  20  38  65  89 123 163 210 255 315 375
#
# _framework density 21.658677000000001
#
# number of rings (size 3 to 8) (size 9 to 14) (size 15 to 20)
#    0.000    1.467    4.000    2.000    1.867    0.000 
#    7.200    0.000    0.000    1.600    0.000    0.000 
#    0.000    0.000    0.000    0.000    0.000    0.000 
#
# Total GULP energy -334347.914782 kJ/mol
# GULP energy per Si atom -5572.465246 kJ/mol
# Density = 2.160938 g / cm^3
# Si number density = 21.658677 Si / 1000 Ang^3
#
#
#
# Elastic Constant Matrix: (Units=GPa)
#
#
# Indices 1 2 3 4 5 6 
#
# 1 39.0891 15.2913 15.3727 0.0000 0.0000 -14.8354
# 2 15.2913 39.0891 15.3727 0.0000 0.0000 14.8354
# 3 15.3727 15.3727 115.4895 0.0000 0.0000 0.0000
# 4 0.0000 0.0000 0.0000 24.4814 0.0000 0.0000
# 5 0.0000 0.0000 0.0000 0.0000 24.4814 0.0000
# 6 -14.8354 14.8354 0.0000 0.0000 0.0000 18.8222
#
#
#
# Elastic Compliance Matrix: (Units=1/GPa)
#
#
# Indices 1 2 3 4 5 6 
#
# 1 1.223891 -1.204005 -0.002647 0.000000 0.000000 1.913626
# 2 -1.204005 1.223891 -0.002647 0.000000 0.000000 -1.913626
# 3 -0.002647 -0.002647 0.009363 0.000000 0.000000 0.000000
# 4 0.000000 0.000000 0.000000 0.040847 0.000000 0.000000
# 5 0.000000 0.000000 0.000000 0.000000 0.040847 0.000000
# 6 1.913626 -1.913626 0.000000 0.000000 0.000000 3.069704
#
#
# Mechanical properties :
#
#
# Convention : Reuss Voigt Hill
#
# Bulk Modulus (GPa) = 25.94256 31.74900 28.84578
# Shear Modulus (GPa) = 0.62189 23.39909 12.01049
#
# Velocity S-wave (km/s) = 0.53643 3.29044 2.35741
# Velocity P-wave (km/s) = 3.51960 5.39691 4.55600
#
# Compressibility (1/GPa) = 0.03854670
#
# Stress axis : x y z
#
# Youngs Moduli (GPa) = 0.81707 0.81707 106.79822
#
# Poissons Ratio (x) = 0.98375 0.28269
# Poissons Ratio (y) = 0.98375 0.28269
# Poissons Ratio (z) = 0.00216 0.00216
#
# Static dielectric constant tensor:
#      x y z
#    x 1.846170 0.000000 0.000000 
#    y 0.000000 1.846170 0.000000 
#    z 0.000000 0.000000 1.854960 
# 
# From -- ./inp_files/1488.got.cif
#   From: 2010.05.17/outbox.cif.g08.bks.cpg/sg86_1_cif.got.tgz:1488.got - 2010.06.03 19:03:11.
