data_PCOD9544253
_publ_section_title
;
Structure prediction by ZEFSAII (Michael W. Deem and Ramdas Pophale) SiO2 
 PCOD9544253
Probable space group: P 42/M
;
_chemical_formula_sum "Si O2"
_cell_formula_units_Z 44
_cell_length_a 7.976364
_cell_length_b 7.976364
_cell_length_c 28.539510
_cell_angle_alpha 90.000000
_cell_angle_beta 90.000000
_cell_angle_gamma 90.000000
_cell_volume 1815.751626
_symmetry_space_group_name_H-M "P 42/M"
_symmetry_group_IT_number 84
_symmetry_cell_setting 'tetragonal'
loop_
_space_group_symop_operation_xyz
x,y,z
-y,x,1/2+z
-x,-y,z
y,-x,1/2+z
-x,-y,-z
y,-x,1/2-z
x,y,-z
-y,x,1/2-z
loop_
_atom_site_type_symbol
_atom_site_label
_atom_site_fract_x
_atom_site_fract_y
_atom_site_fract_z
Si Si1 0.623329 0.753930 0.755997
Si Si2 0.261574 0.317910 0.948014
Si Si3 0.411767 0.177238 0.857135
Si Si4 0.390350 0.283905 0.616381
Si Si5 0.177538 0.091751 0.448878
Si Si6 0.500000 0.000000 0.684841
O O1 0.712437 0.578173 0.743102
O O2 0.683024 0.801992 0.807982
O O3 0.634456 0.912794 0.720735
O O4 0.318638 0.194756 0.906562
O O5 0.313427 0.500078 0.929946
O O6 0.060958 0.308667 0.949744
O O7 0.324429 0.277063 0.000000
O O8 0.549499 0.326694 0.858839
O O9 0.500000 0.000000 0.854685
O O10 0.500298 0.158516 0.648549
O O11 0.223197 0.198013 0.596248
O O12 0.182001 0.178916 0.500000
O O13 0.000000 0.000000 0.445560
#
# Coordination Sequence:
#
# PCOD9544253 Si02
#       6
#     8   8   8   8   8   4
#     4  11  24  42  68  95 127 170 217 270 331 394
#     4  11  24  42  66  98 133 174 228 280 330 399
#     4  12  26  43  65  96 134 173 217 278 340 399
#     4  12  23  41  67  96 127 175 220 275 323 396
#     4  10  21  39  63  93 133 174 213 265 331 396
#     4  12  22  42  67  98 127 164 222 274 326 398
#
# _framework density 24.232388
#
# number of rings (size 3 to 8) (size 9 to 14) (size 15 to 20)
#    0.000    0.727    4.545    3.273    2.545    4.000 
#    0.000    0.000    0.000    0.000    0.000    0.000 
#    0.000    0.000    0.000    0.000    0.000    0.000 
#
# Total GULP energy -245606.354356 kJ/mol
# GULP energy per Si atom -5581.962599 kJ/mol
# Density = 2.417723 g / cm^3
# Si number density = 24.232388 Si / 1000 Ang^3
#
#
#
# Elastic Constant Matrix: (Units=GPa)
#
#
# Indices 1 2 3 4 5 6 
#
# 1 76.1197 -13.2208 10.5723 0.0000 0.0000 17.2042
# 2 -13.2208 76.1197 10.5723 0.0000 0.0000 -17.2042
# 3 10.5723 10.5723 189.1367 0.0000 0.0000 0.0000
# 4 0.0000 0.0000 0.0000 13.4399 0.0000 0.0000
# 5 0.0000 0.0000 0.0000 0.0000 13.4399 0.0000
# 6 17.2042 -17.2042 0.0000 0.0000 0.0000 31.1131
#
#
#
# Elastic Compliance Matrix: (Units=1/GPa)
#
#
# Indices 1 2 3 4 5 6 
#
# 1 0.015212 0.000991 -0.000906 0.000000 0.000000 -0.007864
# 2 0.000991 0.015212 -0.000906 0.000000 0.000000 0.007864
# 3 -0.000906 -0.000906 0.005388 0.000000 0.000000 0.000000
# 4 0.000000 0.000000 0.000000 0.074405 0.000000 0.000000
# 5 0.000000 0.000000 0.000000 0.000000 0.074405 0.000000
# 6 -0.007864 0.007864 0.000000 0.000000 0.000000 0.040838
#
#
# Mechanical properties :
#
#
# Convention : Reuss Voigt Hill
#
# Bulk Modulus (GPa) = 29.26407 39.69154 34.47780
# Shear Modulus (GPa) = 20.96492 33.82874 27.39683
#
# Velocity S-wave (km/s) = 2.94455 3.74038 3.36607
# Velocity P-wave (km/s) = 4.86448 5.92191 5.41905
#
# Compressibility (1/GPa) = 0.03417159
#
# Stress axis : x y z
#
# Youngs Moduli (GPa) = 65.73568 65.73568 185.58262
#
# Poissons Ratio (x) = -0.06512 0.16808
# Poissons Ratio (y) = -0.06512 0.16808
# Poissons Ratio (z) = 0.05954 0.05954
#
# Static dielectric constant tensor:
#      x y z
#    x 1.970840 0.000000 0.000000 
#    y 0.000000 1.970840 0.000000 
#    z 0.000000 0.000000 1.990130 
# 
# From -- ./inp_files/5676.got.cif
#   From: 2010.05.17/outbox.cif.g08.bks.cpg/sg84_3_cif.got.tgz:5676.got - 2010.06.03 18:57:40.
