data_PCOD9544594
_publ_section_title
;
Structure prediction by ZEFSAII (Michael W. Deem and Ramdas Pophale) SiO2 
 PCOD9544594
Probable space group: P 4/N
;
_chemical_formula_sum "Si O2"
_cell_formula_units_Z 48
_cell_length_a 15.236810
_cell_length_b 15.236810
_cell_length_c 8.960219
_cell_angle_alpha 90.000000
_cell_angle_beta 90.000000
_cell_angle_gamma 90.000000
_cell_volume 2080.207839
_symmetry_space_group_name_H-M "P 4/N"
_symmetry_group_IT_number 85
_symmetry_cell_setting 'tetragonal'
loop_
_space_group_symop_operation_xyz
x,y,z
1/2-y,x,z
1/2-x,1/2-y,z
y,1/2-x,z
-x,-y,-z
1/2+y,-x,-z
1/2+x,1/2+y,-z
-y,1/2+x,-z
loop_
_atom_site_type_symbol
_atom_site_label
_atom_site_fract_x
_atom_site_fract_y
_atom_site_fract_z
Si Si1 0.046771 0.914013 0.665386
Si Si2 0.639390 0.337995 0.048980
Si Si3 0.216755 0.112710 0.274698
Si Si4 0.852413 0.646654 0.116961
Si Si5 0.004383 0.405984 0.114571
Si Si6 0.110888 0.091928 0.551041
O O1 0.103629 0.854035 0.780720
O O2 0.981444 0.969134 0.771931
O O3 0.976949 0.878264 0.541454
O O4 0.103620 0.987087 0.579827
O O5 0.741256 0.366139 0.022388
O O6 0.588702 0.407374 0.946457
O O7 0.310687 0.147817 0.228283
O O8 0.185015 0.023174 0.202800
O O9 0.196090 0.109555 0.449658
O O10 0.869646 0.750025 0.087149
O O11 0.865381 0.622377 0.289216
O O12 0.926192 0.598777 0.020043
#
# Coordination Sequence:
#
# PCOD9544594 Si02
#       6
#     8   8   8   8   8   8
#     4  10  23  43  65  99 128 170 239 272 341 416
#     4  11  26  45  68  98 130 174 240 307 345 382
#     4  10  21  38  61 100 140 172 210 261 341 424
#     4  11  23  37  60 105 144 174 215 267 345 423
#     4  11  23  39  70  98 130 179 223 287 338 412
#     4  10  21  38  63  91 136 179 208 264 325 415
#
# _framework density 23.074617
#
# number of rings (size 3 to 8) (size 9 to 14) (size 15 to 20)
#    0.000    1.500    1.667    2.500    7.000    2.667 
#    3.000    0.000    0.000    0.000    0.000   21.000 
#    0.000    0.000    0.000    0.000    0.000    0.000 
#
# Total GULP energy -268174.673448 kJ/mol
# GULP energy per Si atom -5586.972363 kJ/mol
# Density = 2.302210 g / cm^3
# Si number density = 23.074617 Si / 1000 Ang^3
#
#
#
# Elastic Constant Matrix: (Units=GPa)
#
#
# Indices 1 2 3 4 5 6 
#
# 1 72.4877 27.1190 19.6090 0.0000 0.0000 2.2735
# 2 27.1190 72.4877 19.6090 0.0000 0.0000 -2.2735
# 3 19.6090 19.6090 132.2137 0.0000 0.0000 0.0000
# 4 0.0000 0.0000 0.0000 36.6592 0.0000 0.0000
# 5 0.0000 0.0000 0.0000 0.0000 36.6592 0.0000
# 6 2.2735 -2.2735 0.0000 0.0000 0.0000 21.8176
#
#
#
# Elastic Compliance Matrix: (Units=1/GPa)
#
#
# Indices 1 2 3 4 5 6 
#
# 1 0.016468 -0.005806 -0.001581 0.000000 0.000000 -0.002321
# 2 -0.005806 0.016468 -0.001581 0.000000 0.000000 0.002321
# 3 -0.001581 -0.001581 0.008033 0.000000 0.000000 0.000000
# 4 0.000000 0.000000 0.000000 0.027278 0.000000 0.000000
# 5 0.000000 0.000000 0.000000 0.000000 0.027278 0.000000
# 6 -0.002321 0.002321 0.000000 0.000000 0.000000 0.046318
#
#
# Mechanical properties :
#
#
# Convention : Reuss Voigt Hill
#
# Bulk Modulus (GPa) = 43.41886 45.54034 44.47960
# Shear Modulus (GPa) = 29.85819 33.08403 31.47111
#
# Velocity S-wave (km/s) = 3.60110 3.79064 3.69709
# Velocity P-wave (km/s) = 6.01233 6.24000 6.12722
#
# Compressibility (1/GPa) = 0.02303147
#
# Stress axis : x y z
#
# Youngs Moduli (GPa) = 60.72320 60.72320 124.49309
#
# Poissons Ratio (x) = 0.35256 0.19686
# Poissons Ratio (y) = 0.35256 0.19686
# Poissons Ratio (z) = 0.09602 0.09602
#
# Static dielectric constant tensor:
#      x y z
#    x 1.898230 0.000000 0.000000 
#    y 0.000000 1.898230 0.000000 
#    z 0.000000 0.000000 1.901020 
# 
# From -- ./inp_files/1069.got.cif
#   From: 2010.05.17/outbox.cif.g08.bks.cpg/sg85_cif.got.tgz:1069.got - 2010.06.03 19:01:16.
