data_PCOD9544964
_publ_section_title
;
Structure prediction by ZEFSAII (Michael W. Deem and Ramdas Pophale) SiO2 
 PCOD9544964
Probable space group: P 42/N
;
_chemical_formula_sum "Si O2"
_cell_formula_units_Z 56
_cell_length_a 11.317766
_cell_length_b 11.317766
_cell_length_c 25.024281
_cell_angle_alpha 90.000000
_cell_angle_beta 90.000000
_cell_angle_gamma 90.000000
_cell_volume 3205.405878
_symmetry_space_group_name_H-M "P 42/N"
_symmetry_group_IT_number 86
_space_group.IT_coordinate_system_code '2'
_symmetry_cell_setting 'tetragonal'
loop_
_space_group_symop_operation_xyz
x,y,z
-y,1/2+x,1/2+z
1/2-x,1/2-y,z
1/2+y,-x,1/2+z
-x,-y,-z
y,1/2-x,1/2-z
1/2+x,1/2+y,-z
1/2-y,x,1/2-z
loop_
_atom_site_type_symbol
_atom_site_label
_atom_site_fract_x
_atom_site_fract_y
_atom_site_fract_z
Si Si1 0.407304 0.654618 0.467196
Si Si2 0.741199 0.390947 0.334527
Si Si3 0.517489 0.083418 0.927385
Si Si4 0.696471 0.871879 0.470143
Si Si5 0.068199 0.055620 0.870256
Si Si6 0.565479 0.793862 0.260726
Si Si7 0.424997 0.636940 0.952616
O O1 0.485035 0.583387 0.424264
O O2 0.447939 0.611582 0.526255
O O3 0.414925 0.796045 0.468605
O O4 0.275303 0.609889 0.453534
O O5 0.750000 0.250000 0.331663
O O6 0.632787 0.424105 0.373955
O O7 0.860073 0.454902 0.358043
O O8 0.719664 0.453532 0.277674
O O9 0.448943 0.192602 0.952837
O O10 0.750000 0.750000 0.492280
O O11 0.626596 0.855709 0.414677
O O12 0.626043 0.960485 0.509144
O O13 0.142509 0.041038 0.816484
O O14 0.041985 0.930079 0.897887
O O15 0.666082 0.873418 0.231661
#
# Coordination Sequence:
#
# PCOD9544964 Si02
#       7
#     8   8   8   8   8   8   8
#     4   9  19  34  51  80 116 153 186 225 278 333
#     4  10  22  38  58  84 108 149 187 231 286 335
#     4   9  19  33  54  76 112 150 187 229 277 335
#     4  10  20  31  52  81 115 150 188 227 287 341
#     4  10  21  35  57  83 112 145 184 238 284 331
#     4   9  20  37  59  83 109 135 183 240 291 334
#     4  10  20  34  51  82 117 153 187 225 275 343
#
# _framework density 17.470486999999999
#
# number of rings (size 3 to 8) (size 9 to 14) (size 15 to 20)
#    0.000    2.429    0.000    1.286   14.000    0.000 
#    7.714    0.000    0.000    0.000    0.000    0.000 
#    0.000    0.000    0.000    0.000    0.000    0.000 
#
# Total GULP energy -311750.463741 kJ/mol
# GULP energy per Si atom -5566.972567 kJ/mol
# Density = 1.743072 g / cm^3
# Si number density = 17.470487 Si / 1000 Ang^3
#
#
#
# Elastic Constant Matrix: (Units=GPa)
#
#
# Indices 1 2 3 4 5 6 
#
# 1 104.2096 47.7676 51.1477 0.0000 0.0000 4.0197
# 2 47.7676 104.2096 51.1477 0.0000 0.0000 -4.0197
# 3 51.1477 51.1477 81.9503 0.0000 0.0000 0.0000
# 4 0.0000 0.0000 0.0000 21.6834 0.0000 0.0000
# 5 0.0000 0.0000 0.0000 0.0000 21.6834 0.0000
# 6 4.0197 -4.0197 0.0000 0.0000 0.0000 21.2876
#
#
#
# Elastic Compliance Matrix: (Units=1/GPa)
#
#
# Indices 1 2 3 4 5 6 
#
# 1 0.014777 -0.003430 -0.007082 0.000000 0.000000 -0.003438
# 2 -0.003430 0.014777 -0.007082 0.000000 0.000000 0.003438
# 3 -0.007082 -0.007082 0.021042 0.000000 0.000000 0.000000
# 4 0.000000 0.000000 0.000000 0.046118 0.000000 0.000000
# 5 0.000000 0.000000 0.000000 0.000000 0.046118 0.000000
# 6 -0.003438 0.003438 0.000000 0.000000 0.000000 0.048274
#
#
# Mechanical properties :
#
#
# Convention : Reuss Voigt Hill
#
# Bulk Modulus (GPa) = 64.89889 65.61062 65.25475
# Shear Modulus (GPa) = 21.60477 22.28465 21.94471
#
# Velocity S-wave (km/s) = 3.52041 3.57537 3.54800
# Velocity P-wave (km/s) = 7.33163 7.39466 7.36321
#
# Compressibility (1/GPa) = 0.01540858
#
# Stress axis : x y z
#
# Youngs Moduli (GPa) = 67.67341 67.67341 47.52288
#
# Poissons Ratio (x) = 0.23213 0.33655
# Poissons Ratio (y) = 0.23213 0.33655
# Poissons Ratio (z) = 0.47925 0.47925
#
# Static dielectric constant tensor:
#      x y z
#    x 1.647540 0.000000 0.000000 
#    y 0.000000 1.647540 0.000000 
#    z 0.000000 0.000000 1.587130 
# 
# From -- ./inp_files/4220.got.cif
#   From: 2010.05.17/outbox.cif.g08.bks.cpg/sg86_3_cif.got.tgz:4220.got - 2010.06.03 19:03:11.
