data_PCOD9544353
_publ_section_title
;
Structure prediction by ZEFSAII (Michael W. Deem and Ramdas Pophale) SiO2 
 PCOD9544353
Probable space group: P 42/M
;
_chemical_formula_sum "Si O2"
_cell_formula_units_Z 22
_cell_length_a 5.438970
_cell_length_b 5.438970
_cell_length_c 30.071731
_cell_angle_alpha 90.000000
_cell_angle_beta 90.000000
_cell_angle_gamma 90.000000
_cell_volume 889.593815
_symmetry_space_group_name_H-M "P 42/M"
_symmetry_group_IT_number 84
_symmetry_cell_setting 'tetragonal'
loop_
_space_group_symop_operation_xyz
x,y,z
-y,x,1/2+z
-x,-y,z
y,-x,1/2+z
-x,-y,-z
y,-x,1/2-z
x,y,-z
-y,x,1/2-z
loop_
_atom_site_type_symbol
_atom_site_label
_atom_site_fract_x
_atom_site_fract_y
_atom_site_fract_z
Si Si1 0.152594 0.743185 0.097133
Si Si2 0.000000 0.000000 0.250000
Si Si3 0.750536 0.638145 0.691104
Si Si4 0.746500 0.157821 0.000000
O O1 0.338822 0.758986 0.137723
O O2 0.252291 0.704631 0.047143
O O3 0.000000 0.500000 0.107744
O O4 0.000000 0.000000 0.097419
O O5 0.895702 0.208102 0.216456
O O6 0.500000 0.500000 0.702537
O O7 0.000000 0.500000 0.703446
O O8 0.500000 0.000000 0.000000
O O9 0.000000 0.000000 0.000000
#
# Coordination Sequence:
#
# PCOD9544353 Si02
#       4
#     8   2   8   4
#     4  11  23  47  75 114 158 204 258 326 395 477
#     4  12  32  52  76 114 168 200 292 336 424 478
#     4  12  29  50  82 115 157 212 269 335 411 483
#     4  10  23  44  78 114 158 207 261 317 394 478
#
# _framework density 24.730388999999999
#
# number of rings (size 3 to 8) (size 9 to 14) (size 15 to 20)
#    0.000    0.727    1.818    3.818    5.091    2.909 
#    0.000    8.182    0.000    0.000    0.000    0.000 
#    0.000    0.000    0.000    0.000    0.000    0.000 
#
# Total GULP energy -123129.817424 kJ/mol
# GULP energy per Si atom -5596.809883 kJ/mol
# Density = 2.467410 g / cm^3
# Si number density = 24.730389 Si / 1000 Ang^3
#
#
#
# Elastic Constant Matrix: (Units=GPa)
#
#
# Indices 1 2 3 4 5 6 
#
# 1 137.0917 51.9138 24.0657 0.0000 0.0000 3.1224
# 2 51.9138 137.0917 24.0657 0.0000 0.0000 -3.1224
# 3 24.0657 24.0657 193.9896 0.0000 0.0000 0.0000
# 4 0.0000 0.0000 0.0000-3030.9846 0.0000 0.0000
# 5 0.0000 0.0000 0.0000 0.0000-3030.9846 0.0000
# 6 3.1224 -3.1224 0.0000 0.0000 0.0000 55.1174
#
#
#
# Elastic Compliance Matrix: (Units=1/GPa)
#
#
# Indices 1 2 3 4 5 6 
#
# 1 0.008626 -0.003163 -0.000678 0.000000 0.000000 -0.000668
# 2 -0.003163 0.008626 -0.000678 0.000000 0.000000 0.000668
# 3 -0.000678 -0.000678 0.005323 0.000000 0.000000 0.000000
# 4 0.000000 0.000000 0.000000 -0.000330 0.000000 0.000000
# 5 0.000000 0.000000 0.000000 0.000000 -0.000330 0.000000
# 6 -0.000668 0.000668 0.000000 0.000000 0.000000 0.018219
#
#
# Mechanical properties :
#
#
# Convention : Reuss Voigt Hill
#
# Bulk Modulus (GPa) = 73.86137 74.25147 74.05642
# Shear Modulus (GPa) = 93.13720 -1176.82849 -541.84565
#
# Velocity S-wave (km/s) = 6.14352 -21.83796 -14.81812
# Velocity P-wave (km/s) = 8.95853 24.61244 16.20983
#
# Compressibility (1/GPa) = 0.01353888
#
# Stress axis : x y z
#
# Youngs Moduli (GPa) = 115.92491 115.92491 187.86111
#
# Poissons Ratio (x) = 0.36665 0.12733
# Poissons Ratio (y) = 0.36665 0.12733
# Poissons Ratio (z) = 0.07857 0.07857
#
# Static dielectric constant tensor:
#      x y z
#    x 1.780420 0.000000 0.000000 
#    y 0.000000 1.780420 0.000000 
#    z 0.000000 0.000000 2.021300 
# 
# From -- ./inp_files/5531.got.cif
#   From: 2010.05.17/outbox.cif.g08.bks.cpg/sg84_3_cif.got.tgz:5531.got - 2010.06.03 18:57:40.
