data_PCOD9544836
_publ_section_title
;
Structure prediction by ZEFSAII (Michael W. Deem and Ramdas Pophale) SiO2 
 PCOD9544836
Probable space group: P 4/N
;
_chemical_formula_sum "Si O2"
_cell_formula_units_Z 24
_cell_length_a 13.694809
_cell_length_b 13.694809
_cell_length_c 4.359181
_cell_angle_alpha 90.000000
_cell_angle_beta 90.000000
_cell_angle_gamma 90.000000
_cell_volume 817.554778
_symmetry_space_group_name_H-M "P 4/N"
_symmetry_group_IT_number 85
_symmetry_cell_setting 'tetragonal'
loop_
_space_group_symop_operation_xyz
x,y,z
1/2-y,x,z
1/2-x,1/2-y,z
y,1/2-x,z
-x,-y,-z
1/2+y,-x,-z
1/2+x,1/2+y,-z
-y,1/2+x,-z
loop_
_atom_site_type_symbol
_atom_site_label
_atom_site_fract_x
_atom_site_fract_y
_atom_site_fract_z
Si Si1 0.649765 0.143896 0.554796
Si Si2 0.354661 0.071573 0.418012
Si Si3 0.828845 0.957112 0.047964
O O1 0.645593 0.237488 0.330997
O O2 0.561008 0.162129 0.786023
O O3 0.643389 0.034433 0.429499
O O4 0.376865 0.151808 0.681787
O O5 0.445386 0.083998 0.192002
O O6 0.263554 0.069961 0.174221
#
# Coordination Sequence:
#
# PCOD9544836 Si02
#       3
#     8   8   8
#     4  11  26  50  80 122 166 211 272 346 420 493
#     4  12  27  52  84 122 167 221 282 347 417 499
#     4  12  27  52  84 122 167 221 282 347 417 499
#
# _framework density 29.355830000000001
#
# number of rings (size 3 to 8) (size 9 to 14) (size 15 to 20)
#    0.000    0.333    0.000    8.000    0.000   11.333 
#    0.000   10.000    0.000    0.000    0.000    0.000 
#    0.000    0.000    0.000    0.000    0.000    0.000 
#
# Total GULP energy -133936.713220 kJ/mol
# GULP energy per Si atom -5580.696384 kJ/mol
# Density = 2.928902 g / cm^3
# Si number density = 29.355830 Si / 1000 Ang^3
#
#
#
# Elastic Constant Matrix: (Units=GPa)
#
#
# Indices 1 2 3 4 5 6 
#
# 1 188.2815 62.6202 85.5984 0.0000 0.0000 -3.4031
# 2 62.6202 188.2815 85.5984 0.0000 0.0000 3.4031
# 3 85.5984 85.5984 133.7977 0.0000 0.0000 0.0000
# 4 0.0000 0.0000 0.0000 61.3281 0.0000 0.0000
# 5 0.0000 0.0000 0.0000 0.0000 61.3281 0.0000
# 6 -3.4031 3.4031 0.0000 0.0000 0.0000 26.1151
#
#
#
# Elastic Compliance Matrix: (Units=1/GPa)
#
#
# Indices 1 2 3 4 5 6 
#
# 1 0.007544 -0.000471 -0.004525 0.000000 0.000000 0.001044
# 2 -0.000471 0.007544 -0.004525 0.000000 0.000000 -0.001044
# 3 -0.004525 -0.004525 0.013264 0.000000 0.000000 0.000000
# 4 0.000000 0.000000 0.000000 0.016306 0.000000 0.000000
# 5 0.000000 0.000000 0.000000 0.000000 0.016306 0.000000
# 6 0.001044 -0.001044 0.000000 0.000000 0.000000 0.038564
#
#
# Mechanical properties :
#
#
# Convention : Reuss Voigt Hill
#
# Bulk Modulus (GPa) = 107.41352 108.66607 108.03980
# Shear Modulus (GPa) = 41.09385 48.19052 44.64218
#
# Velocity S-wave (km/s) = 3.74552 4.05606 3.90388
# Velocity P-wave (km/s) = 7.44143 7.68328 7.56332
#
# Compressibility (1/GPa) = 0.00930981
#
# Stress axis : x y z
#
# Youngs Moduli (GPa) = 132.55786 132.55786 75.39175
#
# Poissons Ratio (x) = 0.06238 0.34116
# Poissons Ratio (y) = 0.06238 0.34116
# Poissons Ratio (z) = 0.59985 0.59985
#
# Static dielectric constant tensor:
#      x y z
#    x 2.316370 0.000000 0.000000 
#    y 0.000000 2.316370 0.000000 
#    z 0.000000 0.000000 2.248100 
# 
# From -- ./inp_files/118.got.cif
#   From: 2010.05.17/outbox.cif.g08.bks.cpg/sg85_cif.got.tgz:118.got - 2010.06.03 19:01:16.
