data_PCOD9544923
_publ_section_title
;
Structure prediction by ZEFSAII (Michael W. Deem and Ramdas Pophale) SiO2 
 PCOD9544923
Probable space group: P 42/N
;
_chemical_formula_sum "Si O2"
_cell_formula_units_Z 52
_cell_length_a 22.287450
_cell_length_b 22.287450
_cell_length_c 4.985261
_cell_angle_alpha 90.000000
_cell_angle_beta 90.000000
_cell_angle_gamma 90.000000
_cell_volume 2476.330828
_symmetry_space_group_name_H-M "P 42/N"
_symmetry_group_IT_number 86
_space_group.IT_coordinate_system_code '2'
_symmetry_cell_setting 'tetragonal'
loop_
_space_group_symop_operation_xyz
x,y,z
-y,1/2+x,1/2+z
1/2-x,1/2-y,z
1/2+y,-x,1/2+z
-x,-y,-z
y,1/2-x,1/2-z
1/2+x,1/2+y,-z
1/2-y,x,1/2-z
loop_
_atom_site_type_symbol
_atom_site_label
_atom_site_fract_x
_atom_site_fract_y
_atom_site_fract_z
Si Si1 0.478923 0.407686 0.554427
Si Si2 0.688935 0.498332 0.442535
Si Si3 0.915153 0.699706 0.558502
Si Si4 0.000000 0.500000 0.500000
Si Si5 0.530765 0.319457 0.929929
Si Si6 0.401331 0.330356 0.223323
Si Si7 0.929454 0.417720 0.676061
O O1 0.466800 0.448658 0.806058
O O2 0.521774 0.352467 0.644545
O O3 0.418717 0.379279 0.446953
O O4 0.514222 0.441716 0.309346
O O5 0.684822 0.532581 0.724208
O O6 0.749394 0.457976 0.430718
O O7 0.634327 0.455932 0.351230
O O8 0.699259 0.550812 0.223704
O O9 0.859952 0.653476 0.567583
O O10 0.891789 0.765868 0.642218
O O11 0.030605 0.567146 0.582053
O O12 0.463849 0.325267 0.058321
O O13 0.578239 0.360642 0.089919
#
# Coordination Sequence:
#
# PCOD9544923 Si02
#       7
#     8   8   8   4   8   8   8
#     4  10  19  35  53  81 120 151 191 252 313 360
#     4  11  24  40  60  92 118 159 208 245 312 381
#     4  11  25  38  63  84 121 163 208 258 299 365
#     4  10  20  30  50  84 118 150 194 240 308 362
#     4   9  21  40  58  82 125 157 194 258 315 358
#     4  10  22  40  56  83 120 163 206 257 306 353
#     4  10  22  33  56  86 117 158 196 247 308 377
#
# _framework density 20.998809000000001
#
# number of rings (size 3 to 8) (size 9 to 14) (size 15 to 20)
#    0.000    1.846    1.538    1.385   12.923    0.308 
#    0.000    0.000    0.000    1.846    0.000    3.231 
#    0.000    0.000    0.000    0.000    0.000    0.000 
#
# Total GULP energy -289640.830979 kJ/mol
# GULP energy per Si atom -5570.015980 kJ/mol
# Density = 2.095101 g / cm^3
# Si number density = 20.998809 Si / 1000 Ang^3
#
#
#
# Elastic Constant Matrix: (Units=GPa)
#
#
# Indices 1 2 3 4 5 6 
#
# 1 99.4525 37.4818 5.4941 0.0000 0.0000 -2.6379
# 2 37.4818 99.4525 5.4941 0.0000 0.0000 2.6379
# 3 5.4941 5.4941 66.0295 0.0000 0.0000 0.0000
# 4 0.0000 0.0000 0.0000 25.6943 0.0000 0.0000
# 5 0.0000 0.0000 0.0000 0.0000 25.6943 0.0000
# 6 -2.6379 2.6379 0.0000 0.0000 0.0000 32.7499
#
#
#
# Elastic Compliance Matrix: (Units=1/GPa)
#
#
# Indices 1 2 3 4 5 6 
#
# 1 0.011800 -0.004448 -0.000612 0.000000 0.000000 0.001309
# 2 -0.004448 0.011800 -0.000612 0.000000 0.000000 -0.001309
# 3 -0.000612 -0.000612 0.015247 0.000000 0.000000 0.000000
# 4 0.000000 0.000000 0.000000 0.038919 0.000000 0.000000
# 5 0.000000 0.000000 0.000000 0.000000 0.038919 0.000000
# 6 0.001309 -0.001309 0.000000 0.000000 0.000000 0.030745
#
#
# Mechanical properties :
#
#
# Convention : Reuss Voigt Hill
#
# Bulk Modulus (GPa) = 36.35919 40.20828 38.28374
# Shear Modulus (GPa) = 29.77235 31.25865 30.51550
#
# Velocity S-wave (km/s) = 3.76947 3.86241 3.81622
# Velocity P-wave (km/s) = 6.02475 6.25143 6.13914
#
# Compressibility (1/GPa) = 0.02750336
#
# Stress axis : x y z
#
# Youngs Moduli (GPa) = 84.74598 84.74598 65.58867
#
# Poissons Ratio (x) = 0.37696 0.04012
# Poissons Ratio (y) = 0.37696 0.04012
# Poissons Ratio (z) = 0.05184 0.05184
#
# Static dielectric constant tensor:
#      x y z
#    x -3.659290 0.000000 0.000000 
#    y 0.000000 -3.659290 0.000000 
#    z 0.000000 0.000000 5.464780 
# 
# From -- ./inp_files/474.got.cif
#   From: 2010.05.17/outbox.cif.g08.bks.cpg/sg86_1_cif.got.tgz:474.got - 2010.06.03 19:03:11.
