data_PCOD9544128
_publ_section_title
;
Structure prediction by ZEFSAII (Michael W. Deem and Ramdas Pophale) SiO2 
 PCOD9544128
Probable space group: P 42/M
;
_chemical_formula_sum "Si O2"
_cell_formula_units_Z 40
_cell_length_a 7.007576
_cell_length_b 7.007576
_cell_length_c 28.396275
_cell_angle_alpha 90.000000
_cell_angle_beta 90.000000
_cell_angle_gamma 90.000000
_cell_volume 1394.430927
_symmetry_space_group_name_H-M "P 42/M"
_symmetry_group_IT_number 84
_symmetry_cell_setting 'tetragonal'
loop_
_space_group_symop_operation_xyz
x,y,z
-y,x,1/2+z
-x,-y,z
y,-x,1/2+z
-x,-y,-z
y,-x,1/2-z
x,y,-z
-y,x,1/2-z
loop_
_atom_site_type_symbol
_atom_site_label
_atom_site_fract_x
_atom_site_fract_y
_atom_site_fract_z
Si Si1 0.744390 0.708440 0.256486
Si Si2 0.219378 0.936966 0.447085
Si Si3 0.770319 0.507637 0.451050
Si Si4 0.555793 0.222915 0.852395
Si Si5 0.118676 0.310869 0.161439
O O1 0.760687 0.476266 0.251567
O O2 0.777387 0.715713 0.312392
O O3 0.874191 0.788810 0.213976
O O4 0.291606 0.004095 0.500000
O O5 0.276530 0.714041 0.448622
O O6 0.247086 0.959493 0.389760
O O7 0.000000 0.000000 0.450544
O O8 0.700124 0.588607 0.500000
O O9 0.712879 0.618085 0.404410
O O10 0.000000 0.500000 0.452537
O O11 0.352935 0.330509 0.843479
O O12 0.500000 0.000000 0.855929
O O13 0.000000 0.500000 0.169023
#
# Coordination Sequence:
#
# PCOD9544128 Si02
#       5
#     8   8   8   8   8
#     4   9  18  34  56  77 106 155 201 240 301 376
#     4   9  18  34  56  82 118 160 196 240 315 388
#     4   8  14  27  49  78 104 136 184 233 277 342
#     4   9  17  32  56  78 110 154 194 238 307 374
#     4  10  20  35  54  84 117 149 197 258 300 362
#
# _framework density 28.685538999999999
#
# number of rings (size 3 to 8) (size 9 to 14) (size 15 to 20)
#    0.000    3.000    0.000    0.600    0.000    0.400 
#   10.800    0.000   13.200    1.200    0.000    8.400 
#    0.000    0.000    0.000    0.000    0.000    0.000 
#
# Total GULP energy -222779.722761 kJ/mol
# GULP energy per Si atom -5569.493069 kJ/mol
# Density = 2.862025 g / cm^3
# Si number density = 28.685539 Si / 1000 Ang^3
#
#
#
# Elastic Constant Matrix: (Units=GPa)
#
#
# Indices 1 2 3 4 5 6 
#
# 1 107.3319 26.4949 54.5597 0.0000 0.0000 5.5111
# 2 26.4949 107.3319 54.5597 0.0000 0.0000 -5.5111
# 3 54.5597 54.5597 378.8981 0.0000 0.0000 0.0000
# 4 0.0000 0.0000 0.0000 60.5639 0.0000 0.0000
# 5 0.0000 0.0000 0.0000 0.0000 60.5639 0.0000
# 6 5.5111 -5.5111 0.0000 0.0000 0.0000 24.5356
#
#
#
# Elastic Compliance Matrix: (Units=1/GPa)
#
#
# Indices 1 2 3 4 5 6 
#
# 1 0.010614 -0.002148 -0.001219 0.000000 0.000000 -0.002866
# 2 -0.002148 0.010614 -0.001219 0.000000 0.000000 0.002866
# 3 -0.001219 -0.001219 0.002990 0.000000 0.000000 0.000000
# 4 0.000000 0.000000 0.000000 0.016511 0.000000 0.000000
# 5 0.000000 0.000000 0.000000 0.000000 0.016511 0.000000
# 6 -0.002866 0.002866 0.000000 0.000000 0.000000 0.042045
#
#
# Mechanical properties :
#
#
# Convention : Reuss Voigt Hill
#
# Bulk Modulus (GPa) = 66.46009 96.08783 81.27396
# Shear Modulus (GPa) = 44.06340 59.66252 51.86296
#
# Velocity S-wave (km/s) = 3.92354 4.56552 4.25665
# Velocity P-wave (km/s) = 6.61395 7.83337 7.24935
#
# Compressibility (1/GPa) = 0.01504662
#
# Stress axis : x y z
#
# Youngs Moduli (GPa) = 94.21606 94.21606 334.41125
#
# Poissons Ratio (x) = 0.20233 0.40769
# Poissons Ratio (y) = 0.20233 0.40769
# Poissons Ratio (z) = 0.11486 0.11486
#
# Static dielectric constant tensor:
#      x y z
#    x 2.241690 0.000000 0.000000 
#    y 0.000000 2.241690 0.000000 
#    z 0.000000 0.000000 2.449030 
# 
# From -- ./inp_files/5625.got.cif
#   From: 2010.05.17/outbox.cif.g08.bks.cpg/sg84_3_cif.got.tgz:5625.got - 2010.06.03 18:57:40.
