data_PCOD9544025
_publ_section_title
;
Structure prediction by ZEFSAII (Michael W. Deem and Ramdas Pophale) SiO2 
 PCOD9544025
Probable space group: P 42/M
;
_chemical_formula_sum "Si O2"
_cell_formula_units_Z 40
_cell_length_a 16.399620
_cell_length_b 16.399620
_cell_length_c 7.723180
_cell_angle_alpha 90.000000
_cell_angle_beta 90.000000
_cell_angle_gamma 90.000000
_cell_volume 2077.130232
_symmetry_space_group_name_H-M "P 42/M"
_symmetry_group_IT_number 84
_symmetry_cell_setting 'tetragonal'
loop_
_space_group_symop_operation_xyz
x,y,z
-y,x,1/2+z
-x,-y,z
y,-x,1/2+z
-x,-y,-z
y,-x,1/2-z
x,y,-z
-y,x,1/2-z
loop_
_atom_site_type_symbol
_atom_site_label
_atom_site_fract_x
_atom_site_fract_y
_atom_site_fract_z
Si Si1 0.220016 0.641088 0.788331
Si Si2 0.570045 0.609451 0.700754
Si Si3 0.184089 0.158792 0.707557
Si Si4 0.242218 0.985847 0.292199
Si Si5 0.581942 0.956089 0.288355
O O1 0.305139 0.603329 0.728391
O O2 0.206633 0.734838 0.732748
O O3 0.138459 0.592237 0.736042
O O4 0.221164 0.639346 0.000000
O O5 0.527967 0.395732 0.711416
O O6 0.593967 0.603612 0.500000
O O7 0.189887 0.156056 0.500000
O O8 0.099609 0.201636 0.749234
O O9 0.192485 0.065398 0.771112
O O10 0.244623 0.990789 0.500000
O O11 0.335584 0.997524 0.232485
O O12 0.580775 0.956855 0.500000
O O13 0.500000 0.000000 0.228207
#
# Coordination Sequence:
#
# PCOD9544025 Si02
#       5
#     8   8   8   8   8
#     4   8  16  30  46  65  91 123 152 182 228 279
#     4  10  19  32  49  69  95 124 156 191 229 273
#     4   9  18  33  49  66  94 126 152 186 234 278
#     4   9  18  31  48  71  94 119 156 194 227 272
#     4   8  14  27  47  69  92 117 149 191 232 269
#
# _framework density 19.257338000000001
#
# number of rings (size 3 to 8) (size 9 to 14) (size 15 to 20)
#    0.000    3.200    0.000    3.600    0.000    2.800 
#    0.000    6.000    0.000    3.000    0.000    0.000 
#    0.000    0.000    0.000    0.000    0.000    0.000 
#
# Total GULP energy -222954.827367 kJ/mol
# GULP energy per Si atom -5573.870684 kJ/mol
# Density = 1.921351 g / cm^3
# Si number density = 19.257338 Si / 1000 Ang^3
#
#
#
# Elastic Constant Matrix: (Units=GPa)
#
#
# Indices 1 2 3 4 5 6 
#
# 1 171.5897 126.7345 -0.1230 0.0000 0.0000 -19.2851
# 2 126.7345 171.5897 -0.1230 0.0000 0.0000 19.2851
# 3 -0.1230 -0.1230 27.0003 0.0000 0.0000 0.0000
# 4 0.0000 0.0000 0.0000 36.6979 0.0000 0.0000
# 5 0.0000 0.0000 0.0000 0.0000 36.6979 0.0000
# 6 -19.2851 19.2851 0.0000 0.0000 0.0000 32.6182
#
#
#
# Elastic Compliance Matrix: (Units=1/GPa)
#
#
# Indices 1 2 3 4 5 6 
#
# 1 0.024351 -0.020999 0.000015 0.000000 0.000000 0.026812
# 2 -0.020999 0.024351 0.000015 0.000000 0.000000 -0.026812
# 3 0.000015 0.000015 0.037037 0.000000 0.000000 0.000000
# 4 0.000000 0.000000 0.000000 0.027250 0.000000 0.000000
# 5 0.000000 0.000000 0.000000 0.000000 0.027250 0.000000
# 6 0.026812 -0.026812 0.000000 0.000000 0.000000 0.062363
#
#
# Mechanical properties :
#
#
# Convention : Reuss Voigt Hill
#
# Bulk Modulus (GPa) = 22.82999 69.23964 46.03482
# Shear Modulus (GPa) = 19.29476 37.44885 28.37180
#
# Velocity S-wave (km/s) = 3.16878 4.41461 3.84252
# Velocity P-wave (km/s) = 5.02685 7.87515 6.60633
#
# Compressibility (1/GPa) = 0.04380203
#
# Stress axis : x y z
#
# Youngs Moduli (GPa) = 41.06630 41.06630 27.00015
#
# Poissons Ratio (x) = 0.86234 -0.00041
# Poissons Ratio (y) = 0.86234 -0.00041
# Poissons Ratio (z) = -0.00063 -0.00063
#
# Static dielectric constant tensor:
#      x y z
#    x 1.659670 0.000000 0.000000 
#    y 0.000000 1.659670 0.000000 
#    z 0.000000 0.000000 1.719970 
# 
# From -- ./inp_files/806.got.cif
#   From: 2010.05.17/outbox.cif.g08.bks.cpg/sg84_1_cif.got.tgz:806.got - 2010.06.03 18:57:40.
