data_PCOD9544597
_publ_section_title
;
Structure prediction by ZEFSAII (Michael W. Deem and Ramdas Pophale) SiO2 
 PCOD9544597
Probable space group: P 4/N
;
_chemical_formula_sum "Si O2"
_cell_formula_units_Z 64
_cell_length_a 11.666346
_cell_length_b 11.666346
_cell_length_c 22.454857
_cell_angle_alpha 90.000000
_cell_angle_beta 90.000000
_cell_angle_gamma 90.000000
_cell_volume 3056.187526
_symmetry_space_group_name_H-M "P 4/N"
_symmetry_group_IT_number 85
_symmetry_cell_setting 'tetragonal'
loop_
_space_group_symop_operation_xyz
x,y,z
1/2-y,x,z
1/2-x,1/2-y,z
y,1/2-x,z
-x,-y,-z
1/2+y,-x,-z
1/2+x,1/2+y,-z
-y,1/2+x,-z
loop_
_atom_site_type_symbol
_atom_site_label
_atom_site_fract_x
_atom_site_fract_y
_atom_site_fract_z
Si Si1 0.937313 0.770482 0.881255
Si Si2 0.140183 0.093991 0.451784
Si Si3 0.195957 0.423761 0.696247
Si Si4 0.793177 0.937246 0.128484
Si Si5 0.162887 0.644722 0.200991
Si Si6 0.043594 0.428580 0.586972
Si Si7 0.759294 0.060817 0.003865
Si Si8 0.366684 0.802106 0.327208
O O1 0.847963 0.872184 0.870940
O O2 0.042983 0.787272 0.838028
O O3 0.979077 0.771266 0.949333
O O4 0.276332 0.094672 0.439535
O O5 0.059587 0.001569 0.418714
O O6 0.120525 0.066402 0.521680
O O7 0.115087 0.322001 0.718121
O O8 0.198682 0.559157 0.703830
O O9 0.158425 0.416701 0.626351
O O10 0.666738 0.882820 0.136329
O O11 0.820408 0.041382 0.172446
O O12 0.796679 0.990489 0.061919
O O13 0.250000 0.750000 0.196260
O O14 0.154185 0.615457 0.271047
O O15 0.943904 0.361736 0.622950
O O16 0.648281 0.140266 0.016142
O O17 0.250000 0.750000 0.351090
#
# Coordination Sequence:
#
# PCOD9544597 Si02
#       8
#     8   8   8   8   8   8   8   8
#     4  11  25  44  68  95 127 177 232 278 332 414
#     4  10  21  38  61  94 133 170 211 262 323 385
#     4   9  18  36  63  91 120 160 212 258 307 378
#     4  11  25  41  63  98 135 167 216 282 342 404
#     4  11  25  45  66  94 133 177 221 285 346 395
#     4  10  21  38  65  95 127 175 212 266 321 385
#     4  11  22  37  65 100 131 172 218 269 347 416
#     4  10  23  41  63  96 128 171 220 272 324 389
#
# _framework density 20.941123000000001
#
# number of rings (size 3 to 8) (size 9 to 14) (size 15 to 20)
#    0.000    1.625    1.250    3.000    5.250    6.000 
#    4.500    2.500    0.000    1.500    0.000    0.000 
#    0.000    0.000    0.000    0.000    0.000    0.000 
#
# Total GULP energy -357172.429358 kJ/mol
# GULP energy per Si atom -5580.819209 kJ/mol
# Density = 2.089346 g / cm^3
# Si number density = 20.941123 Si / 1000 Ang^3
#
#
#
# Elastic Constant Matrix: (Units=GPa)
#
#
# Indices 1 2 3 4 5 6 
#
# 1 103.3515 9.5826 11.2996 0.0000 0.0000 -34.3145
# 2 9.5826 103.3515 11.2996 0.0000 0.0000 34.3145
# 3 11.2996 11.2996 65.8755 0.0000 0.0000 0.0000
# 4 0.0000 0.0000 0.0000 12.4874 0.0000 0.0000
# 5 0.0000 0.0000 0.0000 0.0000 12.4874 0.0000
# 6 -34.3145 34.3145 0.0000 0.0000 0.0000 126.9978
#
#
#
# Elastic Compliance Matrix: (Units=1/GPa)
#
#
# Indices 1 2 3 4 5 6 
#
# 1 0.011231 -0.002062 -0.001573 0.000000 0.000000 0.003592
# 2 -0.002062 0.011231 -0.001573 0.000000 0.000000 -0.003592
# 3 -0.001573 -0.001573 0.015720 0.000000 0.000000 0.000000
# 4 0.000000 0.000000 0.000000 0.080080 0.000000 0.000000
# 5 0.000000 0.000000 0.000000 0.000000 0.080080 0.000000
# 6 0.003592 -0.003592 0.000000 0.000000 0.000000 0.009815
#
#
# Mechanical properties :
#
#
# Convention : Reuss Voigt Hill
#
# Bulk Modulus (GPa) = 36.01355 37.43799 36.72577
# Shear Modulus (GPa) = 21.94622 46.42100 34.18361
#
# Velocity S-wave (km/s) = 3.24079 4.71333 4.04464
# Velocity P-wave (km/s) = 5.58914 6.89472 6.27597
#
# Compressibility (1/GPa) = 0.02776733
#
# Stress axis : x y z
#
# Youngs Moduli (GPa) = 89.03604 89.03604 63.61434
#
# Poissons Ratio (x) = 0.18359 0.10005
# Poissons Ratio (y) = 0.18359 0.10005
# Poissons Ratio (z) = 0.14004 0.14004
#
# Static dielectric constant tensor:
#      x y z
#    x 1.768780 0.000000 0.000000 
#    y 0.000000 1.768780 0.000000 
#    z 0.000000 0.000000 1.766030 
# 
# From -- ./inp_files/2360.got.cif
#   From: 2010.05.17/outbox.cif.g08.bks.cpg/sg85_cif.got.tgz:2360.got - 2010.06.03 19:01:16.
