data_PCOD9544489
_publ_section_title
;
Structure prediction by ZEFSAII (Michael W. Deem and Ramdas Pophale) SiO2 
 PCOD9544489
Probable space group: P 4/N
;
_chemical_formula_sum "Si O2"
_cell_formula_units_Z 48
_cell_length_a 16.994699
_cell_length_b 16.994699
_cell_length_c 9.352603
_cell_angle_alpha 90.000000
_cell_angle_beta 90.000000
_cell_angle_gamma 90.000000
_cell_volume 2701.216873
_symmetry_space_group_name_H-M "P 4/N"
_symmetry_group_IT_number 85
_symmetry_cell_setting 'tetragonal'
loop_
_space_group_symop_operation_xyz
x,y,z
1/2-y,x,z
1/2-x,1/2-y,z
y,1/2-x,z
-x,-y,-z
1/2+y,-x,-z
1/2+x,1/2+y,-z
-y,1/2+x,-z
loop_
_atom_site_type_symbol
_atom_site_label
_atom_site_fract_x
_atom_site_fract_y
_atom_site_fract_z
Si Si1 0.420619 0.489021 0.698380
Si Si2 0.897163 0.905763 0.028428
Si Si3 0.331908 0.152732 0.238264
Si Si4 0.099865 0.012453 0.374742
Si Si5 0.873051 0.428269 0.924498
Si Si6 0.446857 0.811127 0.877057
O O1 0.391766 0.418937 0.802539
O O2 0.382740 0.490382 0.542420
O O3 0.513373 0.480304 0.664028
O O4 0.410276 0.569498 0.790168
O O5 0.863919 0.835084 0.932570
O O6 0.990306 0.906692 0.991814
O O7 0.848229 0.977582 0.959080
O O8 0.356975 0.241463 0.276916
O O9 0.397309 0.100400 0.316496
O O10 0.161115 0.961410 0.284069
O O11 0.782217 0.441575 0.886509
O O12 0.878537 0.358436 0.040939
#
# Coordination Sequence:
#
# PCOD9544489 Si02
#       6
#     8   8   8   8   8   8
#     4  10  19  33  55  79 111 135 188 231 270 319
#     4  10  17  34  55  81 103 138 186 231 263 326
#     4  10  20  34  55  82 113 148 181 226 287 335
#     4  10  19  34  53  82 109 148 178 229 273 329
#     4  11  19  36  55  82 108 143 188 236 276 339
#     4  10  20  33  58  79 109 145 184 232 283 326
#
# _framework density 17.769769
#
# number of rings (size 3 to 8) (size 9 to 14) (size 15 to 20)
#    0.000    1.833    5.000    3.000    0.000    0.333 
#    0.000    8.333    0.000    2.000    0.000    0.000 
#    0.000    0.000    0.000    0.000    0.000    0.000 
#
# Total GULP energy -267216.448325 kJ/mol
# GULP energy per Si atom -5567.009340 kJ/mol
# Density = 1.772932 g / cm^3
# Si number density = 17.769769 Si / 1000 Ang^3
#
#
#
# Elastic Constant Matrix: (Units=GPa)
#
#
# Indices 1 2 3 4 5 6 
#
# 1 54.7006 -1.9255 17.3385 0.0000 0.0000 -1.4081
# 2 -1.9255 54.7006 17.3385 0.0000 0.0000 1.4081
# 3 17.3385 17.3385 142.6560 0.0000 0.0000 0.0000
# 4 0.0000 0.0000 0.0000 15.5407 0.0000 0.0000
# 5 0.0000 0.0000 0.0000 0.0000 15.5407 0.0000
# 6 -1.4081 1.4081 0.0000 0.0000 0.0000 14.5292
#
#
#
# Elastic Compliance Matrix: (Units=1/GPa)
#
#
# Indices 1 2 3 4 5 6 
#
# 1 0.019169 0.001424 -0.002503 0.000000 0.000000 0.001720
# 2 0.001424 0.019169 -0.002503 0.000000 0.000000 -0.001720
# 3 -0.002503 -0.002503 0.007618 0.000000 0.000000 0.000000
# 4 0.000000 0.000000 0.000000 0.064347 0.000000 0.000000
# 5 0.000000 0.000000 0.000000 0.000000 0.064347 0.000000
# 6 0.001720 -0.001720 0.000000 0.000000 0.000000 0.069160
#
#
# Mechanical properties :
#
#
# Convention : Reuss Voigt Hill
#
# Bulk Modulus (GPa) = 25.77814 35.28447 30.53130
# Shear Modulus (GPa) = 18.94617 23.74251 21.34434
#
# Velocity S-wave (km/s) = 3.26882 3.65926 3.46954
# Velocity P-wave (km/s) = 5.36518 6.14436 5.76794
#
# Compressibility (1/GPa) = 0.03879256
#
# Stress axis : x y z
#
# Youngs Moduli (GPa) = 52.16742 52.16742 131.26337
#
# Poissons Ratio (x) = -0.07428 0.32854
# Poissons Ratio (y) = -0.07428 0.32854
# Poissons Ratio (z) = 0.13057 0.13057
#
# Static dielectric constant tensor:
#      x y z
#    x 1.635570 0.000000 0.000000 
#    y 0.000000 1.635570 0.000000 
#    z 0.000000 0.000000 1.638450 
# 
# From -- ./inp_files/1094.got.cif
#   From: 2010.05.17/outbox.cif.g08.bks.cpg/sg85_cif.got.tgz:1094.got - 2010.06.03 19:01:16.
