data_PCOD9544899
_publ_section_title
;
Structure prediction by ZEFSAII (Michael W. Deem and Ramdas Pophale) SiO2 
 PCOD9544899
Probable space group: P 42/N
;
_chemical_formula_sum "Si O2"
_cell_formula_units_Z 40
_cell_length_a 11.290603
_cell_length_b 11.290603
_cell_length_c 13.020640
_cell_angle_alpha 90.000000
_cell_angle_beta 90.000000
_cell_angle_gamma 90.000000
_cell_volume 1659.841449
_symmetry_space_group_name_H-M "P 42/N"
_symmetry_group_IT_number 86
_space_group.IT_coordinate_system_code '2'
_symmetry_cell_setting 'tetragonal'
loop_
_space_group_symop_operation_xyz
x,y,z
-y,1/2+x,1/2+z
1/2-x,1/2-y,z
1/2+y,-x,1/2+z
-x,-y,-z
y,1/2-x,1/2-z
1/2+x,1/2+y,-z
1/2-y,x,1/2-z
loop_
_atom_site_type_symbol
_atom_site_label
_atom_site_fract_x
_atom_site_fract_y
_atom_site_fract_z
Si Si1 0.022147 0.636361 0.382868
Si Si2 0.465889 0.687019 0.056970
Si Si3 0.193773 0.137641 0.423157
Si Si4 0.518126 0.689276 0.744481
Si Si5 0.134199 0.817103 0.271010
O O1 0.104832 0.612324 0.481892
O O2 0.084623 0.562778 0.290040
O O3 0.029973 0.772946 0.345998
O O4 0.898316 0.573171 0.405069
O O5 0.395909 0.725699 0.156752
O O6 0.522085 0.794033 0.992717
O O7 0.250000 0.250000 0.480022
O O8 0.289716 0.117583 0.331111
O O9 0.070406 0.162172 0.366880
O O10 0.448181 0.814867 0.753702
O O11 0.250000 0.750000 0.313180
#
# Coordination Sequence:
#
# PCOD9544899 Si02
#       5
#     8   8   8   8   8
#     4   9  21  40  61  89 121 176 207 262 335 383
#     4  10  22  39  63  86 130 167 215 263 328 399
#     4  11  20  34  61  91 118 158 216 267 313 391
#     4  10  18  35  64  89 121 161 217 266 318 395
#     4  10  22  40  63  94 127 164 212 268 327 388
#
# _framework density 24.098685
#
# number of rings (size 3 to 8) (size 9 to 14) (size 15 to 20)
#    0.000    2.000    2.000    1.200    5.600    4.000 
#    3.600    4.000    0.000    0.000    0.000    0.000 
#    0.000    0.000    0.000    0.000    0.000    0.000 
#
# Total GULP energy -223209.584649 kJ/mol
# GULP energy per Si atom -5580.239616 kJ/mol
# Density = 2.404384 g / cm^3
# Si number density = 24.098685 Si / 1000 Ang^3
#
#
#
# Elastic Constant Matrix: (Units=GPa)
#
#
# Indices 1 2 3 4 5 6 
#
# 1 65.0381 14.5857 22.9942 0.0000 0.0000 -11.3039
# 2 14.5857 65.0381 22.9942 0.0000 0.0000 11.3039
# 3 22.9942 22.9942 79.5084 0.0000 0.0000 0.0000
# 4 0.0000 0.0000 0.0000 41.6096 0.0000 0.0000
# 5 0.0000 0.0000 0.0000 0.0000 41.6096 0.0000
# 6 -11.3039 11.3039 0.0000 0.0000 0.0000 36.6670
#
#
#
# Elastic Compliance Matrix: (Units=1/GPa)
#
#
# Indices 1 2 3 4 5 6 
#
# 1 0.019038 -0.003960 -0.004360 0.000000 0.000000 0.007090
# 2 -0.003960 0.019038 -0.004360 0.000000 0.000000 -0.007090
# 3 -0.004360 -0.004360 0.015099 0.000000 0.000000 0.000000
# 4 0.000000 0.000000 0.000000 0.024033 0.000000 0.000000
# 5 0.000000 0.000000 0.000000 0.000000 0.024033 0.000000
# 6 0.007090 -0.007090 0.000000 0.000000 0.000000 0.031644
#
#
# Mechanical properties :
#
#
# Convention : Reuss Voigt Hill
#
# Bulk Modulus (GPa) = 35.95498 36.74808 36.35153
# Shear Modulus (GPa) = 29.84769 33.91128 31.87949
#
# Velocity S-wave (km/s) = 3.52314 3.75531 3.64108
# Velocity P-wave (km/s) = 5.61269 5.83826 5.72659
#
# Compressibility (1/GPa) = 0.02781256
#
# Stress axis : x y z
#
# Youngs Moduli (GPa) = 52.52767 52.52767 66.22771
#
# Poissons Ratio (x) = 0.20801 0.28879
# Poissons Ratio (y) = 0.20801 0.28879
# Poissons Ratio (z) = 0.22905 0.22905
#
# Static dielectric constant tensor:
#      x y z
#    x 2.033030 0.000000 0.000000 
#    y 0.000000 2.033030 0.000000 
#    z 0.000000 0.000000 1.898850 
# 
# From -- ./inp_files/2908.got.cif
#   From: 2010.05.17/outbox.cif.g08.bks.cpg/sg86_2_cif.got.tgz:2908.got - 2010.06.03 19:03:11.
