data_PCOD9544432
_publ_section_title
;
Structure prediction by ZEFSAII (Michael W. Deem and Ramdas Pophale) SiO2 
 PCOD9544432
Probable space group: P 42/M
;
_chemical_formula_sum "Si O2"
_cell_formula_units_Z 32
_cell_length_a 7.716728
_cell_length_b 7.716728
_cell_length_c 23.041209
_cell_angle_alpha 90.000000
_cell_angle_beta 90.000000
_cell_angle_gamma 90.000000
_cell_volume 1372.055403
_symmetry_space_group_name_H-M "P 42/M"
_symmetry_group_IT_number 84
_symmetry_cell_setting 'tetragonal'
loop_
_space_group_symop_operation_xyz
x,y,z
-y,x,1/2+z
-x,-y,z
y,-x,1/2+z
-x,-y,-z
y,-x,1/2-z
x,y,-z
-y,x,1/2-z
loop_
_atom_site_type_symbol
_atom_site_label
_atom_site_fract_x
_atom_site_fract_y
_atom_site_fract_z
Si Si1 0.666351 0.741622 0.250252
Si Si2 0.267525 0.141155 0.876773
Si Si3 0.222408 0.393600 0.568325
Si Si4 0.915854 0.317270 0.868487
O O1 0.731013 0.543166 0.245535
O O2 0.714980 0.845517 0.192506
O O3 0.741359 0.830095 0.307882
O O4 0.423084 0.261269 0.901624
O O5 0.072403 0.197714 0.890680
O O6 0.318213 0.957537 0.904799
O O7 0.207788 0.417242 0.500000
O O8 0.347448 0.238210 0.585996
O O9 0.000000 0.500000 0.855125
#
# Coordination Sequence:
#
# PCOD9544432 Si02
#       4
#     8   8   8   8
#     4  11  23  43  70 103 153 185 231 298 383 456
#     4  11  24  44  73 105 141 191 246 299 366 437
#     4  11  27  50  71  99 144 202 253 303 370 439
#     4  12  26  43  70 111 141 187 240 307 372 444
#
# _framework density 23.322673000000002
#
# number of rings (size 3 to 8) (size 9 to 14) (size 15 to 20)
#    0.000    0.750    5.000    2.250    7.000    4.500 
#    0.000    1.250    0.000    0.000    0.000    0.000 
#    0.000    0.000    0.000    0.000    0.000    0.000 
#
# Total GULP energy -179099.900869 kJ/mol
# GULP energy per Si atom -5596.871902 kJ/mol
# Density = 2.326959 g / cm^3
# Si number density = 23.322673 Si / 1000 Ang^3
#
#
#
# Elastic Constant Matrix: (Units=GPa)
#
#
# Indices 1 2 3 4 5 6 
#
# 1 100.9289 34.2274 15.2832 0.0000 0.0000 -5.3196
# 2 34.2274 100.9289 15.2832 0.0000 0.0000 5.3196
# 3 15.2832 15.2832 99.4861 0.0000 0.0000 0.0000
# 4 0.0000 0.0000 0.0000 10.1331 0.0000 0.0000
# 5 0.0000 0.0000 0.0000 0.0000 10.1331 0.0000
# 6 -5.3196 5.3196 0.0000 0.0000 0.0000 38.3067
#
#
#
# Elastic Compliance Matrix: (Units=1/GPa)
#
#
# Indices 1 2 3 4 5 6 
#
# 1 0.011498 -0.003833 -0.001178 0.000000 0.000000 0.002129
# 2 -0.003833 0.011498 -0.001178 0.000000 0.000000 -0.002129
# 3 -0.001178 -0.001178 0.010413 0.000000 0.000000 0.000000
# 4 0.000000 0.000000 0.000000 0.098686 0.000000 0.000000
# 5 0.000000 0.000000 0.000000 0.000000 0.098686 0.000000
# 6 0.002129 -0.002129 0.000000 0.000000 0.000000 0.026696
#
#
# Mechanical properties :
#
#
# Convention : Reuss Voigt Hill
#
# Bulk Modulus (GPa) = 47.54295 47.88128 47.71211
# Shear Modulus (GPa) = 18.05920 27.48459 22.77190
#
# Velocity S-wave (km/s) = 2.78568 3.43658 3.12811
# Velocity P-wave (km/s) = 5.54759 6.02671 5.79211
#
# Compressibility (1/GPa) = 0.02103361
#
# Stress axis : x y z
#
# Youngs Moduli (GPa) = 86.96824 86.96824 96.02969
#
# Poissons Ratio (x) = 0.33338 0.11308
# Poissons Ratio (y) = 0.33338 0.11308
# Poissons Ratio (z) = 0.10241 0.10241
#
# Static dielectric constant tensor:
#      x y z
#    x 1.968120 0.000000 0.000000 
#    y 0.000000 1.968120 0.000000 
#    z 0.000000 0.000000 1.804130 
# 
# From -- ./inp_files/4131.got.cif
#   From: 2010.05.17/outbox.cif.g08.bks.cpg/sg84_3_cif.got.tgz:4131.got - 2010.06.03 18:57:40.
