data_PCOD9544622
_publ_section_title
;
Structure prediction by ZEFSAII (Michael W. Deem and Ramdas Pophale) SiO2 
 PCOD9544622
Probable space group: P 4/N
;
_chemical_formula_sum "Si O2"
_cell_formula_units_Z 64
_cell_length_a 11.040804
_cell_length_b 11.040804
_cell_length_c 23.950173
_cell_angle_alpha 90.000000
_cell_angle_beta 90.000000
_cell_angle_gamma 90.000000
_cell_volume 2919.510592
_symmetry_space_group_name_H-M "P 4/N"
_symmetry_group_IT_number 85
_symmetry_cell_setting 'tetragonal'
loop_
_space_group_symop_operation_xyz
x,y,z
1/2-y,x,z
1/2-x,1/2-y,z
y,1/2-x,z
-x,-y,-z
1/2+y,-x,-z
1/2+x,1/2+y,-z
-y,1/2+x,-z
loop_
_atom_site_type_symbol
_atom_site_label
_atom_site_fract_x
_atom_site_fract_y
_atom_site_fract_z
Si Si1 0.831723 0.562452 0.561733
Si Si2 0.000000 0.000000 0.345769
Si Si3 0.437917 0.669570 0.062002
Si Si4 0.669570 0.062083 0.937998
Si Si5 0.433466 0.162385 0.752768
Si Si6 0.837615 0.933466 0.752768
Si Si7 0.562452 0.668277 0.438267
Si Si8 0.000000 0.500000 0.846952
O O1 0.902611 0.691152 0.565213
O O2 0.853826 0.509231 0.500000
O O3 0.885155 0.489660 0.613207
O O4 0.885108 0.990081 0.304735
O O5 0.010340 0.885156 0.386793
O O6 0.114892 0.009919 0.304735
O O7 0.402696 0.810054 0.065712
O O8 0.310054 0.597303 0.065712
O O9 0.514199 0.614933 0.112297
O O10 0.490230 0.648290 1.000000
O O11 0.614933 0.985801 0.887702
O O12 0.406097 0.303576 0.754922
O O13 0.508997 0.113792 0.805298
O O14 0.696424 0.906097 0.754922
O O15 0.886208 0.008997 0.805298
O O16 0.691152 0.597389 0.434787
#
# Coordination Sequence:
#
# PCOD9544622 Si02
#       8
#     8   8   8   8   8   8   8   8
#     4   9  18  33  54  80 107 133 163 201 245 295
#     4  11  19  30  54  76  95 129 170 204 238 293
#     4   9  18  32  50  75 107 137 163 197 246 304
#     4   9  18  32  50  75 107 137 163 197 246 304
#     4  10  22  37  51  71  99 130 167 213 259 297
#     4  10  22  37  51  71  99 130 167 213 259 297
#     4   9  18  33  54  80 107 133 163 201 245 295
#     4  11  19  32  56  78  95 127 174 216 248 291
#
# _framework density 21.921481
#
# number of rings (size 3 to 8) (size 9 to 14) (size 15 to 20)
#    0.000    2.250    0.000    5.250    0.000    2.000 
#    0.000    0.000    0.000   33.000    0.000   24.500 
#    0.000    0.000    0.000    0.000    0.000    0.000 
#
# Total GULP energy -357490.574681 kJ/mol
# GULP energy per Si atom -5585.790229 kJ/mol
# Density = 2.187159 g / cm^3
# Si number density = 21.921481 Si / 1000 Ang^3
#
#
#
# Elastic Constant Matrix: (Units=GPa)
#
#
# Indices 1 2 3 4 5 6 
#
# 1 30.4710 3.5698 22.7967 0.0000 0.0000 3.0235
# 2 3.5698 30.4710 22.7967 0.0000 0.0000 -3.0235
# 3 22.7967 22.7967 174.2971 0.0000 0.0000 0.0000
# 4 0.0000 0.0000 0.0000 23.8149 0.0000 0.0000
# 5 0.0000 0.0000 0.0000 0.0000 23.8149 0.0000
# 6 3.0235 -3.0235 0.0000 0.0000 0.0000 30.8432
#
#
#
# Elastic Compliance Matrix: (Units=1/GPa)
#
#
# Indices 1 2 3 4 5 6 
#
# 1 0.036813 -0.001197 -0.004658 0.000000 0.000000 -0.003726
# 2 -0.001197 0.036813 -0.004658 0.000000 0.000000 0.003726
# 3 -0.004658 -0.004658 0.006956 0.000000 0.000000 0.000000
# 4 0.000000 0.000000 0.000000 0.041990 0.000000 0.000000
# 5 0.000000 0.000000 0.000000 0.000000 0.041990 0.000000
# 6 -0.003726 0.003726 0.000000 0.000000 0.000000 0.033153
#
#
# Mechanical properties :
#
#
# Convention : Reuss Voigt Hill
#
# Bulk Modulus (GPa) = 16.79142 37.06285 26.92713
# Shear Modulus (GPa) = 20.95602 28.09966 24.52784
#
# Velocity S-wave (km/s) = 3.09521 3.58415 3.34862
# Velocity P-wave (km/s) = 4.52219 5.83712 5.22122
#
# Compressibility (1/GPa) = 0.05955421
#
# Stress axis : x y z
#
# Youngs Moduli (GPa) = 27.16423 27.16423 143.76368
#
# Poissons Ratio (x) = 0.03253 0.66969
# Poissons Ratio (y) = 0.03253 0.66969
# Poissons Ratio (z) = 0.12654 0.12654
#
# Static dielectric constant tensor:
#      x y z
#    x 1.808970 0.000000 0.000000 
#    y 0.000000 1.808970 0.000000 
#    z 0.000000 0.000000 1.823920 
# 
# From -- ./inp_files/2348.got.cif
#   From: 2010.05.17/outbox.cif.g08.bks.cpg/sg85_cif.got.tgz:2348.got - 2010.06.03 19:01:16.
