data_PCOD9544411
_publ_section_title
;
Structure prediction by ZEFSAII (Michael W. Deem and Ramdas Pophale) SiO2 
 PCOD9544411
Probable space group: P 42/M
;
_chemical_formula_sum "Si O2"
_cell_formula_units_Z 32
_cell_length_a 6.980247
_cell_length_b 6.980247
_cell_length_c 26.156212
_cell_angle_alpha 90.000000
_cell_angle_beta 90.000000
_cell_angle_gamma 90.000000
_cell_volume 1274.431302
_symmetry_space_group_name_H-M "P 42/M"
_symmetry_group_IT_number 84
_symmetry_cell_setting 'tetragonal'
loop_
_space_group_symop_operation_xyz
x,y,z
-y,x,1/2+z
-x,-y,z
y,-x,1/2+z
-x,-y,-z
y,-x,1/2-z
x,y,-z
-y,x,1/2-z
loop_
_atom_site_type_symbol
_atom_site_label
_atom_site_fract_x
_atom_site_fract_y
_atom_site_fract_z
Si Si1 0.796970 0.246789 0.758720
Si Si2 0.165821 0.655169 0.655162
Si Si3 0.077009 0.712498 0.869288
Si Si4 0.429383 0.718347 0.942609
O O1 0.713157 0.353588 0.708777
O O2 0.793173 0.300672 0.817916
O O3 0.024835 0.257156 0.746365
O O4 0.218401 0.583775 0.598990
O O5 0.000000 0.500000 0.665132
O O6 0.161944 0.887043 0.644960
O O7 0.222858 0.756936 0.915504
O O8 0.000000 0.500000 0.879468
O O9 0.500000 0.500000 0.947613
O O10 0.428783 0.798235 0.000000
#
# Coordination Sequence:
#
# PCOD9544411 Si02
#       4
#     8   8   8   8
#     4   9  19  37  63  96 138 174 212 277 352 423
#     4  11  23  42  67  99 136 177 222 287 355 427
#     4  11  22  40  66  98 130 181 231 280 354 427
#     4  11  25  45  66  95 134 179 235 297 352 419
#
# _framework density 25.109235999999999
#
# number of rings (size 3 to 8) (size 9 to 14) (size 15 to 20)
#    0.000    1.500    2.500    2.250    0.000    7.000 
#    0.000    1.250    0.000    0.000    0.000    0.000 
#    0.000    0.000    0.000    0.000    0.000    0.000 
#
# Total GULP energy -178175.567037 kJ/mol
# GULP energy per Si atom -5567.986470 kJ/mol
# Density = 2.505209 g / cm^3
# Si number density = 25.109236 Si / 1000 Ang^3
#
#
#
# Elastic Constant Matrix: (Units=GPa)
#
#
# Indices 1 2 3 4 5 6 
#
# 1 101.7368 55.3251 58.4887 0.0000 0.0000 0.4465
# 2 55.3251 101.7368 58.4887 0.0000 0.0000 -0.4465
# 3 58.4887 58.4887 282.9967 0.0000 0.0000 0.0000
# 4 0.0000 0.0000 0.0000 40.9911 0.0000 0.0000
# 5 0.0000 0.0000 0.0000 0.0000 40.9911 0.0000
# 6 0.4465 -0.4465 0.0000 0.0000 0.0000 40.8911
#
#
#
# Elastic Compliance Matrix: (Units=1/GPa)
#
#
# Indices 1 2 3 4 5 6 
#
# 1 0.014538 -0.007013 -0.001555 0.000000 0.000000 -0.000235
# 2 -0.007013 0.014538 -0.001555 0.000000 0.000000 0.000235
# 3 -0.001555 -0.001555 0.004176 0.000000 0.000000 0.000000
# 4 0.000000 0.000000 0.000000 0.024396 0.000000 0.000000
# 5 0.000000 0.000000 0.000000 0.000000 0.024396 0.000000
# 6 -0.000235 0.000235 0.000000 0.000000 0.000000 0.024460
#
#
# Mechanical properties :
#
#
# Convention : Reuss Voigt Hill
#
# Bulk Modulus (GPa) = 76.88837 92.34171 84.61504
# Shear Modulus (GPa) = 38.14292 45.51920 41.83106
#
# Velocity S-wave (km/s) = 3.90177 4.26237 4.08605
# Velocity P-wave (km/s) = 7.14048 7.81534 7.48552
#
# Compressibility (1/GPa) = 0.01300587
#
# Stress axis : x y z
#
# Youngs Moduli (GPa) = 68.78510 68.78510 239.43517
#
# Poissons Ratio (x) = 0.48237 0.37239
# Poissons Ratio (y) = 0.48237 0.37239
# Poissons Ratio (z) = 0.10698 0.10698
#
# Static dielectric constant tensor:
#      x y z
#    x 2.173160 0.000000 0.000000 
#    y 0.000000 2.173160 0.000000 
#    z 0.000000 0.000000 2.042900 
# 
# From -- ./inp_files/4122.got.cif
#   From: 2010.05.17/outbox.cif.g08.bks.cpg/sg84_3_cif.got.tgz:4122.got - 2010.06.03 18:57:40.
