data_PCOD9544475
_publ_section_title
;
Structure prediction by ZEFSAII (Michael W. Deem and Ramdas Pophale) SiO2 
 PCOD9544475
Probable space group: P 42/M
;
_chemical_formula_sum "Si O2"
_cell_formula_units_Z 56
_cell_length_a 15.000000
_cell_length_b 15.000000
_cell_length_c 15.000000
_cell_angle_alpha 90.000000
_cell_angle_beta 90.000000
_cell_angle_gamma 90.000000
_cell_volume 3375.000000
_symmetry_space_group_name_H-M "P 42/M"
_symmetry_group_IT_number 84
_symmetry_cell_setting 'tetragonal'
loop_
_space_group_symop_operation_xyz
x,y,z
-y,x,1/2+z
-x,-y,z
y,-x,1/2+z
-x,-y,-z
y,-x,1/2-z
x,y,-z
-y,x,1/2-z
loop_
_atom_site_type_symbol
_atom_site_label
_atom_site_fract_x
_atom_site_fract_y
_atom_site_fract_z
Si Si1 0.559974 0.414580 0.895907
Si Si2 0.387978 0.295889 0.898779
Si Si3 0.395616 0.250536 0.699061
Si Si4 0.886449 0.094023 0.247515
Si Si5 0.247819 0.128035 0.605361
Si Si6 0.782587 0.576583 0.103068
Si Si7 0.737842 0.082219 0.395858
O O1 0.500000 0.500000 0.868962
O O2 0.487852 0.335461 0.895288
O O3 0.645546 0.396782 0.834075
O O4 0.588799 0.428793 0.000000
O O5 0.378695 0.243189 0.805484
O O6 0.313510 0.374154 0.892673
O O7 0.375493 0.256896 0.000000
O O8 0.320803 0.194860 0.646250
O O9 0.492816 0.215729 0.668657
O O10 0.864390 0.157657 0.164018
O O11 0.816853 0.107845 0.328060
O O12 0.988589 0.115244 0.275464
O O13 0.234054 0.145436 0.500000
O O14 0.278139 0.024112 0.613758
O O15 0.857803 0.650813 0.122469
O O16 0.794768 0.546499 0.000000
O O17 0.762312 0.098089 0.500000
#
# Coordination Sequence:
#
# PCOD9544475 Si02
#       7
#     8   8   8   8   8   8   8
#     4  10  19  31  47  71 102 134 172 216 258 301
#     4  10  21  33  47  71 100 132 175 220 257 299
#     4  12  21  32  52  74 103 145 176 208 262 313
#     4   9  18  34  56  79 104 136 170 207 260 318
#     4  10  21  35  52  80 110 133 166 214 260 309
#     4  10  19  33  52  74  99 133 173 211 254 310
#     4   9  19  35  55  79 106 132 168 216 258 304
#
# _framework density 16.592593000000001
#
# number of rings (size 3 to 8) (size 9 to 14) (size 15 to 20)
#    0.000    2.000    1.429    3.000    0.000    1.143 
#    0.000    5.000    0.000    0.857    0.000    1.000 
#    0.000    0.000    0.000    1.429    0.000    0.286 
#
# Total GULP energy -312348.322960 kJ/mol
# GULP energy per Si atom -5577.648624 kJ/mol
# Density = 1.655483 g / cm^3
# Si number density = 16.592593 Si / 1000 Ang^3
#
#
#
# Elastic Constant Matrix: (Units=GPa)
#
#
# Indices 1 2 3 4 5 6 
#
# 1 74.7237 51.3974 58.4535 0.0000 0.0000 -1.5730
# 2 51.3974 74.7237 58.4535 0.0000 0.0000 1.5730
# 3 58.4535 58.4535 145.3046 0.0000 0.0000 0.0000
# 4 0.0000 0.0000 0.0000 28.3044 0.0000 0.0000
# 5 0.0000 0.0000 0.0000 0.0000 28.3044 0.0000
# 6 -1.5730 1.5730 0.0000 0.0000 0.0000 31.1923
#
#
#
# Elastic Compliance Matrix: (Units=1/GPa)
#
#
# Indices 1 2 3 4 5 6 
#
# 1 0.027904 -0.015260 -0.005086 0.000000 0.000000 0.002177
# 2 -0.015260 0.027904 -0.005086 0.000000 0.000000 -0.002177
# 3 -0.005086 -0.005086 0.010974 0.000000 0.000000 0.000000
# 4 0.000000 0.000000 0.000000 0.035330 0.000000 0.000000
# 5 0.000000 0.000000 0.000000 0.000000 0.035330 0.000000
# 6 0.002177 -0.002177 0.000000 0.000000 0.000000 0.032279
#
#
# Mechanical properties :
#
#
# Convention : Reuss Voigt Hill
#
# Bulk Modulus (GPa) = 62.82848 70.15122 66.48985
# Shear Modulus (GPa) = 22.13451 25.99004 24.06228
#
# Velocity S-wave (km/s) = 3.65636 3.96203 3.81226
# Velocity P-wave (km/s) = 7.46812 7.95617 7.71601
#
# Compressibility (1/GPa) = 0.01591635
#
# Stress axis : x y z
#
# Youngs Moduli (GPa) = 35.83759 35.83759 91.12147
#
# Poissons Ratio (x) = 0.54688 0.46347
# Poissons Ratio (y) = 0.54688 0.46347
# Poissons Ratio (z) = 0.18228 0.18228
#
# Static dielectric constant tensor:
#      x y z
#    x 1.553190 0.000000 0.000000 
#    y 0.000000 1.553190 0.000000 
#    z 0.000000 0.000000 1.576560 
# 
# From -- ./inp_files/3127.got.cif
#   From: 2010.05.17/outbox.ucp.g08.bks.cvg/sg84_2_cif.got.tgz:3127.got - 2010.06.11 10:34:57.
