data_PCOD9544201
_publ_section_title
;
Structure prediction by ZEFSAII (Michael W. Deem and Ramdas Pophale) SiO2 
 PCOD9544201
Probable space group: P 42/M
;
_chemical_formula_sum "Si O2"
_cell_formula_units_Z 48
_cell_length_a 8.795696
_cell_length_b 8.795696
_cell_length_c 30.562453
_cell_angle_alpha 90.000000
_cell_angle_beta 90.000000
_cell_angle_gamma 90.000000
_cell_volume 2364.441808
_symmetry_space_group_name_H-M "P 42/M"
_symmetry_group_IT_number 84
_symmetry_cell_setting 'tetragonal'
loop_
_space_group_symop_operation_xyz
x,y,z
-y,x,1/2+z
-x,-y,z
y,-x,1/2+z
-x,-y,-z
y,-x,1/2-z
x,y,-z
-y,x,1/2-z
loop_
_atom_site_type_symbol
_atom_site_label
_atom_site_fract_x
_atom_site_fract_y
_atom_site_fract_z
Si Si1 0.781334 0.872360 0.241498
Si Si2 0.720487 0.893493 0.859510
Si Si3 0.325857 0.553394 0.049045
Si Si4 0.204993 0.382150 0.615331
Si Si5 0.665756 0.431962 0.804077
Si Si6 0.600876 0.148945 0.628019
O O1 0.714270 0.893496 0.193018
O O2 0.666016 0.763175 0.268987
O O3 0.953701 0.802713 0.240421
O O4 0.560604 0.835764 0.880211
O O5 0.856000 0.782370 0.873506
O O6 0.726768 0.064706 0.875104
O O7 0.500000 0.500000 0.048056
O O8 0.336742 0.720459 0.069733
O O9 0.238165 0.453761 0.084885
O O10 0.262943 0.546483 0.000000
O O11 0.322914 0.358851 0.654486
O O12 0.500000 0.500000 0.792826
O O13 0.763117 0.565689 0.826488
O O14 0.500000 0.000000 0.629782
#
# Coordination Sequence:
#
# PCOD9544201 Si02
#       6
#     8   8   8   8   8   8
#     4  11  24  41  61  92 132 179 228 276 334 391
#     4  11  21  39  61  88 128 167 214 272 326 388
#     4  10  20  41  68  93 124 163 214 269 332 410
#     4  10  20  40  63  89 123 163 211 268 330 385
#     4  11  21  43  61  88 123 169 222 267 320 389
#     4  11  22  39  62  94 129 165 209 264 336 403
#
# _framework density 20.300775000000002
#
# number of rings (size 3 to 8) (size 9 to 14) (size 15 to 20)
#    0.000    1.333    5.000    2.000    0.000    1.667 
#    9.000    2.500    0.000    1.000    0.000    0.000 
#    0.000    0.000    0.000    0.000    0.000    0.000 
#
# Total GULP energy -267897.154048 kJ/mol
# GULP energy per Si atom -5581.190709 kJ/mol
# Density = 2.025457 g / cm^3
# Si number density = 20.300775 Si / 1000 Ang^3
#
#
#
# Elastic Constant Matrix: (Units=GPa)
#
#
# Indices 1 2 3 4 5 6 
#
# 1 101.8285 33.3473 34.0214 0.0000 0.0000 1.4078
# 2 33.3473 101.8285 34.0214 0.0000 0.0000 -1.4078
# 3 34.0214 34.0214 118.8316 0.0000 0.0000 0.0000
# 4 0.0000 0.0000 0.0000 18.6729 0.0000 0.0000
# 5 0.0000 0.0000 0.0000 0.0000 18.6729 0.0000
# 6 1.4078 -1.4078 0.0000 0.0000 0.0000 39.0759
#
#
#
# Elastic Compliance Matrix: (Units=1/GPa)
#
#
# Indices 1 2 3 4 5 6 
#
# 1 0.011634 -0.002990 -0.002475 0.000000 0.000000 -0.000527
# 2 -0.002990 0.011634 -0.002475 0.000000 0.000000 0.000527
# 3 -0.002475 -0.002475 0.009832 0.000000 0.000000 0.000000
# 4 0.000000 0.000000 0.000000 0.053554 0.000000 0.000000
# 5 0.000000 0.000000 0.000000 0.000000 0.053554 0.000000
# 6 -0.000527 0.000527 0.000000 0.000000 0.000000 0.025629
#
#
# Mechanical properties :
#
#
# Convention : Reuss Voigt Hill
#
# Bulk Modulus (GPa) = 58.06988 58.36319 58.21653
# Shear Modulus (GPa) = 26.67296 30.02422 28.34859
#
# Velocity S-wave (km/s) = 3.62869 3.84991 3.74094
# Velocity P-wave (km/s) = 6.79878 6.96951 6.88467
#
# Compressibility (1/GPa) = 0.01722063
#
# Stress axis : x y z
#
# Youngs Moduli (GPa) = 85.95639 85.95639 101.70638
#
# Poissons Ratio (x) = 0.25704 0.25168
# Poissons Ratio (y) = 0.25704 0.25168
# Poissons Ratio (z) = 0.21271 0.21271
#
# Static dielectric constant tensor:
#      x y z
#    x 1.746690 0.000000 0.000000 
#    y 0.000000 1.746690 0.000000 
#    z 0.000000 0.000000 1.704810 
# 
# From -- ./inp_files/5736.got.cif
#   From: 2010.05.17/outbox.cif.g08.bks.cpg/sg84_3_cif.got.tgz:5736.got - 2010.06.03 18:57:40.
