data_PCOD9544245
_publ_section_title
;
Structure prediction by ZEFSAII (Michael W. Deem and Ramdas Pophale) SiO2 
 PCOD9544245
Probable space group: P 42/M
;
_chemical_formula_sum "Si O2"
_cell_formula_units_Z 48
_cell_length_a 9.646151
_cell_length_b 9.646151
_cell_length_c 28.484271
_cell_angle_alpha 90.000000
_cell_angle_beta 90.000000
_cell_angle_gamma 90.000000
_cell_volume 2650.410974
_symmetry_space_group_name_H-M "P 42/M"
_symmetry_group_IT_number 84
_symmetry_cell_setting 'tetragonal'
loop_
_space_group_symop_operation_xyz
x,y,z
-y,x,1/2+z
-x,-y,z
y,-x,1/2+z
-x,-y,-z
y,-x,1/2-z
x,y,-z
-y,x,1/2-z
loop_
_atom_site_type_symbol
_atom_site_label
_atom_site_fract_x
_atom_site_fract_y
_atom_site_fract_z
Si Si1 0.143650 0.916674 0.448364
Si Si2 0.025502 0.166881 0.155702
Si Si3 0.334999 0.737828 0.704174
Si Si4 0.345837 0.488403 0.368140
Si Si5 0.859591 0.412450 0.447727
Si Si6 0.344608 0.225901 0.305881
O O1 0.212517 0.936818 0.500000
O O2 0.210322 0.965849 0.399426
O O3 0.115639 0.752347 0.443012
O O4 0.000000 0.000000 0.450420
O O5 0.166158 0.218352 0.180429
O O6 0.905740 0.251897 0.181757
O O7 0.000000 0.000000 0.158393
O O8 0.340615 0.594081 0.675652
O O9 0.295211 0.707080 0.757616
O O10 0.490100 0.801404 0.699519
O O11 0.500000 0.500000 0.388413
O O12 0.238130 0.534901 0.406822
O O13 0.324150 0.336106 0.347667
O O14 0.799620 0.434610 0.500000
O O15 0.000000 0.500000 0.445183
#
# Coordination Sequence:
#
# PCOD9544245 Si02
#       6
#     8   8   8   8   8   8
#     4   9  19  38  61  85 120 158 191 240 305 360
#     4  11  25  40  60  94 123 155 199 252 300 351
#     4  11  22  43  61  86 120 162 203 244 296 363
#     4  10  22  39  63  88 120 160 203 244 298 362
#     4  10  21  38  63  93 119 152 204 255 302 355
#     4  11  24  40  63  86 121 163 202 245 298 360
#
# _framework density 18.110399999999998
#
# number of rings (size 3 to 8) (size 9 to 14) (size 15 to 20)
#    0.000    1.667    3.333    0.500    7.000    0.333 
#    0.000    0.000    0.000    3.000    0.000    0.000 
#    0.000    0.000    0.000    0.000    0.000    0.000 
#
# Total GULP energy -267705.825711 kJ/mol
# GULP energy per Si atom -5577.204702 kJ/mol
# Density = 1.806918 g / cm^3
# Si number density = 18.110400 Si / 1000 Ang^3
#
#
#
# Elastic Constant Matrix: (Units=GPa)
#
#
# Indices 1 2 3 4 5 6 
#
# 1 56.6596 18.2097 23.1059 0.0000 0.0000 0.9052
# 2 18.2097 56.6596 23.1059 0.0000 0.0000 -0.9052
# 3 23.1059 23.1059 109.5724 0.0000 0.0000 0.0000
# 4 0.0000 0.0000 0.0000 20.3650 0.0000 0.0000
# 5 0.0000 0.0000 0.0000 0.0000 20.3650 0.0000
# 6 0.9052 -0.9052 0.0000 0.0000 0.0000 21.9360
#
#
#
# Elastic Compliance Matrix: (Units=1/GPa)
#
#
# Indices 1 2 3 4 5 6 
#
# 1 0.020707 -0.005352 -0.003238 0.000000 0.000000 -0.001075
# 2 -0.005352 0.020707 -0.003238 0.000000 0.000000 0.001075
# 3 -0.003238 -0.003238 0.010492 0.000000 0.000000 0.000000
# 4 0.000000 0.000000 0.000000 0.049104 0.000000 0.000000
# 5 0.000000 0.000000 0.000000 0.000000 0.049104 0.000000
# 6 -0.001075 0.001075 0.000000 0.000000 0.000000 0.045676
#
#
# Mechanical properties :
#
#
# Convention : Reuss Voigt Hill
#
# Bulk Modulus (GPa) = 35.39772 39.08164 37.23968
# Shear Modulus (GPa) = 21.84728 23.09787 22.47257
#
# Velocity S-wave (km/s) = 3.47701 3.57514 3.52641
# Velocity P-wave (km/s) = 5.97557 6.21841 6.09820
#
# Compressibility (1/GPa) = 0.02825040
#
# Stress axis : x y z
#
# Youngs Moduli (GPa) = 48.29315 48.29315 95.31064
#
# Poissons Ratio (x) = 0.25845 0.30862
# Poissons Ratio (y) = 0.25845 0.30862
# Poissons Ratio (z) = 0.15637 0.15637
#
# Static dielectric constant tensor:
#      x y z
#    x 1.612990 0.000000 0.000000 
#    y 0.000000 1.612990 0.000000 
#    z 0.000000 0.000000 1.631400 
# 
# From -- ./inp_files/5733.got.cif
#   From: 2010.05.17/outbox.cif.g08.bks.cpg/sg84_3_cif.got.tgz:5733.got - 2010.06.03 18:57:40.
