data_PCOD9544578
_publ_section_title
;
Structure prediction by ZEFSAII (Michael W. Deem and Ramdas Pophale) SiO2 
 PCOD9544578
Probable space group: P 4/N
;
_chemical_formula_sum "Si O2"
_cell_formula_units_Z 56
_cell_length_a 14.278266
_cell_length_b 14.278266
_cell_length_c 14.105169
_cell_angle_alpha 90.000000
_cell_angle_beta 90.000000
_cell_angle_gamma 90.000000
_cell_volume 2875.605006
_symmetry_space_group_name_H-M "P 4/N"
_symmetry_group_IT_number 85
_symmetry_cell_setting 'tetragonal'
loop_
_space_group_symop_operation_xyz
x,y,z
1/2-y,x,z
1/2-x,1/2-y,z
y,1/2-x,z
-x,-y,-z
1/2+y,-x,-z
1/2+x,1/2+y,-z
-y,1/2+x,-z
loop_
_atom_site_type_symbol
_atom_site_label
_atom_site_fract_x
_atom_site_fract_y
_atom_site_fract_z
Si Si1 0.009031 0.801429 0.298694
Si Si2 0.541534 0.894273 0.389672
Si Si3 0.407369 0.707962 0.889223
Si Si4 0.950265 0.885431 0.581165
Si Si5 0.210868 0.604146 0.888557
Si Si6 0.113951 0.800024 0.466928
Si Si7 0.397396 0.299696 0.220429
O O1 0.025331 0.807864 0.188217
O O2 0.102248 0.831334 0.358378
O O3 0.994490 0.697465 0.338016
O O4 0.926218 0.866329 0.333975
O O5 0.568647 0.883277 0.501172
O O6 0.468805 0.981056 0.383368
O O7 0.317072 0.641493 0.870907
O O8 0.362869 0.811141 0.872135
O O9 0.501937 0.686099 0.831142
O O10 0.425737 0.702766 0.002239
O O11 0.911420 0.825898 0.668348
O O12 0.017896 0.820655 0.518773
O O13 0.193415 0.856843 0.521119
O O14 0.306972 0.364948 0.197259
#
# Coordination Sequence:
#
# PCOD9544578 Si02
#       7
#     8   8   8   8   8   8   8
#     4  11  22  38  58  86 121 160 210 244 318 369
#     4  10  23  38  57  88 121 162 206 254 298 379
#     4   9  20  42  66  95 128 155 213 266 325 376
#     4  10  22  39  59  83 126 160 204 254 301 365
#     4   9  20  40  69  96 120 162 205 276 324 371
#     4  10  21  33  55  87 116 150 197 255 312 361
#     4  11  26  41  62  93 127 173 211 250 315 388
#
# _framework density 19.474162
#
# number of rings (size 3 to 8) (size 9 to 14) (size 15 to 20)
#    0.000    2.000    1.429    1.714    8.000    1.429 
#    2.571    1.429    0.000    0.000    0.000    0.000 
#    0.000    0.000    0.000    0.000    0.000    0.000 
#
# Total GULP energy -312186.788437 kJ/mol
# GULP energy per Si atom -5574.764079 kJ/mol
# Density = 1.942984 g / cm^3
# Si number density = 19.474162 Si / 1000 Ang^3
#
#
#
# Elastic Constant Matrix: (Units=GPa)
#
#
# Indices 1 2 3 4 5 6 
#
# 1 57.8215 13.5500 27.6366 0.0000 0.0000 -5.2703
# 2 13.5500 57.8215 27.6366 0.0000 0.0000 5.2703
# 3 27.6366 27.6366 83.2706 0.0000 0.0000 0.0000
# 4 0.0000 0.0000 0.0000 24.9470 0.0000 0.0000
# 5 0.0000 0.0000 0.0000 0.0000 24.9470 0.0000
# 6 -5.2703 5.2703 0.0000 0.0000 0.0000 20.4243
#
#
#
# Elastic Compliance Matrix: (Units=1/GPa)
#
#
# Indices 1 2 3 4 5 6 
#
# 1 0.021462 -0.002604 -0.006259 0.000000 0.000000 0.006210
# 2 -0.002604 0.021462 -0.006259 0.000000 0.000000 -0.006210
# 3 -0.006259 -0.006259 0.016164 0.000000 0.000000 0.000000
# 4 0.000000 0.000000 0.000000 0.040085 0.000000 0.000000
# 5 0.000000 0.000000 0.000000 0.000000 0.040085 0.000000
# 6 0.006210 -0.006210 0.000000 0.000000 0.000000 0.052166
#
#
# Mechanical properties :
#
#
# Convention : Reuss Voigt Hill
#
# Bulk Modulus (GPa) = 34.66841 37.39556 36.03198
# Shear Modulus (GPa) = 21.61856 22.73638 22.17747
#
# Velocity S-wave (km/s) = 3.33545 3.42060 3.37829
# Velocity P-wave (km/s) = 5.71617 5.90297 5.81032
#
# Compressibility (1/GPa) = 0.02884470
#
# Stress axis : x y z
#
# Youngs Moduli (GPa) = 46.59317 46.59317 61.86776
#
# Poissons Ratio (x) = 0.12133 0.38722
# Poissons Ratio (y) = 0.12133 0.38722
# Poissons Ratio (z) = 0.29162 0.29162
#
# Static dielectric constant tensor:
#      x y z
#    x 1.706600 0.000000 0.000000 
#    y 0.000000 1.706600 0.000000 
#    z 0.000000 0.000000 1.684180 
# 
# From -- ./inp_files/1734.got.cif
#   From: 2010.05.17/outbox.cif.g08.bks.cpg/sg85_cif.got.tgz:1734.got - 2010.06.03 19:01:16.
