data_PCOD9544122
_publ_section_title
;
Structure prediction by ZEFSAII (Michael W. Deem and Ramdas Pophale) SiO2 
 PCOD9544122
Probable space group: P 42/M
;
_chemical_formula_sum "Si O2"
_cell_formula_units_Z 40
_cell_length_a 16.918772
_cell_length_b 16.918772
_cell_length_c 8.494132
_cell_angle_alpha 90.000000
_cell_angle_beta 90.000000
_cell_angle_gamma 90.000000
_cell_volume 2431.401506
_symmetry_space_group_name_H-M "P 42/M"
_symmetry_group_IT_number 84
_symmetry_cell_setting 'tetragonal'
loop_
_space_group_symop_operation_xyz
x,y,z
-y,x,1/2+z
-x,-y,z
y,-x,1/2+z
-x,-y,-z
y,-x,1/2-z
x,y,-z
-y,x,1/2-z
loop_
_atom_site_type_symbol
_atom_site_label
_atom_site_fract_x
_atom_site_fract_y
_atom_site_fract_z
Si Si1 0.103393 0.952532 0.823235
Si Si2 0.196419 0.812656 0.313412
Si Si3 0.075011 0.679597 0.809751
Si Si4 0.904793 0.496240 0.820891
Si Si5 0.893786 0.664343 0.314660
O O1 0.168433 0.891522 0.775666
O O2 0.021797 0.904747 0.802732
O O3 0.112268 0.983294 0.000000
O O4 0.186846 0.818919 0.500000
O O5 0.137102 0.744454 0.253401
O O6 0.288493 0.821600 0.268842
O O7 0.109399 0.593099 0.764583
O O8 0.983700 0.684335 0.748897
O O9 0.071353 0.684152 0.000000
O O10 0.881102 0.571133 0.718359
O O11 0.000000 0.500000 0.829616
O O12 0.874712 0.505395 0.000000
O O13 0.893151 0.680276 0.500000
#
# Coordination Sequence:
#
# PCOD9544122 Si02
#       5
#     8   8   8   8   8
#     4  11  21  34  47  61  83 115 156 195 233 272
#     4  12  23  34  47  66  93 123 157 195 237 279
#     4  10  20  35  52  71  96 125 159 198 241 284
#     4   8  16  32  52  71  93 122 154 192 238 284
#     4  11  21  33  50  72  97 126 161 197 236 282
#
# _framework density 16.451418
#
# number of rings (size 3 to 8) (size 9 to 14) (size 15 to 20)
#    0.000    1.600    0.000    9.000    0.000    4.400 
#    0.000    0.000    0.000    0.000    0.000    0.000 
#    0.000    0.800    0.000    8.400    0.000    3.600 
#
# Total GULP energy -222880.076082 kJ/mol
# GULP energy per Si atom -5572.001902 kJ/mol
# Density = 1.641397 g / cm^3
# Si number density = 16.451418 Si / 1000 Ang^3
#
#
#
# Elastic Constant Matrix: (Units=GPa)
#
#
# Indices 1 2 3 4 5 6 
#
# 1 34.6551 64.5508 24.3045 0.0000 0.0000 4.1939
# 2 64.5508 34.6551 24.3045 0.0000 0.0000 -4.1939
# 3 24.3045 24.3045 92.1622 0.0000 0.0000 0.0000
# 4 0.0000 0.0000 0.0000 20.5835 0.0000 0.0000
# 5 0.0000 0.0000 0.0000 0.0000 20.5835 0.0000
# 6 4.1939 -4.1939 0.0000 0.0000 0.0000 15.4812
#
#
#
# Elastic Compliance Matrix: (Units=1/GPa)
#
#
# Indices 1 2 3 4 5 6 
#
# 1 -0.009755 0.021331 -0.003053 0.000000 0.000000 0.008422
# 2 0.021331 -0.009755 -0.003053 0.000000 0.000000 -0.008422
# 3 -0.003053 -0.003053 0.012461 0.000000 0.000000 0.000000
# 4 0.000000 0.000000 0.000000 0.048583 0.000000 0.000000
# 5 0.000000 0.000000 0.000000 0.000000 0.048583 0.000000
# 6 0.008422 -0.008422 0.000000 0.000000 0.000000 0.060032
#
#
# Mechanical properties :
#
#
# Convention : Reuss Voigt Hill
#
# Bulk Modulus (GPa) = 42.73266 43.08802 42.91034
# Shear Modulus (GPa) = 39.21717 14.55048 26.88382
#
# Velocity S-wave (km/s) = 4.88773 2.97720 4.04683
# Velocity P-wave (km/s) = 7.60820 6.16978 6.92643
#
# Compressibility (1/GPa) = 0.02340131
#
# Stress axis : x y z
#
# Youngs Moduli (GPa) = -102.50679 -102.50679 80.25344
#
# Poissons Ratio (x) = 2.18660 0.24499
# Poissons Ratio (y) = 2.18660 0.24499
# Poissons Ratio (z) = -0.31292 -0.31292
#
# Static dielectric constant tensor:
#      x y z
#    x 1.632490 0.000000 0.000000 
#    y 0.000000 1.632490 0.000000 
#    z 0.000000 0.000000 1.571120 
# 
# From -- ./inp_files/903.got.cif
#   From: 2010.05.17/outbox.cif.g08.bks.cpg/sg84_1_cif.got.tgz:903.got - 2010.06.03 18:57:40.
