data_PCOD9544348
_publ_section_title
;
Structure prediction by ZEFSAII (Michael W. Deem and Ramdas Pophale) SiO2 
 PCOD9544348
Probable space group: P 42/M
;
_chemical_formula_sum "Si O2"
_cell_formula_units_Z 44
_cell_length_a 7.266852
_cell_length_b 7.266852
_cell_length_c 33.167148
_cell_angle_alpha 90.000000
_cell_angle_beta 90.000000
_cell_angle_gamma 90.000000
_cell_volume 1751.462161
_symmetry_space_group_name_H-M "P 42/M"
_symmetry_group_IT_number 84
_symmetry_cell_setting 'tetragonal'
loop_
_space_group_symop_operation_xyz
x,y,z
-y,x,1/2+z
-x,-y,z
y,-x,1/2+z
-x,-y,-z
y,-x,1/2-z
x,y,-z
-y,x,1/2-z
loop_
_atom_site_type_symbol
_atom_site_label
_atom_site_fract_x
_atom_site_fract_y
_atom_site_fract_z
Si Si1 0.500000 0.000000 0.749174
Si Si2 0.281595 0.530939 0.042977
Si Si3 0.790274 0.470410 0.132969
Si Si4 0.720789 0.032358 0.043190
Si Si5 0.753066 0.252536 0.695979
Si Si6 0.280431 0.963422 0.131187
O O1 0.402657 0.681853 0.664304
O O2 0.410295 0.160634 0.776128
O O3 0.500000 0.500000 0.042299
O O4 0.223238 0.461602 0.086650
O O5 0.246788 0.749025 0.043061
O O6 0.209445 0.456846 0.000000
O O7 0.745243 0.255105 0.134799
O O8 0.000000 0.500000 0.144812
O O9 0.786671 0.968979 0.086973
O O10 0.500000 0.000000 0.043163
O O11 0.789152 0.958207 0.000000
O O12 0.919517 0.192037 0.666796
O O13 0.661418 0.095176 0.723272
O O14 0.500000 0.000000 0.132961
#
# Coordination Sequence:
#
# PCOD9544348 Si02
#       6
#     4   8   8   8   8   8
#     4  12  32  50  82 104 152 188 256 320 410 458
#     4   9  19  35  62 102 145 191 246 301 354 428
#     4  11  26  45  73 109 153 201 246 303 377 456
#     4   8  15  30  55  96 140 179 229 289 351 417
#     4  12  29  55  76 116 144 201 250 329 386 482
#     4  10  23  43  75 109 147 193 248 313 368 442
#
# _framework density 25.121866000000001
#
# number of rings (size 3 to 8) (size 9 to 14) (size 15 to 20)
#    0.000    1.818    1.818    0.000   10.182    4.727 
#    0.000    0.000    0.000    0.000    0.000    6.364 
#    0.000    0.000    0.000    0.000    0.000    0.000 
#
# Total GULP energy -246128.046120 kJ/mol
# GULP energy per Si atom -5593.819230 kJ/mol
# Density = 2.506469 g / cm^3
# Si number density = 25.121866 Si / 1000 Ang^3
#
#
#
# Elastic Constant Matrix: (Units=GPa)
#
#
# Indices 1 2 3 4 5 6 
#
# 1 142.1939 40.7705 66.4870 0.0000 0.0000 -1.2392
# 2 40.7705 142.1939 66.4870 0.0000 0.0000 1.2392
# 3 66.4870 66.4870 238.3688 0.0000 0.0000 0.0000
# 4 0.0000 0.0000 0.0000 33.0752 0.0000 0.0000
# 5 0.0000 0.0000 0.0000 0.0000 33.0752 0.0000
# 6 -1.2392 1.2392 0.0000 0.0000 0.0000 37.2617
#
#
#
# Elastic Compliance Matrix: (Units=1/GPa)
#
#
# Indices 1 2 3 4 5 6 
#
# 1 0.008361 -0.001506 -0.001912 0.000000 0.000000 0.000328
# 2 -0.001506 0.008361 -0.001912 0.000000 0.000000 -0.000328
# 3 -0.001912 -0.001912 0.005262 0.000000 0.000000 0.000000
# 4 0.000000 0.000000 0.000000 0.030234 0.000000 0.000000
# 5 0.000000 0.000000 0.000000 0.000000 0.030234 0.000000
# 6 0.000328 -0.000328 0.000000 0.000000 0.000000 0.026859
#
#
# Mechanical properties :
#
#
# Convention : Reuss Voigt Hill
#
# Bulk Modulus (GPa) = 88.30883 96.69393 92.50138
# Shear Modulus (GPa) = 40.40491 43.94992 42.17741
#
# Velocity S-wave (km/s) = 4.01478 4.18720 4.10190
# Velocity P-wave (km/s) = 7.53125 7.87086 7.70293
#
# Compressibility (1/GPa) = 0.01132390
#
# Stress axis : x y z
#
# Youngs Moduli (GPa) = 119.59663 119.59663 190.04774
#
# Poissons Ratio (x) = 0.18014 0.36339
# Poissons Ratio (y) = 0.18014 0.36339
# Poissons Ratio (z) = 0.22868 0.22868
#
# Static dielectric constant tensor:
#      x y z
#    x 1.970490 0.000000 0.000000 
#    y 0.000000 1.970490 0.000000 
#    z 0.000000 0.000000 2.054360 
# 
# From -- ./inp_files/5683.got.cif
#   From: 2010.05.17/outbox.cif.g08.bks.cpg/sg84_3_cif.got.tgz:5683.got - 2010.06.03 18:57:40.
