data_PCOD9544915
_publ_section_title
;
Structure prediction by ZEFSAII (Michael W. Deem and Ramdas Pophale) SiO2 
 PCOD9544915
Probable space group: P 42/N
;
_chemical_formula_sum "Si O2"
_cell_formula_units_Z 34
_cell_length_a 12.785975
_cell_length_b 12.785975
_cell_length_c 9.984281
_cell_angle_alpha 90.000000
_cell_angle_beta 90.000000
_cell_angle_gamma 90.000000
_cell_volume 1632.241807
_symmetry_space_group_name_H-M "P 42/N"
_symmetry_group_IT_number 86
_space_group.IT_coordinate_system_code '2'
_symmetry_cell_setting 'tetragonal'
loop_
_space_group_symop_operation_xyz
x,y,z
-y,1/2+x,1/2+z
1/2-x,1/2-y,z
1/2+y,-x,1/2+z
-x,-y,-z
y,1/2-x,1/2-z
1/2+x,1/2+y,-z
1/2-y,x,1/2-z
loop_
_atom_site_type_symbol
_atom_site_label
_atom_site_fract_x
_atom_site_fract_y
_atom_site_fract_z
Si Si1 0.670209 0.076805 0.635690
Si Si2 0.962332 0.797325 0.139278
Si Si3 0.250000 0.250000 0.750000
Si Si4 0.930491 0.055846 0.388215
Si Si5 0.884967 0.177171 0.628254
O O1 0.598578 0.024598 0.749421
O O2 0.793532 0.094465 0.666306
O O3 0.638707 0.199605 0.637842
O O4 0.658809 0.015969 0.495482
O O5 0.838181 0.805042 0.158519
O O6 0.989152 0.673738 0.134740
O O7 0.019078 0.842323 0.271358
O O8 0.897988 0.159411 0.470468
O O9 0.000000 0.000000 0.500000
#
# Coordination Sequence:
#
# PCOD9544915 Si02
#       5
#     8   8   2   8   8
#     4   9  18  34  60  88 110 137 183 238 291 334
#     4  10  21  37  57  79 110 154 189 226 282 340
#     4  12  24  40  52  74 120 164 196 222 268 356
#     4  10  19  34  55  84 115 144 183 233 283 335
#     4   9  17  34  60  88 111 134 179 244 294 331
#
# _framework density 20.830245999999999
#
# number of rings (size 3 to 8) (size 9 to 14) (size 15 to 20)
#    0.000    2.353    0.000    2.824    0.000    5.647 
#    0.000   20.000    0.000    1.412    0.000    0.000 
#    0.000    0.000    0.000    0.000    0.000    0.000 
#
# Total GULP energy -189359.527007 kJ/mol
# GULP energy per Si atom -5569.397853 kJ/mol
# Density = 2.078284 g / cm^3
# Si number density = 20.830246 Si / 1000 Ang^3
#
#
#
# Elastic Constant Matrix: (Units=GPa)
#
#
# Indices 1 2 3 4 5 6 
#
# 1 51.2972 -0.0424 32.5945 0.0000 0.0000 -0.7952
# 2 -0.0424 51.2972 32.5945 0.0000 0.0000 0.7952
# 3 32.5945 32.5945 119.8221 0.0000 0.0000 0.0000
# 4 0.0000 0.0000 0.0000 34.4910 0.0000 0.0000
# 5 0.0000 0.0000 0.0000 0.0000 34.4910 0.0000
# 6 -0.7952 0.7952 0.0000 0.0000 0.0000 18.3441
#
#
#
# Elastic Compliance Matrix: (Units=1/GPa)
#
#
# Indices 1 2 3 4 5 6 
#
# 1 0.024668 0.005163 -0.008115 0.000000 0.000000 0.000846
# 2 0.005163 0.024668 -0.008115 0.000000 0.000000 -0.000846
# 3 -0.008115 -0.008115 0.012761 0.000000 0.000000 0.000000
# 4 0.000000 0.000000 0.000000 0.028993 0.000000 0.000000
# 5 0.000000 0.000000 0.000000 0.000000 0.028993 0.000000
# 6 0.000846 -0.000846 0.000000 0.000000 0.000000 0.054587
#
#
# Mechanical properties :
#
#
# Convention : Reuss Voigt Hill
#
# Bulk Modulus (GPa) = 25.02262 39.18997 32.10629
# Shear Modulus (GPa) = 23.79562 27.94989 25.87275
#
# Velocity S-wave (km/s) = 3.38355 3.66702 3.52813
# Velocity P-wave (km/s) = 5.22525 6.06500 5.66072
#
# Compressibility (1/GPa) = 0.03996384
#
# Stress axis : x y z
#
# Youngs Moduli (GPa) = 40.53865 40.53865 78.36644
#
# Poissons Ratio (x) = -0.20932 0.63593
# Poissons Ratio (y) = -0.20932 0.63593
# Poissons Ratio (z) = 0.32896 0.32896
#
# Static dielectric constant tensor:
#      x y z
#    x 1.827670 0.000000 0.000000 
#    y 0.000000 1.827670 0.000000 
#    z 0.000000 0.000000 1.754200 
# 
# From -- ./inp_files/957.got.cif
#   From: 2010.05.17/outbox.cif.g08.bks.cpg/sg86_1_cif.got.tgz:957.got - 2010.06.03 19:03:11.
