data_PCOD9544993
_publ_section_title
;
Structure prediction by ZEFSAII (Michael W. Deem and Ramdas Pophale) SiO2 
 PCOD9544993
Probable space group: P 42/N
;
_chemical_formula_sum "Si O2"
_cell_formula_units_Z 60
_cell_length_a 11.883267
_cell_length_b 11.883267
_cell_length_c 20.484278
_cell_angle_alpha 90.000000
_cell_angle_beta 90.000000
_cell_angle_gamma 90.000000
_cell_volume 2892.626574
_symmetry_space_group_name_H-M "P 42/N"
_symmetry_group_IT_number 86
_space_group.IT_coordinate_system_code '2'
_symmetry_cell_setting 'tetragonal'
loop_
_space_group_symop_operation_xyz
x,y,z
-y,1/2+x,1/2+z
1/2-x,1/2-y,z
1/2+y,-x,1/2+z
-x,-y,-z
y,1/2-x,1/2-z
1/2+x,1/2+y,-z
1/2-y,x,1/2-z
loop_
_atom_site_type_symbol
_atom_site_label
_atom_site_fract_x
_atom_site_fract_y
_atom_site_fract_z
Si Si1 0.502379 0.247130 0.703164
Si Si2 0.067173 0.426628 0.891259
Si Si3 0.578511 0.309371 0.378741
Si Si4 0.250000 0.750000 0.736243
Si Si5 0.082629 0.977693 0.092199
Si Si6 0.384906 0.657229 0.472942
Si Si7 0.314795 0.074249 0.657474
Si Si8 0.091799 0.855328 0.951607
O O1 0.483729 0.361909 0.665433
O O2 0.636183 0.239571 0.719548
O O3 0.417751 0.162467 0.663608
O O4 0.442813 0.255159 0.773598
O O5 0.103635 0.494742 0.956085
O O6 0.091445 0.291583 0.891289
O O7 0.938864 0.451225 0.872467
O O8 0.648881 0.270748 0.315955
O O9 0.489728 0.209902 0.391279
O O10 0.636964 0.315857 0.450730
O O11 0.039418 0.879741 0.139568
O O12 0.076513 0.914807 0.022145
O O13 0.998130 0.081966 0.092927
O O14 0.279005 0.581510 0.452514
O O15 0.379647 0.777368 0.436154
#
# Coordination Sequence:
#
# PCOD9544993 Si02
#       8
#     8   8   8   4   8   8   8   8
#     4  12  25  39  64  92 128 167 221 278 333 401
#     4  12  24  38  59  95 134 168 211 272 344 396
#     4  11  20  39  65  92 126 174 224 263 330 412
#     4  12  22  44  66  92 118 174 234 270 334 410
#     4  10  20  36  64  89 122 165 219 269 320 397
#     4  10  21  38  64  94 132 172 217 277 336 408
#     4  12  22  39  60  89 125 166 209 271 334 393
#     4   9  19  37  59  93 124 165 213 270 330 384
#
# _framework density 20.742394999999998
#
# number of rings (size 3 to 8) (size 9 to 14) (size 15 to 20)
#    0.000    1.067    4.000    4.000    0.000    2.133 
#    0.000    2.000    0.000    0.000    0.000    0.000 
#    0.000    0.000    0.000    0.000    0.000    0.000 
#
# Total GULP energy -334100.685664 kJ/mol
# GULP energy per Si atom -5568.344761 kJ/mol
# Density = 2.069518 g / cm^3
# Si number density = 20.742395 Si / 1000 Ang^3
#
#
#
# Elastic Constant Matrix: (Units=GPa)
#
#
# Indices 1 2 3 4 5 6 
#
# 1 142.9537 68.7919 31.0997 0.0000 0.0000 6.7509
# 2 68.7919 142.9537 31.0997 0.0000 0.0000 -6.7509
# 3 31.0997 31.0997 46.7501 0.0000 0.0000 0.0000
# 4 0.0000 0.0000 0.0000 18.3485 0.0000 0.0000
# 5 0.0000 0.0000 0.0000 0.0000 18.3485 0.0000
# 6 6.7509 -6.7509 0.0000 0.0000 0.0000 21.8288
#
#
#
# Elastic Compliance Matrix: (Units=1/GPa)
#
#
# Indices 1 2 3 4 5 6 
#
# 1 0.010079 -0.004209 -0.003905 0.000000 0.000000 -0.004419
# 2 -0.004209 0.010079 -0.003905 0.000000 0.000000 0.004419
# 3 -0.003905 -0.003905 0.026585 0.000000 0.000000 0.000000
# 4 0.000000 0.000000 0.000000 0.054500 0.000000 0.000000
# 5 0.000000 0.000000 0.000000 0.000000 0.054500 0.000000
# 6 -0.004419 0.004419 0.000000 0.000000 0.000000 0.048544
#
#
# Mechanical properties :
#
#
# Convention : Reuss Voigt Hill
#
# Bulk Modulus (GPa) = 44.04132 66.07111 55.05621
# Shear Modulus (GPa) = 21.19592 25.14960 23.17276
#
# Velocity S-wave (km/s) = 3.20013 3.48584 3.34603
# Velocity P-wave (km/s) = 5.91042 6.93713 6.44425
#
# Compressibility (1/GPa) = 0.02270595
#
# Stress axis : x y z
#
# Youngs Moduli (GPa) = 99.21545 99.21545 37.61465
#
# Poissons Ratio (x) = 0.41764 0.14687
# Poissons Ratio (y) = 0.41764 0.14687
# Poissons Ratio (z) = 0.38740 0.38740
#
# Static dielectric constant tensor:
#      x y z
#    x 1.776050 0.000000 0.000000 
#    y 0.000000 1.776050 0.000000 
#    z 0.000000 0.000000 1.834960 
# 
# From -- ./inp_files/4278.got.cif
#   From: 2010.05.17/outbox.cif.g08.bks.cpg/sg86_3_cif.got.tgz:4278.got - 2010.06.03 19:03:11.
