data_PCOD9544077
_publ_section_title
;
Structure prediction by ZEFSAII (Michael W. Deem and Ramdas Pophale) SiO2 
 PCOD9544077
Probable space group: P 42/M
;
_chemical_formula_sum "Si O2"
_cell_formula_units_Z 26
_cell_length_a 10.151143
_cell_length_b 10.151143
_cell_length_c 10.443432
_cell_angle_alpha 90.000000
_cell_angle_beta 90.000000
_cell_angle_gamma 90.000000
_cell_volume 1076.150805
_symmetry_space_group_name_H-M "P 42/M"
_symmetry_group_IT_number 84
_symmetry_cell_setting 'tetragonal'
loop_
_space_group_symop_operation_xyz
x,y,z
-y,x,1/2+z
-x,-y,z
y,-x,1/2+z
-x,-y,-z
y,-x,1/2-z
x,y,-z
-y,x,1/2-z
loop_
_atom_site_type_symbol
_atom_site_label
_atom_site_fract_x
_atom_site_fract_y
_atom_site_fract_z
Si Si1 0.152151 0.615074 0.248663
Si Si2 0.289537 0.519503 0.000000
Si Si3 0.738660 0.113855 0.348622
Si Si4 0.000000 0.000000 0.250000
Si Si5 0.511176 0.729829 0.000000
O O1 0.206165 0.532119 0.129180
O O2 0.239592 0.748507 0.273130
O O3 0.180795 0.535773 0.377182
O O4 0.001920 0.654583 0.218601
O O5 0.374266 0.654329 0.000000
O O6 0.386777 0.394701 0.000000
O O7 0.706365 0.129151 0.500000
O O8 0.885381 0.054063 0.339455
#
# Coordination Sequence:
#
# PCOD9544077 Si02
#       5
#     8   4   8   2   4
#     4  11  22  40  66  95 126 164 206 253 320 374
#     4  11  24  44  66  87 118 166 222 267 302 364
#     4  10  19  36  59  93 131 160 195 252 311 377
#     4   8  18  28  60  86 120 170 208 230 288 370
#     4  11  24  44  66  87 118 166 222 267 302 364
#
# _framework density 24.160181999999999
#
# number of rings (size 3 to 8) (size 9 to 14) (size 15 to 20)
#    0.000    1.538    3.077    2.308    0.000    3.692 
#    0.000    9.231    0.000    0.000    0.000    0.000 
#    0.000    0.000    0.000    0.000    0.000    0.000 
#
# Total GULP energy -145584.891140 kJ/mol
# GULP energy per Si atom -5599.418890 kJ/mol
# Density = 2.410519 g / cm^3
# Si number density = 24.160182 Si / 1000 Ang^3
#
#
#
# Elastic Constant Matrix: (Units=GPa)
#
#
# Indices 1 2 3 4 5 6 
#
# 1 101.9079 8.4454 61.8477 0.0000 0.0000 0.1194
# 2 8.4454 101.9079 61.8477 0.0000 0.0000 -0.1194
# 3 61.8477 61.8477 227.9982 0.0000 0.0000 0.0000
# 4 0.0000 0.0000 0.0000 37.7560 0.0000 0.0000
# 5 0.0000 0.0000 0.0000 0.0000 37.7560 0.0000
# 6 0.1194 -0.1194 0.0000 0.0000 0.0000 55.3998
#
#
#
# Elastic Compliance Matrix: (Units=1/GPa)
#
#
# Indices 1 2 3 4 5 6 
#
# 1 0.011860 0.001161 -0.003532 0.000000 0.000000 -0.000023
# 2 0.001161 0.011860 -0.003532 0.000000 0.000000 0.000023
# 3 -0.003532 -0.003532 0.006302 0.000000 0.000000 0.000000
# 4 0.000000 0.000000 0.000000 0.026486 0.000000 0.000000
# 5 0.000000 0.000000 0.000000 0.000000 0.026486 0.000000
# 6 -0.000023 0.000023 0.000000 0.000000 0.000000 0.018051
#
#
# Mechanical properties :
#
#
# Convention : Reuss Voigt Hill
#
# Bulk Modulus (GPa) = 54.89758 77.34395 66.12076
# Shear Modulus (GPa) = 42.04362 46.16059 44.10210
#
# Velocity S-wave (km/s) = 4.17610 4.37579 4.27711
# Velocity P-wave (km/s) = 6.78415 7.59029 7.19852
#
# Compressibility (1/GPa) = 0.01821574
#
# Stress axis : x y z
#
# Youngs Moduli (GPa) = 84.31520 84.31520 158.67281
#
# Poissons Ratio (x) = -0.09787 0.56045
# Poissons Ratio (y) = -0.09787 0.56045
# Poissons Ratio (z) = 0.29781 0.29781
#
# Static dielectric constant tensor:
#      x y z
#    x 1.949080 0.000000 0.000000 
#    y 0.000000 1.949080 0.000000 
#    z 0.000000 0.000000 1.821320 
# 
# From -- ./inp_files/1708.got.cif
#   From: 2010.05.17/outbox.cif.g08.bks.cpg/sg84_1_cif.got.tgz:1708.got - 2010.06.03 18:57:40.
