data_PCOD9544657
_publ_section_title
;
Structure prediction by ZEFSAII (Michael W. Deem and Ramdas Pophale) SiO2 
 PCOD9544657
Probable space group: P 4/N
;
_chemical_formula_sum "Si O2"
_cell_formula_units_Z 24
_cell_length_a 13.338838
_cell_length_b 13.338838
_cell_length_c 5.561455
_cell_angle_alpha 90.000000
_cell_angle_beta 90.000000
_cell_angle_gamma 90.000000
_cell_volume 989.519652
_symmetry_space_group_name_H-M "P 4/N"
_symmetry_group_IT_number 85
_symmetry_cell_setting 'tetragonal'
loop_
_space_group_symop_operation_xyz
x,y,z
1/2-y,x,z
1/2-x,1/2-y,z
y,1/2-x,z
-x,-y,-z
1/2+y,-x,-z
1/2+x,1/2+y,-z
-y,1/2+x,-z
loop_
_atom_site_type_symbol
_atom_site_label
_atom_site_fract_x
_atom_site_fract_y
_atom_site_fract_z
Si Si1 0.544706 0.560001 0.757072
Si Si2 0.118990 0.642430 0.502737
Si Si3 0.352381 0.119234 0.746553
O O1 0.602247 0.453604 0.716255
O O2 0.424691 0.571881 0.712283
O O3 0.568302 0.605654 0.012914
O O4 0.583201 0.620431 0.522158
O O5 0.115840 0.762679 0.469553
O O6 0.385594 0.233560 0.763129
#
# Coordination Sequence:
#
# PCOD9544657 Si02
#       3
#     8   8   8
#     4  11  24  43  66  93 132 172 216 268 324 384
#     4  10  22  42  68  98 132 172 218 268 324 386
#     4  11  22  39  66  98 132 172 218 268 324 386
#
# _framework density 24.254193000000001
#
# number of rings (size 3 to 8) (size 9 to 14) (size 15 to 20)
#    0.000    1.333    0.000    6.000    0.000    8.000 
#    0.000   10.000    0.000   29.000    0.000    0.000 
#    0.000    0.000    0.000    0.000    0.000    0.000 
#
# Total GULP energy -134061.257173 kJ/mol
# GULP energy per Si atom -5585.885716 kJ/mol
# Density = 2.419899 g / cm^3
# Si number density = 24.254193 Si / 1000 Ang^3
#
#
#
# Elastic Constant Matrix: (Units=GPa)
#
#
# Indices 1 2 3 4 5 6 
#
# 1 274.2060 -85.2546 46.9862 0.0000 0.0000 33.1233
# 2 -85.2546 274.2060 46.9862 0.0000 0.0000 -33.1233
# 3 46.9862 46.9862 192.1003 0.0000 0.0000 0.0000
# 4 0.0000 0.0000 0.0000 29.7288 0.0000 0.0000
# 5 0.0000 0.0000 0.0000 0.0000 29.7288 0.0000
# 6 33.1233 -33.1233 0.0000 0.0000 0.0000 50.2011
#
#
#
# Elastic Compliance Matrix: (Units=1/GPa)
#
#
# Indices 1 2 3 4 5 6 
#
# 1 0.004596 0.001429 -0.001474 0.000000 0.000000 -0.002090
# 2 0.001429 0.004596 -0.001474 0.000000 0.000000 0.002090
# 3 -0.001474 -0.001474 0.005927 0.000000 0.000000 0.000000
# 4 0.000000 0.000000 0.000000 0.033637 0.000000 0.000000
# 5 0.000000 0.000000 0.000000 0.000000 0.033637 0.000000
# 6 -0.002090 0.002090 0.000000 0.000000 0.000000 0.022677
#
#
# Mechanical properties :
#
#
# Convention : Reuss Voigt Hill
#
# Bulk Modulus (GPa) = 82.76641 84.21644 83.49143
# Shear Modulus (GPa) = 44.58897 70.71804 57.65350
#
# Velocity S-wave (km/s) = 4.29231 5.40558 4.88079
# Velocity P-wave (km/s) = 7.66576 8.58826 8.14009
#
# Compressibility (1/GPa) = 0.01208220
#
# Stress axis : x y z
#
# Youngs Moduli (GPa) = 217.57176 217.57176 168.73242
#
# Poissons Ratio (x) = -0.31094 0.24867
# Poissons Ratio (y) = -0.31094 0.24867
# Poissons Ratio (z) = 0.32064 0.32064
#
# Static dielectric constant tensor:
#      x y z
#    x 2.027070 0.000000 0.000000 
#    y 0.000000 2.027070 0.000000 
#    z 0.000000 0.000000 1.846400 
# 
# From -- ./inp_files/122.got.cif
#   From: 2010.05.17/outbox.cif.g08.bks.cpg/sg85_cif.got.tgz:122.got - 2010.06.03 19:01:16.
