data_PCOD9544564
_publ_section_title
;
Structure prediction by ZEFSAII (Michael W. Deem and Ramdas Pophale) SiO2 
 PCOD9544564
Probable space group: P 4/N
;
_chemical_formula_sum "Si O2"
_cell_formula_units_Z 58
_cell_length_a 12.176914
_cell_length_b 12.176914
_cell_length_c 19.840418
_cell_angle_alpha 90.000000
_cell_angle_beta 90.000000
_cell_angle_gamma 90.000000
_cell_volume 2941.882314
_symmetry_space_group_name_H-M "P 4/N"
_symmetry_group_IT_number 85
_symmetry_cell_setting 'tetragonal'
loop_
_space_group_symop_operation_xyz
x,y,z
1/2-y,x,z
1/2-x,1/2-y,z
y,1/2-x,z
-x,-y,-z
1/2+y,-x,-z
1/2+x,1/2+y,-z
-y,1/2+x,-z
loop_
_atom_site_type_symbol
_atom_site_label
_atom_site_fract_x
_atom_site_fract_y
_atom_site_fract_z
Si Si1 0.525997 0.388422 0.137674
Si Si2 0.578464 0.317553 0.995726
Si Si3 0.750000 0.750000 0.183167
Si Si4 0.495782 0.735747 0.150177
Si Si5 0.243466 0.875603 0.334863
Si Si6 0.445996 0.645372 0.439031
Si Si7 0.150910 0.955211 0.204136
Si Si8 0.951392 0.398984 0.584950
O O1 0.514092 0.374233 0.056958
O O2 0.639671 0.452829 0.149514
O O3 0.540336 0.266510 0.166155
O O4 0.427873 0.450479 0.175152
O O5 0.693248 0.383177 0.985054
O O6 0.510599 0.308256 0.927055
O O7 0.616721 0.727281 0.178991
O O8 0.411801 0.658499 0.189970
O O9 0.250000 0.750000 0.308314
O O10 0.171484 0.868760 0.402901
O O11 0.182913 0.954215 0.282622
O O12 0.366180 0.910492 0.353978
O O13 0.437970 0.611326 0.517046
O O14 0.478029 0.771116 0.427044
O O15 0.531110 0.560717 0.406323
#
# Coordination Sequence:
#
# PCOD9544564 Si02
#       8
#     8   8   2   8   8   8   8   8
#     4  11  24  41  67  90 129 176 217 271 328 400
#     4   9  18  36  66  96 123 170 219 264 328 403
#     4  12  24  40  64 104 116 160 208 292 326 384
#     4  11  22  43  66  94 130 165 219 272 341 390
#     4  10  22  39  66  91 123 172 221 257 322 395
#     4  10  20  37  62  95 129 166 211 271 315 377
#     4  12  25  42  64  93 133 172 219 268 330 405
#     4  10  20  37  64  94 129 166 217 264 321 378
#
# _framework density 19.715267999999998
#
# number of rings (size 3 to 8) (size 9 to 14) (size 15 to 20)
#    0.000    1.517    4.138    1.241    1.931    2.207 
#    0.000    0.000    0.000    0.414    0.000    0.000 
#    0.000    0.000    0.000    0.000    0.000    0.000 
#
# Total GULP energy -323555.002107 kJ/mol
# GULP energy per Si atom -5578.534519 kJ/mol
# Density = 1.967039 g / cm^3
# Si number density = 19.715268 Si / 1000 Ang^3
#
#
#
# Elastic Constant Matrix: (Units=GPa)
#
#
# Indices 1 2 3 4 5 6 
#
# 1 100.6330 46.9678 20.1365 0.0000 0.0000 -4.6829
# 2 46.9678 100.6330 20.1365 0.0000 0.0000 4.6829
# 3 20.1365 20.1365 48.0753 0.0000 0.0000 0.0000
# 4 0.0000 0.0000 0.0000 20.1596 0.0000 0.0000
# 5 0.0000 0.0000 0.0000 0.0000 20.1596 0.0000
# 6 -4.6829 4.6829 0.0000 0.0000 0.0000 37.4270
#
#
#
# Elastic Compliance Matrix: (Units=1/GPa)
#
#
# Indices 1 2 3 4 5 6 
#
# 1 0.013350 -0.005700 -0.003204 0.000000 0.000000 0.002384
# 2 -0.005700 0.013350 -0.003204 0.000000 0.000000 -0.002384
# 3 -0.003204 -0.003204 0.023485 0.000000 0.000000 0.000000
# 4 0.000000 0.000000 0.000000 0.049604 0.000000 0.000000
# 5 0.000000 0.000000 0.000000 0.000000 0.049604 0.000000
# 6 0.002384 -0.002384 0.000000 0.000000 0.000000 0.027315
#
#
# Mechanical properties :
#
#
# Convention : Reuss Voigt Hill
#
# Bulk Modulus (GPa) = 38.50973 47.09144 42.80058
# Shear Modulus (GPa) = 23.85730 26.35595 25.10662
#
# Velocity S-wave (km/s) = 3.48241 3.66023 3.57243
# Velocity P-wave (km/s) = 5.97871 6.46535 6.22678
#
# Compressibility (1/GPa) = 0.02596747
#
# Stress axis : x y z
#
# Youngs Moduli (GPa) = 74.90852 74.90852 42.58110
#
# Poissons Ratio (x) = 0.42701 0.13643
# Poissons Ratio (y) = 0.42701 0.13643
# Poissons Ratio (z) = 0.24000 0.24000
#
# Static dielectric constant tensor:
#      x y z
#    x 1.671150 0.000000 0.000000 
#    y 0.000000 1.671150 0.000000 
#    z 0.000000 0.000000 1.739410 
# 
# From -- ./inp_files/2275.got.cif
#   From: 2010.05.17/outbox.cif.g08.bks.cpg/sg85_cif.got.tgz:2275.got - 2010.06.03 19:01:16.
