data_PCOD9544929
_publ_section_title
;
Structure prediction by ZEFSAII (Michael W. Deem and Ramdas Pophale) SiO2 
 PCOD9544929
Probable space group: P 42/N
;
_chemical_formula_sum "Si O2"
_cell_formula_units_Z 50
_cell_length_a 11.980927
_cell_length_b 11.980927
_cell_length_c 18.574831
_cell_angle_alpha 90.000000
_cell_angle_beta 90.000000
_cell_angle_gamma 90.000000
_cell_volume 2666.279755
_symmetry_space_group_name_H-M "P 42/N"
_symmetry_group_IT_number 86
_space_group.IT_coordinate_system_code '2'
_symmetry_cell_setting 'tetragonal'
loop_
_space_group_symop_operation_xyz
x,y,z
-y,1/2+x,1/2+z
1/2-x,1/2-y,z
1/2+y,-x,1/2+z
-x,-y,-z
y,1/2-x,1/2-z
1/2+x,1/2+y,-z
1/2-y,x,1/2-z
loop_
_atom_site_type_symbol
_atom_site_label
_atom_site_fract_x
_atom_site_fract_y
_atom_site_fract_z
Si Si1 0.419672 0.924896 0.948625
Si Si2 0.750000 0.250000 0.232392
Si Si3 0.511837 0.262766 0.669403
Si Si4 0.604721 0.918664 0.834628
Si Si5 0.698113 0.422642 0.858193
Si Si6 0.953461 0.526374 0.283276
Si Si7 0.750000 0.750000 0.750000
Si Si8 0.750000 0.250000 0.478270
O O1 0.331519 0.001297 0.904110
O O2 0.506782 0.882968 0.888283
O O3 0.345612 0.823883 0.981697
O O4 0.500000 0.000000 0.000000
O O5 0.758419 0.142963 0.182361
O O6 0.646206 0.234774 0.286682
O O7 0.477770 0.339488 0.737186
O O8 0.457415 0.142742 0.675927
O O9 0.655841 0.811601 0.796000
O O10 0.707482 0.984538 0.870995
O O11 0.548405 0.002804 0.776796
O O12 0.576301 0.465676 0.837951
O O13 0.692329 0.339149 0.924969
#
# Coordination Sequence:
#
# PCOD9544929 Si02
#       8
#     8   4   8   8   8   8   2   4
#     4  11  24  41  62  87 124 176 221 258 304 394
#     4   9  17  32  60  92 113 151 204 252 312 361
#     4  10  21  36  61  89 127 159 203 267 318 388
#     4  11  21  39  62  93 130 160 205 269 331 385
#     4  10  19  35  63  90 124 160 206 262 311 383
#     4  10  21  36  61  97 123 157 206 267 334 376
#     4  12  24  36  64 100 128 148 188 286 352 360
#     4  11  23  42  64  86 123 181 226 250 308 385
#
# _framework density 18.752721999999999
#
# number of rings (size 3 to 8) (size 9 to 14) (size 15 to 20)
#    0.000    1.600    4.800    0.480    0.000    1.600 
#    0.000    2.400    0.000    0.000    0.000    0.000 
#    0.000    0.000    0.000    0.000    0.000    0.000 
#
# Total GULP energy -278775.896022 kJ/mol
# GULP energy per Si atom -5575.517920 kJ/mol
# Density = 1.871004 g / cm^3
# Si number density = 18.752722 Si / 1000 Ang^3
#
#
#
# Elastic Constant Matrix: (Units=GPa)
#
#
# Indices 1 2 3 4 5 6 
#
# 1 112.9582 44.6140 44.8881 0.0000 0.0000 -10.7974
# 2 44.6140 112.9582 44.8881 0.0000 0.0000 10.7974
# 3 44.8881 44.8881 81.5768 0.0000 0.0000 0.0000
# 4 0.0000 0.0000 0.0000 12.8955 0.0000 0.0000
# 5 0.0000 0.0000 0.0000 0.0000 12.8955 0.0000
# 6 -10.7974 10.7974 0.0000 0.0000 0.0000 30.4775
#
#
#
# Elastic Compliance Matrix: (Units=1/GPa)
#
#
# Indices 1 2 3 4 5 6 
#
# 1 0.012860 -0.003616 -0.005087 0.000000 0.000000 0.005837
# 2 -0.003616 0.012860 -0.005087 0.000000 0.000000 -0.005837
# 3 -0.005087 -0.005087 0.017857 0.000000 0.000000 0.000000
# 4 0.000000 0.000000 0.000000 0.077546 0.000000 0.000000
# 5 0.000000 0.000000 0.000000 0.000000 0.077546 0.000000
# 6 0.005837 -0.005837 0.000000 0.000000 0.000000 0.036947
#
#
# Mechanical properties :
#
#
# Convention : Reuss Voigt Hill
#
# Bulk Modulus (GPa) = 62.50720 64.03042 63.26881
# Shear Modulus (GPa) = 18.62001 22.79391 20.70696
#
# Velocity S-wave (km/s) = 3.15449 3.49018 3.32657
# Velocity P-wave (km/s) = 6.83172 7.10356 6.96897
#
# Compressibility (1/GPa) = 0.01599816
#
# Stress axis : x y z
#
# Youngs Moduli (GPa) = 77.75838 77.75838 56.00189
#
# Poissons Ratio (x) = 0.28116 0.28487
# Poissons Ratio (y) = 0.28116 0.28487
# Poissons Ratio (z) = 0.39555 0.39555
#
# Static dielectric constant tensor:
#      x y z
#    x 1.663600 0.000000 0.000000 
#    y 0.000000 1.663600 0.000000 
#    z 0.000000 0.000000 1.670950 
# 
# From -- ./inp_files/4167.got.cif
#   From: 2010.05.17/outbox.cif.g08.bks.cpg/sg86_3_cif.got.tgz:4167.got - 2010.06.03 19:03:11.
