data_PCOD9544936
_publ_section_title
;
Structure prediction by ZEFSAII (Michael W. Deem and Ramdas Pophale) SiO2 
 PCOD9544936
Probable space group: P 42/N
;
_chemical_formula_sum "Si O2"
_cell_formula_units_Z 42
_cell_length_a 19.350409
_cell_length_b 19.350409
_cell_length_c 6.489348
_cell_angle_alpha 90.000000
_cell_angle_beta 90.000000
_cell_angle_gamma 90.000000
_cell_volume 2429.860618
_symmetry_space_group_name_H-M "P 42/N"
_symmetry_group_IT_number 86
_space_group.IT_coordinate_system_code '2'
_symmetry_cell_setting 'tetragonal'
loop_
_space_group_symop_operation_xyz
x,y,z
-y,1/2+x,1/2+z
1/2-x,1/2-y,z
1/2+y,-x,1/2+z
-x,-y,-z
y,1/2-x,1/2-z
1/2+x,1/2+y,-z
1/2-y,x,1/2-z
loop_
_atom_site_type_symbol
_atom_site_label
_atom_site_fract_x
_atom_site_fract_y
_atom_site_fract_z
Si Si1 0.143883 0.157653 0.567670
Si Si2 0.100679 0.068458 0.954514
Si Si3 0.842723 0.512691 0.767262
Si Si4 0.250000 0.250000 0.750000
Si Si5 0.527484 0.809370 0.835471
Si Si6 0.567718 0.464803 0.398654
O O1 0.075165 0.165877 0.431832
O O2 0.186305 0.226502 0.609465
O O3 0.191701 0.101369 0.452178
O O4 0.124444 0.124259 0.786174
O O5 0.043073 0.105761 0.093591
O O6 0.159751 0.043260 0.110486
O O7 0.077181 0.003307 0.819132
O O8 0.767153 0.497142 0.679505
O O9 0.884552 0.450004 0.869886
O O10 0.482656 0.865903 0.961222
O O11 0.500000 0.500000 0.500000
#
# Coordination Sequence:
#
# PCOD9544936 Si02
#       6
#     8   8   8   2   8   8
#     4  10  21  34  49  77 113 155 196 210 261 342
#     4  10  19  36  60  79 113 154 185 231 277 323
#     4  11  21  35  57  81 113 146 188 243 276 331
#     4  12  20  32  50  72 124 166 168 216 266 316
#     4  10  22  35  53  86 110 144 193 231 286 332
#     4  11  20  39  58  84 111 144 199 234 278 346
#
# _framework density 17.284942999999998
#
# number of rings (size 3 to 8) (size 9 to 14) (size 15 to 20)
#    0.000    1.524    5.714    2.857    0.000    3.048 
#    0.000    3.810    0.000    0.000    0.000    4.000 
#    0.000    0.000    0.000    0.000    0.000    0.000 
#
# Total GULP energy -234429.880231 kJ/mol
# GULP energy per Si atom -5581.663815 kJ/mol
# Density = 1.724560 g / cm^3
# Si number density = 17.284943 Si / 1000 Ang^3
#
#
#
# Elastic Constant Matrix: (Units=GPa)
#
#
# Indices 1 2 3 4 5 6 
#
# 1 88.0476 47.0604 27.6253 0.0000 0.0000 -7.3884
# 2 47.0604 88.0476 27.6253 0.0000 0.0000 7.3884
# 3 27.6253 27.6253 92.0387 0.0000 0.0000 0.0000
# 4 0.0000 0.0000 0.0000 14.3985 0.0000 0.0000
# 5 0.0000 0.0000 0.0000 0.0000 14.3985 0.0000
# 6 -7.3884 7.3884 0.0000 0.0000 0.0000 30.1609
#
#
#
# Elastic Compliance Matrix: (Units=1/GPa)
#
#
# Indices 1 2 3 4 5 6 
#
# 1 0.017599 -0.009162 -0.002532 0.000000 0.000000 0.006556
# 2 -0.009162 0.017599 -0.002532 0.000000 0.000000 -0.006556
# 3 -0.002532 -0.002532 0.012385 0.000000 0.000000 0.000000
# 4 0.000000 0.000000 0.000000 0.069451 0.000000 0.000000
# 5 0.000000 0.000000 0.000000 0.000000 0.069451 0.000000
# 6 0.006556 -0.006556 0.000000 0.000000 0.000000 0.036367
#
#
# Mechanical properties :
#
#
# Convention : Reuss Voigt Hill
#
# Bulk Modulus (GPa) = 52.27446 52.52846 52.40146
# Shear Modulus (GPa) = 19.40359 22.84644 21.12502
#
# Velocity S-wave (km/s) = 3.35412 3.63954 3.49974
# Velocity P-wave (km/s) = 6.73116 6.93667 6.83469
#
# Compressibility (1/GPa) = 0.01912980
#
# Stress axis : x y z
#
# Youngs Moduli (GPa) = 56.82079 56.82079 80.74164
#
# Poissons Ratio (x) = 0.52060 0.20447
# Poissons Ratio (y) = 0.52060 0.20447
# Poissons Ratio (z) = 0.14389 0.14389
#
# Static dielectric constant tensor:
#      x y z
#    x 1.600470 0.000000 0.000000 
#    y 0.000000 1.600470 0.000000 
#    z 0.000000 0.000000 1.615340 
# 
# From -- ./inp_files/399.got.cif
#   From: 2010.05.17/outbox.cif.g08.bks.cpg/sg86_1_cif.got.tgz:399.got - 2010.06.03 19:03:11.
