data_PCOD9544000
_publ_section_title
;
Structure prediction by ZEFSAII (Michael W. Deem and Ramdas Pophale) SiO2 
 PCOD9544000
Probable space group: P 42/M
;
_chemical_formula_sum "Si O2"
_cell_formula_units_Z 64
_cell_length_a 20.646144
_cell_length_b 20.646144
_cell_length_c 7.551112
_cell_angle_alpha 90.000000
_cell_angle_beta 90.000000
_cell_angle_gamma 90.000000
_cell_volume 3218.761633
_symmetry_space_group_name_H-M "P 42/M"
_symmetry_group_IT_number 84
_symmetry_cell_setting 'tetragonal'
loop_
_space_group_symop_operation_xyz
x,y,z
-y,x,1/2+z
-x,-y,z
y,-x,1/2+z
-x,-y,-z
y,-x,1/2-z
x,y,-z
-y,x,1/2-z
loop_
_atom_site_type_symbol
_atom_site_label
_atom_site_fract_x
_atom_site_fract_y
_atom_site_fract_z
Si Si1 0.298967 0.213834 0.217058
Si Si2 0.773114 0.664974 0.200498
Si Si3 0.749568 0.104327 0.788320
Si Si4 0.129669 0.435406 0.209098
Si Si5 0.178509 0.126388 0.787758
Si Si6 0.986700 0.100649 0.700631
Si Si7 0.874563 0.413697 0.714350
Si Si8 0.993493 0.649292 0.295534
O O1 0.280158 0.286129 0.280021
O O2 0.243657 0.162211 0.274824
O O3 0.367965 0.184947 0.268991
O O4 0.295926 0.215781 0.000000
O O5 0.836191 0.711578 0.199581
O O6 0.805281 0.600259 0.280333
O O7 0.752102 0.649580 0.000000
O O8 0.823682 0.120280 0.753613
O O9 0.714912 0.039056 0.723612
O O10 0.738669 0.108382 0.000000
O O11 0.130544 0.511947 0.232021
O O12 0.064935 0.403140 0.288854
O O13 0.126749 0.420784 0.000000
O O14 0.160201 0.054780 0.723395
O O15 0.183713 0.120482 0.000000
O O16 0.008661 0.115197 0.500000
O O17 0.043636 0.067371 0.807503
O O18 0.876618 0.413544 0.500000
O O19 0.941462 0.381225 0.781580
O O20 0.009577 0.663729 0.500000
#
# Coordination Sequence:
#
# PCOD9544000 Si02
#       8
#     8   8   8   8   8   8   8   8
#     4   8  15  30  49  65  83 112 147 177 210 256
#     4   8  15  30  48  62  82 115 152 183 212 254
#     4   9  16  26  43  65  86 111 147 186 218 252
#     4  10  19  30  46  66  89 120 154 185 217 257
#     4   9  18  32  48  64  84 113 146 179 222 276
#     4  10  20  33  48  63  80 103 135 180 229 275
#     4  10  19  30  45  65  91 119 147 182 220 260
#     4   9  18  30  43  63  91 122 154 185 217 255
#
# _framework density 19.883424000000002
#
# number of rings (size 3 to 8) (size 9 to 14) (size 15 to 20)
#    0.000    2.875    0.000    2.625    0.000    5.000 
#    0.000    5.000    0.000    0.000    0.000    0.000 
#    0.000    0.500    0.000    6.250    0.000    0.000 
#
# Total GULP energy -356749.026456 kJ/mol
# GULP energy per Si atom -5574.203538 kJ/mol
# Density = 1.983817 g / cm^3
# Si number density = 19.883424 Si / 1000 Ang^3
#
#
#
# Elastic Constant Matrix: (Units=GPa)
#
#
# Indices 1 2 3 4 5 6 
#
# 1 64.5211 56.7840 -7.4323 0.0000 0.0000 -4.6542
# 2 56.7840 64.5211 -7.4323 0.0000 0.0000 4.6542
# 3 -7.4323 -7.4323 54.3037 0.0000 0.0000 0.0000
# 4 0.0000 0.0000 0.0000 17.3192 0.0000 0.0000
# 5 0.0000 0.0000 0.0000 0.0000 17.3192 0.0000
# 6 -4.6542 4.6542 0.0000 0.0000 0.0000 23.1405
#
#
#
# Elastic Compliance Matrix: (Units=1/GPa)
#
#
# Indices 1 2 3 4 5 6 
#
# 1 0.089445 -0.081061 0.001148 0.000000 0.000000 0.034293
# 2 -0.081061 0.089445 0.001148 0.000000 0.000000 -0.034293
# 3 0.001148 0.001148 0.018729 0.000000 0.000000 0.000000
# 4 0.000000 0.000000 0.000000 0.057739 0.000000 0.000000
# 5 0.000000 0.000000 0.000000 0.000000 0.057739 0.000000
# 6 0.034293 -0.034293 0.000000 0.000000 0.000000 0.057009
#
#
# Mechanical properties :
#
#
# Convention : Reuss Voigt Hill
#
# Bulk Modulus (GPa) = 24.94530 29.68720 27.31625
# Shear Modulus (GPa) = 9.24214 20.98422 15.11318
#
# Velocity S-wave (km/s) = 2.15830 3.25216 2.75996
# Velocity P-wave (km/s) = 4.33405 5.39121 4.89127
#
# Compressibility (1/GPa) = 0.04008771
#
# Stress axis : x y z
#
# Youngs Moduli (GPa) = 11.18006 11.18006 53.39293
#
# Poissons Ratio (x) = 0.90626 -0.06127
# Poissons Ratio (y) = 0.90626 -0.06127
# Poissons Ratio (z) = -0.01283 -0.01283
#
# Static dielectric constant tensor:
#      x y z
#    x 1.728320 0.000000 0.000000 
#    y 0.000000 1.728320 0.000000 
#    z 0.000000 0.000000 1.793210 
# 
# From -- ./inp_files/1378.got.cif
#   From: 2010.05.17/outbox.cif.g08.bks.cpg/sg84_1_cif.got.tgz:1378.got - 2010.06.03 18:57:40.
