data_PCOD9544873
_publ_section_title
;
Structure prediction by ZEFSAII (Michael W. Deem and Ramdas Pophale) SiO2 
 PCOD9544873
Probable space group: P 42/N
;
_chemical_formula_sum "Si O2"
_cell_formula_units_Z 46
_cell_length_a 11.803601
_cell_length_b 11.803601
_cell_length_c 16.947565
_cell_angle_alpha 90.000000
_cell_angle_beta 90.000000
_cell_angle_gamma 90.000000
_cell_volume 2361.219435
_symmetry_space_group_name_H-M "P 42/N"
_symmetry_group_IT_number 86
_space_group.IT_coordinate_system_code '2'
_symmetry_cell_setting 'tetragonal'
loop_
_space_group_symop_operation_xyz
x,y,z
-y,1/2+x,1/2+z
1/2-x,1/2-y,z
1/2+y,-x,1/2+z
-x,-y,-z
y,1/2-x,1/2-z
1/2+x,1/2+y,-z
1/2-y,x,1/2-z
loop_
_atom_site_type_symbol
_atom_site_label
_atom_site_fract_x
_atom_site_fract_y
_atom_site_fract_z
Si Si1 0.250000 0.750000 0.976497
Si Si2 0.069783 0.959549 0.244972
Si Si3 0.135579 0.523438 0.485228
Si Si4 0.326802 0.944489 0.297714
Si Si5 0.750000 0.750000 0.250000
Si Si6 0.768173 0.445553 0.144882
Si Si7 0.402885 0.350636 0.872775
O O1 0.356180 0.686451 0.015491
O O2 0.204427 0.647199 0.921576
O O3 0.203246 0.950119 0.260243
O O4 0.017359 0.882155 0.313615
O O5 0.015158 0.907513 0.165345
O O6 0.027367 0.087547 0.246626
O O7 0.164901 0.523441 0.391859
O O8 0.194469 0.430884 0.540914
O O9 0.000000 0.500000 0.500000
O O10 0.378149 0.817229 0.296172
O O11 0.735341 0.855585 0.308164
O O12 0.692655 0.551680 0.118881
#
# Coordination Sequence:
#
# PCOD9544873 Si02
#       7
#     4   8   8   8   2   8   8
#     4  10  18  34  64  90 122 166 202 260 322 384
#     4  11  19  37  58  94 120 163 208 257 309 379
#     4  11  19  39  62  94 122 169 211 263 325 380
#     4  10  22  35  64  89 125 167 209 262 318 385
#     4  12  24  40  60  96 116 162 204 268 332 364
#     4  10  17  35  61  87 115 159 205 260 307 365
#     4  11  23  37  65  88 124 158 210 258 318 392
#
# _framework density 19.481459000000001
#
# number of rings (size 3 to 8) (size 9 to 14) (size 15 to 20)
#    0.000    1.391   10.435    0.000    0.000    0.348 
#    3.130    1.739    0.000    4.174    0.000    0.000 
#    0.000    0.000    0.000    0.000    0.000    0.000 
#
# Total GULP energy -256077.267372 kJ/mol
# GULP energy per Si atom -5566.897117 kJ/mol
# Density = 1.943712 g / cm^3
# Si number density = 19.481459 Si / 1000 Ang^3
#
#
#
# Elastic Constant Matrix: (Units=GPa)
#
#
# Indices 1 2 3 4 5 6 
#
# 1 94.4979 38.8626 31.7659 0.0000 0.0000 6.8648
# 2 38.8626 94.4979 31.7659 0.0000 0.0000 -6.8648
# 3 31.7659 31.7659 74.2562 0.0000 0.0000 0.0000
# 4 0.0000 0.0000 0.0000 23.4689 0.0000 0.0000
# 5 0.0000 0.0000 0.0000 0.0000 23.4689 0.0000
# 6 6.8648 -6.8648 0.0000 0.0000 0.0000 37.2210
#
#
#
# Elastic Compliance Matrix: (Units=1/GPa)
#
#
# Indices 1 2 3 4 5 6 
#
# 1 0.014125 -0.004707 -0.004029 0.000000 0.000000 -0.003473
# 2 -0.004707 0.014125 -0.004029 0.000000 0.000000 0.003473
# 3 -0.004029 -0.004029 0.016914 0.000000 0.000000 0.000000
# 4 0.000000 0.000000 0.000000 0.042610 0.000000 0.000000
# 5 0.000000 0.000000 0.000000 0.000000 0.042610 0.000000
# 6 -0.003473 0.003473 0.000000 0.000000 0.000000 0.028148
#
#
# Mechanical properties :
#
#
# Convention : Reuss Voigt Hill
#
# Bulk Modulus (GPa) = 50.93170 52.00454 51.46812
# Shear Modulus (GPa) = 26.23251 27.55560 26.89406
#
# Velocity S-wave (km/s) = 3.67350 3.76500 3.71953
# Velocity P-wave (km/s) = 6.64780 6.75667 6.70246
#
# Compressibility (1/GPa) = 0.01963414
#
# Stress axis : x y z
#
# Youngs Moduli (GPa) = 70.79892 70.79892 59.12324
#
# Poissons Ratio (x) = 0.33323 0.23820
# Poissons Ratio (y) = 0.33323 0.23820
# Poissons Ratio (z) = 0.28523 0.28523
#
# Static dielectric constant tensor:
#      x y z
#    x 1.730020 0.000000 0.000000 
#    y 0.000000 1.730020 0.000000 
#    z 0.000000 0.000000 1.738910 
# 
# From -- ./inp_files/3618.got.cif
#   From: 2010.05.17/outbox.cif.g08.bks.cpg/sg86_2_cif.got.tgz:3618.got - 2010.06.03 19:03:11.
