data_PCOD9544199
_publ_section_title
;
Structure prediction by ZEFSAII (Michael W. Deem and Ramdas Pophale) SiO2 
 PCOD9544199
Probable space group: P 42/M
;
_chemical_formula_sum "Si O2"
_cell_formula_units_Z 40
_cell_length_a 9.112473
_cell_length_b 9.112473
_cell_length_c 21.746086
_cell_angle_alpha 90.000000
_cell_angle_beta 90.000000
_cell_angle_gamma 90.000000
_cell_volume 1805.733313
_symmetry_space_group_name_H-M "P 42/M"
_symmetry_group_IT_number 84
_symmetry_cell_setting 'tetragonal'
loop_
_space_group_symop_operation_xyz
x,y,z
-y,x,1/2+z
-x,-y,z
y,-x,1/2+z
-x,-y,-z
y,-x,1/2-z
x,y,-z
-y,x,1/2-z
loop_
_atom_site_type_symbol
_atom_site_label
_atom_site_fract_x
_atom_site_fract_y
_atom_site_fract_z
Si Si1 0.721198 0.613865 0.750154
Si Si2 0.338095 0.941257 0.358354
Si Si3 0.267741 0.198335 0.069097
Si Si4 0.130274 0.151161 0.429250
Si Si5 0.442384 0.834844 0.880709
O O1 0.688684 0.438724 0.759958
O O2 0.825663 0.685591 0.802391
O O3 0.810512 0.618026 0.686862
O O4 0.326821 0.847192 0.420731
O O5 0.500000 0.000000 0.348248
O O6 0.215910 0.063386 0.375533
O O7 0.407744 0.248785 0.108013
O O8 0.185149 0.043040 0.085672
O O9 0.317403 0.176104 0.000000
O O10 0.139219 0.093453 0.500000
O O11 0.198719 0.313492 0.427398
O O12 0.500000 0.000000 0.889789
#
# Coordination Sequence:
#
# PCOD9544199 Si02
#       5
#     8   8   8   8   8
#     4  11  23  42  66  88 125 172 224 275 333 399
#     4  12  24  40  64  98 132 172 214 274 336 384
#     4  10  21  41  68  98 135 180 222 263 321 391
#     4  10  22  41  67 100 139 174 215 269 325 388
#     4  10  20  39  66  95 129 176 228 269 316 382
#
# _framework density 22.151667
#
# number of rings (size 3 to 8) (size 9 to 14) (size 15 to 20)
#    0.000    1.400    2.000    3.600    0.000    5.600 
#    0.000    0.000    0.000    3.600    0.000    0.000 
#    0.000    0.000    0.000    0.000    0.000    0.000 
#
# Total GULP energy -222694.654925 kJ/mol
# GULP energy per Si atom -5567.366373 kJ/mol
# Density = 2.210125 g / cm^3
# Si number density = 22.151667 Si / 1000 Ang^3
#
#
#
# Elastic Constant Matrix: (Units=GPa)
#
#
# Indices 1 2 3 4 5 6 
#
# 1 47.8845 31.8418 34.3984 0.0000 0.0000 -2.3681
# 2 31.8418 47.8845 34.3984 0.0000 0.0000 2.3681
# 3 34.3984 34.3984 107.9187 0.0000 0.0000 0.0000
# 4 0.0000 0.0000 0.0000 26.7374 0.0000 0.0000
# 5 0.0000 0.0000 0.0000 0.0000 26.7374 0.0000
# 6 -2.3681 2.3681 0.0000 0.0000 0.0000 30.1492
#
#
#
# Elastic Compliance Matrix: (Units=1/GPa)
#
#
# Indices 1 2 3 4 5 6 
#
# 1 0.040558 -0.023256 -0.005515 0.000000 0.000000 0.005012
# 2 -0.023256 0.040558 -0.005515 0.000000 0.000000 -0.005012
# 3 -0.005515 -0.005515 0.012782 0.000000 0.000000 0.000000
# 4 0.000000 0.000000 0.000000 0.037401 0.000000 0.000000
# 5 0.000000 0.000000 0.000000 0.000000 0.037401 0.000000
# 6 0.005012 -0.005012 0.000000 0.000000 0.000000 0.033956
#
#
# Mechanical properties :
#
#
# Convention : Reuss Voigt Hill
#
# Bulk Modulus (GPa) = 39.48503 44.99607 42.24055
# Shear Modulus (GPa) = 17.87840 23.59474 20.73657
#
# Velocity S-wave (km/s) = 2.84402 3.26720 3.06292
# Velocity P-wave (km/s) = 5.35239 5.88129 5.62306
#
# Compressibility (1/GPa) = 0.02532605
#
# Stress axis : x y z
#
# Youngs Moduli (GPa) = 24.65635 24.65635 78.23589
#
# Poissons Ratio (x) = 0.57340 0.43146
# Poissons Ratio (y) = 0.57340 0.43146
# Poissons Ratio (z) = 0.13598 0.13598
#
# Static dielectric constant tensor:
#      x y z
#    x 1.909260 0.000000 0.000000 
#    y 0.000000 1.909260 0.000000 
#    z 0.000000 0.000000 1.760230 
# 
# From -- ./inp_files/4786.got.cif
#   From: 2010.05.17/outbox.cif.g08.bks.cpg/sg84_3_cif.got.tgz:4786.got - 2010.06.03 18:57:40.
