data_PCOD9544141
_publ_section_title
;
Structure prediction by ZEFSAII (Michael W. Deem and Ramdas Pophale) SiO2 
 PCOD9544141
Probable space group: P 42/M
;
_chemical_formula_sum "Si O2"
_cell_formula_units_Z 60
_cell_length_a 12.585184
_cell_length_b 12.585184
_cell_length_c 19.611396
_cell_angle_alpha 90.000000
_cell_angle_beta 90.000000
_cell_angle_gamma 90.000000
_cell_volume 3106.187360
_symmetry_space_group_name_H-M "P 42/M"
_symmetry_group_IT_number 84
_symmetry_cell_setting 'tetragonal'
loop_
_space_group_symop_operation_xyz
x,y,z
-y,x,1/2+z
-x,-y,z
y,-x,1/2+z
-x,-y,-z
y,-x,1/2-z
x,y,-z
-y,x,1/2-z
loop_
_atom_site_type_symbol
_atom_site_label
_atom_site_fract_x
_atom_site_fract_y
_atom_site_fract_z
Si Si1 0.315399 0.206680 0.579000
Si Si2 0.834402 0.058926 0.252745
Si Si3 0.500000 0.000000 0.217897
Si Si4 0.380517 0.547673 0.577355
Si Si5 0.212905 0.438421 0.920845
Si Si6 0.345868 0.987628 0.657896
Si Si7 0.342323 0.834080 0.828487
Si Si8 0.558016 0.352911 0.779519
O O1 0.290000 0.194445 0.500000
O O2 0.437575 0.242486 0.586032
O O3 0.237970 0.293955 0.611674
O O4 0.317729 0.091151 0.614287
O O5 0.764071 0.065753 0.320119
O O6 0.757483 0.095117 0.192694
O O7 0.938144 0.129941 0.255722
O O8 0.406208 0.026253 0.272748
O O9 0.446510 0.908961 0.171200
O O10 0.500000 0.500000 0.574686
O O11 0.336615 0.529001 0.500000
O O12 0.379694 0.674723 0.591061
O O13 0.335689 0.491903 0.645326
O O14 0.106635 0.412472 0.878089
O O15 0.183878 0.420061 0.000000
O O16 0.371007 0.750001 0.768101
O O17 0.459845 0.372924 0.728548
#
# Coordination Sequence:
#
# PCOD9544141 Si02
#       8
#     8   8   4   8   8   8   8   8
#     4  11  22  38  63  93 125 163 207 254 309 374
#     4  10  22  40  62  89 118 153 201 261 312 370
#     4  10  24  38  58  90 126 158 202 262 304 372
#     4  10  20  36  53  77 119 168 205 239 291 361
#     4  10  21  36  59  92 127 159 202 250 305 371
#     4  11  20  37  64  93 126 157 198 260 323 369
#     4  11  25  40  61  88 124 164 206 252 314 373
#     4  11  24  35  55  88 125 161 206 249 293 365
#
# _framework density 19.316286000000002
#
# number of rings (size 3 to 8) (size 9 to 14) (size 15 to 20)
#    0.000    1.467    4.000    1.200    5.600    2.667 
#    0.000    0.333    0.000    2.400    0.000    0.000 
#    0.000    0.000    0.000    0.000    0.000    0.000 
#
# Total GULP energy -334359.261523 kJ/mol
# GULP energy per Si atom -5572.654359 kJ/mol
# Density = 1.927232 g / cm^3
# Si number density = 19.316286 Si / 1000 Ang^3
#
#
#
# Elastic Constant Matrix: (Units=GPa)
#
#
# Indices 1 2 3 4 5 6 
#
# 1 67.6792 42.3733 34.7011 0.0000 0.0000 -19.2326
# 2 42.3733 67.6792 34.7011 0.0000 0.0000 19.2326
# 3 34.7011 34.7011 94.4167 0.0000 0.0000 0.0000
# 4 0.0000 0.0000 0.0000 23.1901 0.0000 0.0000
# 5 0.0000 0.0000 0.0000 0.0000 23.1901 0.0000
# 6 -19.2326 19.2326 0.0000 0.0000 0.0000 -3.0631
#
#
#
# Elastic Compliance Matrix: (Units=1/GPa)
#
#
# Indices 1 2 3 4 5 6 
#
# 1 0.007788 0.004040 -0.004347 0.000000 0.000000 -0.023532
# 2 0.004040 0.007788 -0.004347 0.000000 0.000000 0.023532
# 3 -0.004347 -0.004347 0.013787 0.000000 0.000000 0.000000
# 4 0.000000 0.000000 0.000000 0.043122 0.000000 0.000000
# 5 0.000000 0.000000 0.000000 0.000000 0.043122 0.000000
# 6 -0.023532 0.023532 0.000000 0.000000 0.000000 -0.030963
#
#
# Mechanical properties :
#
#
# Convention : Reuss Voigt Hill
#
# Bulk Modulus (GPa) = 49.86498 50.36956 50.11727
# Shear Modulus (GPa) = 49.68350 16.53004 33.10677
#
# Velocity S-wave (km/s) = 5.07709 2.92851 4.14446
# Velocity P-wave (km/s) = 7.76146 6.12925 6.99314
#
# Compressibility (1/GPa) = 0.02005416
#
# Stress axis : x y z
#
# Youngs Moduli (GPa) = 128.40376 128.40376 72.53321
#
# Poissons Ratio (x) = -0.51876 0.31531
# Poissons Ratio (y) = -0.51876 0.31531
# Poissons Ratio (z) = 0.55819 0.55819
#
# Static dielectric constant tensor:
#      x y z
#    x 1.717940 0.000000 0.000000 
#    y 0.000000 1.717940 0.000000 
#    z 0.000000 0.000000 1.716650 
# 
# From -- ./inp_files/4538.got.cif
#   From: 2010.05.17/outbox.cif.g08.bks.cpg/sg84_3_cif.got.tgz:4538.got - 2010.06.03 18:57:40.
