data_PCOD9544231
_publ_section_title
;
Structure prediction by ZEFSAII (Michael W. Deem and Ramdas Pophale) SiO2 
 PCOD9544231
Probable space group: P 42/M
;
_chemical_formula_sum "Si O2"
_cell_formula_units_Z 48
_cell_length_a 8.034360
_cell_length_b 8.034360
_cell_length_c 33.454241
_cell_angle_alpha 90.000000
_cell_angle_beta 90.000000
_cell_angle_gamma 90.000000
_cell_volume 2159.502724
_symmetry_space_group_name_H-M "P 42/M"
_symmetry_group_IT_number 84
_symmetry_cell_setting 'tetragonal'
loop_
_space_group_symop_operation_xyz
x,y,z
-y,x,1/2+z
-x,-y,z
y,-x,1/2+z
-x,-y,-z
y,-x,1/2-z
x,y,-z
-y,x,1/2-z
loop_
_atom_site_type_symbol
_atom_site_label
_atom_site_fract_x
_atom_site_fract_y
_atom_site_fract_z
Si Si1 0.729785 0.740463 0.414058
Si Si2 0.000000 0.000000 0.064856
Si Si3 0.253290 0.905543 0.238681
Si Si4 0.400758 0.755731 0.312558
Si Si5 0.500000 0.000000 0.626509
Si Si6 0.873344 0.235967 0.500000
Si Si7 0.415687 0.753673 0.832419
Si Si8 0.404188 0.758071 0.000000
O O1 0.766316 0.603837 0.380071
O O2 0.693497 0.664633 0.457641
O O3 0.579436 0.856514 0.399929
O O4 0.888112 0.864085 0.413665
O O5 0.110551 0.124822 0.037352
O O6 0.387575 0.823828 0.268054
O O7 0.322528 0.891935 0.193907
O O8 0.086863 0.796805 0.245735
O O9 0.274678 0.605556 0.320388
O O10 0.583068 0.681003 0.320662
O O11 0.372990 0.907048 0.343438
O O12 0.753243 0.394658 0.500000
O O13 0.054041 0.327073 0.500000
#
# Coordination Sequence:
#
# PCOD9544231 Si02
#       8
#     8   4   8   8   4   4   8   4
#     4  10  21  37  58  86 119 156 200 248 300 355
#     4   9  18  34  60  84 111 150 196 244 293 348
#     4  11  23  38  58  87 121 153 192 243 294 347
#     4  10  21  40  61  80 114 157 193 236 294 359
#     4  10  22  39  60  84 118 156 194 247 302 352
#     4   8  16  34  57  82 110 151 196 242 299 355
#     4  10  22  38  59  86 114 152 199 240 291 358
#     4   9  18  35  57  83 118 154 196 247 299 360
#
# _framework density 22.227339000000001
#
# number of rings (size 3 to 8) (size 9 to 14) (size 15 to 20)
#    0.000    2.167    0.000    3.500    0.000    7.667 
#    0.000    5.000    0.000    9.000    0.000    0.000 
#    0.000    0.000    0.000    0.000    0.000    0.000 
#
# Total GULP energy -268106.481304 kJ/mol
# GULP energy per Si atom -5585.551694 kJ/mol
# Density = 2.217675 g / cm^3
# Si number density = 22.227339 Si / 1000 Ang^3
#
#
#
# Elastic Constant Matrix: (Units=GPa)
#
#
# Indices 1 2 3 4 5 6 
#
# 1 80.0298 5.7155 27.2298 0.0000 0.0000 1.2662
# 2 5.7155 80.0298 27.2298 0.0000 0.0000 -1.2662
# 3 27.2298 27.2298 137.7867 0.0000 0.0000 0.0000
# 4 0.0000 0.0000 0.0000 -5.2735 0.0000 0.0000
# 5 0.0000 0.0000 0.0000 0.0000 -5.2735 0.0000
# 6 1.2662 -1.2662 0.0000 0.0000 0.0000 18.0137
#
#
#
# Elastic Compliance Matrix: (Units=1/GPa)
#
#
# Indices 1 2 3 4 5 6 
#
# 1 0.013413 -0.000076 -0.002636 0.000000 0.000000 -0.000948
# 2 -0.000076 0.013413 -0.002636 0.000000 0.000000 0.000948
# 3 -0.002636 -0.002636 0.008299 0.000000 0.000000 0.000000
# 4 0.000000 0.000000 0.000000 -0.189626 0.000000 0.000000
# 5 0.000000 0.000000 0.000000 0.000000 -0.189626 0.000000
# 6 -0.000948 0.000948 0.000000 0.000000 0.000000 0.055647
#
#
# Mechanical properties :
#
#
# Convention : Reuss Voigt Hill
#
# Bulk Modulus (GPa) = 40.93367 46.46626 43.69997
# Shear Modulus (GPa) = -18.54299 17.33807 -0.60246
#
# Velocity S-wave (km/s) = -2.89146 2.79594 -0.52118
# Velocity P-wave (km/s) = 2.70343 5.60120 4.39784
#
# Compressibility (1/GPa) = 0.02442977
#
# Stress axis : x y z
#
# Youngs Moduli (GPa) = 74.55720 74.55720 120.49221
#
# Poissons Ratio (x) = 0.00568 0.31757
# Poissons Ratio (y) = 0.00568 0.31757
# Poissons Ratio (z) = 0.19650 0.19650
#
# Static dielectric constant tensor:
#      x y z
#    x 1.836190 0.000000 0.000000 
#    y 0.000000 1.836190 0.000000 
#    z 0.000000 0.000000 1.821270 
# 
# From -- ./inp_files/5897.got.cif
#   From: 2010.05.17/outbox.cif.g08.bks.cpg/sg84_3_cif.got.tgz:5897.got - 2010.06.03 18:57:40.
