data_PCOD9544049
_publ_section_title
;
Structure prediction by ZEFSAII (Michael W. Deem and Ramdas Pophale) SiO2 
 PCOD9544049
Probable space group: P 42/M
;
_chemical_formula_sum "Si O2"
_cell_formula_units_Z 48
_cell_length_a 17.518305
_cell_length_b 17.518305
_cell_length_c 7.953681
_cell_angle_alpha 90.000000
_cell_angle_beta 90.000000
_cell_angle_gamma 90.000000
_cell_volume 2440.913196
_symmetry_space_group_name_H-M "P 42/M"
_symmetry_group_IT_number 84
_symmetry_cell_setting 'tetragonal'
loop_
_space_group_symop_operation_xyz
x,y,z
-y,x,1/2+z
-x,-y,z
y,-x,1/2+z
-x,-y,-z
y,-x,1/2-z
x,y,-z
-y,x,1/2-z
loop_
_atom_site_type_symbol
_atom_site_label
_atom_site_fract_x
_atom_site_fract_y
_atom_site_fract_z
Si Si1 0.264248 0.281274 0.793486
Si Si2 0.798233 0.989196 0.306412
Si Si3 0.168855 0.424785 0.800768
Si Si4 0.837221 0.143561 0.306194
Si Si5 0.174034 0.594795 0.300279
Si Si6 0.620256 0.002211 0.694072
O O1 0.234962 0.365682 0.741910
O O2 0.194412 0.228849 0.731430
O O3 0.340062 0.234123 0.738668
O O4 0.267598 0.280357 0.000000
O O5 0.818194 0.969719 0.500000
O O6 0.809244 0.913741 0.202065
O O7 0.846806 0.059259 0.235439
O O8 0.710932 0.015282 0.302633
O O9 0.192201 0.511784 0.772843
O O10 0.081219 0.414421 0.731910
O O11 0.160694 0.409404 0.000000
O O12 0.815654 0.129710 0.500000
O O13 0.182304 0.591848 0.500000
O O14 0.083375 0.609044 0.265604
O O15 0.594205 0.996072 0.500000
#
# Coordination Sequence:
#
# PCOD9544049 Si02
#       6
#     8   8   8   8   8   8
#     4   9  18  35  57  76 101 141 176 209 259 318
#     4  10  20  33  52  76 101 135 186 230 258 307
#     4  10  20  37  58  78 105 143 181 211 254 316
#     4  10  19  35  54  72 100 142 184 220 267 312
#     4  11  22  35  54  83 113 137 170 216 268 314
#     4  10  19  33  54  79 106 139 178 216 257 312
#
# _framework density 19.664770000000001
#
# number of rings (size 3 to 8) (size 9 to 14) (size 15 to 20)
#    0.000    2.000    3.333    1.000    0.000    3.667 
#    0.000    4.167    0.000    0.500    0.000    3.500 
#    0.000    0.000    0.000    0.000    0.000    0.000 
#
# Total GULP energy -267266.872756 kJ/mol
# GULP energy per Si atom -5568.059849 kJ/mol
# Density = 1.962001 g / cm^3
# Si number density = 19.664770 Si / 1000 Ang^3
#
#
#
# Elastic Constant Matrix: (Units=GPa)
#
#
# Indices 1 2 3 4 5 6 
#
# 1 81.6834 80.8965 5.9469 0.0000 0.0000 32.7579
# 2 80.8965 81.6834 5.9469 0.0000 0.0000 -32.7579
# 3 5.9469 5.9469 12.5850 0.0000 0.0000 0.0000
# 4 0.0000 0.0000 0.0000 22.3873 0.0000 0.0000
# 5 0.0000 0.0000 0.0000 0.0000 22.3873 0.0000
# 6 32.7579 -32.7579 0.0000 0.0000 0.0000 -5.9895
#
#
#
# Elastic Compliance Matrix: (Units=1/GPa)
#
#
# Indices 1 2 3 4 5 6 
#
# 1 0.004578 0.001793 -0.003011 0.000000 0.000000 0.015230
# 2 0.001793 0.004578 -0.003011 0.000000 0.000000 -0.015230
# 3 -0.003011 -0.003011 0.082305 0.000000 0.000000 0.000000
# 4 0.000000 0.000000 0.000000 0.044668 0.000000 0.000000
# 5 0.000000 0.000000 0.000000 0.000000 0.044668 0.000000
# 6 0.015230 -0.015230 0.000000 0.000000 0.000000 -0.000366
#
#
# Mechanical properties :
#
#
# Convention : Reuss Voigt Hill
#
# Bulk Modulus (GPa) = 12.04750 40.17026 26.10888
# Shear Modulus (GPa) = 23.08878 13.30112 18.19495
#
# Velocity S-wave (km/s) = 3.43026 2.60358 3.04510
# Velocity P-wave (km/s) = 4.67211 5.43231 5.06649
#
# Compressibility (1/GPa) = 0.08300478
#
# Stress axis : x y z
#
# Youngs Moduli (GPa) = 218.44230 218.44230 12.14994
#
# Poissons Ratio (x) = -0.39171 0.03658
# Poissons Ratio (y) = -0.39171 0.03658
# Poissons Ratio (z) = 0.65763 0.65763
#
# Static dielectric constant tensor:
#      x y z
#    x 1.714800 0.000000 0.000000 
#    y 0.000000 1.714800 0.000000 
#    z 0.000000 0.000000 1.755160 
# 
# From -- ./inp_files/1005.got.cif
#   From: 2010.05.17/outbox.cif.g08.bks.cpg/sg84_1_cif.got.tgz:1005.got - 2010.06.03 18:57:40.
