data_PCOD9544529
_publ_section_title
;
Structure prediction by ZEFSAII (Michael W. Deem and Ramdas Pophale) SiO2 
 PCOD9544529
Probable space group: P 4/N
;
_chemical_formula_sum "Si O2"
_cell_formula_units_Z 64
_cell_length_a 17.191520
_cell_length_b 17.191520
_cell_length_c 10.281520
_cell_angle_alpha 90.000000
_cell_angle_beta 90.000000
_cell_angle_gamma 90.000000
_cell_volume 3038.686373
_symmetry_space_group_name_H-M "P 4/N"
_symmetry_group_IT_number 85
_symmetry_cell_setting 'tetragonal'
loop_
_space_group_symop_operation_xyz
x,y,z
1/2-y,x,z
1/2-x,1/2-y,z
y,1/2-x,z
-x,-y,-z
1/2+y,-x,-z
1/2+x,1/2+y,-z
-y,1/2+x,-z
loop_
_atom_site_type_symbol
_atom_site_label
_atom_site_fract_x
_atom_site_fract_y
_atom_site_fract_z
Si Si1 0.927894 0.079637 0.848553
Si Si2 0.697875 0.629202 0.055941
Si Si3 0.807485 0.865127 0.751018
Si Si4 0.411821 0.499134 0.865385
Si Si5 0.578024 0.332538 0.246548
Si Si6 0.984101 0.314302 0.375054
Si Si7 0.126462 0.784806 0.013432
Si Si8 0.701630 0.352766 0.442617
O O1 0.869641 0.054188 0.734976
O O2 0.017371 0.057993 0.829807
O O3 0.913902 0.171499 0.869153
O O4 0.912967 0.034882 0.987148
O O5 0.788960 0.650792 0.076677
O O6 0.683522 0.610161 0.902247
O O7 0.664535 0.555880 0.136448
O O8 0.716216 0.849901 0.735953
O O9 0.833860 0.926281 0.643735
O O10 0.429303 0.575720 0.777969
O O11 0.527251 0.277404 0.338793
O O12 0.569782 0.290690 0.108440
O O13 0.664132 0.326866 0.308237
O O14 0.938117 0.322334 0.509817
O O15 0.199821 0.839442 0.974794
O O16 0.792654 0.336432 0.453139
#
# Coordination Sequence:
#
# PCOD9544529 Si02
#       8
#     8   8   8   8   8   8   8   8
#     4  10  21  33  49  84 112 151 176 219 292 332
#     4   9  18  34  55  82 114 155 193 224 281 352
#     4   9  19  33  58  86 109 143 191 239 286 340
#     4  10  21  35  53  82 122 144 179 237 281 344
#     4  10  22  36  54  81 115 147 193 226 282 339
#     4  11  20  36  59  79 113 151 188 239 286 333
#     4  10  20  31  50  78 112 142 181 225 269 336
#     4   9  21  39  60  77 106 153 193 232 271 337
#
# _framework density 21.061734000000001
#
# number of rings (size 3 to 8) (size 9 to 14) (size 15 to 20)
#    0.000    2.250    2.500    0.750    3.500    6.000 
#    0.000    0.625    0.000    0.000    0.000    1.750 
#    0.000    0.000    0.000    0.000    0.000    0.000 
#
# Total GULP energy -356421.888610 kJ/mol
# GULP energy per Si atom -5569.092010 kJ/mol
# Density = 2.101380 g / cm^3
# Si number density = 21.061734 Si / 1000 Ang^3
#
#
#
# Elastic Constant Matrix: (Units=GPa)
#
#
# Indices 1 2 3 4 5 6 
#
# 1 66.6320 7.7308 4.4790 0.0000 0.0000 -3.1396
# 2 7.7308 66.6320 4.4790 0.0000 0.0000 3.1396
# 3 4.4790 4.4790 22.6608 0.0000 0.0000 0.0000
# 4 0.0000 0.0000 0.0000 8.5850 0.0000 0.0000
# 5 0.0000 0.0000 0.0000 0.0000 8.5850 0.0000
# 6 -3.1396 3.1396 0.0000 0.0000 0.0000 -17.6518
#
#
#
# Elastic Compliance Matrix: (Units=1/GPa)
#
#
# Indices 1 2 3 4 5 6 
#
# 1 0.015219 -0.001443 -0.002723 0.000000 0.000000 -0.002964
# 2 -0.001443 0.015219 -0.002723 0.000000 0.000000 0.002964
# 3 -0.002723 -0.002723 0.045205 0.000000 0.000000 0.000000
# 4 0.000000 0.000000 0.000000 0.116483 0.000000 0.000000
# 5 0.000000 0.000000 0.000000 0.000000 0.116483 0.000000
# 6 -0.002964 0.002964 0.000000 0.000000 0.000000 -0.055597
#
#
# Mechanical properties :
#
#
# Convention : Reuss Voigt Hill
#
# Bulk Modulus (GPa) = 16.16412 21.03358 18.59885
# Shear Modulus (GPa) = 17.39675 9.18602 13.29138
#
# Velocity S-wave (km/s) = 2.87712 2.09068 2.51483
# Velocity P-wave (km/s) = 4.32763 3.97948 4.15720
#
# Compressibility (1/GPa) = 0.06186543
#
# Stress axis : x y z
#
# Youngs Moduli (GPa) = 65.70896 65.70896 22.12122
#
# Poissons Ratio (x) = 0.09482 0.06023
# Poissons Ratio (y) = 0.09482 0.06023
# Poissons Ratio (z) = 0.17891 0.17891
#
# Static dielectric constant tensor:
#      x y z
#    x 1.790160 0.000000 0.000000 
#    y 0.000000 1.790160 0.000000 
#    z 0.000000 0.000000 1.762370 
# 
# From -- ./inp_files/1863.got.cif
#   From: 2010.05.17/outbox.cif.g08.bks.cpg/sg85_cif.got.tgz:1863.got - 2010.06.03 19:01:16.
