data_PCOD9544777
_publ_section_title
;
Structure prediction by ZEFSAII (Michael W. Deem and Ramdas Pophale) SiO2 
 PCOD9544777
Probable space group: P 4/N
;
_chemical_formula_sum "Si O2"
_cell_formula_units_Z 26
_cell_length_a 9.008668
_cell_length_b 9.008668
_cell_length_c 15.002404
_cell_angle_alpha 90.000000
_cell_angle_beta 90.000000
_cell_angle_gamma 90.000000
_cell_volume 1217.536586
_symmetry_space_group_name_H-M "P 4/N"
_symmetry_group_IT_number 85
_symmetry_cell_setting 'tetragonal'
loop_
_space_group_symop_operation_xyz
x,y,z
1/2-y,x,z
1/2-x,1/2-y,z
y,1/2-x,z
-x,-y,-z
1/2+y,-x,-z
1/2+x,1/2+y,-z
-y,1/2+x,-z
loop_
_atom_site_type_symbol
_atom_site_label
_atom_site_fract_x
_atom_site_fract_y
_atom_site_fract_z
Si Si1 0.482507 0.176309 0.763545
Si Si2 0.496253 0.309540 0.358479
Si Si3 0.750000 0.250000 0.500000
Si Si4 0.137785 0.919844 0.961427
O O1 0.430055 0.342581 0.738579
O O2 0.628773 0.103898 0.720155
O O3 0.508591 0.185569 0.869800
O O4 0.354538 0.421735 0.356905
O O5 0.610035 0.306879 0.441683
O O6 0.250525 0.912885 0.044684
O O7 0.000000 0.000000 0.000000
#
# Coordination Sequence:
#
# PCOD9544777 Si02
#       4
#     8   8   2   8
#     4  11  24  44  68  97 137 184 233 286 351 412
#     4  11  26  45  72 107 138 177 227 283 344 415
#     4  12  24  48  76 100 146 180 224 280 348 424
#     4  11  24  40  64  96 134 181 234 285 341 406
#
# _framework density 21.354595
#
# number of rings (size 3 to 8) (size 9 to 14) (size 15 to 20)
#    0.000    0.923    3.077    2.769    4.308    3.077 
#    0.000    3.077    0.000    0.000    0.000    0.000 
#    0.000    0.000    0.000    0.000    0.000    0.000 
#
# Total GULP energy -144817.332302 kJ/mol
# GULP energy per Si atom -5569.897396 kJ/mol
# Density = 2.130599 g / cm^3
# Si number density = 21.354595 Si / 1000 Ang^3
#
#
#
# Elastic Constant Matrix: (Units=GPa)
#
#
# Indices 1 2 3 4 5 6 
#
# 1 86.2476 78.5033 31.7231 0.0000 0.0000 -2.8889
# 2 78.5033 86.2476 31.7231 0.0000 0.0000 2.8889
# 3 31.7231 31.7231 71.0263 0.0000 0.0000 0.0000
# 4 0.0000 0.0000 0.0000 38.1429 0.0000 0.0000
# 5 0.0000 0.0000 0.0000 0.0000 38.1429 0.0000
# 6 -2.8889 2.8889 0.0000 0.0000 0.0000 46.7468
#
#
#
# Elastic Compliance Matrix: (Units=1/GPa)
#
#
# Indices 1 2 3 4 5 6 
#
# 1 0.071350 -0.064019 -0.003274 0.000000 0.000000 0.008366
# 2 -0.064019 0.071350 -0.003274 0.000000 0.000000 -0.008366
# 3 -0.003274 -0.003274 0.017004 0.000000 0.000000 0.000000
# 4 0.000000 0.000000 0.000000 0.026217 0.000000 0.000000
# 5 0.000000 0.000000 0.000000 0.000000 0.026217 0.000000
# 6 0.008366 -0.008366 0.000000 0.000000 0.000000 0.022426
#
#
# Mechanical properties :
#
#
# Convention : Reuss Voigt Hill
#
# Bulk Modulus (GPa) = 53.85402 58.60228 56.22815
# Shear Modulus (GPa) = 13.09284 31.37801 22.23543
#
# Velocity S-wave (km/s) = 2.47880 3.83741 3.23034
# Velocity P-wave (km/s) = 5.78501 6.86559 6.34833
#
# Compressibility (1/GPa) = 0.01856872
#
# Stress axis : x y z
#
# Youngs Moduli (GPa) = 14.01546 14.01546 58.80966
#
# Poissons Ratio (x) = 0.89726 0.19255
# Poissons Ratio (y) = 0.89726 0.19255
# Poissons Ratio (z) = 0.04589 0.04589
#
# Static dielectric constant tensor:
#      x y z
#    x 1.643240 0.000000 0.000000 
#    y 0.000000 1.643240 0.000000 
#    z 0.000000 0.000000 1.729970 
# 
# From -- ./inp_files/2048.got.cif
#   From: 2010.05.17/outbox.cif.g08.bks.cpg/sg85_cif.got.tgz:2048.got - 2010.06.03 19:01:16.
