data_PCOD9544467
_publ_section_title
;
Structure prediction by ZEFSAII (Michael W. Deem and Ramdas Pophale) SiO2 
 PCOD9544467
Probable space group: P 42/M
;
_chemical_formula_sum "Si O2"
_cell_formula_units_Z 32
_cell_length_a 6.857586
_cell_length_b 6.857586
_cell_length_c 22.607774
_cell_angle_alpha 90.000000
_cell_angle_beta 90.000000
_cell_angle_gamma 90.000000
_cell_volume 1063.164162
_symmetry_space_group_name_H-M "P 42/M"
_symmetry_group_IT_number 84
_symmetry_cell_setting 'tetragonal'
loop_
_space_group_symop_operation_xyz
x,y,z
-y,x,1/2+z
-x,-y,z
y,-x,1/2+z
-x,-y,-z
y,-x,1/2-z
x,y,-z
-y,x,1/2-z
loop_
_atom_site_type_symbol
_atom_site_label
_atom_site_fract_x
_atom_site_fract_y
_atom_site_fract_z
Si Si1 0.196254 0.371791 0.632413
Si Si2 0.619558 0.198991 0.000000
Si Si3 0.722666 0.071110 0.375340
Si Si4 0.942440 0.730271 0.000000
Si Si5 0.247827 0.785290 0.255291
O O1 0.291189 0.405169 0.566810
O O2 0.158530 0.132943 0.632367
O O3 0.000000 0.500000 0.632842
O O4 0.288555 0.373346 0.699716
O O5 0.500000 0.000000 0.000000
O O6 0.851377 0.162466 0.000000
O O7 0.769961 0.160388 0.438770
O O8 0.718142 0.232473 0.324906
O O9 0.500000 0.000000 0.377344
O O10 0.000000 0.500000 0.000000
O O11 0.268030 0.021936 0.252408
#
# Coordination Sequence:
#
# PCOD9544467 Si02
#       5
#     8   4   8   4   8
#     4   9  16  27  44  65  89 119 157 201 249 301
#     4   8  14  24  39  61  87 115 151 196 245 297
#     4   9  16  27  44  65  89 119 157 201 249 301
#     4   8  14  24  39  61  87 115 151 196 245 297
#     4   9  17  28  42  62  89 121 158 200 246 297
#
# _framework density 30.098834
#
# number of rings (size 3 to 8) (size 9 to 14) (size 15 to 20)
#    0.000    3.250    0.000    0.750    0.000    0.000 
#    0.000    1.250    0.000    9.000    0.000    7.000 
#    0.000   20.000    0.000    0.500    0.000    0.000 
#
# Total GULP energy -178738.334827 kJ/mol
# GULP energy per Si atom -5585.572963 kJ/mol
# Density = 3.003033 g / cm^3
# Si number density = 30.098834 Si / 1000 Ang^3
#
#
#
# Elastic Constant Matrix: (Units=GPa)
#
#
# Indices 1 2 3 4 5 6 
#
# 1 143.1053 43.7759 36.2064 0.0000 0.0000 2.7437
# 2 43.7759 143.1053 36.2064 0.0000 0.0000 -2.7437
# 3 36.2064 36.2064 390.8009 0.0000 0.0000 0.0000
# 4 0.0000 0.0000 0.0000 7.9231 0.0000 0.0000
# 5 0.0000 0.0000 0.0000 0.0000 7.9231 0.0000
# 6 2.7437 -2.7437 0.0000 0.0000 0.0000 29.2669
#
#
#
# Elastic Compliance Matrix: (Units=1/GPa)
#
#
# Indices 1 2 3 4 5 6 
#
# 1 0.007835 -0.002285 -0.000514 0.000000 0.000000 -0.000949
# 2 -0.002285 0.007835 -0.000514 0.000000 0.000000 0.000949
# 3 -0.000514 -0.000514 0.002654 0.000000 0.000000 0.000000
# 4 0.000000 0.000000 0.000000 0.126213 0.000000 0.000000
# 5 0.000000 0.000000 0.000000 0.000000 0.126213 0.000000
# 6 -0.000949 0.000949 0.000000 0.000000 0.000000 0.034346
#
#
# Mechanical properties :
#
#
# Convention : Reuss Voigt Hill
#
# Bulk Modulus (GPa) = 85.48645 101.04323 93.26484
# Shear Modulus (GPa) = 15.84176 46.41082 31.12629
#
# Velocity S-wave (km/s) = 2.29667 3.93102 3.21929
# Velocity P-wave (km/s) = 5.95789 7.36528 6.69865
#
# Compressibility (1/GPa) = 0.01169776
#
# Stress axis : x y z
#
# Youngs Moduli (GPa) = 127.63106 127.63106 376.77159
#
# Poissons Ratio (x) = 0.29162 0.19374
# Poissons Ratio (y) = 0.29162 0.19374
# Poissons Ratio (z) = 0.06563 0.06563
#
# Static dielectric constant tensor:
#      x y z
#    x 2.393250 0.000000 0.000000 
#    y 0.000000 2.393250 0.000000 
#    z 0.000000 0.000000 2.495030 
# 
# From -- ./inp_files/4730.got.cif
#   From: 2010.05.17/outbox.cif.g08.bks.cpg/sg84_3_cif.got.tgz:4730.got - 2010.06.03 18:57:40.
