data_PCOD9544790
_publ_section_title
;
Structure prediction by ZEFSAII (Michael W. Deem and Ramdas Pophale) SiO2 
 PCOD9544790
Probable space group: P 4/N
;
_chemical_formula_sum "Si O2"
_cell_formula_units_Z 26
_cell_length_a 8.299699
_cell_length_b 8.299699
_cell_length_c 17.181086
_cell_angle_alpha 90.000000
_cell_angle_beta 90.000000
_cell_angle_gamma 90.000000
_cell_volume 1183.519169
_symmetry_space_group_name_H-M "P 4/N"
_symmetry_group_IT_number 85
_symmetry_cell_setting 'tetragonal'
loop_
_space_group_symop_operation_xyz
x,y,z
1/2-y,x,z
1/2-x,1/2-y,z
y,1/2-x,z
-x,-y,-z
1/2+y,-x,-z
1/2+x,1/2+y,-z
-y,1/2+x,-z
loop_
_atom_site_type_symbol
_atom_site_label
_atom_site_fract_x
_atom_site_fract_y
_atom_site_fract_z
Si Si1 0.457854 0.076479 0.916765
Si Si2 0.502251 0.161683 0.617496
Si Si3 0.750000 0.250000 0.500000
Si Si4 0.622900 0.982921 0.760609
O O1 0.467654 0.269610 0.908144
O O2 0.576874 0.012730 0.850085
O O3 0.500000 0.000000 0.000000
O O4 0.447599 0.345460 0.606052
O O5 0.645691 0.136216 0.556694
O O6 0.558248 0.122788 0.704906
O O7 0.539626 0.811232 0.743607
#
# Coordination Sequence:
#
# PCOD9544790 Si02
#       4
#     8   8   2   8
#     4  11  24  41  63  94 130 169 216 268 325 394
#     4  11  24  42  66  96 129 169 218 272 332 398
#     4  12  24  44  68  96 132 174 220 280 340 400
#     4  11  24  42  65  94 129 170 217 270 331 397
#
# _framework density 21.968381999999998
#
# number of rings (size 3 to 8) (size 9 to 14) (size 15 to 20)
#    0.000    0.923    0.000    6.462    0.000   11.692 
#    0.000    3.077    0.000    0.000    0.000    0.000 
#    0.000    0.000    0.000    0.000    0.000    0.000 
#
# Total GULP energy -145399.755073 kJ/mol
# GULP energy per Si atom -5592.298272 kJ/mol
# Density = 2.191838 g / cm^3
# Si number density = 21.968382 Si / 1000 Ang^3
#
#
#
# Elastic Constant Matrix: (Units=GPa)
#
#
# Indices 1 2 3 4 5 6 
#
# 1 62.1519 33.1373 25.4207 0.0000 0.0000 0.4535
# 2 33.1373 62.1519 25.4207 0.0000 0.0000 -0.4535
# 3 25.4207 25.4207 142.3594 0.0000 0.0000 0.0000
# 4 0.0000 0.0000 0.0000 42.8279 0.0000 0.0000
# 5 0.0000 0.0000 0.0000 0.0000 42.8279 0.0000
# 6 0.4535 -0.4535 0.0000 0.0000 0.0000 25.2585
#
#
#
# Elastic Compliance Matrix: (Units=1/GPa)
#
#
# Indices 1 2 3 4 5 6 
#
# 1 0.023042 -0.011443 -0.002071 0.000000 0.000000 -0.000619
# 2 -0.011443 0.023042 -0.002071 0.000000 0.000000 0.000619
# 3 -0.002071 -0.002071 0.007764 0.000000 0.000000 0.000000
# 4 0.000000 0.000000 0.000000 0.023349 0.000000 0.000000
# 5 0.000000 0.000000 0.000000 0.000000 0.023349 0.000000
# 6 -0.000619 0.000619 0.000000 0.000000 0.000000 0.039613
#
#
# Mechanical properties :
#
#
# Convention : Reuss Voigt Hill
#
# Bulk Modulus (GPa) = 44.09551 48.29120 46.19335
# Shear Modulus (GPa) = 27.95018 34.36180 31.15599
#
# Velocity S-wave (km/s) = 3.57079 3.95922 3.77001
# Velocity P-wave (km/s) = 6.09233 6.55213 6.32641
#
# Compressibility (1/GPa) = 0.02267805
#
# Stress axis : x y z
#
# Youngs Moduli (GPa) = 43.39873 43.39873 128.79618
#
# Poissons Ratio (x) = 0.49660 0.26677
# Poissons Ratio (y) = 0.49660 0.26677
# Poissons Ratio (z) = 0.08989 0.08989
#
# Static dielectric constant tensor:
#      x y z
#    x 1.827510 0.000000 0.000000 
#    y 0.000000 1.827510 0.000000 
#    z 0.000000 0.000000 1.767190 
# 
# From -- ./inp_files/2047.got.cif
#   From: 2010.05.17/outbox.cif.g08.bks.cpg/sg85_cif.got.tgz:2047.got - 2010.06.03 19:01:16.
