data_PCOD9544516
_publ_section_title
;
Structure prediction by ZEFSAII (Michael W. Deem and Ramdas Pophale) SiO2 
 PCOD9544516
Probable space group: P 4/N
;
_chemical_formula_sum "Si O2"
_cell_formula_units_Z 36
_cell_length_a 13.634940
_cell_length_b 13.634940
_cell_length_c 7.000345
_cell_angle_alpha 90.000000
_cell_angle_beta 90.000000
_cell_angle_gamma 90.000000
_cell_volume 1301.445261
_symmetry_space_group_name_H-M "P 4/N"
_symmetry_group_IT_number 85
_symmetry_cell_setting 'tetragonal'
loop_
_space_group_symop_operation_xyz
x,y,z
1/2-y,x,z
1/2-x,1/2-y,z
y,1/2-x,z
-x,-y,-z
1/2+y,-x,-z
1/2+x,1/2+y,-z
-y,1/2+x,-z
loop_
_atom_site_type_symbol
_atom_site_label
_atom_site_fract_x
_atom_site_fract_y
_atom_site_fract_z
Si Si1 0.549369 0.791748 0.048300
Si Si2 0.117875 0.661842 0.491099
Si Si3 0.625193 0.075854 0.888242
Si Si4 0.750000 0.750000 0.878492
Si Si5 0.750000 0.250000 0.000000
Si Si6 0.095254 0.299249 0.498662
O O1 0.470598 0.878144 0.015854
O O2 0.581123 0.799267 0.270076
O O3 0.501296 0.685037 0.010079
O O4 0.641421 0.798751 0.913152
O O5 0.133015 0.776507 0.419751
O O6 0.100571 0.574898 0.335582
O O7 0.010553 0.672366 0.587495
O O8 0.706677 0.162511 0.878769
O O9 0.133048 0.189201 0.454412
#
# Coordination Sequence:
#
# PCOD9544516 Si02
#       6
#     8   8   8   2   2   8
#     4  10  19  36  61  94 128 160 198 249 320 388
#     4  10  21  37  60  86 116 162 217 262 295 343
#     4   9  19  32  58  91 117 156 200 257 305 368
#     4  12  20  36  60  88 138 172 188 244 316 398
#     4   8  12  28  50  80 116 136 176 246 320 352
#     4  10  19  38  65  94 129 162 196 249 315 383
#
# _framework density 27.661553999999999
#
# number of rings (size 3 to 8) (size 9 to 14) (size 15 to 20)
#    0.000    2.222    2.222    1.333    0.000    5.333 
#    0.000    0.000    4.889    0.000    0.000    0.000 
#    0.000    0.000    0.000    0.000    0.000    0.000 
#
# Total GULP energy -200695.677272 kJ/mol
# GULP energy per Si atom -5574.879924 kJ/mol
# Density = 2.759860 g / cm^3
# Si number density = 27.661554 Si / 1000 Ang^3
#
#
#
# Elastic Constant Matrix: (Units=GPa)
#
#
# Indices 1 2 3 4 5 6 
#
# 1 -18.0554 136.9770 19.9408 0.0000 0.0000 237.3099
# 2 136.9770 -18.0554 19.9408 0.0000 0.0000 -237.3099
# 3 19.9408 19.9408 115.1107 0.0000 0.0000 0.0000
# 4 0.0000 0.0000 0.0000 22.3253 0.0000 0.0000
# 5 0.0000 0.0000 0.0000 0.0000 22.3253 0.0000
# 6 237.3099 -237.3099 0.0000 0.0000 0.0000 -340.8130
#
#
#
# Elastic Compliance Matrix: (Units=1/GPa)
#
#
# Indices 1 2 3 4 5 6 
#
# 1 0.007314 0.001614 -0.001547 0.000000 0.000000 0.003969
# 2 0.001614 0.007314 -0.001547 0.000000 0.000000 -0.003969
# 3 -0.001547 -0.001547 0.009223 0.000000 0.000000 0.000000
# 4 0.000000 0.000000 0.000000 0.044792 0.000000 0.000000
# 5 0.000000 0.000000 0.000000 0.000000 0.044792 0.000000
# 6 0.003969 -0.003969 0.000000 0.000000 0.000000 0.002593
#
#
# Mechanical properties :
#
#
# Convention : Reuss Voigt Hill
#
# Bulk Modulus (GPa) = 47.86503 48.07966 47.97235
# Shear Modulus (GPa) = 39.69838 -65.75638 -13.02900
#
# Velocity S-wave (km/s) = 3.79244 -4.88092 -2.17264
# Velocity P-wave (km/s) = 6.04303 3.78753 3.32963
#
# Compressibility (1/GPa) = 0.02089208
#
# Stress axis : x y z
#
# Youngs Moduli (GPa) = 136.73113 136.73113 108.42335
#
# Poissons Ratio (x) = -0.22067 0.16768
# Poissons Ratio (y) = -0.22067 0.16768
# Poissons Ratio (z) = 0.21146 0.21146
#
# Static dielectric constant tensor:
#      x y z
#    x 2.142160 0.000000 0.000000 
#    y 0.000000 2.142160 0.000000 
#    z 0.000000 0.000000 2.428950 
# 
# From -- ./inp_files/852.got.cif
#   From: 2010.05.17/outbox.cif.g08.bks.cpg/sg85_cif.got.tgz:852.got - 2010.06.03 19:01:16.
