data_PCOD9544056
_publ_section_title
;
Structure prediction by ZEFSAII (Michael W. Deem and Ramdas Pophale) SiO2 
 PCOD9544056
Probable space group: P 42/M
;
_chemical_formula_sum "Si O2"
_cell_formula_units_Z 32
_cell_length_a 6.930591
_cell_length_b 6.930591
_cell_length_c 22.581265
_cell_angle_alpha 90.000000
_cell_angle_beta 90.000000
_cell_angle_gamma 90.000000
_cell_volume 1084.647970
_symmetry_space_group_name_H-M "P 42/M"
_symmetry_group_IT_number 84
_symmetry_cell_setting 'tetragonal'
loop_
_space_group_symop_operation_xyz
x,y,z
-y,x,1/2+z
-x,-y,z
y,-x,1/2+z
-x,-y,-z
y,-x,1/2-z
x,y,-z
-y,x,1/2-z
loop_
_atom_site_type_symbol
_atom_site_label
_atom_site_fract_x
_atom_site_fract_y
_atom_site_fract_z
Si Si1 0.190178 0.633619 0.866143
Si Si2 0.757423 0.784531 0.755509
Si Si3 0.860719 0.865113 0.000000
Si Si4 0.718546 0.936782 0.873062
Si Si5 0.615357 0.836250 0.500000
O O1 0.287347 0.629367 0.799732
O O2 0.267000 0.614024 0.934189
O O3 0.000000 0.500000 0.866701
O O4 0.152079 0.868322 0.864527
O O5 0.726480 0.765568 0.825346
O O6 0.981312 0.733518 0.747189
O O7 0.755120 0.863100 0.062143
O O8 0.912103 0.622887 0.000000
O O9 0.893875 0.126669 0.000000
O O10 0.500000 0.000000 0.869352
#
# Coordination Sequence:
#
# PCOD9544056 Si02
#       5
#     8   8   4   8   4
#     4  10  19  34  55  82 117 158 199 245 308 367
#     4   9  18  31  55  84 114 150 206 251 287 353
#     4  12  21  36  61  87 114 158 203 252 305 368
#     4  11  22  35  56  90 123 152 197 261 310 362
#     4  10  20  34  58  86 107 145 202 248 288 354
#
# _framework density 29.502659999999999
#
# number of rings (size 3 to 8) (size 9 to 14) (size 15 to 20)
#    0.000    1.750    2.500    2.625    3.500    0.000 
#    0.000    0.000    0.000   19.500    0.000   21.000 
#    0.000    0.000    0.000    0.000    0.000    0.000 
#
# Total GULP energy -178573.605026 kJ/mol
# GULP energy per Si atom -5580.425157 kJ/mol
# Density = 2.943551 g / cm^3
# Si number density = 29.502660 Si / 1000 Ang^3
#
#
#
# Elastic Constant Matrix: (Units=GPa)
#
#
# Indices 1 2 3 4 5 6 
#
# 1 128.9615 36.5140 25.7745 0.0000 0.0000 -4.1296
# 2 36.5140 128.9615 25.7745 0.0000 0.0000 4.1296
# 3 25.7745 25.7745 333.3236 0.0000 0.0000 0.0000
# 4 0.0000 0.0000 0.0000 18.9783 0.0000 0.0000
# 5 0.0000 0.0000 0.0000 0.0000 18.9783 0.0000
# 6 -4.1296 4.1296 0.0000 0.0000 0.0000 27.2593
#
#
#
# Elastic Compliance Matrix: (Units=1/GPa)
#
#
# Indices 1 2 3 4 5 6 
#
# 1 0.008579 -0.002387 -0.000479 0.000000 0.000000 0.001661
# 2 -0.002387 0.008579 -0.000479 0.000000 0.000000 -0.001661
# 3 -0.000479 -0.000479 0.003074 0.000000 0.000000 0.000000
# 4 0.000000 0.000000 0.000000 0.052692 0.000000 0.000000
# 5 0.000000 0.000000 0.000000 0.000000 0.052692 0.000000
# 6 0.001661 -0.001661 0.000000 0.000000 0.000000 0.037188
#
#
# Mechanical properties :
#
#
# Convention : Reuss Voigt Hill
#
# Bulk Modulus (GPa) = 73.83595 85.26360 79.54978
# Shear Modulus (GPa) = 28.73457 46.58874 37.66166
#
# Velocity S-wave (km/s) = 3.12423 3.97815 3.57676
# Velocity P-wave (km/s) = 6.17216 7.07559 6.63926
#
# Compressibility (1/GPa) = 0.01354354
#
# Stress axis : x y z
#
# Youngs Moduli (GPa) = 116.56558 116.56558 325.29430
#
# Poissons Ratio (x) = 0.27818 0.15576
# Poissons Ratio (y) = 0.27818 0.15576
# Poissons Ratio (z) = 0.05581 0.05581
#
# Static dielectric constant tensor:
#      x y z
#    x 2.447770 0.000000 0.000000 
#    y 0.000000 2.447770 0.000000 
#    z 0.000000 0.000000 2.275580 
# 
# From -- ./inp_files/4184.got.cif
#   From: 2010.05.17/outbox.cif.g08.bks.cpg/sg84_3_cif.got.tgz:4184.got - 2010.06.03 18:57:40.
