data_PCOD9544837
_publ_section_title
;
Structure prediction by ZEFSAII (Michael W. Deem and Ramdas Pophale) SiO2 
 PCOD9544837
Probable space group: P 4/N
;
_chemical_formula_sum "Si O2"
_cell_formula_units_Z 34
_cell_length_a 10.170000
_cell_length_b 10.170000
_cell_length_c 12.418971
_cell_angle_alpha 90.000000
_cell_angle_beta 90.000000
_cell_angle_gamma 90.000000
_cell_volume 1284.480510
_symmetry_space_group_name_H-M "P 4/N"
_symmetry_group_IT_number 85
_symmetry_cell_setting 'tetragonal'
loop_
_space_group_symop_operation_xyz
x,y,z
1/2-y,x,z
1/2-x,1/2-y,z
y,1/2-x,z
-x,-y,-z
1/2+y,-x,-z
1/2+x,1/2+y,-z
-y,1/2+x,-z
loop_
_atom_site_type_symbol
_atom_site_label
_atom_site_fract_x
_atom_site_fract_y
_atom_site_fract_z
Si Si1 0.548418 0.837231 0.688029
Si Si2 0.193151 0.038662 0.563356
Si Si3 0.250000 0.250000 0.061521
Si Si4 0.965992 0.282693 0.981524
Si Si5 0.229823 0.599640 0.761687
O O1 0.586732 0.684933 0.709471
O O2 0.507703 0.832504 0.561116
O O3 0.426507 0.902434 0.746138
O O4 0.338736 0.097241 0.581045
O O5 0.190269 0.924772 0.651097
O O6 0.404253 0.201404 0.050584
O O7 0.997630 0.279578 0.853683
O O8 0.894415 0.142856 0.000574
O O9 0.250000 0.750000 0.797315
#
# Coordination Sequence:
#
# PCOD9544837 Si02
#       5
#     8   8   2   8   8
#     4   9  22  44  64  98 144 188 232 289 349 417
#     4   9  22  41  65  97 141 182 233 291 339 409
#     4  12  28  48  96 104 128 198 252 300 384 452
#     4  11  26  56  73 110 155 182 239 315 378 444
#     4  12  26  39  72  99 140 185 233 285 356 428
#
# _framework density 26.469847000000001
#
# number of rings (size 3 to 8) (size 9 to 14) (size 15 to 20)
#    0.000    1.647    2.353    2.118    9.882    1.882 
#    4.235    0.000    0.000    0.000    0.000    0.000 
#    0.000    0.000    0.000    0.000    0.000    0.000 
#
# Total GULP energy -190095.193040 kJ/mol
# GULP energy per Si atom -5591.035089 kJ/mol
# Density = 2.640960 g / cm^3
# Si number density = 26.469847 Si / 1000 Ang^3
#
#
#
# Elastic Constant Matrix: (Units=GPa)
#
#
# Indices 1 2 3 4 5 6 
#
# 1 77.8341 42.3359 8.0170 0.0000 0.0000 -10.2666
# 2 42.3359 77.8341 8.0170 0.0000 0.0000 10.2666
# 3 8.0170 8.0170 102.7856 0.0000 0.0000 0.0000
# 4 0.0000 0.0000 0.0000 -42.6190 0.0000 0.0000
# 5 0.0000 0.0000 0.0000 0.0000 -42.6190 0.0000
# 6 -10.2666 10.2666 0.0000 0.0000 0.0000 38.1157
#
#
#
# Elastic Compliance Matrix: (Units=1/GPa)
#
#
# Indices 1 2 3 4 5 6 
#
# 1 0.020889 -0.012480 -0.000656 0.000000 0.000000 0.008988
# 2 -0.012480 0.020889 -0.000656 0.000000 0.000000 -0.008988
# 3 -0.000656 -0.000656 0.009831 0.000000 0.000000 0.000000
# 4 0.000000 0.000000 0.000000 -0.023464 0.000000 0.000000
# 5 0.000000 0.000000 0.000000 0.000000 -0.023464 0.000000
# 6 0.008988 -0.008988 0.000000 0.000000 0.000000 0.031078
#
#
# Mechanical properties :
#
#
# Convention : Reuss Voigt Hill
#
# Bulk Modulus (GPa) = 41.62178 41.68818 41.65498
# Shear Modulus (GPa) = 70.07402 3.91445 36.99423
#
# Velocity S-wave (km/s) = 5.15079 1.21739 3.74250
# Velocity P-wave (km/s) = 7.15070 4.21421 5.86907
#
# Compressibility (1/GPa) = 0.02402588
#
# Stress axis : x y z
#
# Youngs Moduli (GPa) = 47.87141 47.87141 101.71593
#
# Poissons Ratio (x) = 0.59745 0.06671
# Poissons Ratio (y) = 0.59745 0.06671
# Poissons Ratio (z) = 0.03140 0.03140
#
# Static dielectric constant tensor:
#      x y z
#    x 2.070220 0.000000 0.000000 
#    y 0.000000 2.070220 0.000000 
#    z 0.000000 0.000000 2.228770 
# 
# From -- ./inp_files/1444.got.cif
#   From: 2010.05.17/outbox.cif.g08.bks.cpg/sg85_cif.got.tgz:1444.got - 2010.06.03 19:01:16.
