data_PCOD9544519
_publ_section_title
;
Structure prediction by ZEFSAII (Michael W. Deem and Ramdas Pophale) SiO2 
 PCOD9544519
Probable space group: P 4/N
;
_chemical_formula_sum "Si O2"
_cell_formula_units_Z 64
_cell_length_a 18.571335
_cell_length_b 18.571335
_cell_length_c 9.063770
_cell_angle_alpha 90.000000
_cell_angle_beta 90.000000
_cell_angle_gamma 90.000000
_cell_volume 3126.044274
_symmetry_space_group_name_H-M "P 4/N"
_symmetry_group_IT_number 85
_symmetry_cell_setting 'tetragonal'
loop_
_space_group_symop_operation_xyz
x,y,z
1/2-y,x,z
1/2-x,1/2-y,z
y,1/2-x,z
-x,-y,-z
1/2+y,-x,-z
1/2+x,1/2+y,-z
-y,1/2+x,-z
loop_
_atom_site_type_symbol
_atom_site_label
_atom_site_fract_x
_atom_site_fract_y
_atom_site_fract_z
Si Si1 0.293749 0.646360 0.452109
Si Si2 0.472785 0.018325 0.294799
Si Si3 0.207410 0.358343 0.136741
Si Si4 0.934947 0.614845 0.280428
Si Si5 0.662302 0.907545 0.551460
Si Si6 0.243586 0.990334 0.620941
Si Si7 0.115440 0.478212 0.999965
Si Si8 0.589497 0.378098 0.765422
O O1 0.209887 0.667288 0.456316
O O2 0.299505 0.572947 0.541334
O O3 0.330443 0.639679 0.291700
O O4 0.404440 0.045139 0.386380
O O5 0.542341 0.070248 0.293881
O O6 0.504162 0.940872 0.339755
O O7 0.443930 0.016600 0.127171
O O8 0.159527 0.289040 0.091358
O O9 0.190856 0.360890 0.312449
O O10 0.181760 0.434679 0.071908
O O11 0.871742 0.624501 0.401393
O O12 0.907924 0.573748 0.135250
O O13 0.971114 0.692344 0.261610
O O14 0.545144 0.729929 0.502763
O O15 0.316738 0.958474 0.687173
O O16 0.125906 0.557947 0.931153
#
# Coordination Sequence:
#
# PCOD9544519 Si02
#       8
#     8   8   8   8   8   8   8   8
#     4   9  20  36  56  87 129 161 196 251 324 381
#     4  10  21  38  62  85 123 160 204 259 313 358
#     4  10  23  41  59  83 129 171 206 250 318 391
#     4  11  21  34  59  87 121 150 200 264 313 351
#     4  11  21  37  59  91 120 156 209 258 312 369
#     4  11  22  32  59  92 123 155 204 255 317 377
#     4  10  22  39  64  86 122 163 213 253 308 374
#     4  10  19  37  59  89 119 158 208 258 305 366
#
# _framework density 20.473158000000002
#
# number of rings (size 3 to 8) (size 9 to 14) (size 15 to 20)
#    0.000    1.750    2.500    3.375    5.250    1.000 
#    0.000    0.000    0.000    1.500    0.000    0.000 
#    0.000    0.000    0.000    0.000    0.000    0.000 
#
# Total GULP energy -356721.530504 kJ/mol
# GULP energy per Si atom -5573.773914 kJ/mol
# Density = 2.042656 g / cm^3
# Si number density = 20.473158 Si / 1000 Ang^3
#
#
#
# Elastic Constant Matrix: (Units=GPa)
#
#
# Indices 1 2 3 4 5 6 
#
# 1 65.6410 26.1645 17.8468 0.0000 0.0000 -5.2717
# 2 26.1645 65.6410 17.8468 0.0000 0.0000 5.2717
# 3 17.8468 17.8468 78.8368 0.0000 0.0000 0.0000
# 4 0.0000 0.0000 0.0000 23.9113 0.0000 0.0000
# 5 0.0000 0.0000 0.0000 0.0000 23.9113 0.0000
# 6 -5.2717 5.2717 0.0000 0.0000 0.0000 6.4504
#
#
#
# Elastic Compliance Matrix: (Units=1/GPa)
#
#
# Indices 1 2 3 4 5 6 
#
# 1 0.022174 -0.010230 -0.002704 0.000000 0.000000 0.026483
# 2 -0.010230 0.022174 -0.002704 0.000000 0.000000 -0.026483
# 3 -0.002704 -0.002704 0.013909 0.000000 0.000000 0.000000
# 4 0.000000 0.000000 0.000000 0.041821 0.000000 0.000000
# 5 0.000000 0.000000 0.000000 0.000000 0.041821 0.000000
# 6 0.026483 -0.026483 0.000000 0.000000 0.000000 0.198317
#
#
# Mechanical properties :
#
#
# Convention : Reuss Voigt Hill
#
# Bulk Modulus (GPa) = 37.06310 37.09279 37.07794
# Shear Modulus (GPa) = 13.14108 20.73864 16.93986
#
# Velocity S-wave (km/s) = 2.53626 3.18617 2.87961
# Velocity P-wave (km/s) = 5.16908 5.62962 5.40426
#
# Compressibility (1/GPa) = 0.02698102
#
# Stress axis : x y z
#
# Youngs Moduli (GPa) = 45.09746 45.09746 71.89800
#
# Poissons Ratio (x) = 0.46136 0.19440
# Poissons Ratio (y) = 0.46136 0.19440
# Poissons Ratio (z) = 0.12193 0.12193
#
# Static dielectric constant tensor:
#      x y z
#    x 1.743190 0.000000 0.000000 
#    y 0.000000 1.743190 0.000000 
#    z 0.000000 0.000000 1.767980 
# 
# From -- ./inp_files/1292.got.cif
#   From: 2010.05.17/outbox.cif.g08.bks.cpg/sg85_cif.got.tgz:1292.got - 2010.06.03 19:01:16.
