data_PCOD9544931
_publ_section_title
;
Structure prediction by ZEFSAII (Michael W. Deem and Ramdas Pophale) SiO2 
 PCOD9544931
Probable space group: P 42/N
;
_chemical_formula_sum "Si O2"
_cell_formula_units_Z 56
_cell_length_a 15.968725
_cell_length_b 15.968725
_cell_length_c 11.138077
_cell_angle_alpha 90.000000
_cell_angle_beta 90.000000
_cell_angle_gamma 90.000000
_cell_volume 2840.211619
_symmetry_space_group_name_H-M "P 42/N"
_symmetry_group_IT_number 86
_space_group.IT_coordinate_system_code '2'
_symmetry_cell_setting 'tetragonal'
loop_
_space_group_symop_operation_xyz
x,y,z
-y,1/2+x,1/2+z
1/2-x,1/2-y,z
1/2+y,-x,1/2+z
-x,-y,-z
y,1/2-x,1/2-z
1/2+x,1/2+y,-z
1/2-y,x,1/2-z
loop_
_atom_site_type_symbol
_atom_site_label
_atom_site_fract_x
_atom_site_fract_y
_atom_site_fract_z
Si Si1 0.968440 0.687556 0.798769
Si Si2 0.941585 0.421102 0.781408
Si Si3 0.126102 0.621306 0.457344
Si Si4 0.919828 0.465175 0.306871
Si Si5 0.596383 0.194905 0.989274
Si Si6 0.795932 0.459477 0.094439
Si Si7 0.837822 0.565529 0.885015
O O1 0.880121 0.651704 0.846100
O O2 0.954811 0.760492 0.702346
O O3 0.023065 0.613638 0.736178
O O4 0.021065 0.709660 0.917537
O O5 0.873217 0.415267 0.676298
O O6 0.912062 0.497949 0.863608
O O7 0.028292 0.450813 0.722635
O O8 0.938580 0.338655 0.862740
O O9 0.094726 0.553374 0.553446
O O10 0.217392 0.645652 0.508150
O O11 0.066109 0.700665 0.434111
O O12 0.835023 0.465734 0.227529
O O13 0.653252 0.119385 0.038270
O O14 0.813058 0.545043 0.021399
#
# Coordination Sequence:
#
# PCOD9544931 Si02
#       7
#     8   8   8   8   8   8   8
#     4  10  19  36  56  77 107 143 193 244 289 348
#     4  10  21  36  55  79 112 154 194 235 289 357
#     4  12  20  34  56  84 116 150 192 248 290 356
#     4  10  21  36  55  79 112 154 194 235 289 357
#     4  10  21  35  54  82 115 151 188 235 303 360
#     4  10  21  35  54  82 115 151 188 235 303 360
#     4  10  19  36  56  77 107 143 193 244 289 348
#
# _framework density 19.716840999999999
#
# number of rings (size 3 to 8) (size 9 to 14) (size 15 to 20)
#    0.000    1.714    2.857    2.571    0.000    3.714 
#    0.000    2.857    0.000    0.000    0.000    0.000 
#    0.000    4.571    0.000    0.000    0.000    0.000 
#
# Total GULP energy -311960.732010 kJ/mol
# GULP energy per Si atom -5570.727357 kJ/mol
# Density = 1.967196 g / cm^3
# Si number density = 19.716841 Si / 1000 Ang^3
#
#
#
# Elastic Constant Matrix: (Units=GPa)
#
#
# Indices 1 2 3 4 5 6 
#
# 1 31.8947 12.7958 9.6746 0.0000 0.0000 5.4260
# 2 12.7958 31.8947 9.6746 0.0000 0.0000 -5.4260
# 3 9.6746 9.6746 80.2946 0.0000 0.0000 0.0000
# 4 0.0000 0.0000 0.0000 21.0803 0.0000 0.0000
# 5 0.0000 0.0000 0.0000 0.0000 21.0803 0.0000
# 6 5.4260 -5.4260 0.0000 0.0000 0.0000 21.1676
#
#
#
# Elastic Compliance Matrix: (Units=1/GPa)
#
#
# Indices 1 2 3 4 5 6 
#
# 1 0.042446 -0.018839 -0.002844 0.000000 0.000000 -0.015710
# 2 -0.018839 0.042446 -0.002844 0.000000 0.000000 0.015710
# 3 -0.002844 -0.002844 0.013140 0.000000 0.000000 0.000000
# 4 0.000000 0.000000 0.000000 0.047438 0.000000 0.000000
# 5 0.000000 0.000000 0.000000 0.000000 0.047438 0.000000
# 6 -0.015710 0.015710 0.000000 0.000000 0.000000 0.055296
#
#
# Mechanical properties :
#
#
# Convention : Reuss Voigt Hill
#
# Bulk Modulus (GPa) = 20.41772 23.15268 21.78520
# Shear Modulus (GPa) = 15.94466 20.12823 18.03644
#
# Velocity S-wave (km/s) = 2.84682 3.19856 3.02780
# Velocity P-wave (km/s) = 4.60258 5.04075 4.82664
#
# Compressibility (1/GPa) = 0.04897708
#
# Stress axis : x y z
#
# Youngs Moduli (GPa) = 23.55913 23.55913 76.10588
#
# Poissons Ratio (x) = 0.44382 0.21648
# Poissons Ratio (y) = 0.44382 0.21648
# Poissons Ratio (z) = 0.06701 0.06701
#
# Static dielectric constant tensor:
#      x y z
#    x 1.721000 0.000000 0.000000 
#    y 0.000000 1.721000 0.000000 
#    z 0.000000 0.000000 1.722170 
# 
# From -- ./inp_files/2383.got.cif
#   From: 2010.05.17/outbox.cif.g08.bks.cpg/sg86_2_cif.got.tgz:2383.got - 2010.06.03 19:03:11.
