data_PCOD9544895
_publ_section_title
;
Structure prediction by ZEFSAII (Michael W. Deem and Ramdas Pophale) SiO2 
 PCOD9544895
Probable space group: P 42/N
;
_chemical_formula_sum "Si O2"
_cell_formula_units_Z 64
_cell_length_a 17.045788
_cell_length_b 17.045788
_cell_length_c 12.350474
_cell_angle_alpha 90.000000
_cell_angle_beta 90.000000
_cell_angle_gamma 90.000000
_cell_volume 3588.539998
_symmetry_space_group_name_H-M "P 42/N"
_symmetry_group_IT_number 86
_space_group.IT_coordinate_system_code '2'
_symmetry_cell_setting 'tetragonal'
loop_
_space_group_symop_operation_xyz
x,y,z
-y,1/2+x,1/2+z
1/2-x,1/2-y,z
1/2+y,-x,1/2+z
-x,-y,-z
y,1/2-x,1/2-z
1/2+x,1/2+y,-z
1/2-y,x,1/2-z
loop_
_atom_site_type_symbol
_atom_site_label
_atom_site_fract_x
_atom_site_fract_y
_atom_site_fract_z
Si Si1 0.058760 0.434752 0.557632
Si Si2 0.489937 0.495641 0.373750
Si Si3 0.078402 0.164077 0.292997
Si Si4 0.081778 0.325072 0.364985
Si Si5 0.300187 0.926790 0.355943
Si Si6 0.583851 0.137668 0.251187
Si Si7 0.046437 0.802834 0.115172
Si Si8 0.855111 0.042725 0.239400
O O1 0.095533 0.381263 0.464813
O O2 0.129286 0.479240 0.618688
O O3 0.000000 0.500000 0.500000
O O4 0.011434 0.375272 0.635124
O O5 0.500000 0.500000 0.500000
O O6 0.442443 0.417053 0.348063
O O7 0.437892 0.565582 0.323688
O O8 0.573344 0.482171 0.317552
O O9 0.082198 0.232728 0.379712
O O10 0.156155 0.146041 0.225997
O O11 0.009772 0.183670 0.205738
O O12 0.995683 0.348441 0.319954
O O13 0.214805 0.900174 0.317677
O O14 0.295152 0.938844 0.485638
O O15 0.369448 0.870672 0.309279
O O16 0.654420 0.120638 0.331524
O O17 0.033299 0.724645 0.189094
#
# Coordination Sequence:
#
# PCOD9544895 Si02
#       8
#     8   8   8   8   8   8   8   8
#     4  12  19  41  68  87 116 169 222 255 310 391
#     4  10  19  36  55  83 122 158 200 249 309 371
#     4   9  19  32  57  85 113 150 201 255 303 367
#     4  10  18  34  58  84 113 150 205 262 299 366
#     4  10  20  39  60  89 124 158 204 253 315 370
#     4  10  20  35  60  89 116 159 205 251 302 376
#     4  12  22  38  66  92 122 171 205 262 317 367
#     4  11  23  37  62  95 121 163 219 257 306 389
#
# _framework density 17.834551000000001
#
# number of rings (size 3 to 8) (size 9 to 14) (size 15 to 20)
#    0.000    1.500    5.000    1.500    0.000    1.750 
#    0.000    5.000    0.000    0.375    0.000    0.000 
#    0.000    0.000    0.000    0.000    0.000    0.000 
#
# Total GULP energy -356351.421106 kJ/mol
# GULP energy per Si atom -5567.990955 kJ/mol
# Density = 1.779396 g / cm^3
# Si number density = 17.834551 Si / 1000 Ang^3
#
#
#
# Elastic Constant Matrix: (Units=GPa)
#
#
# Indices 1 2 3 4 5 6 
#
# 1 79.8375 26.5157 28.1104 0.0000 0.0000 5.4254
# 2 26.5157 79.8375 28.1104 0.0000 0.0000 -5.4254
# 3 28.1104 28.1104 86.0304 0.0000 0.0000 0.0000
# 4 0.0000 0.0000 0.0000 31.0385 0.0000 0.0000
# 5 0.0000 0.0000 0.0000 0.0000 31.0385 0.0000
# 6 5.4254 -5.4254 0.0000 0.0000 0.0000 8.1003
#
#
#
# Elastic Compliance Matrix: (Units=1/GPa)
#
#
# Indices 1 2 3 4 5 6 
#
# 1 0.016540 -0.005174 -0.003714 0.000000 0.000000 -0.014543
# 2 -0.005174 0.016540 -0.003714 0.000000 0.000000 0.014543
# 3 -0.003714 -0.003714 0.014051 0.000000 0.000000 0.000000
# 4 0.000000 0.000000 0.000000 0.032218 0.000000 0.000000
# 5 0.000000 0.000000 0.000000 0.000000 0.032218 0.000000
# 6 -0.014543 0.014543 0.000000 0.000000 0.000000 0.142933
#
#
# Mechanical properties :
#
#
# Convention : Reuss Voigt Hill
#
# Bulk Modulus (GPa) = 45.60527 45.68647 45.64587
# Shear Modulus (GPa) = 17.42089 24.90004 21.16046
#
# Velocity S-wave (km/s) = 3.12878 3.74059 3.44828
# Velocity P-wave (km/s) = 6.21926 6.65796 6.44234
#
# Compressibility (1/GPa) = 0.02192729
#
# Stress axis : x y z
#
# Youngs Moduli (GPa) = 60.46058 60.46058 71.17054
#
# Poissons Ratio (x) = 0.31282 0.26431
# Poissons Ratio (y) = 0.31282 0.26431
# Poissons Ratio (z) = 0.22454 0.22454
#
# Static dielectric constant tensor:
#      x y z
#    x 1.629430 0.000000 0.000000 
#    y 0.000000 1.629430 0.000000 
#    z 0.000000 0.000000 1.639750 
# 
# From -- ./inp_files/2487.got.cif
#   From: 2010.05.17/outbox.cif.g08.bks.cpg/sg86_2_cif.got.tgz:2487.got - 2010.06.03 19:03:11.
