data_PCOD9544875
_publ_section_title
;
Structure prediction by ZEFSAII (Michael W. Deem and Ramdas Pophale) SiO2 
 PCOD9544875
Probable space group: P 42/N
;
_chemical_formula_sum "Si O2"
_cell_formula_units_Z 48
_cell_length_a 8.306609
_cell_length_b 8.306609
_cell_length_c 29.679161
_cell_angle_alpha 90.000000
_cell_angle_beta 90.000000
_cell_angle_gamma 90.000000
_cell_volume 2047.854781
_symmetry_space_group_name_H-M "P 42/N"
_symmetry_group_IT_number 86
_space_group.IT_coordinate_system_code '2'
_symmetry_cell_setting 'tetragonal'
loop_
_space_group_symop_operation_xyz
x,y,z
-y,1/2+x,1/2+z
1/2-x,1/2-y,z
1/2+y,-x,1/2+z
-x,-y,-z
y,1/2-x,1/2-z
1/2+x,1/2+y,-z
1/2-y,x,1/2-z
loop_
_atom_site_type_symbol
_atom_site_label
_atom_site_fract_x
_atom_site_fract_y
_atom_site_fract_z
Si Si1 0.508757 0.625305 0.317692
Si Si2 0.589780 0.576427 0.921181
Si Si3 0.162536 0.920192 0.741089
Si Si4 0.932140 0.551684 0.951782
Si Si5 0.052766 0.746163 0.405015
Si Si6 0.816732 0.574608 0.682931
O O1 0.522122 0.713003 0.270137
O O2 0.628581 0.480139 0.309188
O O3 0.519170 0.760030 0.355114
O O4 0.334002 0.545476 0.324991
O O5 0.752219 0.494170 0.939242
O O6 0.580222 0.755266 0.943404
O O7 0.414373 0.500816 0.931107
O O8 0.595567 0.600264 0.866487
O O9 0.250000 0.750000 0.738146
O O10 0.004798 0.902931 0.773686
O O11 0.078364 0.495868 0.920185
O O12 0.000000 0.500000 0.000000
O O13 0.250000 0.750000 0.405796
O O14 0.750000 0.750000 0.694671
#
# Coordination Sequence:
#
# PCOD9544875 Si02
#       6
#     8   8   8   8   8   8
#     4  11  20  38  58  85 131 175 217 273 337 404
#     4  10  18  36  61  89 126 164 214 277 344 416
#     4  10  24  36  57  95 135 170 225 281 335 397
#     4  10  20  33  56  94 127 160 209 275 351 421
#     4  10  17  36  63  86 121 170 214 282 344 400
#     4  11  19  34  60  98 120 157 228 287 328 384
#
# _framework density 23.439164000000002
#
# number of rings (size 3 to 8) (size 9 to 14) (size 15 to 20)
#    0.000    1.667    6.667    0.500    4.667    1.000 
#    0.000    0.000    0.000    7.000    0.000    0.000 
#    0.000    0.000    0.000    0.000    0.000    0.333 
#
# Total GULP energy -267610.620004 kJ/mol
# GULP energy per Si atom -5575.221250 kJ/mol
# Density = 2.338582 g / cm^3
# Si number density = 23.439164 Si / 1000 Ang^3
#
#
#
# Elastic Constant Matrix: (Units=GPa)
#
#
# Indices 1 2 3 4 5 6 
#
# 1 106.5650 12.9161 34.9596 0.0000 0.0000 -4.4128
# 2 12.9161 106.5650 34.9596 0.0000 0.0000 4.4128
# 3 34.9596 34.9596 73.5230 0.0000 0.0000 0.0000
# 4 0.0000 0.0000 0.0000 1.8224 0.0000 0.0000
# 5 0.0000 0.0000 0.0000 0.0000 1.8224 0.0000
# 6 -4.4128 4.4128 0.0000 0.0000 0.0000 9.8750
#
#
#
# Elastic Compliance Matrix: (Units=1/GPa)
#
#
# Indices 1 2 3 4 5 6 
#
# 1 0.011372 0.000224 -0.005514 0.000000 0.000000 0.004981
# 2 0.000224 0.011372 -0.005514 0.000000 0.000000 -0.004981
# 3 -0.005514 -0.005514 0.018845 0.000000 0.000000 0.000000
# 4 0.000000 0.000000 0.000000 0.548717 0.000000 0.000000
# 5 0.000000 0.000000 0.000000 0.000000 0.548717 0.000000
# 6 0.004981 -0.004981 0.000000 0.000000 0.000000 0.105718
#
#
# Mechanical properties :
#
#
# Convention : Reuss Voigt Hill
#
# Bulk Modulus (GPa) = 50.04597 50.25816 50.15206
# Shear Modulus (GPa) = 3.92771 16.29181 10.10976
#
# Velocity S-wave (km/s) = 1.29589 2.63927 2.07908
# Velocity P-wave (km/s) = 4.86178 5.54763 5.21599
#
# Compressibility (1/GPa) = 0.01998163
#
# Stress axis : x y z
#
# Youngs Moduli (GPa) = 87.93587 87.93587 53.06502
#
# Poissons Ratio (x) = -0.01972 0.29260
# Poissons Ratio (y) = -0.01972 0.29260
# Poissons Ratio (z) = 0.48487 0.48487
#
# Static dielectric constant tensor:
#      x y z
#    x 2.005850 0.000000 0.000000 
#    y 0.000000 2.005850 0.000000 
#    z 0.000000 0.000000 2.030910 
# 
# From -- ./inp_files/5171.got.cif
#   From: 2010.05.17/outbox.cif.g08.bks.cpg/sg86_3_cif.got.tgz:5171.got - 2010.06.03 19:03:11.
