data_PCOD9544246
_publ_section_title
;
Structure prediction by ZEFSAII (Michael W. Deem and Ramdas Pophale) SiO2 
 PCOD9544246
Probable space group: P 42/M
;
_chemical_formula_sum "Si O2"
_cell_formula_units_Z 40
_cell_length_a 8.542621
_cell_length_b 8.542621
_cell_length_c 24.368360
_cell_angle_alpha 90.000000
_cell_angle_beta 90.000000
_cell_angle_gamma 90.000000
_cell_volume 1778.314542
_symmetry_space_group_name_H-M "P 42/M"
_symmetry_group_IT_number 84
_symmetry_cell_setting 'tetragonal'
loop_
_space_group_symop_operation_xyz
x,y,z
-y,x,1/2+z
-x,-y,z
y,-x,1/2+z
-x,-y,-z
y,-x,1/2-z
x,y,-z
-y,x,1/2-z
loop_
_atom_site_type_symbol
_atom_site_label
_atom_site_fract_x
_atom_site_fract_y
_atom_site_fract_z
Si Si1 0.436202 0.820957 0.784874
Si Si2 0.452131 0.318975 0.439088
Si Si3 0.175398 0.011564 0.169213
Si Si4 0.075998 0.330550 0.437049
Si Si5 0.699952 0.637497 0.829868
O O1 0.262337 0.862990 0.803507
O O2 0.517587 0.689966 0.823249
O O3 0.456156 0.758556 0.723361
O O4 0.500000 0.000000 0.789511
O O5 0.500000 0.500000 0.441909
O O6 0.489040 0.249178 0.500000
O O7 0.264005 0.320529 0.432915
O O8 0.550373 0.258458 0.386428
O O9 0.205681 0.991265 0.104542
O O10 0.227791 0.189704 0.178873
O O11 0.000000 0.000000 0.185828
O O12 0.031159 0.305037 0.500000
O O13 0.000000 0.500000 0.421207
#
# Coordination Sequence:
#
# PCOD9544246 Si02
#       5
#     8   8   8   8   8
#     4  10  25  43  63  96 132 171 220 268 336 404
#     4  10  21  38  65  98 131 167 220 275 329 388
#     4  11  25  42  66  92 131 176 223 271 329 401
#     4  10  21  41  68  97 134 175 217 270 329 401
#     4  11  25  41  67  95 131 173 218 281 329 398
#
# _framework density 22.493207999999999
#
# number of rings (size 3 to 8) (size 9 to 14) (size 15 to 20)
#    0.000    1.600    0.000    4.200   11.200    2.800 
#    0.000    0.000    0.000    3.600    0.000    0.000 
#    0.000    0.000    0.000    0.000    0.000    0.000 
#
# Total GULP energy -223243.288382 kJ/mol
# GULP energy per Si atom -5581.082210 kJ/mol
# Density = 2.244201 g / cm^3
# Si number density = 22.493208 Si / 1000 Ang^3
#
#
#
# Elastic Constant Matrix: (Units=GPa)
#
#
# Indices 1 2 3 4 5 6 
#
# 1 63.8451 7.9968 27.0715 0.0000 0.0000 -6.3862
# 2 7.9968 63.8451 27.0715 0.0000 0.0000 6.3862
# 3 27.0715 27.0715 173.1673 0.0000 0.0000 0.0000
# 4 0.0000 0.0000 0.0000 2270.5387 0.0000 0.0000
# 5 0.0000 0.0000 0.0000 0.0000 2270.5387 0.0000
# 6 -6.3862 6.3862 0.0000 0.0000 0.0000 7.0264
#
#
#
# Elastic Compliance Matrix: (Units=1/GPa)
#
#
# Indices 1 2 3 4 5 6 
#
# 1 0.019191 -0.003413 -0.002467 0.000000 0.000000 0.020545
# 2 -0.003413 0.019191 -0.002467 0.000000 0.000000 -0.020545
# 3 -0.002467 -0.002467 0.006546 0.000000 0.000000 0.000000
# 4 0.000000 0.000000 0.000000 0.000440 0.000000 0.000000
# 5 0.000000 0.000000 0.000000 0.000000 0.000440 0.000000
# 6 0.020545 -0.020545 0.000000 0.000000 0.000000 0.179667
#
#
# Mechanical properties :
#
#
# Convention : Reuss Voigt Hill
#
# Bulk Modulus (GPa) = 35.41554 47.23745 41.32649
# Shear Modulus (GPa) = 19.87432 925.53528 472.70480
#
# Velocity S-wave (km/s) = 2.97571 20.30681 14.51243
# Velocity P-wave (km/s) = 5.25221 23.89285 17.29818
#
# Compressibility (1/GPa) = 0.02823619
#
# Stress axis : x y z
#
# Youngs Moduli (GPa) = 52.10694 52.10694 152.76513
#
# Poissons Ratio (x) = 0.17783 0.37682
# Poissons Ratio (y) = 0.17783 0.37682
# Poissons Ratio (z) = 0.12853 0.12853
#
# Static dielectric constant tensor:
#      x y z
#    x 1.897420 0.000000 0.000000 
#    y 0.000000 1.897420 0.000000 
#    z 0.000000 0.000000 1.867990 
# 
# From -- ./inp_files/4824.got.cif
#   From: 2010.05.17/outbox.cif.g08.bks.cpg/sg84_3_cif.got.tgz:4824.got - 2010.06.03 18:57:40.
