data_PCOD9544132
_publ_section_title
;
Structure prediction by ZEFSAII (Michael W. Deem and Ramdas Pophale) SiO2 
 PCOD9544132
Probable space group: P 42/M
;
_chemical_formula_sum "Si O2"
_cell_formula_units_Z 64
_cell_length_a 12.389685
_cell_length_b 12.389685
_cell_length_c 21.164355
_cell_angle_alpha 90.000000
_cell_angle_beta 90.000000
_cell_angle_gamma 90.000000
_cell_volume 3248.819381
_symmetry_space_group_name_H-M "P 42/M"
_symmetry_group_IT_number 84
_symmetry_cell_setting 'tetragonal'
loop_
_space_group_symop_operation_xyz
x,y,z
-y,x,1/2+z
-x,-y,z
y,-x,1/2+z
-x,-y,-z
y,-x,1/2-z
x,y,-z
-y,x,1/2-z
loop_
_atom_site_type_symbol
_atom_site_label
_atom_site_fract_x
_atom_site_fract_y
_atom_site_fract_z
Si Si1 0.883784 0.260675 0.120904
Si Si2 0.184300 0.653478 0.424142
Si Si3 0.666698 0.195272 0.928304
Si Si4 0.958711 0.170265 0.248540
Si Si5 0.008286 0.383178 0.667735
Si Si6 0.722272 0.126268 0.575602
Si Si7 0.511777 0.870271 0.428038
Si Si8 0.378529 0.500879 0.574925
O O1 0.795614 0.201531 0.078342
O O2 0.888023 0.214704 0.190707
O O3 0.851627 0.386110 0.115536
O O4 0.006413 0.251441 0.096941
O O5 0.172646 0.640137 0.500000
O O6 0.083887 0.610888 0.385703
O O7 0.194488 0.780333 0.409379
O O8 0.293529 0.591946 0.403457
O O9 0.610648 0.312111 0.918973
O O10 0.628862 0.118239 0.871957
O O11 0.637340 0.159969 0.000000
O O12 0.987758 0.274808 0.291080
O O13 0.070391 0.112989 0.224887
O O14 0.000000 0.500000 0.702530
O O15 0.710807 0.122482 0.500000
O O16 0.603720 0.164478 0.598158
O O17 0.530878 0.828542 0.500000
O O18 0.500000 0.000000 0.433461
O O19 0.500000 0.500000 0.601706
O O20 0.390298 0.522309 0.500000
#
# Coordination Sequence:
#
# PCOD9544132 Si02
#       8
#     8   8   8   8   8   8   8   8
#     4  11  20  36  59  86 117 151 204 251 311 362
#     4  10  20  35  57  86 124 165 199 245 302 364
#     4  11  22  37  63  95 127 161 201 256 310 374
#     4  11  25  46  66  83 115 160 210 261 310 369
#     4  12  24  42  64  89 121 162 212 257 301 366
#     4   9  18  32  53  87 127 157 190 241 310 370
#     4   8  15  28  50  83 122 152 180 233 299 360
#     4   9  19  34  56  90 129 167 199 233 297 373
#
# _framework density 19.699463000000002
#
# number of rings (size 3 to 8) (size 9 to 14) (size 15 to 20)
#    0.000    1.875    2.500    3.000    1.750    2.000 
#    0.000    0.000    0.000    3.000    0.000    0.000 
#    0.000    0.000    0.000    0.000    0.000    0.000 
#
# Total GULP energy -356611.572763 kJ/mol
# GULP energy per Si atom -5572.055824 kJ/mol
# Density = 1.965463 g / cm^3
# Si number density = 19.699463 Si / 1000 Ang^3
#
#
#
# Elastic Constant Matrix: (Units=GPa)
#
#
# Indices 1 2 3 4 5 6 
#
# 1 85.4839 10.5933 11.6407 0.0000 0.0000 -0.4802
# 2 10.5933 85.4839 11.6407 0.0000 0.0000 0.4802
# 3 11.6407 11.6407 28.4813 0.0000 0.0000 0.0000
# 4 0.0000 0.0000 0.0000 17.1291 0.0000 0.0000
# 5 0.0000 0.0000 0.0000 0.0000 17.1291 0.0000
# 6 -0.4802 0.4802 0.0000 0.0000 0.0000 22.0088
#
#
#
# Elastic Compliance Matrix: (Units=1/GPa)
#
#
# Indices 1 2 3 4 5 6 
#
# 1 0.012454 -0.000902 -0.004722 0.000000 0.000000 0.000291
# 2 -0.000902 0.012454 -0.004722 0.000000 0.000000 -0.000291
# 3 -0.004722 -0.004722 0.038970 0.000000 0.000000 0.000000
# 4 0.000000 0.000000 0.000000 0.058380 0.000000 0.000000
# 5 0.000000 0.000000 0.000000 0.000000 0.058380 0.000000
# 6 0.000291 -0.000291 0.000000 0.000000 0.000000 0.045449
#
#
# Mechanical properties :
#
#
# Convention : Reuss Voigt Hill
#
# Bulk Modulus (GPa) = 23.15424 29.68874 26.42149
# Shear Modulus (GPa) = 19.14418 22.29168 20.71793
#
# Velocity S-wave (km/s) = 3.12077 3.36756 3.24651
# Velocity P-wave (km/s) = 4.97643 5.49765 5.24352
#
# Compressibility (1/GPa) = 0.04318863
#
# Stress axis : x y z
#
# Youngs Moduli (GPa) = 80.29229 80.29229 25.66053
#
# Poissons Ratio (x) = 0.07243 0.12116
# Poissons Ratio (y) = 0.07243 0.12116
# Poissons Ratio (z) = 0.37911 0.37911
#
# Static dielectric constant tensor:
#      x y z
#    x 1.739550 0.000000 0.000000 
#    y 0.000000 1.739550 0.000000 
#    z 0.000000 0.000000 1.665900 
# 
# From -- ./inp_files/5098.got.cif
#   From: 2010.05.17/outbox.cif.g08.bks.cpg/sg84_3_cif.got.tgz:5098.got - 2010.06.03 18:57:40.
