data_PCOD9544868
_publ_section_title
;
Structure prediction by ZEFSAII (Michael W. Deem and Ramdas Pophale) SiO2 
 PCOD9544868
Probable space group: P 42/N
;
_chemical_formula_sum "Si O2"
_cell_formula_units_Z 48
_cell_length_a 8.194414
_cell_length_b 8.194414
_cell_length_c 30.536059
_cell_angle_alpha 90.000000
_cell_angle_beta 90.000000
_cell_angle_gamma 90.000000
_cell_volume 2050.448139
_symmetry_space_group_name_H-M "P 42/N"
_symmetry_group_IT_number 86
_space_group.IT_coordinate_system_code '2'
_symmetry_cell_setting 'tetragonal'
loop_
_space_group_symop_operation_xyz
x,y,z
-y,1/2+x,1/2+z
1/2-x,1/2-y,z
1/2+y,-x,1/2+z
-x,-y,-z
y,1/2-x,1/2-z
1/2+x,1/2+y,-z
1/2-y,x,1/2-z
loop_
_atom_site_type_symbol
_atom_site_label
_atom_site_fract_x
_atom_site_fract_y
_atom_site_fract_z
Si Si1 0.175013 0.565358 0.680735
Si Si2 0.570928 0.987398 0.148544
Si Si3 0.678830 0.933760 0.057422
Si Si4 0.284589 0.432867 0.118213
Si Si5 0.124655 0.014064 0.261783
Si Si6 0.206135 0.567379 0.033149
O O1 0.250000 0.750000 0.682553
O O2 0.305944 0.430392 0.668049
O O3 0.028743 0.580718 0.645538
O O4 0.102848 0.534142 0.728221
O O5 0.686540 0.008297 0.106505
O O6 0.389255 0.986683 0.128033
O O7 0.559953 0.110765 0.189524
O O8 0.750000 0.750000 0.058601
O O9 0.488196 0.939382 0.042478
O O10 0.756628 0.030429 0.016739
O O11 0.250000 0.250000 0.132987
O O12 0.302598 0.447923 0.066183
O O13 0.041793 0.192484 0.256918
O O14 0.250000 0.750000 0.045852
#
# Coordination Sequence:
#
# PCOD9544868 Si02
#       6
#     8   8   8   8   8   8
#     4  10  19  35  55  84 123 160 203 253 317 368
#     4  10  21  38  56  83 128 163 202 258 318 380
#     4  10  22  42  61  90 129 170 210 257 316 387
#     4  10  17  32  60  92 119 159 210 255 308 371
#     4  11  20  35  63  91 115 152 210 268 315 371
#     4  10  21  39  67  95 127 164 209 268 317 376
#
# _framework density 23.409519
#
# number of rings (size 3 to 8) (size 9 to 14) (size 15 to 20)
#    0.000    1.833    3.333    4.000    0.000    0.667 
#    3.000    7.500    0.000    0.000    0.000    0.000 
#    0.000    0.000    0.000    0.000    0.000    0.000 
#
# Total GULP energy -267771.411172 kJ/mol
# GULP energy per Si atom -5578.571066 kJ/mol
# Density = 2.335624 g / cm^3
# Si number density = 23.409519 Si / 1000 Ang^3
#
#
#
# Elastic Constant Matrix: (Units=GPa)
#
#
# Indices 1 2 3 4 5 6 
#
# 1 33.7568 -4.6811 20.2478 0.0000 0.0000 -8.4910
# 2 -4.6811 33.7568 20.2478 0.0000 0.0000 8.4910
# 3 20.2478 20.2478 164.0567 0.0000 0.0000 0.0000
# 4 0.0000 0.0000 0.0000 9.6355 0.0000 0.0000
# 5 0.0000 0.0000 0.0000 0.0000 9.6355 0.0000
# 6 -8.4910 8.4910 0.0000 0.0000 0.0000 14.1558
#
#
#
# Elastic Compliance Matrix: (Units=1/GPa)
#
#
# Indices 1 2 3 4 5 6 
#
# 1 0.038464 0.003068 -0.005126 0.000000 0.000000 0.021232
# 2 0.003068 0.038464 -0.005126 0.000000 0.000000 -0.021232
# 3 -0.005126 -0.005126 0.007361 0.000000 0.000000 0.000000
# 4 0.000000 0.000000 0.000000 0.103783 0.000000 0.000000
# 5 0.000000 0.000000 0.000000 0.000000 0.103783 0.000000
# 6 0.021232 -0.021232 0.000000 0.000000 0.000000 0.096113
#
#
# Mechanical properties :
#
#
# Convention : Reuss Voigt Hill
#
# Bulk Modulus (GPa) = 14.30176 33.68883 23.99530
# Shear Modulus (GPa) = 11.74695 19.73574 15.74134
#
# Velocity S-wave (km/s) = 2.24252 2.90671 2.59595
# Velocity P-wave (km/s) = 3.58160 5.06829 4.38836
#
# Compressibility (1/GPa) = 0.06992145
#
# Stress axis : x y z
#
# Youngs Moduli (GPa) = 25.99823 25.99823 135.85619
#
# Poissons Ratio (x) = -0.07976 0.69638
# Poissons Ratio (y) = -0.07976 0.69638
# Poissons Ratio (z) = 0.13326 0.13326
#
# Static dielectric constant tensor:
#      x y z
#    x 2.038920 0.000000 0.000000 
#    y 0.000000 2.038920 0.000000 
#    z 0.000000 0.000000 1.958760 
# 
# From -- ./inp_files/5159.got.cif
#   From: 2010.05.17/outbox.cif.g08.bks.cpg/sg86_3_cif.got.tgz:5159.got - 2010.06.03 19:03:11.
