data_PCOD9544123
_publ_section_title
;
Structure prediction by ZEFSAII (Michael W. Deem and Ramdas Pophale) SiO2 
 PCOD9544123
Probable space group: P 42/M
;
_chemical_formula_sum "Si O2"
_cell_formula_units_Z 52
_cell_length_a 18.104080
_cell_length_b 18.104080
_cell_length_c 9.425885
_cell_angle_alpha 90.000000
_cell_angle_beta 90.000000
_cell_angle_gamma 90.000000
_cell_volume 3089.406507
_symmetry_space_group_name_H-M "P 42/M"
_symmetry_group_IT_number 84
_symmetry_cell_setting 'tetragonal'
loop_
_space_group_symop_operation_xyz
x,y,z
-y,x,1/2+z
-x,-y,z
y,-x,1/2+z
-x,-y,-z
y,-x,1/2-z
x,y,-z
-y,x,1/2-z
loop_
_atom_site_type_symbol
_atom_site_label
_atom_site_fract_x
_atom_site_fract_y
_atom_site_fract_z
Si Si1 0.372526 0.591069 0.749702
Si Si2 0.412635 0.998659 0.667584
Si Si3 0.736036 0.275233 0.167720
Si Si4 0.487745 0.596511 0.500000
Si Si5 0.644172 0.864290 0.835516
Si Si6 0.170224 0.364110 0.833293
Si Si7 0.503358 0.233065 0.840868
O O1 0.325497 0.660609 0.806830
O O2 0.426002 0.610722 0.623105
O O3 0.310962 0.534178 0.691149
O O4 0.415193 0.551361 0.876892
O O5 0.408538 0.018265 0.500000
O O6 0.368084 0.057607 0.759902
O O7 0.500000 0.000000 0.706004
O O8 0.380422 0.916550 0.685664
O O9 0.809846 0.303009 0.246884
O O10 0.703153 0.202603 0.242344
O O11 0.747558 0.266684 0.000000
O O12 0.563663 0.825166 0.834726
O O13 0.667259 0.870352 0.000000
O O14 0.211476 0.436906 0.775452
O O15 0.185367 0.353463 0.000000
O O16 0.535717 0.231946 0.000000
#
# Coordination Sequence:
#
# PCOD9544123 Si02
#       7
#     8   8   8   4   8   8   8
#     4  11  25  40  59  73  95 135 182 241 297 351
#     4  10  20  37  56  87 117 152 187 231 292 353
#     4  11  23  40  57  83 109 147 187 234 288 350
#     4  12  26  45  54  68  94 126 183 244 302 349
#     4  10  21  35  58  82 117 145 188 232 287 339
#     4  11  23  35  59  83 112 143 188 233 281 345
#     4  10  20  35  52  79 102 138 177 232 284 345
#
# _framework density 16.831710999999999
#
# number of rings (size 3 to 8) (size 9 to 14) (size 15 to 20)
#    0.000    1.385    3.077    2.308    5.385    3.692 
#    0.000    0.000    0.000    0.000    0.000    0.000 
#    0.000    0.615    0.000    6.462    0.000    2.769 
#
# Total GULP energy -289597.356002 kJ/mol
# GULP energy per Si atom -5569.179923 kJ/mol
# Density = 1.679340 g / cm^3
# Si number density = 16.831711 Si / 1000 Ang^3
#
#
#
# Elastic Constant Matrix: (Units=GPa)
#
#
# Indices 1 2 3 4 5 6 
#
# 1 65.1152 36.5814 56.9318 0.0000 0.0000 -2.3569
# 2 36.5814 65.1152 56.9318 0.0000 0.0000 2.3569
# 3 56.9318 56.9318 163.3374 0.0000 0.0000 0.0000
# 4 0.0000 0.0000 0.0000 -129.4780 0.0000 0.0000
# 5 0.0000 0.0000 0.0000 0.0000 -129.4780 0.0000
# 6 -2.3569 2.3569 0.0000 0.0000 0.0000 17.1026
#
#
#
# Elastic Compliance Matrix: (Units=1/GPa)
#
#
# Indices 1 2 3 4 5 6 
#
# 1 0.025995 -0.009868 -0.005621 0.000000 0.000000 0.004942
# 2 -0.009868 0.025995 -0.005621 0.000000 0.000000 -0.004942
# 3 -0.005621 -0.005621 0.010041 0.000000 0.000000 0.000000
# 4 0.000000 0.000000 0.000000 -0.007723 0.000000 0.000000
# 5 0.000000 0.000000 0.000000 0.000000 -0.007723 0.000000
# 6 0.004942 -0.004942 0.000000 0.000000 0.000000 0.059833
#
#
# Mechanical properties :
#
#
# Convention : Reuss Voigt Hill
#
# Bulk Modulus (GPa) = 50.47939 66.05088 58.26514
# Shear Modulus (GPa) = 32.20825 -38.82917 -3.31046
#
# Velocity S-wave (km/s) = 4.37915 -4.80824 -1.40395
# Velocity P-wave (km/s) = 7.45822 2.91575 5.66245
#
# Compressibility (1/GPa) = 0.01981006
#
# Stress axis : x y z
#
# Youngs Moduli (GPa) = 38.46941 38.46941 99.59419
#
# Poissons Ratio (x) = 0.37962 0.55982
# Poissons Ratio (y) = 0.37962 0.55982
# Poissons Ratio (z) = 0.21624 0.21624
#
# Static dielectric constant tensor:
#      x y z
#    x 1.576430 0.000000 0.000000 
#    y 0.000000 1.576430 0.000000 
#    z 0.000000 0.000000 1.561980 
# 
# From -- ./inp_files/1103.got.cif
#   From: 2010.05.17/outbox.cif.g08.bks.cpg/sg84_1_cif.got.tgz:1103.got - 2010.06.03 18:57:40.
