data_PCOD9544394
_publ_section_title
;
Structure prediction by ZEFSAII (Michael W. Deem and Ramdas Pophale) SiO2 
 PCOD9544394
Probable space group: P 42/M
;
_chemical_formula_sum "Si O2"
_cell_formula_units_Z 26
_cell_length_a 9.043404
_cell_length_b 9.043404
_cell_length_c 15.830621
_cell_angle_alpha 90.000000
_cell_angle_beta 90.000000
_cell_angle_gamma 90.000000
_cell_volume 1294.678145
_symmetry_space_group_name_H-M "P 42/M"
_symmetry_group_IT_number 84
_symmetry_cell_setting 'tetragonal'
loop_
_space_group_symop_operation_xyz
x,y,z
-y,x,1/2+z
-x,-y,z
y,-x,1/2+z
-x,-y,-z
y,-x,1/2-z
x,y,-z
-y,x,1/2-z
loop_
_atom_site_type_symbol
_atom_site_label
_atom_site_fract_x
_atom_site_fract_y
_atom_site_fract_z
Si Si1 0.294339 0.748988 0.322298
Si Si2 0.118534 0.190534 0.500000
Si Si3 0.338899 0.957717 0.833508
Si Si4 0.500000 0.500000 0.750000
Si Si5 0.874011 0.761827 0.000000
O O1 0.345821 0.864507 0.251709
O O2 0.384617 0.598531 0.304459
O O3 0.313376 0.809227 0.416735
O O4 0.115966 0.735436 0.313664
O O5 0.135957 0.267048 0.409174
O O6 0.938888 0.164667 0.500000
O O7 0.224974 0.049947 0.500000
O O8 0.500000 0.000000 0.865669
#
# Coordination Sequence:
#
# PCOD9544394 Si02
#       5
#     8   4   8   2   4
#     4  11  23  41  65  90 127 167 212 262 316 373
#     4   9  19  36  63  97 122 157 211 268 315 360
#     4  11  21  38  64  92 125 166 213 260 313 376
#     4  12  24  42  60  88 132 174 204 250 324 392
#     4   9  20  39  62  93 126 158 213 270 309 365
#
# _framework density 20.082211999999998
#
# number of rings (size 3 to 8) (size 9 to 14) (size 15 to 20)
#    0.000    1.538    3.077    2.308    0.000    3.692 
#    0.000    2.308    0.000    0.000    0.000    0.000 
#    0.000    0.000    0.000    0.000    0.000    0.000 
#
# Total GULP energy -145015.371373 kJ/mol
# GULP energy per Si atom -5577.514284 kJ/mol
# Density = 2.003650 g / cm^3
# Si number density = 20.082212 Si / 1000 Ang^3
#
#
#
# Elastic Constant Matrix: (Units=GPa)
#
#
# Indices 1 2 3 4 5 6 
#
# 1 70.0251 14.0940 51.4618 0.0000 0.0000 4.2308
# 2 14.0940 70.0251 51.4618 0.0000 0.0000 -4.2308
# 3 51.4618 51.4618 175.9637 0.0000 0.0000 0.0000
# 4 0.0000 0.0000 0.0000 -5.2286 0.0000 0.0000
# 5 0.0000 0.0000 0.0000 0.0000 -5.2286 0.0000
# 6 4.2308 -4.2308 0.0000 0.0000 0.0000 5.9427
#
#
#
# Elastic Compliance Matrix: (Units=1/GPa)
#
#
# Indices 1 2 3 4 5 6 
#
# 1 0.019275 -0.000763 -0.005414 0.000000 0.000000 -0.014265
# 2 -0.000763 0.019275 -0.005414 0.000000 0.000000 0.014265
# 3 -0.005414 -0.005414 0.008850 0.000000 0.000000 0.000000
# 4 0.000000 0.000000 0.000000 -0.191257 0.000000 0.000000
# 5 0.000000 0.000000 0.000000 0.000000 -0.191257 0.000000
# 6 -0.014265 0.014265 0.000000 0.000000 0.000000 0.188585
#
#
# Mechanical properties :
#
#
# Convention : Reuss Voigt Hill
#
# Bulk Modulus (GPa) = 41.29146 61.11658 51.20402
# Shear Modulus (GPa) = -43.37419 12.36353 -15.50533
#
# Velocity S-wave (km/s) = -4.65244 2.48391 -2.78167
# Velocity P-wave (km/s) = 2.87305 6.22300 3.90329
#
# Compressibility (1/GPa) = 0.02421808
#
# Stress axis : x y z
#
# Youngs Moduli (GPa) = 51.88131 51.88131 112.99770
#
# Poissons Ratio (x) = 0.03956 0.61177
# Poissons Ratio (y) = 0.03956 0.61177
# Poissons Ratio (z) = 0.28089 0.28089
#
# Static dielectric constant tensor:
#      x y z
#    x 1.787980 0.000000 0.000000 
#    y 0.000000 1.787980 0.000000 
#    z 0.000000 0.000000 1.671300 
# 
# From -- ./inp_files/3497.got.cif
#   From: 2010.05.17/outbox.cif.g08.bks.cpg/sg84_2_cif.got.tgz:3497.got - 2010.06.03 18:57:40.
