data_PCOD9544197
_publ_section_title
;
Structure prediction by ZEFSAII (Michael W. Deem and Ramdas Pophale) SiO2 
 PCOD9544197
Probable space group: P 42/M
;
_chemical_formula_sum "Si O2"
_cell_formula_units_Z 40
_cell_length_a 9.590841
_cell_length_b 9.590841
_cell_length_c 22.921090
_cell_angle_alpha 90.000000
_cell_angle_beta 90.000000
_cell_angle_gamma 90.000000
_cell_volume 2108.378839
_symmetry_space_group_name_H-M "P 42/M"
_symmetry_group_IT_number 84
_symmetry_cell_setting 'tetragonal'
loop_
_space_group_symop_operation_xyz
x,y,z
-y,x,1/2+z
-x,-y,z
y,-x,1/2+z
-x,-y,-z
y,-x,1/2-z
x,y,-z
-y,x,1/2-z
loop_
_atom_site_type_symbol
_atom_site_label
_atom_site_fract_x
_atom_site_fract_y
_atom_site_fract_z
Si Si1 0.575553 0.148655 0.500000
Si Si2 0.208591 0.836683 0.309782
Si Si3 0.832887 0.508220 0.873039
Si Si4 0.332374 0.010497 0.889412
Si Si5 0.855348 0.907478 0.000000
Si Si6 0.790241 0.837191 0.325356
O O1 0.530740 0.221915 0.439171
O O2 0.741271 0.117162 0.500000
O O3 0.500000 0.000000 0.500000
O O4 0.359879 0.799840 0.333696
O O5 0.198143 0.836187 0.240246
O O6 0.108474 0.719312 0.336383
O O7 0.179318 0.995954 0.332245
O O8 0.802182 0.369860 0.837292
O O9 0.000000 0.500000 0.879815
O O10 0.259690 0.866840 0.871690
O O11 0.500000 0.000000 0.896263
O O12 0.244607 0.062058 0.945019
O O13 0.000000 0.000000 0.000000
#
# Coordination Sequence:
#
# PCOD9544197 Si02
#       6
#     4   8   8   8   4   8
#     4  10  20  39  65 100 129 157 215 272 323 396
#     4  11  21  39  64  97 130 171 223 272 327 388
#     4   9  21  37  63  94 130 167 213 271 332 385
#     4  12  27  42  64  98 138 175 217 282 332 383
#     4  12  25  45  75  98 128 168 228 280 333 391
#     4  11  23  38  67  98 132 172 223 270 332 395
#
# _framework density 18.971923
#
# number of rings (size 3 to 8) (size 9 to 14) (size 15 to 20)
#    0.000    1.200    4.000    2.100    8.400    0.000 
#    0.000    1.000    0.000    1.200    0.000    0.000 
#    0.000    0.000    0.000    0.000    0.000    0.000 
#
# Total GULP energy -222950.659237 kJ/mol
# GULP energy per Si atom -5573.766481 kJ/mol
# Density = 1.892874 g / cm^3
# Si number density = 18.971923 Si / 1000 Ang^3
#
#
#
# Elastic Constant Matrix: (Units=GPa)
#
#
# Indices 1 2 3 4 5 6 
#
# 1 104.7174 28.9928 26.4848 0.0000 0.0000 -1.5419
# 2 28.9928 104.7174 26.4848 0.0000 0.0000 1.5419
# 3 26.4848 26.4848 81.1933 0.0000 0.0000 0.0000
# 4 0.0000 0.0000 0.0000 31.6058 0.0000 0.0000
# 5 0.0000 0.0000 0.0000 0.0000 31.6058 0.0000
# 6 -1.5419 1.5419 0.0000 0.0000 0.0000 -4.0470
#
#
#
# Elastic Compliance Matrix: (Units=1/GPa)
#
#
# Indices 1 2 3 4 5 6 
#
# 1 0.010796 -0.002208 -0.002802 0.000000 0.000000 -0.004955
# 2 -0.002208 0.010796 -0.002802 0.000000 0.000000 0.004955
# 3 -0.002802 -0.002802 0.014144 0.000000 0.000000 0.000000
# 4 0.000000 0.000000 0.000000 0.031640 0.000000 0.000000
# 5 0.000000 0.000000 0.000000 0.000000 0.031640 0.000000
# 6 -0.004955 0.004955 0.000000 0.000000 0.000000 -0.243323
#
#
# Mechanical properties :
#
#
# Convention : Reuss Voigt Hill
#
# Bulk Modulus (GPa) = 49.71395 50.50590 50.10992
# Shear Modulus (GPa) = -40.99024 25.74395 -7.62314
#
# Velocity S-wave (km/s) = -4.65324 3.68768 -2.00670
# Velocity P-wave (km/s) = 1.61535 6.69411 4.59357
#
# Compressibility (1/GPa) = 0.02011508
#
# Stress axis : x y z
#
# Youngs Moduli (GPa) = 92.62395 92.62395 70.70122
#
# Poissons Ratio (x) = 0.20448 0.19808
# Poissons Ratio (y) = 0.20448 0.19808
# Poissons Ratio (z) = 0.25949 0.25949
#
# Static dielectric constant tensor:
#      x y z
#    x 1.718390 0.000000 0.000000 
#    y 0.000000 1.718390 0.000000 
#    z 0.000000 0.000000 1.700890 
# 
# From -- ./inp_files/4882.got.cif
#   From: 2010.05.17/outbox.cif.g08.bks.cpg/sg84_3_cif.got.tgz:4882.got - 2010.06.03 18:57:40.
