data_PCOD9544266
_publ_section_title
;
Structure prediction by ZEFSAII (Michael W. Deem and Ramdas Pophale) SiO2 
 PCOD9544266
Probable space group: P 42/M
;
_chemical_formula_sum "Si O2"
_cell_formula_units_Z 40
_cell_length_a 15.016600
_cell_length_b 15.016600
_cell_length_c 8.596643
_cell_angle_alpha 90.000000
_cell_angle_beta 90.000000
_cell_angle_gamma 90.000000
_cell_volume 1938.528172
_symmetry_space_group_name_H-M "P 42/M"
_symmetry_group_IT_number 84
_symmetry_cell_setting 'tetragonal'
loop_
_space_group_symop_operation_xyz
x,y,z
-y,x,1/2+z
-x,-y,z
y,-x,1/2+z
-x,-y,-z
y,-x,1/2-z
x,y,-z
-y,x,1/2-z
loop_
_atom_site_type_symbol
_atom_site_label
_atom_site_fract_x
_atom_site_fract_y
_atom_site_fract_z
Si Si1 0.614839 0.263859 0.182599
Si Si2 0.713993 0.102777 0.682466
Si Si3 0.255352 0.589024 0.315918
Si Si4 0.055846 0.588431 0.812445
Si Si5 0.083845 0.103400 0.679001
O O1 0.641324 0.177566 0.281864
O O2 0.682697 0.341804 0.226167
O O3 0.512158 0.286896 0.213552
O O4 0.622445 0.241581 0.000000
O O5 0.735138 0.100974 0.500000
O O6 0.802833 0.125743 0.776386
O O7 0.672029 0.007522 0.726020
O O8 0.261452 0.607373 0.500000
O O9 0.152218 0.594121 0.264527
O O10 0.000000 0.500000 0.767055
O O11 0.066609 0.585705 0.000000
O O12 0.099950 0.080234 0.500000
O O13 0.978361 0.113194 0.713295
#
# Coordination Sequence:
#
# PCOD9544266 Si02
#       5
#     8   8   8   8   8
#     4  11  25  44  66  94 129 168 215 269 325 386
#     4  11  23  40  64  93 126 165 211 262 318 381
#     4  11  25  43  67  97 129 169 214 266 322 382
#     4  10  21  40  66  94 126 164 203 252 313 372
#     4  11  23  41  62  87 124 167 213 261 314 376
#
# _framework density 20.634212000000002
#
# number of rings (size 3 to 8) (size 9 to 14) (size 15 to 20)
#    0.000    1.200    2.000    4.200    2.800    4.800 
#    0.000    2.000    0.000    0.000    0.000    0.000 
#    0.000    0.000    0.000    0.000    0.000    0.000 
#
# Total GULP energy -223752.178762 kJ/mol
# GULP energy per Si atom -5593.804469 kJ/mol
# Density = 2.058725 g / cm^3
# Si number density = 20.634212 Si / 1000 Ang^3
#
#
#
# Elastic Constant Matrix: (Units=GPa)
#
#
# Indices 1 2 3 4 5 6 
#
# 1 61.8611 13.1814 8.7784 0.0000 0.0000 -7.9126
# 2 13.1814 61.8611 8.7784 0.0000 0.0000 7.9126
# 3 8.7784 8.7784 35.1513 0.0000 0.0000 0.0000
# 4 0.0000 0.0000 0.0000 27.0732 0.0000 0.0000
# 5 0.0000 0.0000 0.0000 0.0000 27.0732 0.0000
# 6 -7.9126 7.9126 0.0000 0.0000 0.0000 28.9970
#
#
#
# Elastic Compliance Matrix: (Units=1/GPa)
#
#
# Indices 1 2 3 4 5 6 
#
# 1 0.018347 -0.004195 -0.003534 0.000000 0.000000 0.006151
# 2 -0.004195 0.018347 -0.003534 0.000000 0.000000 -0.006151
# 3 -0.003534 -0.003534 0.030214 0.000000 0.000000 0.000000
# 4 0.000000 0.000000 0.000000 0.036937 0.000000 0.000000
# 5 0.000000 0.000000 0.000000 0.000000 0.036937 0.000000
# 6 0.006151 -0.006151 0.000000 0.000000 0.000000 0.037843
#
#
# Mechanical properties :
#
#
# Convention : Reuss Voigt Hill
#
# Bulk Modulus (GPa) = 22.53186 24.48332 23.50759
# Shear Modulus (GPa) = 23.15389 25.17105 24.16247
#
# Velocity S-wave (km/s) = 3.35343 3.49645 3.42569
# Velocity P-wave (km/s) = 5.09287 5.30956 5.20234
#
# Compressibility (1/GPa) = 0.04438160
#
# Stress axis : x y z
#
# Youngs Moduli (GPa) = 54.50360 54.50360 33.09747
#
# Poissons Ratio (x) = 0.22863 0.11698
# Poissons Ratio (y) = 0.22863 0.11698
# Poissons Ratio (z) = 0.19264 0.19264
#
# Static dielectric constant tensor:
#      x y z
#    x 1.731910 0.000000 0.000000 
#    y 0.000000 1.731910 0.000000 
#    z 0.000000 0.000000 1.704830 
# 
# From -- ./inp_files/808.got.cif
#   From: 2010.05.17/outbox.cif.g08.bks.cpg/sg84_1_cif.got.tgz:808.got - 2010.06.03 18:57:40.
