data_PCOD9544738
_publ_section_title
;
Structure prediction by ZEFSAII (Michael W. Deem and Ramdas Pophale) SiO2 
 PCOD9544738
Probable space group: P 4/N
;
_chemical_formula_sum "Si O2"
_cell_formula_units_Z 56
_cell_length_a 15.546989
_cell_length_b 15.546989
_cell_length_c 11.310350
_cell_angle_alpha 90.000000
_cell_angle_beta 90.000000
_cell_angle_gamma 90.000000
_cell_volume 2733.811883
_symmetry_space_group_name_H-M "P 4/N"
_symmetry_group_IT_number 85
_symmetry_cell_setting 'tetragonal'
loop_
_space_group_symop_operation_xyz
x,y,z
1/2-y,x,z
1/2-x,1/2-y,z
y,1/2-x,z
-x,-y,-z
1/2+y,-x,-z
1/2+x,1/2+y,-z
-y,1/2+x,-z
loop_
_atom_site_type_symbol
_atom_site_label
_atom_site_fract_x
_atom_site_fract_y
_atom_site_fract_z
Si Si1 0.612801 0.778146 0.265176
Si Si2 0.070694 0.717052 0.139794
Si Si3 0.039636 0.378785 0.541961
Si Si4 0.411801 0.861924 0.889271
Si Si5 0.469806 0.476474 0.298284
Si Si6 0.917297 0.185404 0.248807
Si Si7 0.123312 0.721375 0.516824
O O1 0.652580 0.685990 0.234698
O O2 0.521717 0.785111 0.201866
O O3 0.595918 0.801997 0.403244
O O4 0.101942 0.814115 0.113520
O O5 0.142264 0.674045 0.222395
O O6 0.064983 0.653944 0.026056
O O7 0.054680 0.409744 0.408139
O O8 0.036270 0.459348 0.633093
O O9 0.943527 0.341498 0.541178
O O10 0.469970 0.921807 0.803775
O O11 0.423693 0.765856 0.837929
O O12 0.514891 0.392316 0.243693
O O13 0.920899 0.228316 0.377286
O O14 0.164318 0.796749 0.438083
#
# Coordination Sequence:
#
# PCOD9544738 Si02
#       7
#     8   8   8   8   8   8   8
#     4  11  26  45  70 102 140 191 238 289 349 421
#     4  12  26  46  72 102 140 180 239 300 359 423
#     4  11  23  41  65  98 138 185 226 284 345 427
#     4  12  27  45  74  99 140 182 234 303 356 423
#     4  11  25  43  66 102 143 182 232 281 356 432
#     4  12  25  43  64 108 138 187 235 289 365 419
#     4  11  23  36  64 101 137 180 221 286 355 415
#
# _framework density 20.484219
#
# number of rings (size 3 to 8) (size 9 to 14) (size 15 to 20)
#    0.000    0.571    5.714    1.286    8.000    1.714 
#    0.000    0.000    0.000    0.429    0.000    0.000 
#    0.000    0.000    0.000    0.000    0.000    0.000 
#
# Total GULP energy -312615.987546 kJ/mol
# GULP energy per Si atom -5582.428349 kJ/mol
# Density = 2.043760 g / cm^3
# Si number density = 20.484219 Si / 1000 Ang^3
#
#
#
# Elastic Constant Matrix: (Units=GPa)
#
#
# Indices 1 2 3 4 5 6 
#
# 1 78.0610 37.2033 31.2629 0.0000 0.0000 -4.7892
# 2 37.2033 78.0610 31.2629 0.0000 0.0000 4.7892
# 3 31.2629 31.2629 88.3107 0.0000 0.0000 0.0000
# 4 0.0000 0.0000 0.0000 28.6796 0.0000 0.0000
# 5 0.0000 0.0000 0.0000 0.0000 28.6796 0.0000
# 6 -4.7892 4.7892 0.0000 0.0000 0.0000 33.7207
#
#
#
# Elastic Compliance Matrix: (Units=1/GPa)
#
#
# Indices 1 2 3 4 5 6 
#
# 1 0.018028 -0.007290 -0.003801 0.000000 0.000000 0.003596
# 2 -0.007290 0.018028 -0.003801 0.000000 0.000000 -0.003596
# 3 -0.003801 -0.003801 0.014015 0.000000 0.000000 0.000000
# 4 0.000000 0.000000 0.000000 0.034868 0.000000 0.000000
# 5 0.000000 0.000000 0.000000 0.000000 0.034868 0.000000
# 6 0.003596 -0.003596 0.000000 0.000000 0.000000 0.030677
#
#
# Mechanical properties :
#
#
# Convention : Reuss Voigt Hill
#
# Bulk Modulus (GPa) = 49.29650 49.32123 49.30887
# Shear Modulus (GPa) = 26.73353 27.86287 27.29820
#
# Velocity S-wave (km/s) = 3.61651 3.69211 3.65450
# Velocity P-wave (km/s) = 6.44645 6.50427 6.47542
#
# Compressibility (1/GPa) = 0.02028542
#
# Stress axis : x y z
#
# Youngs Moduli (GPa) = 55.46943 55.46943 71.35190
#
# Poissons Ratio (x) = 0.40438 0.27123
# Poissons Ratio (y) = 0.40438 0.27123
# Poissons Ratio (z) = 0.21085 0.21085
#
# Static dielectric constant tensor:
#      x y z
#    x 1.739400 0.000000 0.000000 
#    y 0.000000 1.739400 0.000000 
#    z 0.000000 0.000000 1.788550 
# 
# From -- ./inp_files/1753.got.cif
#   From: 2010.05.17/outbox.cif.g08.bks.cpg/sg85_cif.got.tgz:1753.got - 2010.06.03 19:01:16.
