data_PCOD9544609
_publ_section_title
;
Structure prediction by ZEFSAII (Michael W. Deem and Ramdas Pophale) SiO2 
 PCOD9544609
Probable space group: P 4/N
;
_chemical_formula_sum "Si O2"
_cell_formula_units_Z 36
_cell_length_a 14.611151
_cell_length_b 14.611151
_cell_length_c 7.456074
_cell_angle_alpha 90.000000
_cell_angle_beta 90.000000
_cell_angle_gamma 90.000000
_cell_volume 1591.765427
_symmetry_space_group_name_H-M "P 4/N"
_symmetry_group_IT_number 85
_symmetry_cell_setting 'tetragonal'
loop_
_space_group_symop_operation_xyz
x,y,z
1/2-y,x,z
1/2-x,1/2-y,z
y,1/2-x,z
-x,-y,-z
1/2+y,-x,-z
1/2+x,1/2+y,-z
-y,1/2+x,-z
loop_
_atom_site_type_symbol
_atom_site_label
_atom_site_fract_x
_atom_site_fract_y
_atom_site_fract_z
Si Si1 0.750000 0.750000 0.650966
Si Si2 0.922272 0.887920 0.605089
Si Si3 0.495294 0.134196 0.072990
Si Si4 0.750000 0.250000 0.000000
Si Si5 0.429306 0.669541 0.864337
Si Si6 0.858334 0.640221 0.230273
O O1 0.847346 0.808354 0.646410
O O2 0.913337 0.904213 0.393908
O O3 0.020590 0.856619 0.680030
O O4 0.892863 0.974411 0.724186
O O5 0.579236 0.079293 0.986969
O O6 0.403494 0.116867 0.958388
O O7 0.516978 0.242177 0.060423
O O8 0.794415 0.325454 0.870171
O O9 0.872834 0.749679 0.248679
#
# Coordination Sequence:
#
# PCOD9544609 Si02
#       6
#     2   8   8   2   8   8
#     4  12  20  36  62  92 128 162 196 260 338 376
#     4  12  21  39  61  90 126 162 202 262 325 382
#     4  11  23  38  62  87 123 166 214 258 319 374
#     4   8  20  40  64  92 126 172 224 266 312 372
#     4  10  21  40  62  90 124 169 217 266 311 379
#     4  11  22  36  59  92 125 160 203 258 323 382
#
# _framework density 22.616396999999999
#
# number of rings (size 3 to 8) (size 9 to 14) (size 15 to 20)
#    0.000    1.111    4.444    2.000    0.000    0.889 
#    0.000    2.222    0.000    0.000    0.000   28.000 
#    0.000    0.000    0.000    0.000    0.000    0.000 
#
# Total GULP energy -200700.423790 kJ/mol
# GULP energy per Si atom -5575.011772 kJ/mol
# Density = 2.256492 g / cm^3
# Si number density = 22.616397 Si / 1000 Ang^3
#
#
#
# Elastic Constant Matrix: (Units=GPa)
#
#
# Indices 1 2 3 4 5 6 
#
# 1 80.7747 13.0656 -1.5485 0.0000 0.0000 -1.6795
# 2 13.0656 80.7747 -1.5485 0.0000 0.0000 1.6795
# 3 -1.5485 -1.5485 43.8165 0.0000 0.0000 0.0000
# 4 0.0000 0.0000 0.0000 15.9309 0.0000 0.0000
# 5 0.0000 0.0000 0.0000 0.0000 15.9309 0.0000
# 6 -1.6795 1.6795 0.0000 0.0000 0.0000 39.4124
#
#
#
# Elastic Compliance Matrix: (Units=1/GPa)
#
#
# Indices 1 2 3 4 5 6 
#
# 1 0.012735 -0.002066 0.000377 0.000000 0.000000 0.000631
# 2 -0.002066 0.012735 0.000377 0.000000 0.000000 -0.000631
# 3 0.000377 0.000377 0.022849 0.000000 0.000000 0.000000
# 4 0.000000 0.000000 0.000000 0.062771 0.000000 0.000000
# 5 0.000000 0.000000 0.000000 0.000000 0.062771 0.000000
# 6 0.000631 -0.000631 0.000000 0.000000 0.000000 0.025426
#
#
# Mechanical properties :
#
#
# Convention : Reuss Voigt Hill
#
# Bulk Modulus (GPa) = 21.88424 25.03367 23.45896
# Shear Modulus (GPa) = 23.02643 27.28135 25.15389
#
# Velocity S-wave (km/s) = 3.19428 3.47690 3.33858
# Velocity P-wave (km/s) = 4.82720 5.21644 5.02559
#
# Compressibility (1/GPa) = 0.04569499
#
# Stress axis : x y z
#
# Youngs Moduli (GPa) = 78.52627 78.52627 43.76538
#
# Poissons Ratio (x) = 0.16222 -0.01650
# Poissons Ratio (y) = 0.16222 -0.01650
# Poissons Ratio (z) = -0.02961 -0.02961
#
# Static dielectric constant tensor:
#      x y z
#    x 1.855700 0.000000 0.000000 
#    y 0.000000 1.855700 0.000000 
#    z 0.000000 0.000000 1.822180 
# 
# From -- ./inp_files/843.got.cif
#   From: 2010.05.17/outbox.cif.g08.bks.cpg/sg85_cif.got.tgz:843.got - 2010.06.03 19:01:16.
