data_PCOD9544883
_publ_section_title
;
Structure prediction by ZEFSAII (Michael W. Deem and Ramdas Pophale) SiO2 
 PCOD9544883
Probable space group: P 42/N
;
_chemical_formula_sum "Si O2"
_cell_formula_units_Z 36
_cell_length_a 13.550713
_cell_length_b 13.550713
_cell_length_c 7.845700
_cell_angle_alpha 90.000000
_cell_angle_beta 90.000000
_cell_angle_gamma 90.000000
_cell_volume 1440.641735
_symmetry_space_group_name_H-M "P 42/N"
_symmetry_group_IT_number 86
_space_group.IT_coordinate_system_code '2'
_symmetry_cell_setting 'tetragonal'
loop_
_space_group_symop_operation_xyz
x,y,z
-y,1/2+x,1/2+z
1/2-x,1/2-y,z
1/2+y,-x,1/2+z
-x,-y,-z
y,1/2-x,1/2-z
1/2+x,1/2+y,-z
1/2-y,x,1/2-z
loop_
_atom_site_type_symbol
_atom_site_label
_atom_site_fract_x
_atom_site_fract_y
_atom_site_fract_z
Si Si1 0.250000 0.750000 0.853144
Si Si2 0.966696 0.867086 0.067850
Si Si3 0.634188 0.968196 0.831226
Si Si4 0.139434 0.023953 0.633169
Si Si5 0.417607 0.816581 0.603489
O O1 0.347928 0.787731 0.760495
O O2 0.213516 0.845748 0.951576
O O3 0.994297 0.755365 0.122614
O O4 0.888314 0.910765 0.201207
O O5 0.066809 0.930271 0.095285
O O6 0.941263 0.862648 0.867938
O O7 0.573766 0.071639 0.853492
O O8 0.745587 0.989255 0.891054
O O9 0.580160 0.894038 0.960294
#
# Coordination Sequence:
#
# PCOD9544883 Si02
#       5
#     4   8   8   8   8
#     4  10  18  30  58 102 148 170 234 302 376 436
#     4  12  27  48  79 108 159 205 261 318 392 464
#     4  11  26  46  75 114 158 195 259 323 394 462
#     4  11  28  49  73 115 156 208 259 321 392 471
#     4  11  21  38  68 110 142 191 243 315 382 445
#
# _framework density 24.988862000000001
#
# number of rings (size 3 to 8) (size 9 to 14) (size 15 to 20)
#    0.000    0.889    2.222    4.667    9.333    2.222 
#    0.000    0.000    0.000    0.000    0.000    0.000 
#    0.000    0.000    0.000    0.000    0.000    0.000 
#
# Total GULP energy -201975.552618 kJ/mol
# GULP energy per Si atom -5610.432017 kJ/mol
# Density = 2.493199 g / cm^3
# Si number density = 24.988862 Si / 1000 Ang^3
#
#
#
# Elastic Constant Matrix: (Units=GPa)
#
#
# Indices 1 2 3 4 5 6 
#
# 1 114.3644 32.3187 34.7121 0.0000 0.0000 1.8561
# 2 32.3187 114.3644 34.7121 0.0000 0.0000 -1.8561
# 3 34.7121 34.7121 157.5728 0.0000 0.0000 0.0000
# 4 0.0000 0.0000 0.0000 41.5569 0.0000 0.0000
# 5 0.0000 0.0000 0.0000 0.0000 41.5569 0.0000
# 6 1.8561 -1.8561 0.0000 0.0000 0.0000 36.6640
#
#
#
# Elastic Compliance Matrix: (Units=1/GPa)
#
#
# Indices 1 2 3 4 5 6 
#
# 1 0.009914 -0.002303 -0.001677 0.000000 0.000000 -0.000618
# 2 -0.002303 0.009914 -0.001677 0.000000 0.000000 0.000618
# 3 -0.001677 -0.001677 0.007085 0.000000 0.000000 0.000000
# 4 0.000000 0.000000 0.000000 0.024063 0.000000 0.000000
# 5 0.000000 0.000000 0.000000 0.000000 0.024063 0.000000
# 6 -0.000618 0.000618 0.000000 0.000000 0.000000 0.027337
#
#
# Mechanical properties :
#
#
# Convention : Reuss Voigt Hill
#
# Bulk Modulus (GPa) = 64.10115 65.53194 64.81655
# Shear Modulus (GPa) = 42.05627 42.92615 42.49121
#
# Velocity S-wave (km/s) = 4.10689 4.14915 4.12807
# Velocity P-wave (km/s) = 6.94236 7.01678 6.97967
#
# Compressibility (1/GPa) = 0.01560034
#
# Stress axis : x y z
#
# Youngs Moduli (GPa) = 100.87116 100.87116 141.14379
#
# Poissons Ratio (x) = 0.23227 0.23665
# Poissons Ratio (y) = 0.23227 0.23665
# Poissons Ratio (z) = 0.16912 0.16912
#
# Static dielectric constant tensor:
#      x y z
#    x 1.915900 0.000000 0.000000 
#    y 0.000000 1.915900 0.000000 
#    z 0.000000 0.000000 2.034460 
# 
# From -- ./inp_files/1046.got.cif
#   From: 2010.05.17/outbox.cif.g08.bks.cpg/sg86_1_cif.got.tgz:1046.got - 2010.06.03 19:03:11.
