data_PCOD9544713
_publ_section_title
;
Structure prediction by ZEFSAII (Michael W. Deem and Ramdas Pophale) SiO2 
 PCOD9544713
Probable space group: P 4/N
;
_chemical_formula_sum "Si O2"
_cell_formula_units_Z 34
_cell_length_a 16.590678
_cell_length_b 16.590678
_cell_length_c 6.775438
_cell_angle_alpha 90.000000
_cell_angle_beta 90.000000
_cell_angle_gamma 90.000000
_cell_volume 1864.943351
_symmetry_space_group_name_H-M "P 4/N"
_symmetry_group_IT_number 85
_symmetry_cell_setting 'tetragonal'
loop_
_space_group_symop_operation_xyz
x,y,z
1/2-y,x,z
1/2-x,1/2-y,z
y,1/2-x,z
-x,-y,-z
1/2+y,-x,-z
1/2+x,1/2+y,-z
-y,1/2+x,-z
loop_
_atom_site_type_symbol
_atom_site_label
_atom_site_fract_x
_atom_site_fract_y
_atom_site_fract_z
Si Si1 0.554886 0.151499 0.432020
Si Si2 0.123145 0.397392 0.559502
Si Si3 0.553102 0.333107 0.298276
Si Si4 0.517191 0.413935 0.898759
Si Si5 0.250000 0.250000 0.556711
O O1 0.462652 0.140210 0.499160
O O2 0.569037 0.241267 0.356283
O O3 0.611021 0.123539 0.612829
O O4 0.573511 0.088843 0.256891
O O5 0.141126 0.469965 0.406769
O O6 0.114203 0.439901 0.772903
O O7 0.192429 0.331384 0.556313
O O8 0.541005 0.351060 0.068150
O O9 0.500000 0.500000 0.000000
#
# Coordination Sequence:
#
# PCOD9544713 Si02
#       5
#     8   8   8   8   2
#     4  11  23  40  66  92 125 174 218 266 326 388
#     4  11  22  41  65  95 130 172 205 263 333 397
#     4  11  23  42  65  91 129 169 219 269 322 392
#     4  11  21  39  68  93 124 173 220 259 324 396
#     4  12  24  40  66 104 140 154 216 276 330 408
#
# _framework density 18.231117000000001
#
# number of rings (size 3 to 8) (size 9 to 14) (size 15 to 20)
#    0.000    0.941    7.059    1.412    0.000    6.118 
#    0.000    1.176    0.000    0.000    0.000    0.000 
#    0.000    0.000    0.000    0.000    0.000    0.000 
#
# Total GULP energy -189447.911857 kJ/mol
# GULP energy per Si atom -5571.997408 kJ/mol
# Density = 1.818962 g / cm^3
# Si number density = 18.231117 Si / 1000 Ang^3
#
#
#
# Elastic Constant Matrix: (Units=GPa)
#
#
# Indices 1 2 3 4 5 6 
#
# 1 99.4062 13.2258 15.8525 0.0000 0.0000 3.8758
# 2 13.2258 99.4062 15.8525 0.0000 0.0000 -3.8758
# 3 15.8525 15.8525 95.0625 0.0000 0.0000 0.0000
# 4 0.0000 0.0000 0.0000 17.5007 0.0000 0.0000
# 5 0.0000 0.0000 0.0000 0.0000 17.5007 0.0000
# 6 3.8758 -3.8758 0.0000 0.0000 0.0000 44.2871
#
#
#
# Elastic Compliance Matrix: (Units=1/GPa)
#
#
# Indices 1 2 3 4 5 6 
#
# 1 0.010506 -0.001190 -0.001553 0.000000 0.000000 -0.001024
# 2 -0.001190 0.010506 -0.001553 0.000000 0.000000 0.001024
# 3 -0.001553 -0.001553 0.011038 0.000000 0.000000 0.000000
# 4 0.000000 0.000000 0.000000 0.057141 0.000000 0.000000
# 5 0.000000 0.000000 0.000000 0.000000 0.057141 0.000000
# 6 -0.001024 0.001024 0.000000 0.000000 0.000000 0.022759
#
#
# Mechanical properties :
#
#
# Convention : Reuss Voigt Hill
#
# Bulk Modulus (GPa) = 42.63466 42.63739 42.63602
# Shear Modulus (GPa) = 26.95400 32.45397 29.70399
#
# Velocity S-wave (km/s) = 3.84925 4.22375 4.04084
# Velocity P-wave (km/s) = 6.57206 6.87202 6.72372
#
# Compressibility (1/GPa) = 0.02345510
#
# Stress axis : x y z
#
# Youngs Moduli (GPa) = 95.18639 95.18639 90.60017
#
# Poissons Ratio (x) = 0.11327 0.14075
# Poissons Ratio (y) = 0.11327 0.14075
# Poissons Ratio (z) = 0.14787 0.14787
#
# Static dielectric constant tensor:
#      x y z
#    x 1.611430 0.000000 0.000000 
#    y 0.000000 1.611430 0.000000 
#    z 0.000000 0.000000 1.623400 
# 
# From -- ./inp_files/318.got.cif
#   From: 2010.05.17/outbox.cif.g08.bks.cpg/sg85_cif.got.tgz:318.got - 2010.06.03 19:01:16.
