data_PCOD9544615
_publ_section_title
;
Structure prediction by ZEFSAII (Michael W. Deem and Ramdas Pophale) SiO2 
 PCOD9544615
Probable space group: P 4/N
;
_chemical_formula_sum "Si O2"
_cell_formula_units_Z 40
_cell_length_a 14.828249
_cell_length_b 14.828249
_cell_length_c 8.935074
_cell_angle_alpha 90.000000
_cell_angle_beta 90.000000
_cell_angle_gamma 90.000000
_cell_volume 1964.616984
_symmetry_space_group_name_H-M "P 4/N"
_symmetry_group_IT_number 85
_symmetry_cell_setting 'tetragonal'
loop_
_space_group_symop_operation_xyz
x,y,z
1/2-y,x,z
1/2-x,1/2-y,z
y,1/2-x,z
-x,-y,-z
1/2+y,-x,-z
1/2+x,1/2+y,-z
-y,1/2+x,-z
loop_
_atom_site_type_symbol
_atom_site_label
_atom_site_fract_x
_atom_site_fract_y
_atom_site_fract_z
Si Si1 0.186705 0.877225 0.444445
Si Si2 0.901733 0.550460 0.676585
Si Si3 0.460834 0.099191 0.627740
Si Si4 0.294475 0.394614 0.905384
Si Si5 0.787927 0.002576 0.811737
O O1 0.287192 0.864108 0.507563
O O2 0.143374 0.960738 0.529187
O O3 0.186101 0.903207 0.268630
O O4 0.891888 0.560408 0.496446
O O5 0.814077 0.513970 0.758730
O O6 0.926284 0.648736 0.737600
O O7 0.987708 0.484815 0.705564
O O8 0.423263 0.173094 0.740596
O O9 0.192941 0.358247 0.931417
O O10 0.303096 0.481115 0.014313
#
# Coordination Sequence:
#
# PCOD9544615 Si02
#       5
#     8   8   8   8   8
#     4  10  21  40  66  92 123 164 214 270 317 381
#     4  10  22  39  66  93 121 170 213 263 316 385
#     4  10  23  41  63  95 125 161 221 262 322 383
#     4  11  25  42  60  92 131 169 207 265 329 392
#     4  11  21  41  63  91 131 166 212 258 326 390
#
# _framework density 20.360202999999998
#
# number of rings (size 3 to 8) (size 9 to 14) (size 15 to 20)
#    0.000    1.600    4.000    0.000    5.600    1.200 
#    3.600    0.000    0.000    2.400    0.000    0.000 
#    0.000    0.000    0.000    0.000    0.000    0.000 
#
# Total GULP energy -222931.470120 kJ/mol
# GULP energy per Si atom -5573.286753 kJ/mol
# Density = 2.031386 g / cm^3
# Si number density = 20.360203 Si / 1000 Ang^3
#
#
#
# Elastic Constant Matrix: (Units=GPa)
#
#
# Indices 1 2 3 4 5 6 
#
# 1 33.9627 7.2906 10.4381 0.0000 0.0000 -12.4887
# 2 7.2906 33.9627 10.4381 0.0000 0.0000 12.4887
# 3 10.4381 10.4381 58.2622 0.0000 0.0000 0.0000
# 4 0.0000 0.0000 0.0000 24.0518 0.0000 0.0000
# 5 0.0000 0.0000 0.0000 0.0000 24.0518 0.0000
# 6 -12.4887 12.4887 0.0000 0.0000 0.0000 26.1093
#
#
#
# Elastic Compliance Matrix: (Units=1/GPa)
#
#
# Indices 1 2 3 4 5 6 
#
# 1 0.047285 -0.020628 -0.004776 0.000000 0.000000 0.032484
# 2 -0.020628 0.047285 -0.004776 0.000000 0.000000 -0.032484
# 3 -0.004776 -0.004776 0.018875 0.000000 0.000000 0.000000
# 4 0.000000 0.000000 0.000000 0.041577 0.000000 0.000000
# 5 0.000000 0.000000 0.000000 0.000000 0.041577 0.000000
# 6 0.032484 -0.032484 0.000000 0.000000 0.000000 0.069377
#
#
# Mechanical properties :
#
#
# Convention : Reuss Voigt Hill
#
# Bulk Modulus (GPa) = 18.83728 20.28014 19.55871
# Shear Modulus (GPa) = 14.53365 21.37730 17.95548
#
# Velocity S-wave (km/s) = 2.67465 3.24382 2.97289
# Velocity P-wave (km/s) = 4.33710 4.90021 4.62723
#
# Compressibility (1/GPa) = 0.05308623
#
# Stress axis : x y z
#
# Youngs Moduli (GPa) = 21.14842 21.14842 52.97996
#
# Poissons Ratio (x) = 0.43624 0.25303
# Poissons Ratio (y) = 0.43624 0.25303
# Poissons Ratio (z) = 0.10100 0.10100
#
# Static dielectric constant tensor:
#      x y z
#    x 1.749170 0.000000 0.000000 
#    y 0.000000 1.749170 0.000000 
#    z 0.000000 0.000000 1.772090 
# 
# From -- ./inp_files/927.got.cif
#   From: 2010.05.17/outbox.cif.g08.bks.cpg/sg85_cif.got.tgz:927.got - 2010.06.03 19:01:16.
