data_PCOD9544170
_publ_section_title
;
Structure prediction by ZEFSAII (Michael W. Deem and Ramdas Pophale) SiO2 
 PCOD9544170
Probable space group: P 42/M
;
_chemical_formula_sum "Si O2"
_cell_formula_units_Z 34
_cell_length_a 9.486958
_cell_length_b 9.486958
_cell_length_c 18.871841
_cell_angle_alpha 90.000000
_cell_angle_beta 90.000000
_cell_angle_gamma 90.000000
_cell_volume 1698.510456
_symmetry_space_group_name_H-M "P 42/M"
_symmetry_group_IT_number 84
_symmetry_cell_setting 'tetragonal'
loop_
_space_group_symop_operation_xyz
x,y,z
-y,x,1/2+z
-x,-y,z
y,-x,1/2+z
-x,-y,-z
y,-x,1/2-z
x,y,-z
-y,x,1/2-z
loop_
_atom_site_type_symbol
_atom_site_label
_atom_site_fract_x
_atom_site_fract_y
_atom_site_fract_z
Si Si1 0.224961 0.052751 0.754118
Si Si2 0.852514 0.420389 0.500000
Si Si3 0.363254 0.930698 0.380550
Si Si4 0.625559 0.722740 0.147114
Si Si5 0.914013 0.859693 0.000000
Si Si6 0.500000 0.500000 0.250000
O O1 0.306869 0.138922 0.814749
O O2 0.096033 0.150947 0.725984
O O3 0.331290 0.011435 0.692142
O O4 0.766694 0.445422 0.572937
O O5 0.882700 0.253095 0.500000
O O6 0.000000 0.500000 0.500000
O O7 0.374077 0.763117 0.368497
O O8 0.230470 0.949674 0.431062
O O9 0.500000 0.000000 0.413424
O O10 0.527162 0.635982 0.200406
O O11 0.000000 0.000000 0.000000
#
# Coordination Sequence:
#
# PCOD9544170 Si02
#       6
#     8   4   8   8   4   2
#     4   9  19  34  60  90 121 157 206 267 327 377
#     4  10  24  44  63  92 129 168 214 268 326 395
#     4  10  20  37  60  89 123 161 206 264 326 377
#     4  10  23  40  61  89 130 163 220 266 314 393
#     4  10  23  39  63  92 128 162 213 269 317 383
#     4  12  24  42  60  88 124 178 216 264 324 382
#
# _framework density 20.017537000000001
#
# number of rings (size 3 to 8) (size 9 to 14) (size 15 to 20)
#    0.000    2.118    0.000    1.765    9.882    5.176 
#    4.235    0.000    0.000    0.000    0.000    0.000 
#    0.000    0.000    0.000    0.000    0.000    0.000 
#
# Total GULP energy -189840.680139 kJ/mol
# GULP energy per Si atom -5583.549416 kJ/mol
# Density = 1.997198 g / cm^3
# Si number density = 20.017537 Si / 1000 Ang^3
#
#
#
# Elastic Constant Matrix: (Units=GPa)
#
#
# Indices 1 2 3 4 5 6 
#
# 1 61.0230 41.2129 44.4928 0.0000 0.0000 4.8853
# 2 41.2129 61.0230 44.4928 0.0000 0.0000 -4.8853
# 3 44.4928 44.4928 123.2034 0.0000 0.0000 0.0000
# 4 0.0000 0.0000 0.0000 26.1710 0.0000 0.0000
# 5 0.0000 0.0000 0.0000 0.0000 26.1710 0.0000
# 6 4.8853 -4.8853 0.0000 0.0000 0.0000 25.1850
#
#
#
# Elastic Compliance Matrix: (Units=1/GPa)
#
#
# Indices 1 2 3 4 5 6 
#
# 1 0.035043 -0.020777 -0.005152 0.000000 0.000000 -0.010828
# 2 -0.020777 0.035043 -0.005152 0.000000 0.000000 0.010828
# 3 -0.005152 -0.005152 0.011838 0.000000 0.000000 0.000000
# 4 0.000000 0.000000 0.000000 0.038210 0.000000 0.000000
# 5 0.000000 0.000000 0.000000 0.000000 0.038210 0.000000
# 6 -0.010828 0.010828 0.000000 0.000000 0.000000 0.043907
#
#
# Mechanical properties :
#
#
# Convention : Reuss Voigt Hill
#
# Bulk Modulus (GPa) = 50.60362 56.18297 53.39329
# Shear Modulus (GPa) = 18.45029 23.17544 20.81287
#
# Velocity S-wave (km/s) = 3.03926 3.40627 3.22799
# Velocity P-wave (km/s) = 6.13601 6.60288 6.37372
#
# Compressibility (1/GPa) = 0.01976143
#
# Stress axis : x y z
#
# Youngs Moduli (GPa) = 28.53675 28.53675 84.47707
#
# Poissons Ratio (x) = 0.59292 0.43520
# Poissons Ratio (y) = 0.59292 0.43520
# Poissons Ratio (z) = 0.14701 0.14701
#
# Static dielectric constant tensor:
#      x y z
#    x 1.712300 0.000000 0.000000 
#    y 0.000000 1.712300 0.000000 
#    z 0.000000 0.000000 1.725550 
# 
# From -- ./inp_files/4294.got.cif
#   From: 2010.05.17/outbox.cif.g08.bks.cpg/sg84_3_cif.got.tgz:4294.got - 2010.06.03 18:57:40.
