data_PCOD9544398
_publ_section_title
;
Structure prediction by ZEFSAII (Michael W. Deem and Ramdas Pophale) SiO2 
 PCOD9544398
Probable space group: P 42/M
;
_chemical_formula_sum "Si O2"
_cell_formula_units_Z 48
_cell_length_a 9.068383
_cell_length_b 9.068383
_cell_length_c 29.011873
_cell_angle_alpha 90.000000
_cell_angle_beta 90.000000
_cell_angle_gamma 90.000000
_cell_volume 2385.807920
_symmetry_space_group_name_H-M "P 42/M"
_symmetry_group_IT_number 84
_symmetry_cell_setting 'tetragonal'
loop_
_space_group_symop_operation_xyz
x,y,z
-y,x,1/2+z
-x,-y,z
y,-x,1/2+z
-x,-y,-z
y,-x,1/2-z
x,y,-z
-y,x,1/2-z
loop_
_atom_site_type_symbol
_atom_site_label
_atom_site_fract_x
_atom_site_fract_y
_atom_site_fract_z
Si Si1 0.260012 0.435916 0.254104
Si Si2 0.519099 0.832403 0.852980
Si Si3 0.298035 0.638238 0.100276
Si Si4 0.191199 0.349708 0.156957
Si Si5 0.939097 0.671351 0.000000
Si Si6 0.030340 0.826131 0.095047
Si Si7 0.508114 0.674031 0.500000
O O1 0.328273 0.597974 0.244465
O O2 0.181295 0.438916 0.303271
O O3 0.164640 0.389415 0.210173
O O4 0.455406 0.701526 0.885116
O O5 0.685040 0.778021 0.845060
O O6 0.500000 0.000000 0.870003
O O7 0.246686 0.499194 0.131215
O O8 0.286450 0.588882 0.047459
O O9 0.197685 0.783096 0.105181
O O10 0.056681 0.277842 0.130511
O O11 0.987076 0.761537 0.044877
O O12 0.763158 0.644914 0.000000
O O13 0.000000 0.500000 0.000000
O O14 0.000000 0.000000 0.098455
O O15 0.500000 0.500000 0.500000
#
# Coordination Sequence:
#
# PCOD9544398 Si02
#       7
#     8   8   8   8   4   8   4
#     4   9  18  36  62  90 118 161 221 266 311 383
#     4  11  23  39  61  93 132 161 207 279 335 377
#     4  12  23  42  66  92 126 170 220 262 319 394
#     4  11  21  40  66  91 121 172 221 263 319 396
#     4  12  21  44  67  95 123 176 223 259 312 389
#     4  12  25  41  64  95 135 169 214 273 331 391
#     4  12  24  40  67  99 122 157 221 272 303 375
#
# _framework density 20.118970999999998
#
# number of rings (size 3 to 8) (size 9 to 14) (size 15 to 20)
#    0.000    0.833    5.000    3.250    0.000    1.333 
#    0.000    0.417    0.000    0.000    0.000    0.000 
#    0.000    0.000    0.000    0.000    0.000    0.000 
#
# Total GULP energy -268017.999136 kJ/mol
# GULP energy per Si atom -5583.708315 kJ/mol
# Density = 2.007318 g / cm^3
# Si number density = 20.118971 Si / 1000 Ang^3
#
#
#
# Elastic Constant Matrix: (Units=GPa)
#
#
# Indices 1 2 3 4 5 6 
#
# 1 67.6968 -11.5792 -9.1359 0.0000 0.0000 2.9064
# 2 -11.5792 67.6968 -9.1359 0.0000 0.0000 -2.9064
# 3 -9.1359 -9.1359 98.7402 0.0000 0.0000 0.0000
# 4 0.0000 0.0000 0.0000 58.5938 0.0000 0.0000
# 5 0.0000 0.0000 0.0000 0.0000 58.5938 0.0000
# 6 2.9064 -2.9064 0.0000 0.0000 0.0000 30.4389
#
#
#
# Elastic Compliance Matrix: (Units=1/GPa)
#
#
# Indices 1 2 3 4 5 6 
#
# 1 0.015538 0.002835 0.001700 0.000000 0.000000 -0.001213
# 2 0.002835 0.015538 0.001700 0.000000 0.000000 0.001213
# 3 0.001700 0.001700 0.010442 0.000000 0.000000 0.000000
# 4 0.000000 0.000000 0.000000 0.017067 0.000000 0.000000
# 5 0.000000 0.000000 0.000000 0.000000 0.017067 0.000000
# 6 -0.001213 0.001213 0.000000 0.000000 0.000000 0.033084
#
#
# Mechanical properties :
#
#
# Convention : Reuss Voigt Hill
#
# Bulk Modulus (GPa) = 18.52246 19.38132 18.95189
# Shear Modulus (GPa) = 43.75897 47.12428 45.44163
#
# Velocity S-wave (km/s) = 4.66876 4.84496 4.75768
# Velocity P-wave (km/s) = 6.18785 6.39941 6.29452
#
# Compressibility (1/GPa) = 0.05398852
#
# Stress axis : x y z
#
# Youngs Moduli (GPa) = 64.35765 64.35765 95.76563
#
# Poissons Ratio (x) = -0.18246 -0.16280
# Poissons Ratio (y) = -0.18246 -0.16280
# Poissons Ratio (z) = -0.10941 -0.10941
#
# Static dielectric constant tensor:
#      x y z
#    x 1.720500 0.000000 0.000000 
#    y 0.000000 1.720500 0.000000 
#    z 0.000000 0.000000 1.716350 
# 
# From -- ./inp_files/5860.got.cif
#   From: 2010.05.17/outbox.cif.g08.bks.cpg/sg84_3_cif.got.tgz:5860.got - 2010.06.03 18:57:40.
