data_PCOD9544104
_publ_section_title
;
Structure prediction by ZEFSAII (Michael W. Deem and Ramdas Pophale) SiO2 
 PCOD9544104
Probable space group: P 42/M
;
_chemical_formula_sum "Si O2"
_cell_formula_units_Z 56
_cell_length_a 14.143402
_cell_length_b 14.143402
_cell_length_c 13.534885
_cell_angle_alpha 90.000000
_cell_angle_beta 90.000000
_cell_angle_gamma 90.000000
_cell_volume 2707.461821
_symmetry_space_group_name_H-M "P 42/M"
_symmetry_group_IT_number 84
_symmetry_cell_setting 'tetragonal'
loop_
_space_group_symop_operation_xyz
x,y,z
-y,x,1/2+z
-x,-y,z
y,-x,1/2+z
-x,-y,-z
y,-x,1/2-z
x,y,-z
-y,x,1/2-z
loop_
_atom_site_type_symbol
_atom_site_label
_atom_site_fract_x
_atom_site_fract_y
_atom_site_fract_z
Si Si1 0.318606 0.122013 0.706338
Si Si2 0.614521 0.009380 0.882071
Si Si3 0.633457 0.342754 0.692309
Si Si4 0.470825 0.609994 0.892289
Si Si5 0.740356 0.164848 0.223016
Si Si6 0.491137 0.199256 0.386058
Si Si7 0.933961 0.667821 0.110041
O O1 0.215258 0.165536 0.684007
O O2 0.403439 0.195471 0.687617
O O3 0.335278 0.069556 0.811691
O O4 0.344252 0.044382 0.623660
O O5 0.665564 0.109620 0.848384
O O6 0.500000 0.000000 0.863864
O O7 0.628597 0.996988 0.000000
O O8 0.593287 0.373474 0.798136
O O9 0.667018 0.432403 0.630148
O O10 0.699726 0.255349 0.717466
O O11 0.549065 0.295040 0.629856
O O12 0.500000 0.500000 0.892271
O O13 0.431184 0.634887 0.000000
O O14 0.749681 0.091616 0.312601
O O15 0.462473 0.192886 0.500000
O O16 0.568130 0.116554 0.363792
O O17 0.904062 0.690664 0.000000
#
# Coordination Sequence:
#
# PCOD9544104 Si02
#       7
#     8   8   8   8   8   8   8
#     4  11  20  35  59  89 115 148 192 250 301 350
#     4  10  22  42  63  87 125 170 206 243 305 379
#     4  11  19  37  51  75 111 150 197 247 292 347
#     4  11  22  35  50  67 102 159 207 244 293 348
#     4  10  23  36  58  88 117 143 193 252 298 354
#     4  10  20  33  56  85 115 150 193 242 294 347
#     4   9  19  37  57  79 113 151 185 228 290 357
#
# _framework density 20.683579000000002
#
# number of rings (size 3 to 8) (size 9 to 14) (size 15 to 20)
#    0.000    1.714    1.429    4.714    0.000    4.000 
#    0.000    3.571    0.000    6.857    0.000    8.000 
#    0.000    0.000    0.000    0.000    0.000    0.000 
#
# Total GULP energy -311972.169251 kJ/mol
# GULP energy per Si atom -5570.931594 kJ/mol
# Density = 2.063650 g / cm^3
# Si number density = 20.683579 Si / 1000 Ang^3
#
#
#
# Elastic Constant Matrix: (Units=GPa)
#
#
# Indices 1 2 3 4 5 6 
#
# 1 65.9531 19.9104 13.7729 0.0000 0.0000 0.7790
# 2 19.9104 65.9531 13.7729 0.0000 0.0000 -0.7790
# 3 13.7729 13.7729 112.9413 0.0000 0.0000 0.0000
# 4 0.0000 0.0000 0.0000 17.2203 0.0000 0.0000
# 5 0.0000 0.0000 0.0000 0.0000 17.2203 0.0000
# 6 0.7790 -0.7790 0.0000 0.0000 0.0000 38.1155
#
#
#
# Elastic Compliance Matrix: (Units=1/GPa)
#
#
# Indices 1 2 3 4 5 6 
#
# 1 0.016927 -0.004807 -0.001478 0.000000 0.000000 -0.000444
# 2 -0.004807 0.016927 -0.001478 0.000000 0.000000 0.000444
# 3 -0.001478 -0.001478 0.009215 0.000000 0.000000 0.000000
# 4 0.000000 0.000000 0.000000 0.058071 0.000000 0.000000
# 5 0.000000 0.000000 0.000000 0.000000 0.058071 0.000000
# 6 -0.000444 0.000444 0.000000 0.000000 0.000000 0.026254
#
#
# Mechanical properties :
#
#
# Convention : Reuss Voigt Hill
#
# Bulk Modulus (GPa) = 36.30616 37.75106 37.02861
# Shear Modulus (GPa) = 23.78997 27.67063 25.73030
#
# Velocity S-wave (km/s) = 3.39512 3.66157 3.53086
# Velocity P-wave (km/s) = 5.74111 6.01394 5.87911
#
# Compressibility (1/GPa) = 0.02754354
#
# Stress axis : x y z
#
# Youngs Moduli (GPa) = 59.07619 59.07619 108.52286
#
# Poissons Ratio (x) = 0.28396 0.16040
# Poissons Ratio (y) = 0.28396 0.16040
# Poissons Ratio (z) = 0.08732 0.08732
#
# Static dielectric constant tensor:
#      x y z
#    x 1.870390 0.000000 0.000000 
#    y 0.000000 1.870390 0.000000 
#    z 0.000000 0.000000 1.744600 
# 
# From -- ./inp_files/3138.got.cif
#   From: 2010.05.17/outbox.cif.g08.bks.cpg/sg84_2_cif.got.tgz:3138.got - 2010.06.03 18:57:40.
