data_PCOD9544037
_publ_section_title
;
Structure prediction by ZEFSAII (Michael W. Deem and Ramdas Pophale) SiO2 
 PCOD9544037
Probable space group: P 42/M
;
_chemical_formula_sum "Si O2"
_cell_formula_units_Z 34
_cell_length_a 10.019894
_cell_length_b 10.019894
_cell_length_c 18.643195
_cell_angle_alpha 90.000000
_cell_angle_beta 90.000000
_cell_angle_gamma 90.000000
_cell_volume 1871.744633
_symmetry_space_group_name_H-M "P 42/M"
_symmetry_group_IT_number 84
_symmetry_cell_setting 'tetragonal'
loop_
_space_group_symop_operation_xyz
x,y,z
-y,x,1/2+z
-x,-y,z
y,-x,1/2+z
-x,-y,-z
y,-x,1/2-z
x,y,-z
-y,x,1/2-z
loop_
_atom_site_type_symbol
_atom_site_label
_atom_site_fract_x
_atom_site_fract_y
_atom_site_fract_z
Si Si1 0.593813 0.203298 0.000000
Si Si2 0.282591 0.448139 0.348288
Si Si3 0.249794 0.188262 0.155885
Si Si4 0.083184 0.708657 0.500000
Si Si5 0.644184 0.048331 0.746505
Si Si6 0.500000 0.500000 0.250000
O O1 0.605031 0.287848 0.928286
O O2 0.443358 0.141549 0.000000
O O3 0.691279 0.076466 0.000000
O O4 0.269364 0.609571 0.348169
O O5 0.151418 0.391565 0.310421
O O6 0.410740 0.591126 0.199202
O O7 0.128472 0.274825 0.186503
O O8 0.277956 0.071687 0.214337
O O9 0.228648 0.131300 0.075363
O O10 0.500000 0.000000 0.718781
#
# Coordination Sequence:
#
# PCOD9544037 Si02
#       6
#     4   8   8   4   8   2
#     4   9  16  31  52  81 108 140 189 233 270 320
#     4  10  19  32  53  81 112 143 179 231 284 330
#     4  10  19  34  56  81 107 143 187 232 273 324
#     4   9  16  30  57  80 105 141 188 233 275 310
#     4  10  20  34  55  81 109 143 186 228 276 334
#     4  12  20  30  52  80 124 146 168 220 300 346
#
# _framework density 18.164871000000002
#
# number of rings (size 3 to 8) (size 9 to 14) (size 15 to 20)
#    0.000    2.118    4.706    0.000    0.000    0.941 
#    0.000    0.588    0.000    4.235    0.000    0.000 
#    0.000    0.000    0.000    0.000    0.000    0.000 
#
# Total GULP energy -189574.637221 kJ/mol
# GULP energy per Si atom -5575.724624 kJ/mol
# Density = 1.812353 g / cm^3
# Si number density = 18.164871 Si / 1000 Ang^3
#
#
#
# Elastic Constant Matrix: (Units=GPa)
#
#
# Indices 1 2 3 4 5 6 
#
# 1 55.7985 38.2244 54.4678 0.0000 0.0000 -1.2238
# 2 38.2244 55.7985 54.4678 0.0000 0.0000 1.2238
# 3 54.4678 54.4678 166.0645 0.0000 0.0000 0.0000
# 4 0.0000 0.0000 0.0000 21.8544 0.0000 0.0000
# 5 0.0000 0.0000 0.0000 0.0000 21.8544 0.0000
# 6 -1.2238 1.2238 0.0000 0.0000 0.0000 29.3013
#
#
#
# Elastic Compliance Matrix: (Units=1/GPa)
#
#
# Indices 1 2 3 4 5 6 
#
# 1 0.037195 -0.020040 -0.005627 0.000000 0.000000 0.002390
# 2 -0.020040 0.037195 -0.005627 0.000000 0.000000 -0.002390
# 3 -0.005627 -0.005627 0.009713 0.000000 0.000000 0.000000
# 4 0.000000 0.000000 0.000000 0.045757 0.000000 0.000000
# 5 0.000000 0.000000 0.000000 0.000000 0.045757 0.000000
# 6 0.002390 -0.002390 0.000000 0.000000 0.000000 0.034328
#
#
# Mechanical properties :
#
#
# Convention : Reuss Voigt Hill
#
# Bulk Modulus (GPa) = 46.47758 63.55348 55.01553
# Shear Modulus (GPa) = 17.87610 23.30213 20.58912
#
# Velocity S-wave (km/s) = 3.14044 3.58552 3.37034
# Velocity P-wave (km/s) = 6.22832 7.22525 6.74523
#
# Compressibility (1/GPa) = 0.02151575
#
# Stress axis : x y z
#
# Youngs Moduli (GPa) = 26.88552 26.88552 102.95774
#
# Poissons Ratio (x) = 0.53879 0.57930
# Poissons Ratio (y) = 0.53879 0.57930
# Poissons Ratio (z) = 0.15127 0.15127
#
# Static dielectric constant tensor:
#      x y z
#    x 1.626070 0.000000 0.000000 
#    y 0.000000 1.626070 0.000000 
#    z 0.000000 0.000000 1.623060 
# 
# From -- ./inp_files/2846.got.cif
#   From: 2010.05.17/outbox.cif.g08.bks.cpg/sg84_2_cif.got.tgz:2846.got - 2010.06.03 18:57:40.
