data_PCOD9544795
_publ_section_title
;
Structure prediction by ZEFSAII (Michael W. Deem and Ramdas Pophale) SiO2 
 PCOD9544795
Probable space group: P 4/N
;
_chemical_formula_sum "Si O2"
_cell_formula_units_Z 32
_cell_length_a 11.603465
_cell_length_b 11.603465
_cell_length_c 9.417035
_cell_angle_alpha 90.000000
_cell_angle_beta 90.000000
_cell_angle_gamma 90.000000
_cell_volume 1267.913359
_symmetry_space_group_name_H-M "P 4/N"
_symmetry_group_IT_number 85
_symmetry_cell_setting 'tetragonal'
loop_
_space_group_symop_operation_xyz
x,y,z
1/2-y,x,z
1/2-x,1/2-y,z
y,1/2-x,z
-x,-y,-z
1/2+y,-x,-z
1/2+x,1/2+y,-z
-y,1/2+x,-z
loop_
_atom_site_type_symbol
_atom_site_label
_atom_site_fract_x
_atom_site_fract_y
_atom_site_fract_z
Si Si1 0.066798 0.775316 0.518056
Si Si2 0.133520 0.855610 0.943142
Si Si3 0.937358 0.724154 0.242863
Si Si4 0.669013 0.925253 0.787229
O O1 0.160219 0.860383 0.444902
O O2 0.970441 0.734203 0.407958
O O3 0.006837 0.840931 0.648807
O O4 0.999322 0.876839 0.919673
O O5 0.196188 0.946405 0.840934
O O6 0.364527 0.784090 0.918763
O O7 0.874643 0.844535 0.210399
O O8 0.605128 0.804221 0.787720
#
# Coordination Sequence:
#
# PCOD9544795 Si02
#       4
#     8   8   8   8
#     4  11  24  41  76 116 150 187 238 293 374 456
#     4  11  28  47  71 100 138 197 249 307 355 429
#     4  11  26  47  74 111 149 189 240 302 376 448
#     4  11  26  47  74 111 149 189 240 302 376 448
#
# _framework density 25.238318
#
# number of rings (size 3 to 8) (size 9 to 14) (size 15 to 20)
#    0.000    1.000    2.500    1.500   10.500    8.000 
#    0.000    2.500    0.000    0.000    0.000    0.000 
#    0.000    0.000    0.000    0.000    0.000    0.000 
#
# Total GULP energy -178690.217451 kJ/mol
# GULP energy per Si atom -5584.069295 kJ/mol
# Density = 2.518087 g / cm^3
# Si number density = 25.238318 Si / 1000 Ang^3
#
#
#
# Elastic Constant Matrix: (Units=GPa)
#
#
# Indices 1 2 3 4 5 6 
#
# 1 128.5696 33.4775 50.3760 0.0000 0.0000 -8.7679
# 2 33.4775 128.5696 50.3760 0.0000 0.0000 8.7679
# 3 50.3760 50.3760 85.7346 0.0000 0.0000 0.0000
# 4 0.0000 0.0000 0.0000 39.1086 0.0000 0.0000
# 5 0.0000 0.0000 0.0000 0.0000 39.1086 0.0000
# 6 -8.7679 8.7679 0.0000 0.0000 0.0000 9.5459
#
#
#
# Elastic Compliance Matrix: (Units=1/GPa)
#
#
# Indices 1 2 3 4 5 6 
#
# 1 0.011192 -0.001469 -0.005713 0.000000 0.000000 0.011629
# 2 -0.001469 0.011192 -0.005713 0.000000 0.000000 -0.011629
# 3 -0.005713 -0.005713 0.018378 0.000000 0.000000 0.000000
# 4 0.000000 0.000000 0.000000 0.025570 0.000000 0.000000
# 5 0.000000 0.000000 0.000000 0.000000 0.025570 0.000000
# 6 0.011629 -0.011629 0.000000 0.000000 0.000000 0.126119
#
#
# Mechanical properties :
#
#
# Convention : Reuss Voigt Hill
#
# Bulk Modulus (GPa) = 66.79345 67.92584 67.35964
# Shear Modulus (GPa) = 20.09640 31.46225 25.77933
#
# Velocity S-wave (km/s) = 2.82488 3.53456 3.19946
# Velocity P-wave (km/s) = 6.09610 6.60528 6.35579
#
# Compressibility (1/GPa) = 0.01497153
#
# Stress axis : x y z
#
# Youngs Moduli (GPa) = 89.35071 89.35071 54.41359
#
# Poissons Ratio (x) = 0.13123 0.31087
# Poissons Ratio (y) = 0.13123 0.31087
# Poissons Ratio (z) = 0.51047 0.51047
#
# Static dielectric constant tensor:
#      x y z
#    x 2.004080 0.000000 0.000000 
#    y 0.000000 2.004080 0.000000 
#    z 0.000000 0.000000 2.017030 
# 
# From -- ./inp_files/1412.got.cif
#   From: 2010.05.17/outbox.cif.g08.bks.cpg/sg85_cif.got.tgz:1412.got - 2010.06.03 19:01:16.
