data_PCOD9544644
_publ_section_title
;
Structure prediction by ZEFSAII (Michael W. Deem and Ramdas Pophale) SiO2 
 PCOD9544644
Probable space group: P 4/N
;
_chemical_formula_sum "Si O2"
_cell_formula_units_Z 48
_cell_length_a 11.363966
_cell_length_b 11.363966
_cell_length_c 17.225235
_cell_angle_alpha 90.000000
_cell_angle_beta 90.000000
_cell_angle_gamma 90.000000
_cell_volume 2224.462081
_symmetry_space_group_name_H-M "P 4/N"
_symmetry_group_IT_number 85
_symmetry_cell_setting 'tetragonal'
loop_
_space_group_symop_operation_xyz
x,y,z
1/2-y,x,z
1/2-x,1/2-y,z
y,1/2-x,z
-x,-y,-z
1/2+y,-x,-z
1/2+x,1/2+y,-z
-y,1/2+x,-z
loop_
_atom_site_type_symbol
_atom_site_label
_atom_site_fract_x
_atom_site_fract_y
_atom_site_fract_z
Si Si1 0.572502 0.838813 0.500000
Si Si2 0.925511 0.161203 0.239263
Si Si3 0.069189 0.166984 0.085972
Si Si4 0.500000 0.500000 0.368029
Si Si5 0.338797 0.925511 0.760737
Si Si6 0.833016 0.569189 0.085972
O O1 0.596772 0.700374 0.500000
O O2 0.504947 0.887590 0.424655
O O3 0.504947 0.887590 0.575345
O O4 0.999934 0.111359 0.310751
O O5 0.799749 0.097477 0.244051
O O6 0.902523 0.299749 0.244051
O O7 0.986572 0.135922 0.157237
O O8 0.194248 0.100866 0.091072
O O9 0.018118 0.144788 0.000000
O O10 0.499934 0.611359 0.310751
O O11 0.364078 0.986572 0.842763
O O12 0.899134 0.694248 0.091072
#
# Coordination Sequence:
#
# PCOD9544644 Si02
#       6
#     8   8   8   8   8   8
#     4  10  22  40  64  90 112 142 188 235 280 340
#     4  11  23  37  56  85 119 155 195 237 285 341
#     4   9  19  37  60  85 115 154 198 241 286 335
#     4  11  22  40  61  84 118 152 183 230 292 345
#     4  11  23  37  56  85 119 155 195 237 285 341
#     4   9  19  37  60  85 115 154 198 241 286 335
#
# _framework density 21.578250000000001
#
# number of rings (size 3 to 8) (size 9 to 14) (size 15 to 20)
#    0.000    1.833    0.000    5.000    0.000    1.333 
#    0.000    9.167    0.000    8.000    0.000    0.000 
#    0.000    0.000    0.000    0.000    0.000    0.000 
#
# Total GULP energy -268549.940527 kJ/mol
# GULP energy per Si atom -5594.790428 kJ/mol
# Density = 2.152914 g / cm^3
# Si number density = 21.578250 Si / 1000 Ang^3
#
#
#
# Elastic Constant Matrix: (Units=GPa)
#
#
# Indices 1 2 3 4 5 6 
#
# 1 57.8063 -3.9755 40.4079 0.0000 0.0000 3.7948
# 2 -3.9755 57.8063 40.4079 0.0000 0.0000 -3.7948
# 3 40.4079 40.4079 193.1965 0.0000 0.0000 0.0000
# 4 0.0000 0.0000 0.0000 29.5944 0.0000 0.0000
# 5 0.0000 0.0000 0.0000 0.0000 29.5944 0.0000
# 6 3.7948 -3.7948 0.0000 0.0000 0.0000 25.6139
#
#
#
# Elastic Compliance Matrix: (Units=1/GPa)
#
#
# Indices 1 2 3 4 5 6 
#
# 1 0.021783 0.005297 -0.005664 0.000000 0.000000 -0.002442
# 2 0.005297 0.021783 -0.005664 0.000000 0.000000 0.002442
# 3 -0.005664 -0.005664 0.007545 0.000000 0.000000 0.000000
# 4 0.000000 0.000000 0.000000 0.033790 0.000000 0.000000
# 5 0.000000 0.000000 0.000000 0.000000 0.033790 0.000000
# 6 -0.002442 0.002442 0.000000 0.000000 0.000000 0.039765
#
#
# Mechanical properties :
#
#
# Convention : Reuss Voigt Hill
#
# Bulk Modulus (GPa) = 25.60849 51.38777 38.49813
# Shear Modulus (GPa) = 27.24278 32.42511 29.83395
#
# Velocity S-wave (km/s) = 3.55704 3.88064 3.72236
# Velocity P-wave (km/s) = 5.36316 6.62914 6.02947
#
# Compressibility (1/GPa) = 0.03904956
#
# Stress axis : x y z
#
# Youngs Moduli (GPa) = 45.90747 45.90747 132.53230
#
# Poissons Ratio (x) = -0.24317 0.75065
# Poissons Ratio (y) = -0.24317 0.75065
# Poissons Ratio (z) = 0.26001 0.26001
#
# Static dielectric constant tensor:
#      x y z
#    x 1.790090 0.000000 0.000000 
#    y 0.000000 1.790090 0.000000 
#    z 0.000000 0.000000 1.755920 
# 
# From -- ./inp_files/2082.got.cif
#   From: 2010.05.17/outbox.cif.g08.bks.cpg/sg85_cif.got.tgz:2082.got - 2010.06.03 19:01:16.
