data_PCOD9544420
_publ_section_title
;
Structure prediction by ZEFSAII (Michael W. Deem and Ramdas Pophale) SiO2 
 PCOD9544420
Probable space group: P 42/M
;
_chemical_formula_sum "Si O2"
_cell_formula_units_Z 24
_cell_length_a 7.816702
_cell_length_b 7.816702
_cell_length_c 17.792204
_cell_angle_alpha 90.000000
_cell_angle_beta 90.000000
_cell_angle_gamma 90.000000
_cell_volume 1087.118435
_symmetry_space_group_name_H-M "P 42/M"
_symmetry_group_IT_number 84
_symmetry_cell_setting 'tetragonal'
loop_
_space_group_symop_operation_xyz
x,y,z
-y,x,1/2+z
-x,-y,z
y,-x,1/2+z
-x,-y,-z
y,-x,1/2-z
x,y,-z
-y,x,1/2-z
loop_
_atom_site_type_symbol
_atom_site_label
_atom_site_fract_x
_atom_site_fract_y
_atom_site_fract_z
Si Si1 0.677454 0.436095 0.362202
Si Si2 0.217716 0.602941 0.082088
Si Si3 0.734142 0.900984 0.739103
O O1 0.500000 0.500000 0.323907
O O2 0.711398 0.603606 0.412017
O O3 0.595623 0.279254 0.409072
O O4 0.818714 0.386137 0.302655
O O5 0.114390 0.656075 0.155933
O O6 0.141589 0.632068 0.000000
O O7 0.906894 0.788012 0.742068
#
# Coordination Sequence:
#
# PCOD9544420 Si02
#       3
#     8   8   8
#     4   8  19  37  58  86 108 145 199 232 286 329
#     4   9  19  37  60  87 115 142 197 246 285 326
#     4  11  23  38  57  83 121 160 189 223 285 356
#
# _framework density 22.076713999999999
#
# number of rings (size 3 to 8) (size 9 to 14) (size 15 to 20)
#    2.000    0.333    0.000    4.000    4.667    5.333 
#    0.000   13.333    0.000    0.000    0.000    0.000 
#    0.000    0.000    0.000    0.000    0.000    0.000 
#
# Total GULP energy -133633.855742 kJ/mol
# GULP energy per Si atom -5568.077323 kJ/mol
# Density = 2.202647 g / cm^3
# Si number density = 22.076714 Si / 1000 Ang^3
#
#
#
# Elastic Constant Matrix: (Units=GPa)
#
#
# Indices 1 2 3 4 5 6 
#
# 1 83.6880 31.0300 37.4434 0.0000 0.0000 -5.6803
# 2 31.0300 83.6880 37.4434 0.0000 0.0000 5.6803
# 3 37.4434 37.4434 177.1158 0.0000 0.0000 0.0000
# 4 0.0000 0.0000 0.0000 -21.2268 0.0000 0.0000
# 5 0.0000 0.0000 0.0000 0.0000 -21.2268 0.0000
# 6 -5.6803 5.6803 0.0000 0.0000 0.0000 37.7221
#
#
#
# Elastic Compliance Matrix: (Units=1/GPa)
#
#
# Indices 1 2 3 4 5 6 
#
# 1 0.014870 -0.004758 -0.002138 0.000000 0.000000 0.002956
# 2 -0.004758 0.014870 -0.002138 0.000000 0.000000 -0.002956
# 3 -0.002138 -0.002138 0.006550 0.000000 0.000000 0.000000
# 4 0.000000 0.000000 0.000000 -0.047110 0.000000 0.000000
# 5 0.000000 0.000000 0.000000 0.000000 -0.047110 0.000000
# 6 0.002956 -0.002956 0.000000 0.000000 0.000000 0.027400
#
#
# Mechanical properties :
#
#
# Convention : Reuss Voigt Hill
#
# Bulk Modulus (GPa) = 54.87368 61.81396 58.34382
# Shear Modulus (GPa) = -782.67260 14.95869 -383.85696
#
# Velocity S-wave (km/s) = -18.84924 2.60586 -13.20044
# Velocity P-wave (km/s) = 21.18526 6.09216 14.34749
#
# Compressibility (1/GPa) = 0.01822367
#
# Stress axis : x y z
#
# Youngs Moduli (GPa) = 67.24780 67.24780 152.67314
#
# Poissons Ratio (x) = 0.31995 0.32640
# Poissons Ratio (y) = 0.31995 0.32640
# Poissons Ratio (z) = 0.14377 0.14377
#
# Static dielectric constant tensor:
#      x y z
#    x 1.926130 0.000000 0.000000 
#    y 0.000000 1.926130 0.000000 
#    z 0.000000 0.000000 1.771240 
# 
# From -- ./inp_files/2611.got.cif
#   From: 2010.05.17/outbox.cif.g08.bks.cpg/sg84_2_cif.got.tgz:2611.got - 2010.06.03 18:57:40.
