data_PCOD9544534
_publ_section_title
;
Structure prediction by ZEFSAII (Michael W. Deem and Ramdas Pophale) SiO2 
 PCOD9544534
Probable space group: P 4/N
;
_chemical_formula_sum "Si O2"
_cell_formula_units_Z 56
_cell_length_a 14.578497
_cell_length_b 14.578497
_cell_length_c 15.124403
_cell_angle_alpha 90.000000
_cell_angle_beta 90.000000
_cell_angle_gamma 90.000000
_cell_volume 3214.428312
_symmetry_space_group_name_H-M "P 4/N"
_symmetry_group_IT_number 85
_symmetry_cell_setting 'tetragonal'
loop_
_space_group_symop_operation_xyz
x,y,z
1/2-y,x,z
1/2-x,1/2-y,z
y,1/2-x,z
-x,-y,-z
1/2+y,-x,-z
1/2+x,1/2+y,-z
-y,1/2+x,-z
loop_
_atom_site_type_symbol
_atom_site_label
_atom_site_fract_x
_atom_site_fract_y
_atom_site_fract_z
Si Si1 0.650569 0.633193 0.999874
Si Si2 0.795235 0.601017 0.312412
Si Si3 0.601777 0.702308 0.700417
Si Si4 0.101754 0.203853 0.493813
Si Si5 0.518093 0.606256 0.154120
Si Si6 0.486447 0.404334 0.148175
Si Si7 0.665148 0.121447 0.001453
O O1 0.759027 0.625364 0.994722
O O2 0.608365 0.600112 0.091763
O O3 0.600147 0.586340 0.918301
O O4 0.859915 0.691803 0.305838
O O5 0.809280 0.557476 0.410064
O O6 0.823001 0.535863 0.232536
O O7 0.693666 0.639170 0.707847
O O8 0.558471 0.689522 0.602562
O O9 0.536018 0.671166 0.778611
O O10 0.192468 0.140448 0.493794
O O11 0.501498 0.504078 0.189560
O O12 0.437841 0.636961 0.087248
O O13 0.568733 0.374880 0.083678
O O14 0.627286 0.224700 0.005404
#
# Coordination Sequence:
#
# PCOD9544534 Si02
#       7
#     8   8   8   8   8   8   8
#     4  10  20  33  51  71  96 128 159 206 264 309
#     4   9  17  31  53  79 106 132 159 201 255 307
#     4   9  17  31  53  79 106 132 159 201 255 307
#     4   7  12  26  49  76 104 133 158 186 246 317
#     4  11  23  31  51  75 101 127 166 210 247 290
#     4  11  23  31  51  75 101 127 166 210 247 290
#     4  10  24  41  53  63  90 140 179 208 238 285
#
# _framework density 17.421448999999999
#
# number of rings (size 3 to 8) (size 9 to 14) (size 15 to 20)
#    0.000    2.429    0.000    5.143   12.000    2.286 
#    0.000    0.714    0.000    0.000    0.000    0.000 
#    0.000    2.286    0.000    0.000    0.000    0.000 
#
# Total GULP energy -312258.890214 kJ/mol
# GULP energy per Si atom -5576.051611 kJ/mol
# Density = 1.738180 g / cm^3
# Si number density = 17.421449 Si / 1000 Ang^3
#
#
#
# Elastic Constant Matrix: (Units=GPa)
#
#
# Indices 1 2 3 4 5 6 
#
# 1 41.8615 6.4445 0.1724 0.0000 0.0000 -3.7340
# 2 6.4445 41.8615 0.1724 0.0000 0.0000 3.7340
# 3 0.1724 0.1724 79.4537 0.0000 0.0000 0.0000
# 4 0.0000 0.0000 0.0000 -6.1456 0.0000 0.0000
# 5 0.0000 0.0000 0.0000 0.0000 -6.1456 0.0000
# 6 -3.7340 3.7340 0.0000 0.0000 0.0000 20.4058
#
#
#
# Elastic Compliance Matrix: (Units=1/GPa)
#
#
# Indices 1 2 3 4 5 6 
#
# 1 0.025035 -0.004333 -0.000045 0.000000 0.000000 0.005374
# 2 -0.004333 0.025035 -0.000045 0.000000 0.000000 -0.005374
# 3 -0.000045 -0.000045 0.012586 0.000000 0.000000 0.000000
# 4 0.000000 0.000000 0.000000 -0.162719 0.000000 0.000000
# 5 0.000000 0.000000 0.000000 0.000000 -0.162719 0.000000
# 6 0.005374 -0.005374 0.000000 0.000000 0.000000 0.050972
#
#
# Mechanical properties :
#
#
# Convention : Reuss Voigt Hill
#
# Bulk Modulus (GPa) = 18.58397 19.63949 19.11173
# Shear Modulus (GPa) = -27.02299 12.04878 -7.48710
#
# Velocity S-wave (km/s) = -3.94272 2.63269 -2.07532
# Velocity P-wave (km/s) = 3.16800 4.53201 2.29160
#
# Compressibility (1/GPa) = 0.05380980
#
# Stress axis : x y z
#
# Youngs Moduli (GPa) = 39.94425 39.94425 79.45249
#
# Poissons Ratio (x) = 0.17309 0.00357
# Poissons Ratio (y) = 0.17309 0.00357
# Poissons Ratio (z) = 0.00179 0.00179
#
# Static dielectric constant tensor:
#      x y z
#    x 1.588700 0.000000 0.000000 
#    y 0.000000 1.588700 0.000000 
#    z 0.000000 0.000000 1.618180 
# 
# From -- ./inp_files/2002.got.cif
#   From: 2010.05.17/outbox.cif.g08.bks.cpg/sg85_cif.got.tgz:2002.got - 2010.06.03 19:01:16.
