data_PCOD9544259
_publ_section_title
;
Structure prediction by ZEFSAII (Michael W. Deem and Ramdas Pophale) SiO2 
 PCOD9544259
Probable space group: P 42/M
;
_chemical_formula_sum "Si O2"
_cell_formula_units_Z 24
_cell_length_a 8.033828
_cell_length_b 8.033828
_cell_length_c 14.004930
_cell_angle_alpha 90.000000
_cell_angle_beta 90.000000
_cell_angle_gamma 90.000000
_cell_volume 903.911687
_symmetry_space_group_name_H-M "P 42/M"
_symmetry_group_IT_number 84
_symmetry_cell_setting 'tetragonal'
loop_
_space_group_symop_operation_xyz
x,y,z
-y,x,1/2+z
-x,-y,z
y,-x,1/2+z
-x,-y,-z
y,-x,1/2-z
x,y,-z
-y,x,1/2-z
loop_
_atom_site_type_symbol
_atom_site_label
_atom_site_fract_x
_atom_site_fract_y
_atom_site_fract_z
Si Si1 0.667981 0.582015 0.610552
Si Si2 0.104090 0.747697 0.605844
Si Si3 0.954194 0.307309 0.182615
O O1 0.500000 0.500000 0.648536
O O2 0.638265 0.623885 0.500000
O O3 0.799712 0.430164 0.612177
O O4 0.700469 0.758299 0.658997
O O5 0.021673 0.747942 0.500000
O O6 0.016743 0.751654 0.708521
O O7 0.213746 0.916049 0.613357
O O8 0.000000 0.500000 0.177164
#
# Coordination Sequence:
#
# PCOD9544259 Si02
#       3
#     8   8   8
#     4  10  21  39  70 112 153 198 257 318 381 462
#     4  11  26  46  71 109 153 201 260 324 394 466
#     4  12  24  44  76 109 157 209 258 319 393 465
#
# _framework density 26.551268
#
# number of rings (size 3 to 8) (size 9 to 14) (size 15 to 20)
#    0.000    1.000    3.333    3.000    0.000    2.667 
#    0.000    5.000    0.000    2.000    0.000    0.000 
#    0.000    0.000    0.000    0.000    0.000    0.000 
#
# Total GULP energy -134362.080700 kJ/mol
# GULP energy per Si atom -5598.420029 kJ/mol
# Density = 2.649084 g / cm^3
# Si number density = 26.551268 Si / 1000 Ang^3
#
#
#
# Elastic Constant Matrix: (Units=GPa)
#
#
# Indices 1 2 3 4 5 6 
#
# 1 186.6623 64.3708 58.5026 0.0000 0.0000 -25.5996
# 2 64.3708 186.6623 58.5026 0.0000 0.0000 25.5996
# 3 58.5026 58.5026 206.4870 0.0000 0.0000 0.0000
# 4 0.0000 0.0000 0.0000 52.0030 0.0000 0.0000
# 5 0.0000 0.0000 0.0000 0.0000 52.0030 0.0000
# 6 -25.5996 25.5996 0.0000 0.0000 0.0000 -46.7904
#
#
#
# Elastic Compliance Matrix: (Units=1/GPa)
#
#
# Indices 1 2 3 4 5 6 
#
# 1 0.005621 -0.001032 -0.001300 0.000000 0.000000 -0.003640
# 2 -0.001032 0.005621 -0.001300 0.000000 0.000000 0.003640
# 3 -0.001300 -0.001300 0.005580 0.000000 0.000000 0.000000
# 4 0.000000 0.000000 0.000000 0.019230 0.000000 0.000000
# 5 0.000000 0.000000 0.000000 0.000000 0.019230 0.000000
# 6 -0.003640 0.003640 0.000000 0.000000 0.000000 -0.017389
#
#
# Mechanical properties :
#
#
# Convention : Reuss Voigt Hill
#
# Bulk Modulus (GPa) = 104.62863 104.72929 104.67896
# Shear Modulus (GPa) = 103.42565 38.00550 70.71557
#
# Velocity S-wave (km/s) = 6.24802 3.78749 5.16637
# Velocity P-wave (km/s) = 9.56777 7.65876 8.66599
#
# Compressibility (1/GPa) = 0.00955761
#
# Stress axis : x y z
#
# Youngs Moduli (GPa) = 177.89100 177.89100 179.21926
#
# Poissons Ratio (x) = 0.18355 0.23305
# Poissons Ratio (y) = 0.18355 0.23305
# Poissons Ratio (z) = 0.23132 0.23132
#
# Static dielectric constant tensor:
#      x y z
#    x 2.150000 0.000000 0.000000 
#    y 0.000000 2.150000 0.000000 
#    z 0.000000 0.000000 2.027330 
# 
# From -- ./inp_files/2604.got.cif
#   From: 2010.05.17/outbox.cif.g08.bks.cpg/sg84_2_cif.got.tgz:2604.got - 2010.06.03 18:57:40.
