data_PCOD9544858
_publ_section_title
;
Structure prediction by ZEFSAII (Michael W. Deem and Ramdas Pophale) SiO2 
 PCOD9544858
Probable space group: P 4/N
;
_chemical_formula_sum "Si O2"
_cell_formula_units_Z 36
_cell_length_a 9.000000
_cell_length_b 9.000000
_cell_length_c 21.000000
_cell_angle_alpha 90.000000
_cell_angle_beta 90.000000
_cell_angle_gamma 90.000000
_cell_volume 1701.000000
_symmetry_space_group_name_H-M "P 4/N"
_symmetry_group_IT_number 85
_symmetry_cell_setting 'tetragonal'
loop_
_space_group_symop_operation_xyz
x,y,z
1/2-y,x,z
1/2-x,1/2-y,z
y,1/2-x,z
-x,-y,-z
1/2+y,-x,-z
1/2+x,1/2+y,-z
-y,1/2+x,-z
loop_
_atom_site_type_symbol
_atom_site_label
_atom_site_fract_x
_atom_site_fract_y
_atom_site_fract_z
Si Si1 0.063410 0.419458 0.062016
Si Si2 0.546522 0.603555 0.183465
Si Si3 0.750000 0.250000 0.500000
Si Si4 0.250000 0.250000 0.321781
Si Si5 0.172761 0.482736 0.580414
Si Si6 0.840458 0.091802 0.701030
O O1 0.048075 0.240364 0.064512
O O2 0.965867 0.488084 0.118344
O O3 0.000000 0.500000 0.000000
O O4 0.717273 0.550951 0.189427
O O5 0.427389 0.550096 0.234992
O O6 0.634752 0.344113 0.541661
O O7 0.439067 0.243318 0.320773
O O8 0.070463 0.341063 0.567647
O O9 0.138344 0.531240 0.651668
O O10 0.750000 0.250000 0.708028
#
# Coordination Sequence:
#
# PCOD9544858 Si02
#       6
#     8   8   2   2   8   8
#     4  11  26  45  69  99 139 184 239 298 358 442
#     4  11  25  43  69 103 142 187 239 300 375 450
#     4  12  24  44  72 108 144 208 264 330 400 496
#     4  12  28  44  80 112 148 200 256 312 394 476
#     4  11  24  46  71 104 150 199 258 328 406 479
#     4  12  26  47  73 112 150 194 253 323 394 470
#
# _framework density 21.164021000000002
#
# number of rings (size 3 to 8) (size 9 to 14) (size 15 to 20)
#    0.000    0.667    1.111    6.000    6.222    5.778 
#    0.000    0.000    0.000    0.000    0.000    0.000 
#    0.000    0.000    0.000    0.000    0.000    0.000 
#
# Total GULP energy -200510.109845 kJ/mol
# GULP energy per Si atom -5569.725273 kJ/mol
# Density = 2.111585 g / cm^3
# Si number density = 21.164021 Si / 1000 Ang^3
#
#
#
# Elastic Constant Matrix: (Units=GPa)
#
#
# Indices 1 2 3 4 5 6 
#
# 1 52.4159 45.6652 -10.6690 0.0000 0.0000 -38.0428
# 2 45.6652 52.4159 -10.6690 0.0000 0.0000 38.0428
# 3 -10.6690 -10.6690 57.2372 0.0000 0.0000 0.0000
# 4 0.0000 0.0000 0.0000 29.4089 0.0000 0.0000
# 5 0.0000 0.0000 0.0000 0.0000 29.4089 0.0000
# 6 -38.0428 38.0428 0.0000 0.0000 0.0000 -93.6471
#
#
#
# Elastic Compliance Matrix: (Units=1/GPa)
#
#
# Indices 1 2 3 4 5 6 
#
# 1 0.018590 -0.007964 0.001981 0.000000 0.000000 -0.010787
# 2 -0.007964 0.018590 0.001981 0.000000 0.000000 0.010787
# 3 0.001981 0.001981 0.018210 0.000000 0.000000 0.000000
# 4 0.000000 0.000000 0.000000 0.034003 0.000000 0.000000
# 5 0.000000 0.000000 0.000000 0.000000 0.034003 0.000000
# 6 -0.010787 0.010787 0.000000 0.000000 0.000000 -0.001914
#
#
# Mechanical properties :
#
#
# Convention : Reuss Voigt Hill
#
# Bulk Modulus (GPa) = 21.10336 23.41375 22.25855
# Shear Modulus (GPa) = 34.41589 2.21694 18.31641
#
# Velocity S-wave (km/s) = 4.03693 1.02459 2.94505
# Velocity P-wave (km/s) = 5.63223 3.53365 4.70153
#
# Compressibility (1/GPa) = 0.04738582
#
# Stress axis : x y z
#
# Youngs Moduli (GPa) = 53.79181 53.79181 54.91616
#
# Poissons Ratio (x) = 0.42838 -0.10878
# Poissons Ratio (y) = 0.42838 -0.10878
# Poissons Ratio (z) = -0.10655 -0.10655
#
# Static dielectric constant tensor:
#      x y z
#    x 1.698130 0.000000 0.000000 
#    y 0.000000 1.698130 0.000000 
#    z 0.000000 0.000000 1.518450 
# 
# From -- ./inp_files/2201.got.cif
#   From: 2010.05.17/outbox.ucp.g08.bks.cvg/sg85_cif.got.tgz:2201.got - 2010.06.11 10:35:07.
