data_PCOD9544237
_publ_section_title
;
Structure prediction by ZEFSAII (Michael W. Deem and Ramdas Pophale) SiO2 
 PCOD9544237
Probable space group: P 42/M
;
_chemical_formula_sum "Si O2"
_cell_formula_units_Z 52
_cell_length_a 17.143174
_cell_length_b 17.143174
_cell_length_c 7.472092
_cell_angle_alpha 90.000000
_cell_angle_beta 90.000000
_cell_angle_gamma 90.000000
_cell_volume 2195.961273
_symmetry_space_group_name_H-M "P 42/M"
_symmetry_group_IT_number 84
_symmetry_cell_setting 'tetragonal'
loop_
_space_group_symop_operation_xyz
x,y,z
-y,x,1/2+z
-x,-y,z
y,-x,1/2+z
-x,-y,-z
y,-x,1/2-z
x,y,-z
-y,x,1/2-z
loop_
_atom_site_type_symbol
_atom_site_label
_atom_site_fract_x
_atom_site_fract_y
_atom_site_fract_z
Si Si1 0.120662 0.476061 0.500000
Si Si2 0.587912 0.235980 0.704849
Si Si3 0.622923 0.491400 0.298437
Si Si4 0.606138 0.901264 0.293932
Si Si5 0.752541 0.302762 0.284237
Si Si6 0.143514 0.172098 0.788246
Si Si7 0.769928 0.978928 0.715143
O O1 0.166652 0.425058 0.342704
O O2 0.087626 0.536109 0.657134
O O3 0.598984 0.209150 0.500000
O O4 0.514694 0.294774 0.717431
O O5 0.661789 0.290883 0.753892
O O6 0.569057 0.430146 0.197963
O O7 0.635842 0.462196 0.500000
O O8 0.588805 0.922456 0.500000
O O9 0.630960 0.809514 0.288818
O O10 0.684789 0.946772 0.229601
O O11 0.760443 0.309068 0.500000
O O12 0.788096 0.221279 0.216565
O O13 0.161299 0.081046 0.764257
O O14 0.063916 0.207166 0.715309
O O15 0.142568 0.188154 0.000000
O O16 0.766625 0.980587 0.500000
#
# Coordination Sequence:
#
# PCOD9544237 Si02
#       7
#     4   8   8   8   8   8   8
#     4  12  24  40  56  88 112 151 194 254 295 354
#     4  11  24  38  56  81 111 144 194 249 304 353
#     4  11  22  37  52  75 107 146 185 233 300 377
#     4  10  21  37  62  85 117 154 204 246 295 354
#     4   9  19  37  59  86 112 158 202 249 297 354
#     4   9  18  35  60  85 127 161 198 238 290 349
#     4   9  19  35  56  93 122 161 199 238 289 350
#
# _framework density 23.679836000000002
#
# number of rings (size 3 to 8) (size 9 to 14) (size 15 to 20)
#    0.000    2.000    1.538    2.308    4.308    0.923 
#    0.000    1.538    0.000    1.846    0.000    5.385 
#    0.000    0.000    0.000    0.000    0.000    0.000 
#
# Total GULP energy -289611.476416 kJ/mol
# GULP energy per Si atom -5569.451470 kJ/mol
# Density = 2.362594 g / cm^3
# Si number density = 23.679836 Si / 1000 Ang^3
#
#
#
# Elastic Constant Matrix: (Units=GPa)
#
#
# Indices 1 2 3 4 5 6 
#
# 1 49.0329 11.9581 -0.1706 0.0000 0.0000 1.7131
# 2 11.9581 49.0329 -0.1706 0.0000 0.0000 -1.7131
# 3 -0.1706 -0.1706 123.2328 0.0000 0.0000 0.0000
# 4 0.0000 0.0000 0.0000 40.0049 0.0000 0.0000
# 5 0.0000 0.0000 0.0000 0.0000 40.0049 0.0000
# 6 1.7131 -1.7131 0.0000 0.0000 0.0000 9.4312
#
#
#
# Elastic Compliance Matrix: (Units=1/GPa)
#
#
# Indices 1 2 3 4 5 6 
#
# 1 0.021914 -0.005519 0.000023 0.000000 0.000000 -0.004983
# 2 -0.005519 0.021914 0.000023 0.000000 0.000000 0.004983
# 3 0.000023 0.000023 0.008115 0.000000 0.000000 0.000000
# 4 0.000000 0.000000 0.000000 0.024997 0.000000 0.000000
# 5 0.000000 0.000000 0.000000 0.000000 0.024997 0.000000
# 6 -0.004983 0.004983 0.000000 0.000000 0.000000 0.107841
#
#
# Mechanical properties :
#
#
# Convention : Reuss Voigt Hill
#
# Bulk Modulus (GPa) = 24.39169 27.17026 25.78097
# Shear Modulus (GPa) = 21.33189 31.86699 26.59944
#
# Velocity S-wave (km/s) = 3.00467 3.67242 3.35520
# Velocity P-wave (km/s) = 4.72867 5.42965 5.09124
#
# Compressibility (1/GPa) = 0.04099757
#
# Stress axis : x y z
#
# Youngs Moduli (GPa) = 45.63190 45.63190 123.23184
#
# Poissons Ratio (x) = 0.25182 -0.00280
# Poissons Ratio (y) = 0.25182 -0.00280
# Poissons Ratio (z) = -0.00104 -0.00104
#
# Static dielectric constant tensor:
#      x y z
#    x 1.946200 0.000000 0.000000 
#    y 0.000000 1.946200 0.000000 
#    z 0.000000 0.000000 1.884560 
# 
# From -- ./inp_files/1087.got.cif
#   From: 2010.05.17/outbox.cif.g08.bks.cpg/sg84_1_cif.got.tgz:1087.got - 2010.06.03 18:57:40.
