data_PCOD9544822
_publ_section_title
;
Structure prediction by ZEFSAII (Michael W. Deem and Ramdas Pophale) SiO2 
 PCOD9544822
Probable space group: P 4/N
;
_chemical_formula_sum "Si O2"
_cell_formula_units_Z 32
_cell_length_a 14.201849
_cell_length_b 14.201849
_cell_length_c 7.003941
_cell_angle_alpha 90.000000
_cell_angle_beta 90.000000
_cell_angle_gamma 90.000000
_cell_volume 1412.642475
_symmetry_space_group_name_H-M "P 4/N"
_symmetry_group_IT_number 85
_symmetry_cell_setting 'tetragonal'
loop_
_space_group_symop_operation_xyz
x,y,z
1/2-y,x,z
1/2-x,1/2-y,z
y,1/2-x,z
-x,-y,-z
1/2+y,-x,-z
1/2+x,1/2+y,-z
-y,1/2+x,-z
loop_
_atom_site_type_symbol
_atom_site_label
_atom_site_fract_x
_atom_site_fract_y
_atom_site_fract_z
Si Si1 0.825697 0.884226 0.564575
Si Si2 0.870180 0.209270 0.397112
Si Si3 0.570321 0.479792 0.275918
Si Si4 0.634312 0.470462 0.851470
O O1 0.715749 0.871785 0.531342
O O2 0.869898 0.959404 0.422100
O O3 0.836700 0.926037 0.777184
O O4 0.943503 0.124127 0.367836
O O5 0.851982 0.272423 0.588698
O O6 0.900679 0.288047 0.241367
O O7 0.526832 0.465841 0.772400
O O8 0.624485 0.463111 0.077138
#
# Coordination Sequence:
#
# PCOD9544822 Si02
#       4
#     8   8   8   8
#     4  11  25  44  74 107 143 194 251 311 374 448
#     4  11  25  42  71 109 146 195 244 306 370 445
#     4  11  26  47  75 105 152 199 248 309 381 444
#     4  11  25  45  74 105 144 198 248 307 371 448
#
# _framework density 22.65258
#
# number of rings (size 3 to 8) (size 9 to 14) (size 15 to 20)
#    0.000    1.000    2.500    2.250    3.500   10.000 
#    0.000    2.500    0.000    0.000    0.000    0.000 
#    0.000    0.000    0.000    0.000    0.000    0.000 
#
# Total GULP energy -178367.184514 kJ/mol
# GULP energy per Si atom -5573.974516 kJ/mol
# Density = 2.260102 g / cm^3
# Si number density = 22.652580 Si / 1000 Ang^3
#
#
#
# Elastic Constant Matrix: (Units=GPa)
#
#
# Indices 1 2 3 4 5 6 
#
# 1 122.1332 39.1892 65.2185 0.0000 0.0000 14.0530
# 2 39.1892 122.1332 65.2185 0.0000 0.0000 -14.0530
# 3 65.2185 65.2185 129.3045 0.0000 0.0000 0.0000
# 4 0.0000 0.0000 0.0000 29.3543 0.0000 0.0000
# 5 0.0000 0.0000 0.0000 0.0000 29.3543 0.0000
# 6 14.0530 -14.0530 0.0000 0.0000 0.0000 37.9901
#
#
#
# Elastic Compliance Matrix: (Units=1/GPa)
#
#
# Indices 1 2 3 4 5 6 
#
# 1 0.012126 -0.001658 -0.005280 0.000000 0.000000 -0.005099
# 2 -0.001658 0.012126 -0.005280 0.000000 0.000000 0.005099
# 3 -0.005280 -0.005280 0.013060 0.000000 0.000000 0.000000
# 4 0.000000 0.000000 0.000000 0.034067 0.000000 0.000000
# 5 0.000000 0.000000 0.000000 0.000000 0.034067 0.000000
# 6 -0.005099 0.005099 0.000000 0.000000 0.000000 0.030095
#
#
# Mechanical properties :
#
#
# Convention : Reuss Voigt Hill
#
# Bulk Modulus (GPa) = 77.66259 79.20261 78.43260
# Shear Modulus (GPa) = 30.43831 32.93602 31.68716
#
# Velocity S-wave (km/s) = 3.66963 3.81722 3.74415
# Velocity P-wave (km/s) = 7.23281 7.38026 7.30691
#
# Compressibility (1/GPa) = 0.01287621
#
# Stress axis : x y z
#
# Youngs Moduli (GPa) = 82.46833 82.46833 76.57207
#
# Poissons Ratio (x) = 0.13675 0.40427
# Poissons Ratio (y) = 0.13675 0.40427
# Poissons Ratio (z) = 0.43540 0.43540
#
# Static dielectric constant tensor:
#      x y z
#    x 1.922510 0.000000 0.000000 
#    y 0.000000 1.922510 0.000000 
#    z 0.000000 0.000000 1.816490 
# 
# From -- ./inp_files/288.got.cif
#   From: 2010.05.17/outbox.cif.g08.bks.cpg/sg85_cif.got.tgz:288.got - 2010.06.03 19:01:16.
