data_PCOD9544404
_publ_section_title
;
Structure prediction by ZEFSAII (Michael W. Deem and Ramdas Pophale) SiO2 
 PCOD9544404
Probable space group: P 42/M
;
_chemical_formula_sum "Si O2"
_cell_formula_units_Z 48
_cell_length_a 17.514997
_cell_length_b 17.514997
_cell_length_c 8.661107
_cell_angle_alpha 90.000000
_cell_angle_beta 90.000000
_cell_angle_gamma 90.000000
_cell_volume 2657.012138
_symmetry_space_group_name_H-M "P 42/M"
_symmetry_group_IT_number 84
_symmetry_cell_setting 'tetragonal'
loop_
_space_group_symop_operation_xyz
x,y,z
-y,x,1/2+z
-x,-y,z
y,-x,1/2+z
-x,-y,-z
y,-x,1/2-z
x,y,-z
-y,x,1/2-z
loop_
_atom_site_type_symbol
_atom_site_label
_atom_site_fract_x
_atom_site_fract_y
_atom_site_fract_z
Si Si1 0.373780 0.186386 0.816217
Si Si2 0.259487 0.063983 0.684059
Si Si3 0.694579 0.263197 0.181233
Si Si4 0.894817 0.687570 0.182997
Si Si5 0.821653 0.549506 0.315878
Si Si6 0.900703 0.940437 0.180606
O O1 0.327822 0.119172 0.732469
O O2 0.329081 0.263663 0.773552
O O3 0.462465 0.187538 0.768554
O O4 0.370710 0.174559 0.000000
O O5 0.247686 0.066941 0.500000
O O6 0.182162 0.087433 0.769961
O O7 0.279892 0.976701 0.727253
O O8 0.723675 0.178755 0.232206
O O9 0.603661 0.252609 0.209634
O O10 0.708275 0.273892 0.000000
O O11 0.886819 0.598056 0.228968
O O12 0.885157 0.696663 0.000000
O O13 0.837046 0.552281 0.500000
O O14 0.969371 0.904583 0.279248
O O15 0.915318 0.927177 0.000000
#
# Coordination Sequence:
#
# PCOD9544404 Si02
#       6
#     8   8   8   8   8   8
#     4  11  22  37  58  87 115 147 192 237 282 342
#     4  11  24  38  55  83 115 149 190 236 282 337
#     4   9  19  37  58  81 112 149 186 229 284 338
#     4   9  19  36  57  79 108 146 186 225 275 331
#     4   8  19  37  57  81 114 151 186 230 287 341
#     4  11  23  40  59  78 106 145 189 239 288 339
#
# _framework density 18.065404999999998
#
# number of rings (size 3 to 8) (size 9 to 14) (size 15 to 20)
#    1.000    1.167    0.000    3.500    2.333    4.667 
#    0.000    3.333    0.000    0.500    0.000    3.500 
#    0.000    0.000    0.000    0.000    0.000    0.000 
#
# Total GULP energy -267572.212402 kJ/mol
# GULP energy per Si atom -5574.421092 kJ/mol
# Density = 1.802429 g / cm^3
# Si number density = 18.065405 Si / 1000 Ang^3
#
#
#
# Elastic Constant Matrix: (Units=GPa)
#
#
# Indices 1 2 3 4 5 6 
#
# 1 74.9356 2.6792 1.0093 0.0000 0.0000 4.4231
# 2 2.6792 74.9356 1.0093 0.0000 0.0000 -4.4231
# 3 1.0093 1.0093 28.2064 0.0000 0.0000 0.0000
# 4 0.0000 0.0000 0.0000 9.1122 0.0000 0.0000
# 5 0.0000 0.0000 0.0000 0.0000 9.1122 0.0000
# 6 4.4231 -4.4231 0.0000 0.0000 0.0000 23.9371
#
#
#
# Elastic Compliance Matrix: (Units=1/GPa)
#
#
# Indices 1 2 3 4 5 6 
#
# 1 0.013528 -0.000632 -0.000461 0.000000 0.000000 -0.002616
# 2 -0.000632 0.013528 -0.000461 0.000000 0.000000 0.002616
# 3 -0.000461 -0.000461 0.035486 0.000000 0.000000 0.000000
# 4 0.000000 0.000000 0.000000 0.109743 0.000000 0.000000
# 5 0.000000 0.000000 0.000000 0.000000 0.109743 0.000000
# 6 -0.002616 0.002616 0.000000 0.000000 0.000000 0.042743
#
#
# Mechanical properties :
#
#
# Convention : Reuss Voigt Hill
#
# Bulk Modulus (GPa) = 16.82584 20.83036 18.82810
# Shear Modulus (GPa) = 14.38054 19.99095 17.18574
#
# Velocity S-wave (km/s) = 2.82446 3.33015 3.08767
# Velocity P-wave (km/s) = 4.46887 5.13245 4.81211
#
# Compressibility (1/GPa) = 0.05943238
#
# Stress axis : x y z
#
# Youngs Moduli (GPa) = 73.92054 73.92054 28.18016
#
# Poissons Ratio (x) = 0.04671 0.01300
# Poissons Ratio (y) = 0.04671 0.01300
# Poissons Ratio (z) = 0.03411 0.03411
#
# Static dielectric constant tensor:
#      x y z
#    x 1.630640 0.000000 0.000000 
#    y 0.000000 1.630640 0.000000 
#    z 0.000000 0.000000 1.605190 
# 
# From -- ./inp_files/960.got.cif
#   From: 2010.05.17/outbox.cif.g08.bks.cpg/sg84_1_cif.got.tgz:960.got - 2010.06.03 18:57:40.
