data_PCOD9544294
_publ_section_title
;
Structure prediction by ZEFSAII (Michael W. Deem and Ramdas Pophale) SiO2 
 PCOD9544294
Probable space group: P 42/M
;
_chemical_formula_sum "Si O2"
_cell_formula_units_Z 60
_cell_length_a 11.603407
_cell_length_b 11.603407
_cell_length_c 20.890339
_cell_angle_alpha 90.000000
_cell_angle_beta 90.000000
_cell_angle_gamma 90.000000
_cell_volume 2812.655481
_symmetry_space_group_name_H-M "P 42/M"
_symmetry_group_IT_number 84
_symmetry_cell_setting 'tetragonal'
loop_
_space_group_symop_operation_xyz
x,y,z
-y,x,1/2+z
-x,-y,z
y,-x,1/2+z
-x,-y,-z
y,-x,1/2-z
x,y,-z
-y,x,1/2-z
loop_
_atom_site_type_symbol
_atom_site_label
_atom_site_fract_x
_atom_site_fract_y
_atom_site_fract_z
Si Si1 0.000000 0.000000 0.650091
Si Si2 0.964657 0.216855 0.071215
Si Si3 0.948692 0.621780 0.175402
Si Si4 0.167235 0.305523 0.569784
Si Si5 0.611752 0.766472 0.192369
Si Si6 0.612711 0.556358 0.391318
Si Si7 0.726886 0.539614 0.194092
Si Si8 0.990520 0.737495 0.689664
O O1 0.108670 0.974421 0.604543
O O2 0.019143 0.122533 0.685729
O O3 0.831334 0.183522 0.067434
O O4 0.977743 0.320019 0.120311
O O5 0.008224 0.240121 0.000000
O O6 0.822769 0.591655 0.147121
O O7 0.950784 0.699819 0.239250
O O8 0.000000 0.500000 0.192065
O O9 0.117864 0.342636 0.500000
O O10 0.294367 0.360706 0.576018
O O11 0.087753 0.320360 0.633216
O O12 0.542638 0.699493 0.136087
O O13 0.677907 0.657655 0.222119
O O14 0.521570 0.792381 0.248064
O O15 0.689661 0.878228 0.179761
O O16 0.500000 0.500000 0.425249
O O17 0.543225 0.632781 0.337985
#
# Coordination Sequence:
#
# PCOD9544294 Si02
#       8
#     4   8   8   8   8   8   8   8
#     4  10  23  45  68  98 141 181 232 290 343 413
#     4  10  23  43  68  97 133 183 231 283 349 420
#     4  12  24  38  63  98 136 173 221 284 340 405
#     4  10  23  44  68  94 134 184 229 280 349 418
#     4  11  21  37  61  93 134 174 219 276 340 407
#     4  10  22  38  64  93 128 173 233 284 337 408
#     4  11  21  35  58  92 129 176 217 274 339 399
#     4  11  25  41  67 103 138 178 229 284 350 408
#
# _framework density 21.332152000000001
#
# number of rings (size 3 to 8) (size 9 to 14) (size 15 to 20)
#    0.000    1.333    2.667    2.600    0.000    4.800 
#    0.000    2.000    0.000    3.200    0.000    0.000 
#    0.000    0.000    0.000    0.000    0.000    0.000 
#
# Total GULP energy -334141.235273 kJ/mol
# GULP energy per Si atom -5569.020588 kJ/mol
# Density = 2.128360 g / cm^3
# Si number density = 21.332152 Si / 1000 Ang^3
#
#
#
# Elastic Constant Matrix: (Units=GPa)
#
#
# Indices 1 2 3 4 5 6 
#
# 1 88.7135 19.2720 43.7903 0.0000 0.0000 -1.5541
# 2 19.2720 88.7135 43.7903 0.0000 0.0000 1.5541
# 3 43.7903 43.7903 103.5160 0.0000 0.0000 0.0000
# 4 0.0000 0.0000 0.0000-1000.3484 0.0000 0.0000
# 5 0.0000 0.0000 0.0000 0.0000-1000.3484 0.0000
# 6 -1.5541 1.5541 0.0000 0.0000 0.0000 41.1958
#
#
#
# Elastic Compliance Matrix: (Units=1/GPa)
#
#
# Indices 1 2 3 4 5 6 
#
# 1 0.014261 -0.000164 -0.005964 0.000000 0.000000 0.000544
# 2 -0.000164 0.014261 -0.005964 0.000000 0.000000 -0.000544
# 3 -0.005964 -0.005964 0.014706 0.000000 0.000000 0.000000
# 4 0.000000 0.000000 0.000000 -0.001000 0.000000 0.000000
# 5 0.000000 0.000000 0.000000 0.000000 -0.001000 0.000000
# 6 0.000544 -0.000544 0.000000 0.000000 0.000000 0.024315
#
#
# Mechanical properties :
#
#
# Convention : Reuss Voigt Hill
#
# Bulk Modulus (GPa) = 52.50419 54.96090 53.73255
# Shear Modulus (GPa) = 52.04290 -380.29419 -164.12565
#
# Velocity S-wave (km/s) = 4.94464 -13.36637 -8.78096
# Velocity P-wave (km/s) = 7.56739 14.57370 8.80703
#
# Compressibility (1/GPa) = 0.01904610
#
# Stress axis : x y z
#
# Youngs Moduli (GPa) = 70.12098 70.12098 68.00030
#
# Poissons Ratio (x) = 0.01149 0.40552
# Poissons Ratio (y) = 0.01149 0.40552
# Poissons Ratio (z) = 0.41817 0.41817
#
# Static dielectric constant tensor:
#      x y z
#    x 1.850430 0.000000 0.000000 
#    y 0.000000 1.850430 0.000000 
#    z 0.000000 0.000000 1.809960 
# 
# From -- ./inp_files/4543.got.cif
#   From: 2010.05.17/outbox.cif.g08.bks.cpg/sg84_3_cif.got.tgz:4543.got - 2010.06.03 18:57:40.
