data_PCOD9544183
_publ_section_title
;
Structure prediction by ZEFSAII (Michael W. Deem and Ramdas Pophale) SiO2 
 PCOD9544183
Probable space group: P 42/M
;
_chemical_formula_sum "Si O2"
_cell_formula_units_Z 44
_cell_length_a 8.268221
_cell_length_b 8.268221
_cell_length_c 28.373312
_cell_angle_alpha 90.000000
_cell_angle_beta 90.000000
_cell_angle_gamma 90.000000
_cell_volume 1939.698305
_symmetry_space_group_name_H-M "P 42/M"
_symmetry_group_IT_number 84
_symmetry_cell_setting 'tetragonal'
loop_
_space_group_symop_operation_xyz
x,y,z
-y,x,1/2+z
-x,-y,z
y,-x,1/2+z
-x,-y,-z
y,-x,1/2-z
x,y,-z
-y,x,1/2-z
loop_
_atom_site_type_symbol
_atom_site_label
_atom_site_fract_x
_atom_site_fract_y
_atom_site_fract_z
Si Si1 0.714247 0.358867 0.500000
Si Si2 0.826987 0.930421 0.068960
Si Si3 0.676813 0.800196 0.154221
Si Si4 0.615089 0.746696 0.254771
Si Si5 0.223432 0.395111 0.418562
Si Si6 0.448793 0.178431 0.642432
O O1 0.772499 0.226890 0.540755
O O2 0.693985 0.496853 0.458408
O O3 0.811823 0.892581 0.124276
O O4 0.689156 0.065212 0.059229
O O5 0.000000 0.000000 0.056519
O O6 0.670941 0.844479 0.208862
O O7 0.510102 0.821751 0.125566
O O8 0.713587 0.608683 0.150291
O O9 0.705570 0.573811 0.254869
O O10 0.632825 0.827125 0.305729
O O11 0.337195 0.258686 0.396737
O O12 0.500000 0.000000 0.628284
#
# Coordination Sequence:
#
# PCOD9544183 Si02
#       6
#     4   8   8   8   8   8
#     4  10  22  40  65  90 116 170 217 262 310 408
#     4  11  22  38  62  90 125 156 207 267 329 376
#     4  10  20  38  60  85 118 164 206 251 308 385
#     4   9  17  34  58  82 110 156 208 242 290 375
#     4  11  21  39  62  88 118 160 216 253 309 384
#     4  11  22  36  58  88 125 156 199 265 322 366
#
# _framework density 22.683938000000001
#
# number of rings (size 3 to 8) (size 9 to 14) (size 15 to 20)
#    0.000    1.636    1.818    5.182    0.000    1.455 
#    0.000    7.727    0.000    0.000    0.000    0.000 
#    0.000    0.000    0.000    0.000    0.000    0.000 
#
# Total GULP energy -245038.577783 kJ/mol
# GULP energy per Si atom -5569.058586 kJ/mol
# Density = 2.263231 g / cm^3
# Si number density = 22.683938 Si / 1000 Ang^3
#
#
#
# Elastic Constant Matrix: (Units=GPa)
#
#
# Indices 1 2 3 4 5 6 
#
# 1 45.9219 -4.4177 30.0204 0.0000 0.0000 10.3463
# 2 -4.4177 45.9219 30.0204 0.0000 0.0000 -10.3463
# 3 30.0204 30.0204 151.9671 0.0000 0.0000 0.0000
# 4 0.0000 0.0000 0.0000 26.4588 0.0000 0.0000
# 5 0.0000 0.0000 0.0000 0.0000 26.4588 0.0000
# 6 10.3463 -10.3463 0.0000 0.0000 0.0000 28.4158
#
#
#
# Elastic Compliance Matrix: (Units=1/GPa)
#
#
# Indices 1 2 3 4 5 6 
#
# 1 0.028548 0.005186 -0.006664 0.000000 0.000000 -0.008506
# 2 0.005186 0.028548 -0.006664 0.000000 0.000000 0.008506
# 3 -0.006664 -0.006664 0.009213 0.000000 0.000000 0.000000
# 4 0.000000 0.000000 0.000000 0.037795 0.000000 0.000000
# 5 0.000000 0.000000 0.000000 0.000000 0.037795 0.000000
# 6 -0.008506 0.008506 0.000000 0.000000 0.000000 0.041386
#
#
# Mechanical properties :
#
#
# Convention : Reuss Voigt Hill
#
# Bulk Modulus (GPa) = 19.98977 39.45078 29.72027
# Shear Modulus (GPa) = 23.12217 28.81255 25.96736
#
# Velocity S-wave (km/s) = 3.19614 3.56782 3.38708
# Velocity P-wave (km/s) = 4.73834 5.86529 5.33168
#
# Compressibility (1/GPa) = 0.05002560
#
# Stress axis : x y z
#
# Youngs Moduli (GPa) = 35.02884 35.02884 108.53908
#
# Poissons Ratio (x) = -0.18167 0.72331
# Poissons Ratio (y) = -0.18167 0.72331
# Poissons Ratio (z) = 0.23343 0.23343
#
# Static dielectric constant tensor:
#      x y z
#    x 1.875930 0.000000 0.000000 
#    y 0.000000 1.875930 0.000000 
#    z 0.000000 0.000000 1.813520 
# 
# From -- ./inp_files/5694.got.cif
#   From: 2010.05.17/outbox.cif.g08.bks.cpg/sg84_3_cif.got.tgz:5694.got - 2010.06.03 18:57:40.
