data_PCOD9544999
_publ_section_title
;
Structure prediction by ZEFSAII (Michael W. Deem and Ramdas Pophale) SiO2 
 PCOD9544999
Probable space group: P 42/N
;
_chemical_formula_sum "Si O2"
_cell_formula_units_Z 56
_cell_length_a 12.010095
_cell_length_b 12.010095
_cell_length_c 20.691626
_cell_angle_alpha 90.000000
_cell_angle_beta 90.000000
_cell_angle_gamma 90.000000
_cell_volume 2984.609420
_symmetry_space_group_name_H-M "P 42/N"
_symmetry_group_IT_number 86
_space_group.IT_coordinate_system_code '2'
_symmetry_cell_setting 'tetragonal'
loop_
_space_group_symop_operation_xyz
x,y,z
-y,1/2+x,1/2+z
1/2-x,1/2-y,z
1/2+y,-x,1/2+z
-x,-y,-z
y,1/2-x,1/2-z
1/2+x,1/2+y,-z
1/2-y,x,1/2-z
loop_
_atom_site_type_symbol
_atom_site_label
_atom_site_fract_x
_atom_site_fract_y
_atom_site_fract_z
Si Si1 0.581295 0.962933 0.557109
Si Si2 0.327435 0.474687 0.419262
Si Si3 0.258191 0.088149 0.282057
Si Si4 0.689015 0.030048 0.118391
Si Si5 0.912569 0.407253 0.685959
Si Si6 0.268029 0.119210 0.002535
Si Si7 0.861917 0.875887 0.269583
O O1 0.551214 0.011790 0.626938
O O2 0.500000 0.000000 0.500000
O O3 0.708832 0.004698 0.548326
O O4 0.589636 0.829627 0.552665
O O5 0.295141 0.407512 0.353500
O O6 0.395685 0.584182 0.401693
O O7 0.390177 0.389039 0.465451
O O8 0.135293 0.332239 0.268265
O O9 0.304815 0.962623 0.280956
O O10 0.739059 0.963971 0.057497
O O11 0.649781 0.934415 0.168021
O O12 0.786059 0.099826 0.153756
O O13 0.010749 0.399579 0.737196
O O14 0.250000 0.250000 0.984544
O O15 0.880029 0.771178 0.221095
#
# Coordination Sequence:
#
# PCOD9544999 Si02
#       7
#     8   8   8   8   8   8   8
#     4  10  20  37  57  86 115 159 201 245 309 370
#     4  10  23  38  59  90 119 154 207 257 304 378
#     4  10  22  36  59  84 115 161 198 248 307 371
#     4  11  21  38  62  90 120 158 203 258 316 365
#     4  10  21  37  58  88 120 156 203 253 307 376
#     4  10  22  37  61  88 117 160 205 254 303 376
#     4   9  20  35  58  85 117 157 204 247 301 372
#
# _framework density 18.762924000000002
#
# number of rings (size 3 to 8) (size 9 to 14) (size 15 to 20)
#    0.000    2.000    1.429    1.286   14.000    2.286 
#    0.000    0.000    0.000    0.000    0.000    0.000 
#    0.000    0.000    0.000    0.000    0.000    0.000 
#
# Total GULP energy -312191.971402 kJ/mol
# GULP energy per Si atom -5574.856632 kJ/mol
# Density = 1.872022 g / cm^3
# Si number density = 18.762924 Si / 1000 Ang^3
#
#
#
# Elastic Constant Matrix: (Units=GPa)
#
#
# Indices 1 2 3 4 5 6 
#
# 1 66.2787 33.9904 14.8786 0.0000 0.0000 -7.8093
# 2 33.9904 66.2787 14.8786 0.0000 0.0000 7.8093
# 3 14.8786 14.8786 36.5067 0.0000 0.0000 0.0000
# 4 0.0000 0.0000 0.0000 30.0027 0.0000 0.0000
# 5 0.0000 0.0000 0.0000 0.0000 30.0027 0.0000
# 6 -7.8093 7.8093 0.0000 0.0000 0.0000 38.0908
#
#
#
# Elastic Compliance Matrix: (Units=1/GPa)
#
#
# Indices 1 2 3 4 5 6 
#
# 1 0.022863 -0.011518 -0.004624 0.000000 0.000000 0.007049
# 2 -0.011518 0.022863 -0.004624 0.000000 0.000000 -0.007049
# 3 -0.004624 -0.004624 0.031161 0.000000 0.000000 0.000000
# 4 0.000000 0.000000 0.000000 0.033330 0.000000 0.000000
# 5 0.000000 0.000000 0.000000 0.000000 0.033330 0.000000
# 6 0.007049 -0.007049 0.000000 0.000000 0.000000 0.029143
#
#
# Mechanical properties :
#
#
# Convention : Reuss Voigt Hill
#
# Bulk Modulus (GPa) = 28.28340 32.95104 30.61722
# Shear Modulus (GPa) = 22.12315 26.64034 24.38175
#
# Velocity S-wave (km/s) = 3.43751 3.77216 3.60872
# Velocity P-wave (km/s) = 5.55537 6.04750 5.80665
#
# Compressibility (1/GPa) = 0.03535643
#
# Stress axis : x y z
#
# Youngs Moduli (GPa) = 43.73873 43.73873 32.09113
#
# Poissons Ratio (x) = 0.50377 0.14839
# Poissons Ratio (y) = 0.50377 0.14839
# Poissons Ratio (z) = 0.20224 0.20224
#
# Static dielectric constant tensor:
#      x y z
#    x 1.666950 0.000000 0.000000 
#    y 0.000000 1.666950 0.000000 
#    z 0.000000 0.000000 1.639220 
# 
# From -- ./inp_files/4642.got.cif
#   From: 2010.05.17/outbox.cif.g08.bks.cpg/sg86_3_cif.got.tgz:4642.got - 2010.06.03 19:03:11.
