data_PCOD9544014
_publ_section_title
;
Structure prediction by ZEFSAII (Michael W. Deem and Ramdas Pophale) SiO2 
 PCOD9544014
Probable space group: P 42/M
;
_chemical_formula_sum "Si O2"
_cell_formula_units_Z 56
_cell_length_a 13.458188
_cell_length_b 13.458188
_cell_length_c 18.533929
_cell_angle_alpha 90.000000
_cell_angle_beta 90.000000
_cell_angle_gamma 90.000000
_cell_volume 3356.917565
_symmetry_space_group_name_H-M "P 42/M"
_symmetry_group_IT_number 84
_symmetry_cell_setting 'tetragonal'
loop_
_space_group_symop_operation_xyz
x,y,z
-y,x,1/2+z
-x,-y,z
y,-x,1/2+z
-x,-y,-z
y,-x,1/2-z
x,y,-z
-y,x,1/2-z
loop_
_atom_site_type_symbol
_atom_site_label
_atom_site_fract_x
_atom_site_fract_y
_atom_site_fract_z
Si Si1 0.709059 0.484293 0.084118
Si Si2 0.717258 0.278248 0.580718
Si Si3 0.761589 0.043784 0.582666
Si Si4 0.607622 0.397209 0.783747
Si Si5 0.917463 0.414539 0.846954
Si Si6 0.700400 0.797350 0.229406
Si Si7 0.887449 0.087773 0.718442
O O1 0.694344 0.602432 0.093095
O O2 0.629718 0.428765 0.134488
O O3 0.819895 0.456120 0.111836
O O4 0.700261 0.459960 0.000000
O O5 0.746500 0.308801 0.500000
O O6 0.722432 0.157799 0.583566
O O7 0.786201 0.319247 0.644181
O O8 0.791048 0.021447 0.500000
O O9 0.848215 0.044318 0.642798
O O10 0.674371 0.970282 0.608723
O O11 0.495712 0.369438 0.764322
O O12 0.688254 0.316343 0.762202
O O13 0.874287 0.368165 0.772816
O O14 0.000000 0.500000 0.836753
O O15 0.814859 0.826297 0.237466
O O16 0.002283 0.119903 0.721286
#
# Coordination Sequence:
#
# PCOD9544014 Si02
#       7
#     8   8   8   8   8   8   8
#     4  10  19  31  50  76 110 141 170 221 282 327
#     4   9  17  31  51  76 105 136 177 223 267 317
#     4  10  19  32  52  80 109 140 176 224 276 327
#     4  10  20  35  52  75 108 142 180 222 268 324
#     4  11  20  31  51  83 114 140 179 226 281 333
#     4  10  20  34  54  78 105 146 178 223 271 325
#     4  10  20  36  55  76 108 142 184 222 263 324
#
# _framework density 16.681971999999998
#
# number of rings (size 3 to 8) (size 9 to 14) (size 15 to 20)
#    0.000    2.000    4.286    0.429    0.000    0.571 
#    0.000    3.571    0.000    0.429    0.000    0.000 
#    0.000    0.000    0.000    0.000    0.000    0.000 
#
# Total GULP energy -312082.231496 kJ/mol
# GULP energy per Si atom -5572.896991 kJ/mol
# Density = 1.664400 g / cm^3
# Si number density = 16.681972 Si / 1000 Ang^3
#
#
#
# Elastic Constant Matrix: (Units=GPa)
#
#
# Indices 1 2 3 4 5 6 
#
# 1 64.8171 34.4863 47.0348 0.0000 0.0000 3.0907
# 2 34.4863 64.8171 47.0348 0.0000 0.0000 -3.0907
# 3 47.0348 47.0348 137.3034 0.0000 0.0000 0.0000
# 4 0.0000 0.0000 0.0000 23.3661 0.0000 0.0000
# 5 0.0000 0.0000 0.0000 0.0000 23.3661 0.0000
# 6 3.0907 -3.0907 0.0000 0.0000 0.0000 19.5978
#
#
#
# Elastic Compliance Matrix: (Units=1/GPa)
#
#
# Indices 1 2 3 4 5 6 
#
# 1 0.024486 -0.009578 -0.005107 0.000000 0.000000 -0.005372
# 2 -0.009578 0.024486 -0.005107 0.000000 0.000000 0.005372
# 3 -0.005107 -0.005107 0.010782 0.000000 0.000000 0.000000
# 4 0.000000 0.000000 0.000000 0.042797 0.000000 0.000000
# 5 0.000000 0.000000 0.000000 0.000000 0.042797 0.000000
# 6 -0.005372 0.005372 0.000000 0.000000 0.000000 0.052721
#
#
# Mechanical properties :
#
#
# Convention : Reuss Voigt Hill
#
# Bulk Modulus (GPa) = 49.57797 58.22772 53.90284
# Shear Modulus (GPa) = 20.46020 22.49144 21.47582
#
# Velocity S-wave (km/s) = 3.50592 3.67583 3.59188
# Velocity P-wave (km/s) = 6.79505 7.27984 7.04161
#
# Compressibility (1/GPa) = 0.02017025
#
# Stress axis : x y z
#
# Youngs Moduli (GPa) = 40.83919 40.83919 92.74751
#
# Poissons Ratio (x) = 0.39118 0.47365
# Poissons Ratio (y) = 0.39118 0.47365
# Poissons Ratio (z) = 0.20856 0.20856
#
# Static dielectric constant tensor:
#      x y z
#    x 1.562950 0.000000 0.000000 
#    y 0.000000 1.562950 0.000000 
#    z 0.000000 0.000000 1.579640 
# 
# From -- ./inp_files/3841.got.cif
#   From: 2010.05.17/outbox.cif.g08.bks.cpg/sg84_2_cif.got.tgz:3841.got - 2010.06.03 18:57:40.
