data_PCOD9544304
_publ_section_title
;
Structure prediction by ZEFSAII (Michael W. Deem and Ramdas Pophale) SiO2 
 PCOD9544304
Probable space group: P 42/M
;
_chemical_formula_sum "Si O2"
_cell_formula_units_Z 58
_cell_length_a 17.711558
_cell_length_b 17.711558
_cell_length_c 7.701417
_cell_angle_alpha 90.000000
_cell_angle_beta 90.000000
_cell_angle_gamma 90.000000
_cell_volume 2415.929020
_symmetry_space_group_name_H-M "P 42/M"
_symmetry_group_IT_number 84
_symmetry_cell_setting 'tetragonal'
loop_
_space_group_symop_operation_xyz
x,y,z
-y,x,1/2+z
-x,-y,z
y,-x,1/2+z
-x,-y,-z
y,-x,1/2-z
x,y,-z
-y,x,1/2-z
loop_
_atom_site_type_symbol
_atom_site_label
_atom_site_fract_x
_atom_site_fract_y
_atom_site_fract_z
Si Si1 0.752690 0.483977 0.202113
Si Si2 0.244033 0.184844 0.709335
Si Si3 0.932065 0.846625 0.289622
Si Si4 0.787907 0.650335 0.293835
Si Si5 0.956087 0.675361 0.287142
Si Si6 0.103025 0.606593 0.696622
Si Si7 0.601475 0.439891 0.197198
Si Si8 0.000000 0.000000 0.250000
O O1 0.751213 0.569905 0.263914
O O2 0.834433 0.447768 0.225338
O O3 0.684976 0.432346 0.275992
O O4 0.735824 0.484771 0.000000
O O5 0.256402 0.180504 0.500000
O O6 0.158092 0.158117 0.742197
O O7 0.249393 0.272188 0.768313
O O8 0.308868 0.137024 0.798207
O O9 0.942931 0.857713 0.500000
O O10 0.964592 0.764053 0.241734
O O11 0.971221 0.916233 0.192685
O O12 0.793385 0.661124 0.500000
O O13 0.873786 0.649649 0.227321
O O14 0.958223 0.673677 0.500000
O O15 0.021040 0.619804 0.222261
O O16 0.093010 0.579711 0.500000
O O17 0.530761 0.410091 0.303586
O O18 0.595899 0.409806 0.000000
#
# Coordination Sequence:
#
# PCOD9544304 Si02
#       8
#     8   8   8   8   8   8   8   2
#     4  11  25  40  56  87 121 147 181 228 281 334
#     4   9  19  37  58  80 111 151 191 234 286 337
#     4   9  18  32  50  76 111 150 190 236 291 339
#     4   9  19  38  62  81 105 148 194 236 281 333
#     4   8  17  36  57  77 106 147 196 240 281 335
#     4  11  22  36  58  85 113 148 190 235 278 333
#     4  10  22  40  62  86 116 151 183 223 272 330
#     4  12  18  24  48  82 116 152 194 240 280 338
#
# _framework density 24.007328000000001
#
# number of rings (size 3 to 8) (size 9 to 14) (size 15 to 20)
#    0.000    2.345    0.000    4.345    1.931    3.310 
#    0.000    4.828    0.000    3.310    0.000    0.000 
#    0.000    0.000    0.000    0.000    0.000    0.000 
#
# Total GULP energy -323786.315713 kJ/mol
# GULP energy per Si atom -5582.522685 kJ/mol
# Density = 2.395269 g / cm^3
# Si number density = 24.007328 Si / 1000 Ang^3
#
#
#
# Elastic Constant Matrix: (Units=GPa)
#
#
# Indices 1 2 3 4 5 6 
#
# 1 61.3827 13.9615 0.0387 0.0000 0.0000 0.7867
# 2 13.9615 61.3827 0.0387 0.0000 0.0000 -0.7867
# 3 0.0387 0.0387 51.1223 0.0000 0.0000 0.0000
# 4 0.0000 0.0000 0.0000 5.3184 0.0000 0.0000
# 5 0.0000 0.0000 0.0000 0.0000 5.3184 0.0000
# 6 0.7867 -0.7867 0.0000 0.0000 0.0000 23.0889
#
#
#
# Elastic Compliance Matrix: (Units=1/GPa)
#
#
# Indices 1 2 3 4 5 6 
#
# 1 0.017192 -0.003920 -0.000010 0.000000 0.000000 -0.000719
# 2 -0.003920 0.017192 -0.000010 0.000000 0.000000 0.000719
# 3 -0.000010 -0.000010 0.019561 0.000000 0.000000 0.000000
# 4 0.000000 0.000000 0.000000 0.188025 0.000000 0.000000
# 5 0.000000 0.000000 0.000000 0.000000 0.188025 0.000000
# 6 -0.000719 0.000719 0.000000 0.000000 0.000000 0.043360
#
#
# Mechanical properties :
#
#
# Convention : Reuss Voigt Hill
#
# Bulk Modulus (GPa) = 21.70818 22.44063 22.07441
# Shear Modulus (GPa) = 10.06867 17.40174 13.73521
#
# Velocity S-wave (km/s) = 2.05015 2.69523 2.39451
# Velocity P-wave (km/s) = 3.82963 4.36502 4.10606
#
# Compressibility (1/GPa) = 0.04606558
#
# Stress axis : x y z
#
# Youngs Moduli (GPa) = 58.16676 58.16676 51.12226
#
# Poissons Ratio (x) = 0.22799 0.00051
# Poissons Ratio (y) = 0.22799 0.00051
# Poissons Ratio (z) = 0.00058 0.00058
#
# Static dielectric constant tensor:
#      x y z
#    x 1.945340 0.000000 0.000000 
#    y 0.000000 1.945340 0.000000 
#    z 0.000000 0.000000 1.913470 
# 
# From -- ./inp_files/1216.got.cif
#   From: 2010.05.17/outbox.cif.g08.bks.cpg/sg84_1_cif.got.tgz:1216.got - 2010.06.03 18:57:40.
