data_PCOD9544363
_publ_section_title
;
Structure prediction by ZEFSAII (Michael W. Deem and Ramdas Pophale) SiO2 
 PCOD9544363
Probable space group: P 42/M
;
_chemical_formula_sum "Si O2"
_cell_formula_units_Z 40
_cell_length_a 10.094441
_cell_length_b 10.094441
_cell_length_c 19.266466
_cell_angle_alpha 90.000000
_cell_angle_beta 90.000000
_cell_angle_gamma 90.000000
_cell_volume 1963.209326
_symmetry_space_group_name_H-M "P 42/M"
_symmetry_group_IT_number 84
_symmetry_cell_setting 'tetragonal'
loop_
_space_group_symop_operation_xyz
x,y,z
-y,x,1/2+z
-x,-y,z
y,-x,1/2+z
-x,-y,-z
y,-x,1/2-z
x,y,-z
-y,x,1/2-z
loop_
_atom_site_type_symbol
_atom_site_label
_atom_site_fract_x
_atom_site_fract_y
_atom_site_fract_z
Si Si1 0.871289 0.089893 0.417452
Si Si2 0.721763 0.709748 0.739905
Si Si3 0.001982 0.344525 0.810151
Si Si4 0.091912 0.613146 0.579562
Si Si5 0.514893 0.648480 0.862724
O O1 0.843598 0.097406 0.500000
O O2 0.748144 0.029031 0.376528
O O3 0.904117 0.238564 0.391006
O O4 0.000000 0.000000 0.406845
O O5 0.872814 0.684303 0.760865
O O6 0.625366 0.656985 0.801329
O O7 0.688700 0.623091 0.672551
O O8 0.692313 0.862772 0.724919
O O9 0.000000 0.500000 0.827418
O O10 0.045689 0.628390 0.500000
O O11 0.240833 0.559083 0.583298
O O12 0.000000 0.500000 0.613620
O O13 0.500000 0.500000 0.889408
#
# Coordination Sequence:
#
# PCOD9544363 Si02
#       5
#     8   8   8   8   8
#     4  10  24  46  67  92 127 166 213 268 317 370
#     4  12  25  41  62  97 132 166 207 262 320 380
#     4  12  26  42  65  96 127 169 214 257 318 380
#     4  10  24  44  68  95 125 168 217 265 317 377
#     4  12  22  42  65  91 132 170 206 262 321 371
#
# _framework density 20.374803
#
# number of rings (size 3 to 8) (size 9 to 14) (size 15 to 20)
#    0.000    0.800    6.000    0.000    8.400    0.800 
#    0.000    0.000    0.000    0.000    0.000    0.000 
#    0.000    0.000    0.000    0.000    0.000    0.000 
#
# Total GULP energy -223647.135907 kJ/mol
# GULP energy per Si atom -5591.178398 kJ/mol
# Density = 2.032843 g / cm^3
# Si number density = 20.374803 Si / 1000 Ang^3
#
#
#
# Elastic Constant Matrix: (Units=GPa)
#
#
# Indices 1 2 3 4 5 6 
#
# 1 152.9185 45.7200 15.7464 0.0000 0.0000 -0.5106
# 2 45.7200 152.9185 15.7464 0.0000 0.0000 0.5106
# 3 15.7464 15.7464 31.3811 0.0000 0.0000 0.0000
# 4 0.0000 0.0000 0.0000 6.8823 0.0000 0.0000
# 5 0.0000 0.0000 0.0000 0.0000 6.8823 0.0000
# 6 -0.5106 0.5106 0.0000 0.0000 0.0000 33.8587
#
#
#
# Elastic Compliance Matrix: (Units=1/GPa)
#
#
# Indices 1 2 3 4 5 6 
#
# 1 0.007400 -0.001930 -0.002744 0.000000 0.000000 0.000141
# 2 -0.001930 0.007400 -0.002744 0.000000 0.000000 -0.000141
# 3 -0.002744 -0.002744 0.034621 0.000000 0.000000 0.000000
# 4 0.000000 0.000000 0.000000 0.145301 0.000000 0.000000
# 5 0.000000 0.000000 0.000000 0.000000 0.145301 0.000000
# 6 0.000141 -0.000141 0.000000 0.000000 0.000000 0.029539
#
#
# Mechanical properties :
#
#
# Convention : Reuss Voigt Hill
#
# Bulk Modulus (GPa) = 28.91712 54.62708 41.77210
# Shear Modulus (GPa) = 12.62865 26.85833 19.74349
#
# Velocity S-wave (km/s) = 2.49231 3.63466 3.11628
# Velocity P-wave (km/s) = 4.74400 6.66960 5.78745
#
# Compressibility (1/GPa) = 0.03458160
#
# Stress axis : x y z
#
# Youngs Moduli (GPa) = 135.14233 135.14233 28.88458
#
# Poissons Ratio (x) = 0.26086 0.07927
# Poissons Ratio (y) = 0.26086 0.07927
# Poissons Ratio (z) = 0.37089 0.37089
#
# Static dielectric constant tensor:
#      x y z
#    x 1.712140 0.000000 0.000000 
#    y 0.000000 1.712140 0.000000 
#    z 0.000000 0.000000 1.737150 
# 
# From -- ./inp_files/4784.got.cif
#   From: 2010.05.17/outbox.cif.g08.bks.cpg/sg84_3_cif.got.tgz:4784.got - 2010.06.03 18:57:40.
