data_PCOD9544985
_publ_section_title
;
Structure prediction by ZEFSAII (Michael W. Deem and Ramdas Pophale) SiO2 
 PCOD9544985
Probable space group: P 42/N
;
_chemical_formula_sum "Si O2"
_cell_formula_units_Z 58
_cell_length_a 17.721380
_cell_length_b 17.721380
_cell_length_c 8.731099
_cell_angle_alpha 90.000000
_cell_angle_beta 90.000000
_cell_angle_gamma 90.000000
_cell_volume 2741.978146
_symmetry_space_group_name_H-M "P 42/N"
_symmetry_group_IT_number 86
_space_group.IT_coordinate_system_code '2'
_symmetry_cell_setting 'tetragonal'
loop_
_space_group_symop_operation_xyz
x,y,z
-y,1/2+x,1/2+z
1/2-x,1/2-y,z
1/2+y,-x,1/2+z
-x,-y,-z
y,1/2-x,1/2-z
1/2+x,1/2+y,-z
1/2-y,x,1/2-z
loop_
_atom_site_type_symbol
_atom_site_label
_atom_site_fract_x
_atom_site_fract_y
_atom_site_fract_z
Si Si1 0.723123 0.585412 0.202231
Si Si2 0.250000 0.250000 0.750000
Si Si3 0.429598 0.389739 0.650910
Si Si4 0.175190 0.665352 0.599411
Si Si5 0.665486 0.173269 0.033874
Si Si6 0.347104 0.977663 0.134512
Si Si7 0.490376 0.825936 0.590069
Si Si8 0.482349 0.479420 0.174189
O O1 0.733581 0.673681 0.156818
O O2 0.808502 0.558740 0.237718
O O3 0.657809 0.586591 0.329682
O O4 0.689934 0.536791 0.063657
O O5 0.454773 0.370200 0.479745
O O6 0.481435 0.455290 0.720615
O O7 0.175803 0.751138 0.538870
O O8 0.175779 0.665887 0.784102
O O9 0.248672 0.628010 0.523030
O O10 0.092174 0.640292 0.552604
O O11 0.631988 0.098227 0.959702
O O12 0.257207 0.980365 0.163231
O O13 0.399460 0.983019 0.280222
O O14 0.526074 0.891677 0.690798
O O15 0.500000 0.500000 0.000000
#
# Coordination Sequence:
#
# PCOD9544985 Si02
#       8
#     8   2   8   8   8   8   8   8
#     4   9  18  38  65  95 121 161 214 276 324 399
#     4   8  16  32  68  96 118 156 220 268 334 380
#     4  10  20  41  65  93 124 167 211 270 332 388
#     4  10  20  35  62  89 131 168 213 271 316 388
#     4  10  20  38  60  95 128 171 221 263 326 378
#     4  10  24  42  63  88 132 173 216 270 324 397
#     4  10  22  41  60  92 132 163 216 268 326 389
#     4  12  24  42  64  94 134 170 213 267 329 388
#
# _framework density 21.152611
#
# number of rings (size 3 to 8) (size 9 to 14) (size 15 to 20)
#    0.000    1.931    1.379    2.897    0.000    4.414 
#    4.966    1.379    0.000    0.000    0.000    0.000 
#    0.000    0.000    0.000    0.000    0.000    0.000 
#
# Total GULP energy -323462.701486 kJ/mol
# GULP energy per Si atom -5576.943129 kJ/mol
# Density = 2.110447 g / cm^3
# Si number density = 21.152611 Si / 1000 Ang^3
#
#
#
# Elastic Constant Matrix: (Units=GPa)
#
#
# Indices 1 2 3 4 5 6 
#
# 1 97.8547 34.5936 40.7028 0.0000 0.0000 -8.1291
# 2 34.5936 97.8547 40.7028 0.0000 0.0000 8.1291
# 3 40.7028 40.7028 73.5253 0.0000 0.0000 0.0000
# 4 0.0000 0.0000 0.0000 31.8990 0.0000 0.0000
# 5 0.0000 0.0000 0.0000 0.0000 31.8990 0.0000
# 6 -8.1291 8.1291 0.0000 0.0000 0.0000 24.3210
#
#
#
# Elastic Compliance Matrix: (Units=1/GPa)
#
#
# Indices 1 2 3 4 5 6 
#
# 1 0.014368 -0.002925 -0.006335 0.000000 0.000000 0.005780
# 2 -0.002925 0.014368 -0.006335 0.000000 0.000000 -0.005780
# 3 -0.006335 -0.006335 0.020615 0.000000 0.000000 0.000000
# 4 0.000000 0.000000 0.000000 0.031349 0.000000 0.000000
# 5 0.000000 0.000000 0.000000 0.000000 0.031349 0.000000
# 6 0.005780 -0.005780 0.000000 0.000000 0.000000 0.044981
#
#
# Mechanical properties :
#
#
# Convention : Reuss Voigt Hill
#
# Bulk Modulus (GPa) = 55.06035 55.69257 55.37646
# Shear Modulus (GPa) = 25.73679 27.83949 26.78814
#
# Velocity S-wave (km/s) = 3.49193 3.63178 3.56254
# Velocity P-wave (km/s) = 6.50728 6.63118 6.56952
#
# Compressibility (1/GPa) = 0.01816189
#
# Stress axis : x y z
#
# Youngs Moduli (GPa) = 69.59694 69.59694 48.50837
#
# Poissons Ratio (x) = 0.20354 0.30731
# Poissons Ratio (y) = 0.20354 0.30731
# Poissons Ratio (z) = 0.44091 0.44091
#
# Static dielectric constant tensor:
#      x y z
#    x 1.776530 0.000000 0.000000 
#    y 0.000000 1.776530 0.000000 
#    z 0.000000 0.000000 1.730420 
# 
# From -- ./inp_files/1486.got.cif
#   From: 2010.05.17/outbox.cif.g08.bks.cpg/sg86_1_cif.got.tgz:1486.got - 2010.06.03 19:03:11.
