data_PCOD9544085
_publ_section_title
;
Structure prediction by ZEFSAII (Michael W. Deem and Ramdas Pophale) SiO2 
 PCOD9544085
Probable space group: P 42/M
;
_chemical_formula_sum "Si O2"
_cell_formula_units_Z 28
_cell_length_a 7.487275
_cell_length_b 7.487275
_cell_length_c 19.280965
_cell_angle_alpha 90.000000
_cell_angle_beta 90.000000
_cell_angle_gamma 90.000000
_cell_volume 1080.877149
_symmetry_space_group_name_H-M "P 42/M"
_symmetry_group_IT_number 84
_symmetry_cell_setting 'tetragonal'
loop_
_space_group_symop_operation_xyz
x,y,z
-y,x,1/2+z
-x,-y,z
y,-x,1/2+z
-x,-y,-z
y,-x,1/2-z
x,y,-z
-y,x,1/2-z
loop_
_atom_site_type_symbol
_atom_site_label
_atom_site_fract_x
_atom_site_fract_y
_atom_site_fract_z
Si Si1 0.711784 0.543491 0.422264
Si Si2 0.000000 0.500000 0.174567
Si Si3 0.798948 0.966012 0.418668
Si Si4 0.600357 0.760364 0.777806
O O1 0.500000 0.500000 0.417347
O O2 0.772439 0.493714 0.500000
O O3 0.746804 0.755411 0.412584
O O4 0.797359 0.442303 0.357079
O O5 0.076998 0.356560 0.118709
O O6 0.920306 0.351226 0.228176
O O7 0.796750 0.011223 0.500000
O O8 0.000000 0.000000 0.392824
O O9 0.713294 0.586242 0.762194
#
# Coordination Sequence:
#
# PCOD9544085 Si02
#       4
#     8   4   8   8
#     4  10  19  38  67  93 128 180 228 286 354 421
#     4  12  23  38  67  96 128 192 226 282 369 428
#     4  10  22  41  64  98 139 180 233 291 353 438
#     4  11  21  40  60  92 130 164 224 288 339 416
#
# _framework density 25.904883999999999
#
# number of rings (size 3 to 8) (size 9 to 14) (size 15 to 20)
#    0.000    1.429    5.714    0.429    0.000    2.286 
#    0.000    2.143    0.000    0.000    0.000    0.000 
#    0.000    1.143    0.000    0.000    0.000    0.000 
#
# Total GULP energy -156283.080736 kJ/mol
# GULP energy per Si atom -5581.538598 kJ/mol
# Density = 2.584592 g / cm^3
# Si number density = 25.904884 Si / 1000 Ang^3
#
#
#
# Elastic Constant Matrix: (Units=GPa)
#
#
# Indices 1 2 3 4 5 6 
#
# 1 106.8635 17.2870 23.7142 0.0000 0.0000 6.9632
# 2 17.2870 106.8635 23.7142 0.0000 0.0000 -6.9632
# 3 23.7142 23.7142 193.7171 0.0000 0.0000 0.0000
# 4 0.0000 0.0000 0.0000 120.8542 0.0000 0.0000
# 5 0.0000 0.0000 0.0000 0.0000 120.8542 0.0000
# 6 6.9632 -6.9632 0.0000 0.0000 0.0000 25.6313
#
#
#
# Elastic Compliance Matrix: (Units=1/GPa)
#
#
# Indices 1 2 3 4 5 6 
#
# 1 0.010053 -0.001603 -0.001034 0.000000 0.000000 -0.003167
# 2 -0.001603 0.010053 -0.001034 0.000000 0.000000 0.003167
# 3 -0.001034 -0.001034 0.005415 0.000000 0.000000 0.000000
# 4 0.000000 0.000000 0.000000 0.008274 0.000000 0.000000
# 5 0.000000 0.000000 0.000000 0.000000 0.008274 0.000000
# 6 -0.003167 0.003167 0.000000 0.000000 0.000000 0.040735
#
#
# Mechanical properties :
#
#
# Convention : Reuss Voigt Hill
#
# Bulk Modulus (GPa) = 55.01274 59.65276 57.33275
# Shear Modulus (GPa) = 51.97058 76.31654 64.14356
#
# Velocity S-wave (km/s) = 4.48393 5.43362 4.98146
# Velocity P-wave (km/s) = 6.93470 7.90210 7.43415
#
# Compressibility (1/GPa) = 0.01817761
#
# Stress axis : x y z
#
# Youngs Moduli (GPa) = 99.47354 99.47354 184.65776
#
# Poissons Ratio (x) = 0.15946 0.19101
# Poissons Ratio (y) = 0.15946 0.19101
# Poissons Ratio (z) = 0.10290 0.10290
#
# Static dielectric constant tensor:
#      x y z
#    x 1.457100 0.000000 0.000000 
#    y 0.000000 1.457100 0.000000 
#    z 0.000000 0.000000 2.064600 
# 
# From -- ./inp_files/4021.got.cif
#   From: 2010.05.17/outbox.cif.g08.bks.cpg/sg84_3_cif.got.tgz:4021.got - 2010.06.03 18:57:40.
