data_PCOD9544430
_publ_section_title
;
Structure prediction by ZEFSAII (Michael W. Deem and Ramdas Pophale) SiO2 
 PCOD9544430
Probable space group: P 42/M
;
_chemical_formula_sum "Si O2"
_cell_formula_units_Z 40
_cell_length_a 15.042213
_cell_length_b 15.042213
_cell_length_c 8.607639
_cell_angle_alpha 90.000000
_cell_angle_beta 90.000000
_cell_angle_gamma 90.000000
_cell_volume 1947.634741
_symmetry_space_group_name_H-M "P 42/M"
_symmetry_group_IT_number 84
_symmetry_cell_setting 'tetragonal'
loop_
_space_group_symop_operation_xyz
x,y,z
-y,x,1/2+z
-x,-y,z
y,-x,1/2+z
-x,-y,-z
y,-x,1/2-z
x,y,-z
-y,x,1/2-z
loop_
_atom_site_type_symbol
_atom_site_label
_atom_site_fract_x
_atom_site_fract_y
_atom_site_fract_z
Si Si1 0.748795 0.422976 0.185900
Si Si2 0.407853 0.051736 0.813825
Si Si3 0.917850 0.894220 0.319619
Si Si4 0.899775 0.709720 0.817137
Si Si5 0.265354 0.388253 0.315003
O O1 0.848188 0.409007 0.250836
O O2 0.710947 0.513022 0.260715
O O3 0.683829 0.340922 0.221460
O O4 0.753444 0.432491 0.000000
O O5 0.500000 0.000000 0.776370
O O6 0.329287 0.993456 0.740280
O O7 0.398876 0.052934 0.000000
O O8 0.886645 0.976765 0.215762
O O9 0.876866 0.800974 0.270690
O O10 0.914251 0.097520 0.000000
O O11 0.824567 0.639216 0.772217
O O12 0.902420 0.725724 0.000000
O O13 0.248820 0.387741 0.500000
#
# Coordination Sequence:
#
# PCOD9544430 Si02
#       5
#     8   8   8   8   8
#     4  11  25  44  69  99 131 172 219 270 329 394
#     4  11  23  41  67  96 130 167 208 261 323 382
#     4  11  23  42  64  90 128 170 217 265 320 384
#     4  12  25  41  65  95 129 169 217 268 324 390
#     4  11  25  45  67  96 133 169 219 276 330 394
#
# _framework density 20.537731999999998
#
# number of rings (size 3 to 8) (size 9 to 14) (size 15 to 20)
#    0.000    0.800    2.000    6.000    2.800    4.400 
#    0.000    2.000    0.000    0.000    0.000    0.000 
#    0.000    0.000    0.000    0.000    0.000    0.000 
#
# Total GULP energy -223919.058634 kJ/mol
# GULP energy per Si atom -5597.976466 kJ/mol
# Density = 2.049099 g / cm^3
# Si number density = 20.537732 Si / 1000 Ang^3
#
#
#
# Elastic Constant Matrix: (Units=GPa)
#
#
# Indices 1 2 3 4 5 6 
#
# 1 71.3151 25.8452 22.2749 0.0000 0.0000 -9.5590
# 2 25.8452 71.3151 22.2749 0.0000 0.0000 9.5590
# 3 22.2749 22.2749 70.0043 0.0000 0.0000 0.0000
# 4 0.0000 0.0000 0.0000 32.7515 0.0000 0.0000
# 5 0.0000 0.0000 0.0000 0.0000 32.7515 0.0000
# 6 -9.5590 9.5590 0.0000 0.0000 0.0000 26.9628
#
#
#
# Elastic Compliance Matrix: (Units=1/GPa)
#
#
# Indices 1 2 3 4 5 6 
#
# 1 0.018948 -0.006897 -0.003834 0.000000 0.000000 0.009163
# 2 -0.006897 0.018948 -0.003834 0.000000 0.000000 -0.009163
# 3 -0.003834 -0.003834 0.016725 0.000000 0.000000 0.000000
# 4 0.000000 0.000000 0.000000 0.030533 0.000000 0.000000
# 5 0.000000 0.000000 0.000000 0.000000 0.030533 0.000000
# 6 0.009163 -0.009163 0.000000 0.000000 0.000000 0.043585
#
#
# Mechanical properties :
#
#
# Convention : Reuss Voigt Hill
#
# Bulk Modulus (GPa) = 39.23362 39.26938 39.25150
# Shear Modulus (GPa) = 25.39368 27.97580 26.68474
#
# Velocity S-wave (km/s) = 3.52012 3.69476 3.60850
# Velocity P-wave (km/s) = 5.97213 6.11259 6.04277
#
# Compressibility (1/GPa) = 0.02548834
#
# Stress axis : x y z
#
# Youngs Moduli (GPa) = 52.77680 52.77680 59.79087
#
# Poissons Ratio (x) = 0.36402 0.22926
# Poissons Ratio (y) = 0.36402 0.22926
# Poissons Ratio (z) = 0.20237 0.20237
#
# Static dielectric constant tensor:
#      x y z
#    x 1.728780 0.000000 0.000000 
#    y 0.000000 1.728780 0.000000 
#    z 0.000000 0.000000 1.690020 
# 
# From -- ./inp_files/775.got.cif
#   From: 2010.05.17/outbox.cif.g08.bks.cpg/sg84_1_cif.got.tgz:775.got - 2010.06.03 18:57:40.
