data_PCOD9544028
_publ_section_title
;
Structure prediction by ZEFSAII (Michael W. Deem and Ramdas Pophale) SiO2 
 PCOD9544028
Probable space group: P 42/M
;
_chemical_formula_sum "Si O2"
_cell_formula_units_Z 64
_cell_length_a 20.952021
_cell_length_b 20.952021
_cell_length_c 9.224936
_cell_angle_alpha 90.000000
_cell_angle_beta 90.000000
_cell_angle_gamma 90.000000
_cell_volume 4049.628677
_symmetry_space_group_name_H-M "P 42/M"
_symmetry_group_IT_number 84
_symmetry_cell_setting 'tetragonal'
loop_
_space_group_symop_operation_xyz
x,y,z
-y,x,1/2+z
-x,-y,z
y,-x,1/2+z
-x,-y,-z
y,-x,1/2-z
x,y,-z
-y,x,1/2-z
loop_
_atom_site_type_symbol
_atom_site_label
_atom_site_fract_x
_atom_site_fract_y
_atom_site_fract_z
Si Si1 0.309944 0.236182 0.834680
Si Si2 0.002843 0.745884 0.165303
Si Si3 0.436898 0.875218 0.171950
Si Si4 0.402950 0.003175 0.667625
Si Si5 0.886848 0.799628 0.333403
Si Si6 0.139367 0.582379 0.672456
Si Si7 0.878530 0.207777 0.336087
Si Si8 0.211936 0.319180 0.668537
O O1 0.372024 0.197558 0.776711
O O2 0.256617 0.180530 0.838965
O O3 0.275267 0.293629 0.749469
O O4 0.323526 0.256433 0.000000
O O5 0.944725 0.786159 0.226747
O O6 0.984854 0.671666 0.168131
O O7 0.061422 0.755863 0.272480
O O8 0.019654 0.762540 0.000000
O O9 0.507371 0.846007 0.187695
O O10 0.381751 0.826293 0.223597
O O11 0.436250 0.943931 0.251491
O O12 0.425166 0.887009 0.000000
O O13 0.423591 0.008825 0.500000
O O14 0.407383 0.071931 0.746000
O O15 0.907056 0.806901 0.500000
O O16 0.847938 0.859462 0.273449
O O17 0.839400 0.738616 0.326347
O O18 0.130022 0.596235 0.500000
O O19 0.889247 0.185123 0.500000
O O20 0.227962 0.330413 0.500000
#
# Coordination Sequence:
#
# PCOD9544028 Si02
#       8
#     8   8   8   8   8   8   8   8
#     4   9  18  31  48  69  92 121 157 197 238 279
#     4  11  21  32  48  70  95 124 159 198 237 284
#     4  10  20  34  50  68  95 132 168 197 232 283
#     4  11  22  32  45  68  99 131 165 200 235 273
#     4  10  19  32  50  70  92 119 154 198 245 289
#     4  10  20  34  50  68  95 132 168 197 232 283
#     4  10  19  32  50  70  92 119 154 198 245 289
#     4   9  18  31  48  69  92 121 157 197 238 279
#
# _framework density 15.803919
#
# number of rings (size 3 to 8) (size 9 to 14) (size 15 to 20)
#    0.000    2.000    2.500    1.875    0.000    5.000 
#    0.000    0.000    0.000    0.375    0.000    2.625 
#    0.000    0.500    0.000    6.250    0.000    0.000 
#
# Total GULP energy -356621.987837 kJ/mol
# GULP energy per Si atom -5572.218560 kJ/mol
# Density = 1.576795 g / cm^3
# Si number density = 15.803919 Si / 1000 Ang^3
#
#
#
# Elastic Constant Matrix: (Units=GPa)
#
#
# Indices 1 2 3 4 5 6 
#
# 1 46.6457 23.4932 23.0422 0.0000 0.0000 2.9258
# 2 23.4932 46.6457 23.0422 0.0000 0.0000 -2.9258
# 3 23.0422 23.0422 48.1653 0.0000 0.0000 0.0000
# 4 0.0000 0.0000 0.0000 19.2866 0.0000 0.0000
# 5 0.0000 0.0000 0.0000 0.0000 19.2866 0.0000
# 6 2.9258 -2.9258 0.0000 0.0000 0.0000 17.3746
#
#
#
# Elastic Compliance Matrix: (Units=1/GPa)
#
#
# Indices 1 2 3 4 5 6 
#
# 1 0.032953 -0.012159 -0.009948 0.000000 0.000000 -0.007597
# 2 -0.012159 0.032953 -0.009948 0.000000 0.000000 0.007597
# 3 -0.009948 -0.009948 0.030280 0.000000 0.000000 0.000000
# 4 0.000000 0.000000 0.000000 0.051849 0.000000 0.000000
# 5 0.000000 0.000000 0.000000 0.000000 0.051849 0.000000
# 6 -0.007597 0.007597 0.000000 0.000000 0.000000 0.060114
#
#
# Mechanical properties :
#
#
# Convention : Reuss Voigt Hill
#
# Bulk Modulus (GPa) = 31.17568 31.17910 31.17739
# Shear Modulus (GPa) = 14.93436 15.98150 15.45793
#
# Velocity S-wave (km/s) = 3.07738 3.18344 3.13086
# Velocity P-wave (km/s) = 5.69179 5.76923 5.73064
#
# Compressibility (1/GPa) = 0.03207628
#
# Stress axis : x y z
#
# Youngs Moduli (GPa) = 30.34656 30.34656 33.02545
#
# Poissons Ratio (x) = 0.36899 0.32852
# Poissons Ratio (y) = 0.36899 0.32852
# Poissons Ratio (z) = 0.30187 0.30187
#
# Static dielectric constant tensor:
#      x y z
#    x 1.525570 0.000000 0.000000 
#    y 0.000000 1.525570 0.000000 
#    z 0.000000 0.000000 1.544280 
# 
# From -- ./inp_files/1388.got.cif
#   From: 2010.05.17/outbox.cif.g08.bks.cpg/sg84_1_cif.got.tgz:1388.got - 2010.06.03 18:57:40.
