data_PCOD9544293
_publ_section_title
;
Structure prediction by ZEFSAII (Michael W. Deem and Ramdas Pophale) SiO2 
 PCOD9544293
Probable space group: P 42/M
;
_chemical_formula_sum "Si O2"
_cell_formula_units_Z 24
_cell_length_a 9.003054
_cell_length_b 9.003054
_cell_length_c 14.256930
_cell_angle_alpha 90.000000
_cell_angle_beta 90.000000
_cell_angle_gamma 90.000000
_cell_volume 1155.595195
_symmetry_space_group_name_H-M "P 42/M"
_symmetry_group_IT_number 84
_symmetry_cell_setting 'tetragonal'
loop_
_space_group_symop_operation_xyz
x,y,z
-y,x,1/2+z
-x,-y,z
y,-x,1/2+z
-x,-y,-z
y,-x,1/2-z
x,y,-z
-y,x,1/2-z
loop_
_atom_site_type_symbol
_atom_site_label
_atom_site_fract_x
_atom_site_fract_y
_atom_site_fract_z
Si Si1 0.524033 0.671268 0.892821
Si Si2 0.341475 0.082309 0.227623
Si Si3 0.203783 0.833831 0.106698
O O1 0.500000 0.500000 0.869045
O O2 0.626462 0.758326 0.819777
O O3 0.363903 0.750982 0.894467
O O4 0.583654 0.680305 0.000000
O O5 0.263401 0.098920 0.327287
O O6 0.500000 0.000000 0.235650
O O7 0.237824 0.988710 0.157769
O O8 0.153030 0.850495 0.000000
#
# Coordination Sequence:
#
# PCOD9544293 Si02
#       3
#     8   8   8
#     4   9  19  35  62  95 123 156 204 258 308 363
#     4  10  22  38  62  90 126 167 200 253 312 367
#     4  10  22  40  60  87 125 164 205 253 309 370
#
# _framework density 20.768519000000001
#
# number of rings (size 3 to 8) (size 9 to 14) (size 15 to 20)
#    0.000    2.333    0.000    1.000    9.333    5.333 
#    0.000    5.000    0.000    0.000    0.000    0.000 
#    0.000    0.000    0.000    0.000    0.000    0.000 
#
# Total GULP energy -134167.977735 kJ/mol
# GULP energy per Si atom -5590.332406 kJ/mol
# Density = 2.072125 g / cm^3
# Si number density = 20.768519 Si / 1000 Ang^3
#
#
#
# Elastic Constant Matrix: (Units=GPa)
#
#
# Indices 1 2 3 4 5 6 
#
# 1 69.2027 10.4773 58.4928 0.0000 0.0000 0.3331
# 2 10.4773 69.2027 58.4928 0.0000 0.0000 -0.3331
# 3 58.4928 58.4928 212.1474 0.0000 0.0000 0.0000
# 4 0.0000 0.0000 0.0000 26.3413 0.0000 0.0000
# 5 0.0000 0.0000 0.0000 0.0000 26.3413 0.0000
# 6 0.3331 -0.3331 0.0000 0.0000 0.0000 11.4877
#
#
#
# Elastic Compliance Matrix: (Units=1/GPa)
#
#
# Indices 1 2 3 4 5 6 
#
# 1 0.019060 0.002026 -0.005814 0.000000 0.000000 -0.000494
# 2 0.002026 0.019060 -0.005814 0.000000 0.000000 0.000494
# 3 -0.005814 -0.005814 0.007920 0.000000 0.000000 0.000000
# 4 0.000000 0.000000 0.000000 0.037963 0.000000 0.000000
# 5 0.000000 0.000000 0.000000 0.000000 0.037963 0.000000
# 6 -0.000494 0.000494 0.000000 0.000000 0.000000 0.087079
#
#
# Mechanical properties :
#
#
# Convention : Reuss Voigt Hill
#
# Bulk Modulus (GPa) = 37.26280 67.27540 52.26910
# Shear Modulus (GPa) = 21.07988 27.70672 24.39330
#
# Velocity S-wave (km/s) = 3.18935 3.65646 3.43086
# Velocity P-wave (km/s) = 5.61636 7.09151 6.39660
#
# Compressibility (1/GPa) = 0.02683642
#
# Stress axis : x y z
#
# Youngs Moduli (GPa) = 52.46596 52.46596 126.26869
#
# Poissons Ratio (x) = -0.10629 0.73410
# Poissons Ratio (y) = -0.10629 0.73410
# Poissons Ratio (z) = 0.30502 0.30502
#
# Static dielectric constant tensor:
#      x y z
#    x 1.731610 0.000000 0.000000 
#    y 0.000000 1.731610 0.000000 
#    z 0.000000 0.000000 1.735550 
# 
# From -- ./inp_files/2589.got.cif
#   From: 2010.05.17/outbox.cif.g08.bks.cpg/sg84_2_cif.got.tgz:2589.got - 2010.06.03 18:57:40.
