data_PCOD9544997
_publ_section_title
;
Structure prediction by ZEFSAII (Michael W. Deem and Ramdas Pophale) SiO2 
 PCOD9544997
Probable space group: P 42/N
;
_chemical_formula_sum "Si O2"
_cell_formula_units_Z 64
_cell_length_a 12.021722
_cell_length_b 12.021722
_cell_length_c 22.721699
_cell_angle_alpha 90.000000
_cell_angle_beta 90.000000
_cell_angle_gamma 90.000000
_cell_volume 3283.780835
_symmetry_space_group_name_H-M "P 42/N"
_symmetry_group_IT_number 86
_space_group.IT_coordinate_system_code '2'
_symmetry_cell_setting 'tetragonal'
loop_
_space_group_symop_operation_xyz
x,y,z
-y,1/2+x,1/2+z
1/2-x,1/2-y,z
1/2+y,-x,1/2+z
-x,-y,-z
y,1/2-x,1/2-z
1/2+x,1/2+y,-z
1/2-y,x,1/2-z
loop_
_atom_site_type_symbol
_atom_site_label
_atom_site_fract_x
_atom_site_fract_y
_atom_site_fract_z
Si Si1 0.348110 0.838105 0.163097
Si Si2 0.889051 0.977591 0.233095
Si Si3 0.547912 0.679964 0.329561
Si Si4 0.141075 0.435077 0.288366
Si Si5 0.876921 0.968993 0.428797
Si Si6 0.793426 0.122945 0.655484
Si Si7 0.638208 0.535180 0.561350
Si Si8 0.405808 0.287650 0.341935
O O1 0.250000 0.750000 0.169823
O O2 0.428484 0.844871 0.220490
O O3 0.431046 0.819795 0.107765
O O4 0.294748 0.960190 0.153791
O O5 0.896398 0.866178 0.270505
O O6 0.810075 0.966332 0.177556
O O7 0.008586 0.020161 0.213189
O O8 0.615247 0.636393 0.385406
O O9 0.424251 0.626723 0.329343
O O10 0.224611 0.536695 0.304002
O O11 0.139509 0.336262 0.335045
O O12 0.159330 0.386456 0.222903
O O13 0.830577 0.947010 0.493577
O O14 0.006972 0.003087 0.436640
O O15 0.750000 0.250000 0.657674
O O16 0.793062 0.065453 0.591098
O O17 0.642916 0.640601 0.604890
#
# Coordination Sequence:
#
# PCOD9544997 Si02
#       8
#     8   8   8   8   8   8   8   8
#     4   9  19  32  54  87 111 144 189 239 293 334
#     4  10  21  32  56  80 115 152 181 239 294 361
#     4  10  20  37  55  84 112 145 196 232 289 343
#     4  11  21  34  53  85 122 153 182 232 305 355
#     4   8  17  36  57  80 108 147 194 240 276 336
#     4  11  21  34  55  86 116 151 190 237 289 348
#     4   9  18  35  57  80 111 150 194 234 283 338
#     4  10  21  34  52  84 117 154 185 228 294 362
#
# _framework density 19.489727999999999
#
# number of rings (size 3 to 8) (size 9 to 14) (size 15 to 20)
#    0.000    2.250    1.250    3.750    5.250    2.500 
#    0.000    0.000    0.000    6.750    0.000    0.000 
#    0.000    0.000    0.000    0.000    0.000    0.000 
#
# Total GULP energy -357013.275521 kJ/mol
# GULP energy per Si atom -5578.332430 kJ/mol
# Density = 1.944537 g / cm^3
# Si number density = 19.489728 Si / 1000 Ang^3
#
#
#
# Elastic Constant Matrix: (Units=GPa)
#
#
# Indices 1 2 3 4 5 6 
#
# 1 71.1833 24.5837 31.2654 0.0000 0.0000 -3.1226
# 2 24.5837 71.1833 31.2654 0.0000 0.0000 3.1226
# 3 31.2654 31.2654 102.1180 0.0000 0.0000 0.0000
# 4 0.0000 0.0000 0.0000 19.4457 0.0000 0.0000
# 5 0.0000 0.0000 0.0000 0.0000 19.4457 0.0000
# 6 -3.1226 3.1226 0.0000 0.0000 0.0000 26.5845
#
#
#
# Elastic Compliance Matrix: (Units=1/GPa)
#
#
# Indices 1 2 3 4 5 6 
#
# 1 0.017427 -0.004376 -0.003996 0.000000 0.000000 0.002561
# 2 -0.004376 0.017427 -0.003996 0.000000 0.000000 -0.002561
# 3 -0.003996 -0.003996 0.012239 0.000000 0.000000 0.000000
# 4 0.000000 0.000000 0.000000 0.051425 0.000000 0.000000
# 5 0.000000 0.000000 0.000000 0.000000 0.051425 0.000000
# 6 0.002561 -0.002561 0.000000 0.000000 0.000000 0.038218
#
#
# Mechanical properties :
#
#
# Convention : Reuss Voigt Hill
#
# Bulk Modulus (GPa) = 44.72631 46.52374 45.62503
# Shear Modulus (GPa) = 22.69132 23.58653 23.13892
#
# Velocity S-wave (km/s) = 3.41584 3.48257 3.44937
# Velocity P-wave (km/s) = 6.20933 6.33197 6.27095
#
# Compressibility (1/GPa) = 0.02235820
#
# Stress axis : x y z
#
# Youngs Moduli (GPa) = 57.38265 57.38265 81.70326
#
# Poissons Ratio (x) = 0.25109 0.32647
# Poissons Ratio (y) = 0.25109 0.32647
# Poissons Ratio (z) = 0.22929 0.22929
#
# Static dielectric constant tensor:
#      x y z
#    x 1.713770 0.000000 0.000000 
#    y 0.000000 1.713770 0.000000 
#    z 0.000000 0.000000 1.678150 
# 
# From -- ./inp_files/4698.got.cif
#   From: 2010.05.17/outbox.cif.g08.bks.cpg/sg86_3_cif.got.tgz:4698.got - 2010.06.03 19:03:11.
