data_PCOD9544507
_publ_section_title
;
Structure prediction by ZEFSAII (Michael W. Deem and Ramdas Pophale) SiO2 
 PCOD9544507
Probable space group: P 4/N
;
_chemical_formula_sum "Si O2"
_cell_formula_units_Z 58
_cell_length_a 12.252022
_cell_length_b 12.252022
_cell_length_c 20.387142
_cell_angle_alpha 90.000000
_cell_angle_beta 90.000000
_cell_angle_gamma 90.000000
_cell_volume 3060.355538
_symmetry_space_group_name_H-M "P 4/N"
_symmetry_group_IT_number 85
_symmetry_cell_setting 'tetragonal'
loop_
_space_group_symop_operation_xyz
x,y,z
1/2-y,x,z
1/2-x,1/2-y,z
y,1/2-x,z
-x,-y,-z
1/2+y,-x,-z
1/2+x,1/2+y,-z
-y,1/2+x,-z
loop_
_atom_site_type_symbol
_atom_site_label
_atom_site_fract_x
_atom_site_fract_y
_atom_site_fract_z
Si Si1 0.142464 0.986477 0.352370
Si Si2 0.750000 0.750000 0.933935
Si Si3 0.778950 0.928829 0.508096
Si Si4 0.749241 0.378172 0.407431
Si Si5 0.153929 0.025523 0.104690
Si Si6 0.442773 0.628645 0.845416
Si Si7 0.939410 0.127782 0.300176
Si Si8 0.606626 0.141509 0.985885
O O1 0.199363 0.041477 0.416138
O O2 0.045030 0.058360 0.322652
O O3 0.099095 0.868989 0.377437
O O4 0.243552 0.969232 0.303214
O O5 0.772866 0.880948 0.928239
O O6 0.662596 0.871092 0.494351
O O7 0.781268 0.038758 0.465429
O O8 0.750000 0.250000 0.426237
O O9 0.657001 0.390342 0.351978
O O10 0.065095 0.079217 0.151883
O O11 0.240625 0.950086 0.142752
O O12 0.094873 0.966878 0.044196
O O13 0.400325 0.602192 0.773431
O O14 0.382076 0.583403 0.909854
O O15 0.603376 0.270826 0.998898
#
# Coordination Sequence:
#
# PCOD9544507 Si02
#       8
#     8   2   8   8   8   8   8   8
#     4  11  23  40  61  87 122 150 194 246 288 351
#     4   8  16  28  52  76 108 128 176 228 286 320
#     4  11  23  41  66  90 112 153 196 245 292 340
#     4  10  25  40  59  88 120 157 195 239 290 346
#     4   9  17  32  53  80 106 141 183 234 273 331
#     4  10  19  34  54  80 110 149 182 221 289 336
#     4  11  23  40  57  88 122 157 190 237 298 357
#     4   9  18  33  51  80 109 142 187 235 272 324
#
# _framework density 18.952047
#
# number of rings (size 3 to 8) (size 9 to 14) (size 15 to 20)
#    0.000    1.931    1.379    2.069    3.862    1.379 
#   17.379    1.379    0.000    0.000    0.000    0.000 
#    0.000    0.000    0.000    0.000    0.000    0.000 
#
# Total GULP energy -322944.821926 kJ/mol
# GULP energy per Si atom -5568.014171 kJ/mol
# Density = 1.890891 g / cm^3
# Si number density = 18.952047 Si / 1000 Ang^3
#
#
#
# Elastic Constant Matrix: (Units=GPa)
#
#
# Indices 1 2 3 4 5 6 
#
# 1 58.3328 13.7547 30.9677 0.0000 0.0000 2.5591
# 2 13.7547 58.3328 30.9677 0.0000 0.0000 -2.5591
# 3 30.9677 30.9677 122.8021 0.0000 0.0000 0.0000
# 4 0.0000 0.0000 0.0000 17.6179 0.0000 0.0000
# 5 0.0000 0.0000 0.0000 0.0000 17.6179 0.0000
# 6 2.5591 -2.5591 0.0000 0.0000 0.0000 14.3975
#
#
#
# Elastic Compliance Matrix: (Units=1/GPa)
#
#
# Indices 1 2 3 4 5 6 
#
# 1 0.020304 -0.002595 -0.004466 0.000000 0.000000 -0.004070
# 2 -0.002595 0.020304 -0.004466 0.000000 0.000000 0.004070
# 3 -0.004466 -0.004466 0.010395 0.000000 0.000000 0.000000
# 4 0.000000 0.000000 0.000000 0.056761 0.000000 0.000000
# 5 0.000000 0.000000 0.000000 0.000000 0.056761 0.000000
# 6 -0.004070 0.004070 0.000000 0.000000 0.000000 0.070903
#
#
# Mechanical properties :
#
#
# Convention : Reuss Voigt Hill
#
# Bulk Modulus (GPa) = 35.77787 43.42755 39.60271
# Shear Modulus (GPa) = 18.67068 20.84515 19.75792
#
# Velocity S-wave (km/s) = 3.14212 3.32006 3.23231
# Velocity P-wave (km/s) = 5.66418 6.13687 5.90526
#
# Compressibility (1/GPa) = 0.02795024
#
# Stress axis : x y z
#
# Youngs Moduli (GPa) = 49.25052 49.25052 96.19550
#
# Poissons Ratio (x) = 0.12783 0.42959
# Poissons Ratio (y) = 0.12783 0.42959
# Poissons Ratio (z) = 0.21994 0.21994
#
# Static dielectric constant tensor:
#      x y z
#    x 1.687040 0.000000 0.000000 
#    y 0.000000 1.687040 0.000000 
#    z 0.000000 0.000000 1.666490 
# 
# From -- ./inp_files/2291.got.cif
#   From: 2010.05.17/outbox.cif.g08.bks.cpg/sg85_cif.got.tgz:2291.got - 2010.06.03 19:01:16.
