data_PCOD9544829
_publ_section_title
;
Structure prediction by ZEFSAII (Michael W. Deem and Ramdas Pophale) SiO2 
 PCOD9544829
Probable space group: P 4/N
;
_chemical_formula_sum "Si O2"
_cell_formula_units_Z 24
_cell_length_a 10.650308
_cell_length_b 10.650308
_cell_length_c 9.003620
_cell_angle_alpha 90.000000
_cell_angle_beta 90.000000
_cell_angle_gamma 90.000000
_cell_volume 1021.272158
_symmetry_space_group_name_H-M "P 4/N"
_symmetry_group_IT_number 85
_symmetry_cell_setting 'tetragonal'
loop_
_space_group_symop_operation_xyz
x,y,z
1/2-y,x,z
1/2-x,1/2-y,z
y,1/2-x,z
-x,-y,-z
1/2+y,-x,-z
1/2+x,1/2+y,-z
-y,1/2+x,-z
loop_
_atom_site_type_symbol
_atom_site_label
_atom_site_fract_x
_atom_site_fract_y
_atom_site_fract_z
Si Si1 0.475937 0.524535 0.827688
Si Si2 0.896907 0.219400 0.689223
Si Si3 0.950977 0.791856 0.596982
O O1 0.556611 0.412824 0.754882
O O2 0.331572 0.524511 0.769567
O O3 0.518406 0.661580 0.763933
O O4 0.500000 0.500000 0.000000
O O5 0.750000 0.250000 0.714670
O O6 0.935201 0.201171 0.516749
O O7 0.841562 0.890578 0.563260
#
# Coordination Sequence:
#
# PCOD9544829 Si02
#       3
#     8   8   8
#     4  12  30  48  77 120 164 216 273 343 431 500
#     4  12  28  49  85 115 164 214 280 343 416 501
#     4  11  25  50  78 115 157 206 272 338 406 500
#
# _framework density 23.500101999999998
#
# number of rings (size 3 to 8) (size 9 to 14) (size 15 to 20)
#    0.000    0.333    3.333    3.000   14.000    0.667 
#    0.000    0.000    0.000    0.000    0.000    0.000 
#    0.000    0.000    0.000    0.000    0.000    0.000 
#
# Total GULP energy -134003.885798 kJ/mol
# GULP energy per Si atom -5583.495242 kJ/mol
# Density = 2.344662 g / cm^3
# Si number density = 23.500102 Si / 1000 Ang^3
#
#
#
# Elastic Constant Matrix: (Units=GPa)
#
#
# Indices 1 2 3 4 5 6 
#
# 1 157.0845 96.0457 57.8390 0.0000 0.0000 -29.3533
# 2 96.0457 157.0845 57.8390 0.0000 0.0000 29.3533
# 3 57.8390 57.8390 165.3991 0.0000 0.0000 0.0000
# 4 0.0000 0.0000 0.0000 33.1257 0.0000 0.0000
# 5 0.0000 0.0000 0.0000 0.0000 33.1257 0.0000
# 6 -29.3533 29.3533 0.0000 0.0000 0.0000 55.7633
#
#
#
# Elastic Compliance Matrix: (Units=1/GPa)
#
#
# Indices 1 2 3 4 5 6 
#
# 1 0.018942 -0.014240 -0.001644 0.000000 0.000000 0.017467
# 2 -0.014240 0.018942 -0.001644 0.000000 0.000000 -0.017467
# 3 -0.001644 -0.001644 0.007196 0.000000 0.000000 0.000000
# 4 0.000000 0.000000 0.000000 0.030188 0.000000 0.000000
# 5 0.000000 0.000000 0.000000 0.000000 0.030188 0.000000
# 6 0.017467 -0.017467 0.000000 0.000000 0.000000 0.036322
#
#
# Mechanical properties :
#
#
# Convention : Reuss Voigt Hill
#
# Bulk Modulus (GPa) = 99.77185 100.33504 100.05345
# Shear Modulus (GPa) = 27.75043 42.25922 35.00483
#
# Velocity S-wave (km/s) = 3.44010 4.24519 3.86367
# Velocity P-wave (km/s) = 7.63722 8.17417 7.91025
#
# Compressibility (1/GPa) = 0.01002287
#
# Stress axis : x y z
#
# Youngs Moduli (GPa) = 52.79181 52.79181 138.96726
#
# Poissons Ratio (x) = 0.75178 0.22849
# Poissons Ratio (y) = 0.75178 0.22849
# Poissons Ratio (z) = 0.08680 0.08680
#
# Static dielectric constant tensor:
#      x y z
#    x 1.936890 0.000000 0.000000 
#    y 0.000000 1.936890 0.000000 
#    z 0.000000 0.000000 1.873960 
# 
# From -- ./inp_files/665.got.cif
#   From: 2010.05.17/outbox.cif.g08.bks.cpg/sg85_cif.got.tgz:665.got - 2010.06.03 19:01:16.
