data_PCOD9544047
_publ_section_title
;
Structure prediction by ZEFSAII (Michael W. Deem and Ramdas Pophale) SiO2 
 PCOD9544047
Probable space group: P 42/M
;
_chemical_formula_sum "Si O2"
_cell_formula_units_Z 52
_cell_length_a 17.273616
_cell_length_b 17.273616
_cell_length_c 9.665926
_cell_angle_alpha 90.000000
_cell_angle_beta 90.000000
_cell_angle_gamma 90.000000
_cell_volume 2884.097829
_symmetry_space_group_name_H-M "P 42/M"
_symmetry_group_IT_number 84
_symmetry_cell_setting 'tetragonal'
loop_
_space_group_symop_operation_xyz
x,y,z
-y,x,1/2+z
-x,-y,z
y,-x,1/2+z
-x,-y,-z
y,-x,1/2-z
x,y,-z
-y,x,1/2-z
loop_
_atom_site_type_symbol
_atom_site_label
_atom_site_fract_x
_atom_site_fract_y
_atom_site_fract_z
Si Si1 0.305985 0.776496 0.333036
Si Si2 0.825188 0.134507 0.840602
Si Si3 0.000000 0.500000 0.747549
Si Si4 0.372504 0.212790 0.163964
Si Si5 0.069021 0.653764 0.151634
Si Si6 0.192657 0.000477 0.654350
Si Si7 0.454741 0.829603 0.160334
O O1 0.307043 0.788534 0.500000
O O2 0.236640 0.824021 0.258911
O O3 0.283786 0.685663 0.306322
O O4 0.385646 0.803310 0.260986
O O5 0.909019 0.173836 0.837398
O O6 0.839948 0.049844 0.777236
O O7 0.798051 0.132852 0.000000
O O8 0.032104 0.570152 0.836489
O O9 0.077255 0.470585 0.668153
O O10 0.339263 0.136432 0.237273
O O11 0.463920 0.212770 0.200770
O O12 0.370218 0.200617 0.000000
O O13 0.000362 0.714767 0.168924
O O14 0.103814 0.666452 0.000000
O O15 0.170433 0.972762 0.500000
O O16 0.436678 0.810808 0.000000
#
# Coordination Sequence:
#
# PCOD9544047 Si02
#       7
#     8   8   4   8   8   8   8
#     4  11  22  38  60  87 118 152 192 238 290 347
#     4  11  23  38  58  81 107 149 195 237 290 346
#     4  10  20  32  54  86 118 152 182 232 296 348
#     4   9  20  37  57  81 113 150 187 228 280 339
#     4  10  19  33  53  78 111 145 185 230 280 341
#     4  10  22  38  54  77 110 146 190 243 290 336
#     4  10  21  37  58  85 116 153 194 237 286 350
#
# _framework density 18.029900999999999
#
# number of rings (size 3 to 8) (size 9 to 14) (size 15 to 20)
#    0.000    1.846    1.538    2.308    0.000    7.692 
#    0.000    1.538    0.000    0.462    0.000    3.231 
#    0.000    0.000    0.000    0.000    0.000    0.000 
#
# Total GULP energy -289795.761561 kJ/mol
# GULP energy per Si atom -5572.995415 kJ/mol
# Density = 1.798886 g / cm^3
# Si number density = 18.029901 Si / 1000 Ang^3
#
#
#
# Elastic Constant Matrix: (Units=GPa)
#
#
# Indices 1 2 3 4 5 6 
#
# 1 83.8619 37.0635 48.4156 0.0000 0.0000 -0.8662
# 2 37.0635 83.8619 48.4156 0.0000 0.0000 0.8662
# 3 48.4156 48.4156 88.4070 0.0000 0.0000 0.0000
# 4 0.0000 0.0000 0.0000 0.9730 0.0000 0.0000
# 5 0.0000 0.0000 0.0000 0.0000 0.9730 0.0000
# 6 -0.8662 0.8662 0.0000 0.0000 0.0000 24.3517
#
#
#
# Elastic Compliance Matrix: (Units=1/GPa)
#
#
# Indices 1 2 3 4 5 6 
#
# 1 0.018062 -0.003334 -0.008066 0.000000 0.000000 0.000761
# 2 -0.003334 0.018062 -0.008066 0.000000 0.000000 -0.000761
# 3 -0.008066 -0.008066 0.020146 0.000000 0.000000 0.000000
# 4 0.000000 0.000000 0.000000 1.027770 0.000000 0.000000
# 5 0.000000 0.000000 0.000000 0.000000 1.027770 0.000000
# 6 0.000761 -0.000761 0.000000 0.000000 0.000000 0.041119
#
#
# Mechanical properties :
#
#
# Convention : Reuss Voigt Hill
#
# Bulk Modulus (GPa) = 57.67377 58.21336 57.94356
# Shear Modulus (GPa) = 2.27517 13.40860 7.84189
#
# Velocity S-wave (km/s) = 1.12456 2.73002 2.08778
# Velocity P-wave (km/s) = 5.80891 6.50343 6.16596
#
# Compressibility (1/GPa) = 0.01733891
#
# Stress axis : x y z
#
# Youngs Moduli (GPa) = 55.36372 55.36372 49.63821
#
# Poissons Ratio (x) = 0.18459 0.40038
# Poissons Ratio (y) = 0.18459 0.40038
# Poissons Ratio (z) = 0.44656 0.44656
#
# Static dielectric constant tensor:
#      x y z
#    x 1.656760 0.000000 0.000000 
#    y 0.000000 1.656760 0.000000 
#    z 0.000000 0.000000 1.617380 
# 
# From -- ./inp_files/1096.got.cif
#   From: 2010.05.17/outbox.cif.g08.bks.cpg/sg84_1_cif.got.tgz:1096.got - 2010.06.03 18:57:40.
