data_PCOD9544174
_publ_section_title
;
Structure prediction by ZEFSAII (Michael W. Deem and Ramdas Pophale) SiO2 
 PCOD9544174
Probable space group: P 42/M
;
_chemical_formula_sum "Si O2"
_cell_formula_units_Z 56
_cell_length_a 12.503162
_cell_length_b 12.503162
_cell_length_c 16.641755
_cell_angle_alpha 90.000000
_cell_angle_beta 90.000000
_cell_angle_gamma 90.000000
_cell_volume 2601.589916
_symmetry_space_group_name_H-M "P 42/M"
_symmetry_group_IT_number 84
_symmetry_cell_setting 'tetragonal'
loop_
_space_group_symop_operation_xyz
x,y,z
-y,x,1/2+z
-x,-y,z
y,-x,1/2+z
-x,-y,-z
y,-x,1/2-z
x,y,-z
-y,x,1/2-z
loop_
_atom_site_type_symbol
_atom_site_label
_atom_site_fract_x
_atom_site_fract_y
_atom_site_fract_z
Si Si1 0.030299 0.679515 0.407287
Si Si2 0.552027 0.886459 0.680301
Si Si3 0.892133 0.864677 0.907052
Si Si4 0.892240 0.223940 0.096345
Si Si5 0.565777 0.766044 0.150169
Si Si6 0.653087 0.223009 0.356190
Si Si7 0.660320 0.182867 0.167240
O O1 0.995461 0.688202 0.500000
O O2 0.060851 0.797611 0.373238
O O3 0.136841 0.609232 0.403663
O O4 0.938029 0.629044 0.354393
O O5 0.659486 0.911574 0.632981
O O6 0.575401 0.813657 0.758770
O O7 0.464959 0.820937 0.628050
O O8 0.500000 0.000000 0.701805
O O9 0.840664 0.745648 0.902680
O O10 0.012135 0.854404 0.873994
O O11 0.901396 0.897438 0.000000
O O12 0.772899 0.197031 0.123838
O O13 0.898206 0.225314 0.000000
O O14 0.650007 0.671437 0.135648
O O15 0.440014 0.745534 0.138798
O O16 0.673339 0.197910 0.261894
#
# Coordination Sequence:
#
# PCOD9544174 Si02
#       7
#     8   8   8   8   8   8   8
#     4  10  21  37  59  88 122 160 203 247 305 368
#     4  11  20  36  62  89 113 151 207 256 302 365
#     4   9  20  36  56  87 122 158 196 245 301 361
#     4  11  23  38  58  88 125 158 199 248 308 368
#     4  10  21  38  60  87 116 156 205 254 306 361
#     4  10  20  37  62  84 117 153 200 261 302 359
#     4  11  22  36  59  86 118 162 204 250 302 367
#
# _framework density 21.525299
#
# number of rings (size 3 to 8) (size 9 to 14) (size 15 to 20)
#    0.000    1.714    2.857    2.571    0.000    3.143 
#    0.000    2.857    0.000    2.571    0.000    0.000 
#    0.000    0.000    0.000    0.000    0.000    0.000 
#
# Total GULP energy -312654.607036 kJ/mol
# GULP energy per Si atom -5583.117983 kJ/mol
# Density = 2.147631 g / cm^3
# Si number density = 21.525299 Si / 1000 Ang^3
#
#
#
# Elastic Constant Matrix: (Units=GPa)
#
#
# Indices 1 2 3 4 5 6 
#
# 1 91.2325 5.0660 7.5244 0.0000 0.0000 -3.4202
# 2 5.0660 91.2325 7.5244 0.0000 0.0000 3.4202
# 3 7.5244 7.5244 29.4118 0.0000 0.0000 0.0000
# 4 0.0000 0.0000 0.0000 19.4415 0.0000 0.0000
# 5 0.0000 0.0000 0.0000 0.0000 19.4415 0.0000
# 6 -3.4202 3.4202 0.0000 0.0000 0.0000 32.5075
#
#
#
# Elastic Compliance Matrix: (Units=1/GPa)
#
#
# Indices 1 2 3 4 5 6 
#
# 1 0.011260 -0.000443 -0.002767 0.000000 0.000000 0.001231
# 2 -0.000443 0.011260 -0.002767 0.000000 0.000000 -0.001231
# 3 -0.002767 -0.002767 0.035416 0.000000 0.000000 0.000000
# 4 0.000000 0.000000 0.000000 0.051436 0.000000 0.000000
# 5 0.000000 0.000000 0.000000 0.000000 0.051436 0.000000
# 6 0.001231 -0.001231 0.000000 0.000000 0.000000 0.031021
#
#
# Mechanical properties :
#
#
# Convention : Reuss Voigt Hill
#
# Bulk Modulus (GPa) = 21.74836 28.01183 24.88010
# Shear Modulus (GPa) = 22.81937 27.06224 24.94080
#
# Velocity S-wave (km/s) = 3.25948 3.54959 3.40762
# Velocity P-wave (km/s) = 4.92861 5.46270 5.20251
#
# Compressibility (1/GPa) = 0.04598047
#
# Stress axis : x y z
#
# Youngs Moduli (GPa) = 88.80995 88.80995 28.23593
#
# Poissons Ratio (x) = 0.03936 0.07814
# Poissons Ratio (y) = 0.03936 0.07814
# Poissons Ratio (z) = 0.24576 0.24576
#
# Static dielectric constant tensor:
#      x y z
#    x 1.813940 0.000000 0.000000 
#    y 0.000000 1.813940 0.000000 
#    z 0.000000 0.000000 1.770330 
# 
# From -- ./inp_files/4492.got.cif
#   From: 2010.05.17/outbox.cif.g08.bks.cpg/sg84_3_cif.got.tgz:4492.got - 2010.06.03 18:57:40.
