data_PCOD9544409
_publ_section_title
;
Structure prediction by ZEFSAII (Michael W. Deem and Ramdas Pophale) SiO2 
 PCOD9544409
Probable space group: P 42/M
;
_chemical_formula_sum "Si O2"
_cell_formula_units_Z 40
_cell_length_a 9.050978
_cell_length_b 9.050978
_cell_length_c 23.795743
_cell_angle_alpha 90.000000
_cell_angle_beta 90.000000
_cell_angle_gamma 90.000000
_cell_volume 1949.352091
_symmetry_space_group_name_H-M "P 42/M"
_symmetry_group_IT_number 84
_symmetry_cell_setting 'tetragonal'
loop_
_space_group_symop_operation_xyz
x,y,z
-y,x,1/2+z
-x,-y,z
y,-x,1/2+z
-x,-y,-z
y,-x,1/2-z
x,y,-z
-y,x,1/2-z
loop_
_atom_site_type_symbol
_atom_site_label
_atom_site_fract_x
_atom_site_fract_y
_atom_site_fract_z
Si Si1 0.635467 0.308781 0.879450
Si Si2 0.948174 0.262041 0.500000
Si Si3 0.246967 0.461591 0.500000
Si Si4 0.164564 0.485622 0.812177
Si Si5 0.355255 0.202985 0.194420
Si Si6 0.019587 0.167982 0.622024
O O1 0.712399 0.450539 0.853669
O O2 0.496049 0.259828 0.841530
O O3 0.763963 0.183583 0.879016
O O4 0.579879 0.327527 0.942806
O O5 0.807589 0.369927 0.500000
O O6 0.094770 0.365381 0.500000
O O7 0.955514 0.174797 0.558393
O O8 0.163551 0.582455 0.755451
O O9 0.225459 0.323550 0.798586
O O10 0.000000 0.500000 0.836336
O O11 0.281817 0.069668 0.160774
O O12 0.000000 0.000000 0.642272
#
# Coordination Sequence:
#
# PCOD9544409 Si02
#       6
#     8   4   4   8   8   8
#     4  11  22  42  67  94 128 172 224 263 330 398
#     4   9  17  34  63  94 133 165 214 264 328 391
#     4   9  18  36  65  95 124 170 220 274 315 401
#     4  12  26  44  62  93 128 168 216 277 331 396
#     4  12  24  42  66  91 128 171 219 267 328 404
#     4  11  22  39  64 101 132 169 211 274 332 390
#
# _framework density 20.519636999999999
#
# number of rings (size 3 to 8) (size 9 to 14) (size 15 to 20)
#    0.000    1.000    4.000    3.900    0.000    0.000 
#    0.000    3.500    0.000    0.000    0.000    0.000 
#    0.000    0.000    0.000    0.000    0.000    0.000 
#
# Total GULP energy -223641.675851 kJ/mol
# GULP energy per Si atom -5591.041896 kJ/mol
# Density = 2.047293 g / cm^3
# Si number density = 20.519637 Si / 1000 Ang^3
#
#
#
# Elastic Constant Matrix: (Units=GPa)
#
#
# Indices 1 2 3 4 5 6 
#
# 1 65.8671 -1.6611 -2.6186 0.0000 0.0000 1.3370
# 2 -1.6611 65.8671 -2.6186 0.0000 0.0000 -1.3370
# 3 -2.6186 -2.6186 78.8237 0.0000 0.0000 0.0000
# 4 0.0000 0.0000 0.0000 26.4550 0.0000 0.0000
# 5 0.0000 0.0000 0.0000 0.0000 26.4550 0.0000
# 6 1.3370 -1.3370 0.0000 0.0000 0.0000 34.1857
#
#
#
# Elastic Compliance Matrix: (Units=1/GPa)
#
#
# Indices 1 2 3 4 5 6 
#
# 1 0.015224 0.000393 0.000519 0.000000 0.000000 -0.000580
# 2 0.000393 0.015224 0.000519 0.000000 0.000000 0.000580
# 3 0.000519 0.000519 0.012721 0.000000 0.000000 0.000000
# 4 0.000000 0.000000 0.000000 0.037800 0.000000 0.000000
# 5 0.000000 0.000000 0.000000 0.000000 0.037800 0.000000
# 6 -0.000580 0.000580 0.000000 0.000000 0.000000 0.029297
#
#
# Mechanical properties :
#
#
# Convention : Reuss Voigt Hill
#
# Bulk Modulus (GPa) = 21.72468 21.86239 21.79354
# Shear Modulus (GPa) = 31.14295 31.91621 31.52958
#
# Velocity S-wave (km/s) = 3.90001 3.94813 3.92415
# Velocity P-wave (km/s) = 5.55791 5.60903 5.58353
#
# Compressibility (1/GPa) = 0.04603060
#
# Stress axis : x y z
#
# Youngs Moduli (GPa) = 65.68411 65.68411 78.61015
#
# Poissons Ratio (x) = -0.02580 -0.04078
# Poissons Ratio (y) = -0.02580 -0.04078
# Poissons Ratio (z) = -0.03408 -0.03408
#
# Static dielectric constant tensor:
#      x y z
#    x 1.723480 0.000000 0.000000 
#    y 0.000000 1.723480 0.000000 
#    z 0.000000 0.000000 1.709140 
# 
# From -- ./inp_files/4909.got.cif
#   From: 2010.05.17/outbox.cif.g08.bks.cpg/sg84_3_cif.got.tgz:4909.got - 2010.06.03 18:57:40.
