data_PCOD9544979
_publ_section_title
;
Structure prediction by ZEFSAII (Michael W. Deem and Ramdas Pophale) SiO2 
 PCOD9544979
Probable space group: P 42/N
;
_chemical_formula_sum "Si O2"
_cell_formula_units_Z 48
_cell_length_a 8.944943
_cell_length_b 8.944943
_cell_length_c 28.674215
_cell_angle_alpha 90.000000
_cell_angle_beta 90.000000
_cell_angle_gamma 90.000000
_cell_volume 2294.281442
_symmetry_space_group_name_H-M "P 42/N"
_symmetry_group_IT_number 86
_space_group.IT_coordinate_system_code '2'
_symmetry_cell_setting 'tetragonal'
loop_
_space_group_symop_operation_xyz
x,y,z
-y,1/2+x,1/2+z
1/2-x,1/2-y,z
1/2+y,-x,1/2+z
-x,-y,-z
y,1/2-x,1/2-z
1/2+x,1/2+y,-z
1/2-y,x,1/2-z
loop_
_atom_site_type_symbol
_atom_site_label
_atom_site_fract_x
_atom_site_fract_y
_atom_site_fract_z
Si Si1 0.386873 0.044447 0.840435
Si Si2 0.974683 0.000530 0.931963
Si Si3 0.511229 0.749967 0.998549
Si Si4 0.535685 0.608016 0.167686
Si Si5 0.883531 0.961804 0.744720
Si Si6 0.831236 0.494979 0.054932
O O1 0.450070 0.213201 0.837111
O O2 0.208297 0.051687 0.830242
O O3 0.402886 0.994026 0.893737
O O4 0.469207 0.937982 0.804040
O O5 0.954834 0.035236 0.877590
O O6 0.154509 0.989912 0.938193
O O7 0.932729 0.140239 0.964307
O O8 0.915694 0.853064 0.957974
O O9 0.394698 0.858153 0.973881
O O10 0.620674 0.855604 0.027962
O O11 0.449871 0.563037 0.214111
O O12 0.948693 0.794901 0.751420
#
# Coordination Sequence:
#
# PCOD9544979 Si02
#       6
#     8   8   8   8   8   8
#     4  10  21  40  68  94 119 158 211 260 306 368
#     4  10  20  37  59  87 123 163 208 252 303 360
#     4  10  20  34  58  88 126 162 202 248 298 358
#     4  10  21  40  68  94 119 158 211 260 306 368
#     4  11  26  45  62  88 128 159 196 255 322 380
#     4  10  20  37  59  87 123 163 208 252 303 360
#
# _framework density 20.921581
#
# number of rings (size 3 to 8) (size 9 to 14) (size 15 to 20)
#    0.000    1.833    1.667    2.000    2.333    4.000 
#    0.000   10.000    0.000    0.000    0.000    0.000 
#    0.000    0.000    0.000    0.000    0.000    0.000 
#
# Total GULP energy -268394.381201 kJ/mol
# GULP energy per Si atom -5591.549608 kJ/mol
# Density = 2.087396 g / cm^3
# Si number density = 20.921581 Si / 1000 Ang^3
#
#
#
# Elastic Constant Matrix: (Units=GPa)
#
#
# Indices 1 2 3 4 5 6 
#
# 1 45.5402 16.9875 52.2114 0.0000 0.0000 4.9076
# 2 16.9875 45.5402 52.2114 0.0000 0.0000 -4.9076
# 3 52.2114 52.2114 173.9214 0.0000 0.0000 0.0000
# 4 0.0000 0.0000 0.0000 15.0501 0.0000 0.0000
# 5 0.0000 0.0000 0.0000 0.0000 15.0501 0.0000
# 6 4.9076 -4.9076 0.0000 0.0000 0.0000 26.5355
#
#
#
# Elastic Compliance Matrix: (Units=1/GPa)
#
#
# Indices 1 2 3 4 5 6 
#
# 1 0.034736 -0.002664 -0.009628 0.000000 0.000000 -0.006917
# 2 -0.002664 0.034736 -0.009628 0.000000 0.000000 0.006917
# 3 -0.009628 -0.009628 0.011530 0.000000 0.000000 0.000000
# 4 0.000000 0.000000 0.000000 0.066445 0.000000 0.000000
# 5 0.000000 0.000000 0.000000 0.000000 0.066445 0.000000
# 6 -0.006917 0.006917 0.000000 0.000000 0.000000 0.040244
#
#
# Mechanical properties :
#
#
# Convention : Reuss Voigt Hill
#
# Bulk Modulus (GPa) = 26.90900 56.42472 41.66686
# Shear Modulus (GPa) = 16.11005 20.89989 18.50497
#
# Velocity S-wave (km/s) = 2.77793 3.16407 2.97727
# Velocity P-wave (km/s) = 4.81446 6.35426 5.63718
#
# Compressibility (1/GPa) = 0.03716229
#
# Stress axis : x y z
#
# Youngs Moduli (GPa) = 28.78823 28.78823 86.72684
#
# Poissons Ratio (x) = 0.07670 0.83501
# Poissons Ratio (y) = 0.07670 0.83501
# Poissons Ratio (z) = 0.27718 0.27718
#
# Static dielectric constant tensor:
#      x y z
#    x 1.759520 0.000000 0.000000 
#    y 0.000000 1.759520 0.000000 
#    z 0.000000 0.000000 1.734670 
# 
# From -- ./inp_files/5177.got.cif
#   From: 2010.05.17/outbox.cif.g08.bks.cpg/sg86_3_cif.got.tgz:5177.got - 2010.06.03 19:03:11.
