data_PCOD9544827
_publ_section_title
;
Structure prediction by ZEFSAII (Michael W. Deem and Ramdas Pophale) SiO2 
 PCOD9544827
Probable space group: P 4/N
;
_chemical_formula_sum "Si O2"
_cell_formula_units_Z 34
_cell_length_a 8.825093
_cell_length_b 8.825093
_cell_length_c 20.819819
_cell_angle_alpha 90.000000
_cell_angle_beta 90.000000
_cell_angle_gamma 90.000000
_cell_volume 1621.494691
_symmetry_space_group_name_H-M "P 4/N"
_symmetry_group_IT_number 85
_symmetry_cell_setting 'tetragonal'
loop_
_space_group_symop_operation_xyz
x,y,z
1/2-y,x,z
1/2-x,1/2-y,z
y,1/2-x,z
-x,-y,-z
1/2+y,-x,-z
1/2+x,1/2+y,-z
-y,1/2+x,-z
loop_
_atom_site_type_symbol
_atom_site_label
_atom_site_fract_x
_atom_site_fract_y
_atom_site_fract_z
Si Si1 0.416181 0.665468 0.684595
Si Si2 0.554810 0.585669 0.936201
Si Si3 0.750000 0.750000 0.690730
Si Si4 0.617250 0.533361 0.188396
Si Si5 0.909625 0.949192 0.436751
O O1 0.250000 0.750000 0.679164
O O2 0.563399 0.771745 0.690333
O O3 0.414660 0.565324 0.749031
O O4 0.443686 0.559802 0.622330
O O5 0.732598 0.545785 0.934462
O O6 0.455004 0.536086 0.875535
O O7 0.500000 0.500000 0.000000
O O8 0.797999 0.550106 0.188983
O O9 0.727361 0.952294 0.434875
O O10 0.000000 0.000000 0.500000
#
# Coordination Sequence:
#
# PCOD9544827 Si02
#       5
#     8   8   2   8   8
#     4  12  28  49  77 114 156 201 257 328 402 468
#     4  11  26  45  70 105 149 199 259 318 382 464
#     4  12  28  44  80 108 148 192 260 302 384 480
#     4  11  25  45  73 107 150 197 254 318 392 467
#     4  11  27  47  73 107 149 199 258 322 397 478
#
# _framework density 20.968305999999998
#
# number of rings (size 3 to 8) (size 9 to 14) (size 15 to 20)
#    0.000    0.706    0.000    5.647   13.176    6.118 
#    0.000    0.000    0.000    0.000    0.000    0.000 
#    0.000    0.000    0.000    0.000    0.000    0.000 
#
# Total GULP energy -189372.032318 kJ/mol
# GULP energy per Si atom -5569.765656 kJ/mol
# Density = 2.092058 g / cm^3
# Si number density = 20.968306 Si / 1000 Ang^3
#
#
#
# Elastic Constant Matrix: (Units=GPa)
#
#
# Indices 1 2 3 4 5 6 
#
# 1 143.4240 84.6724 82.4427 0.0000 0.0000 6.3773
# 2 84.6724 143.4240 82.4427 0.0000 0.0000 -6.3773
# 3 82.4427 82.4427 203.2059 0.0000 0.0000 0.0000
# 4 0.0000 0.0000 0.0000 38.2245 0.0000 0.0000
# 5 0.0000 0.0000 0.0000 0.0000 38.2245 0.0000
# 6 6.3773 -6.3773 0.0000 0.0000 0.0000 46.9039
#
#
#
# Elastic Compliance Matrix: (Units=1/GPa)
#
#
# Indices 1 2 3 4 5 6 
#
# 1 0.011871 -0.005668 -0.002517 0.000000 0.000000 -0.002385
# 2 -0.005668 0.011871 -0.002517 0.000000 0.000000 0.002385
# 3 -0.002517 -0.002517 0.006963 0.000000 0.000000 0.000000
# 4 0.000000 0.000000 0.000000 0.026161 0.000000 0.000000
# 5 0.000000 0.000000 0.000000 0.000000 0.026161 0.000000
# 6 -0.002385 0.002385 0.000000 0.000000 0.000000 0.021969
#
#
# Mechanical properties :
#
#
# Convention : Reuss Voigt Hill
#
# Bulk Modulus (GPa) = 107.49234 109.90772 108.70003
# Shear Modulus (GPa) = 38.61016 40.70366 39.65691
#
# Velocity S-wave (km/s) = 4.29576 4.41068 4.35360
# Velocity P-wave (km/s) = 8.71666 8.85826 8.78775
#
# Compressibility (1/GPa) = 0.00930299
#
# Stress axis : x y z
#
# Youngs Moduli (GPa) = 84.23906 84.23906 143.61001
#
# Poissons Ratio (x) = 0.47743 0.36144
# Poissons Ratio (y) = 0.47743 0.36144
# Poissons Ratio (z) = 0.21201 0.21201
#
# Static dielectric constant tensor:
#      x y z
#    x 1.428600 0.000000 0.000000 
#    y 0.000000 1.428600 0.000000 
#    z 0.000000 0.000000 1.722060 
# 
# From -- ./inp_files/2184.got.cif
#   From: 2010.05.17/outbox.cif.g08.bks.cpg/sg85_cif.got.tgz:2184.got - 2010.06.03 19:01:16.
