data_PCOD9544872
_publ_section_title
;
Structure prediction by ZEFSAII (Michael W. Deem and Ramdas Pophale) SiO2 
 PCOD9544872
Probable space group: P 42/N
;
_chemical_formula_sum "Si O2"
_cell_formula_units_Z 56
_cell_length_a 12.602952
_cell_length_b 12.602952
_cell_length_c 13.731304
_cell_angle_alpha 90.000000
_cell_angle_beta 90.000000
_cell_angle_gamma 90.000000
_cell_volume 2181.003420
_symmetry_space_group_name_H-M "P 42/N"
_symmetry_group_IT_number 86
_space_group.IT_coordinate_system_code '2'
_symmetry_cell_setting 'tetragonal'
loop_
_space_group_symop_operation_xyz
x,y,z
-y,1/2+x,1/2+z
1/2-x,1/2-y,z
1/2+y,-x,1/2+z
-x,-y,-z
y,1/2-x,1/2-z
1/2+x,1/2+y,-z
1/2-y,x,1/2-z
loop_
_atom_site_type_symbol
_atom_site_label
_atom_site_fract_x
_atom_site_fract_y
_atom_site_fract_z
Si Si1 0.409201 0.774549 0.823677
Si Si2 0.914060 0.427382 0.356956
Si Si3 0.065592 0.283617 0.479674
Si Si4 0.360459 0.553968 0.842927
Si Si5 0.594250 0.699854 0.708765
Si Si6 0.951613 0.747852 0.007865
Si Si7 0.193240 0.102086 0.702004
O O1 0.389711 0.874277 0.750388
O O2 0.334026 0.677228 0.859008
O O3 0.480838 0.694083 0.756790
O O4 0.479487 0.799457 0.919671
O O5 0.815406 0.469271 0.420922
O O6 0.968519 0.334865 0.418936
O O7 0.001905 0.522797 0.362400
O O8 0.096721 0.188263 0.406945
O O9 0.165534 0.364065 0.475484
O O10 0.016725 0.283721 0.586873
O O11 0.336286 0.514020 0.735361
O O12 0.628566 0.819438 0.738613
O O13 0.889097 0.677137 0.087321
O O14 0.128225 0.186108 0.766802
#
# Coordination Sequence:
#
# PCOD9544872 Si02
#       7
#     8   8   8   8   8   8   8
#     4  11  20  35  64  94 122 175 209 262 322 389
#     4  10  19  35  65  95 126 160 220 260 318 396
#     4  10  17  34  62  88 121 169 209 255 331 397
#     4  11  20  40  63  89 128 171 218 261 323 391
#     4  10  19  30  50  98 144 154 205 280 331 378
#     4  11  19  39  63  89 130 172 213 264 336 396
#     4  11  24  40  65  95 121 162 218 273 322 389
#
# _framework density 25.676255000000001
#
# number of rings (size 3 to 8) (size 9 to 14) (size 15 to 20)
#    0.000    1.429    7.143    1.714    0.000    1.143 
#    0.000    1.429    6.286    1.714    0.000    0.000 
#    0.000    0.000    0.000    0.000    0.000    0.000 
#
# Total GULP energy -312389.108680 kJ/mol
# GULP energy per Si atom -5578.376941 kJ/mol
# Density = 2.561781 g / cm^3
# Si number density = 25.676255 Si / 1000 Ang^3
#
#
#
# Elastic Constant Matrix: (Units=GPa)
#
#
# Indices 1 2 3 4 5 6 
#
# 1 47.0724 38.3594 12.7137 0.0000 0.0000 -0.8459
# 2 38.3594 47.0724 12.7137 0.0000 0.0000 0.8459
# 3 12.7137 12.7137 174.9363 0.0000 0.0000 0.0000
# 4 0.0000 0.0000 0.0000 40.1263 0.0000 0.0000
# 5 0.0000 0.0000 0.0000 0.0000 40.1263 0.0000
# 6 -0.8459 0.8459 0.0000 0.0000 0.0000 29.8293
#
#
#
# Elastic Compliance Matrix: (Units=1/GPa)
#
#
# Indices 1 2 3 4 5 6 
#
# 1 0.063685 -0.051721 -0.000869 0.000000 0.000000 0.003273
# 2 -0.051721 0.063685 -0.000869 0.000000 0.000000 -0.003273
# 3 -0.000869 -0.000869 0.005843 0.000000 0.000000 0.000000
# 4 0.000000 0.000000 0.000000 0.024921 0.000000 0.000000
# 5 0.000000 0.000000 0.000000 0.000000 0.024921 0.000000
# 6 0.003273 -0.003273 0.000000 0.000000 0.000000 0.033710
#
#
# Mechanical properties :
#
#
# Convention : Reuss Voigt Hill
#
# Bulk Modulus (GPa) = 38.03316 44.07271 41.05294
# Shear Modulus (GPa) = 15.03987 35.70267 25.37127
#
# Velocity S-wave (km/s) = 2.42285 3.73298 3.14685
# Velocity P-wave (km/s) = 4.76148 5.98182 5.40620
#
# Compressibility (1/GPa) = 0.02629284
#
# Stress axis : x y z
#
# Youngs Moduli (GPa) = 15.70227 15.70227 171.15231
#
# Poissons Ratio (x) = 0.81214 0.14882
# Poissons Ratio (y) = 0.81214 0.14882
# Poissons Ratio (z) = 0.01365 0.01365
#
# Static dielectric constant tensor:
#      x y z
#    x 2.162980 0.000000 0.000000 
#    y 0.000000 2.162980 0.000000 
#    z 0.000000 0.000000 2.052000 
# 
# From -- ./inp_files/2385.got.cif
#   From: 2010.05.17/outbox.cif.g08.bks.cpg/sg86_2_cif.got.tgz:2385.got - 2010.06.03 19:03:11.
