data_PCOD9544742
_publ_section_title
;
Structure prediction by ZEFSAII (Michael W. Deem and Ramdas Pophale) SiO2 
 PCOD9544742
Probable space group: P 4/N
;
_chemical_formula_sum "Si O2"
_cell_formula_units_Z 36
_cell_length_a 11.699715
_cell_length_b 11.699715
_cell_length_c 11.571349
_cell_angle_alpha 90.000000
_cell_angle_beta 90.000000
_cell_angle_gamma 90.000000
_cell_volume 1583.924796
_symmetry_space_group_name_H-M "P 4/N"
_symmetry_group_IT_number 85
_symmetry_cell_setting 'tetragonal'
loop_
_space_group_symop_operation_xyz
x,y,z
1/2-y,x,z
1/2-x,1/2-y,z
y,1/2-x,z
-x,-y,-z
1/2+y,-x,-z
1/2+x,1/2+y,-z
-y,1/2+x,-z
loop_
_atom_site_type_symbol
_atom_site_label
_atom_site_fract_x
_atom_site_fract_y
_atom_site_fract_z
Si Si1 0.750000 0.750000 0.548028
Si Si2 0.080831 0.340570 0.884094
Si Si3 0.028191 0.500232 0.687454
Si Si4 0.811617 0.497007 0.521521
Si Si5 0.833875 0.924342 0.853765
Si Si6 0.750000 0.250000 0.500000
O O1 0.738099 0.609905 0.545207
O O2 0.101488 0.205851 0.874796
O O3 0.014971 0.396933 0.779242
O O4 0.037402 0.357950 0.014639
O O5 0.142791 0.494136 0.611044
O O6 0.922200 0.492270 0.601805
O O7 0.012964 0.613379 0.764996
O O8 0.743538 0.380182 0.547047
O O9 0.699674 0.895891 0.838089
#
# Coordination Sequence:
#
# PCOD9544742 Si02
#       6
#     2   8   8   8   8   2
#     4  12  28  56  68 108 134 208 236 292 316 482
#     4   9  20  38  63  94 133 184 240 292 350 425
#     4  11  23  40  64 104 131 199 216 314 334 445
#     4  11  28  43  74  98 150 170 250 270 382 404
#     4   9  20  38  63  94 133 184 240 292 350 425
#     4  12  28  56  60 116 150 184 212 324 340 450
#
# _framework density 22.728351
#
# number of rings (size 3 to 8) (size 9 to 14) (size 15 to 20)
#    0.000    1.778    0.000    4.667   12.444    0.000 
#    0.000    0.000    0.000    0.000    0.000    9.333 
#    0.000    0.000    0.000    0.000    0.000    0.000 
#
# Total GULP energy -200713.456069 kJ/mol
# GULP energy per Si atom -5575.373780 kJ/mol
# Density = 2.267662 g / cm^3
# Si number density = 22.728351 Si / 1000 Ang^3
#
#
#
# Elastic Constant Matrix: (Units=GPa)
#
#
# Indices 1 2 3 4 5 6 
#
# 1 42.3548 57.2320 24.8783 0.0000 0.0000 -41.0831
# 2 57.2320 42.3548 24.8783 0.0000 0.0000 41.0831
# 3 24.8783 24.8783 135.3817 0.0000 0.0000 0.0000
# 4 0.0000 0.0000 0.0000 23.4316 0.0000 0.0000
# 5 0.0000 0.0000 0.0000 0.0000 23.4316 0.0000
# 6 -41.0831 41.0831 0.0000 0.0000 0.0000 11.5264
#
#
#
# Elastic Compliance Matrix: (Units=1/GPa)
#
#
# Indices 1 2 3 4 5 6 
#
# 1 0.003904 0.007153 -0.002032 0.000000 0.000000 -0.011582
# 2 0.007153 0.003904 -0.002032 0.000000 0.000000 0.011582
# 3 -0.002032 -0.002032 0.008133 0.000000 0.000000 0.000000
# 4 0.000000 0.000000 0.000000 0.042677 0.000000 0.000000
# 5 0.000000 0.000000 0.000000 0.000000 0.042677 0.000000
# 6 -0.011582 0.011582 0.000000 0.000000 0.000000 0.004194
#
#
# Mechanical properties :
#
#
# Convention : Reuss Voigt Hill
#
# Bulk Modulus (GPa) = 45.20939 48.22986 46.71962
# Shear Modulus (GPa) = 46.86759 19.21811 33.04285
#
# Velocity S-wave (km/s) = 4.54594 2.91100 3.81703
# Velocity P-wave (km/s) = 6.89118 5.70655 6.32666
#
# Compressibility (1/GPa) = 0.02211930
#
# Stress axis : x y z
#
# Youngs Moduli (GPa) = 256.17570 256.17570 122.95171
#
# Poissons Ratio (x) = -1.83244 0.24982
# Poissons Ratio (y) = -1.83244 0.24982
# Poissons Ratio (z) = 0.52050 0.52050
#
# Static dielectric constant tensor:
#      x y z
#    x 1.853850 0.000000 0.000000 
#    y 0.000000 1.853850 0.000000 
#    z 0.000000 0.000000 1.908260 
# 
# From -- ./inp_files/1546.got.cif
#   From: 2010.05.17/outbox.cif.g08.bks.cpg/sg85_cif.got.tgz:1546.got - 2010.06.03 19:01:16.
