data_PCOD9544944
_publ_section_title
;
Structure prediction by ZEFSAII (Michael W. Deem and Ramdas Pophale) SiO2 
 PCOD9544944
Probable space group: P 42/N
;
_chemical_formula_sum "Si O2"
_cell_formula_units_Z 32
_cell_length_a 7.714960
_cell_length_b 7.714960
_cell_length_c 19.852275
_cell_angle_alpha 90.000000
_cell_angle_beta 90.000000
_cell_angle_gamma 90.000000
_cell_volume 1181.619474
_symmetry_space_group_name_H-M "P 42/N"
_symmetry_group_IT_number 86
_space_group.IT_coordinate_system_code '2'
_symmetry_cell_setting 'tetragonal'
loop_
_space_group_symop_operation_xyz
x,y,z
-y,1/2+x,1/2+z
1/2-x,1/2-y,z
1/2+y,-x,1/2+z
-x,-y,-z
y,1/2-x,1/2-z
1/2+x,1/2+y,-z
1/2-y,x,1/2-z
loop_
_atom_site_type_symbol
_atom_site_label
_atom_site_fract_x
_atom_site_fract_y
_atom_site_fract_z
Si Si1 0.532387 0.436301 0.896695
Si Si2 0.260987 0.460374 0.482944
Si Si3 0.441631 0.416305 0.354699
Si Si4 0.120690 0.589848 0.282782
O O1 0.411216 0.458115 0.832499
O O2 0.745189 0.555942 0.685156
O O3 0.725737 0.488393 0.875062
O O4 0.467098 0.591064 0.945146
O O5 0.250000 0.250000 0.484699
O O6 0.407414 0.506034 0.427684
O O7 0.235587 0.524962 0.558816
O O8 0.564271 0.453519 0.291666
O O9 0.250000 0.750000 0.283912
#
# Coordination Sequence:
#
# PCOD9544944 Si02
#       4
#     8   8   8   8
#     4   9  17  32  61  94 120 175 227 272 339 415
#     4   8  16  30  59  94 123 166 228 271 337 405
#     4  10  19  36  66  93 122 181 233 277 345 417
#     4  11  21  34  62 101 130 168 234 295 343 411
#
# _framework density 27.081475000000001
#
# number of rings (size 3 to 8) (size 9 to 14) (size 15 to 20)
#    0.000    2.500    2.500    2.250    0.000    0.000 
#    0.000    2.500    0.000   79.500    0.000    0.000 
#    0.000    0.000    0.000    0.000    0.000    0.000 
#
# Total GULP energy -178288.081770 kJ/mol
# GULP energy per Si atom -5571.502555 kJ/mol
# Density = 2.701984 g / cm^3
# Si number density = 27.081475 Si / 1000 Ang^3
#
#
#
# Elastic Constant Matrix: (Units=GPa)
#
#
# Indices 1 2 3 4 5 6 
#
# 1 107.0615 19.6655 62.8623 0.0000 0.0000 -1.2049
# 2 19.6655 107.0615 62.8623 0.0000 0.0000 1.2049
# 3 62.8623 62.8623 259.9363 0.0000 0.0000 0.0000
# 4 0.0000 0.0000 0.0000 -3.7139 0.0000 0.0000
# 5 0.0000 0.0000 0.0000 0.0000 -3.7139 0.0000
# 6 -1.2049 1.2049 0.0000 0.0000 0.0000 21.7547
#
#
#
# Elastic Compliance Matrix: (Units=1/GPa)
#
#
# Indices 1 2 3 4 5 6 
#
# 1 0.010921 -0.000539 -0.002511 0.000000 0.000000 0.000635
# 2 -0.000539 0.010921 -0.002511 0.000000 0.000000 -0.000635
# 3 -0.002511 -0.002511 0.005061 0.000000 0.000000 0.000000
# 4 0.000000 0.000000 0.000000 -0.269262 0.000000 0.000000
# 5 0.000000 0.000000 0.000000 0.000000 -0.269262 0.000000
# 6 0.000635 -0.000635 0.000000 0.000000 0.000000 0.046037
#
#
# Mechanical properties :
#
#
# Convention : Reuss Voigt Hill
#
# Bulk Modulus (GPa) = 63.36226 84.98216 74.17221
# Shear Modulus (GPa) = -11.13086 24.77668 6.82291
#
# Velocity S-wave (km/s) = -2.02955 3.02800 1.58898
# Velocity P-wave (km/s) = 4.23741 6.60858 5.55108
#
# Compressibility (1/GPa) = 0.01578227
#
# Stress axis : x y z
#
# Youngs Moduli (GPa) = 91.56880 91.56880 197.57130
#
# Poissons Ratio (x) = 0.04935 0.49604
# Poissons Ratio (y) = 0.04935 0.49604
# Poissons Ratio (z) = 0.22990 0.22990
#
# Static dielectric constant tensor:
#      x y z
#    x 2.199560 0.000000 0.000000 
#    y 0.000000 2.199560 0.000000 
#    z 0.000000 0.000000 2.199180 
# 
# From -- ./inp_files/3865.got.cif
#   From: 2010.05.17/outbox.cif.g08.bks.cpg/sg86_2_cif.got.tgz:3865.got - 2010.06.03 19:03:11.
