data_PCOD9544345
_publ_section_title
;
Structure prediction by ZEFSAII (Michael W. Deem and Ramdas Pophale) SiO2 
 PCOD9544345
Probable space group: P 42/M
;
_chemical_formula_sum "Si O2"
_cell_formula_units_Z 40
_cell_length_a 11.068145
_cell_length_b 11.068145
_cell_length_c 14.527121
_cell_angle_alpha 90.000000
_cell_angle_beta 90.000000
_cell_angle_gamma 90.000000
_cell_volume 1779.628016
_symmetry_space_group_name_H-M "P 42/M"
_symmetry_group_IT_number 84
_symmetry_cell_setting 'tetragonal'
loop_
_space_group_symop_operation_xyz
x,y,z
-y,x,1/2+z
-x,-y,z
y,-x,1/2+z
-x,-y,-z
y,-x,1/2-z
x,y,-z
-y,x,1/2-z
loop_
_atom_site_type_symbol
_atom_site_label
_atom_site_fract_x
_atom_site_fract_y
_atom_site_fract_z
Si Si1 0.903187 0.325984 0.896440
Si Si2 0.087891 0.823418 0.259924
Si Si3 0.409353 0.108056 0.110899
Si Si4 0.624683 0.434400 0.612651
Si Si5 0.830122 0.595549 0.894234
O O1 0.844911 0.234015 0.827154
O O2 0.832914 0.451142 0.897478
O O3 0.038166 0.362892 0.862685
O O4 0.910320 0.278953 0.000000
O O5 0.092275 0.720843 0.338619
O O6 0.953321 0.854775 0.222956
O O7 0.472681 0.237468 0.134455
O O8 0.500000 0.000000 0.136903
O O9 0.391059 0.105335 0.000000
O O10 0.500000 0.500000 0.642194
O O11 0.617403 0.432926 0.500000
O O12 0.627730 0.296443 0.649708
O O13 0.825019 0.640605 0.000000
#
# Coordination Sequence:
#
# PCOD9544345 Si02
#       5
#     8   8   8   8   8
#     4   9  18  34  59  87 113 149 202 266 325 373
#     4  11  25  41  60  89 125 169 219 273 329 398
#     4  10  23  43  66  93 135 184 219 268 345 416
#     4   9  17  32  58  90 122 158 205 257 311 386
#     4   8  15  29  55  87 111 141 190 253 318 367
#
# _framework density 22.476607999999999
#
# number of rings (size 3 to 8) (size 9 to 14) (size 15 to 20)
#    0.000    2.600    0.000    2.400    2.800    4.800 
#    0.000    6.000    0.000    0.000    0.000    0.000 
#    0.000    0.000    0.000    0.000    0.000    0.000 
#
# Total GULP energy -222802.505073 kJ/mol
# GULP energy per Si atom -5570.062627 kJ/mol
# Density = 2.242545 g / cm^3
# Si number density = 22.476608 Si / 1000 Ang^3
#
#
#
# Elastic Constant Matrix: (Units=GPa)
#
#
# Indices 1 2 3 4 5 6 
#
# 1 100.0010 46.9739 18.1335 0.0000 0.0000 -6.0331
# 2 46.9739 100.0010 18.1335 0.0000 0.0000 6.0331
# 3 18.1335 18.1335 59.2805 0.0000 0.0000 0.0000
# 4 0.0000 0.0000 0.0000 10.7918 0.0000 0.0000
# 5 0.0000 0.0000 0.0000 0.0000 10.7918 0.0000
# 6 -6.0331 6.0331 0.0000 0.0000 0.0000 5.7258
#
#
#
# Elastic Compliance Matrix: (Units=1/GPa)
#
#
# Indices 1 2 3 4 5 6 
#
# 1 0.016083 -0.008723 -0.002251 0.000000 0.000000 0.026137
# 2 -0.008723 0.016083 -0.002251 0.000000 0.000000 -0.026137
# 3 -0.002251 -0.002251 0.018246 0.000000 0.000000 0.000000
# 4 0.000000 0.000000 0.000000 0.092663 0.000000 0.000000
# 5 0.000000 0.000000 0.000000 0.000000 0.092663 0.000000
# 6 0.026137 -0.026137 0.000000 0.000000 0.000000 0.229728
#
#
# Mechanical properties :
#
#
# Convention : Reuss Voigt Hill
#
# Bulk Modulus (GPa) = 41.73581 47.30711 44.52146
# Shear Modulus (GPa) = 10.00194 17.19798 13.59996
#
# Velocity S-wave (km/s) = 2.11177 2.76914 2.46249
# Velocity P-wave (km/s) = 4.95530 5.59617 5.28546
#
# Compressibility (1/GPa) = 0.02396024
#
# Stress axis : x y z
#
# Youngs Moduli (GPa) = 62.17911 62.17911 54.80591
#
# Poissons Ratio (x) = 0.54240 0.12338
# Poissons Ratio (y) = 0.54240 0.12338
# Poissons Ratio (z) = 0.13998 0.13998
#
# Static dielectric constant tensor:
#      x y z
#    x 1.819110 0.000000 0.000000 
#    y 0.000000 1.819110 0.000000 
#    z 0.000000 0.000000 1.887580 
# 
# From -- ./inp_files/2904.got.cif
#   From: 2010.05.17/outbox.cif.g08.bks.cpg/sg84_2_cif.got.tgz:2904.got - 2010.06.03 18:57:40.
