data_PCOD9544946
_publ_section_title
;
Structure prediction by ZEFSAII (Michael W. Deem and Ramdas Pophale) SiO2 
 PCOD9544946
Probable space group: P 42/N
;
_chemical_formula_sum "Si O2"
_cell_formula_units_Z 24
_cell_length_a 9.833712
_cell_length_b 9.833712
_cell_length_c 13.018178
_cell_angle_alpha 90.000000
_cell_angle_beta 90.000000
_cell_angle_gamma 90.000000
_cell_volume 1258.882439
_symmetry_space_group_name_H-M "P 42/N"
_symmetry_group_IT_number 86
_space_group.IT_coordinate_system_code '2'
_symmetry_cell_setting 'tetragonal'
loop_
_space_group_symop_operation_xyz
x,y,z
-y,1/2+x,1/2+z
1/2-x,1/2-y,z
1/2+y,-x,1/2+z
-x,-y,-z
y,1/2-x,1/2-z
1/2+x,1/2+y,-z
1/2-y,x,1/2-z
loop_
_atom_site_type_symbol
_atom_site_label
_atom_site_fract_x
_atom_site_fract_y
_atom_site_fract_z
Si Si1 0.730031 0.536867 0.715528
Si Si2 0.351398 0.631103 0.102654
Si Si3 0.839385 0.616405 0.501549
O O1 0.607753 0.645400 0.723253
O O2 0.686319 0.407679 0.780504
O O3 0.779764 0.532029 0.599244
O O4 0.250000 0.750000 0.068414
O O5 0.341159 0.492482 0.034550
O O6 0.510218 0.666555 0.091067
O O7 0.750000 0.750000 0.487034
#
# Coordination Sequence:
#
# PCOD9544946 Si02
#       3
#     8   8   8
#     4   9  15  34  58  76 109 159 195 221 285 356
#     4  10  21  33  57  93 111 147 203 244 284 350
#     4  10  19  37  61  83 119 156 193 241 295 355
#
# _framework density 19.064530000000001
#
# number of rings (size 3 to 8) (size 9 to 14) (size 15 to 20)
#    0.000    2.333    6.667    0.000    0.000    2.667 
#    0.000    0.000   14.667    0.000    0.000    0.000 
#    0.000    0.000    0.000    0.000    0.000    0.000 
#
# Total GULP energy -133689.688790 kJ/mol
# GULP energy per Si atom -5570.403700 kJ/mol
# Density = 1.902114 g / cm^3
# Si number density = 19.064530 Si / 1000 Ang^3
#
#
#
# Elastic Constant Matrix: (Units=GPa)
#
#
# Indices 1 2 3 4 5 6 
#
# 1 96.5608 81.1192 33.5376 0.0000 0.0000 -3.1713
# 2 81.1192 96.5608 33.5376 0.0000 0.0000 3.1713
# 3 33.5376 33.5376 36.5815 0.0000 0.0000 0.0000
# 4 0.0000 0.0000 0.0000 2.2782 0.0000 0.0000
# 5 0.0000 0.0000 0.0000 0.0000 2.2782 0.0000
# 6 -3.1713 3.1713 0.0000 0.0000 0.0000 19.3391
#
#
#
# Elastic Compliance Matrix: (Units=1/GPa)
#
#
# Indices 1 2 3 4 5 6 
#
# 1 0.039022 -0.030415 -0.007891 0.000000 0.000000 0.011387
# 2 -0.030415 0.039022 -0.007891 0.000000 0.000000 -0.011387
# 3 -0.007891 -0.007891 0.041805 0.000000 0.000000 0.000000
# 4 0.000000 0.000000 0.000000 0.438935 0.000000 0.000000
# 5 0.000000 0.000000 0.000000 0.000000 0.438935 0.000000
# 6 0.011387 -0.011387 0.000000 0.000000 0.000000 0.055443
#
#
# Mechanical properties :
#
#
# Convention : Reuss Voigt Hill
#
# Bulk Modulus (GPa) = 36.42270 58.45467 47.43869
# Shear Modulus (GPa) = 4.33010 10.21303 7.27156
#
# Velocity S-wave (km/s) = 1.50871 2.31705 1.95511
# Velocity P-wave (km/s) = 4.70971 6.15519 5.48032
#
# Compressibility (1/GPa) = 0.02745541
#
# Stress axis : x y z
#
# Youngs Moduli (GPa) = 25.62651 25.62651 23.92082
#
# Poissons Ratio (x) = 0.77944 0.18875
# Poissons Ratio (y) = 0.77944 0.18875
# Poissons Ratio (z) = 0.20221 0.20221
#
# Static dielectric constant tensor:
#      x y z
#    x 1.680330 0.000000 0.000000 
#    y 0.000000 1.680330 0.000000 
#    z 0.000000 0.000000 1.693910 
# 
# From -- ./inp_files/1708.got.cif
#   From: 2010.05.17/outbox.cif.g08.bks.cpg/sg86_1_cif.got.tgz:1708.got - 2010.06.03 19:03:11.
