data_PCOD9544549
_publ_section_title
;
Structure prediction by ZEFSAII (Michael W. Deem and Ramdas Pophale) SiO2 
 PCOD9544549
Probable space group: P 4/N
;
_chemical_formula_sum "Si O2"
_cell_formula_units_Z 40
_cell_length_a 14.275673
_cell_length_b 14.275673
_cell_length_c 9.232789
_cell_angle_alpha 90.000000
_cell_angle_beta 90.000000
_cell_angle_gamma 90.000000
_cell_volume 1881.594753
_symmetry_space_group_name_H-M "P 4/N"
_symmetry_group_IT_number 85
_symmetry_cell_setting 'tetragonal'
loop_
_space_group_symop_operation_xyz
x,y,z
1/2-y,x,z
1/2-x,1/2-y,z
y,1/2-x,z
-x,-y,-z
1/2+y,-x,-z
1/2+x,1/2+y,-z
-y,1/2+x,-z
loop_
_atom_site_type_symbol
_atom_site_label
_atom_site_fract_x
_atom_site_fract_y
_atom_site_fract_z
Si Si1 0.699669 0.896725 0.524127
Si Si2 0.622520 0.952762 0.229958
Si Si3 0.843463 0.873171 0.945396
Si Si4 0.919852 0.500208 0.745936
Si Si5 0.384321 0.670454 0.003222
O O1 0.635480 0.805184 0.554260
O O2 0.692669 0.924439 0.356144
O O3 0.655590 0.977385 0.623081
O O4 0.609058 0.870695 0.111223
O O5 0.521932 0.969368 0.304591
O O6 0.653957 0.042995 0.135439
O O7 0.733857 0.876428 0.917828
O O8 0.905227 0.935603 0.840686
O O9 0.879390 0.427972 0.862871
O O10 0.281007 0.628393 0.027104
#
# Coordination Sequence:
#
# PCOD9544549 Si02
#       5
#     8   8   8   8   8
#     4  11  25  44  66  93 128 166 206 263 327 382
#     4  11  24  38  65  93 127 165 208 261 313 372
#     4  10  20  35  61  93 124 162 209 266 318 367
#     4  11  24  38  65  93 127 165 208 261 313 372
#     4  10  24  43  65  93 126 170 211 256 304 365
#
# _framework density 21.258562000000001
#
# number of rings (size 3 to 8) (size 9 to 14) (size 15 to 20)
#    0.000    1.400    0.000    5.400   16.800    3.200 
#    0.000    0.000    0.000    2.400    0.000    0.000 
#    0.000    0.000    0.000    0.000    0.000    0.000 
#
# Total GULP energy -223818.684563 kJ/mol
# GULP energy per Si atom -5595.467114 kJ/mol
# Density = 2.121018 g / cm^3
# Si number density = 21.258562 Si / 1000 Ang^3
#
#
#
# Elastic Constant Matrix: (Units=GPa)
#
#
# Indices 1 2 3 4 5 6 
#
# 1 61.4316 19.2144 -8.0151 0.0000 0.0000 0.7590
# 2 19.2144 61.4316 -8.0151 0.0000 0.0000 -0.7590
# 3 -8.0151 -8.0151 58.8398 0.0000 0.0000 0.0000
# 4 0.0000 0.0000 0.0000 22.9391 0.0000 0.0000
# 5 0.0000 0.0000 0.0000 0.0000 22.9391 0.0000
# 6 0.7590 -0.7590 0.0000 0.0000 0.0000 29.8109
#
#
#
# Elastic Compliance Matrix: (Units=1/GPa)
#
#
# Indices 1 2 3 4 5 6 
#
# 1 0.018227 -0.005482 0.001736 0.000000 0.000000 -0.000604
# 2 -0.005482 0.018227 0.001736 0.000000 0.000000 0.000604
# 3 0.001736 0.001736 0.017468 0.000000 0.000000 0.000000
# 4 0.000000 0.000000 0.000000 0.043594 0.000000 0.000000
# 5 0.000000 0.000000 0.000000 0.000000 0.043594 0.000000
# 6 -0.000604 0.000604 0.000000 0.000000 0.000000 0.033575
#
#
# Mechanical properties :
#
#
# Convention : Reuss Voigt Hill
#
# Bulk Modulus (GPa) = 20.03904 20.89683 20.46793
# Shear Modulus (GPa) = 25.59658 27.03906 26.31782
#
# Velocity S-wave (km/s) = 3.47372 3.57026 3.52232
# Velocity P-wave (km/s) = 5.05329 5.18139 5.11775
#
# Compressibility (1/GPa) = 0.04990260
#
# Stress axis : x y z
#
# Youngs Moduli (GPa) = 54.86406 54.86406 57.24667
#
# Poissons Ratio (x) = 0.30076 -0.09939
# Poissons Ratio (y) = 0.30076 -0.09939
# Poissons Ratio (z) = -0.09525 -0.09525
#
# Static dielectric constant tensor:
#      x y z
#    x 1.758930 0.000000 0.000000 
#    y 0.000000 1.758930 0.000000 
#    z 0.000000 0.000000 1.751470 
# 
# From -- ./inp_files/891.got.cif
#   From: 2010.05.17/outbox.cif.g08.bks.cpg/sg85_cif.got.tgz:891.got - 2010.06.03 19:01:16.
