data_PCOD9544406
_publ_section_title
;
Structure prediction by ZEFSAII (Michael W. Deem and Ramdas Pophale) SiO2 
 PCOD9544406
Probable space group: P 42/M
;
_chemical_formula_sum "Si O2"
_cell_formula_units_Z 34
_cell_length_a 8.891050
_cell_length_b 8.891050
_cell_length_c 18.994440
_cell_angle_alpha 90.000000
_cell_angle_beta 90.000000
_cell_angle_gamma 90.000000
_cell_volume 1501.525110
_symmetry_space_group_name_H-M "P 42/M"
_symmetry_group_IT_number 84
_symmetry_cell_setting 'tetragonal'
loop_
_space_group_symop_operation_xyz
x,y,z
-y,x,1/2+z
-x,-y,z
y,-x,1/2+z
-x,-y,-z
y,-x,1/2-z
x,y,-z
-y,x,1/2-z
loop_
_atom_site_type_symbol
_atom_site_label
_atom_site_fract_x
_atom_site_fract_y
_atom_site_fract_z
Si Si1 0.145714 0.250974 0.500000
Si Si2 0.319476 0.345927 0.635219
Si Si3 0.192457 0.862896 0.246986
Si Si4 0.885736 0.816049 0.000000
Si Si5 0.594095 0.151512 0.376653
Si Si6 0.500000 0.500000 0.750000
O O1 0.209529 0.343848 0.567709
O O2 0.969134 0.211406 0.500000
O O3 0.193610 0.071373 0.500000
O O4 0.248617 0.214446 0.682875
O O5 0.481418 0.288737 0.610534
O O6 0.360538 0.471320 0.695355
O O7 0.330381 0.851286 0.300106
O O8 0.032819 0.822592 0.281385
O O9 0.840109 0.727868 0.930944
O O10 0.500000 0.000000 0.388213
#
# Coordination Sequence:
#
# PCOD9544406 Si02
#       6
#     4   8   8   4   8   2
#     4  11  23  41  68 101 140 176 227 299 360 418
#     4  12  24  42  66  97 134 186 234 286 351 425
#     4  11  22  37  62  99 137 175 229 297 356 409
#     4  11  22  39  67 105 137 175 229 290 362 421
#     4  12  21  37  63  97 134 181 226 281 347 422
#     4  12  28  46  68  96 132 194 248 280 344 434
#
# _framework density 22.643643000000001
#
# number of rings (size 3 to 8) (size 9 to 14) (size 15 to 20)
#    0.000    0.471    7.059    2.471    0.000    4.235 
#    0.000    0.000    0.000    1.412    0.000    0.000 
#    0.000    0.000    0.000    0.000    0.000    0.000 
#
# Total GULP energy -189556.796198 kJ/mol
# GULP energy per Si atom -5575.199888 kJ/mol
# Density = 2.259211 g / cm^3
# Si number density = 22.643643 Si / 1000 Ang^3
#
#
#
# Elastic Constant Matrix: (Units=GPa)
#
#
# Indices 1 2 3 4 5 6 
#
# 1 74.8185 16.6196 41.0004 0.0000 0.0000 1.7850
# 2 16.6196 74.8185 41.0004 0.0000 0.0000 -1.7850
# 3 41.0004 41.0004 116.5955 0.0000 0.0000 0.0000
# 4 0.0000 0.0000 0.0000 -322.9906 0.0000 0.0000
# 5 0.0000 0.0000 0.0000 0.0000 -322.9906 0.0000
# 6 1.7850 -1.7850 0.0000 0.0000 0.0000 24.5044
#
#
#
# Elastic Compliance Matrix: (Units=1/GPa)
#
#
# Indices 1 2 3 4 5 6 
#
# 1 0.016617 -0.000643 -0.005617 0.000000 0.000000 -0.001257
# 2 -0.000643 0.016617 -0.005617 0.000000 0.000000 0.001257
# 3 -0.005617 -0.005617 0.012527 0.000000 0.000000 0.000000
# 4 0.000000 0.000000 0.000000 -0.003096 0.000000 0.000000
# 5 0.000000 0.000000 0.000000 0.000000 -0.003096 0.000000
# 6 -0.001257 0.001257 0.000000 0.000000 0.000000 0.040992
#
#
# Mechanical properties :
#
#
# Convention : Reuss Voigt Hill
#
# Bulk Modulus (GPa) = 45.44183 51.49704 48.46944
# Shear Modulus (GPa) = 44.78275 -113.12122 -34.16923
#
# Velocity S-wave (km/s) = 4.45198 -7.07571 -3.88880
# Velocity P-wave (km/s) = 6.82192 6.63041 1.13495
#
# Compressibility (1/GPa) = 0.02200615
#
# Stress axis : x y z
#
# Youngs Moduli (GPa) = 60.18063 60.18063 79.82670
#
# Poissons Ratio (x) = 0.03869 0.44840
# Poissons Ratio (y) = 0.03869 0.44840
# Poissons Ratio (z) = 0.33804 0.33804
#
# Static dielectric constant tensor:
#      x y z
#    x 1.880950 0.000000 0.000000 
#    y 0.000000 1.880950 0.000000 
#    z 0.000000 0.000000 1.879450 
# 
# From -- ./inp_files/4289.got.cif
#   From: 2010.05.17/outbox.cif.g08.bks.cpg/sg84_3_cif.got.tgz:4289.got - 2010.06.03 18:57:40.
