data_PCOD9544509
_publ_section_title
;
Structure prediction by ZEFSAII (Michael W. Deem and Ramdas Pophale) SiO2 
 PCOD9544509
Probable space group: P 4/N
;
_chemical_formula_sum "Si O2"
_cell_formula_units_Z 56
_cell_length_a 11.853609
_cell_length_b 11.853609
_cell_length_c 20.977359
_cell_angle_alpha 90.000000
_cell_angle_beta 90.000000
_cell_angle_gamma 90.000000
_cell_volume 2947.487730
_symmetry_space_group_name_H-M "P 4/N"
_symmetry_group_IT_number 85
_symmetry_cell_setting 'tetragonal'
loop_
_space_group_symop_operation_xyz
x,y,z
1/2-y,x,z
1/2-x,1/2-y,z
y,1/2-x,z
-x,-y,-z
1/2+y,-x,-z
1/2+x,1/2+y,-z
-y,1/2+x,-z
loop_
_atom_site_type_symbol
_atom_site_label
_atom_site_fract_x
_atom_site_fract_y
_atom_site_fract_z
Si Si1 0.560974 0.113319 0.079293
Si Si2 0.854336 0.335203 0.700831
Si Si3 0.241921 0.886242 0.840241
Si Si4 0.559726 0.370420 0.060498
Si Si5 0.791097 0.931850 0.387721
Si Si6 0.778580 0.561032 0.645069
Si Si7 0.257503 0.564313 0.488598
O O1 0.634976 0.071590 0.139015
O O2 0.539600 0.245170 0.084423
O O3 0.446159 0.048703 0.069522
O O4 0.629711 0.094633 0.013453
O O5 0.750000 0.250000 0.687923
O O6 0.905230 0.303254 0.769757
O O7 0.805466 0.462124 0.695832
O O8 0.954669 0.317770 0.650691
O O9 0.250000 0.750000 0.845693
O O10 0.156194 0.923631 0.895001
O O11 0.667241 0.880514 0.374012
O O12 0.791610 0.967689 0.461685
O O13 0.874188 0.658392 0.649574
O O14 0.776261 0.493573 0.577796
O O15 0.152801 0.638474 0.515944
#
# Coordination Sequence:
#
# PCOD9544509 Si02
#       7
#     8   8   8   8   8   8   8
#     4  10  19  34  60  87 121 154 201 246 306 351
#     4  11  24  42  65  89 123 165 212 252 309 388
#     4   9  20  38  60  87 115 158 201 243 292 365
#     4  10  19  34  58  88 119 157 197 251 294 361
#     4  11  25  41  61  91 124 162 205 259 316 373
#     4  11  25  43  65  93 127 167 213 271 330 381
#     4  11  22  37  64  97 123 157 210 267 322 387
#
# _framework density 18.999230000000001
#
# number of rings (size 3 to 8) (size 9 to 14) (size 15 to 20)
#    0.000    1.571    2.857    1.714    4.000    3.714 
#    5.143    0.000    0.000    0.429    0.000    0.000 
#    0.000    0.000    0.000    0.000    0.000    0.000 
#
# Total GULP energy -312457.400256 kJ/mol
# GULP energy per Si atom -5579.596433 kJ/mol
# Density = 1.895599 g / cm^3
# Si number density = 18.999230 Si / 1000 Ang^3
#
#
#
# Elastic Constant Matrix: (Units=GPa)
#
#
# Indices 1 2 3 4 5 6 
#
# 1 83.6389 45.7980 13.8164 0.0000 0.0000 -11.6900
# 2 45.7980 83.6389 13.8164 0.0000 0.0000 11.6900
# 3 13.8164 13.8164 71.6377 0.0000 0.0000 0.0000
# 4 0.0000 0.0000 0.0000 8.9435 0.0000 0.0000
# 5 0.0000 0.0000 0.0000 0.0000 8.9435 0.0000
# 6 -11.6900 11.6900 0.0000 0.0000 0.0000 2.8407
#
#
#
# Elastic Compliance Matrix: (Units=1/GPa)
#
#
# Indices 1 2 3 4 5 6 
#
# 1 -0.004537 0.012595 -0.001554 0.000000 0.000000 -0.070500
# 2 0.012595 -0.004537 -0.001554 0.000000 0.000000 0.070500
# 3 -0.001554 -0.001554 0.014559 0.000000 0.000000 0.000000
# 4 0.000000 0.000000 0.000000 0.111813 0.000000 0.000000
# 5 0.000000 0.000000 0.000000 0.000000 0.111813 0.000000
# 6 -0.070500 0.070500 0.000000 0.000000 0.000000 -0.228213
#
#
# Mechanical properties :
#
#
# Convention : Reuss Voigt Hill
#
# Bulk Modulus (GPa) = 40.88715 42.86412 41.87563
# Shear Modulus (GPa) = -503.79143 15.17788 -244.30677
#
# Velocity S-wave (km/s) = -16.30153 2.82949 -11.35195
# Velocity P-wave (km/s) = 18.24151 5.76929 12.23658
#
# Compressibility (1/GPa) = 0.02445756
#
# Stress axis : x y z
#
# Youngs Moduli (GPa) = -220.39576 -220.39576 68.68817
#
# Poissons Ratio (x) = 2.77584 0.10674
# Poissons Ratio (y) = 2.77584 0.10674
# Poissons Ratio (z) = -0.34250 -0.34250
#
# Static dielectric constant tensor:
#      x y z
#    x 1.654110 0.000000 0.000000 
#    y 0.000000 1.654110 0.000000 
#    z 0.000000 0.000000 1.697410 
# 
# From -- ./inp_files/2258.got.cif
#   From: 2010.05.17/outbox.cif.g08.bks.cpg/sg85_cif.got.tgz:2258.got - 2010.06.03 19:01:16.
