data_PCOD9544100
_publ_section_title
;
Structure prediction by ZEFSAII (Michael W. Deem and Ramdas Pophale) SiO2 
 PCOD9544100
Probable space group: P 42/M
;
_chemical_formula_sum "Si O2"
_cell_formula_units_Z 48
_cell_length_a 17.549547
_cell_length_b 17.549547
_cell_length_c 7.882180
_cell_angle_alpha 90.000000
_cell_angle_beta 90.000000
_cell_angle_gamma 90.000000
_cell_volume 2427.605818
_symmetry_space_group_name_H-M "P 42/M"
_symmetry_group_IT_number 84
_symmetry_cell_setting 'tetragonal'
loop_
_space_group_symop_operation_xyz
x,y,z
-y,x,1/2+z
-x,-y,z
y,-x,1/2+z
-x,-y,-z
y,-x,1/2-z
x,y,-z
-y,x,1/2-z
loop_
_atom_site_type_symbol
_atom_site_label
_atom_site_fract_x
_atom_site_fract_y
_atom_site_fract_z
Si Si1 0.589849 0.297076 0.795487
Si Si2 0.997080 0.877558 0.800267
Si Si3 0.572629 0.882199 0.705915
Si Si4 0.707753 0.421279 0.796191
Si Si5 0.876947 0.597829 0.702024
Si Si6 0.705738 0.991683 0.301061
O O1 0.653551 0.354757 0.730708
O O2 0.504945 0.322290 0.748103
O O3 0.600382 0.210288 0.734937
O O4 0.594207 0.294897 0.000000
O O5 0.006651 0.791687 0.730708
O O6 0.073225 0.928327 0.778713
O O7 0.979993 0.872213 0.000000
O O8 0.572862 0.884620 0.500000
O O9 0.583125 0.794956 0.764454
O O10 0.487664 0.906534 0.760004
O O11 0.356981 0.067315 0.770245
O O12 0.710501 0.415061 0.000000
O O13 0.877961 0.608796 0.500000
O O14 0.927757 0.663363 0.783260
O O15 0.714089 0.972320 0.500000
#
# Coordination Sequence:
#
# PCOD9544100 Si02
#       6
#     8   8   8   8   8   8
#     4   9  19  34  50  72 101 131 167 210 253 296
#     4  10  21  38  58  79 105 136 170 210 258 307
#     4   9  18  34  53  72 100 136 171 207 249 301
#     4   9  18  33  52  71  95 132 171 205 247 297
#     4  10  20  33  51  76 106 136 167 210 259 300
#     4  10  21  35  54  79 103 133 172 207 245 303
#
# _framework density 19.772566999999999
#
# number of rings (size 3 to 8) (size 9 to 14) (size 15 to 20)
#    0.000    2.500    0.000    2.000    0.000    7.000 
#    0.000    5.000    0.000    4.000    0.000    0.000 
#    0.000    0.000    0.000    0.000    0.000    0.000 
#
# Total GULP energy -267789.685438 kJ/mol
# GULP energy per Si atom -5578.951780 kJ/mol
# Density = 1.972756 g / cm^3
# Si number density = 19.772567 Si / 1000 Ang^3
#
#
#
# Elastic Constant Matrix: (Units=GPa)
#
#
# Indices 1 2 3 4 5 6 
#
# 1 96.8716 42.1683 -7.1512 0.0000 0.0000 9.4424
# 2 42.1683 96.8716 -7.1512 0.0000 0.0000 -9.4424
# 3 -7.1512 -7.1512 16.2126 0.0000 0.0000 0.0000
# 4 0.0000 0.0000 0.0000 1.7756 0.0000 0.0000
# 5 0.0000 0.0000 0.0000 0.0000 1.7756 0.0000
# 6 9.4424 -9.4424 0.0000 0.0000 0.0000 -40.7284
#
#
#
# Elastic Compliance Matrix: (Units=1/GPa)
#
#
# Indices 1 2 3 4 5 6 
#
# 1 0.012230 -0.004696 0.003323 0.000000 0.000000 0.003924
# 2 -0.004696 0.012230 0.003323 0.000000 0.000000 -0.003924
# 3 0.003323 0.003323 0.064612 0.000000 0.000000 0.000000
# 4 0.000000 0.000000 0.000000 0.563199 0.000000 0.000000
# 5 0.000000 0.000000 0.000000 0.000000 0.563199 0.000000
# 6 0.003924 -0.003924 0.000000 0.000000 0.000000 -0.022733
#
#
# Mechanical properties :
#
#
# Convention : Reuss Voigt Hill
#
# Bulk Modulus (GPa) = 10.75581 29.52084 20.13833
# Shear Modulus (GPa) = 4.09894 4.70386 4.40140
#
# Velocity S-wave (km/s) = 1.44137 1.54407 1.49360
# Velocity P-wave (km/s) = 2.86734 4.25928 3.63064
#
# Compressibility (1/GPa) = 0.09297299
#
# Stress axis : x y z
#
# Youngs Moduli (GPa) = 81.76676 81.76676 15.47695
#
# Poissons Ratio (x) = 0.38397 -0.05143
# Poissons Ratio (y) = 0.38397 -0.05143
# Poissons Ratio (z) = -0.27173 -0.27173
#
# Static dielectric constant tensor:
#      x y z
#    x 1.691390 0.000000 0.000000 
#    y 0.000000 1.691390 0.000000 
#    z 0.000000 0.000000 1.716030 
# 
# From -- ./inp_files/1255.got.cif
#   From: 2010.05.17/outbox.cif.g08.bks.cpg/sg84_1_cif.got.tgz:1255.got - 2010.06.03 18:57:40.
