data_PCOD9544881
_publ_section_title
;
Structure prediction by ZEFSAII (Michael W. Deem and Ramdas Pophale) SiO2 
 PCOD9544881
Probable space group: P 42/N
;
_chemical_formula_sum "Si O2"
_cell_formula_units_Z 64
_cell_length_a 21.686711
_cell_length_b 21.686711
_cell_length_c 8.687288
_cell_angle_alpha 90.000000
_cell_angle_beta 90.000000
_cell_angle_gamma 90.000000
_cell_volume 4085.748251
_symmetry_space_group_name_H-M "P 42/N"
_symmetry_group_IT_number 86
_space_group.IT_coordinate_system_code '2'
_symmetry_cell_setting 'tetragonal'
loop_
_space_group_symop_operation_xyz
x,y,z
-y,1/2+x,1/2+z
1/2-x,1/2-y,z
1/2+y,-x,1/2+z
-x,-y,-z
y,1/2-x,1/2-z
1/2+x,1/2+y,-z
1/2-y,x,1/2-z
loop_
_atom_site_type_symbol
_atom_site_label
_atom_site_fract_x
_atom_site_fract_y
_atom_site_fract_z
Si Si1 0.986208 0.095001 0.078662
Si Si2 0.101714 0.013918 0.048096
Si Si3 0.592435 0.403824 0.364474
Si Si4 0.370159 0.729779 0.520647
Si Si5 0.050189 0.770366 0.039839
Si Si6 0.831363 0.184759 0.794299
Si Si7 0.948880 0.353013 0.161266
Si Si8 0.697286 0.467317 0.166219
O O1 0.967521 0.090632 0.258903
O O2 0.975067 0.164643 0.021580
O O3 0.940245 0.046465 0.993775
O O4 0.054843 0.070643 0.050295
O O5 0.131177 0.000592 0.214608
O O6 0.154947 0.017677 0.918336
O O7 0.604975 0.334193 0.415433
O O8 0.599375 0.444837 0.518003
O O9 0.649010 0.423425 0.254909
O O10 0.332728 0.720648 0.364276
O O11 0.327513 0.764786 0.639249
O O12 0.428439 0.770737 0.468975
O O13 0.046301 0.714970 0.916146
O O14 0.121462 0.783197 0.087688
O O15 0.018240 0.746738 0.199467
O O16 0.856651 0.116693 0.749131
#
# Coordination Sequence:
#
# PCOD9544881 Si02
#       8
#     8   8   8   8   8   8   8   8
#     4  10  19  32  51  75  96 126 167 206 248 302
#     4  10  19  33  52  69  99 129 162 208 252 296
#     4   9  19  31  46  69  94 130 167 199 249 285
#     4  10  18  30  47  60  92 128 164 211 233 282
#     4  10  19  32  51  66  95 131 163 202 241 300
#     4  10  18  31  44  64  88 128 172 195 239 277
#     4  10  18  32  49  66  98 132 160 205 248 289
#     4   9  18  33  47  65  92 130 162 195 252 289
#
# _framework density 15.664205000000001
#
# number of rings (size 3 to 8) (size 9 to 14) (size 15 to 20)
#    0.000    2.250    2.500    1.500    0.000    0.500 
#    0.000   18.750    0.000    0.000    0.000    0.000 
#    0.000    3.000    0.000    0.000    0.000    0.000 
#
# Total GULP energy -356749.032293 kJ/mol
# GULP energy per Si atom -5574.203630 kJ/mol
# Density = 1.562855 g / cm^3
# Si number density = 15.664205 Si / 1000 Ang^3
#
#
#
# Elastic Constant Matrix: (Units=GPa)
#
#
# Indices 1 2 3 4 5 6 
#
# 1 27.5798 7.5582 15.6392 0.0000 0.0000 -3.9814
# 2 7.5582 27.5798 15.6392 0.0000 0.0000 3.9814
# 3 15.6392 15.6392 55.4247 0.0000 0.0000 0.0000
# 4 0.0000 0.0000 0.0000 16.8658 0.0000 0.0000
# 5 0.0000 0.0000 0.0000 0.0000 16.8658 0.0000
# 6 -3.9814 3.9814 0.0000 0.0000 0.0000 19.1580
#
#
#
# Elastic Compliance Matrix: (Units=1/GPa)
#
#
# Indices 1 2 3 4 5 6 
#
# 1 0.046226 -0.008220 -0.010724 0.000000 0.000000 0.011315
# 2 -0.008220 0.046226 -0.010724 0.000000 0.000000 -0.011315
# 3 -0.010724 -0.010724 0.024094 0.000000 0.000000 0.000000
# 4 0.000000 0.000000 0.000000 0.059292 0.000000 0.000000
# 5 0.000000 0.000000 0.000000 0.000000 0.059292 0.000000
# 6 0.011315 -0.011315 0.000000 0.000000 0.000000 0.056900
#
#
# Mechanical properties :
#
#
# Convention : Reuss Voigt Hill
#
# Bulk Modulus (GPa) = 17.47970 20.91749 19.19859
# Shear Modulus (GPa) = 13.49759 15.36109 14.42934
#
# Velocity S-wave (km/s) = 2.93863 3.13493 3.03837
# Velocity P-wave (km/s) = 4.76417 5.14649 4.95902
#
# Compressibility (1/GPa) = 0.05720923
#
# Stress axis : x y z
#
# Youngs Moduli (GPa) = 21.63294 21.63294 41.50333
#
# Poissons Ratio (x) = 0.17783 0.44508
# Poissons Ratio (y) = 0.17783 0.44508
# Poissons Ratio (z) = 0.23199 0.23199
#
# Static dielectric constant tensor:
#      x y z
#    x 1.517800 0.000000 0.000000 
#    y 0.000000 1.517800 0.000000 
#    z 0.000000 0.000000 1.569510 
# 
# From -- ./inp_files/1546.got.cif
#   From: 2010.05.17/outbox.cif.g08.bks.cpg/sg86_1_cif.got.tgz:1546.got - 2010.06.03 19:03:11.
