data_PCOD9544127
_publ_section_title
;
Structure prediction by ZEFSAII (Michael W. Deem and Ramdas Pophale) SiO2 
 PCOD9544127
Probable space group: P 42/M
;
_chemical_formula_sum "Si O2"
_cell_formula_units_Z 58
_cell_length_a 18.061800
_cell_length_b 18.061800
_cell_length_c 9.274947
_cell_angle_alpha 90.000000
_cell_angle_beta 90.000000
_cell_angle_gamma 90.000000
_cell_volume 3025.753153
_symmetry_space_group_name_H-M "P 42/M"
_symmetry_group_IT_number 84
_symmetry_cell_setting 'tetragonal'
loop_
_space_group_symop_operation_xyz
x,y,z
-y,x,1/2+z
-x,-y,z
y,-x,1/2+z
-x,-y,-z
y,-x,1/2-z
x,y,-z
-y,x,1/2-z
loop_
_atom_site_type_symbol
_atom_site_label
_atom_site_fract_x
_atom_site_fract_y
_atom_site_fract_z
Si Si1 0.747989 0.627975 0.837895
Si Si2 0.650226 0.426139 0.661565
Si Si3 0.283497 0.134451 0.826116
Si Si4 0.966403 0.680419 0.672667
Si Si5 0.456316 0.867983 0.829790
Si Si6 0.204454 0.582795 0.829204
Si Si7 0.500000 0.500000 0.750000
Si Si8 0.152542 0.226648 0.836520
O O1 0.660328 0.629849 0.817271
O O2 0.792666 0.587044 0.712484
O O3 0.784572 0.709141 0.840227
O O4 0.762749 0.595941 0.000000
O O5 0.681944 0.433785 0.500000
O O6 0.714473 0.444189 0.775505
O O7 0.575402 0.474012 0.671278
O O8 0.338031 0.189013 0.742235
O O9 0.198635 0.154693 0.790799
O O10 0.305291 0.050919 0.787147
O O11 0.292412 0.143751 0.000000
O O12 0.960968 0.683651 0.500000
O O13 0.933787 0.599614 0.713774
O O14 0.912705 0.742102 0.739409
O O15 0.530085 0.858827 0.737657
O O16 0.472036 0.872882 0.000000
O O17 0.201617 0.585789 0.000000
O O18 0.125346 0.217093 0.000000
#
# Coordination Sequence:
#
# PCOD9544127 Si02
#       8
#     8   8   8   8   8   8   2   8
#     4   9  17  33  57  80 106 145 189 235 285 338
#     4  11  23  41  58  78 110 149 193 243 296 345
#     4  10  20  39  62  86 116 152 188 227 282 339
#     4   9  20  36  59  88 116 148 188 229 274 336
#     4  10  20  35  54  80 114 151 186 230 286 341
#     4  12  25  38  57  83 110 147 194 244 288 340
#     4  12  26  36  60  90 110 148 200 250 294 340
#     4   9  17  33  59  85 113 149 184 225 278 331
#
# _framework density 19.168780999999999
#
# number of rings (size 3 to 8) (size 9 to 14) (size 15 to 20)
#    0.000    1.931    1.379    2.690    0.000    4.966 
#    0.000    2.759    0.000    0.414    0.000    2.897 
#    0.000    0.000    0.000    0.000    0.000    0.000 
#
# Total GULP energy -323632.871305 kJ/mol
# GULP energy per Si atom -5579.877091 kJ/mol
# Density = 1.912515 g / cm^3
# Si number density = 19.168781 Si / 1000 Ang^3
#
#
#
# Elastic Constant Matrix: (Units=GPa)
#
#
# Indices 1 2 3 4 5 6 
#
# 1 72.6457 10.6716 22.5642 0.0000 0.0000 5.4569
# 2 10.6716 72.6457 22.5642 0.0000 0.0000 -5.4569
# 3 22.5642 22.5642 56.0703 0.0000 0.0000 0.0000
# 4 0.0000 0.0000 0.0000 14.3566 0.0000 0.0000
# 5 0.0000 0.0000 0.0000 0.0000 14.3566 0.0000
# 6 5.4569 -5.4569 0.0000 0.0000 0.0000 13.1969
#
#
#
# Elastic Compliance Matrix: (Units=1/GPa)
#
#
# Indices 1 2 3 4 5 6 
#
# 1 0.016375 -0.001028 -0.006176 0.000000 0.000000 -0.007196
# 2 -0.001028 0.016375 -0.006176 0.000000 0.000000 0.007196
# 3 -0.006176 -0.006176 0.022806 0.000000 0.000000 0.000000
# 4 0.000000 0.000000 0.000000 0.069654 0.000000 0.000000
# 5 0.000000 0.000000 0.000000 0.000000 0.069654 0.000000
# 6 -0.007196 0.007196 0.000000 0.000000 0.000000 0.081726
#
#
# Mechanical properties :
#
#
# Convention : Reuss Voigt Hill
#
# Bulk Modulus (GPa) = 34.72721 34.77353 34.75037
# Shear Modulus (GPa) = 15.97695 18.08614 17.03155
#
# Velocity S-wave (km/s) = 2.89015 3.07501 2.98401
# Velocity P-wave (km/s) = 5.41232 5.54866 5.48091
#
# Compressibility (1/GPa) = 0.02879587
#
# Stress axis : x y z
#
# Youngs Moduli (GPa) = 61.06742 61.06742 43.84850
#
# Poissons Ratio (x) = 0.06276 0.27082
# Poissons Ratio (y) = 0.06276 0.27082
# Poissons Ratio (z) = 0.37717 0.37717
#
# Static dielectric constant tensor:
#      x y z
#    x 1.691520 0.000000 0.000000 
#    y 0.000000 1.691520 0.000000 
#    z 0.000000 0.000000 1.656570 
# 
# From -- ./inp_files/1137.got.cif
#   From: 2010.05.17/outbox.cif.g08.bks.cpg/sg84_1_cif.got.tgz:1137.got - 2010.06.03 18:57:40.
