data_PCOD9544846
_publ_section_title
;
Structure prediction by ZEFSAII (Michael W. Deem and Ramdas Pophale) SiO2 
 PCOD9544846
Probable space group: P 4/N
;
_chemical_formula_sum "Si O2"
_cell_formula_units_Z 64
_cell_length_a 10.509302
_cell_length_b 10.509302
_cell_length_c 23.735800
_cell_angle_alpha 90.000000
_cell_angle_beta 90.000000
_cell_angle_gamma 90.000000
_cell_volume 2621.510602
_symmetry_space_group_name_H-M "P 4/N"
_symmetry_group_IT_number 85
_symmetry_cell_setting 'tetragonal'
loop_
_space_group_symop_operation_xyz
x,y,z
1/2-y,x,z
1/2-x,1/2-y,z
y,1/2-x,z
-x,-y,-z
1/2+y,-x,-z
1/2+x,1/2+y,-z
-y,1/2+x,-z
loop_
_atom_site_type_symbol
_atom_site_label
_atom_site_fract_x
_atom_site_fract_y
_atom_site_fract_z
Si Si1 0.500000 0.500000 0.339768
Si Si2 0.328386 0.449808 0.758582
Si Si3 0.828385 0.949809 0.758582
Si Si4 0.680223 0.544809 0.120475
Si Si5 0.332121 0.052171 0.439198
Si Si6 0.544809 0.819777 0.879525
Si Si7 0.667879 0.947829 0.439199
Si Si8 0.182768 0.043768 0.000000
O O1 0.619862 0.488337 0.297741
O O2 0.380137 0.511664 0.297741
O O3 0.509366 0.381068 0.382340
O O4 0.490634 0.618931 0.382340
O O5 0.182574 0.407513 0.757497
O O6 0.347585 0.517948 0.819096
O O7 0.682574 0.907513 0.757497
O O8 0.847584 0.017948 0.819095
O O9 0.825504 0.596184 0.120459
O O10 0.658768 0.477759 0.060259
O O11 0.408858 0.185614 0.438183
O O12 0.356329 0.987992 0.500000
O O13 0.596184 0.674496 0.879540
O O14 0.477759 0.841231 0.939740
O O15 0.591142 0.814386 0.438184
O O16 0.327549 0.096980 0.000000
#
# Coordination Sequence:
#
# PCOD9544846 Si02
#       8
#     8   8   8   8   8   8   8   8
#     4  12  19  26  48  75  94 116 150 182 212 257
#     4   9  18  31  45  64  92 123 154 187 221 261
#     4   9  18  31  45  64  92 123 154 187 221 261
#     4   7  10  18  33  54  80 109 143 183 222 258
#     4   9  19  36  55  73  92 114 144 182 219 257
#     4   7  10  18  33  54  80 109 143 183 222 258
#     4   9  19  36  55  73  92 114 144 182 219 257
#     4   7   8  12  28  53  76 102 140 182 222 260
#
# _framework density 24.413405000000001
#
# number of rings (size 3 to 8) (size 9 to 14) (size 15 to 20)
#    0.000    3.375    0.000    5.625    0.000    2.000 
#    0.000    0.000    0.000   12.750    0.000   14.000 
#    0.000    0.000    0.000    0.000    0.000  116.500 
#
# Total GULP energy -356885.452175 kJ/mol
# GULP energy per Si atom -5576.335190 kJ/mol
# Density = 2.435784 g / cm^3
# Si number density = 24.413405 Si / 1000 Ang^3
#
#
#
# Elastic Constant Matrix: (Units=GPa)
#
#
# Indices 1 2 3 4 5 6 
#
# 1 20.6195 13.4514 33.9966 0.0000 0.0000 2.5589
# 2 13.4514 20.6195 33.9966 0.0000 0.0000 -2.5589
# 3 33.9966 33.9966 316.8365 0.0000 0.0000 0.0000
# 4 0.0000 0.0000 0.0000 3.1445 0.0000 0.0000
# 5 0.0000 0.0000 0.0000 0.0000 3.1445 0.0000
# 6 2.5589 -2.5589 0.0000 0.0000 0.0000 31.7089
#
#
#
# Elastic Compliance Matrix: (Units=1/GPa)
#
#
# Indices 1 2 3 4 5 6 
#
# 1 0.092692 -0.055344 -0.004007 0.000000 0.000000 -0.011946
# 2 -0.055344 0.092692 -0.004007 0.000000 0.000000 0.011946
# 3 -0.004007 -0.004007 0.004016 0.000000 0.000000 0.000000
# 4 0.000000 0.000000 0.000000 0.318016 0.000000 0.000000
# 5 0.000000 0.000000 0.000000 0.000000 0.318016 0.000000
# 6 -0.011946 0.011946 0.000000 0.000000 0.000000 0.033465
#
#
# Mechanical properties :
#
#
# Convention : Reuss Voigt Hill
#
# Bulk Modulus (GPa) = 15.95342 57.88495 36.91918
# Shear Modulus (GPa) = 4.96767 26.04165 15.50466
#
# Velocity S-wave (km/s) = 1.42802 3.26957 2.52283
# Velocity P-wave (km/s) = 3.04432 6.16565 4.86226
#
# Compressibility (1/GPa) = 0.06268249
#
# Stress axis : x y z
#
# Youngs Moduli (GPa) = 10.78843 10.78843 248.99153
#
# Poissons Ratio (x) = 0.59707 0.99782
# Poissons Ratio (y) = 0.59707 0.99782
# Poissons Ratio (z) = 0.04323 0.04323
#
# Static dielectric constant tensor:
#      x y z
#    x 1.964930 0.000000 0.000000 
#    y 0.000000 1.964930 0.000000 
#    z 0.000000 0.000000 2.035010 
# 
# From -- ./inp_files/2363.got.cif
#   From: 2010.05.17/outbox.cif.g08.bks.cpg/sg85_cif.got.tgz:2363.got - 2010.06.03 19:01:16.
