data_PCOD9544330
_publ_section_title
;
Structure prediction by ZEFSAII (Michael W. Deem and Ramdas Pophale) SiO2 
 PCOD9544330
Probable space group: P 42/M
;
_chemical_formula_sum "Si O2"
_cell_formula_units_Z 22
_cell_length_a 5.377679
_cell_length_b 5.377679
_cell_length_c 31.069970
_cell_angle_alpha 90.000000
_cell_angle_beta 90.000000
_cell_angle_gamma 90.000000
_cell_volume 898.525867
_symmetry_space_group_name_H-M "P 42/M"
_symmetry_group_IT_number 84
_symmetry_cell_setting 'tetragonal'
loop_
_space_group_symop_operation_xyz
x,y,z
-y,x,1/2+z
-x,-y,z
y,-x,1/2+z
-x,-y,-z
y,-x,1/2-z
x,y,-z
-y,x,1/2-z
loop_
_atom_site_type_symbol
_atom_site_label
_atom_site_fract_x
_atom_site_fract_y
_atom_site_fract_z
Si Si1 0.254129 0.840694 0.905712
Si Si2 0.840070 0.255943 0.000000
Si Si3 0.738772 0.657337 0.312708
Si Si4 0.000000 0.000000 0.750000
O O1 0.249944 0.685161 0.861709
O O2 0.500000 0.000000 0.900431
O O3 0.289970 0.731479 0.953565
O O4 0.000000 0.000000 0.906079
O O5 0.000000 0.500000 0.000000
O O6 0.000000 0.000000 0.000000
O O7 0.500000 0.500000 0.299650
O O8 0.000000 0.500000 0.311722
O O9 0.792529 0.884778 0.281089
#
# Coordination Sequence:
#
# PCOD9544330 Si02
#       4
#     8   4   8   2
#     4  10  22  48  74 114 153 202 253 318 383 464
#     4  10  23  42  74 108 154 199 251 305 384 462
#     4  11  28  49  79 113 156 204 263 326 397 471
#     4  12  28  52  80 114 160 204 280 328 420 466
#
# _framework density 24.484551
#
# number of rings (size 3 to 8) (size 9 to 14) (size 15 to 20)
#    0.000    1.455    1.818    0.545    5.091   11.636 
#    0.000    8.182    0.000    0.000    0.000    0.000 
#    0.000    0.000    0.000    0.000    0.000    0.000 
#
# Total GULP energy -122991.729759 kJ/mol
# GULP energy per Si atom -5590.533171 kJ/mol
# Density = 2.442882 g / cm^3
# Si number density = 24.484551 Si / 1000 Ang^3
#
#
#
# Elastic Constant Matrix: (Units=GPa)
#
#
# Indices 1 2 3 4 5 6 
#
# 1 126.4480 43.3981 40.6750 0.0000 0.0000 3.0849
# 2 43.3981 126.4480 40.6750 0.0000 0.0000 -3.0849
# 3 40.6750 40.6750 264.2062 0.0000 0.0000 0.0000
# 4 0.0000 0.0000 0.0000 -50.7385 0.0000 0.0000
# 5 0.0000 0.0000 0.0000 0.0000 -50.7385 0.0000
# 6 3.0849 -3.0849 0.0000 0.0000 0.0000 53.4152
#
#
#
# Elastic Compliance Matrix: (Units=1/GPa)
#
#
# Indices 1 2 3 4 5 6 
#
# 1 0.009225 -0.002868 -0.000979 0.000000 0.000000 -0.000698
# 2 -0.002868 0.009225 -0.000979 0.000000 0.000000 0.000698
# 3 -0.000979 -0.000979 0.004086 0.000000 0.000000 0.000000
# 4 0.000000 0.000000 0.000000 -0.019709 0.000000 0.000000
# 5 0.000000 0.000000 0.000000 0.000000 -0.019709 0.000000
# 6 -0.000698 0.000698 0.000000 0.000000 0.000000 0.018802
#
#
# Mechanical properties :
#
#
# Convention : Reuss Voigt Hill
#
# Bulk Modulus (GPa) = 77.61145 85.17758 81.39451
# Shear Modulus (GPa) = 315.15518 16.54460 165.84989
#
# Velocity S-wave (km/s) = 11.35761 2.60227 8.23915
# Velocity P-wave (km/s) = 14.27448 6.62517 11.12775
#
# Compressibility (1/GPa) = 0.01288470
#
# Stress axis : x y z
#
# Youngs Moduli (GPa) = 108.40564 108.40564 244.72442
#
# Poissons Ratio (x) = 0.31093 0.23948
# Poissons Ratio (y) = 0.31093 0.23948
# Poissons Ratio (z) = 0.10608 0.10608
#
# Static dielectric constant tensor:
#      x y z
#    x 1.941030 0.000000 0.000000 
#    y 0.000000 1.941030 0.000000 
#    z 0.000000 0.000000 2.683520 
# 
# From -- ./inp_files/5496.got.cif
#   From: 2010.05.17/outbox.cif.g08.bks.cpg/sg84_3_cif.got.tgz:5496.got - 2010.06.03 18:57:40.
