data_PCOD9544844
_publ_section_title
;
Structure prediction by ZEFSAII (Michael W. Deem and Ramdas Pophale) SiO2 
 PCOD9544844
Probable space group: P 4/N
;
_chemical_formula_sum "Si O2"
_cell_formula_units_Z 34
_cell_length_a 10.964067
_cell_length_b 10.964067
_cell_length_c 12.751904
_cell_angle_alpha 90.000000
_cell_angle_beta 90.000000
_cell_angle_gamma 90.000000
_cell_volume 1532.916137
_symmetry_space_group_name_H-M "P 4/N"
_symmetry_group_IT_number 85
_symmetry_cell_setting 'tetragonal'
loop_
_space_group_symop_operation_xyz
x,y,z
1/2-y,x,z
1/2-x,1/2-y,z
y,1/2-x,z
-x,-y,-z
1/2+y,-x,-z
1/2+x,1/2+y,-z
-y,1/2+x,-z
loop_
_atom_site_type_symbol
_atom_site_label
_atom_site_fract_x
_atom_site_fract_y
_atom_site_fract_z
Si Si1 0.750000 0.750000 0.684888
Si Si2 0.920203 0.362023 0.720554
Si Si3 0.366172 0.999963 0.610663
Si Si4 0.606132 0.395418 0.032746
Si Si5 0.988100 0.727297 0.591226
O O1 0.618069 0.816146 0.669455
O O2 0.932261 0.220811 0.693180
O O3 0.901547 0.389346 0.841664
O O4 0.812987 0.420270 0.653002
O O5 0.047025 0.415658 0.677678
O O6 0.441800 0.892658 0.555989
O O7 0.291667 0.058773 0.514814
O O8 0.500000 0.500000 0.000000
O O9 0.750185 0.420721 0.996917
#
# Coordination Sequence:
#
# PCOD9544844 Si02
#       5
#     2   8   8   8   8
#     4  12  24  40  64  92 144 186 236 284 324 420
#     4  12  26  43  76 100 146 189 244 292 374 424
#     4  12  25  44  68 108 145 195 232 292 355 455
#     4  11  28  52  79 113 149 195 264 330 386 449
#     4  12  24  43  65 104 146 185 234 284 355 436
#
# _framework density 22.179946000000001
#
# number of rings (size 3 to 8) (size 9 to 14) (size 15 to 20)
#    0.000    0.235    4.706    4.235    9.882    0.941 
#    0.000    2.353    0.000    0.000    0.000    0.000 
#    0.000    0.000    0.000    0.000    0.000    0.000 
#
# Total GULP energy -189306.295150 kJ/mol
# GULP energy per Si atom -5567.832210 kJ/mol
# Density = 2.212946 g / cm^3
# Si number density = 22.179946 Si / 1000 Ang^3
#
#
#
# Elastic Constant Matrix: (Units=GPa)
#
#
# Indices 1 2 3 4 5 6 
#
# 1 123.8477 56.3571 32.8348 0.0000 0.0000 6.8234
# 2 56.3571 123.8477 32.8348 0.0000 0.0000 -6.8234
# 3 32.8348 32.8348 135.2919 0.0000 0.0000 0.0000
# 4 0.0000 0.0000 0.0000 27.2907 0.0000 0.0000
# 5 0.0000 0.0000 0.0000 0.0000 27.2907 0.0000
# 6 6.8234 -6.8234 0.0000 0.0000 0.0000 38.9913
#
#
#
# Elastic Compliance Matrix: (Units=1/GPa)
#
#
# Indices 1 2 3 4 5 6 
#
# 1 0.010724 -0.004636 -0.001477 0.000000 0.000000 -0.002688
# 2 -0.004636 0.010724 -0.001477 0.000000 0.000000 0.002688
# 3 -0.001477 -0.001477 0.008109 0.000000 0.000000 0.000000
# 4 0.000000 0.000000 0.000000 0.036643 0.000000 0.000000
# 5 0.000000 0.000000 0.000000 0.000000 0.036643 0.000000
# 6 -0.002688 0.002688 0.000000 0.000000 0.000000 0.026588
#
#
# Mechanical properties :
#
#
# Convention : Reuss Voigt Hill
#
# Bulk Modulus (GPa) = 69.56971 69.67119 69.62045
# Shear Modulus (GPa) = 33.46648 36.11190 34.78919
#
# Velocity S-wave (km/s) = 3.88862 4.03939 3.96472
# Velocity P-wave (km/s) = 7.18303 7.29627 7.23987
#
# Compressibility (1/GPa) = 0.01437407
#
# Stress axis : x y z
#
# Youngs Moduli (GPa) = 93.24846 93.24846 123.32637
#
# Poissons Ratio (x) = 0.43234 0.18221
# Poissons Ratio (y) = 0.43234 0.18221
# Poissons Ratio (z) = 0.13777 0.13777
#
# Static dielectric constant tensor:
#      x y z
#    x 1.965400 0.000000 0.000000 
#    y 0.000000 1.965400 0.000000 
#    z 0.000000 0.000000 1.783650 
# 
# From -- ./inp_files/1421.got.cif
#   From: 2010.05.17/outbox.cif.g08.bks.cpg/sg85_cif.got.tgz:1421.got - 2010.06.03 19:01:16.
