data_PCOD9544198
_publ_section_title
;
Structure prediction by ZEFSAII (Michael W. Deem and Ramdas Pophale) SiO2 
 PCOD9544198
Probable space group: P 42/M
;
_chemical_formula_sum "Si O2"
_cell_formula_units_Z 40
_cell_length_a 15.181219
_cell_length_b 15.181219
_cell_length_c 8.738019
_cell_angle_alpha 90.000000
_cell_angle_beta 90.000000
_cell_angle_gamma 90.000000
_cell_volume 2013.846086
_symmetry_space_group_name_H-M "P 42/M"
_symmetry_group_IT_number 84
_symmetry_cell_setting 'tetragonal'
loop_
_space_group_symop_operation_xyz
x,y,z
-y,x,1/2+z
-x,-y,z
y,-x,1/2+z
-x,-y,-z
y,-x,1/2-z
x,y,-z
-y,x,1/2-z
loop_
_atom_site_type_symbol
_atom_site_label
_atom_site_fract_x
_atom_site_fract_y
_atom_site_fract_z
Si Si1 0.785196 0.398665 0.181219
Si Si2 0.394665 0.579859 0.321494
Si Si3 0.081119 0.251280 0.317511
Si Si4 0.106234 0.776562 0.182049
Si Si5 0.446951 0.911985 0.315372
O O1 0.697389 0.378195 0.274174
O O2 0.856303 0.321897 0.202814
O O3 0.829370 0.491263 0.226185
O O4 0.763681 0.402189 0.000000
O O5 0.476447 0.613020 0.221093
O O6 0.414412 0.591579 0.500000
O O7 0.086671 0.258480 0.500000
O O8 0.155389 0.181594 0.267159
O O9 0.092758 0.348868 0.248976
O O10 0.985679 0.215855 0.268124
O O11 0.091301 0.788988 0.000000
O O12 0.441471 0.915148 0.500000
O O13 0.500000 0.000000 0.266340
#
# Coordination Sequence:
#
# PCOD9544198 Si02
#       5
#     8   8   8   8   8
#     4  10  21  39  62  88 120 161 205 248 305 370
#     4  11  23  40  60  85 120 161 206 251 302 363
#     4  11  24  40  64  96 124 160 207 259 310 361
#     4  10  23  44  64  87 125 165 205 254 313 373
#     4  10  20  39  65  89 119 162 198 239 304 366
#
# _framework density 19.862489
#
# number of rings (size 3 to 8) (size 9 to 14) (size 15 to 20)
#    0.000    1.600    2.000    3.000    2.800    4.000 
#    0.000    2.000    0.000    0.000    0.000    0.000 
#    0.000    0.000    0.000    0.000    0.000    0.000 
#
# Total GULP energy -223570.677213 kJ/mol
# GULP energy per Si atom -5589.266930 kJ/mol
# Density = 1.981728 g / cm^3
# Si number density = 19.862489 Si / 1000 Ang^3
#
#
#
# Elastic Constant Matrix: (Units=GPa)
#
#
# Indices 1 2 3 4 5 6 
#
# 1 77.4720 27.9026 13.8027 0.0000 0.0000 -10.5920
# 2 27.9026 77.4720 13.8027 0.0000 0.0000 10.5920
# 3 13.8027 13.8027 20.9481 0.0000 0.0000 0.0000
# 4 0.0000 0.0000 0.0000 5.3590 0.0000 0.0000
# 5 0.0000 0.0000 0.0000 0.0000 5.3590 0.0000
# 6 -10.5920 10.5920 0.0000 0.0000 0.0000 26.9221
#
#
#
# Elastic Compliance Matrix: (Units=1/GPa)
#
#
# Indices 1 2 3 4 5 6 
#
# 1 0.017861 -0.006391 -0.007557 0.000000 0.000000 0.009541
# 2 -0.006391 0.017861 -0.007557 0.000000 0.000000 -0.009541
# 3 -0.007557 -0.007557 0.057696 0.000000 0.000000 0.000000
# 4 0.000000 0.000000 0.000000 0.186603 0.000000 0.000000
# 5 0.000000 0.000000 0.000000 0.000000 0.186603 0.000000
# 6 0.009541 -0.009541 0.000000 0.000000 0.000000 0.044652
#
#
# Mechanical properties :
#
#
# Convention : Reuss Voigt Hill
#
# Bulk Modulus (GPa) = 19.83887 31.87868 25.85877
# Shear Modulus (GPa) = 8.75519 15.55362 12.15441
#
# Velocity S-wave (km/s) = 2.10178 2.80137 2.47640
# Velocity P-wave (km/s) = 3.98745 5.15248 4.60694
#
# Compressibility (1/GPa) = 0.05040611
#
# Stress axis : x y z
#
# Youngs Moduli (GPa) = 55.98931 55.98931 17.33210
#
# Poissons Ratio (x) = 0.35781 0.13099
# Poissons Ratio (y) = 0.35781 0.13099
# Poissons Ratio (z) = 0.42314 0.42314
#
# Static dielectric constant tensor:
#      x y z
#    x 1.698000 0.000000 0.000000 
#    y 0.000000 1.698000 0.000000 
#    z 0.000000 0.000000 1.675340 
# 
# From -- ./inp_files/760.got.cif
#   From: 2010.05.17/outbox.cif.g08.bks.cpg/sg84_1_cif.got.tgz:760.got - 2010.06.03 18:57:40.
