data_PCOD9544503
_publ_section_title
;
Structure prediction by ZEFSAII (Michael W. Deem and Ramdas Pophale) SiO2 
 PCOD9544503
Probable space group: P 4/N
;
_chemical_formula_sum "Si O2"
_cell_formula_units_Z 40
_cell_length_a 17.020893
_cell_length_b 17.020893
_cell_length_c 6.552634
_cell_angle_alpha 90.000000
_cell_angle_beta 90.000000
_cell_angle_gamma 90.000000
_cell_volume 1898.368829
_symmetry_space_group_name_H-M "P 4/N"
_symmetry_group_IT_number 85
_symmetry_cell_setting 'tetragonal'
loop_
_space_group_symop_operation_xyz
x,y,z
1/2-y,x,z
1/2-x,1/2-y,z
y,1/2-x,z
-x,-y,-z
1/2+y,-x,-z
1/2+x,1/2+y,-z
-y,1/2+x,-z
loop_
_atom_site_type_symbol
_atom_site_label
_atom_site_fract_x
_atom_site_fract_y
_atom_site_fract_z
Si Si1 0.588354 0.931135 0.978501
Si Si2 0.925096 0.144221 0.787013
Si Si3 0.700786 0.869307 0.276073
Si Si4 0.498853 0.664536 0.606884
Si Si5 0.793464 0.039199 0.945234
O O1 0.597358 0.969416 0.757137
O O2 0.527229 0.859695 0.991698
O O3 0.673333 0.896431 0.051205
O O4 0.584421 0.006199 0.130606
O O5 0.844974 0.114913 0.886670
O O6 0.926885 0.142844 0.541883
O O7 0.944947 0.231449 0.872694
O O8 0.651695 0.790513 0.304062
O O9 0.680584 0.932895 0.444624
O O10 0.481759 0.739174 0.750087
#
# Coordination Sequence:
#
# PCOD9544503 Si02
#       5
#     8   8   8   8   8
#     4  10  20  37  60  87 117 154 197 247 302 358
#     4  10  24  41  62  90 118 159 203 250 304 358
#     4  10  19  32  53  85 124 160 194 236 293 359
#     4  10  21  36  58  89 118 153 196 243 301 354
#     4  11  23  42  63  87 123 159 205 253 300 360
#
# _framework density 21.070720000000001
#
# number of rings (size 3 to 8) (size 9 to 14) (size 15 to 20)
#    0.000    1.800    0.000    5.400    0.000    6.000 
#    0.000    2.000    0.000    0.000    0.000    0.000 
#    0.000    0.000    0.000    0.000    0.000    0.000 
#
# Total GULP energy -223042.837820 kJ/mol
# GULP energy per Si atom -5576.070946 kJ/mol
# Density = 2.102276 g / cm^3
# Si number density = 21.070720 Si / 1000 Ang^3
#
#
#
# Elastic Constant Matrix: (Units=GPa)
#
#
# Indices 1 2 3 4 5 6 
#
# 1 77.1283 31.9311 15.3944 0.0000 0.0000 5.0610
# 2 31.9311 77.1283 15.3944 0.0000 0.0000 -5.0610
# 3 15.3944 15.3944 98.5410 0.0000 0.0000 0.0000
# 4 0.0000 0.0000 0.0000 22.7246 0.0000 0.0000
# 5 0.0000 0.0000 0.0000 0.0000 22.7246 0.0000
# 6 5.0610 -5.0610 0.0000 0.0000 0.0000 42.8846
#
#
#
# Elastic Compliance Matrix: (Units=1/GPa)
#
#
# Indices 1 2 3 4 5 6 
#
# 1 0.016159 -0.006567 -0.001499 0.000000 0.000000 -0.002682
# 2 -0.006567 0.016159 -0.001499 0.000000 0.000000 0.002682
# 3 -0.001499 -0.001499 0.010616 0.000000 0.000000 0.000000
# 4 0.000000 0.000000 0.000000 0.044005 0.000000 0.000000
# 5 0.000000 0.000000 0.000000 0.000000 0.044005 0.000000
# 6 -0.002682 0.002682 0.000000 0.000000 0.000000 0.023951
#
#
# Mechanical properties :
#
#
# Convention : Reuss Voigt Hill
#
# Bulk Modulus (GPa) = 42.00478 42.02638 42.01558
# Shear Modulus (GPa) = 27.47860 30.33858 28.90859
#
# Velocity S-wave (km/s) = 3.61517 3.79865 3.70804
# Velocity P-wave (km/s) = 6.11591 6.26325 6.19002
#
# Compressibility (1/GPa) = 0.02380681
#
# Stress axis : x y z
#
# Youngs Moduli (GPa) = 61.88453 61.88453 94.19497
#
# Poissons Ratio (x) = 0.40638 0.14116
# Poissons Ratio (y) = 0.40638 0.14116
# Poissons Ratio (z) = 0.09274 0.09274
#
# Static dielectric constant tensor:
#      x y z
#    x 1.808330 0.000000 0.000000 
#    y 0.000000 1.808330 0.000000 
#    z 0.000000 0.000000 1.757660 
# 
# From -- ./inp_files/329.got.cif
#   From: 2010.05.17/outbox.cif.g08.bks.cpg/sg85_cif.got.tgz:329.got - 2010.06.03 19:01:16.
