data_PCOD9544059
_publ_section_title
;
Structure prediction by ZEFSAII (Michael W. Deem and Ramdas Pophale) SiO2 
 PCOD9544059
Probable space group: P 42/M
;
_chemical_formula_sum "Si O2"
_cell_formula_units_Z 48
_cell_length_a 17.324701
_cell_length_b 17.324701
_cell_length_c 8.775067
_cell_angle_alpha 90.000000
_cell_angle_beta 90.000000
_cell_angle_gamma 90.000000
_cell_volume 2633.794808
_symmetry_space_group_name_H-M "P 42/M"
_symmetry_group_IT_number 84
_symmetry_cell_setting 'tetragonal'
loop_
_space_group_symop_operation_xyz
x,y,z
-y,x,1/2+z
-x,-y,z
y,-x,1/2+z
-x,-y,-z
y,-x,1/2-z
x,y,-z
-y,x,1/2-z
loop_
_atom_site_type_symbol
_atom_site_label
_atom_site_fract_x
_atom_site_fract_y
_atom_site_fract_z
Si Si1 0.382007 0.001598 0.176628
Si Si2 0.200747 0.009637 0.170174
Si Si3 0.152190 0.835614 0.171968
Si Si4 0.831611 0.430449 0.685169
Si Si5 0.260494 0.719209 0.678658
Si Si6 0.175548 0.395033 0.316645
O O1 0.292011 0.022798 0.177416
O O2 0.422318 0.078933 0.241389
O O3 0.386918 0.914041 0.239770
O O4 0.408194 0.994463 0.000000
O O5 0.160628 0.061838 0.295006
O O6 0.187700 0.919473 0.190338
O O7 0.173016 0.030264 0.000000
O O8 0.190152 0.777772 0.290692
O O9 0.168005 0.808456 0.000000
O O10 0.836677 0.422386 0.500000
O O11 0.773159 0.363007 0.737571
O O12 0.802628 0.516513 0.717795
O O13 0.276228 0.710848 0.500000
O O14 0.333475 0.763133 0.753106
O O15 0.173177 0.383897 0.500000
#
# Coordination Sequence:
#
# PCOD9544059 Si02
#       6
#     8   8   8   8   8   8
#     4   9  15  29  53  80 106 134 171 218 268 314
#     4  10  20  35  53  74 104 140 184 229 268 313
#     4  11  22  36  54  77 104 143 189 226 265 314
#     4   9  18  32  55  82 106 138 177 218 262 319
#     4  11  21  35  55  80 111 144 175 213 270 325
#     4  10  19  34  57  83 107 136 180 221 261 317
#
# _framework density 18.224656
#
# number of rings (size 3 to 8) (size 9 to 14) (size 15 to 20)
#    0.000    2.000    3.333    1.500    0.000    3.667 
#    0.000    3.333    0.000    1.500    0.000    3.500 
#    0.000    0.000    0.000    0.000    0.000    0.000 
#
# Total GULP energy -267397.911814 kJ/mol
# GULP energy per Si atom -5570.789829 kJ/mol
# Density = 1.818318 g / cm^3
# Si number density = 18.224656 Si / 1000 Ang^3
#
#
#
# Elastic Constant Matrix: (Units=GPa)
#
#
# Indices 1 2 3 4 5 6 
#
# 1 73.8718 73.2560 22.7638 0.0000 0.0000 -24.8391
# 2 73.2560 73.8718 22.7638 0.0000 0.0000 24.8391
# 3 22.7638 22.7638 8.7022 0.0000 0.0000 0.0000
# 4 0.0000 0.0000 0.0000 16.4831 0.0000 0.0000
# 5 0.0000 0.0000 0.0000 0.0000 16.4831 0.0000
# 6 -24.8391 24.8391 0.0000 0.0000 0.0000 -13.0761
#
#
#
# Elastic Compliance Matrix: (Units=1/GPa)
#
#
# Indices 1 2 3 4 5 6 
#
# 1 0.023099 0.012571 -0.093309 0.000000 0.000000 -0.019999
# 2 0.012571 0.023099 -0.093309 0.000000 0.000000 0.019999
# 3 -0.093309 -0.093309 0.603081 0.000000 0.000000 0.000000
# 4 0.000000 0.000000 0.000000 0.060668 0.000000 0.000000
# 5 0.000000 0.000000 0.000000 0.000000 0.060668 0.000000
# 6 -0.019999 0.019999 0.000000 0.000000 0.000000 -0.000496
#
#
# Mechanical properties :
#
#
# Convention : Reuss Voigt Hill
#
# Bulk Modulus (GPa) = 3.32022 43.77923 23.54972
# Shear Modulus (GPa) = 4.10304 6.48885 5.29594
#
# Velocity S-wave (km/s) = 1.50208 1.88897 1.70653
# Velocity P-wave (km/s) = 2.19866 5.36952 4.10280
#
# Compressibility (1/GPa) = 0.30118461
#
# Stress axis : x y z
#
# Youngs Moduli (GPa) = 43.29109 43.29109 1.65815
#
# Poissons Ratio (x) = -0.54422 0.15472
# Poissons Ratio (y) = -0.54422 0.15472
# Poissons Ratio (z) = 4.03946 4.03946
#
# Static dielectric constant tensor:
#      x y z
#    x 1.643360 0.000000 0.000000 
#    y 0.000000 1.643360 0.000000 
#    z 0.000000 0.000000 1.642730 
# 
# From -- ./inp_files/1004.got.cif
#   From: 2010.05.17/outbox.cif.g08.bks.cpg/sg84_1_cif.got.tgz:1004.got - 2010.06.03 18:57:40.
