data_PCOD9544466
_publ_section_title
;
Structure prediction by ZEFSAII (Michael W. Deem and Ramdas Pophale) SiO2 
 PCOD9544466
Probable space group: P 42/M
;
_chemical_formula_sum "Si O2"
_cell_formula_units_Z 32
_cell_length_a 6.874383
_cell_length_b 6.874383
_cell_length_c 22.797061
_cell_angle_alpha 90.000000
_cell_angle_beta 90.000000
_cell_angle_gamma 90.000000
_cell_volume 1077.323940
_symmetry_space_group_name_H-M "P 42/M"
_symmetry_group_IT_number 84
_symmetry_cell_setting 'tetragonal'
loop_
_space_group_symop_operation_xyz
x,y,z
-y,x,1/2+z
-x,-y,z
y,-x,1/2+z
-x,-y,-z
y,-x,1/2-z
x,y,-z
-y,x,1/2-z
loop_
_atom_site_type_symbol
_atom_site_label
_atom_site_fract_x
_atom_site_fract_y
_atom_site_fract_z
Si Si1 0.834186 0.753782 0.371479
Si Si2 0.317670 0.766555 0.745066
Si Si3 0.835844 0.795736 0.500000
Si Si4 0.669765 0.732431 0.000000
Si Si5 0.710550 0.331415 0.377309
O O1 0.848882 0.800924 0.300739
O O2 0.781981 0.862680 0.432765
O O3 0.692025 0.565542 0.368191
O O4 0.056154 0.693247 0.383514
O O5 0.546314 0.763909 0.760100
O O6 0.331797 0.814016 0.675944
O O7 0.782267 0.561684 0.500000
O O8 0.070654 0.794006 0.500000
O O9 0.714434 0.624026 0.059634
#
# Coordination Sequence:
#
# PCOD9544466 Si02
#       5
#     8   8   4   4   8
#     4   8  13  22  36  52  71  97 125 149 176 213
#     4   9  16  24  34  53  80 100 114 143 186 220
#     4   7  10  18  33  51  68  89 122 156 176 199
#     4   7  10  18  33  51  68  89 122 156 176 199
#     4   8  13  22  36  52  71  97 125 149 176 213
#
# _framework density 29.703226999999998
#
# number of rings (size 3 to 8) (size 9 to 14) (size 15 to 20)
#    0.000    4.000    0.000    3.000    0.000    0.000 
#    0.000    1.250    0.000    8.250    0.000    1.750 
#    0.000   14.000    0.000    0.000    0.000    0.000 
#
# Total GULP energy -178197.067954 kJ/mol
# GULP energy per Si atom -5568.658374 kJ/mol
# Density = 2.963562 g / cm^3
# Si number density = 29.703227 Si / 1000 Ang^3
#
#
#
# Elastic Constant Matrix: (Units=GPa)
#
#
# Indices 1 2 3 4 5 6 
#
# 1 76.8008 -11.7900 13.0187 0.0000 0.0000 8.3608
# 2 -11.7900 76.8008 13.0187 0.0000 0.0000 -8.3608
# 3 13.0187 13.0187 419.7700 0.0000 0.0000 0.0000
# 4 0.0000 0.0000 0.0000 28.3122 0.0000 0.0000
# 5 0.0000 0.0000 0.0000 0.0000 28.3122 0.0000
# 6 8.3608 -8.3608 0.0000 0.0000 0.0000 16.8989
#
#
#
# Elastic Compliance Matrix: (Units=1/GPa)
#
#
# Indices 1 2 3 4 5 6 
#
# 1 0.014013 0.001562 -0.000483 0.000000 0.000000 -0.006160
# 2 0.001562 0.014013 -0.000483 0.000000 0.000000 0.006160
# 3 -0.000483 -0.000483 0.002412 0.000000 0.000000 0.000000
# 4 0.000000 0.000000 0.000000 0.035320 0.000000 0.000000
# 5 0.000000 0.000000 0.000000 0.000000 0.035320 0.000000
# 6 -0.006160 0.006160 0.000000 0.000000 0.000000 0.065271
#
#
# Mechanical properties :
#
#
# Convention : Reuss Voigt Hill
#
# Bulk Modulus (GPa) = 31.61451 66.87406 49.24428
# Shear Modulus (GPa) = 28.45748 51.97962 40.21855
#
# Velocity S-wave (km/s) = 3.09861 4.18780 3.68368
# Velocity P-wave (km/s) = 4.84442 6.77838 5.89130
#
# Compressibility (1/GPa) = 0.03163105
#
# Stress axis : x y z
#
# Youngs Moduli (GPa) = 71.36214 71.36214 414.55591
#
# Poissons Ratio (x) = -0.11150 0.20025
# Poissons Ratio (y) = -0.11150 0.20025
# Poissons Ratio (z) = 0.03447 0.03447
#
# Static dielectric constant tensor:
#      x y z
#    x 2.321410 0.000000 0.000000 
#    y 0.000000 2.321410 0.000000 
#    z 0.000000 0.000000 2.486240 
# 
# From -- ./inp_files/2761.got.cif
#   From: 2010.05.17/outbox.cif.g08.bks.cpg/sg84_2_cif.got.tgz:2761.got - 2010.06.03 18:57:40.
