data_PCOD9544413
_publ_section_title
;
Structure prediction by ZEFSAII (Michael W. Deem and Ramdas Pophale) SiO2 
 PCOD9544413
Probable space group: P 42/M
;
_chemical_formula_sum "Si O2"
_cell_formula_units_Z 48
_cell_length_a 8.957045
_cell_length_b 8.957045
_cell_length_c 29.836210
_cell_angle_alpha 90.000000
_cell_angle_beta 90.000000
_cell_angle_gamma 90.000000
_cell_volume 2393.719003
_symmetry_space_group_name_H-M "P 42/M"
_symmetry_group_IT_number 84
_symmetry_cell_setting 'tetragonal'
loop_
_space_group_symop_operation_xyz
x,y,z
-y,x,1/2+z
-x,-y,z
y,-x,1/2+z
-x,-y,-z
y,-x,1/2-z
x,y,-z
-y,x,1/2-z
loop_
_atom_site_type_symbol
_atom_site_label
_atom_site_fract_x
_atom_site_fract_y
_atom_site_fract_z
Si Si1 0.217912 0.046625 0.769856
Si Si2 0.930394 0.836234 0.550025
Si Si3 0.429601 0.337236 0.361981
Si Si4 0.731510 0.448975 0.764994
Si Si5 0.163357 0.570734 0.049658
Si Si6 0.663025 0.070097 0.861236
O O1 0.371220 0.125576 0.756036
O O2 0.086316 0.167981 0.763372
O O3 0.235425 0.983166 0.819683
O O4 0.970928 0.780271 0.500000
O O5 0.750493 0.849190 0.551626
O O6 0.978023 0.733126 0.591234
O O7 0.000000 0.000000 0.555151
O O8 0.500000 0.500000 0.357873
O O9 0.479046 0.248534 0.317548
O O10 0.477969 0.262779 0.408489
O O11 0.249779 0.345515 0.361283
O O12 0.595252 0.329494 0.759863
O O13 0.000000 0.500000 0.053555
O O14 0.223316 0.531354 0.000000
O O15 0.500000 0.000000 0.856057
#
# Coordination Sequence:
#
# PCOD9544413 Si02
#       6
#     8   8   8   8   8   8
#     4  11  25  41  60  88 122 163 205 260 311 367
#     4   9  20  39  65  91 124 163 201 255 317 375
#     4  11  22  41  61  88 122 160 206 249 312 372
#     4  11  22  41  62  86 123 166 203 253 307 374
#     4   9  20  40  62  90 124 157 202 255 308 372
#     4  11  24  41  62  90 124 163 208 260 310 372
#
# _framework density 20.052477
#
# number of rings (size 3 to 8) (size 9 to 14) (size 15 to 20)
#    0.000    1.667    3.333    1.000    2.333    2.000 
#    3.000    0.000    0.000    0.000    0.000    0.000 
#    0.000    0.000    0.000    0.000    0.000    0.000 
#
# Total GULP energy -268189.513141 kJ/mol
# GULP energy per Si atom -5587.281524 kJ/mol
# Density = 2.000684 g / cm^3
# Si number density = 20.052477 Si / 1000 Ang^3
#
#
#
# Elastic Constant Matrix: (Units=GPa)
#
#
# Indices 1 2 3 4 5 6 
#
# 1 41.0233 30.2764 43.4528 0.0000 0.0000 -3.0412
# 2 30.2764 41.0233 43.4528 0.0000 0.0000 3.0412
# 3 43.4528 43.4528 176.9503 0.0000 0.0000 0.0000
# 4 0.0000 0.0000 0.0000 22.7187 0.0000 0.0000
# 5 0.0000 0.0000 0.0000 0.0000 22.7187 0.0000
# 6 -3.0412 3.0412 0.0000 0.0000 0.0000 40.8336
#
#
#
# Elastic Compliance Matrix: (Units=1/GPa)
#
#
# Indices 1 2 3 4 5 6 
#
# 1 0.058580 -0.038564 -0.004915 0.000000 0.000000 0.007235
# 2 -0.038564 0.058580 -0.004915 0.000000 0.000000 -0.007235
# 3 -0.004915 -0.004915 0.008065 0.000000 0.000000 0.000000
# 4 0.000000 0.000000 0.000000 0.044017 0.000000 0.000000
# 5 0.000000 0.000000 0.000000 0.000000 0.044017 0.000000
# 6 0.007235 -0.007235 0.000000 0.000000 0.000000 0.025567
#
#
# Mechanical properties :
#
#
# Convention : Reuss Voigt Hill
#
# Bulk Modulus (GPa) = 35.16545 54.81789 44.99167
# Shear Modulus (GPa) = 14.48878 26.70852 20.59865
#
# Velocity S-wave (km/s) = 2.69093 3.65352 3.20853
# Velocity P-wave (km/s) = 5.21820 6.72266 6.01763
#
# Compressibility (1/GPa) = 0.02843700
#
# Stress axis : x y z
#
# Youngs Moduli (GPa) = 17.07059 17.07059 123.98663
#
# Poissons Ratio (x) = 0.65831 0.60944
# Poissons Ratio (y) = 0.65831 0.60944
# Poissons Ratio (z) = 0.08391 0.08391
#
# Static dielectric constant tensor:
#      x y z
#    x 1.701240 0.000000 0.000000 
#    y 0.000000 1.701240 0.000000 
#    z 0.000000 0.000000 1.718900 
# 
# From -- ./inp_files/5810.got.cif
#   From: 2010.05.17/outbox.cif.g08.bks.cpg/sg84_3_cif.got.tgz:5810.got - 2010.06.03 18:57:40.
