data_PCOD9544350
_publ_section_title
;
Structure prediction by ZEFSAII (Michael W. Deem and Ramdas Pophale) SiO2 
 PCOD9544350
Probable space group: P 42/M
;
_chemical_formula_sum "Si O2"
_cell_formula_units_Z 40
_cell_length_a 14.124671
_cell_length_b 14.124671
_cell_length_c 9.586284
_cell_angle_alpha 90.000000
_cell_angle_beta 90.000000
_cell_angle_gamma 90.000000
_cell_volume 1912.524347
_symmetry_space_group_name_H-M "P 42/M"
_symmetry_group_IT_number 84
_symmetry_cell_setting 'tetragonal'
loop_
_space_group_symop_operation_xyz
x,y,z
-y,x,1/2+z
-x,-y,z
y,-x,1/2+z
-x,-y,-z
y,-x,1/2-z
x,y,-z
-y,x,1/2-z
loop_
_atom_site_type_symbol
_atom_site_label
_atom_site_fract_x
_atom_site_fract_y
_atom_site_fract_z
Si Si1 0.844334 0.247224 0.733147
Si Si2 0.637115 0.530374 0.671982
Si Si3 0.003475 0.610741 0.165477
Si Si4 0.861577 0.900028 0.500000
Si Si5 0.636643 0.215351 0.337126
Si Si6 0.912695 0.108567 0.500000
O O1 0.737791 0.265809 0.685273
O O2 0.888059 0.172287 0.629117
O O3 0.914505 0.335306 0.751897
O O4 0.848157 0.187749 0.873796
O O5 0.605594 0.435408 0.754825
O O6 0.629026 0.525440 0.500000
O O7 0.739247 0.563589 0.727691
O O8 0.897101 0.649503 0.187054
O O9 0.000000 0.500000 0.199756
O O10 0.025618 0.619181 0.000000
O O11 0.974602 0.901272 0.500000
O O12 0.848361 0.014137 0.500000
O O13 0.606507 0.227299 0.500000
#
# Coordination Sequence:
#
# PCOD9544350 Si02
#       6
#     8   8   8   4   8   4
#     4  12  23  40  64  91 131 176 227 279 344 411
#     4  11  24  45  74 105 138 174 225 285 346 413
#     4  10  23  44  68  96 132 178 230 284 344 418
#     4  11  22  36  63  90 126 165 229 274 334 414
#     4  11  24  43  68  98 140 182 227 288 348 410
#     4  11  22  38  59  92 128 169 211 286 342 392
#
# _framework density 20.914767999999999
#
# number of rings (size 3 to 8) (size 9 to 14) (size 15 to 20)
#    0.000    1.000    2.000    6.000    4.200    1.600 
#    1.800    0.500    0.000    0.000    0.000    0.000 
#    0.000    0.000    0.000    0.000    0.000    0.000 
#
# Total GULP energy -223235.333205 kJ/mol
# GULP energy per Si atom -5580.883330 kJ/mol
# Density = 2.086716 g / cm^3
# Si number density = 20.914768 Si / 1000 Ang^3
#
#
#
# Elastic Constant Matrix: (Units=GPa)
#
#
# Indices 1 2 3 4 5 6 
#
# 1 66.3909 4.7381 12.1811 0.0000 0.0000 4.6587
# 2 4.7381 66.3909 12.1811 0.0000 0.0000 -4.6587
# 3 12.1811 12.1811 138.1109 0.0000 0.0000 0.0000
# 4 0.0000 0.0000 0.0000 41.0894 0.0000 0.0000
# 5 0.0000 0.0000 0.0000 0.0000 41.0894 0.0000
# 6 4.6587 -4.6587 0.0000 0.0000 0.0000 32.7310
#
#
#
# Elastic Compliance Matrix: (Units=1/GPa)
#
#
# Indices 1 2 3 4 5 6 
#
# 1 0.015537 -0.001040 -0.001279 0.000000 0.000000 -0.002359
# 2 -0.001040 0.015537 -0.001279 0.000000 0.000000 0.002359
# 3 -0.001279 -0.001279 0.007466 0.000000 0.000000 0.000000
# 4 0.000000 0.000000 0.000000 0.024337 0.000000 0.000000
# 5 0.000000 0.000000 0.000000 0.000000 0.024337 0.000000
# 6 -0.002359 0.002359 0.000000 0.000000 0.000000 0.031224
#
#
# Mechanical properties :
#
#
# Convention : Reuss Voigt Hill
#
# Bulk Modulus (GPa) = 31.90249 36.56591 34.23420
# Shear Modulus (GPa) = 36.74311 39.10145 37.92228
#
# Velocity S-wave (km/s) = 4.19597 4.32853 4.26277
# Velocity P-wave (km/s) = 6.22588 6.51942 6.37434
#
# Compressibility (1/GPa) = 0.03134551
#
# Stress axis : x y z
#
# Youngs Moduli (GPa) = 64.36385 64.36385 133.93879
#
# Poissons Ratio (x) = 0.06692 0.17125
# Poissons Ratio (y) = 0.06692 0.17125
# Poissons Ratio (z) = 0.08230 0.08230
#
# Static dielectric constant tensor:
#      x y z
#    x 1.790760 0.000000 0.000000 
#    y 0.000000 1.790760 0.000000 
#    z 0.000000 0.000000 1.691690 
# 
# From -- ./inp_files/843.got.cif
#   From: 2010.05.17/outbox.cif.g08.bks.cpg/sg84_1_cif.got.tgz:843.got - 2010.06.03 18:57:40.
