data_PCOD9544616
_publ_section_title
;
Structure prediction by ZEFSAII (Michael W. Deem and Ramdas Pophale) SiO2 
 PCOD9544616
Probable space group: P 4/N
;
_chemical_formula_sum "Si O2"
_cell_formula_units_Z 26
_cell_length_a 10.322194
_cell_length_b 10.322194
_cell_length_c 10.601104
_cell_angle_alpha 90.000000
_cell_angle_beta 90.000000
_cell_angle_gamma 90.000000
_cell_volume 1129.523132
_symmetry_space_group_name_H-M "P 4/N"
_symmetry_group_IT_number 85
_symmetry_cell_setting 'tetragonal'
loop_
_space_group_symop_operation_xyz
x,y,z
1/2-y,x,z
1/2-x,1/2-y,z
y,1/2-x,z
-x,-y,-z
1/2+y,-x,-z
1/2+x,1/2+y,-z
-y,1/2+x,-z
loop_
_atom_site_type_symbol
_atom_site_label
_atom_site_fract_x
_atom_site_fract_y
_atom_site_fract_z
Si Si1 0.604996 0.105241 0.952825
Si Si2 0.430703 0.026485 0.294002
Si Si3 0.658794 0.946340 0.424428
Si Si4 0.750000 0.750000 0.777187
O O1 0.600552 0.087564 0.802442
O O2 0.573825 0.251576 0.994831
O O3 0.500000 0.000000 0.000000
O O4 0.365315 0.010935 0.431642
O O5 0.379720 0.159292 0.234563
O O6 0.583961 0.035029 0.325568
O O7 0.584981 0.808387 0.409248
#
# Coordination Sequence:
#
# PCOD9544616 Si02
#       4
#     8   8   8   2
#     4  11  27  48  72 108 147 197 257 311 375 456
#     4  11  22  40  72  96 143 191 238 300 378 447
#     4  10  21  41  69 107 144 184 240 311 382 456
#     4  12  20  44  68 100 142 192 244 312 376 458
#
# _framework density 23.018564000000001
#
# number of rings (size 3 to 8) (size 9 to 14) (size 15 to 20)
#    0.000    1.231    3.077    1.846    4.308    0.615 
#    0.000    0.000    0.000    0.000    0.000    0.000 
#    0.000    0.000    0.000    0.000    0.000    0.000 
#
# Total GULP energy -144853.890125 kJ/mol
# GULP energy per Si atom -5571.303466 kJ/mol
# Density = 2.296617 g / cm^3
# Si number density = 23.018564 Si / 1000 Ang^3
#
#
#
# Elastic Constant Matrix: (Units=GPa)
#
#
# Indices 1 2 3 4 5 6 
#
# 1 141.2579 58.2287 52.6735 0.0000 0.0000 -25.0721
# 2 58.2287 141.2579 52.6735 0.0000 0.0000 25.0721
# 3 52.6735 52.6735 100.6859 0.0000 0.0000 0.0000
# 4 0.0000 0.0000 0.0000 30.2120 0.0000 0.0000
# 5 0.0000 0.0000 0.0000 0.0000 30.2120 0.0000
# 6 -25.0721 25.0721 0.0000 0.0000 0.0000 127.7566
#
#
#
# Elastic Compliance Matrix: (Units=1/GPa)
#
#
# Indices 1 2 3 4 5 6 
#
# 1 0.010295 -0.003368 -0.003624 0.000000 0.000000 0.002681
# 2 -0.003368 0.010295 -0.003624 0.000000 0.000000 -0.002681
# 3 -0.003624 -0.003624 0.013723 0.000000 0.000000 0.000000
# 4 0.000000 0.000000 0.000000 0.033099 0.000000 0.000000
# 5 0.000000 0.000000 0.000000 0.000000 0.033099 0.000000
# 6 0.002681 -0.002681 0.000000 0.000000 0.000000 0.008880
#
#
# Mechanical properties :
#
#
# Convention : Reuss Voigt Hill
#
# Bulk Modulus (GPa) = 76.44171 78.92812 77.68492
# Shear Modulus (GPa) = 37.04159 52.27784 44.65971
#
# Velocity S-wave (km/s) = 4.01584 4.77079 4.40950
# Velocity P-wave (km/s) = 7.40159 8.04429 7.72962
#
# Compressibility (1/GPa) = 0.01308186
#
# Stress axis : x y z
#
# Youngs Moduli (GPa) = 97.13564 97.13564 72.86949
#
# Poissons Ratio (x) = 0.32720 0.26405
# Poissons Ratio (y) = 0.32720 0.26405
# Poissons Ratio (z) = 0.35197 0.35197
#
# Static dielectric constant tensor:
#      x y z
#    x 1.893220 0.000000 0.000000 
#    y 0.000000 1.893220 0.000000 
#    z 0.000000 0.000000 1.904370 
# 
# From -- ./inp_files/696.got.cif
#   From: 2010.05.17/outbox.cif.g08.bks.cpg/sg85_cif.got.tgz:696.got - 2010.06.03 19:01:16.
