data_PCOD9544732
_publ_section_title
;
Structure prediction by ZEFSAII (Michael W. Deem and Ramdas Pophale) SiO2 
 PCOD9544732
Probable space group: P 4/N
;
_chemical_formula_sum "Si O2"
_cell_formula_units_Z 58
_cell_length_a 18.084087
_cell_length_b 18.084087
_cell_length_c 7.923161
_cell_angle_alpha 90.000000
_cell_angle_beta 90.000000
_cell_angle_gamma 90.000000
_cell_volume 2591.144640
_symmetry_space_group_name_H-M "P 4/N"
_symmetry_group_IT_number 85
_symmetry_cell_setting 'tetragonal'
loop_
_space_group_symop_operation_xyz
x,y,z
1/2-y,x,z
1/2-x,1/2-y,z
y,1/2-x,z
-x,-y,-z
1/2+y,-x,-z
1/2+x,1/2+y,-z
-y,1/2+x,-z
loop_
_atom_site_type_symbol
_atom_site_label
_atom_site_fract_x
_atom_site_fract_y
_atom_site_fract_z
Si Si1 0.205920 0.640723 0.551790
Si Si2 0.450169 0.571466 0.030882
Si Si3 0.013190 0.778439 0.198980
Si Si4 0.001913 0.692033 0.860784
Si Si5 0.274726 0.136194 0.614557
Si Si6 0.750000 0.750000 0.927084
Si Si7 0.538977 0.345946 0.281432
Si Si8 0.654632 0.864740 0.751842
O O1 0.162223 0.718441 0.548816
O O2 0.228445 0.595446 0.720770
O O3 0.154066 0.581037 0.456687
O O4 0.491718 0.641109 0.111082
O O5 0.500000 0.500000 0.000000
O O6 0.381614 0.549546 0.145262
O O7 0.421595 0.600893 0.851054
O O8 0.994476 0.717799 0.056078
O O9 0.948881 0.778124 0.338535
O O10 0.924892 0.674235 0.768422
O O11 0.041232 0.761263 0.777060
O O12 0.333522 0.196208 0.682742
O O13 0.295782 0.147116 0.416744
O O14 0.704207 0.829613 0.900606
O O15 0.451910 0.363277 0.261097
#
# Coordination Sequence:
#
# PCOD9544732 Si02
#       8
#     8   8   8   8   8   2   8   8
#     4  11  24  46  72  99 129 172 232 292 350 412
#     4  11  24  43  62  95 138 173 226 279 337 412
#     4  11  26  43  68 103 138 175 229 293 346 399
#     4  11  24  41  66  93 133 178 227 273 342 417
#     4  11  22  41  63  97 141 178 220 276 334 412
#     4  12  20  36  64  94 120 172 236 250 312 424
#     4  11  22  41  68  93 130 177 216 276 346 408
#     4  12  20  38  65  94 130 180 222 269 331 420
#
# _framework density 22.383929999999999
#
# number of rings (size 3 to 8) (size 9 to 14) (size 15 to 20)
#    0.000    0.828    5.517    1.655    1.931    0.000 
#    0.000    1.379    0.000    6.621    0.000    0.000 
#    0.000    0.000    0.000    0.000    0.000    0.000 
#
# Total GULP energy -322967.530680 kJ/mol
# GULP energy per Si atom -5568.405701 kJ/mol
# Density = 2.233298 g / cm^3
# Si number density = 22.383930 Si / 1000 Ang^3
#
#
#
# Elastic Constant Matrix: (Units=GPa)
#
#
# Indices 1 2 3 4 5 6 
#
# 1 83.4091 35.4727 10.3256 0.0000 0.0000 -31.0917
# 2 35.4727 83.4091 10.3256 0.0000 0.0000 31.0917
# 3 10.3256 10.3256 55.3112 0.0000 0.0000 0.0000
# 4 0.0000 0.0000 0.0000 22.1494 0.0000 0.0000
# 5 0.0000 0.0000 0.0000 0.0000 22.1494 0.0000
# 6 -31.0917 31.0917 0.0000 0.0000 0.0000 -20.0272
#
#
#
# Elastic Compliance Matrix: (Units=1/GPa)
#
#
# Indices 1 2 3 4 5 6 
#
# 1 0.007808 0.000886 -0.001623 0.000000 0.000000 -0.010746
# 2 0.000886 0.007808 -0.001623 0.000000 0.000000 0.010746
# 3 -0.001623 -0.001623 0.018685 0.000000 0.000000 0.000000
# 4 0.000000 0.000000 0.000000 0.045148 0.000000 0.000000
# 5 0.000000 0.000000 0.000000 0.000000 0.045148 0.000000
# 6 -0.010746 0.010746 0.000000 0.000000 0.000000 -0.016567
#
#
# Mechanical properties :
#
#
# Convention : Reuss Voigt Hill
#
# Bulk Modulus (GPa) = 33.80554 37.15304 35.47929
# Shear Modulus (GPa) = 40.77985 15.92133 28.35059
#
# Velocity S-wave (km/s) = 4.27293 2.66988 3.56274
# Velocity P-wave (km/s) = 6.28325 5.11258 5.72790
#
# Compressibility (1/GPa) = 0.02958095
#
# Stress axis : x y z
#
# Youngs Moduli (GPa) = 128.07957 128.07957 53.51750
#
# Poissons Ratio (x) = -0.11348 0.08686
# Poissons Ratio (y) = -0.11348 0.08686
# Poissons Ratio (z) = 0.20787 0.20787
#
# Static dielectric constant tensor:
#      x y z
#    x 1.847730 0.000000 0.000000 
#    y 0.000000 1.847730 0.000000 
#    z 0.000000 0.000000 1.951390 
# 
# From -- ./inp_files/1182.got.cif
#   From: 2010.05.17/outbox.cif.g08.bks.cpg/sg85_cif.got.tgz:1182.got - 2010.06.03 19:01:16.
