data_PCOD9544736
_publ_section_title
;
Structure prediction by ZEFSAII (Michael W. Deem and Ramdas Pophale) SiO2 
 PCOD9544736
Probable space group: P 4/N
;
_chemical_formula_sum "Si O2"
_cell_formula_units_Z 48
_cell_length_a 9.272217
_cell_length_b 9.272217
_cell_length_c 30.564933
_cell_angle_alpha 90.000000
_cell_angle_beta 90.000000
_cell_angle_gamma 90.000000
_cell_volume 2627.789797
_symmetry_space_group_name_H-M "P 4/N"
_symmetry_group_IT_number 85
_symmetry_cell_setting 'tetragonal'
loop_
_space_group_symop_operation_xyz
x,y,z
1/2-y,x,z
1/2-x,1/2-y,z
y,1/2-x,z
-x,-y,-z
1/2+y,-x,-z
1/2+x,1/2+y,-z
-y,1/2+x,-z
loop_
_atom_site_type_symbol
_atom_site_label
_atom_site_fract_x
_atom_site_fract_y
_atom_site_fract_z
Si Si1 0.900676 0.940381 0.892737
Si Si2 0.569603 0.912626 0.636915
Si Si3 0.419160 0.424530 0.460490
Si Si4 0.593901 0.937017 0.185577
Si Si5 0.433340 0.408279 0.715259
Si Si6 0.363246 0.859984 0.967318
O O1 0.726462 0.944741 0.893561
O O2 0.943697 0.033312 0.935487
O O3 0.967702 0.015273 0.850378
O O4 0.554509 0.739928 0.639595
O O5 0.522971 0.962163 0.588230
O O6 0.485769 0.983116 0.676675
O O7 0.246974 0.445771 0.463280
O O8 0.500000 0.500000 0.500000
O O9 0.554591 0.767526 0.180758
O O10 0.554089 0.980681 0.235275
O O11 0.264236 0.445459 0.711567
O O12 0.250000 0.750000 0.942986
O O13 0.443371 0.747019 0.000290
#
# Coordination Sequence:
#
# PCOD9544736 Si02
#       6
#     8   8   8   8   8   8
#     4  11  23  35  55  88 118 142 177 226 278 321
#     4   9  19  35  54  76 107 144 178 221 273 327
#     4   9  19  35  52  74 106 142 181 223 272 323
#     4   9  21  39  59  79 106 147 188 222 267 329
#     4   9  19  37  56  79 107 137 180 227 267 318
#     4   6  17  36  55  79 101 150 178 221 253 315
#
# _framework density 18.266300000000001
#
# number of rings (size 3 to 8) (size 9 to 14) (size 15 to 20)
#    1.000    2.167    0.000    2.000    2.333    4.333 
#    0.000   10.000    0.000    2.000    0.000    0.000 
#    0.000    0.000    0.000    0.000    0.000    0.000 
#
# Total GULP energy -267229.421212 kJ/mol
# GULP energy per Si atom -5567.279609 kJ/mol
# Density = 1.822473 g / cm^3
# Si number density = 18.266300 Si / 1000 Ang^3
#
#
#
# Elastic Constant Matrix: (Units=GPa)
#
#
# Indices 1 2 3 4 5 6 
#
# 1 33.7537 24.3984 55.2221 0.0000 0.0000 2.0002
# 2 24.3984 33.7537 55.2221 0.0000 0.0000 -2.0002
# 3 55.2221 55.2221 165.4646 0.0000 0.0000 0.0000
# 4 0.0000 0.0000 0.0000 38.9471 0.0000 0.0000
# 5 0.0000 0.0000 0.0000 0.0000 38.9471 0.0000
# 6 2.0002 -2.0002 0.0000 0.0000 0.0000 33.4218
#
#
#
# Elastic Compliance Matrix: (Units=1/GPa)
#
#
# Indices 1 2 3 4 5 6 
#
# 1 0.078331 -0.031367 -0.015674 0.000000 0.000000 -0.006565
# 2 -0.031367 0.078331 -0.015674 0.000000 0.000000 0.006565
# 3 -0.015674 -0.015674 0.016506 0.000000 0.000000 0.000000
# 4 0.000000 0.000000 0.000000 0.025676 0.000000 0.000000
# 5 0.000000 0.000000 0.000000 0.000000 0.025676 0.000000
# 6 -0.006565 0.006565 0.000000 0.000000 0.000000 0.030706
#
#
# Mechanical properties :
#
#
# Convention : Reuss Voigt Hill
#
# Bulk Modulus (GPa) = 20.94716 55.85079 38.39898
# Shear Modulus (GPa) = 12.60815 28.80519 20.70667
#
# Velocity S-wave (km/s) = 2.63009 3.97540 3.37055
# Velocity P-wave (km/s) = 4.55145 7.19124 6.01788
#
# Compressibility (1/GPa) = 0.04773917
#
# Stress axis : x y z
#
# Youngs Moduli (GPa) = 12.76627 12.76627 60.58531
#
# Poissons Ratio (x) = 0.40044 0.94961
# Poissons Ratio (y) = 0.40044 0.94961
# Poissons Ratio (z) = 0.20010 0.20010
#
# Static dielectric constant tensor:
#      x y z
#    x 1.637270 0.000000 0.000000 
#    y 0.000000 1.637270 0.000000 
#    z 0.000000 0.000000 1.631750 
# 
# From -- ./inp_files/2440.got.cif
#   From: 2010.05.17/outbox.cif.g08.bks.cpg/sg85_cif.got.tgz:2440.got - 2010.06.03 19:01:16.
