data_PCOD9544299
_publ_section_title
;
Structure prediction by ZEFSAII (Michael W. Deem and Ramdas Pophale) SiO2 
 PCOD9544299
Probable space group: P 42/M
;
_chemical_formula_sum "Si O2"
_cell_formula_units_Z 40
_cell_length_a 11.568918
_cell_length_b 11.568918
_cell_length_c 15.601462
_cell_angle_alpha 90.000000
_cell_angle_beta 90.000000
_cell_angle_gamma 90.000000
_cell_volume 2088.097547
_symmetry_space_group_name_H-M "P 42/M"
_symmetry_group_IT_number 84
_symmetry_cell_setting 'tetragonal'
loop_
_space_group_symop_operation_xyz
x,y,z
-y,x,1/2+z
-x,-y,z
y,-x,1/2+z
-x,-y,-z
y,-x,1/2-z
x,y,-z
-y,x,1/2-z
loop_
_atom_site_type_symbol
_atom_site_label
_atom_site_fract_x
_atom_site_fract_y
_atom_site_fract_z
Si Si1 0.868904 0.057378 0.159611
Si Si2 0.134990 0.283339 0.820798
Si Si3 0.891198 0.315026 0.902478
Si Si4 0.137607 0.519273 0.247054
Si Si5 0.867413 0.314799 0.403123
O O1 0.817709 0.092274 0.254427
O O2 0.867788 0.178804 0.110021
O O3 0.768965 0.974639 0.122486
O O4 0.000000 0.000000 0.153513
O O5 0.184374 0.390800 0.766854
O O6 0.228718 0.237879 0.886304
O O7 0.026019 0.323209 0.876723
O O8 0.829849 0.393789 0.830348
O O9 0.869736 0.350604 0.000000
O O10 0.153192 0.581959 0.337022
O O11 0.000000 0.500000 0.243733
O O12 0.879529 0.353633 0.500000
#
# Coordination Sequence:
#
# PCOD9544299 Si02
#       5
#     8   8   8   8   8
#     4  12  22  36  57  88 131 162 190 238 300 368
#     4  11  22  37  59  83 117 161 199 246 293 350
#     4  11  22  34  55  85 118 159 199 240 294 356
#     4  10  22  40  57  82 122 162 200 246 299 353
#     4  12  24  38  62  92 123 162 204 247 302 370
#
# _framework density 19.156192000000001
#
# number of rings (size 3 to 8) (size 9 to 14) (size 15 to 20)
#    0.000    0.800    8.000    1.200    2.800    5.600 
#    0.000    0.000    0.000    0.600    0.000    1.400 
#    0.000    0.000    0.000    0.000    0.000    0.000 
#
# Total GULP energy -222942.971989 kJ/mol
# GULP energy per Si atom -5573.574300 kJ/mol
# Density = 1.911259 g / cm^3
# Si number density = 19.156192 Si / 1000 Ang^3
#
#
#
# Elastic Constant Matrix: (Units=GPa)
#
#
# Indices 1 2 3 4 5 6 
#
# 1 63.9839 -2.5076 20.2550 0.0000 0.0000 -2.9283
# 2 -2.5076 63.9839 20.2550 0.0000 0.0000 2.9283
# 3 20.2550 20.2550 156.5651 0.0000 0.0000 0.0000
# 4 0.0000 0.0000 0.0000 12.7958 0.0000 0.0000
# 5 0.0000 0.0000 0.0000 0.0000 12.7958 0.0000
# 6 -2.9283 2.9283 0.0000 0.0000 0.0000 5.6593
#
#
#
# Elastic Compliance Matrix: (Units=1/GPa)
#
#
# Indices 1 2 3 4 5 6 
#
# 1 0.016770 0.001012 -0.002301 0.000000 0.000000 0.008154
# 2 0.001012 0.016770 -0.002301 0.000000 0.000000 -0.008154
# 3 -0.002301 -0.002301 0.006982 0.000000 0.000000 0.000000
# 4 0.000000 0.000000 0.000000 0.078151 0.000000 0.000000
# 5 0.000000 0.000000 0.000000 0.000000 0.078151 0.000000
# 6 0.008154 -0.008154 0.000000 0.000000 0.000000 0.185139
#
#
# Mechanical properties :
#
#
# Convention : Reuss Voigt Hill
#
# Bulk Modulus (GPa) = 29.98950 40.05975 35.02463
# Shear Modulus (GPa) = 12.49203 22.68553 17.58878
#
# Velocity S-wave (km/s) = 2.55642 3.44501 3.03343
# Velocity P-wave (km/s) = 4.93994 6.06479 5.53103
#
# Compressibility (1/GPa) = 0.03334501
#
# Stress axis : x y z
#
# Youngs Moduli (GPa) = 59.63011 59.63011 143.21796
#
# Poissons Ratio (x) = -0.06037 0.32948
# Poissons Ratio (y) = -0.06037 0.32948
# Poissons Ratio (z) = 0.13718 0.13718
#
# Static dielectric constant tensor:
#      x y z
#    x 1.719310 0.000000 0.000000 
#    y 0.000000 1.719310 0.000000 
#    z 0.000000 0.000000 1.700280 
# 
# From -- ./inp_files/2899.got.cif
#   From: 2010.05.17/outbox.cif.g08.bks.cpg/sg84_2_cif.got.tgz:2899.got - 2010.06.03 18:57:40.
