data_PCOD9544469
_publ_section_title
;
Structure prediction by ZEFSAII (Michael W. Deem and Ramdas Pophale) SiO2 
 PCOD9544469
Probable space group: P 42/M
;
_chemical_formula_sum "Si O2"
_cell_formula_units_Z 32
_cell_length_a 8.518243
_cell_length_b 8.518243
_cell_length_c 22.575674
_cell_angle_alpha 90.000000
_cell_angle_beta 90.000000
_cell_angle_gamma 90.000000
_cell_volume 1638.101376
_symmetry_space_group_name_H-M "P 42/M"
_symmetry_group_IT_number 84
_symmetry_cell_setting 'tetragonal'
loop_
_space_group_symop_operation_xyz
x,y,z
-y,x,1/2+z
-x,-y,z
y,-x,1/2+z
-x,-y,-z
y,-x,1/2-z
x,y,-z
-y,x,1/2-z
loop_
_atom_site_type_symbol
_atom_site_label
_atom_site_fract_x
_atom_site_fract_y
_atom_site_fract_z
Si Si1 0.410176 0.837201 0.759301
Si Si2 0.041875 0.183029 0.833867
Si Si3 0.599556 0.164817 0.432404
Si Si4 0.718597 0.377398 0.843082
O O1 0.243595 0.876037 0.726937
O O2 0.405392 0.749453 0.821657
O O3 0.501768 0.734280 0.711222
O O4 0.500000 0.000000 0.765232
O O5 0.143811 0.250746 0.889076
O O6 0.881568 0.281056 0.841732
O O7 0.000000 0.000000 0.835127
O O8 0.640480 0.199888 0.500000
O O9 0.479234 0.287492 0.402108
O O10 0.500000 0.000000 0.432055
#
# Coordination Sequence:
#
# PCOD9544469 Si02
#       4
#     8   8   8   8
#     4   9  19  31  46  74 108 136 170 216 268 333
#     4   9  18  27  46  78 104 135 170 219 277 312
#     4   8  15  31  49  70 104 140 182 222 259 314
#     4   9  18  31  47  71 102 141 173 211 271 318
#
# _framework density 19.53481
#
# number of rings (size 3 to 8) (size 9 to 14) (size 15 to 20)
#    0.000    3.250    0.000    3.000    7.000    1.000 
#    0.000    0.000    0.000    0.750    0.000   14.000 
#    0.000    0.000    0.000    1.000    0.000    2.000 
#
# Total GULP energy -178285.639360 kJ/mol
# GULP energy per Si atom -5571.426230 kJ/mol
# Density = 1.949035 g / cm^3
# Si number density = 19.534810 Si / 1000 Ang^3
#
#
#
# Elastic Constant Matrix: (Units=GPa)
#
#
# Indices 1 2 3 4 5 6 
#
# 1 70.4194 17.0251 42.8424 0.0000 0.0000 -4.8040
# 2 17.0251 70.4194 42.8424 0.0000 0.0000 4.8040
# 3 42.8424 42.8424 122.5117 0.0000 0.0000 0.0000
# 4 0.0000 0.0000 0.0000 15.3637 0.0000 0.0000
# 5 0.0000 0.0000 0.0000 0.0000 15.3637 0.0000
# 6 -4.8040 4.8040 0.0000 0.0000 0.0000 19.1797
#
#
#
# Elastic Compliance Matrix: (Units=1/GPa)
#
#
# Indices 1 2 3 4 5 6 
#
# 1 0.018505 -0.001108 -0.006084 0.000000 0.000000 0.004912
# 2 -0.001108 0.018505 -0.006084 0.000000 0.000000 -0.004912
# 3 -0.006084 -0.006084 0.012417 0.000000 0.000000 0.000000
# 4 0.000000 0.000000 0.000000 0.065088 0.000000 0.000000
# 5 0.000000 0.000000 0.000000 0.000000 0.065088 0.000000
# 6 0.004912 -0.004912 0.000000 0.000000 0.000000 0.054599
#
#
# Mechanical properties :
#
#
# Convention : Reuss Voigt Hill
#
# Bulk Modulus (GPa) = 43.71264 52.08559 47.89911
# Shear Modulus (GPa) = 18.63033 20.69081 19.66057
#
# Velocity S-wave (km/s) = 3.09155 3.25803 3.17588
# Velocity P-wave (km/s) = 5.93034 6.39327 6.16615
#
# Compressibility (1/GPa) = 0.02287668
#
# Stress axis : x y z
#
# Youngs Moduli (GPa) = 54.03983 54.03983 80.53152
#
# Poissons Ratio (x) = 0.05986 0.48994
# Poissons Ratio (y) = 0.05986 0.48994
# Poissons Ratio (z) = 0.32877 0.32877
#
# Static dielectric constant tensor:
#      x y z
#    x 1.740210 0.000000 0.000000 
#    y 0.000000 1.740210 0.000000 
#    z 0.000000 0.000000 1.675420 
# 
# From -- ./inp_files/4092.got.cif
#   From: 2010.05.17/outbox.cif.g08.bks.cpg/sg84_3_cif.got.tgz:4092.got - 2010.06.03 18:57:40.
