data_PCOD9544473
_publ_section_title
;
Structure prediction by ZEFSAII (Michael W. Deem and Ramdas Pophale) SiO2 
 PCOD9544473
Probable space group: P 42/M
;
_chemical_formula_sum "Si O2"
_cell_formula_units_Z 48
_cell_length_a 18.000000
_cell_length_b 18.000000
_cell_length_c 9.000000
_cell_angle_alpha 90.000000
_cell_angle_beta 90.000000
_cell_angle_gamma 90.000000
_cell_volume 2916.000000
_symmetry_space_group_name_H-M "P 42/M"
_symmetry_group_IT_number 84
_symmetry_cell_setting 'tetragonal'
loop_
_space_group_symop_operation_xyz
x,y,z
-y,x,1/2+z
-x,-y,z
y,-x,1/2+z
-x,-y,-z
y,-x,1/2-z
x,y,-z
-y,x,1/2-z
loop_
_atom_site_type_symbol
_atom_site_label
_atom_site_fract_x
_atom_site_fract_y
_atom_site_fract_z
Si Si1 0.413892 0.701157 0.323673
Si Si2 0.198366 0.927031 0.175675
Si Si3 0.412039 0.299243 0.676337
Si Si4 0.804871 0.689629 0.322517
Si Si5 0.794317 0.917272 0.324276
Si Si6 0.308928 0.192184 0.822742
O O1 0.398334 0.703358 0.500000
O O2 0.365450 0.635898 0.249011
O O3 0.500872 0.688818 0.301230
O O4 0.387166 0.778030 0.247823
O O5 0.277472 0.886511 0.203267
O O6 0.135120 0.865552 0.207846
O O7 0.189641 0.999775 0.272702
O O8 0.193730 0.944930 0.000000
O O9 0.396830 0.296164 0.500000
O O10 0.384823 0.222860 0.752673
O O11 0.792297 0.690684 0.500000
O O12 0.750351 0.748532 0.242799
O O13 0.780629 0.911923 0.500000
O O14 0.723280 0.885110 0.236754
O O15 0.310872 0.194170 0.000000
#
# Coordination Sequence:
#
# PCOD9544473 Si02
#       6
#     8   8   8   8   8   8
#     4  10  20  32  49  73  98 128 164 199 239 287
#     4   9  19  33  48  71  99 127 161 196 236 286
#     4  10  20  33  49  71 100 129 160 200 241 285
#     4   9  17  31  50  70  95 126 161 201 239 280
#     4  10  20  33  50  72  99 130 161 197 241 284
#     4  10  18  30  50  71  93 124 163 201 236 282
#
# _framework density 16.460905
#
# number of rings (size 3 to 8) (size 9 to 14) (size 15 to 20)
#    0.000    2.333    0.000    6.500    0.000    7.333 
#    0.000    3.333    0.000    1.000    0.000    7.000 
#    0.000    0.000    0.000    0.000    0.000    0.000 
#
# Total GULP energy -267422.683945 kJ/mol
# GULP energy per Si atom -5571.305916 kJ/mol
# Density = 1.642344 g / cm^3
# Si number density = 16.460905 Si / 1000 Ang^3
#
#
#
# Elastic Constant Matrix: (Units=GPa)
#
#
# Indices 1 2 3 4 5 6 
#
# 1 47.9542 76.4007 57.2517 0.0000 0.0000 -1.1976
# 2 76.4007 47.9542 57.2517 0.0000 0.0000 1.1976
# 3 57.2517 57.2517 115.7695 0.0000 0.0000 0.0000
# 4 0.0000 0.0000 0.0000 -1.2930 0.0000 0.0000
# 5 0.0000 0.0000 0.0000 0.0000 -1.2930 0.0000
# 6 -1.1976 1.1976 0.0000 0.0000 0.0000 14.4382
#
#
#
# Elastic Compliance Matrix: (Units=1/GPa)
#
#
# Indices 1 2 3 4 5 6 
#
# 1 -0.010073 0.024837 -0.007302 0.000000 0.000000 -0.002896
# 2 0.024837 -0.010073 -0.007302 0.000000 0.000000 0.002896
# 3 -0.007302 -0.007302 0.015860 0.000000 0.000000 0.000000
# 4 0.000000 0.000000 0.000000 -0.773399 0.000000 0.000000
# 5 0.000000 0.000000 0.000000 0.000000 -0.773399 0.000000
# 6 -0.002896 0.002896 0.000000 0.000000 0.000000 0.068780
#
#
# Mechanical properties :
#
#
# Convention : Reuss Voigt Hill
#
# Bulk Modulus (GPa) = 61.79500 65.94290 63.86895
# Shear Modulus (GPa) = -3.33917 3.75537 0.20810
#
# Velocity S-wave (km/s) = -1.42582 1.51206 0.35594
# Velocity P-wave (km/s) = 5.90858 6.57235 6.24928
#
# Compressibility (1/GPa) = 0.01618254
#
# Stress axis : x y z
#
# Youngs Moduli (GPa) = -99.27882 -99.27882 63.05331
#
# Poissons Ratio (x) = 2.46582 0.46039
# Poissons Ratio (y) = 2.46582 0.46039
# Poissons Ratio (z) = -0.72489 -0.72489
#
# Static dielectric constant tensor:
#      x y z
#    x 1.571140 0.000000 0.000000 
#    y 0.000000 1.571140 0.000000 
#    z 0.000000 0.000000 1.545170 
# 
# From -- ./inp_files/984.got.cif
#   From: 2010.05.17/outbox.ucp.g08.bks.cvg/sg84_1_cif.got.tgz:984.got - 2010.06.11 10:34:57.
