data_PCOD9544399
_publ_section_title
;
Structure prediction by ZEFSAII (Michael W. Deem and Ramdas Pophale) SiO2 
 PCOD9544399
Probable space group: P 42/M
;
_chemical_formula_sum "Si O2"
_cell_formula_units_Z 60
_cell_length_a 14.274221
_cell_length_b 14.274221
_cell_length_c 16.025749
_cell_angle_alpha 90.000000
_cell_angle_beta 90.000000
_cell_angle_gamma 90.000000
_cell_volume 3265.300608
_symmetry_space_group_name_H-M "P 42/M"
_symmetry_group_IT_number 84
_symmetry_cell_setting 'tetragonal'
loop_
_space_group_symop_operation_xyz
x,y,z
-y,x,1/2+z
-x,-y,z
y,-x,1/2+z
-x,-y,-z
y,-x,1/2-z
x,y,-z
-y,x,1/2-z
loop_
_atom_site_type_symbol
_atom_site_label
_atom_site_fract_x
_atom_site_fract_y
_atom_site_fract_z
Si Si1 0.729723 0.840374 0.000000
Si Si2 0.107753 0.027485 0.403335
Si Si3 0.375697 0.904839 0.098156
Si Si4 0.880317 0.400616 0.836082
Si Si5 0.908223 0.600438 0.098868
Si Si6 0.795322 0.796359 0.662610
Si Si7 0.407534 0.117081 0.859670
Si Si8 0.851322 0.799548 0.849791
O O1 0.651521 0.823454 0.925361
O O2 0.807884 0.857081 0.925917
O O3 0.135098 0.014404 0.500000
O O4 0.130824 0.133345 0.379537
O O5 0.169577 0.959473 0.345720
O O6 0.000000 0.000000 0.392734
O O7 0.307525 0.831374 0.142353
O O8 0.484623 0.882837 0.111821
O O9 0.366403 0.011306 0.130582
O O10 0.353875 0.907331 0.000000
O O11 0.860735 0.501973 0.876833
O O12 0.825300 0.308735 0.867607
O O13 0.860462 0.406393 0.737688
O O14 0.991927 0.390243 0.853990
O O15 0.848011 0.690933 0.122653
O O16 0.926874 0.601471 0.000000
O O17 0.802341 0.812773 0.761725
#
# Coordination Sequence:
#
# PCOD9544399 Si02
#       8
#     4   8   8   8   8   8   8   8
#     4  12  22  37  65  79 113 156 205 243 292 352
#     4  11  26  40  54  80 123 167 201 240 286 351
#     4  11  22  37  60  85 119 152 197 250 308 354
#     4  11  22  37  60  88 116 154 196 255 304 352
#     4  11  22  40  62  83 120 160 203 250 303 357
#     4  12  26  36  60  88 122 158 198 250 302 359
#     4  11  21  41  60  86 115 155 202 255 300 352
#     4  12  24  40  57  87 117 163 211 242 285 365
#
# _framework density 18.375029999999999
#
# number of rings (size 3 to 8) (size 9 to 14) (size 15 to 20)
#    0.000    0.667    5.333    4.800    3.733    1.600 
#    0.000    0.000    0.000    0.000    0.000    1.867 
#    0.000    0.000    0.000    0.000    0.000    0.000 
#
# Total GULP energy -334067.858417 kJ/mol
# GULP energy per Si atom -5567.797640 kJ/mol
# Density = 1.833321 g / cm^3
# Si number density = 18.375030 Si / 1000 Ang^3
#
#
#
# Elastic Constant Matrix: (Units=GPa)
#
#
# Indices 1 2 3 4 5 6 
#
# 1 55.7906 19.0411 10.5297 0.0000 0.0000 -7.7699
# 2 19.0411 55.7906 10.5297 0.0000 0.0000 7.7699
# 3 10.5297 10.5297 52.4600 0.0000 0.0000 0.0000
# 4 0.0000 0.0000 0.0000 30.7482 0.0000 0.0000
# 5 0.0000 0.0000 0.0000 0.0000 30.7482 0.0000
# 6 -7.7699 7.7699 0.0000 0.0000 0.0000 19.4887
#
#
#
# Elastic Compliance Matrix: (Units=1/GPa)
#
#
# Indices 1 2 3 4 5 6 
#
# 1 0.023446 -0.009283 -0.002843 0.000000 0.000000 0.013049
# 2 -0.009283 0.023446 -0.002843 0.000000 0.000000 -0.013049
# 3 -0.002843 -0.002843 0.020203 0.000000 0.000000 0.000000
# 4 0.000000 0.000000 0.000000 0.032522 0.000000 0.000000
# 5 0.000000 0.000000 0.000000 0.000000 0.032522 0.000000
# 6 0.013049 -0.013049 0.000000 0.000000 0.000000 0.061717
#
#
# Mechanical properties :
#
#
# Convention : Reuss Voigt Hill
#
# Bulk Modulus (GPa) = 26.91161 27.13803 27.02482
# Shear Modulus (GPa) = 21.17030 24.45974 22.81502
#
# Velocity S-wave (km/s) = 3.39798 3.65244 3.52750
# Velocity P-wave (km/s) = 5.48384 5.70860 5.59735
#
# Compressibility (1/GPa) = 0.03715868
#
# Stress axis : x y z
#
# Youngs Moduli (GPa) = 42.65087 42.65087 49.49675
#
# Poissons Ratio (x) = 0.39592 0.14071
# Poissons Ratio (y) = 0.39592 0.14071
# Poissons Ratio (z) = 0.12125 0.12125
#
# Static dielectric constant tensor:
#      x y z
#    x 1.697210 0.000000 0.000000 
#    y 0.000000 1.697210 0.000000 
#    z 0.000000 0.000000 1.641000 
# 
# From -- ./inp_files/3181.got.cif
#   From: 2010.05.17/outbox.cif.g08.bks.cpg/sg84_2_cif.got.tgz:3181.got - 2010.06.03 18:57:40.
