data_PCOD9544113
_publ_section_title
;
Structure prediction by ZEFSAII (Michael W. Deem and Ramdas Pophale) SiO2 
 PCOD9544113
Probable space group: P 42/M
;
_chemical_formula_sum "Si O2"
_cell_formula_units_Z 40
_cell_length_a 16.209691
_cell_length_b 16.209691
_cell_length_c 8.753293
_cell_angle_alpha 90.000000
_cell_angle_beta 90.000000
_cell_angle_gamma 90.000000
_cell_volume 2299.963469
_symmetry_space_group_name_H-M "P 42/M"
_symmetry_group_IT_number 84
_symmetry_cell_setting 'tetragonal'
loop_
_space_group_symop_operation_xyz
x,y,z
-y,x,1/2+z
-x,-y,z
y,-x,1/2+z
-x,-y,-z
y,-x,1/2-z
x,y,-z
-y,x,1/2-z
loop_
_atom_site_type_symbol
_atom_site_label
_atom_site_fract_x
_atom_site_fract_y
_atom_site_fract_z
Si Si1 0.442439 0.386498 0.182303
Si Si2 0.776049 0.361305 0.816559
Si Si3 0.013661 0.242682 0.683014
Si Si4 0.040955 0.585675 0.184083
Si Si5 0.844084 0.182940 0.184139
O O1 0.393924 0.465254 0.250220
O O2 0.399806 0.302003 0.233390
O O3 0.445695 0.393271 0.000000
O O4 0.861960 0.407283 0.777568
O O5 0.792266 0.265317 0.776968
O O6 0.764093 0.366998 0.000000
O O7 0.011629 0.243959 0.500000
O O8 0.003936 0.335367 0.744914
O O9 0.934374 0.193388 0.744512
O O10 0.099290 0.200917 0.732193
O O11 0.000000 0.500000 0.232396
O O12 0.035172 0.592115 0.000000
O O13 0.852804 0.182759 0.000000
#
# Coordination Sequence:
#
# PCOD9544113 Si02
#       5
#     8   8   8   8   8
#     4  11  22  37  56  78 105 136 173 214 259 309
#     4   9  18  35  55  76 106 139 173 213 257 306
#     4  10  20  34  54  79 105 137 178 219 259 306
#     4   9  19  36  56  78 107 141 173 210 260 313
#     4   9  20  37  54  76 108 141 173 215 263 309
#
# _framework density 17.391580999999999
#
# number of rings (size 3 to 8) (size 9 to 14) (size 15 to 20)
#    0.000    2.400    0.000    4.200    0.000    7.200 
#    0.000    6.000    0.000    0.000    0.000    0.000 
#    0.000    0.000    0.000    0.000    0.000    0.000 
#
# Total GULP energy -223228.615767 kJ/mol
# GULP energy per Si atom -5580.715394 kJ/mol
# Density = 1.735200 g / cm^3
# Si number density = 17.391581 Si / 1000 Ang^3
#
#
#
# Elastic Constant Matrix: (Units=GPa)
#
#
# Indices 1 2 3 4 5 6 
#
# 1 161.6091 125.1586 60.4428 0.0000 0.0000 -18.6760
# 2 125.1586 161.6091 60.4428 0.0000 0.0000 18.6760
# 3 60.4428 60.4428 60.7301 0.0000 0.0000 0.0000
# 4 0.0000 0.0000 0.0000 25.2896 0.0000 0.0000
# 5 0.0000 0.0000 0.0000 0.0000 25.2896 0.0000
# 6 -18.6760 18.6760 0.0000 0.0000 0.0000 29.2099
#
#
#
# Elastic Compliance Matrix: (Units=1/GPa)
#
#
# Indices 1 2 3 4 5 6 
#
# 1 0.042785 -0.036777 -0.005979 0.000000 0.000000 0.050870
# 2 -0.036777 0.042785 -0.005979 0.000000 0.000000 -0.050870
# 3 -0.005979 -0.005979 0.028368 0.000000 0.000000 0.000000
# 4 0.000000 0.000000 0.000000 0.039542 0.000000 0.000000
# 5 0.000000 0.000000 0.000000 0.000000 0.039542 0.000000
# 6 0.050870 -0.050870 0.000000 0.000000 0.000000 0.099285
#
#
# Mechanical properties :
#
#
# Convention : Reuss Voigt Hill
#
# Bulk Modulus (GPa) = 60.72910 97.33739 79.03325
# Shear Modulus (GPa) = 12.64965 25.15145 18.90055
#
# Velocity S-wave (km/s) = 2.69986 3.80700 3.30019
# Velocity P-wave (km/s) = 6.68681 8.68412 7.75008
#
# Compressibility (1/GPa) = 0.01646657
#
# Stress axis : x y z
#
# Youngs Moduli (GPa) = 23.37260 23.37260 35.25073
#
# Poissons Ratio (x) = 0.85959 0.21077
# Poissons Ratio (y) = 0.85959 0.21077
# Poissons Ratio (z) = 0.13975 0.13975
#
# Static dielectric constant tensor:
#      x y z
#    x 1.571430 0.000000 0.000000 
#    y 0.000000 1.571430 0.000000 
#    z 0.000000 0.000000 1.583890 
# 
# From -- ./inp_files/733.got.cif
#   From: 2010.05.17/outbox.cif.g08.bks.cpg/sg84_1_cif.got.tgz:733.got - 2010.06.03 18:57:40.
