data_PCOD9544724
_publ_section_title
;
Structure prediction by ZEFSAII (Michael W. Deem and Ramdas Pophale) SiO2 
 PCOD9544724
Probable space group: P 4/N
;
_chemical_formula_sum "Si O2"
_cell_formula_units_Z 48
_cell_length_a 9.530079
_cell_length_b 9.530079
_cell_length_c 27.960605
_cell_angle_alpha 90.000000
_cell_angle_beta 90.000000
_cell_angle_gamma 90.000000
_cell_volume 2539.449412
_symmetry_space_group_name_H-M "P 4/N"
_symmetry_group_IT_number 85
_symmetry_cell_setting 'tetragonal'
loop_
_space_group_symop_operation_xyz
x,y,z
1/2-y,x,z
1/2-x,1/2-y,z
y,1/2-x,z
-x,-y,-z
1/2+y,-x,-z
1/2+x,1/2+y,-z
-y,1/2+x,-z
loop_
_atom_site_type_symbol
_atom_site_label
_atom_site_fract_x
_atom_site_fract_y
_atom_site_fract_z
Si Si1 0.845366 0.535459 0.874985
Si Si2 0.915077 0.127822 0.019590
Si Si3 0.461998 0.135995 0.804537
Si Si4 0.605551 0.102693 0.523148
Si Si5 0.964538 0.843334 0.617935
Si Si6 0.543274 0.635213 0.730246
O O1 0.927893 0.682016 0.864281
O O2 0.835980 0.483294 0.929861
O O3 0.935458 0.417521 0.847229
O O4 0.752915 0.082726 0.019198
O O5 0.000000 0.000000 0.000000
O O6 0.434382 0.304856 0.805440
O O7 0.550165 0.073969 0.759474
O O8 0.566737 0.253313 0.504614
O O9 0.500000 0.000000 0.500000
O O10 0.616387 0.081940 0.579798
O O11 0.819912 0.927482 0.609171
O O12 0.992927 0.868008 0.673847
O O13 0.697514 0.565800 0.740363
#
# Coordination Sequence:
#
# PCOD9544724 Si02
#       6
#     8   8   8   8   8   8
#     4  11  24  43  68  96 127 167 214 262 308 367
#     4  11  24  41  64  96 132 171 212 256 309 362
#     4  11  26  44  62  92 131 166 203 256 316 374
#     4  11  22  36  56  85 122 162 206 250 301 364
#     4   9  17  35  62  87 118 159 203 252 306 363
#     4   9  19  39  67  95 118 154 207 257 308 373
#
# _framework density 18.901734000000001
#
# number of rings (size 3 to 8) (size 9 to 14) (size 15 to 20)
#    0.000    1.667    3.333    2.000    2.333    4.667 
#    3.000    0.000    0.000    0.000    0.000    0.000 
#    0.000    0.000    0.000    0.000    0.000    0.000 
#
# Total GULP energy -267341.723348 kJ/mol
# GULP energy per Si atom -5569.619236 kJ/mol
# Density = 1.885871 g / cm^3
# Si number density = 18.901734 Si / 1000 Ang^3
#
#
#
# Elastic Constant Matrix: (Units=GPa)
#
#
# Indices 1 2 3 4 5 6 
#
# 1 112.4708 3.6185 23.4275 0.0000 0.0000 6.5468
# 2 3.6185 112.4708 23.4275 0.0000 0.0000 -6.5468
# 3 23.4275 23.4275 90.1525 0.0000 0.0000 0.0000
# 4 0.0000 0.0000 0.0000 31.5549 0.0000 0.0000
# 5 0.0000 0.0000 0.0000 0.0000 31.5549 0.0000
# 6 6.5468 -6.5468 0.0000 0.0000 0.0000 37.4046
#
#
#
# Elastic Compliance Matrix: (Units=1/GPa)
#
#
# Indices 1 2 3 4 5 6 
#
# 1 0.009504 0.000120 -0.002501 0.000000 0.000000 -0.001643
# 2 0.000120 0.009504 -0.002501 0.000000 0.000000 0.001643
# 3 -0.002501 -0.002501 0.012392 0.000000 0.000000 0.000000
# 4 0.000000 0.000000 0.000000 0.031691 0.000000 0.000000
# 5 0.000000 0.000000 0.000000 0.000000 0.031691 0.000000
# 6 -0.001643 0.001643 0.000000 0.000000 0.000000 0.027310
#
#
# Mechanical properties :
#
#
# Convention : Reuss Voigt Hill
#
# Bulk Modulus (GPa) = 46.21989 46.22680 46.22334
# Shear Modulus (GPa) = 35.95388 37.74425 36.84907
#
# Velocity S-wave (km/s) = 4.36609 4.47348 4.42011
# Velocity P-wave (km/s) = 7.06561 7.15487 7.11038
#
# Compressibility (1/GPa) = 0.02163571
#
# Stress axis : x y z
#
# Youngs Moduli (GPa) = 105.22035 105.22035 80.69689
#
# Poissons Ratio (x) = -0.01258 0.20181
# Poissons Ratio (y) = -0.01258 0.20181
# Poissons Ratio (z) = 0.26313 0.26313
#
# Static dielectric constant tensor:
#      x y z
#    x 1.622880 0.000000 0.000000 
#    y 0.000000 1.622880 0.000000 
#    z 0.000000 0.000000 1.667270 
# 
# From -- ./inp_files/2430.got.cif
#   From: 2010.05.17/outbox.cif.g08.bks.cpg/sg85_cif.got.tgz:2430.got - 2010.06.03 19:01:16.
