data_PCOD9544715
_publ_section_title
;
Structure prediction by ZEFSAII (Michael W. Deem and Ramdas Pophale) SiO2 
 PCOD9544715
Probable space group: P 4/N
;
_chemical_formula_sum "Si O2"
_cell_formula_units_Z 34
_cell_length_a 11.695258
_cell_length_b 11.695258
_cell_length_c 10.509123
_cell_angle_alpha 90.000000
_cell_angle_beta 90.000000
_cell_angle_gamma 90.000000
_cell_volume 1437.427962
_symmetry_space_group_name_H-M "P 4/N"
_symmetry_group_IT_number 85
_symmetry_cell_setting 'tetragonal'
loop_
_space_group_symop_operation_xyz
x,y,z
1/2-y,x,z
1/2-x,1/2-y,z
y,1/2-x,z
-x,-y,-z
1/2+y,-x,-z
1/2+x,1/2+y,-z
-y,1/2+x,-z
loop_
_atom_site_type_symbol
_atom_site_label
_atom_site_fract_x
_atom_site_fract_y
_atom_site_fract_z
Si Si1 0.556039 0.749100 0.530981
Si Si2 0.085907 0.518511 0.116296
Si Si3 0.250000 0.250000 0.808301
Si Si4 0.184069 0.960733 0.208345
Si Si5 0.247059 0.515881 0.754355
O O1 0.640430 0.639903 0.529387
O O2 0.476657 0.756275 0.654766
O O3 0.488509 0.748206 0.398922
O O4 0.221289 0.532745 0.097624
O O5 0.066561 0.401945 0.193731
O O6 0.049747 0.630041 0.192879
O O7 0.000000 0.500000 0.000000
O O8 0.217352 0.387614 0.799780
O O9 0.108297 0.847314 0.204395
#
# Coordination Sequence:
#
# PCOD9544715 Si02
#       5
#     8   8   2   8   8
#     4  11  21  42  76 115 164 207 267 345 420 520
#     4  12  30  51  76 110 157 219 277 349 412 507
#     4  12  20  44  80 108 150 216 276 336 408 518
#     4  12  27  48  78 116 161 209 283 345 428 501
#     4  12  25  48  77 118 159 216 276 345 435 498
#
# _framework density 23.653358000000001
#
# number of rings (size 3 to 8) (size 9 to 14) (size 15 to 20)
#    0.000    0.235    7.059    0.706    6.588    2.353 
#    0.000    0.000    0.000    0.000    0.000    0.000 
#    0.000    0.000    0.000    0.000    0.000    0.000 
#
# Total GULP energy -189913.796773 kJ/mol
# GULP energy per Si atom -5585.699905 kJ/mol
# Density = 2.359952 g / cm^3
# Si number density = 23.653358 Si / 1000 Ang^3
#
#
#
# Elastic Constant Matrix: (Units=GPa)
#
#
# Indices 1 2 3 4 5 6 
#
# 1 158.0898 56.3855 45.2866 0.0000 0.0000 5.6092
# 2 56.3855 158.0898 45.2866 0.0000 0.0000 -5.6092
# 3 45.2866 45.2866 97.1144 0.0000 0.0000 0.0000
# 4 0.0000 0.0000 0.0000 33.6231 0.0000 0.0000
# 5 0.0000 0.0000 0.0000 0.0000 33.6231 0.0000
# 6 5.6092 -5.6092 0.0000 0.0000 0.0000 30.4298
#
#
#
# Elastic Compliance Matrix: (Units=1/GPa)
#
#
# Indices 1 2 3 4 5 6 
#
# 1 0.007921 -0.002115 -0.002707 0.000000 0.000000 -0.001850
# 2 -0.002115 0.007921 -0.002707 0.000000 0.000000 0.001850
# 3 -0.002707 -0.002707 0.012822 0.000000 0.000000 0.000000
# 4 0.000000 0.000000 0.000000 0.029741 0.000000 0.000000
# 5 0.000000 0.000000 0.000000 0.000000 0.029741 0.000000
# 6 -0.001850 0.001850 0.000000 0.000000 0.000000 0.033545
#
#
# Mechanical properties :
#
#
# Convention : Reuss Voigt Hill
#
# Bulk Modulus (GPa) = 73.50612 78.57902 76.04257
# Shear Modulus (GPa) = 35.38894 37.29089 36.33992
#
# Velocity S-wave (km/s) = 3.87220 3.97490 3.92389
# Velocity P-wave (km/s) = 7.15093 7.37290 7.26276
#
# Compressibility (1/GPa) = 0.01360431
#
# Stress axis : x y z
#
# Youngs Moduli (GPa) = 126.24368 126.24368 77.98986
#
# Poissons Ratio (x) = 0.26704 0.21115
# Poissons Ratio (y) = 0.26704 0.21115
# Poissons Ratio (z) = 0.34179 0.34179
#
# Static dielectric constant tensor:
#      x y z
#    x 1.879230 0.000000 0.000000 
#    y 0.000000 1.879230 0.000000 
#    z 0.000000 0.000000 1.982180 
# 
# From -- ./inp_files/1438.got.cif
#   From: 2010.05.17/outbox.cif.g08.bks.cpg/sg85_cif.got.tgz:1438.got - 2010.06.03 19:01:16.
