data_PCOD9544878
_publ_section_title
;
Structure prediction by ZEFSAII (Michael W. Deem and Ramdas Pophale) SiO2 
 PCOD9544878
Probable space group: P 42/N
;
_chemical_formula_sum "Si O2"
_cell_formula_units_Z 48
_cell_length_a 9.650878
_cell_length_b 9.650878
_cell_length_c 26.870306
_cell_angle_alpha 90.000000
_cell_angle_beta 90.000000
_cell_angle_gamma 90.000000
_cell_volume 2502.685419
_symmetry_space_group_name_H-M "P 42/N"
_symmetry_group_IT_number 86
_space_group.IT_coordinate_system_code '2'
_symmetry_cell_setting 'tetragonal'
loop_
_space_group_symop_operation_xyz
x,y,z
-y,1/2+x,1/2+z
1/2-x,1/2-y,z
1/2+y,-x,1/2+z
-x,-y,-z
y,1/2-x,1/2-z
1/2+x,1/2+y,-z
1/2-y,x,1/2-z
loop_
_atom_site_type_symbol
_atom_site_label
_atom_site_fract_x
_atom_site_fract_y
_atom_site_fract_z
Si Si1 0.977726 0.350849 0.341310
Si Si2 0.470902 0.828154 0.314520
Si Si3 0.013918 0.806636 0.959243
Si Si4 0.250000 0.750000 0.897107
Si Si5 0.750000 0.750000 0.608307
Si Si6 0.250000 0.250000 0.858856
Si Si7 0.488403 0.371889 0.929221
Si Si8 0.250000 0.750000 0.232588
O O1 0.894330 0.381641 0.392552
O O2 0.882333 0.274498 0.301996
O O3 0.010188 0.505061 0.319059
O O4 0.115490 0.267393 0.356544
O O5 0.373964 0.790248 0.361095
O O6 0.615172 0.747930 0.323259
O O7 0.384197 0.780139 0.266776
O O8 0.877667 0.764153 0.929454
O O9 0.128110 0.711142 0.934103
O O10 0.048190 0.968474 0.945357
O O11 0.009030 0.796379 0.018408
O O12 0.376081 0.290668 0.895838
#
# Coordination Sequence:
#
# PCOD9544878 Si02
#       8
#     8   8   8   4   4   4   8   4
#     4  10  22  43  61  93 123 165 205 271 310 368
#     4  10  23  42  65  89 125 164 215 263 322 376
#     4  10  19  35  65  92 129 165 210 241 310 370
#     4  11  18  41  62  94 124 173 206 261 298 382
#     4  10  19  40  65  93 123 166 201 253 314 372
#     4  10  17  40  65  87 127 164 206 258 320 364
#     4   9  19  36  60  92 130 169 197 255 304 375
#     4  11  26  43  68  88 120 165 218 261 324 384
#
# _framework density 19.179397000000002
#
# number of rings (size 3 to 8) (size 9 to 14) (size 15 to 20)
#    0.000    2.000    5.000    0.500    0.000    4.667 
#    6.000    1.667    0.000    0.000    0.000    0.000 
#    0.000    0.000    0.000    0.000    0.000    0.000 
#
# Total GULP energy -267396.746488 kJ/mol
# GULP energy per Si atom -5570.765552 kJ/mol
# Density = 1.913574 g / cm^3
# Si number density = 19.179397 Si / 1000 Ang^3
#
#
#
# Elastic Constant Matrix: (Units=GPa)
#
#
# Indices 1 2 3 4 5 6 
#
# 1 94.3511 55.4737 63.2895 0.0000 0.0000 -10.4547
# 2 55.4737 94.3511 63.2895 0.0000 0.0000 10.4547
# 3 63.2895 63.2895 163.0796 0.0000 0.0000 0.0000
# 4 0.0000 0.0000 0.0000 34.5202 0.0000 0.0000
# 5 0.0000 0.0000 0.0000 0.0000 34.5202 0.0000
# 6 -10.4547 10.4547 0.0000 0.0000 0.0000 34.1324
#
#
#
# Elastic Compliance Matrix: (Units=1/GPa)
#
#
# Indices 1 2 3 4 5 6 
#
# 1 0.020363 -0.010432 -0.003854 0.000000 0.000000 0.009432
# 2 -0.010432 0.020363 -0.003854 0.000000 0.000000 -0.009432
# 3 -0.003854 -0.003854 0.009123 0.000000 0.000000 0.000000
# 4 0.000000 0.000000 0.000000 0.028969 0.000000 0.000000
# 5 0.000000 0.000000 0.000000 0.000000 0.028969 0.000000
# 6 0.009432 -0.009432 0.000000 0.000000 0.000000 0.035076
#
#
# Mechanical properties :
#
#
# Convention : Reuss Voigt Hill
#
# Bulk Modulus (GPa) = 73.69986 79.54303 76.62144
# Shear Modulus (GPa) = 27.22350 31.94980 29.58665
#
# Velocity S-wave (km/s) = 3.77160 4.08590 3.93189
# Velocity P-wave (km/s) = 7.58133 7.98891 7.78779
#
# Compressibility (1/GPa) = 0.01356855
#
# Stress axis : x y z
#
# Youngs Moduli (GPa) = 49.10942 49.10942 109.60963
#
# Poissons Ratio (x) = 0.51232 0.42242
# Poissons Ratio (y) = 0.51232 0.42242
# Poissons Ratio (z) = 0.18926 0.18926
#
# Static dielectric constant tensor:
#      x y z
#    x 1.693730 0.000000 0.000000 
#    y 0.000000 1.693730 0.000000 
#    z 0.000000 0.000000 1.666510 
# 
# From -- ./inp_files/5283.got.cif
#   From: 2010.05.17/outbox.cif.g08.bks.cpg/sg86_3_cif.got.tgz:5283.got - 2010.06.03 19:03:11.
