data_PCOD9544935
_publ_section_title
;
Structure prediction by ZEFSAII (Michael W. Deem and Ramdas Pophale) SiO2 
 PCOD9544935
Probable space group: P 42/N
;
_chemical_formula_sum "Si O2"
_cell_formula_units_Z 60
_cell_length_a 11.771500
_cell_length_b 11.771500
_cell_length_c 22.490381
_cell_angle_alpha 90.000000
_cell_angle_beta 90.000000
_cell_angle_gamma 90.000000
_cell_volume 3116.451888
_symmetry_space_group_name_H-M "P 42/N"
_symmetry_group_IT_number 86
_space_group.IT_coordinate_system_code '2'
_symmetry_cell_setting 'tetragonal'
loop_
_space_group_symop_operation_xyz
x,y,z
-y,1/2+x,1/2+z
1/2-x,1/2-y,z
1/2+y,-x,1/2+z
-x,-y,-z
y,1/2-x,1/2-z
1/2+x,1/2+y,-z
1/2-y,x,1/2-z
loop_
_atom_site_type_symbol
_atom_site_label
_atom_site_fract_x
_atom_site_fract_y
_atom_site_fract_z
Si Si1 0.294212 0.628477 0.667772
Si Si2 0.475922 0.325333 0.535470
Si Si3 0.875854 0.458187 0.721945
Si Si4 0.492011 0.575460 0.585432
Si Si5 0.005368 0.618725 0.804959
Si Si6 0.750000 0.750000 0.399519
Si Si7 0.747382 0.386101 0.140309
Si Si8 0.402808 0.288740 0.787799
O O1 0.250000 0.750000 0.648670
O O2 0.380265 0.653136 0.721436
O O3 0.366880 0.577715 0.613925
O O4 0.209923 0.535185 0.695893
O O5 0.506698 0.452712 0.555905
O O6 0.488425 0.329022 0.464444
O O7 0.351256 0.295460 0.559601
O O8 0.560944 0.250072 0.574846
O O9 0.753976 0.502799 0.700445
O O10 0.922149 0.367480 0.674004
O O11 0.960692 0.554076 0.746253
O O12 0.577019 0.574754 0.641080
O O13 0.135384 0.584048 0.823976
O O14 0.705232 0.842618 0.352010
O O15 0.750000 0.250000 0.137860
O O16 0.372406 0.164310 0.757692
#
# Coordination Sequence:
#
# PCOD9544935 Si02
#       8
#     8   8   8   8   8   4   8   8
#     4  11  21  34  55  86 123 158 189 232 296 364
#     4  10  19  36  60  86 109 154 195 244 293 348
#     4  10  21  35  56  82 116 154 186 242 284 350
#     4   9  20  37  58  79 115 153 200 239 285 353
#     4   9  19  38  56  82 113 151 200 229 288 347
#     4  10  19  36  58  90 116 143 194 242 302 348
#     4   9  19  36  57  86 118 148 190 239 290 348
#     4   9  21  36  58  91 122 150 178 243 311 355
#
# _framework density 19.252662999999998
#
# number of rings (size 3 to 8) (size 9 to 14) (size 15 to 20)
#    0.000    2.533    1.333    1.200    3.733    2.933 
#    0.000    2.667    0.000    0.800    0.000    0.000 
#    0.000    0.000    0.000    0.000    0.000    0.000 
#
# Total GULP energy -334417.253273 kJ/mol
# GULP energy per Si atom -5573.620888 kJ/mol
# Density = 1.920884 g / cm^3
# Si number density = 19.252663 Si / 1000 Ang^3
#
#
#
# Elastic Constant Matrix: (Units=GPa)
#
#
# Indices 1 2 3 4 5 6 
#
# 1 67.5316 20.4028 35.4809 0.0000 0.0000 1.9353
# 2 20.4028 67.5316 35.4809 0.0000 0.0000 -1.9353
# 3 35.4809 35.4809 119.6192 0.0000 0.0000 0.0000
# 4 0.0000 0.0000 0.0000 12.0911 0.0000 0.0000
# 5 0.0000 0.0000 0.0000 0.0000 12.0911 0.0000
# 6 1.9353 -1.9353 0.0000 0.0000 0.0000 23.0127
#
#
#
# Elastic Compliance Matrix: (Units=1/GPa)
#
#
# Indices 1 2 3 4 5 6 
#
# 1 0.018158 -0.003208 -0.004435 0.000000 0.000000 -0.001797
# 2 -0.003208 0.018158 -0.004435 0.000000 0.000000 0.001797
# 3 -0.004435 -0.004435 0.010991 0.000000 0.000000 0.000000
# 4 0.000000 0.000000 0.000000 0.082706 0.000000 0.000000
# 5 0.000000 0.000000 0.000000 0.000000 0.082706 0.000000
# 6 -0.001797 0.001797 0.000000 0.000000 0.000000 0.043756
#
#
# Mechanical properties :
#
#
# Convention : Reuss Voigt Hill
#
# Bulk Modulus (GPa) = 43.18968 48.60129 45.89548
# Shear Modulus (GPa) = 17.34024 20.32683 18.83354
#
# Velocity S-wave (km/s) = 3.00437 3.25282 3.13106
# Velocity P-wave (km/s) = 5.87510 6.27746 6.07961
#
# Compressibility (1/GPa) = 0.02315368
#
# Stress axis : x y z
#
# Youngs Moduli (GPa) = 55.07092 55.07092 90.98660
#
# Poissons Ratio (x) = 0.17665 0.40349
# Poissons Ratio (y) = 0.17665 0.40349
# Poissons Ratio (z) = 0.24422 0.24422
#
# Static dielectric constant tensor:
#      x y z
#    x 1.714970 0.000000 0.000000 
#    y 0.000000 1.714970 0.000000 
#    z 0.000000 0.000000 1.691130 
# 
# From -- ./inp_files/4254.got.cif
#   From: 2010.05.17/outbox.cif.g08.bks.cpg/sg86_3_cif.got.tgz:4254.got - 2010.06.03 19:03:11.
