data_PCOD9544678
_publ_section_title
;
Structure prediction by ZEFSAII (Michael W. Deem and Ramdas Pophale) SiO2 
 PCOD9544678
Probable space group: P 4/N
;
_chemical_formula_sum "Si O2"
_cell_formula_units_Z 36
_cell_length_a 13.285604
_cell_length_b 13.285604
_cell_length_c 8.640074
_cell_angle_alpha 90.000000
_cell_angle_beta 90.000000
_cell_angle_gamma 90.000000
_cell_volume 1525.035906
_symmetry_space_group_name_H-M "P 4/N"
_symmetry_group_IT_number 85
_symmetry_cell_setting 'tetragonal'
loop_
_space_group_symop_operation_xyz
x,y,z
1/2-y,x,z
1/2-x,1/2-y,z
y,1/2-x,z
-x,-y,-z
1/2+y,-x,-z
1/2+x,1/2+y,-z
-y,1/2+x,-z
loop_
_atom_site_type_symbol
_atom_site_label
_atom_site_fract_x
_atom_site_fract_y
_atom_site_fract_z
Si Si1 0.407384 0.064937 0.350195
Si Si2 0.894961 0.677568 0.954798
Si Si3 0.750000 0.750000 0.332553
Si Si4 0.282384 0.475446 0.567426
Si Si5 0.250000 0.750000 0.000000
Si Si6 0.637030 0.417952 0.161729
O O1 0.390231 0.157499 0.229237
O O2 0.312252 0.031157 0.453465
O O3 0.487398 0.115212 0.466263
O O4 0.428866 0.971947 0.238786
O O5 0.878836 0.793068 0.005583
O O6 0.998040 0.642000 0.028580
O O7 0.709120 0.633336 0.351098
O O8 0.282668 0.556099 0.703494
O O9 0.190933 0.665062 0.096578
#
# Coordination Sequence:
#
# PCOD9544678 Si02
#       6
#     8   8   2   8   2   8
#     4  11  22  46  74 111 148 187 238 305 372 428
#     4  11  24  43  75 109 145 186 239 305 373 427
#     4   8  20  40  68 110 148 152 224 306 384 412
#     4  10  23  42  76 110 143 183 236 317 363 429
#     4  12  32  56  66  96 160 204 246 284 348 456
#     4  12  28  48  73 102 148 203 246 288 358 453
#
# _framework density 23.606003000000001
#
# number of rings (size 3 to 8) (size 9 to 14) (size 15 to 20)
#    0.000    1.111    2.222    2.667    6.222    1.778 
#    0.000    0.000    0.000    0.000    0.000    0.000 
#    0.000    0.000    0.000    0.000    0.000    0.000 
#
# Total GULP energy -200674.975544 kJ/mol
# GULP energy per Si atom -5574.304876 kJ/mol
# Density = 2.355227 g / cm^3
# Si number density = 23.606003 Si / 1000 Ang^3
#
#
#
# Elastic Constant Matrix: (Units=GPa)
#
#
# Indices 1 2 3 4 5 6 
#
# 1 76.8857 -11.7878 22.8781 0.0000 0.0000 -21.0401
# 2 -11.7878 76.8857 22.8781 0.0000 0.0000 21.0401
# 3 22.8781 22.8781 86.5717 0.0000 0.0000 0.0000
# 4 0.0000 0.0000 0.0000 36.7723 0.0000 0.0000
# 5 0.0000 0.0000 0.0000 0.0000 36.7723 0.0000
# 6 -21.0401 21.0401 0.0000 0.0000 0.0000 10.6115
#
#
#
# Elastic Compliance Matrix: (Units=1/GPa)
#
#
# Indices 1 2 3 4 5 6 
#
# 1 0.104894 -0.086028 -0.004986 0.000000 0.000000 0.378555
# 2 -0.086028 0.104894 -0.004986 0.000000 0.000000 -0.378555
# 3 -0.004986 -0.004986 0.014186 0.000000 0.000000 0.000000
# 4 0.000000 0.000000 0.000000 0.027194 0.000000 0.000000
# 5 0.000000 0.000000 0.000000 0.000000 0.027194 0.000000
# 6 0.378555 -0.378555 0.000000 0.000000 0.000000 1.595417
#
#
# Mechanical properties :
#
#
# Convention : Reuss Voigt Hill
#
# Bulk Modulus (GPa) = 31.27418 34.25335 32.76377
# Shear Modulus (GPa) = 2.40797 30.58953 16.49875
#
# Velocity S-wave (km/s) = 1.01108 3.60368 2.64658
# Velocity P-wave (km/s) = 3.82625 5.64422 4.82169
#
# Compressibility (1/GPa) = 0.03197526
#
# Stress axis : x y z
#
# Youngs Moduli (GPa) = 9.53346 9.53346 70.49099
#
# Poissons Ratio (x) = 0.82014 0.35144
# Poissons Ratio (y) = 0.82014 0.35144
# Poissons Ratio (z) = 0.04753 0.04753
#
# Static dielectric constant tensor:
#      x y z
#    x 1.903770 0.000000 0.000000 
#    y 0.000000 1.903770 0.000000 
#    z 0.000000 0.000000 1.997170 
# 
# From -- ./inp_files/877.got.cif
#   From: 2010.05.17/outbox.cif.g08.bks.cpg/sg85_cif.got.tgz:877.got - 2010.06.03 19:01:16.
