data_PCOD9544712
_publ_section_title
;
Structure prediction by ZEFSAII (Michael W. Deem and Ramdas Pophale) SiO2 
 PCOD9544712
Probable space group: P 4/N
;
_chemical_formula_sum "Si O2"
_cell_formula_units_Z 34
_cell_length_a 10.904948
_cell_length_b 10.904948
_cell_length_c 11.645883
_cell_angle_alpha 90.000000
_cell_angle_beta 90.000000
_cell_angle_gamma 90.000000
_cell_volume 1384.903844
_symmetry_space_group_name_H-M "P 4/N"
_symmetry_group_IT_number 85
_symmetry_cell_setting 'tetragonal'
loop_
_space_group_symop_operation_xyz
x,y,z
1/2-y,x,z
1/2-x,1/2-y,z
y,1/2-x,z
-x,-y,-z
1/2+y,-x,-z
1/2+x,1/2+y,-z
-y,1/2+x,-z
loop_
_atom_site_type_symbol
_atom_site_label
_atom_site_fract_x
_atom_site_fract_y
_atom_site_fract_z
Si Si1 0.250000 0.750000 0.500000
Si Si2 0.957623 0.474582 0.746310
Si Si3 0.462337 0.706463 0.316260
Si Si4 0.117597 0.407758 0.035609
Si Si5 0.080855 0.156265 0.460434
O O1 0.356042 0.711496 0.411941
O O2 0.087696 0.540934 0.761510
O O3 0.966629 0.328321 0.758784
O O4 0.871503 0.550182 0.830354
O O5 0.912499 0.480830 0.613549
O O6 0.572887 0.670019 0.402800
O O7 0.083071 0.265335 0.004203
O O8 0.000000 0.500000 0.000000
O O9 0.203840 0.088707 0.423467
#
# Coordination Sequence:
#
# PCOD9544712 Si02
#       5
#     2   8   8   8   8
#     4  12  24  36  60 104 154 192 264 308 356 452
#     4  12  26  43  69 106 148 202 256 320 388 467
#     4  12  24  39  62 101 151 200 253 306 369 453
#     4  11  29  58  88 120 153 198 264 337 415 492
#     4  11  21  39  62  91 140 197 246 296 357 433
#
# _framework density 24.550439999999998
#
# number of rings (size 3 to 8) (size 9 to 14) (size 15 to 20)
#    0.000    0.471    4.706    3.529    6.588    2.824 
#    0.000    0.000    0.000    0.000    0.000    0.000 
#    0.000    0.000    0.000    0.000    0.000    0.000 
#
# Total GULP energy -189327.248997 kJ/mol
# GULP energy per Si atom -5568.448500 kJ/mol
# Density = 2.449456 g / cm^3
# Si number density = 24.550440 Si / 1000 Ang^3
#
#
#
# Elastic Constant Matrix: (Units=GPa)
#
#
# Indices 1 2 3 4 5 6 
#
# 1 816.5390 -623.9270 17.5442 0.0000 0.0000 148.9676
# 2 -623.9270 816.5390 17.5442 0.0000 0.0000 -148.9676
# 3 17.5442 17.5442 70.8595 0.0000 0.0000 0.0000
# 4 0.0000 0.0000 0.0000 31.8979 0.0000 0.0000
# 5 0.0000 0.0000 0.0000 0.0000 31.8979 0.0000
# 6 148.9676 -148.9676 0.0000 0.0000 0.0000 69.7762
#
#
#
# Elastic Compliance Matrix: (Units=1/GPa)
#
#
# Indices 1 2 3 4 5 6 
#
# 1 0.003340 0.002097 -0.001346 0.000000 0.000000 -0.002654
# 2 0.002097 0.003340 -0.001346 0.000000 0.000000 0.002654
# 3 -0.001346 -0.001346 0.014779 0.000000 0.000000 0.000000
# 4 0.000000 0.000000 0.000000 0.031350 0.000000 0.000000
# 5 0.000000 0.000000 0.000000 0.000000 0.031350 0.000000
# 6 -0.002654 0.002654 0.000000 0.000000 0.000000 0.025664
#
#
# Mechanical properties :
#
#
# Convention : Reuss Voigt Hill
#
# Bulk Modulus (GPa) = 49.33782 58.47337 53.90559
# Shear Modulus (GPa) = 42.45553 179.56615 111.01084
#
# Velocity S-wave (km/s) = 4.16302 8.56157 6.73169
# Velocity P-wave (km/s) = 6.57630 11.02739 9.07885
#
# Compressibility (1/GPa) = 0.02026843
#
# Stress axis : x y z
#
# Youngs Moduli (GPa) = 299.39282 299.39282 67.66346
#
# Poissons Ratio (x) = -0.62780 0.09109
# Poissons Ratio (y) = -0.62780 0.09109
# Poissons Ratio (z) = 0.40303 0.40303
#
# Static dielectric constant tensor:
#      x y z
#    x 2.117990 0.000000 0.000000 
#    y 0.000000 2.117990 0.000000 
#    z 0.000000 0.000000 2.058020 
# 
# From -- ./inp_files/1433.got.cif
#   From: 2010.05.17/outbox.cif.g08.bks.cpg/sg85_cif.got.tgz:1433.got - 2010.06.03 19:01:16.
