data_PCOD9544001
_publ_section_title
;
Structure prediction by ZEFSAII (Michael W. Deem and Ramdas Pophale) SiO2 
 PCOD9544001
Probable space group: P 42/M
;
_chemical_formula_sum "Si O2"
_cell_formula_units_Z 56
_cell_length_a 20.922212
_cell_length_b 20.922212
_cell_length_c 8.915229
_cell_angle_alpha 90.000000
_cell_angle_beta 90.000000
_cell_angle_gamma 90.000000
_cell_volume 3902.543026
_symmetry_space_group_name_H-M "P 42/M"
_symmetry_group_IT_number 84
_symmetry_cell_setting 'tetragonal'
loop_
_space_group_symop_operation_xyz
x,y,z
-y,x,1/2+z
-x,-y,z
y,-x,1/2+z
-x,-y,-z
y,-x,1/2-z
x,y,-z
-y,x,1/2-z
loop_
_atom_site_type_symbol
_atom_site_label
_atom_site_fract_x
_atom_site_fract_y
_atom_site_fract_z
Si Si1 0.345434 0.445631 0.664800
Si Si2 0.000463 0.423124 0.670549
Si Si3 0.337761 0.244182 0.823509
Si Si4 0.567879 0.662786 0.329823
Si Si5 0.425848 0.864202 0.679896
Si Si6 0.665730 0.240147 0.828457
Si Si7 0.865251 0.423911 0.819931
O O1 0.342637 0.476909 0.500000
O O2 0.328303 0.494446 0.793197
O O3 0.413443 0.411419 0.683455
O O4 0.296543 0.386940 0.664018
O O5 0.000047 0.397759 0.500000
O O6 0.935940 0.407552 0.759722
O O7 0.000000 0.500000 0.660487
O O8 0.065787 0.408269 0.757024
O O9 0.390587 0.298399 0.788408
O O10 0.272606 0.272752 0.750760
O O11 0.371762 0.183114 0.747711
O O12 0.329321 0.234464 0.000000
O O13 0.583589 0.683706 0.500000
O O14 0.424570 0.863752 0.500000
O O15 0.373309 0.815277 0.743889
O O16 0.501048 0.850288 0.724320
O O17 0.680886 0.221473 0.000000
O O18 0.863178 0.421939 0.000000
#
# Coordination Sequence:
#
# PCOD9544001 Si02
#       7
#     8   8   8   8   8   8   8
#     4   9  19  32  43  56  73  94 123 161 205 251
#     4   9  17  29  45  66  90 114 141 173 210 253
#     4  11  21  32  46  62  81 106 137 171 208 252
#     4  10  20  32  44  57  73  94 123 161 205 251
#     4  10  19  30  46  67  89 114 143 176 216 258
#     4  10  20  33  46  61  82 107 137 172 209 250
#     4  10  19  31  47  66  89 114 141 176 216 257
#
# _framework density 14.349617
#
# number of rings (size 3 to 8) (size 9 to 14) (size 15 to 20)
#    0.000    2.143    0.000    5.143    0.000    9.429 
#    0.000    1.429    0.000    0.000    0.000    0.000 
#    0.000    0.000    0.000    0.000    0.000    0.714 
#
# Total GULP energy -311895.414824 kJ/mol
# GULP energy per Si atom -5569.560979 kJ/mol
# Density = 1.431696 g / cm^3
# Si number density = 14.349617 Si / 1000 Ang^3
#
#
#
# Elastic Constant Matrix: (Units=GPa)
#
#
# Indices 1 2 3 4 5 6 
#
# 1 73.5600 36.7231 40.7583 0.0000 0.0000 0.6954
# 2 36.7231 73.5600 40.7583 0.0000 0.0000 -0.6954
# 3 40.7583 40.7583 92.6903 0.0000 0.0000 0.0000
# 4 0.0000 0.0000 0.0000 20.6133 0.0000 0.0000
# 5 0.0000 0.0000 0.0000 0.0000 20.6133 0.0000
# 6 0.6954 -0.6954 0.0000 0.0000 0.0000 14.0111
#
#
#
# Elastic Compliance Matrix: (Units=1/GPa)
#
#
# Indices 1 2 3 4 5 6 
#
# 1 0.020316 -0.006882 -0.005907 0.000000 0.000000 -0.001350
# 2 -0.006882 0.020316 -0.005907 0.000000 0.000000 0.001350
# 3 -0.005907 -0.005907 0.015984 0.000000 0.000000 0.000000
# 4 0.000000 0.000000 0.000000 0.048512 0.000000 0.000000
# 5 0.000000 0.000000 0.000000 0.000000 0.048512 0.000000
# 6 -0.001350 0.001350 0.000000 0.000000 0.000000 0.071506
#
#
# Mechanical properties :
#
#
# Convention : Reuss Voigt Hill
#
# Bulk Modulus (GPa) = 52.02192 52.92106 52.47149
# Shear Modulus (GPa) = 18.59105 19.15224 18.87164
#
# Velocity S-wave (km/s) = 3.60332 3.65730 3.63041
# Velocity P-wave (km/s) = 7.32419 7.40232 7.36336
#
# Compressibility (1/GPa) = 0.01922267
#
# Stress axis : x y z
#
# Youngs Moduli (GPa) = 49.22272 49.22272 62.56353
#
# Poissons Ratio (x) = 0.33874 0.36958
# Poissons Ratio (y) = 0.33874 0.36958
# Poissons Ratio (z) = 0.29077 0.29077
#
# Static dielectric constant tensor:
#      x y z
#    x 1.478520 0.000000 0.000000 
#    y 0.000000 1.478520 0.000000 
#    z 0.000000 0.000000 1.506740 
# 
# From -- ./inp_files/1299.got.cif
#   From: 2010.05.17/outbox.cif.g08.bks.cpg/sg84_1_cif.got.tgz:1299.got - 2010.06.03 18:57:40.
