data_PCOD9544401
_publ_section_title
;
Structure prediction by ZEFSAII (Michael W. Deem and Ramdas Pophale) SiO2 
 PCOD9544401
Probable space group: P 42/M
;
_chemical_formula_sum "Si O2"
_cell_formula_units_Z 20
_cell_length_a 7.002212
_cell_length_b 7.002212
_cell_length_c 16.267665
_cell_angle_alpha 90.000000
_cell_angle_beta 90.000000
_cell_angle_gamma 90.000000
_cell_volume 797.619442
_symmetry_space_group_name_H-M "P 42/M"
_symmetry_group_IT_number 84
_symmetry_cell_setting 'tetragonal'
loop_
_space_group_symop_operation_xyz
x,y,z
-y,x,1/2+z
-x,-y,z
y,-x,1/2+z
-x,-y,-z
y,-x,1/2-z
x,y,-z
-y,x,1/2-z
loop_
_atom_site_type_symbol
_atom_site_label
_atom_site_fract_x
_atom_site_fract_y
_atom_site_fract_z
Si Si1 0.970318 0.267956 0.500000
Si Si2 0.753738 0.782731 0.355511
Si Si3 0.500000 0.000000 0.234935
Si Si4 0.469855 0.724590 0.500000
O O1 0.000000 0.500000 0.500000
O O2 0.071571 0.190039 0.418456
O O3 0.250846 0.777340 0.500000
O O4 0.574870 0.785446 0.417305
O O5 0.817107 0.579915 0.315355
O O6 0.684786 0.928582 0.285948
O O7 0.500000 0.500000 0.500000
#
# Coordination Sequence:
#
# PCOD9544401 Si02
#       4
#     4   8   4   4
#     4  11  21  44  74 112 147 202 266 325 373 477
#     4  11  27  46  74 113 155 206 264 320 400 465
#     4  12  28  46  76 114 162 204 258 334 398 464
#     4  11  21  44  80 105 146 210 265 315 378 484
#
# _framework density 25.074614
#
# number of rings (size 3 to 8) (size 9 to 14) (size 15 to 20)
#    0.000    0.800    6.000    0.000   11.200    4.000 
#    0.000    2.000    0.000    0.000    0.000    0.000 
#    0.000    0.000    0.000    0.000    0.000    0.000 
#
# Total GULP energy -111899.147063 kJ/mol
# GULP energy per Si atom -5594.957353 kJ/mol
# Density = 2.501754 g / cm^3
# Si number density = 25.074614 Si / 1000 Ang^3
#
#
#
# Elastic Constant Matrix: (Units=GPa)
#
#
# Indices 1 2 3 4 5 6 
#
# 1 177.3854 39.3166 56.9706 0.0000 0.0000 -6.5404
# 2 39.3166 177.3854 56.9706 0.0000 0.0000 6.5404
# 3 56.9706 56.9706 118.8068 0.0000 0.0000 0.0000
# 4 0.0000 0.0000 0.0000 195.8657 0.0000 0.0000
# 5 0.0000 0.0000 0.0000 0.0000 195.8657 0.0000
# 6 -6.5404 6.5404 0.0000 0.0000 0.0000 47.7907
#
#
#
# Elastic Compliance Matrix: (Units=1/GPa)
#
#
# Indices 1 2 3 4 5 6 
#
# 1 0.006754 -0.000584 -0.002959 0.000000 0.000000 0.001004
# 2 -0.000584 0.006754 -0.002959 0.000000 0.000000 -0.001004
# 3 -0.002959 -0.002959 0.011255 0.000000 0.000000 0.000000
# 4 0.000000 0.000000 0.000000 0.005106 0.000000 0.000000
# 5 0.000000 0.000000 0.000000 0.000000 0.005106 0.000000
# 6 0.001004 -0.001004 0.000000 0.000000 0.000000 0.021199
#
#
# Mechanical properties :
#
#
# Convention : Reuss Voigt Hill
#
# Bulk Modulus (GPa) = 85.03336 86.67703 85.85520
# Shear Modulus (GPa) = 68.40280 109.25906 88.83093
#
# Velocity S-wave (km/s) = 5.22866 6.60819 5.95849
# Velocity P-wave (km/s) = 8.39271 9.63675 9.03617
#
# Compressibility (1/GPa) = 0.01176009
#
# Stress axis : x y z
#
# Youngs Moduli (GPa) = 148.05721 148.05721 88.85182
#
# Poissons Ratio (x) = 0.08643 0.26290
# Poissons Ratio (y) = 0.08643 0.26290
# Poissons Ratio (z) = 0.43808 0.43808
#
# Static dielectric constant tensor:
#      x y z
#    x 1.983760 0.000000 0.000000 
#    y 0.000000 1.983760 0.000000 
#    z 0.000000 0.000000 2.037030 
# 
# From -- ./inp_files/3305.got.cif
#   From: 2010.05.17/outbox.cif.g08.bks.cpg/sg84_2_cif.got.tgz:3305.got - 2010.06.03 18:57:40.
