data_PCOD9544136
_publ_section_title
;
Structure prediction by ZEFSAII (Michael W. Deem and Ramdas Pophale) SiO2 
 PCOD9544136
Probable space group: P 42/M
;
_chemical_formula_sum "Si O2"
_cell_formula_units_Z 56
_cell_length_a 12.138805
_cell_length_b 12.138805
_cell_length_c 21.588297
_cell_angle_alpha 90.000000
_cell_angle_beta 90.000000
_cell_angle_gamma 90.000000
_cell_volume 3181.048232
_symmetry_space_group_name_H-M "P 42/M"
_symmetry_group_IT_number 84
_symmetry_cell_setting 'tetragonal'
loop_
_space_group_symop_operation_xyz
x,y,z
-y,x,1/2+z
-x,-y,z
y,-x,1/2+z
-x,-y,-z
y,-x,1/2-z
x,y,-z
-y,x,1/2-z
loop_
_atom_site_type_symbol
_atom_site_label
_atom_site_fract_x
_atom_site_fract_y
_atom_site_fract_z
Si Si1 0.661299 0.575994 0.574915
Si Si2 0.341677 0.416829 0.925627
Si Si3 0.106187 0.647127 0.160694
Si Si4 0.850549 0.610030 0.836570
Si Si5 0.190948 0.230010 0.425875
Si Si6 0.185795 0.186819 0.236775
Si Si7 0.007697 0.131602 0.339329
O O1 0.661180 0.574898 0.500000
O O2 0.544756 0.633347 0.592055
O O3 0.652176 0.449370 0.594708
O O4 0.766922 0.647689 0.593458
O O5 0.232316 0.374548 0.893417
O O6 0.333298 0.413230 0.000000
O O7 0.141236 0.521306 0.170987
O O8 0.156042 0.709147 0.101059
O O9 0.146789 0.715997 0.219711
O O10 0.974905 0.650493 0.153552
O O11 0.807782 0.684970 0.780132
O O12 0.183158 0.223531 0.500000
O O13 0.079442 0.189381 0.392925
O O14 0.076614 0.158613 0.276717
O O15 0.177531 0.113765 0.174591
O O16 0.000000 0.000000 0.348917
#
# Coordination Sequence:
#
# PCOD9544136 Si02
#       7
#     8   8   8   8   8   8   8
#     4   8  15  32  54  78 113 152 187 221 277 354
#     4   9  17  32  55  81 112 152 190 224 276 352
#     4  10  22  36  55  82 118 147 190 242 301 347
#     4  11  21  36  55  83 114 151 194 240 286 352
#     4  10  20  35  59  89 117 143 186 247 297 344
#     4  11  19  39  57  76 107 150 196 235 285 347
#     4  11  19  36  63  79 103 153 202 239 284 348
#
# _framework density 17.604258999999999
#
# number of rings (size 3 to 8) (size 9 to 14) (size 15 to 20)
#    0.000    2.000    4.286    1.714    0.000    0.857 
#    5.143    2.143    0.000    0.000    0.000    3.000 
#    0.000    0.000    0.000    0.000    0.000    0.000 
#
# Total GULP energy -311962.217938 kJ/mol
# GULP energy per Si atom -5570.753892 kJ/mol
# Density = 1.756419 g / cm^3
# Si number density = 17.604259 Si / 1000 Ang^3
#
#
#
# Elastic Constant Matrix: (Units=GPa)
#
#
# Indices 1 2 3 4 5 6 
#
# 1 77.5031 39.2893 41.1749 0.0000 0.0000 0.4267
# 2 39.2893 77.5031 41.1749 0.0000 0.0000 -0.4267
# 3 41.1749 41.1749 63.7254 0.0000 0.0000 0.0000
# 4 0.0000 0.0000 0.0000 24.3286 0.0000 0.0000
# 5 0.0000 0.0000 0.0000 0.0000 24.3286 0.0000
# 6 0.4267 -0.4267 0.0000 0.0000 0.0000 30.4888
#
#
#
# Elastic Compliance Matrix: (Units=1/GPa)
#
#
# Indices 1 2 3 4 5 6 
#
# 1 0.020952 -0.005225 -0.010162 0.000000 0.000000 -0.000366
# 2 -0.005225 0.020952 -0.010162 0.000000 0.000000 0.000366
# 3 -0.010162 -0.010162 0.028824 0.000000 0.000000 0.000000
# 4 0.000000 0.000000 0.000000 0.041104 0.000000 0.000000
# 5 0.000000 0.000000 0.000000 0.000000 0.041104 0.000000
# 6 -0.000366 0.000366 0.000000 0.000000 0.000000 0.032809
#
#
# Mechanical properties :
#
#
# Convention : Reuss Voigt Hill
#
# Bulk Modulus (GPa) = 50.93932 51.33442 51.13687
# Shear Modulus (GPa) = 20.54352 22.30203 21.42278
#
# Velocity S-wave (km/s) = 3.41979 3.56315 3.49221
# Velocity P-wave (km/s) = 6.67772 6.79350 6.73586
#
# Compressibility (1/GPa) = 0.01963120
#
# Stress axis : x y z
#
# Youngs Moduli (GPa) = 47.72815 47.72815 34.69320
#
# Poissons Ratio (x) = 0.24937 0.35255
# Poissons Ratio (y) = 0.24937 0.35255
# Poissons Ratio (z) = 0.48501 0.48501
#
# Static dielectric constant tensor:
#      x y z
#    x 1.625620 0.000000 0.000000 
#    y 0.000000 1.625620 0.000000 
#    z 0.000000 0.000000 1.585590 
# 
# From -- ./inp_files/4497.got.cif
#   From: 2010.05.17/outbox.cif.g08.bks.cpg/sg84_3_cif.got.tgz:4497.got - 2010.06.03 18:57:40.
