data_PCOD9544952
_publ_section_title
;
Structure prediction by ZEFSAII (Michael W. Deem and Ramdas Pophale) SiO2 
 PCOD9544952
Probable space group: P 42/N
;
_chemical_formula_sum "Si O2"
_cell_formula_units_Z 54
_cell_length_a 16.511032
_cell_length_b 16.511032
_cell_length_c 9.574408
_cell_angle_alpha 90.000000
_cell_angle_beta 90.000000
_cell_angle_gamma 90.000000
_cell_volume 2610.119364
_symmetry_space_group_name_H-M "P 42/N"
_symmetry_group_IT_number 86
_space_group.IT_coordinate_system_code '2'
_symmetry_cell_setting 'tetragonal'
loop_
_space_group_symop_operation_xyz
x,y,z
-y,1/2+x,1/2+z
1/2-x,1/2-y,z
1/2+y,-x,1/2+z
-x,-y,-z
y,1/2-x,1/2-z
1/2+x,1/2+y,-z
1/2-y,x,1/2-z
loop_
_atom_site_type_symbol
_atom_site_label
_atom_site_fract_x
_atom_site_fract_y
_atom_site_fract_z
Si Si1 0.531494 0.586590 0.950034
Si Si2 0.250000 0.250000 0.750000
Si Si3 0.977012 0.596948 0.832663
Si Si4 0.750000 0.250000 0.235263
Si Si5 0.954527 0.251945 0.033439
Si Si6 0.706686 0.917009 0.330192
Si Si7 0.125108 0.489681 0.931206
Si Si8 0.708697 0.148892 0.985744
O O1 0.579395 0.570428 0.808544
O O2 0.462513 0.656711 0.929365
O O3 0.500000 0.500000 0.000000
O O4 0.585409 0.627440 0.070956
O O5 0.167690 0.251213 0.836320
O O6 0.004688 0.689257 0.853094
O O7 0.057830 0.541043 0.843616
O O8 0.921980 0.567121 0.961348
O O9 0.753629 0.173380 0.130196
O O10 0.825808 0.252493 0.342188
O O11 0.868563 0.290245 0.996938
O O12 0.010502 0.258546 0.895736
O O13 0.679884 0.940833 0.176059
O O14 0.177532 0.557958 0.010113
#
# Coordination Sequence:
#
# PCOD9544952 Si02
#       8
#     8   2   8   4   8   8   8   8
#     4  10  21  41  65  93 126 171 221 268 327 409
#     4  12  24  44  60  94 136 160 232 278 352 388
#     4  10  19  38  60  95 124 157 214 273 320 388
#     4  10  22  36  56  92 132 162 196 268 324 388
#     4   9  21  38  63  88 125 164 213 267 320 384
#     4  10  22  41  62  87 124 175 212 280 325 408
#     4  10  20  36  66  86 122 165 214 260 319 392
#     4  10  21  38  59  90 127 164 210 259 328 392
#
# _framework density 20.688707999999998
#
# number of rings (size 3 to 8) (size 9 to 14) (size 15 to 20)
#    0.889    1.185    1.481    1.778    2.074    0.000 
#    5.333    2.963    0.000    0.889    0.000    0.000 
#    0.000    0.000    0.000    0.000    0.000    0.000 
#
# Total GULP energy -301167.198695 kJ/mol
# GULP energy per Si atom -5577.170346 kJ/mol
# Density = 2.064162 g / cm^3
# Si number density = 20.688708 Si / 1000 Ang^3
#
#
#
# Elastic Constant Matrix: (Units=GPa)
#
#
# Indices 1 2 3 4 5 6 
#
# 1 81.4098 12.4816 23.3779 0.0000 0.0000 0.3917
# 2 12.4816 81.4098 23.3779 0.0000 0.0000 -0.3917
# 3 23.3779 23.3779 66.2147 0.0000 0.0000 0.0000
# 4 0.0000 0.0000 0.0000 15.5447 0.0000 0.0000
# 5 0.0000 0.0000 0.0000 0.0000 15.5447 0.0000
# 6 0.3917 -0.3917 0.0000 0.0000 0.0000 30.5200
#
#
#
# Elastic Compliance Matrix: (Units=1/GPa)
#
#
# Indices 1 2 3 4 5 6 
#
# 1 0.013716 -0.000794 -0.004562 0.000000 0.000000 -0.000186
# 2 -0.000794 0.013716 -0.004562 0.000000 0.000000 0.000186
# 3 -0.004562 -0.004562 0.018324 0.000000 0.000000 0.000000
# 4 0.000000 0.000000 0.000000 0.064331 0.000000 0.000000
# 5 0.000000 0.000000 0.000000 0.000000 0.064331 0.000000
# 6 -0.000186 0.000186 0.000000 0.000000 0.000000 0.032770
#
#
# Mechanical properties :
#
#
# Convention : Reuss Voigt Hill
#
# Bulk Modulus (GPa) = 38.58122 38.61214 38.59668
# Shear Modulus (GPa) = 21.21653 23.64166 22.42909
#
# Velocity S-wave (km/s) = 3.20584 3.38410 3.29617
# Velocity P-wave (km/s) = 5.69141 5.82867 5.76045
#
# Compressibility (1/GPa) = 0.02591935
#
# Stress axis : x y z
#
# Youngs Moduli (GPa) = 72.90597 72.90597 54.57302
#
# Poissons Ratio (x) = 0.05786 0.24899
# Poissons Ratio (y) = 0.05786 0.24899
# Poissons Ratio (z) = 0.33263 0.33263
#
# Static dielectric constant tensor:
#      x y z
#    x 1.770570 0.000000 0.000000 
#    y 0.000000 1.770570 0.000000 
#    z 0.000000 0.000000 1.740820 
# 
# From -- ./inp_files/1437.got.cif
#   From: 2010.05.17/outbox.cif.g08.bks.cpg/sg86_1_cif.got.tgz:1437.got - 2010.06.03 19:03:11.
