data_PCOD9544906
_publ_section_title
;
Structure prediction by ZEFSAII (Michael W. Deem and Ramdas Pophale) SiO2 
 PCOD9544906
Probable space group: P 42/N
;
_chemical_formula_sum "Si O2"
_cell_formula_units_Z 64
_cell_length_a 23.046558
_cell_length_b 23.046558
_cell_length_c 5.415959
_cell_angle_alpha 90.000000
_cell_angle_beta 90.000000
_cell_angle_gamma 90.000000
_cell_volume 2876.653237
_symmetry_space_group_name_H-M "P 42/N"
_symmetry_group_IT_number 86
_space_group.IT_coordinate_system_code '2'
_symmetry_cell_setting 'tetragonal'
loop_
_space_group_symop_operation_xyz
x,y,z
-y,1/2+x,1/2+z
1/2-x,1/2-y,z
1/2+y,-x,1/2+z
-x,-y,-z
y,1/2-x,1/2-z
1/2+x,1/2+y,-z
1/2-y,x,1/2-z
loop_
_atom_site_type_symbol
_atom_site_label
_atom_site_fract_x
_atom_site_fract_y
_atom_site_fract_z
Si Si1 0.485857 0.852057 0.195359
Si Si2 0.341578 0.918159 0.702691
Si Si3 0.861097 0.386739 0.797219
Si Si4 0.407511 0.020855 0.202155
Si Si5 0.211820 0.160117 0.251341
Si Si6 0.950718 0.846431 0.204128
Si Si7 0.517381 0.080060 0.306965
Si Si8 0.594149 0.776766 0.248858
O O1 0.416249 0.844343 0.208748
O O2 0.498373 0.894350 0.426950
O O3 0.528735 0.799504 0.236725
O O4 0.496400 0.877788 0.923024
O O5 0.325776 0.885449 0.453556
O O6 0.412852 0.925912 0.696823
O O7 0.320323 0.983758 0.707247
O O8 0.327221 0.883572 0.948568
O O9 0.886592 0.453880 0.802987
O O10 0.377269 0.052166 0.437040
O O11 0.476155 0.025550 0.250409
O O12 0.388241 0.049753 0.943643
O O13 0.177113 0.220069 0.244849
O O14 0.200252 0.126346 0.504962
O O15 0.202637 0.123416 0.002669
O O16 0.907526 0.793075 0.236723
#
# Coordination Sequence:
#
# PCOD9544906 Si02
#       8
#     8   8   8   8   8   8   8   8
#     4  10  21  32  46  70  97 121 149 187 233 279
#     4   8  16  29  44  65  95 126 149 171 215 275
#     4   8  16  29  44  65  95 126 149 171 215 275
#     4  10  19  31  48  71  98 125 152 183 228 291
#     4  11  26  46  60  68  84 116 162 220 280 321
#     4  10  21  32  46  70  97 121 149 187 233 279
#     4  10  19  31  48  71  98 125 152 183 228 291
#     4  12  24  39  58  78  96 120 162 213 262 306
#
# _framework density 22.248076000000001
#
# number of rings (size 3 to 8) (size 9 to 14) (size 15 to 20)
#    0.000    2.125    0.000    3.000    0.000   16.000 
#    0.000    0.000    0.000    0.000    0.000    0.000 
#    0.000    0.000    0.000    0.000    0.000  303.750 
#
# Total GULP energy -357494.996610 kJ/mol
# GULP energy per Si atom -5585.859322 kJ/mol
# Density = 2.219744 g / cm^3
# Si number density = 22.248076 Si / 1000 Ang^3
#
#
#
# Elastic Constant Matrix: (Units=GPa)
#
#
# Indices 1 2 3 4 5 6 
#
# 1 23.2784 26.1135 12.3902 0.0000 0.0000 2.6548
# 2 26.1135 23.2784 12.3902 0.0000 0.0000 -2.6548
# 3 12.3902 12.3902 198.1572 0.0000 0.0000 0.0000
# 4 0.0000 0.0000 0.0000 6.4475 0.0000 0.0000
# 5 0.0000 0.0000 0.0000 0.0000 6.4475 0.0000
# 6 2.6548 -2.6548 0.0000 0.0000 0.0000 26.7947
#
#
#
# Elastic Compliance Matrix: (Units=1/GPa)
#
#
# Indices 1 2 3 4 5 6 
#
# 1 -0.138306 0.159208 -0.001307 0.000000 0.000000 0.029478
# 2 0.159208 -0.138306 -0.001307 0.000000 0.000000 -0.029478
# 3 -0.001307 -0.001307 0.005210 0.000000 0.000000 0.000000
# 4 0.000000 0.000000 0.000000 0.155098 0.000000 0.000000
# 5 0.000000 0.000000 0.000000 0.000000 0.155098 0.000000
# 6 0.029478 -0.029478 0.000000 0.000000 0.000000 0.031479
#
#
# Mechanical properties :
#
#
# Convention : Reuss Voigt Hill
#
# Bulk Modulus (GPa) = 23.93142 38.50019 31.21581
# Shear Modulus (GPa) = -21.83535 20.85929 -0.48803
#
# Velocity S-wave (km/s) = -3.13621 3.06531 -0.46886
# Velocity P-wave (km/s) = 1.52788 5.46541 3.71054
#
# Compressibility (1/GPa) = 0.04178606
#
# Stress axis : x y z
#
# Youngs Moduli (GPa) = -7.23034 -7.23034 191.94089
#
# Poissons Ratio (x) = 1.15113 0.25085
# Poissons Ratio (y) = 1.15113 0.25085
# Poissons Ratio (z) = -0.00945 -0.00945
#
# Static dielectric constant tensor:
#      x y z
#    x 1.827510 0.000000 0.000000 
#    y 0.000000 1.827510 0.000000 
#    z 0.000000 0.000000 1.886200 
# 
# From -- ./inp_files/554.got.cif
#   From: 2010.05.17/outbox.cif.g08.bks.cpg/sg86_1_cif.got.tgz:554.got - 2010.06.03 19:03:11.
