data_PCOD9544019
_publ_section_title
;
Structure prediction by ZEFSAII (Michael W. Deem and Ramdas Pophale) SiO2 
 PCOD9544019
Probable space group: P 42/M
;
_chemical_formula_sum "Si O2"
_cell_formula_units_Z 56
_cell_length_a 11.516205
_cell_length_b 11.516205
_cell_length_c 22.838247
_cell_angle_alpha 90.000000
_cell_angle_beta 90.000000
_cell_angle_gamma 90.000000
_cell_volume 3028.876320
_symmetry_space_group_name_H-M "P 42/M"
_symmetry_group_IT_number 84
_symmetry_cell_setting 'tetragonal'
loop_
_space_group_symop_operation_xyz
x,y,z
-y,x,1/2+z
-x,-y,z
y,-x,1/2+z
-x,-y,-z
y,-x,1/2-z
x,y,-z
-y,x,1/2-z
loop_
_atom_site_type_symbol
_atom_site_label
_atom_site_fract_x
_atom_site_fract_y
_atom_site_fract_z
Si Si1 0.684790 0.958222 0.568668
Si Si2 0.650762 0.701954 0.126562
Si Si3 0.840906 0.161621 0.429985
Si Si4 0.638539 0.362205 0.246818
Si Si5 0.905205 0.785923 0.568478
Si Si6 0.733378 0.624234 0.620808
Si Si7 0.758446 0.474044 0.931407
O O1 0.657530 0.977532 0.500000
O O2 0.798139 0.875435 0.571827
O O3 0.574817 0.883524 0.591066
O O4 0.738776 0.076667 0.593904
O O5 0.711924 0.800258 0.088792
O O6 0.678313 0.706736 0.195748
O O7 0.513108 0.715338 0.120666
O O8 0.699098 0.579480 0.102410
O O9 0.840213 0.143996 0.500000
O O10 0.975316 0.153554 0.411191
O O11 0.501011 0.344871 0.259201
O O12 0.667340 0.300637 0.185956
O O13 0.921200 0.755792 0.500000
O O14 0.858753 0.673554 0.602886
O O15 0.638082 0.676499 0.576450
O O16 0.768951 0.504544 0.000000
#
# Coordination Sequence:
#
# PCOD9544019 Si02
#       7
#     8   8   8   8   8   8   8
#     4   8  16  32  53  75 100 133 174 212 253 310
#     4  11  21  31  49  77 110 140 170 213 267 327
#     4  10  20  33  51  77 108 140 171 213 267 321
#     4   9  17  33  54  72  96 136 181 212 247 303
#     4   9  18  33  55  78 100 135 182 220 259 314
#     4  10  19  33  53  74 101 140 177 223 259 309
#     4  10  19  31  51  81 109 134 169 217 268 317
#
# _framework density 18.488706000000001
#
# number of rings (size 3 to 8) (size 9 to 14) (size 15 to 20)
#    0.000    2.429    1.429    2.571    0.000    5.714 
#    0.000    3.571    6.286    1.714    0.000    0.000 
#    0.000    0.000    0.000    0.000    0.000    0.000 
#
# Total GULP energy -311854.894181 kJ/mol
# GULP energy per Si atom -5568.837396 kJ/mol
# Density = 1.844662 g / cm^3
# Si number density = 18.488706 Si / 1000 Ang^3
#
#
#
# Elastic Constant Matrix: (Units=GPa)
#
#
# Indices 1 2 3 4 5 6 
#
# 1 33.0212 22.5497 9.4810 0.0000 0.0000 1.6329
# 2 22.5497 33.0212 9.4810 0.0000 0.0000 -1.6329
# 3 9.4810 9.4810 28.0763 0.0000 0.0000 0.0000
# 4 0.0000 0.0000 0.0000 15.0716 0.0000 0.0000
# 5 0.0000 0.0000 0.0000 0.0000 15.0716 0.0000
# 6 1.6329 -1.6329 0.0000 0.0000 0.0000 13.2228
#
#
#
# Elastic Compliance Matrix: (Units=1/GPa)
#
#
# Indices 1 2 3 4 5 6 
#
# 1 0.059830 -0.039492 -0.006868 0.000000 0.000000 -0.012265
# 2 -0.039492 0.059830 -0.006868 0.000000 0.000000 0.012265
# 3 -0.006868 -0.006868 0.040256 0.000000 0.000000 0.000000
# 4 0.000000 0.000000 0.000000 0.066350 0.000000 0.000000
# 5 0.000000 0.000000 0.000000 0.000000 0.066350 0.000000
# 6 -0.012265 0.012265 0.000000 0.000000 0.000000 0.078656
#
#
# Mechanical properties :
#
#
# Convention : Reuss Voigt Hill
#
# Bulk Modulus (GPa) = 18.70538 19.68247 19.19393
# Shear Modulus (GPa) = 10.08983 12.18034 11.13508
#
# Velocity S-wave (km/s) = 2.33862 2.56949 2.45677
# Velocity P-wave (km/s) = 4.17509 4.41269 4.29553
#
# Compressibility (1/GPa) = 0.05346055
#
# Stress axis : x y z
#
# Youngs Moduli (GPa) = 16.71392 16.71392 24.84112
#
# Poissons Ratio (x) = 0.66006 0.17061
# Poissons Ratio (y) = 0.66006 0.17061
# Poissons Ratio (z) = 0.11479 0.11479
#
# Static dielectric constant tensor:
#      x y z
#    x 1.682470 0.000000 0.000000 
#    y 0.000000 1.682470 0.000000 
#    z 0.000000 0.000000 1.614710 
# 
# From -- ./inp_files/5023.got.cif
#   From: 2010.05.17/outbox.cif.g08.bks.cpg/sg84_3_cif.got.tgz:5023.got - 2010.06.03 18:57:40.
