data_PCOD9544785
_publ_section_title
;
Structure prediction by ZEFSAII (Michael W. Deem and Ramdas Pophale) SiO2 
 PCOD9544785
Probable space group: P 4/N
;
_chemical_formula_sum "Si O2"
_cell_formula_units_Z 34
_cell_length_a 9.367324
_cell_length_b 9.367324
_cell_length_c 19.505319
_cell_angle_alpha 90.000000
_cell_angle_beta 90.000000
_cell_angle_gamma 90.000000
_cell_volume 1711.528524
_symmetry_space_group_name_H-M "P 4/N"
_symmetry_group_IT_number 85
_symmetry_cell_setting 'tetragonal'
loop_
_space_group_symop_operation_xyz
x,y,z
1/2-y,x,z
1/2-x,1/2-y,z
y,1/2-x,z
-x,-y,-z
1/2+y,-x,-z
1/2+x,1/2+y,-z
-y,1/2+x,-z
loop_
_atom_site_type_symbol
_atom_site_label
_atom_site_fract_x
_atom_site_fract_y
_atom_site_fract_z
Si Si1 0.698104 0.979252 0.087192
Si Si2 0.315792 0.476789 0.322299
Si Si3 0.524249 0.680891 0.251311
Si Si4 0.417419 0.866651 0.526989
Si Si5 0.750000 0.250000 0.000000
O O1 0.585322 0.854631 0.070397
O O2 0.685139 0.997137 0.169224
O O3 0.682992 0.126543 0.047389
O O4 0.157199 0.420626 0.305885
O O5 0.383775 0.614469 0.285562
O O6 0.314677 0.513550 0.403066
O O7 0.659408 0.577825 0.269375
O O8 0.413857 0.746740 0.467956
O O9 0.500000 0.000000 0.500000
#
# Coordination Sequence:
#
# PCOD9544785 Si02
#       5
#     8   8   8   8   2
#     4   9  20  39  58  87 128 160 199 250 298 356
#     4  11  24  41  61  88 121 154 194 251 304 351
#     4   9  21  40  62  87 117 158 201 246 298 358
#     4  11  24  41  61  88 120 158 196 244 303 359
#     4  12  20  32  64  96 116 168 206 244 304 356
#
# _framework density 19.865285
#
# number of rings (size 3 to 8) (size 9 to 14) (size 15 to 20)
#    0.000    1.882    2.353    2.118    3.294    5.176 
#    0.000    0.000    0.000    2.824    0.000    0.000 
#    0.000    0.000    0.000    0.000    0.000    0.000 
#
# Total GULP energy -189677.667026 kJ/mol
# GULP energy per Si atom -5578.754913 kJ/mol
# Density = 1.982007 g / cm^3
# Si number density = 19.865285 Si / 1000 Ang^3
#
#
#
# Elastic Constant Matrix: (Units=GPa)
#
#
# Indices 1 2 3 4 5 6 
#
# 1 67.7894 39.1138 18.5959 0.0000 0.0000 3.4362
# 2 39.1138 67.7894 18.5959 0.0000 0.0000 -3.4362
# 3 18.5959 18.5959 32.4157 0.0000 0.0000 0.0000
# 4 0.0000 0.0000 0.0000 29.8438 0.0000 0.0000
# 5 0.0000 0.0000 0.0000 0.0000 29.8438 0.0000
# 6 3.4362 -3.4362 0.0000 0.0000 0.0000 35.5959
#
#
#
# Elastic Compliance Matrix: (Units=1/GPa)
#
#
# Indices 1 2 3 4 5 6 
#
# 1 0.023693 -0.012006 -0.006704 0.000000 0.000000 -0.003446
# 2 -0.012006 0.023693 -0.006704 0.000000 0.000000 0.003446
# 3 -0.006704 -0.006704 0.038541 0.000000 0.000000 0.000000
# 4 0.000000 0.000000 0.000000 0.033508 0.000000 0.000000
# 5 0.000000 0.000000 0.000000 0.000000 0.033508 0.000000
# 6 -0.003446 0.003446 0.000000 0.000000 0.000000 0.028758
#
#
# Mechanical properties :
#
#
# Convention : Reuss Voigt Hill
#
# Bulk Modulus (GPa) = 28.49202 35.62285 32.05744
# Shear Modulus (GPa) = 20.47256 25.16929 22.82092
#
# Velocity S-wave (km/s) = 3.21373 3.56335 3.39305
# Velocity P-wave (km/s) = 5.30514 5.90772 5.61452
#
# Compressibility (1/GPa) = 0.03509755
#
# Stress axis : x y z
#
# Youngs Moduli (GPa) = 42.20703 42.20703 25.94612
#
# Poissons Ratio (x) = 0.50674 0.17395
# Poissons Ratio (y) = 0.50674 0.17395
# Poissons Ratio (z) = 0.28297 0.28297
#
# Static dielectric constant tensor:
#      x y z
#    x 1.789600 0.000000 0.000000 
#    y 0.000000 1.789600 0.000000 
#    z 0.000000 0.000000 1.659630 
# 
# From -- ./inp_files/2179.got.cif
#   From: 2010.05.17/outbox.cif.g08.bks.cpg/sg85_cif.got.tgz:2179.got - 2010.06.03 19:01:16.
