data_PCOD9544450
_publ_section_title
;
Structure prediction by ZEFSAII (Michael W. Deem and Ramdas Pophale) SiO2 
 PCOD9544450
Probable space group: P 42/M
;
_chemical_formula_sum "Si O2"
_cell_formula_units_Z 34
_cell_length_a 8.148026
_cell_length_b 8.148026
_cell_length_c 21.697076
_cell_angle_alpha 90.000000
_cell_angle_beta 90.000000
_cell_angle_gamma 90.000000
_cell_volume 1440.475986
_symmetry_space_group_name_H-M "P 42/M"
_symmetry_group_IT_number 84
_symmetry_cell_setting 'tetragonal'
loop_
_space_group_symop_operation_xyz
x,y,z
-y,x,1/2+z
-x,-y,z
y,-x,1/2+z
-x,-y,-z
y,-x,1/2-z
x,y,-z
-y,x,1/2-z
loop_
_atom_site_type_symbol
_atom_site_label
_atom_site_fract_x
_atom_site_fract_y
_atom_site_fract_z
Si Si1 0.323269 0.413536 0.932944
Si Si2 0.136431 0.731057 0.098832
Si Si3 0.000000 0.000000 0.500000
Si Si4 0.236914 0.827778 0.679618
Si Si5 0.332813 0.901809 0.191346
O O1 0.500000 0.500000 0.930912
O O2 0.186792 0.557457 0.929685
O O3 0.291247 0.296978 0.875053
O O4 0.306580 0.327259 0.000000
O O5 0.006780 0.714522 0.154509
O O6 0.301646 0.796949 0.130813
O O7 0.062179 0.866610 0.053261
O O8 0.043930 0.805408 0.690053
O O9 0.320098 0.800646 0.745598
O O10 0.500000 0.000000 0.190337
#
# Coordination Sequence:
#
# PCOD9544450 Si02
#       5
#     8   8   2   8   8
#     4  11  26  47  71 105 147 189 237 299 367 440
#     4  12  24  45  70 101 139 185 241 292 357 433
#     4  12  24  40  72 104 130 184 246 296 346 432
#     4  12  25  44  70 101 137 184 238 294 355 436
#     4  12  25  44  67 101 140 181 234 297 365 426
#
# _framework density 23.603307000000001
#
# number of rings (size 3 to 8) (size 9 to 14) (size 15 to 20)
#    0.000    0.235    5.882    3.529    1.647    0.941 
#    0.000    0.588    0.000    0.000    0.000    0.000 
#    0.000    0.000    0.000    0.000    0.000    0.000 
#
# Total GULP energy -189838.846965 kJ/mol
# GULP energy per Si atom -5583.495499 kJ/mol
# Density = 2.354959 g / cm^3
# Si number density = 23.603307 Si / 1000 Ang^3
#
#
#
# Elastic Constant Matrix: (Units=GPa)
#
#
# Indices 1 2 3 4 5 6 
#
# 1 75.8548 -11.2397 21.3820 0.0000 0.0000 16.4639
# 2 -11.2397 75.8548 21.3820 0.0000 0.0000 -16.4639
# 3 21.3820 21.3820 154.6971 0.0000 0.0000 0.0000
# 4 0.0000 0.0000 0.0000 16.5740 0.0000 0.0000
# 5 0.0000 0.0000 0.0000 0.0000 16.5740 0.0000
# 6 16.4639 -16.4639 0.0000 0.0000 0.0000 37.2906
#
#
#
# Elastic Compliance Matrix: (Units=1/GPa)
#
#
# Indices 1 2 3 4 5 6 
#
# 1 0.015408 0.001626 -0.002354 0.000000 0.000000 -0.006085
# 2 0.001626 0.015408 -0.002354 0.000000 0.000000 0.006085
# 3 -0.002354 -0.002354 0.007115 0.000000 0.000000 0.000000
# 4 0.000000 0.000000 0.000000 0.060335 0.000000 0.000000
# 5 0.000000 0.000000 0.000000 0.000000 0.060335 0.000000
# 6 -0.006085 0.006085 0.000000 0.000000 0.000000 0.032189
#
#
# Mechanical properties :
#
#
# Convention : Reuss Voigt Hill
#
# Bulk Modulus (GPa) = 31.48000 41.05058 36.26529
# Shear Modulus (GPa) = 24.09099 32.41324 28.25212
#
# Velocity S-wave (km/s) = 3.19825 3.70976 3.46346
# Velocity P-wave (km/s) = 5.19658 5.98159 5.60285
#
# Compressibility (1/GPa) = 0.03176620
#
# Stress axis : x y z
#
# Youngs Moduli (GPa) = 64.89968 64.89968 140.54595
#
# Poissons Ratio (x) = -0.10553 0.33091
# Poissons Ratio (y) = -0.10553 0.33091
# Poissons Ratio (z) = 0.15281 0.15281
#
# Static dielectric constant tensor:
#      x y z
#    x 1.910380 0.000000 0.000000 
#    y 0.000000 1.910380 0.000000 
#    z 0.000000 0.000000 1.866410 
# 
# From -- ./inp_files/4251.got.cif
#   From: 2010.05.17/outbox.cif.g08.bks.cpg/sg84_3_cif.got.tgz:4251.got - 2010.06.03 18:57:40.
