data_PCOD9544649
_publ_section_title
;
Structure prediction by ZEFSAII (Michael W. Deem and Ramdas Pophale) SiO2 
 PCOD9544649
Probable space group: P 4/N
;
_chemical_formula_sum "Si O2"
_cell_formula_units_Z 42
_cell_length_a 14.834962
_cell_length_b 14.834962
_cell_length_c 9.112755
_cell_angle_alpha 90.000000
_cell_angle_beta 90.000000
_cell_angle_gamma 90.000000
_cell_volume 2005.499558
_symmetry_space_group_name_H-M "P 4/N"
_symmetry_group_IT_number 85
_symmetry_cell_setting 'tetragonal'
loop_
_space_group_symop_operation_xyz
x,y,z
1/2-y,x,z
1/2-x,1/2-y,z
y,1/2-x,z
-x,-y,-z
1/2+y,-x,-z
1/2+x,1/2+y,-z
-y,1/2+x,-z
loop_
_atom_site_type_symbol
_atom_site_label
_atom_site_fract_x
_atom_site_fract_y
_atom_site_fract_z
Si Si1 0.462322 0.615994 0.587915
Si Si2 0.750000 0.250000 0.500000
Si Si3 0.477170 0.049402 0.151645
Si Si4 0.660443 0.870060 0.045293
Si Si5 0.122649 0.164541 0.628249
Si Si6 0.409081 0.822515 0.649255
O O1 0.482375 0.550330 0.720871
O O2 0.551064 0.629760 0.488593
O O3 0.438084 0.717845 0.642430
O O4 0.383686 0.569287 0.492465
O O5 0.684175 0.301552 0.613898
O O6 0.548489 0.123289 0.213572
O O7 0.382384 0.093110 0.102089
O O8 0.500000 0.000000 0.000000
O O9 0.628729 0.767287 0.045524
O O10 0.638481 0.909637 0.206577
O O11 0.225904 0.129987 0.613796
#
# Coordination Sequence:
#
# PCOD9544649 Si02
#       6
#     8   2   8   8   8   8
#     4  11  22  39  60  86 114 150 199 247 293 348
#     4   8  20  44  68  86 112 156 212 254 292 348
#     4  12  24  37  57  90 124 153 190 242 302 357
#     4   9  19  36  56  81 118 157 187 225 284 349
#     4   9  18  34  59  87 115 152 195 239 286 341
#     4  10  22  41  64  86 114 155 200 249 297 347
#
# _framework density 20.942412999999998
#
# number of rings (size 3 to 8) (size 9 to 14) (size 15 to 20)
#    0.000    1.905    0.000    5.143    0.000    3.048 
#    0.000    9.524    0.000    1.143    0.000    0.000 
#    0.000    0.000    0.000    0.000    0.000    0.000 
#
# Total GULP energy -233965.546134 kJ/mol
# GULP energy per Si atom -5570.608241 kJ/mol
# Density = 2.089475 g / cm^3
# Si number density = 20.942413 Si / 1000 Ang^3
#
#
#
# Elastic Constant Matrix: (Units=GPa)
#
#
# Indices 1 2 3 4 5 6 
#
# 1 43.6060 -10.2297 0.6393 0.0000 0.0000 3.1492
# 2 -10.2297 43.6060 0.6393 0.0000 0.0000 -3.1492
# 3 0.6393 0.6393 64.0732 0.0000 0.0000 0.0000
# 4 0.0000 0.0000 0.0000 36.9207 0.0000 0.0000
# 5 0.0000 0.0000 0.0000 0.0000 36.9207 0.0000
# 6 3.1492 -3.1492 0.0000 0.0000 0.0000 30.4140
#
#
#
# Elastic Compliance Matrix: (Units=1/GPa)
#
#
# Indices 1 2 3 4 5 6 
#
# 1 0.024388 0.005585 -0.000299 0.000000 0.000000 -0.001947
# 2 0.005585 0.024388 -0.000299 0.000000 0.000000 0.001947
# 3 -0.000299 -0.000299 0.015613 0.000000 0.000000 0.000000
# 4 0.000000 0.000000 0.000000 0.027085 0.000000 0.000000
# 5 0.000000 0.000000 0.000000 0.000000 0.027085 0.000000
# 6 -0.001947 0.001947 0.000000 0.000000 0.000000 0.033283
#
#
# Mechanical properties :
#
#
# Convention : Reuss Voigt Hill
#
# Bulk Modulus (GPa) = 13.44763 14.82032 14.13397
# Shear Modulus (GPa) = 30.00204 31.53350 30.76777
#
# Velocity S-wave (km/s) = 3.78907 3.88458 3.83712
# Velocity P-wave (km/s) = 5.05746 5.21651 5.13760
#
# Compressibility (1/GPa) = 0.07436256
#
# Stress axis : x y z
#
# Youngs Moduli (GPa) = 41.00411 41.00411 64.04867
#
# Poissons Ratio (x) = -0.22901 0.01915
# Poissons Ratio (y) = -0.22901 0.01915
# Poissons Ratio (z) = 0.01226 0.01226
#
# Static dielectric constant tensor:
#      x y z
#    x 1.836240 0.000000 0.000000 
#    y 0.000000 1.836240 0.000000 
#    z 0.000000 0.000000 1.754750 
# 
# From -- ./inp_files/968.got.cif
#   From: 2010.05.17/outbox.cif.g08.bks.cpg/sg85_cif.got.tgz:968.got - 2010.06.03 19:01:16.
