data_PCOD9544612
_publ_section_title
;
Structure prediction by ZEFSAII (Michael W. Deem and Ramdas Pophale) SiO2 
 PCOD9544612
Probable space group: P 4/N
;
_chemical_formula_sum "Si O2"
_cell_formula_units_Z 56
_cell_length_a 15.069372
_cell_length_b 15.069372
_cell_length_c 12.038391
_cell_angle_alpha 90.000000
_cell_angle_beta 90.000000
_cell_angle_gamma 90.000000
_cell_volume 2733.749727
_symmetry_space_group_name_H-M "P 4/N"
_symmetry_group_IT_number 85
_symmetry_cell_setting 'tetragonal'
loop_
_space_group_symop_operation_xyz
x,y,z
1/2-y,x,z
1/2-x,1/2-y,z
y,1/2-x,z
-x,-y,-z
1/2+y,-x,-z
1/2+x,1/2+y,-z
-y,1/2+x,-z
loop_
_atom_site_type_symbol
_atom_site_label
_atom_site_fract_x
_atom_site_fract_y
_atom_site_fract_z
Si Si1 0.100542 0.532637 0.356720
Si Si2 0.314545 0.113637 0.507037
Si Si3 0.653508 0.354038 0.537085
Si Si4 0.734829 0.422198 0.995737
Si Si5 0.599599 0.010958 0.305360
Si Si6 0.820785 0.315273 0.803121
Si Si7 0.031287 0.910268 0.053748
O O1 0.159283 0.451251 0.403998
O O2 0.079948 0.596777 0.461224
O O3 0.146075 0.601192 0.269266
O O4 0.006188 0.495727 0.320566
O O5 0.364525 0.209180 0.505589
O O6 0.347664 0.058110 0.615543
O O7 0.756384 0.368073 0.512608
O O8 0.608786 0.366442 0.656587
O O9 0.767940 0.347168 0.911310
O O10 0.636588 0.431934 0.950193
O O11 0.728972 0.401981 0.128664
O O12 0.819191 0.487516 0.986564
O O13 0.608164 0.995201 0.175501
O O14 0.750000 0.250000 0.742254
O O15 0.000000 0.000000 0.000000
#
# Coordination Sequence:
#
# PCOD9544612 Si02
#       7
#     8   8   8   8   8   8   8
#     4  11  26  37  64  96 138 169 222 281 343 404
#     4  10  24  47  69  90 131 186 238 276 327 407
#     4  10  24  38  58  97 132 168 217 273 341 400
#     4  10  21  40  64  91 136 170 222 273 335 419
#     4  11  25  41  65  95 135 175 222 280 341 397
#     4  11  19  37  63  98 128 179 214 273 349 414
#     4  11  24  42  65 100 133 174 223 279 344 406
#
# _framework density 20.484683
#
# number of rings (size 3 to 8) (size 9 to 14) (size 15 to 20)
#    0.000    1.429    2.857    3.429   14.000    1.143 
#    0.000    0.000    0.000    0.429    0.000    0.000 
#    0.000    0.000    0.000    0.000    0.000    0.000 
#
# Total GULP energy -311810.669888 kJ/mol
# GULP energy per Si atom -5568.047677 kJ/mol
# Density = 2.043806 g / cm^3
# Si number density = 20.484683 Si / 1000 Ang^3
#
#
#
# Elastic Constant Matrix: (Units=GPa)
#
#
# Indices 1 2 3 4 5 6 
#
# 1 104.6370 44.0869 28.1251 0.0000 0.0000 5.9859
# 2 44.0869 104.6370 28.1251 0.0000 0.0000 -5.9859
# 3 28.1251 28.1251 80.9055 0.0000 0.0000 0.0000
# 4 0.0000 0.0000 0.0000 26.4424 0.0000 0.0000
# 5 0.0000 0.0000 0.0000 0.0000 26.4424 0.0000
# 6 5.9859 -5.9859 0.0000 0.0000 0.0000 36.5203
#
#
#
# Elastic Compliance Matrix: (Units=1/GPa)
#
#
# Indices 1 2 3 4 5 6 
#
# 1 0.012405 -0.004663 -0.002691 0.000000 0.000000 -0.002798
# 2 -0.004663 0.012405 -0.002691 0.000000 0.000000 0.002798
# 3 -0.002691 -0.002691 0.014231 0.000000 0.000000 0.000000
# 4 0.000000 0.000000 0.000000 0.037818 0.000000 0.000000
# 5 0.000000 0.000000 0.000000 0.000000 0.037818 0.000000
# 6 -0.002798 0.002798 0.000000 0.000000 0.000000 0.028299
#
#
# Mechanical properties :
#
#
# Convention : Reuss Voigt Hill
#
# Bulk Modulus (GPa) = 52.77133 54.53932 53.65533
# Shear Modulus (GPa) = 29.51860 30.53719 30.02789
#
# Velocity S-wave (km/s) = 3.80018 3.86519 3.83282
# Velocity P-wave (km/s) = 6.71360 6.82655 6.77031
#
# Compressibility (1/GPa) = 0.01894968
#
# Stress axis : x y z
#
# Youngs Moduli (GPa) = 80.61228 80.61228 70.26808
#
# Poissons Ratio (x) = 0.37592 0.18911
# Poissons Ratio (y) = 0.37592 0.18911
# Poissons Ratio (z) = 0.21695 0.21695
#
# Static dielectric constant tensor:
#      x y z
#    x 1.833360 0.000000 0.000000 
#    y 0.000000 1.833360 0.000000 
#    z 0.000000 0.000000 1.805120 
# 
# From -- ./inp_files/1757.got.cif
#   From: 2010.05.17/outbox.cif.g08.bks.cpg/sg85_cif.got.tgz:1757.got - 2010.06.03 19:01:16.
