data_PCOD9544580
_publ_section_title
;
Structure prediction by ZEFSAII (Michael W. Deem and Ramdas Pophale) SiO2 
 PCOD9544580
Probable space group: P 4/N
;
_chemical_formula_sum "Si O2"
_cell_formula_units_Z 48
_cell_length_a 17.764192
_cell_length_b 17.764192
_cell_length_c 6.338912
_cell_angle_alpha 90.000000
_cell_angle_beta 90.000000
_cell_angle_gamma 90.000000
_cell_volume 2000.348384
_symmetry_space_group_name_H-M "P 4/N"
_symmetry_group_IT_number 85
_symmetry_cell_setting 'tetragonal'
loop_
_space_group_symop_operation_xyz
x,y,z
1/2-y,x,z
1/2-x,1/2-y,z
y,1/2-x,z
-x,-y,-z
1/2+y,-x,-z
1/2+x,1/2+y,-z
-y,1/2+x,-z
loop_
_atom_site_type_symbol
_atom_site_label
_atom_site_fract_x
_atom_site_fract_y
_atom_site_fract_z
Si Si1 0.183802 0.847066 0.434362
Si Si2 0.240312 0.457417 0.116768
Si Si3 0.963141 0.843030 0.475965
Si Si4 0.618780 0.604534 0.125912
Si Si5 0.823105 0.419381 0.087870
Si Si6 0.941704 0.425171 0.714335
O O1 0.273269 0.847026 0.442995
O O2 0.159801 0.825113 0.198942
O O3 0.141500 0.917338 0.548564
O O4 0.227374 0.458339 0.366112
O O5 0.305412 0.412953 0.999231
O O6 0.161436 0.424654 0.028465
O O7 0.246122 0.543124 0.034742
O O8 0.884586 0.855116 0.354653
O O9 0.024611 0.832131 0.290518
O O10 0.996909 0.915280 0.601668
O O11 0.580385 0.525506 0.193376
O O12 0.889199 0.419917 0.918893
#
# Coordination Sequence:
#
# PCOD9544580 Si02
#       6
#     8   8   8   8   8   8
#     4  10  21  35  54  84 123 166 210 258 319 391
#     4  10  23  39  61  92 124 165 218 270 329 389
#     4   9  21  40  62  92 123 156 209 266 321 385
#     4  11  23  40  63  91 127 170 216 273 330 389
#     4   9  20  38  59  86 120 157 204 258 316 384
#     4  10  21  38  63  91 124 168 215 266 324 386
#
# _framework density 23.995820999999999
#
# number of rings (size 3 to 8) (size 9 to 14) (size 15 to 20)
#    0.000    2.167    0.000    1.500    0.000   17.000 
#    0.000    1.667    0.000    4.000    0.000    0.000 
#    0.000    0.000    0.000    0.000    0.000    0.000 
#
# Total GULP energy -267700.549111 kJ/mol
# GULP energy per Si atom -5577.094773 kJ/mol
# Density = 2.394121 g / cm^3
# Si number density = 23.995821 Si / 1000 Ang^3
#
#
#
# Elastic Constant Matrix: (Units=GPa)
#
#
# Indices 1 2 3 4 5 6 
#
# 1 62.5590 25.4223 16.7221 0.0000 0.0000 -4.8580
# 2 25.4223 62.5590 16.7221 0.0000 0.0000 4.8580
# 3 16.7221 16.7221 111.0442 0.0000 0.0000 0.0000
# 4 0.0000 0.0000 0.0000 26.4153 0.0000 0.0000
# 5 0.0000 0.0000 0.0000 0.0000 26.4153 0.0000
# 6 -4.8580 4.8580 0.0000 0.0000 0.0000 28.1290
#
#
#
# Elastic Compliance Matrix: (Units=1/GPa)
#
#
# Indices 1 2 3 4 5 6 
#
# 1 0.020129 -0.008073 -0.001816 0.000000 0.000000 0.004871
# 2 -0.008073 0.020129 -0.001816 0.000000 0.000000 -0.004871
# 3 -0.001816 -0.001816 0.009552 0.000000 0.000000 0.000000
# 4 0.000000 0.000000 0.000000 0.037857 0.000000 0.000000
# 5 0.000000 0.000000 0.000000 0.000000 0.037857 0.000000
# 6 0.004871 -0.004871 0.000000 0.000000 0.000000 0.037233
#
#
# Mechanical properties :
#
#
# Convention : Reuss Voigt Hill
#
# Bulk Modulus (GPa) = 37.87523 39.32166 38.59845
# Shear Modulus (GPa) = 25.64561 28.01165 26.82863
#
# Velocity S-wave (km/s) = 3.27273 3.42037 3.34736
# Velocity P-wave (km/s) = 5.48629 5.65871 5.57316
#
# Compressibility (1/GPa) = 0.02640248
#
# Stress axis : x y z
#
# Youngs Moduli (GPa) = 49.67958 49.67958 104.68768
#
# Poissons Ratio (x) = 0.40105 0.19006
# Poissons Ratio (y) = 0.40105 0.19006
# Poissons Ratio (z) = 0.09019 0.09019
#
# Static dielectric constant tensor:
#      x y z
#    x 1.995930 0.000000 0.000000 
#    y 0.000000 1.995930 0.000000 
#    z 0.000000 0.000000 1.999250 
# 
# From -- ./inp_files/466.got.cif
#   From: 2010.05.17/outbox.cif.g08.bks.cpg/sg85_cif.got.tgz:466.got - 2010.06.03 19:01:16.
