data_PCOD9544097
_publ_section_title
;
Structure prediction by ZEFSAII (Michael W. Deem and Ramdas Pophale) SiO2 
 PCOD9544097
Probable space group: P 42/M
;
_chemical_formula_sum "Si O2"
_cell_formula_units_Z 64
_cell_length_a 20.782389
_cell_length_b 20.782389
_cell_length_c 7.482133
_cell_angle_alpha 90.000000
_cell_angle_beta 90.000000
_cell_angle_gamma 90.000000
_cell_volume 3231.590799
_symmetry_space_group_name_H-M "P 42/M"
_symmetry_group_IT_number 84
_symmetry_cell_setting 'tetragonal'
loop_
_space_group_symop_operation_xyz
x,y,z
-y,x,1/2+z
-x,-y,z
y,-x,1/2+z
-x,-y,-z
y,-x,1/2-z
x,y,-z
-y,x,1/2-z
loop_
_atom_site_type_symbol
_atom_site_label
_atom_site_fract_x
_atom_site_fract_y
_atom_site_fract_z
Si Si1 0.240259 0.917126 0.701580
Si Si2 0.824628 0.868344 0.217699
Si Si3 0.322570 0.795417 0.788041
Si Si4 0.217266 0.701511 0.791330
Si Si5 0.357545 0.990185 0.280950
Si Si6 0.900567 0.981992 0.201259
Si Si7 0.868270 0.557193 0.214513
Si Si8 0.589542 0.870679 0.280606
O O1 0.222957 0.936149 0.500000
O O2 0.178215 0.882661 0.783800
O O3 0.289132 0.856389 0.695479
O O4 0.285670 0.971809 0.783389
O O5 0.758120 0.836354 0.275945
O O6 0.841053 0.940912 0.274375
O O7 0.825496 0.867388 0.000000
O O8 0.283723 0.732850 0.721714
O O9 0.397932 0.807304 0.760805
O O10 0.309680 0.801104 0.000000
O O11 0.185614 0.637069 0.716273
O O12 0.228584 0.688774 0.000000
O O13 0.355348 0.988719 0.500000
O O14 0.406731 0.933636 0.223462
O O15 0.381906 0.060044 0.227124
O O16 0.958957 0.930345 0.194068
O O17 0.886610 0.002832 0.000000
O O18 0.864151 0.484111 0.278157
O O19 0.872582 0.554944 0.000000
O O20 0.590085 0.870263 0.500000
#
# Coordination Sequence:
#
# PCOD9544097 Si02
#       8
#     8   8   8   8   8   8   8   8
#     4   8  14  26  43  61  79 105 143 177 206 244
#     4   9  18  31  46  63  83 108 140 178 218 263
#     4   9  16  27  42  60  83 111 143 174 205 241
#     4   9  18  30  45  65  88 114 140 172 212 250
#     4   8  13  22  40  64  85 107 138 175 206 235
#     4  10  20  33  47  62  79 102 136 181 231 276
#     4   9  16  27  45  65  84 112 147 177 206 245
#     4   9  16  26  42  66  91 111 139 176 211 250
#
# _framework density 19.804487999999999
#
# number of rings (size 3 to 8) (size 9 to 14) (size 15 to 20)
#    0.000    3.125    0.000    2.250    0.000    4.000 
#    0.000    3.125    0.000   12.000    0.000    0.000 
#    0.000    0.500    0.000    6.250    0.000    0.000 
#
# Total GULP energy -356863.524579 kJ/mol
# GULP energy per Si atom -5575.992572 kJ/mol
# Density = 1.975941 g / cm^3
# Si number density = 19.804488 Si / 1000 Ang^3
#
#
#
# Elastic Constant Matrix: (Units=GPa)
#
#
# Indices 1 2 3 4 5 6 
#
# 1 82.3739 79.7870 1.9267 0.0000 0.0000 -5.4464
# 2 79.7870 82.3739 1.9267 0.0000 0.0000 5.4464
# 3 1.9267 1.9267 61.4507 0.0000 0.0000 0.0000
# 4 0.0000 0.0000 0.0000 14.0962 0.0000 0.0000
# 5 0.0000 0.0000 0.0000 0.0000 14.0962 0.0000
# 6 -5.4464 5.4464 0.0000 0.0000 0.0000 26.0857
#
#
#
# Elastic Compliance Matrix: (Units=1/GPa)
#
#
# Indices 1 2 3 4 5 6 
#
# 1 1.602637 -1.596466 -0.000193 0.000000 0.000000 0.667940
# 2 -1.596466 1.602637 -0.000193 0.000000 0.000000 -0.667940
# 3 -0.000193 -0.000193 0.016285 0.000000 0.000000 0.000000
# 4 0.000000 0.000000 0.000000 0.070941 0.000000 0.000000
# 5 0.000000 0.000000 0.000000 0.000000 0.070941 0.000000
# 6 0.667940 -0.667940 0.000000 0.000000 0.000000 0.317253
#
#
# Mechanical properties :
#
#
# Convention : Reuss Voigt Hill
#
# Bulk Modulus (GPa) = 35.90150 43.71993 39.81071
# Shear Modulus (GPa) = 0.72636 20.35949 10.54292
#
# Velocity S-wave (km/s) = 0.60627 3.20976 2.30977
# Velocity P-wave (km/s) = 4.31942 5.98836 5.22101
#
# Compressibility (1/GPa) = 0.02785399
#
# Stress axis : x y z
#
# Youngs Moduli (GPa) = 0.62397 0.62397 61.40490
#
# Poissons Ratio (x) = 0.99615 0.01188
# Poissons Ratio (y) = 0.99615 0.01188
# Poissons Ratio (z) = 0.00012 0.00012
#
# Static dielectric constant tensor:
#      x y z
#    x 1.722900 0.000000 0.000000 
#    y 0.000000 1.722900 0.000000 
#    z 0.000000 0.000000 1.755320 
# 
# From -- ./inp_files/1370.got.cif
#   From: 2010.05.17/outbox.cif.g08.bks.cpg/sg84_1_cif.got.tgz:1370.got - 2010.06.03 18:57:40.
