data_PCOD9544767
_publ_section_title
;
Structure prediction by ZEFSAII (Michael W. Deem and Ramdas Pophale) SiO2 
 PCOD9544767
Probable space group: P 4/N
;
_chemical_formula_sum "Si O2"
_cell_formula_units_Z 42
_cell_length_a 8.287145
_cell_length_b 8.287145
_cell_length_c 28.395376
_cell_angle_alpha 90.000000
_cell_angle_beta 90.000000
_cell_angle_gamma 90.000000
_cell_volume 1950.102771
_symmetry_space_group_name_H-M "P 4/N"
_symmetry_group_IT_number 85
_symmetry_cell_setting 'tetragonal'
loop_
_space_group_symop_operation_xyz
x,y,z
1/2-y,x,z
1/2-x,1/2-y,z
y,1/2-x,z
-x,-y,-z
1/2+y,-x,-z
1/2+x,1/2+y,-z
-y,1/2+x,-z
loop_
_atom_site_type_symbol
_atom_site_label
_atom_site_fract_x
_atom_site_fract_y
_atom_site_fract_z
Si Si1 0.157320 0.502828 0.664063
Si Si2 0.090968 0.474351 0.848172
Si Si3 0.449935 0.431350 0.949926
Si Si4 0.670121 0.491056 0.576897
Si Si5 0.250000 0.750000 0.500000
Si Si6 0.510711 0.869811 0.752573
O O1 0.050657 0.341016 0.657647
O O2 0.097997 0.630308 0.625609
O O3 0.122001 0.566284 0.716349
O O4 0.034481 0.286762 0.844589
O O5 0.023919 0.527975 0.899595
O O6 0.034184 0.586577 0.805936
O O7 0.260684 0.468723 0.948717
O O8 0.500000 0.500000 0.000000
O O9 0.852812 0.555852 0.574433
O O10 0.649150 0.367148 0.534085
O O11 0.541607 0.681442 0.743910
#
# Coordination Sequence:
#
# PCOD9544767 Si02
#       6
#     8   8   8   8   2   8
#     4  11  24  42  65  92 122 159 203 250 303 363
#     4   9  19  37  58  80 109 148 194 241 292 352
#     4   9  19  35  54  78 110 147 189 239 292 349
#     4  11  24  42  66  96 129 166 209 255 302 357
#     4  12  24  44  68  96 132 172 208 252 308 362
#     4  11  24  39  57  86 121 154 192 242 299 358
#
# _framework density 21.537329
#
# number of rings (size 3 to 8) (size 9 to 14) (size 15 to 20)
#    0.000    1.714    0.000    5.143    0.000    9.524 
#    0.000    7.619    0.000    0.000    0.000    0.000 
#    0.000    0.000    0.000    0.000    0.000    0.000 
#
# Total GULP energy -234742.258842 kJ/mol
# GULP energy per Si atom -5589.101401 kJ/mol
# Density = 2.148831 g / cm^3
# Si number density = 21.537329 Si / 1000 Ang^3
#
#
#
# Elastic Constant Matrix: (Units=GPa)
#
#
# Indices 1 2 3 4 5 6 
#
# 1 53.7811 18.0825 35.2478 0.0000 0.0000 1.5615
# 2 18.0825 53.7811 35.2478 0.0000 0.0000 -1.5615
# 3 35.2478 35.2478 165.0585 0.0000 0.0000 0.0000
# 4 0.0000 0.0000 0.0000 38.8756 0.0000 0.0000
# 5 0.0000 0.0000 0.0000 0.0000 38.8756 0.0000
# 6 1.5615 -1.5615 0.0000 0.0000 0.0000 28.5952
#
#
#
# Elastic Compliance Matrix: (Units=1/GPa)
#
#
# Indices 1 2 3 4 5 6 
#
# 1 0.022875 -0.005272 -0.003759 0.000000 0.000000 -0.001537
# 2 -0.005272 0.022875 -0.003759 0.000000 0.000000 0.001537
# 3 -0.003759 -0.003759 0.007664 0.000000 0.000000 0.000000
# 4 0.000000 0.000000 0.000000 0.025723 0.000000 0.000000
# 5 0.000000 0.000000 0.000000 0.000000 0.025723 0.000000
# 6 -0.001537 0.001537 0.000000 0.000000 0.000000 0.035139
#
#
# Mechanical properties :
#
#
# Convention : Reuss Voigt Hill
#
# Bulk Modulus (GPa) = 35.92821 49.97521 42.95171
# Shear Modulus (GPa) = 28.59493 33.53878 31.06685
#
# Velocity S-wave (km/s) = 3.64770 3.95047 3.80210
# Velocity P-wave (km/s) = 5.87018 6.63797 6.26585
#
# Compressibility (1/GPa) = 0.02783328
#
# Stress axis : x y z
#
# Youngs Moduli (GPa) = 43.71634 43.71634 130.48164
#
# Poissons Ratio (x) = 0.23047 0.49048
# Poissons Ratio (y) = 0.23047 0.49048
# Poissons Ratio (z) = 0.16433 0.16433
#
# Static dielectric constant tensor:
#      x y z
#    x 1.777160 0.000000 0.000000 
#    y 0.000000 1.777160 0.000000 
#    z 0.000000 0.000000 1.788230 
# 
# From -- ./inp_files/2381.got.cif
#   From: 2010.05.17/outbox.cif.g08.bks.cpg/sg85_cif.got.tgz:2381.got - 2010.06.03 19:01:16.
