data_PCOD9544125
_publ_section_title
;
Structure prediction by ZEFSAII (Michael W. Deem and Ramdas Pophale) SiO2 
 PCOD9544125
Probable space group: P 42/M
;
_chemical_formula_sum "Si O2"
_cell_formula_units_Z 40
_cell_length_a 16.179068
_cell_length_b 16.179068
_cell_length_c 8.871352
_cell_angle_alpha 90.000000
_cell_angle_beta 90.000000
_cell_angle_gamma 90.000000
_cell_volume 2322.184983
_symmetry_space_group_name_H-M "P 42/M"
_symmetry_group_IT_number 84
_symmetry_cell_setting 'tetragonal'
loop_
_space_group_symop_operation_xyz
x,y,z
-y,x,1/2+z
-x,-y,z
y,-x,1/2+z
-x,-y,-z
y,-x,1/2-z
x,y,-z
-y,x,1/2-z
loop_
_atom_site_type_symbol
_atom_site_label
_atom_site_fract_x
_atom_site_fract_y
_atom_site_fract_z
Si Si1 0.612981 0.556443 0.681322
Si Si2 0.244915 0.018574 0.819909
Si Si3 0.586398 0.041683 0.319392
Si Si4 0.212226 0.361595 0.319059
Si Si5 0.839337 0.821905 0.680517
O O1 0.605634 0.464252 0.748040
O O2 0.604342 0.553809 0.500000
O O3 0.700005 0.598627 0.719382
O O4 0.200003 0.100104 0.761764
O O5 0.335215 0.006934 0.747773
O O6 0.193440 0.935549 0.780591
O O7 0.253368 0.020051 0.000000
O O8 0.591872 0.041313 0.500000
O O9 0.593890 0.135236 0.259654
O O10 0.500000 0.000000 0.274440
O O11 0.200663 0.367518 0.500000
O O12 0.206330 0.264291 0.280699
O O13 0.833382 0.833462 0.500000
#
# Coordination Sequence:
#
# PCOD9544125 Si02
#       5
#     8   8   8   8   8
#     4  10  20  35  54  77 106 138 175 217 261 309
#     4  10  21  36  55  79 106 138 175 215 259 307
#     4  10  21  36  55  79 106 137 173 214 260 309
#     4   9  20  37  55  77 106 139 174 215 260 308
#     4   9  19  36  54  75 106 138 171 214 260 306
#
# _framework density 17.225155999999998
#
# number of rings (size 3 to 8) (size 9 to 14) (size 15 to 20)
#    0.000    2.400    0.000    3.600    0.000    9.200 
#    0.000    8.000    0.000    0.000    0.000    0.000 
#    0.000    0.000    0.000    0.000    0.000    0.000 
#
# Total GULP energy -223227.448404 kJ/mol
# GULP energy per Si atom -5580.686210 kJ/mol
# Density = 1.718595 g / cm^3
# Si number density = 17.225156 Si / 1000 Ang^3
#
#
#
# Elastic Constant Matrix: (Units=GPa)
#
#
# Indices 1 2 3 4 5 6 
#
# 1 160.8697 125.8031 65.3200 0.0000 0.0000 17.9999
# 2 125.8031 160.8697 65.3200 0.0000 0.0000 -17.9999
# 3 65.3200 65.3200 51.5022 0.0000 0.0000 0.0000
# 4 0.0000 0.0000 0.0000 22.4674 0.0000 0.0000
# 5 0.0000 0.0000 0.0000 0.0000 22.4674 0.0000
# 6 17.9999 -17.9999 0.0000 0.0000 0.0000 28.2189
#
#
#
# Elastic Compliance Matrix: (Units=1/GPa)
#
#
# Indices 1 2 3 4 5 6 
#
# 1 0.045443 -0.037177 -0.010483 0.000000 0.000000 -0.052701
# 2 -0.037177 0.045443 -0.010483 0.000000 0.000000 0.052701
# 3 -0.010483 -0.010483 0.046008 0.000000 0.000000 0.000000
# 4 0.000000 0.000000 0.000000 0.044509 0.000000 0.000000
# 5 0.000000 0.000000 0.000000 0.000000 0.044509 0.000000
# 6 -0.052701 0.052701 0.000000 0.000000 0.000000 0.102669
#
#
# Mechanical properties :
#
#
# Convention : Reuss Voigt Hill
#
# Bulk Modulus (GPa) = 48.52813 98.45864 73.49338
# Shear Modulus (GPa) = 11.06835 22.41734 16.74285
#
# Velocity S-wave (km/s) = 2.53764 3.61145 3.12107
# Velocity P-wave (km/s) = 6.06796 8.64141 7.46640
#
# Compressibility (1/GPa) = 0.02060661
#
# Stress axis : x y z
#
# Youngs Moduli (GPa) = 22.00557 22.00557 21.73517
#
# Poissons Ratio (x) = 0.81811 0.22786
# Poissons Ratio (y) = 0.81811 0.22786
# Poissons Ratio (z) = 0.23069 0.23069
#
# Static dielectric constant tensor:
#      x y z
#    x 1.562580 0.000000 0.000000 
#    y 0.000000 1.562580 0.000000 
#    z 0.000000 0.000000 1.577210 
# 
# From -- ./inp_files/742.got.cif
#   From: 2010.05.17/outbox.cif.g08.bks.cpg/sg84_1_cif.got.tgz:742.got - 2010.06.03 18:57:40.
