data_PCOD9544149
_publ_section_title
;
Structure prediction by ZEFSAII (Michael W. Deem and Ramdas Pophale) SiO2 
 PCOD9544149
Probable space group: P 42/M
;
_chemical_formula_sum "Si O2"
_cell_formula_units_Z 40
_cell_length_a 16.102899
_cell_length_b 16.102899
_cell_length_c 8.737664
_cell_angle_alpha 90.000000
_cell_angle_beta 90.000000
_cell_angle_gamma 90.000000
_cell_volume 2265.705601
_symmetry_space_group_name_H-M "P 42/M"
_symmetry_group_IT_number 84
_symmetry_cell_setting 'tetragonal'
loop_
_space_group_symop_operation_xyz
x,y,z
-y,x,1/2+z
-x,-y,z
y,-x,1/2+z
-x,-y,-z
y,-x,1/2-z
x,y,-z
-y,x,1/2-z
loop_
_atom_site_type_symbol
_atom_site_label
_atom_site_fract_x
_atom_site_fract_y
_atom_site_fract_z
Si Si1 0.357846 0.777291 0.182590
Si Si2 0.021551 0.759381 0.817797
Si Si3 0.615865 0.555337 0.817130
Si Si4 0.163574 0.186966 0.182635
Si Si5 0.410959 0.963265 0.816220
O O1 0.402081 0.700804 0.264584
O O2 0.263059 0.788611 0.237320
O O3 0.402002 0.865378 0.219211
O O4 0.360623 0.765224 0.000000
O O5 0.099298 0.801175 0.736076
O O6 0.933914 0.803126 0.777579
O O7 0.010253 0.664313 0.765575
O O8 0.032567 0.763911 0.000000
O O9 0.606115 0.463149 0.747378
O O10 0.610558 0.551010 0.000000
O O11 0.171392 0.196115 0.000000
O O12 0.500000 0.000000 0.773177
O O13 0.400839 0.972196 0.000000
#
# Coordination Sequence:
#
# PCOD9544149 Si02
#       5
#     8   8   8   8   8
#     4  10  20  36  57  81 110 143 181 225 273 325
#     4  10  21  36  55  80 109 142 181 225 272 322
#     4  11  22  38  58  81 111 145 184 228 275 325
#     4  10  21  37  56  79 109 144 182 225 273 325
#     4   9  19  36  57  80 108 142 179 220 268 323
#
# _framework density 17.654544999999999
#
# number of rings (size 3 to 8) (size 9 to 14) (size 15 to 20)
#    0.000    2.000    0.000    4.200    0.000    5.600 
#    0.000    8.000    0.000    0.000    0.000    0.000 
#    0.000    0.000    0.000    0.000    0.000    0.000 
#
# Total GULP energy -223409.951585 kJ/mol
# GULP energy per Si atom -5585.248790 kJ/mol
# Density = 1.761436 g / cm^3
# Si number density = 17.654545 Si / 1000 Ang^3
#
#
#
# Elastic Constant Matrix: (Units=GPa)
#
#
# Indices 1 2 3 4 5 6 
#
# 1 112.2467 76.4859 51.1220 0.0000 0.0000 17.5867
# 2 76.4859 112.2467 51.1220 0.0000 0.0000 -17.5867
# 3 51.1220 51.1220 84.9767 0.0000 0.0000 0.0000
# 4 0.0000 0.0000 0.0000 29.7528 0.0000 0.0000
# 5 0.0000 0.0000 0.0000 0.0000 29.7528 0.0000
# 6 17.5867 -17.5867 0.0000 0.0000 0.0000 28.2870
#
#
#
# Elastic Compliance Matrix: (Units=1/GPa)
#
#
# Indices 1 2 3 4 5 6 
#
# 1 0.039921 -0.032061 -0.004729 0.000000 0.000000 -0.044753
# 2 -0.032061 0.039921 -0.004729 0.000000 0.000000 0.044753
# 3 -0.004729 -0.004729 0.017458 0.000000 0.000000 0.000000
# 4 0.000000 0.000000 0.000000 0.033610 0.000000 0.000000
# 5 0.000000 0.000000 0.000000 0.000000 0.033610 0.000000
# 6 -0.044753 0.044753 0.000000 0.000000 0.000000 0.090999
#
#
# Mechanical properties :
#
#
# Convention : Reuss Voigt Hill
#
# Bulk Modulus (GPa) = 70.11087 74.10331 72.10709
# Shear Modulus (GPa) = 14.56413 26.27455 20.41934
#
# Velocity S-wave (km/s) = 2.87531 3.86198 3.40458
# Velocity P-wave (km/s) = 7.12896 7.87094 7.50912
#
# Compressibility (1/GPa) = 0.01426312
#
# Stress axis : x y z
#
# Youngs Moduli (GPa) = 25.04963 25.04963 57.28192
#
# Poissons Ratio (x) = 0.80310 0.27087
# Poissons Ratio (y) = 0.80310 0.27087
# Poissons Ratio (z) = 0.11845 0.11845
#
# Static dielectric constant tensor:
#      x y z
#    x 1.574670 0.000000 0.000000 
#    y 0.000000 1.574670 0.000000 
#    z 0.000000 0.000000 1.587810 
# 
# From -- ./inp_files/743.got.cif
#   From: 2010.05.17/outbox.cif.g08.bks.cpg/sg84_1_cif.got.tgz:743.got - 2010.06.03 18:57:40.
