data_PCOD9544990
_publ_section_title
;
Structure prediction by ZEFSAII (Michael W. Deem and Ramdas Pophale) SiO2 
 PCOD9544990
Probable space group: P 42/N
;
_chemical_formula_sum "Si O2"
_cell_formula_units_Z 32
_cell_length_a 7.199504
_cell_length_b 7.199504
_cell_length_c 21.476967
_cell_angle_alpha 90.000000
_cell_angle_beta 90.000000
_cell_angle_gamma 90.000000
_cell_volume 1113.212577
_symmetry_space_group_name_H-M "P 42/N"
_symmetry_group_IT_number 86
_space_group.IT_coordinate_system_code '2'
_symmetry_cell_setting 'tetragonal'
loop_
_space_group_symop_operation_xyz
x,y,z
-y,1/2+x,1/2+z
1/2-x,1/2-y,z
1/2+y,-x,1/2+z
-x,-y,-z
y,1/2-x,1/2-z
1/2+x,1/2+y,-z
1/2-y,x,1/2-z
loop_
_atom_site_type_symbol
_atom_site_label
_atom_site_fract_x
_atom_site_fract_y
_atom_site_fract_z
Si Si1 0.531005 0.990357 0.896773
Si Si2 0.938059 0.410309 0.371921
Si Si3 0.983876 0.088924 0.739295
Si Si4 0.309252 0.464715 0.962272
O O1 0.557861 0.217058 0.886494
O O2 0.747579 0.958980 0.910048
O O3 0.470775 0.919337 0.828898
O O4 0.390691 0.507002 0.892885
O O5 0.967841 0.366451 0.299702
O O6 0.934327 0.110123 0.548238
O O7 0.008573 0.310285 0.746971
O O8 0.250000 0.250000 0.967998
O O9 0.500000 0.500000 0.000000
#
# Coordination Sequence:
#
# PCOD9544990 Si02
#       4
#     8   8   8   8
#     4   9  17  30  53  87 117 161 217 285 361 435
#     4   9  17  30  53  86 118 158 219 281 354 439
#     4   9  14  26  52  81 114 152 204 277 356 434
#     4  10  20  36  58  85 123 174 232 294 360 440
#
# _framework density 28.745633999999999
#
# number of rings (size 3 to 8) (size 9 to 14) (size 15 to 20)
#    0.000    2.750    2.500    0.000    0.000    1.000 
#    0.000    0.000    5.500    0.000    0.000    0.000 
#    0.000    0.000    0.000    0.000    0.000    0.000 
#
# Total GULP energy -178482.081871 kJ/mol
# GULP energy per Si atom -5577.565058 kJ/mol
# Density = 2.868021 g / cm^3
# Si number density = 28.745634 Si / 1000 Ang^3
#
#
#
# Elastic Constant Matrix: (Units=GPa)
#
#
# Indices 1 2 3 4 5 6 
#
# 1 123.0536 33.4099 55.2345 0.0000 0.0000 2.7520
# 2 33.4099 123.0536 55.2345 0.0000 0.0000 -2.7520
# 3 55.2345 55.2345 117.7910 0.0000 0.0000 0.0000
# 4 0.0000 0.0000 0.0000 29.9883 0.0000 0.0000
# 5 0.0000 0.0000 0.0000 0.0000 29.9883 0.0000
# 6 2.7520 -2.7520 0.0000 0.0000 0.0000 17.7602
#
#
#
# Elastic Compliance Matrix: (Units=1/GPa)
#
#
# Indices 1 2 3 4 5 6 
#
# 1 0.010408 -0.000854 -0.004480 0.000000 0.000000 -0.001745
# 2 -0.000854 0.010408 -0.004480 0.000000 0.000000 0.001745
# 3 -0.004480 -0.004480 0.012691 0.000000 0.000000 0.000000
# 4 0.000000 0.000000 0.000000 0.033346 0.000000 0.000000
# 5 0.000000 0.000000 0.000000 0.000000 0.033346 0.000000
# 6 -0.001745 0.001745 0.000000 0.000000 0.000000 0.056846
#
#
# Mechanical properties :
#
#
# Convention : Reuss Voigt Hill
#
# Bulk Modulus (GPa) = 72.04998 72.40622 72.22810
# Shear Modulus (GPa) = 27.57816 30.21534 28.89675
#
# Velocity S-wave (km/s) = 3.10076 3.24563 3.17402
# Velocity P-wave (km/s) = 6.15944 6.26807 6.21399
#
# Compressibility (1/GPa) = 0.01387925
#
# Stress axis : x y z
#
# Youngs Moduli (GPa) = 96.07557 96.07557 78.79341
#
# Poissons Ratio (x) = 0.08204 0.35302
# Poissons Ratio (y) = 0.08204 0.35302
# Poissons Ratio (z) = 0.43045 0.43045
#
# Static dielectric constant tensor:
#      x y z
#    x 2.239050 0.000000 0.000000 
#    y 0.000000 2.239050 0.000000 
#    z 0.000000 0.000000 2.364240 
# 
# From -- ./inp_files/3812.got.cif
#   From: 2010.05.17/outbox.cif.g08.bks.cpg/sg86_2_cif.got.tgz:3812.got - 2010.06.03 19:03:11.
