data_PCOD9544950
_publ_section_title
;
Structure prediction by ZEFSAII (Michael W. Deem and Ramdas Pophale) SiO2 
 PCOD9544950
Probable space group: P 42/N
;
_chemical_formula_sum "Si O2"
_cell_formula_units_Z 44
_cell_length_a 9.073343
_cell_length_b 9.073343
_cell_length_c 27.991751
_cell_angle_alpha 90.000000
_cell_angle_beta 90.000000
_cell_angle_gamma 90.000000
_cell_volume 2304.436386
_symmetry_space_group_name_H-M "P 42/N"
_symmetry_group_IT_number 86
_space_group.IT_coordinate_system_code '2'
_symmetry_cell_setting 'tetragonal'
loop_
_space_group_symop_operation_xyz
x,y,z
-y,1/2+x,1/2+z
1/2-x,1/2-y,z
1/2+y,-x,1/2+z
-x,-y,-z
y,1/2-x,1/2-z
1/2+x,1/2+y,-z
1/2-y,x,1/2-z
loop_
_atom_site_type_symbol
_atom_site_label
_atom_site_fract_x
_atom_site_fract_y
_atom_site_fract_z
Si Si1 0.571423 0.728597 0.148039
Si Si2 0.080292 0.275692 0.028222
Si Si3 0.787845 0.504209 0.251921
Si Si4 0.750000 0.250000 0.675065
Si Si5 0.887363 0.065590 0.091798
Si Si6 0.057775 0.069646 0.566952
O O1 0.750000 0.750000 0.160765
O O2 0.462903 0.709143 0.192469
O O3 0.556789 0.585857 0.114835
O O4 0.538610 0.873487 0.118080
O O5 0.250000 0.250000 0.036781
O O6 0.983742 0.146690 0.051768
O O7 0.038310 0.428940 0.052845
O O8 0.061095 0.311576 0.972032
O O9 0.629311 0.585865 0.249351
O O10 0.801479 0.381116 0.211015
O O11 0.824860 0.362736 0.637249
O O12 0.730618 0.018247 0.068889
#
# Coordination Sequence:
#
# PCOD9544950 Si02
#       6
#     8   8   8   4   8   8
#     4  10  19  37  64  89 110 154 207 253 288 349
#     4  11  23  39  59  91 125 158 192 245 300 358
#     4  11  20  37  62  87 114 147 201 255 292 348
#     4  12  22  38  64  88 116 160 202 244 310 364
#     4  11  21  41  63  85 120 162 199 241 307 363
#     4  10  22  40  64  87 119 162 205 242 291 360
#
# _framework density 19.093606999999999
#
# number of rings (size 3 to 8) (size 9 to 14) (size 15 to 20)
#    0.000    1.273    5.455    2.727    0.000    2.909 
#    3.273    1.818    0.000    0.000    0.000    0.000 
#    0.000    0.000    0.000    0.000    0.000    0.000 
#
# Total GULP energy -245256.020273 kJ/mol
# GULP energy per Si atom -5574.000461 kJ/mol
# Density = 1.905015 g / cm^3
# Si number density = 19.093607 Si / 1000 Ang^3
#
#
#
# Elastic Constant Matrix: (Units=GPa)
#
#
# Indices 1 2 3 4 5 6 
#
# 1 37.8168 18.2198 11.5346 0.0000 0.0000 -9.1573
# 2 18.2198 37.8168 11.5346 0.0000 0.0000 9.1573
# 3 11.5346 11.5346 73.6382 0.0000 0.0000 0.0000
# 4 0.0000 0.0000 0.0000 22.2011 0.0000 0.0000
# 5 0.0000 0.0000 0.0000 0.0000 22.2011 0.0000
# 6 -9.1573 9.1573 0.0000 0.0000 0.0000 16.0399
#
#
#
# Elastic Compliance Matrix: (Units=1/GPa)
#
#
# Indices 1 2 3 4 5 6 
#
# 1 0.064237 -0.045161 -0.002988 0.000000 0.000000 0.062457
# 2 -0.045161 0.064237 -0.002988 0.000000 0.000000 -0.062457
# 3 -0.002988 -0.002988 0.014516 0.000000 0.000000 0.000000
# 4 0.000000 0.000000 0.000000 0.045043 0.000000 0.000000
# 5 0.000000 0.000000 0.000000 0.000000 0.045043 0.000000
# 6 0.062457 -0.062457 0.000000 0.000000 0.000000 0.133659
#
#
# Mechanical properties :
#
#
# Convention : Reuss Voigt Hill
#
# Bulk Modulus (GPa) = 24.56082 25.76108 25.16095
# Shear Modulus (GPa) = 10.36096 19.28725 14.82410
#
# Velocity S-wave (km/s) = 2.33199 3.18172 2.78940
# Velocity P-wave (km/s) = 4.48801 5.19799 4.85599
#
# Compressibility (1/GPa) = 0.04071525
#
# Stress axis : x y z
#
# Youngs Moduli (GPa) = 15.56738 15.56738 68.88964
#
# Poissons Ratio (x) = 0.70304 0.20584
# Poissons Ratio (y) = 0.70304 0.20584
# Poissons Ratio (z) = 0.04651 0.04651
#
# Static dielectric constant tensor:
#      x y z
#    x 1.691990 0.000000 0.000000 
#    y 0.000000 1.691990 0.000000 
#    z 0.000000 0.000000 1.743820 
# 
# From -- ./inp_files/5042.got.cif
#   From: 2010.05.17/outbox.cif.g08.bks.cpg/sg86_3_cif.got.tgz:5042.got - 2010.06.03 19:03:11.
