data_PCOD9544515
_publ_section_title
;
Structure prediction by ZEFSAII (Michael W. Deem and Ramdas Pophale) SiO2 
 PCOD9544515
Probable space group: P 4/N
;
_chemical_formula_sum "Si O2"
_cell_formula_units_Z 40
_cell_length_a 15.616956
_cell_length_b 15.616956
_cell_length_c 6.619491
_cell_angle_alpha 90.000000
_cell_angle_beta 90.000000
_cell_angle_gamma 90.000000
_cell_volume 1614.423124
_symmetry_space_group_name_H-M "P 4/N"
_symmetry_group_IT_number 85
_symmetry_cell_setting 'tetragonal'
loop_
_space_group_symop_operation_xyz
x,y,z
1/2-y,x,z
1/2-x,1/2-y,z
y,1/2-x,z
-x,-y,-z
1/2+y,-x,-z
1/2+x,1/2+y,-z
-y,1/2+x,-z
loop_
_atom_site_type_symbol
_atom_site_label
_atom_site_fract_x
_atom_site_fract_y
_atom_site_fract_z
Si Si1 0.765656 0.051877 0.861584
Si Si2 0.387649 0.223037 0.875558
Si Si3 0.858034 0.951838 0.502559
Si Si4 0.316376 0.845259 0.618154
Si Si5 0.530778 0.398003 0.354629
O O1 0.803966 0.006107 0.661172
O O2 0.807959 0.145474 0.824367
O O3 0.664213 0.056624 0.826267
O O4 0.784825 0.983463 0.034376
O O5 0.347380 0.315203 0.932735
O O6 0.398666 0.205068 0.637240
O O7 0.929264 0.903602 0.633731
O O8 0.919826 0.011766 0.361582
O O9 0.344663 0.784260 0.425791
O O10 0.354726 0.936573 0.564604
#
# Coordination Sequence:
#
# PCOD9544515 Si02
#       5
#     8   8   8   8   8
#     4  10  19  36  58  83 115 152 195 244 303 367
#     4  11  24  39  57  85 120 162 210 252 301 367
#     4  10  20  37  57  82 115 151 197 252 307 361
#     4   8  15  30  55  84 113 148 190 242 305 369
#     4   9  18  34  58  85 112 149 197 245 302 365
#
# _framework density 24.776653
#
# number of rings (size 3 to 8) (size 9 to 14) (size 15 to 20)
#    0.000    2.400    0.000    2.400    0.000    0.000 
#    0.000   26.000    0.000    0.000    0.000   14.000 
#    0.000    0.000    0.000    0.000    0.000    0.000 
#
# Total GULP energy -223029.938196 kJ/mol
# GULP energy per Si atom -5575.748455 kJ/mol
# Density = 2.472026 g / cm^3
# Si number density = 24.776653 Si / 1000 Ang^3
#
#
#
# Elastic Constant Matrix: (Units=GPa)
#
#
# Indices 1 2 3 4 5 6 
#
# 1 54.2407 11.0844 16.8805 0.0000 0.0000 -6.0389
# 2 11.0844 54.2407 16.8805 0.0000 0.0000 6.0389
# 3 16.8805 16.8805 53.3568 0.0000 0.0000 0.0000
# 4 0.0000 0.0000 0.0000 33.0556 0.0000 0.0000
# 5 0.0000 0.0000 0.0000 0.0000 33.0556 0.0000
# 6 -6.0389 6.0389 0.0000 0.0000 0.0000 36.9320
#
#
#
# Elastic Compliance Matrix: (Units=1/GPa)
#
#
# Indices 1 2 3 4 5 6 
#
# 1 0.021292 -0.002991 -0.005790 0.000000 0.000000 0.003971
# 2 -0.002991 0.021292 -0.005790 0.000000 0.000000 -0.003971
# 3 -0.005790 -0.005790 0.022405 0.000000 0.000000 0.000000
# 4 0.000000 0.000000 0.000000 0.030252 0.000000 0.000000
# 5 0.000000 0.000000 0.000000 0.000000 0.030252 0.000000
# 6 0.003971 -0.003971 0.000000 0.000000 0.000000 0.028375
#
#
# Mechanical properties :
#
#
# Convention : Reuss Voigt Hill
#
# Bulk Modulus (GPa) = 27.89638 27.94769 27.92203
# Shear Modulus (GPa) = 25.64658 28.40815 27.02737
#
# Velocity S-wave (km/s) = 3.22080 3.38978 3.30637
# Velocity P-wave (km/s) = 5.01149 5.15995 5.08626
#
# Compressibility (1/GPa) = 0.03584694
#
# Stress axis : x y z
#
# Youngs Moduli (GPa) = 46.96706 46.96706 44.63270
#
# Poissons Ratio (x) = 0.14049 0.25841
# Poissons Ratio (y) = 0.14049 0.25841
# Poissons Ratio (z) = 0.27192 0.27192
#
# Static dielectric constant tensor:
#      x y z
#    x 2.028420 0.000000 0.000000 
#    y 0.000000 2.028420 0.000000 
#    z 0.000000 0.000000 1.927070 
# 
# From -- ./inp_files/350.got.cif
#   From: 2010.05.17/outbox.cif.g08.bks.cpg/sg85_cif.got.tgz:350.got - 2010.06.03 19:01:16.
