data_PCOD9544963
_publ_section_title
;
Structure prediction by ZEFSAII (Michael W. Deem and Ramdas Pophale) SiO2 
 PCOD9544963
Probable space group: P 42/N
;
_chemical_formula_sum "Si O2"
_cell_formula_units_Z 48
_cell_length_a 23.374254
_cell_length_b 23.374254
_cell_length_c 5.217284
_cell_angle_alpha 90.000000
_cell_angle_beta 90.000000
_cell_angle_gamma 90.000000
_cell_volume 2850.493113
_symmetry_space_group_name_H-M "P 42/N"
_symmetry_group_IT_number 86
_space_group.IT_coordinate_system_code '2'
_symmetry_cell_setting 'tetragonal'
loop_
_space_group_symop_operation_xyz
x,y,z
-y,1/2+x,1/2+z
1/2-x,1/2-y,z
1/2+y,-x,1/2+z
-x,-y,-z
y,1/2-x,1/2-z
1/2+x,1/2+y,-z
1/2-y,x,1/2-z
loop_
_atom_site_type_symbol
_atom_site_label
_atom_site_fract_x
_atom_site_fract_y
_atom_site_fract_z
Si Si1 0.081476 0.154887 0.850368
Si Si2 0.089690 0.270061 0.119101
Si Si3 0.569546 0.466935 0.243793
Si Si4 0.690838 0.700691 0.391300
Si Si5 0.448219 0.163449 0.606227
Si Si6 0.983999 0.076154 0.736792
O O1 0.126208 0.180560 0.645710
O O2 0.114418 0.099050 0.955523
O O3 0.022669 0.132874 0.729992
O O4 0.076616 0.204069 0.061546
O O5 0.058509 0.293763 0.369104
O O6 0.158832 0.281145 0.101492
O O7 0.068365 0.305316 0.869993
O O8 0.630620 0.492670 0.161323
O O9 0.561053 0.433091 0.508534
O O10 0.528688 0.522882 0.275637
O O11 0.545562 0.429625 0.011304
O O12 0.689064 0.769427 0.363826
#
# Coordination Sequence:
#
# PCOD9544963 Si02
#       6
#     8   8   8   8   8   8
#     4   9  19  30  45  65  87 112 148 190 231 266
#     4  10  20  31  45  63  86 114 147 187 229 268
#     4   9  17  30  45  62  80 106 141 178 223 269
#     4   8  15  29  44  58  80 113 151 188 226 269
#     4  10  20  32  46  62  85 115 148 184 223 273
#     4   9  17  28  45  63  82 104 137 185 226 263
#
# _framework density 16.839189999999999
#
# number of rings (size 3 to 8) (size 9 to 14) (size 15 to 20)
#    0.000    2.833    0.000    1.000    0.000   14.667 
#    0.000    0.000    0.000    6.000    0.000    0.000 
#    0.000    0.000    0.000    0.000    0.000   23.333 
#
# Total GULP energy -267355.590812 kJ/mol
# GULP energy per Si atom -5569.908142 kJ/mol
# Density = 1.680086 g / cm^3
# Si number density = 16.839190 Si / 1000 Ang^3
#
#
#
# Elastic Constant Matrix: (Units=GPa)
#
#
# Indices 1 2 3 4 5 6 
#
# 1 57.2344 43.8977 31.3972 0.0000 0.0000 1.3641
# 2 43.8977 57.2344 31.3972 0.0000 0.0000 -1.3641
# 3 31.3972 31.3972 107.0811 0.0000 0.0000 0.0000
# 4 0.0000 0.0000 0.0000 13.9590 0.0000 0.0000
# 5 0.0000 0.0000 0.0000 0.0000 13.9590 0.0000
# 6 1.3641 -1.3641 0.0000 0.0000 0.0000 33.8096
#
#
#
# Elastic Compliance Matrix: (Units=1/GPa)
#
#
# Indices 1 2 3 4 5 6 
#
# 1 0.043847 -0.031758 -0.003545 0.000000 0.000000 -0.003050
# 2 -0.031758 0.043847 -0.003545 0.000000 0.000000 0.003050
# 3 -0.003545 -0.003545 0.011417 0.000000 0.000000 0.000000
# 4 0.000000 0.000000 0.000000 0.071638 0.000000 0.000000
# 5 0.000000 0.000000 0.000000 0.000000 0.071638 0.000000
# 6 -0.003050 0.003050 0.000000 0.000000 0.000000 0.029824
#
#
# Mechanical properties :
#
#
# Convention : Reuss Voigt Hill
#
# Bulk Modulus (GPa) = 46.69221 48.32602 47.50911
# Shear Modulus (GPa) = 14.00389 20.00273 17.00331
#
# Velocity S-wave (km/s) = 2.88692 3.45028 3.18110
# Velocity P-wave (km/s) = 6.23706 6.68083 6.46275
#
# Compressibility (1/GPa) = 0.02141685
#
# Stress axis : x y z
#
# Youngs Moduli (GPa) = 22.80671 22.80671 87.58610
#
# Poissons Ratio (x) = 0.72429 0.31046
# Poissons Ratio (y) = 0.72429 0.31046
# Poissons Ratio (z) = 0.08084 0.08084
#
# Static dielectric constant tensor:
#      x y z
#    x 1.604530 0.000000 0.000000 
#    y 0.000000 1.604530 0.000000 
#    z 0.000000 0.000000 1.620870 
# 
# From -- ./inp_files/501.got.cif
#   From: 2010.05.17/outbox.cif.g08.bks.cpg/sg86_1_cif.got.tgz:501.got - 2010.06.03 19:03:11.
