data_PCOD9544114
_publ_section_title
;
Structure prediction by ZEFSAII (Michael W. Deem and Ramdas Pophale) SiO2 
 PCOD9544114
Probable space group: P 42/M
;
_chemical_formula_sum "Si O2"
_cell_formula_units_Z 40
_cell_length_a 16.007818
_cell_length_b 16.007818
_cell_length_c 8.732183
_cell_angle_alpha 90.000000
_cell_angle_beta 90.000000
_cell_angle_gamma 90.000000
_cell_volume 2237.623964
_symmetry_space_group_name_H-M "P 42/M"
_symmetry_group_IT_number 84
_symmetry_cell_setting 'tetragonal'
loop_
_space_group_symop_operation_xyz
x,y,z
-y,x,1/2+z
-x,-y,z
y,-x,1/2+z
-x,-y,-z
y,-x,1/2-z
x,y,-z
-y,x,1/2-z
loop_
_atom_site_type_symbol
_atom_site_label
_atom_site_fract_x
_atom_site_fract_y
_atom_site_fract_z
Si Si1 0.378667 0.541963 0.316523
Si Si2 0.431814 0.924905 0.675765
Si Si3 0.303050 0.058951 0.315881
Si Si4 0.878276 0.957333 0.817091
Si Si5 0.187131 0.563987 0.318226
O O1 0.448451 0.600187 0.239565
O O2 0.387788 0.545798 0.500000
O O3 0.284298 0.566035 0.275779
O O4 0.421134 0.896808 0.500000
O O5 0.474315 0.852610 0.773517
O O6 0.500000 0.000000 0.674350
O O7 0.348006 0.971229 0.729794
O O8 0.296119 0.058410 0.500000
O O9 0.213596 0.066892 0.238316
O O10 0.365186 0.132971 0.265682
O O11 0.949368 0.899534 0.741475
O O12 0.885522 0.953407 0.000000
O O13 0.179018 0.575901 0.500000
#
# Coordination Sequence:
#
# PCOD9544114 Si02
#       5
#     8   8   8   8   8
#     4  10  21  37  57  79 106 144 185 226 275 330
#     4   8  16  31  52  77 107 144 179 216 270 327
#     4  10  20  36  57  83 113 147 185 227 276 327
#     4  11  22  39  61  83 111 148 187 227 275 328
#     4  10  20  34  54  83 113 143 183 230 278 330
#
# _framework density 17.876104000000002
#
# number of rings (size 3 to 8) (size 9 to 14) (size 15 to 20)
#    0.000    2.200    0.000    6.000    0.000    7.600 
#    3.600    0.000    0.000    0.000    0.000    0.000 
#    0.000    0.000    0.000    0.000    0.000    0.000 
#
# Total GULP energy -223172.102300 kJ/mol
# GULP energy per Si atom -5579.302557 kJ/mol
# Density = 1.783542 g / cm^3
# Si number density = 17.876104 Si / 1000 Ang^3
#
#
#
# Elastic Constant Matrix: (Units=GPa)
#
#
# Indices 1 2 3 4 5 6 
#
# 1 81.7402 33.8630 25.6968 0.0000 0.0000 -0.2910
# 2 33.8630 81.7402 25.6968 0.0000 0.0000 0.2910
# 3 25.6968 25.6968 62.9338 0.0000 0.0000 0.0000
# 4 0.0000 0.0000 0.0000 137.1768 0.0000 0.0000
# 5 0.0000 0.0000 0.0000 0.0000 137.1768 0.0000
# 6 -0.2910 0.2910 0.0000 0.0000 0.0000 7.2615
#
#
#
# Elastic Compliance Matrix: (Units=1/GPa)
#
#
# Indices 1 2 3 4 5 6 
#
# 1 0.015733 -0.005164 -0.004315 0.000000 0.000000 0.000837
# 2 -0.005164 0.015733 -0.004315 0.000000 0.000000 -0.000837
# 3 -0.004315 -0.004315 0.019414 0.000000 0.000000 0.000000
# 4 0.000000 0.000000 0.000000 0.007290 0.000000 0.000000
# 5 0.000000 0.000000 0.000000 0.000000 0.007290 0.000000
# 6 0.000837 -0.000837 0.000000 0.000000 0.000000 0.137781
#
#
# Mechanical properties :
#
#
# Convention : Reuss Voigt Hill
#
# Bulk Modulus (GPa) = 42.93728 44.10304 43.52016
# Shear Modulus (GPa) = 20.95621 65.73354 43.34487
#
# Velocity S-wave (km/s) = 3.42761 6.07055 4.92951
# Velocity P-wave (km/s) = 6.30366 8.59421 7.53647
#
# Compressibility (1/GPa) = 0.02328978
#
# Stress axis : x y z
#
# Youngs Moduli (GPa) = 63.56125 63.56125 51.50987
#
# Poissons Ratio (x) = 0.32824 0.22228
# Poissons Ratio (y) = 0.32824 0.22228
# Poissons Ratio (z) = 0.27429 0.27429
#
# Static dielectric constant tensor:
#      x y z
#    x 1.607120 0.000000 0.000000 
#    y 0.000000 1.607120 0.000000 
#    z 0.000000 0.000000 1.598820 
# 
# From -- ./inp_files/792.got.cif
#   From: 2010.05.17/outbox.cif.g08.bks.cpg/sg84_1_cif.got.tgz:792.got - 2010.06.03 18:57:40.
