data_PCOD9544116
_publ_section_title
;
Structure prediction by ZEFSAII (Michael W. Deem and Ramdas Pophale) SiO2 
 PCOD9544116
Probable space group: P 42/M
;
_chemical_formula_sum "Si O2"
_cell_formula_units_Z 48
_cell_length_a 11.026627
_cell_length_b 11.026627
_cell_length_c 20.143105
_cell_angle_alpha 90.000000
_cell_angle_beta 90.000000
_cell_angle_gamma 90.000000
_cell_volume 2449.129696
_symmetry_space_group_name_H-M "P 42/M"
_symmetry_group_IT_number 84
_symmetry_cell_setting 'tetragonal'
loop_
_space_group_symop_operation_xyz
x,y,z
-y,x,1/2+z
-x,-y,z
y,-x,1/2+z
-x,-y,-z
y,-x,1/2-z
x,y,-z
-y,x,1/2-z
loop_
_atom_site_type_symbol
_atom_site_label
_atom_site_fract_x
_atom_site_fract_y
_atom_site_fract_z
Si Si1 0.140702 0.273243 0.202848
Si Si2 0.433278 0.708533 0.073139
Si Si3 0.670094 0.579135 0.277240
Si Si4 0.075992 0.871686 0.816673
Si Si5 0.220282 0.707763 0.425469
Si Si6 0.937211 0.729563 0.574226
O O1 0.199763 0.377003 0.248973
O O2 0.147853 0.154014 0.249898
O O3 0.215631 0.269731 0.135304
O O4 0.003291 0.250727 0.178600
O O5 0.395732 0.653224 0.144079
O O6 0.577764 0.716451 0.074039
O O7 0.382866 0.845839 0.075371
O O8 0.395538 0.657661 0.000000
O O9 0.649235 0.437312 0.261525
O O10 0.172380 0.888747 0.874688
O O11 0.000000 0.000000 0.819630
O O12 0.233815 0.760663 0.500000
O O13 0.075908 0.694007 0.412652
O O14 0.933679 0.781852 0.500000
#
# Coordination Sequence:
#
# PCOD9544116 Si02
#       6
#     8   8   8   8   8   8
#     4  12  21  37  57  85 122 157 193 246 294 356
#     4  10  20  38  61  87 119 156 198 248 302 350
#     4  11  24  43  64  89 114 148 200 255 298 354
#     4  12  21  34  56  86 122 162 198 234 292 356
#     4  10  20  34  56  88 121 156 198 244 295 348
#     4  10  20  34  57  86 124 163 200 242 291 350
#
# _framework density 19.598799
#
# number of rings (size 3 to 8) (size 9 to 14) (size 15 to 20)
#    0.000    1.167    6.667    0.500    0.000    3.000 
#    0.000    3.333    0.000    0.000    0.000    2.333 
#    0.000    0.000    0.000    0.000    0.000    0.000 
#
# Total GULP energy -267219.477708 kJ/mol
# GULP energy per Si atom -5567.072452 kJ/mol
# Density = 1.955419 g / cm^3
# Si number density = 19.598799 Si / 1000 Ang^3
#
#
#
# Elastic Constant Matrix: (Units=GPa)
#
#
# Indices 1 2 3 4 5 6 
#
# 1 16.1918 -6.3954 3.1320 0.0000 0.0000 -1.7522
# 2 -6.3954 16.1918 3.1320 0.0000 0.0000 1.7522
# 3 3.1320 3.1320 128.9031 0.0000 0.0000 0.0000
# 4 0.0000 0.0000 0.0000 20.6062 0.0000 0.0000
# 5 0.0000 0.0000 0.0000 0.0000 20.6062 0.0000
# 6 -1.7522 1.7522 0.0000 0.0000 0.0000 27.3222
#
#
#
# Elastic Compliance Matrix: (Units=1/GPa)
#
#
# Indices 1 2 3 4 5 6 
#
# 1 0.074203 0.029486 -0.002519 0.000000 0.000000 0.002868
# 2 0.029486 0.074203 -0.002519 0.000000 0.000000 -0.002868
# 3 -0.002519 -0.002519 0.007880 0.000000 0.000000 0.000000
# 4 0.000000 0.000000 0.000000 0.048529 0.000000 0.000000
# 5 0.000000 0.000000 0.000000 0.000000 0.048529 0.000000
# 6 0.002868 -0.002868 0.000000 0.000000 0.000000 0.036968
#
#
# Mechanical properties :
#
#
# Convention : Reuss Voigt Hill
#
# Bulk Modulus (GPa) = 4.87375 17.89154 11.38265
# Shear Modulus (GPa) = 16.13877 24.46813 20.30345
#
# Velocity S-wave (km/s) = 2.87271 3.53718 3.22212
# Velocity P-wave (km/s) = 3.67361 5.08241 4.43431
#
# Compressibility (1/GPa) = 0.20518067
#
# Stress axis : x y z
#
# Youngs Moduli (GPa) = 13.47648 13.47648 126.90041
#
# Poissons Ratio (x) = -0.39736 0.31971
# Poissons Ratio (y) = -0.39736 0.31971
# Poissons Ratio (z) = 0.03395 0.03395
#
# Static dielectric constant tensor:
#      x y z
#    x 1.721590 0.000000 0.000000 
#    y 0.000000 1.721590 0.000000 
#    z 0.000000 0.000000 1.744590 
# 
# From -- ./inp_files/3753.got.cif
#   From: 2010.05.17/outbox.cif.g08.bks.cpg/sg84_2_cif.got.tgz:3753.got - 2010.06.03 18:57:40.
