data_PCOD9544310
_publ_section_title
;
Structure prediction by ZEFSAII (Michael W. Deem and Ramdas Pophale) SiO2 
 PCOD9544310
Probable space group: P 42/M
;
_chemical_formula_sum "Si O2"
_cell_formula_units_Z 64
_cell_length_a 12.345701
_cell_length_b 12.345701
_cell_length_c 22.272723
_cell_angle_alpha 90.000000
_cell_angle_beta 90.000000
_cell_angle_gamma 90.000000
_cell_volume 3394.726770
_symmetry_space_group_name_H-M "P 42/M"
_symmetry_group_IT_number 84
_symmetry_cell_setting 'tetragonal'
loop_
_space_group_symop_operation_xyz
x,y,z
-y,x,1/2+z
-x,-y,z
y,-x,1/2+z
-x,-y,-z
y,-x,1/2-z
x,y,-z
-y,x,1/2-z
loop_
_atom_site_type_symbol
_atom_site_label
_atom_site_fract_x
_atom_site_fract_y
_atom_site_fract_z
Si Si1 0.456571 0.795821 0.766455
Si Si2 0.667466 0.694805 0.823744
Si Si3 0.382331 0.463026 0.068973
Si Si4 0.813024 0.963885 0.305727
Si Si5 0.877146 0.726526 0.353754
Si Si6 0.242945 0.680584 0.932701
Si Si7 0.818884 0.907330 0.168558
Si Si8 0.923258 0.413646 0.837881
O O1 0.547469 0.737058 0.806970
O O2 0.381636 0.711430 0.729881
O O3 0.373417 0.864981 0.807504
O O4 0.525231 0.862608 0.716594
O O5 0.665881 0.623413 0.884456
O O6 0.747256 0.798531 0.828306
O O7 0.500000 0.500000 0.090517
O O8 0.320379 0.576874 0.066740
O O9 0.388324 0.421156 0.000000
O O10 0.836045 0.841412 0.326282
O O11 0.830174 0.960709 0.234671
O O12 0.686476 0.990541 0.312368
O O13 0.876624 0.055609 0.342844
O O14 0.791070 0.705769 0.406873
O O15 0.001452 0.755568 0.369349
O O16 0.153052 0.639526 0.886703
O O17 0.202356 0.699789 0.000000
O O18 0.000000 0.500000 0.868382
#
# Coordination Sequence:
#
# PCOD9544310 Si02
#       8
#     8   8   8   8   8   8   8   8
#     4  12  23  37  58  95 133 158 195 253 319 381
#     4  12  24  36  59  90 127 160 199 247 313 375
#     4  10  22  41  63  84 116 163 211 252 299 367
#     4  11  21  34  56  85 123 162 197 243 307 387
#     4  11  23  38  59  90 121 160 208 252 312 366
#     4  10  22  42  62  84 119 166 216 259 304 367
#     4  12  21  38  58  88 122 162 204 248 309 382
#     4  11  21  36  58  89 125 158 201 257 315 373
#
# _framework density 18.85277
#
# number of rings (size 3 to 8) (size 9 to 14) (size 15 to 20)
#    0.000    0.875    5.000    3.375    1.750    0.250 
#    0.000    0.625    0.000    6.000    0.000    4.375 
#    0.000    0.000    0.000    0.000    0.000    0.000 
#
# Total GULP energy -356819.218892 kJ/mol
# GULP energy per Si atom -5575.300295 kJ/mol
# Density = 1.880986 g / cm^3
# Si number density = 18.852770 Si / 1000 Ang^3
#
#
#
# Elastic Constant Matrix: (Units=GPa)
#
#
# Indices 1 2 3 4 5 6 
#
# 1 92.9752 35.8066 30.9559 0.0000 0.0000 -0.6338
# 2 35.8066 92.9752 30.9559 0.0000 0.0000 0.6338
# 3 30.9559 30.9559 62.0965 0.0000 0.0000 0.0000
# 4 0.0000 0.0000 0.0000 22.6738 0.0000 0.0000
# 5 0.0000 0.0000 0.0000 0.0000 22.6738 0.0000
# 6 -0.6338 0.6338 0.0000 0.0000 0.0000 26.8148
#
#
#
# Elastic Compliance Matrix: (Units=1/GPa)
#
#
# Indices 1 2 3 4 5 6 
#
# 1 0.013857 -0.003644 -0.005091 0.000000 0.000000 0.000414
# 2 -0.003644 0.013857 -0.005091 0.000000 0.000000 -0.000414
# 3 -0.005091 -0.005091 0.021180 0.000000 0.000000 0.000000
# 4 0.000000 0.000000 0.000000 0.044104 0.000000 0.000000
# 5 0.000000 0.000000 0.000000 0.000000 0.044104 0.000000
# 6 0.000414 -0.000414 0.000000 0.000000 0.000000 0.037312
#
#
# Mechanical properties :
#
#
# Convention : Reuss Voigt Hill
#
# Bulk Modulus (GPa) = 47.07942 49.27598 48.17770
# Shear Modulus (GPa) = 23.90660 24.45438 24.18049
#
# Velocity S-wave (km/s) = 3.56486 3.60547 3.58522
# Velocity P-wave (km/s) = 6.47848 6.59746 6.53824
#
# Compressibility (1/GPa) = 0.02124070
#
# Stress axis : x y z
#
# Youngs Moduli (GPa) = 72.16593 72.16593 47.21444
#
# Poissons Ratio (x) = 0.26300 0.24037
# Poissons Ratio (y) = 0.26300 0.24037
# Poissons Ratio (z) = 0.36741 0.36741
#
# Static dielectric constant tensor:
#      x y z
#    x 1.572480 0.000000 0.000000 
#    y 0.000000 1.572480 0.000000 
#    z 0.000000 0.000000 1.670200 
# 
# From -- ./inp_files/5101.got.cif
#   From: 2010.05.17/outbox.cif.g08.bks.cpg/sg84_3_cif.got.tgz:5101.got - 2010.06.03 18:57:40.
