data_PCOD9544683
_publ_section_title
;
Structure prediction by ZEFSAII (Michael W. Deem and Ramdas Pophale) SiO2 
 PCOD9544683
Probable space group: P 4/N
;
_chemical_formula_sum "Si O2"
_cell_formula_units_Z 36
_cell_length_a 11.955161
_cell_length_b 11.955161
_cell_length_c 10.967545
_cell_angle_alpha 90.000000
_cell_angle_beta 90.000000
_cell_angle_gamma 90.000000
_cell_volume 1567.545961
_symmetry_space_group_name_H-M "P 4/N"
_symmetry_group_IT_number 85
_symmetry_cell_setting 'tetragonal'
loop_
_space_group_symop_operation_xyz
x,y,z
1/2-y,x,z
1/2-x,1/2-y,z
y,1/2-x,z
-x,-y,-z
1/2+y,-x,-z
1/2+x,1/2+y,-z
-y,1/2+x,-z
loop_
_atom_site_type_symbol
_atom_site_label
_atom_site_fract_x
_atom_site_fract_y
_atom_site_fract_z
Si Si1 0.250000 0.750000 0.000000
Si Si2 0.450383 0.475562 0.171002
Si Si3 0.750000 0.750000 0.058296
Si Si4 0.856698 0.593311 0.308628
Si Si5 0.596781 0.640317 0.578765
Si Si6 0.766827 0.493490 0.986273
O O1 0.249697 0.624334 0.943492
O O2 0.519355 0.585414 0.206101
O O3 0.453962 0.407687 0.298455
O O4 0.325517 0.503580 0.124258
O O5 0.502484 0.390790 0.072562
O O6 0.745857 0.612628 0.047492
O O7 0.897631 0.722224 0.302214
O O8 0.887228 0.549713 0.444582
O O9 0.725482 0.600400 0.582561
#
# Coordination Sequence:
#
# PCOD9544683 Si02
#       6
#     2   8   2   8   8   8
#     4  12  28  48  60  96 126 156 188 292 348 352
#     4  11  19  36  63  88 114 161 204 245 290 387
#     4   8  20  44  68 100 104 156 202 244 288 420
#     4   9  20  34  52  84 128 162 198 242 290 354
#     4   9  16  30  55  86 121 159 197 243 287 348
#     4  10  24  40  70  87 123 153 208 253 322 372
#
# _framework density 22.965834999999998
#
# number of rings (size 3 to 8) (size 9 to 14) (size 15 to 20)
#    0.000    2.222    2.222    2.000    3.111    3.556 
#    0.000    0.000    4.889    0.000    0.000    0.000 
#    0.000    0.000    0.000    0.000    0.000    0.000 
#
# Total GULP energy -200457.653864 kJ/mol
# GULP energy per Si atom -5568.268163 kJ/mol
# Density = 2.291356 g / cm^3
# Si number density = 22.965835 Si / 1000 Ang^3
#
#
#
# Elastic Constant Matrix: (Units=GPa)
#
#
# Indices 1 2 3 4 5 6 
#
# 1 121.3380 6.7484 18.2206 0.0000 0.0000 -13.1152
# 2 6.7484 121.3380 18.2206 0.0000 0.0000 13.1152
# 3 18.2206 18.2206 110.0821 0.0000 0.0000 0.0000
# 4 0.0000 0.0000 0.0000 33.1297 0.0000 0.0000
# 5 0.0000 0.0000 0.0000 0.0000 33.1297 0.0000
# 6 -13.1152 13.1152 0.0000 0.0000 0.0000 74.8407
#
#
#
# Elastic Compliance Matrix: (Units=1/GPa)
#
#
# Indices 1 2 3 4 5 6 
#
# 1 0.008642 -0.000449 -0.001356 0.000000 0.000000 0.001593
# 2 -0.000449 0.008642 -0.001356 0.000000 0.000000 -0.001593
# 3 -0.001356 -0.001356 0.009533 0.000000 0.000000 0.000000
# 4 0.000000 0.000000 0.000000 0.030184 0.000000 0.000000
# 5 0.000000 0.000000 0.000000 0.000000 0.030184 0.000000
# 6 0.001593 -0.001593 0.000000 0.000000 0.000000 0.013920
#
#
# Mechanical properties :
#
#
# Convention : Reuss Voigt Hill
#
# Bulk Modulus (GPa) = 48.79301 48.79305 48.79303
# Shear Modulus (GPa) = 43.75950 48.85792 46.30871
#
# Velocity S-wave (km/s) = 4.36984 4.61740 4.49533
# Velocity P-wave (km/s) = 6.83760 7.05118 6.94521
#
# Compressibility (1/GPa) = 0.02049474
#
# Stress axis : x y z
#
# Youngs Moduli (GPa) = 115.71034 115.71034 104.89819
#
# Poissons Ratio (x) = 0.05198 0.14225
# Poissons Ratio (y) = 0.05198 0.14225
# Poissons Ratio (z) = 0.15691 0.15691
#
# Static dielectric constant tensor:
#      x y z
#    x 1.846430 0.000000 0.000000 
#    y 0.000000 1.846430 0.000000 
#    z 0.000000 0.000000 1.955370 
# 
# From -- ./inp_files/1524.got.cif
#   From: 2010.05.17/outbox.cif.g08.bks.cpg/sg85_cif.got.tgz:1524.got - 2010.06.03 19:01:16.
