data_PCOD9544705
_publ_section_title
;
Structure prediction by ZEFSAII (Michael W. Deem and Ramdas Pophale) SiO2 
 PCOD9544705
Probable space group: P 4/N
;
_chemical_formula_sum "Si O2"
_cell_formula_units_Z 32
_cell_length_a 14.024715
_cell_length_b 14.024715
_cell_length_c 7.984444
_cell_angle_alpha 90.000000
_cell_angle_beta 90.000000
_cell_angle_gamma 90.000000
_cell_volume 1570.481296
_symmetry_space_group_name_H-M "P 4/N"
_symmetry_group_IT_number 85
_symmetry_cell_setting 'tetragonal'
loop_
_space_group_symop_operation_xyz
x,y,z
1/2-y,x,z
1/2-x,1/2-y,z
y,1/2-x,z
-x,-y,-z
1/2+y,-x,-z
1/2+x,1/2+y,-z
-y,1/2+x,-z
loop_
_atom_site_type_symbol
_atom_site_label
_atom_site_fract_x
_atom_site_fract_y
_atom_site_fract_z
Si Si1 0.378271 0.709274 0.919568
Si Si2 0.596154 0.755079 0.473235
Si Si3 0.730855 0.902885 0.878496
Si Si4 0.877161 0.278099 0.593798
O O1 0.491016 0.708911 0.937390
O O2 0.338311 0.658319 0.753354
O O3 0.318765 0.656219 0.064969
O O4 0.654846 0.661095 0.421573
O O5 0.592119 0.742846 0.675810
O O6 0.489976 0.769230 0.409637
O O7 0.647129 0.829988 0.930461
O O8 0.835019 0.172162 0.561238
#
# Coordination Sequence:
#
# PCOD9544705 Si02
#       4
#     8   8   8   8
#     4  11  23  39  57  86 128 164 196 251 298 354
#     4   9  19  38  64  95 123 149 197 259 308 355
#     4   9  19  40  66  91 119 157 204 251 303 362
#     4  11  21  37  60  87 119 159 200 248 297 359
#
# _framework density 20.375919
#
# number of rings (size 3 to 8) (size 9 to 14) (size 15 to 20)
#    0.000    2.000    2.500    4.500    0.000    2.000 
#    0.000    2.500    0.000    3.000    0.000    0.000 
#    0.000    0.000    0.000    0.000    0.000    0.000 
#
# Total GULP energy -178389.728072 kJ/mol
# GULP energy per Si atom -5574.679002 kJ/mol
# Density = 2.032954 g / cm^3
# Si number density = 20.375919 Si / 1000 Ang^3
#
#
#
# Elastic Constant Matrix: (Units=GPa)
#
#
# Indices 1 2 3 4 5 6 
#
# 1 176.3808 67.6584 22.6170 0.0000 0.0000 -1.6702
# 2 67.6584 176.3808 22.6170 0.0000 0.0000 1.6702
# 3 22.6170 22.6170 49.8235 0.0000 0.0000 0.0000
# 4 0.0000 0.0000 0.0000 20.6360 0.0000 0.0000
# 5 0.0000 0.0000 0.0000 0.0000 20.6360 0.0000
# 6 -1.6702 1.6702 0.0000 0.0000 0.0000 5.3774
#
#
#
# Elastic Compliance Matrix: (Units=1/GPa)
#
#
# Indices 1 2 3 4 5 6 
#
# 1 0.006880 -0.002406 -0.002031 0.000000 0.000000 0.002884
# 2 -0.002406 0.006880 -0.002031 0.000000 0.000000 -0.002884
# 3 -0.002031 -0.002031 0.021915 0.000000 0.000000 0.000000
# 4 0.000000 0.000000 0.000000 0.048459 0.000000 0.000000
# 5 0.000000 0.000000 0.000000 0.000000 0.048459 0.000000
# 6 0.002884 -0.002884 0.000000 0.000000 0.000000 0.187755
#
#
# Mechanical properties :
#
#
# Convention : Reuss Voigt Hill
#
# Bulk Modulus (GPa) = 43.97719 69.81888 56.89804
# Shear Modulus (GPa) = 14.66860 28.64274 21.65567
#
# Velocity S-wave (km/s) = 2.68600 3.75335 3.26361
# Velocity P-wave (km/s) = 5.59010 7.28858 6.49510
#
# Compressibility (1/GPa) = 0.02273906
#
# Stress axis : x y z
#
# Youngs Moduli (GPa) = 145.34333 145.34333 45.63126
#
# Poissons Ratio (x) = 0.34971 0.09268
# Poissons Ratio (y) = 0.34971 0.09268
# Poissons Ratio (z) = 0.29519 0.29519
#
# Static dielectric constant tensor:
#      x y z
#    x 1.710350 0.000000 0.000000 
#    y 0.000000 1.710350 0.000000 
#    z 0.000000 0.000000 1.828490 
# 
# From -- ./inp_files/732.got.cif
#   From: 2010.05.17/outbox.cif.g08.bks.cpg/sg85_cif.got.tgz:732.got - 2010.06.03 19:01:16.
