data_PCOD9544520
_publ_section_title
;
Structure prediction by ZEFSAII (Michael W. Deem and Ramdas Pophale) SiO2 
 PCOD9544520
Probable space group: P 4/N
;
_chemical_formula_sum "Si O2"
_cell_formula_units_Z 58
_cell_length_a 17.757005
_cell_length_b 17.757005
_cell_length_c 9.304115
_cell_angle_alpha 90.000000
_cell_angle_beta 90.000000
_cell_angle_gamma 90.000000
_cell_volume 2933.691913
_symmetry_space_group_name_H-M "P 4/N"
_symmetry_group_IT_number 85
_symmetry_cell_setting 'tetragonal'
loop_
_space_group_symop_operation_xyz
x,y,z
1/2-y,x,z
1/2-x,1/2-y,z
y,1/2-x,z
-x,-y,-z
1/2+y,-x,-z
1/2+x,1/2+y,-z
-y,1/2+x,-z
loop_
_atom_site_type_symbol
_atom_site_label
_atom_site_fract_x
_atom_site_fract_y
_atom_site_fract_z
Si Si1 0.374445 0.916268 0.277547
Si Si2 0.053469 0.190572 0.457518
Si Si3 0.750000 0.250000 0.500000
Si Si4 0.385487 0.829495 0.543293
Si Si5 0.826227 0.465420 0.268082
Si Si6 0.347353 0.444196 0.352856
Si Si7 0.018310 0.996955 0.167400
Si Si8 0.369638 0.715088 0.001823
O O1 0.387763 0.842392 0.372324
O O2 0.331846 0.977545 0.373835
O O3 0.454426 0.954206 0.244719
O O4 0.326917 0.904327 0.134600
O O5 0.086296 0.261423 0.367178
O O6 0.104641 0.115896 0.444223
O O7 0.029802 0.205669 0.624291
O O8 0.738682 0.329249 0.579448
O O9 0.344361 0.895879 0.628017
O O10 0.471789 0.833658 0.587310
O O11 0.782519 0.430589 0.130780
O O12 0.910154 0.486257 0.213846
O O13 0.401390 0.464090 0.214789
O O14 0.000000 0.000000 0.000000
O O15 0.296779 0.663369 0.040650
#
# Coordination Sequence:
#
# PCOD9544520 Si02
#       8
#     8   8   2   8   8   8   8   8
#     4  10  21  37  57  83 118 163 205 248 313 375
#     4  10  22  40  66  89 116 153 211 271 325 382
#     4  12  24  32  60  90 124 168 216 238 320 372
#     4  10  22  34  57  83 120 162 207 258 298 370
#     4  10  21  40  58  85 122 165 208 253 313 378
#     4  10  22  40  63  92 120 156 212 268 324 380
#     4  10  19  37  62  89 122 164 207 258 320 392
#     4  11  26  36  51  85 132 169 207 247 305 382
#
# _framework density 19.770309999999998
#
# number of rings (size 3 to 8) (size 9 to 14) (size 15 to 20)
#    0.000    1.793    1.379    2.483    9.655    3.586 
#    0.000    0.000    0.000    0.000    0.000    0.000 
#    4.138    0.000    0.000    0.000    0.000    0.000 
#
# Total GULP energy -322947.820292 kJ/mol
# GULP energy per Si atom -5568.065867 kJ/mol
# Density = 1.972531 g / cm^3
# Si number density = 19.770310 Si / 1000 Ang^3
#
#
#
# Elastic Constant Matrix: (Units=GPa)
#
#
# Indices 1 2 3 4 5 6 
#
# 1 77.8003 32.6586 24.1921 0.0000 0.0000 8.6088
# 2 32.6586 77.8003 24.1921 0.0000 0.0000 -8.6088
# 3 24.1921 24.1921 94.9611 0.0000 0.0000 0.0000
# 4 0.0000 0.0000 0.0000 21.6800 0.0000 0.0000
# 5 0.0000 0.0000 0.0000 0.0000 21.6800 0.0000
# 6 8.6088 -8.6088 0.0000 0.0000 0.0000 26.9699
#
#
#
# Elastic Compliance Matrix: (Units=1/GPa)
#
#
# Indices 1 2 3 4 5 6 
#
# 1 0.017707 -0.007516 -0.002596 0.000000 0.000000 -0.008051
# 2 -0.007516 0.017707 -0.002596 0.000000 0.000000 0.008051
# 3 -0.002596 -0.002596 0.011853 0.000000 0.000000 0.000000
# 4 0.000000 0.000000 0.000000 0.046125 0.000000 0.000000
# 5 0.000000 0.000000 0.000000 0.000000 0.046125 0.000000
# 6 -0.008051 0.008051 0.000000 0.000000 0.000000 0.042218
#
#
# Mechanical properties :
#
#
# Convention : Reuss Voigt Hill
#
# Bulk Modulus (GPa) = 45.76719 45.84969 45.80844
# Shear Modulus (GPa) = 23.31694 25.36727 24.34210
#
# Velocity S-wave (km/s) = 3.43795 3.58592 3.51272
# Velocity P-wave (km/s) = 6.24172 6.35505 6.29864
#
# Compressibility (1/GPa) = 0.02184972
#
# Stress axis : x y z
#
# Youngs Moduli (GPa) = 56.47556 56.47556 84.36433
#
# Poissons Ratio (x) = 0.42450 0.21901
# Poissons Ratio (y) = 0.42450 0.21901
# Poissons Ratio (z) = 0.14661 0.14661
#
# Static dielectric constant tensor:
#      x y z
#    x 1.776460 0.000000 0.000000 
#    y 0.000000 1.776460 0.000000 
#    z 0.000000 0.000000 1.733170 
# 
# From -- ./inp_files/1216.got.cif
#   From: 2010.05.17/outbox.cif.g08.bks.cpg/sg85_cif.got.tgz:1216.got - 2010.06.03 19:01:16.
