data_PCOD9544006
_publ_section_title
;
Structure prediction by ZEFSAII (Michael W. Deem and Ramdas Pophale) SiO2 
 PCOD9544006
Probable space group: P 42/M
;
_chemical_formula_sum "Si O2"
_cell_formula_units_Z 64
_cell_length_a 21.242310
_cell_length_b 21.242310
_cell_length_c 8.804222
_cell_angle_alpha 90.000000
_cell_angle_beta 90.000000
_cell_angle_gamma 90.000000
_cell_volume 3972.779578
_symmetry_space_group_name_H-M "P 42/M"
_symmetry_group_IT_number 84
_symmetry_cell_setting 'tetragonal'
loop_
_space_group_symop_operation_xyz
x,y,z
-y,x,1/2+z
-x,-y,z
y,-x,1/2+z
-x,-y,-z
y,-x,1/2-z
x,y,-z
-y,x,1/2-z
loop_
_atom_site_type_symbol
_atom_site_label
_atom_site_fract_x
_atom_site_fract_y
_atom_site_fract_z
Si Si1 0.855866 0.579356 0.319811
Si Si2 0.318593 0.207661 0.181956
Si Si3 0.269520 0.006371 0.173099
Si Si4 0.436755 0.124689 0.181888
Si Si5 0.601591 0.005158 0.322521
Si Si6 0.136163 0.226888 0.330414
Si Si7 0.805211 0.877543 0.177616
Si Si8 0.768820 0.683532 0.178676
O O1 0.860421 0.590900 0.500000
O O2 0.845854 0.505347 0.291190
O O3 0.925389 0.594040 0.251162
O O4 0.798554 0.621679 0.256320
O O5 0.381286 0.171689 0.238251
O O6 0.260664 0.159548 0.205526
O O7 0.292738 0.276551 0.235662
O O8 0.326442 0.214740 0.000000
O O9 0.326484 0.014210 0.287903
O O10 0.249133 0.934701 0.171685
O O11 0.211155 0.050741 0.208971
O O12 0.290937 0.023654 0.000000
O O13 0.435711 0.054248 0.251926
O O14 0.428652 0.117047 0.000000
O O15 0.587998 0.009947 0.500000
O O16 0.162117 0.238409 0.500000
O O17 0.144281 0.154851 0.284276
O O18 0.175232 0.266474 0.208349
O O19 0.821252 0.869838 0.000000
O O20 0.760895 0.671662 0.000000
#
# Coordination Sequence:
#
# PCOD9544006 Si02
#       8
#     8   8   8   8   8   8   8   8
#     4  11  22  34  50  70  96 134 169 197 233 282
#     4   8  15  30  51  70  89 120 158 195 233 279
#     4  10  19  33  51  67  91 125 159 195 238 292
#     4  10  20  36  53  68  94 133 171 197 231 287
#     4  12  23  32  46  70  99 130 165 202 239 277
#     4  10  19  30  48  71  93 117 154 199 242 290
#     4   9  17  31  50  67  89 119 153 195 244 289
#     4  10  19  32  50  71  95 123 157 198 242 281
#
# _framework density 16.109628000000001
#
# number of rings (size 3 to 8) (size 9 to 14) (size 15 to 20)
#    0.000    2.000    2.500    3.375    0.000    3.500 
#    0.000    0.625    0.000    0.375    0.000    2.625 
#    0.000    0.500    0.000    6.250    0.000    0.000 
#
# Total GULP energy -356394.549272 kJ/mol
# GULP energy per Si atom -5568.664832 kJ/mol
# Density = 1.607296 g / cm^3
# Si number density = 16.109628 Si / 1000 Ang^3
#
#
#
# Elastic Constant Matrix: (Units=GPa)
#
#
# Indices 1 2 3 4 5 6 
#
# 1 51.9795 32.8301 18.7997 0.0000 0.0000 -0.0090
# 2 32.8301 51.9795 18.7997 0.0000 0.0000 0.0090
# 3 18.7997 18.7997 36.1158 0.0000 0.0000 0.0000
# 4 0.0000 0.0000 0.0000 1.2736 0.0000 0.0000
# 5 0.0000 0.0000 0.0000 0.0000 1.2736 0.0000
# 6 -0.0090 0.0090 0.0000 0.0000 0.0000 23.5534
#
#
#
# Elastic Compliance Matrix: (Units=1/GPa)
#
#
# Indices 1 2 3 4 5 6 
#
# 1 0.033775 -0.018446 -0.007979 0.000000 0.000000 0.000020
# 2 -0.018446 0.033775 -0.007979 0.000000 0.000000 -0.000020
# 3 -0.007979 -0.007979 0.035996 0.000000 0.000000 0.000000
# 4 0.000000 0.000000 0.000000 0.785206 0.000000 0.000000
# 5 0.000000 0.000000 0.000000 0.000000 0.785206 0.000000
# 6 0.000020 -0.000020 0.000000 0.000000 0.000000 0.042457
#
#
# Mechanical properties :
#
#
# Convention : Reuss Voigt Hill
#
# Bulk Modulus (GPa) = 28.78838 31.21488 30.00163
# Shear Modulus (GPa) = 2.78272 9.86311 6.32292
#
# Velocity S-wave (km/s) = 1.31572 2.47705 1.98329
# Velocity P-wave (km/s) = 4.49636 5.25354 4.88963
#
# Compressibility (1/GPa) = 0.03473623
#
# Stress axis : x y z
#
# Youngs Moduli (GPa) = 29.60785 29.60785 27.78115
#
# Poissons Ratio (x) = 0.54615 0.22167
# Poissons Ratio (y) = 0.54615 0.22167
# Poissons Ratio (z) = 0.23625 0.23625
#
# Static dielectric constant tensor:
#      x y z
#    x 1.566350 0.000000 0.000000 
#    y 0.000000 1.566350 0.000000 
#    z 0.000000 0.000000 1.572380 
# 
# From -- ./inp_files/1406.got.cif
#   From: 2010.05.17/outbox.cif.g08.bks.cpg/sg84_1_cif.got.tgz:1406.got - 2010.06.03 18:57:40.
