data_PCOD9544538
_publ_section_title
;
Structure prediction by ZEFSAII (Michael W. Deem and Ramdas Pophale) SiO2 
 PCOD9544538
Probable space group: P 4/N
;
_chemical_formula_sum "Si O2"
_cell_formula_units_Z 26
_cell_length_a 14.087354
_cell_length_b 14.087354
_cell_length_c 5.835243
_cell_angle_alpha 90.000000
_cell_angle_beta 90.000000
_cell_angle_gamma 90.000000
_cell_volume 1158.024646
_symmetry_space_group_name_H-M "P 4/N"
_symmetry_group_IT_number 85
_symmetry_cell_setting 'tetragonal'
loop_
_space_group_symop_operation_xyz
x,y,z
1/2-y,x,z
1/2-x,1/2-y,z
y,1/2-x,z
-x,-y,-z
1/2+y,-x,-z
1/2+x,1/2+y,-z
-y,1/2+x,-z
loop_
_atom_site_type_symbol
_atom_site_label
_atom_site_fract_x
_atom_site_fract_y
_atom_site_fract_z
Si Si1 0.509458 0.585554 0.821825
Si Si2 0.853128 0.022391 0.549136
Si Si3 0.750000 0.250000 0.000000
Si Si4 0.703998 0.072849 0.206894
O O1 0.608218 0.569941 0.684038
O O2 0.429584 0.554358 0.641225
O O3 0.500000 0.500000 0.000000
O O4 0.489616 0.677079 0.983167
O O5 0.752485 0.017258 0.418387
O O6 0.866367 0.111705 0.718159
O O7 0.775203 0.158462 0.147495
#
# Coordination Sequence:
#
# PCOD9544538 Si02
#       4
#     8   8   2   8
#     4   9  20  35  50  74 115 158 195 248 293 363
#     4  10  20  34  52  78 115 160 201 240 308 369
#     4  12  20  30  48  88 118 164 184 242 304 384
#     4  11  20  32  51  79 118 160 200 248 308 373
#
# _framework density 22.452026
#
# number of rings (size 3 to 8) (size 9 to 14) (size 15 to 20)
#    0.000    1.846    3.077    1.846    0.000    0.000 
#    0.000    0.000    0.000    0.000    0.000    0.000 
#    0.000  240.000    0.000    0.000    0.000    0.000 
#
# Total GULP energy -144775.694807 kJ/mol
# GULP energy per Si atom -5568.295954 kJ/mol
# Density = 2.240092 g / cm^3
# Si number density = 22.452026 Si / 1000 Ang^3
#
#
#
# Elastic Constant Matrix: (Units=GPa)
#
#
# Indices 1 2 3 4 5 6 
#
# 1 66.5418 37.6203 40.8430 0.0000 0.0000 -1.6733
# 2 37.6203 66.5418 40.8430 0.0000 0.0000 1.6733
# 3 40.8430 40.8430 118.8885 0.0000 0.0000 0.0000
# 4 0.0000 0.0000 0.0000 53.2873 0.0000 0.0000
# 5 0.0000 0.0000 0.0000 0.0000 53.2873 0.0000
# 6 -1.6733 1.6733 0.0000 0.0000 0.0000 28.0034
#
#
#
# Elastic Compliance Matrix: (Units=1/GPa)
#
#
# Indices 1 2 3 4 5 6 
#
# 1 0.023979 -0.010838 -0.004514 0.000000 0.000000 0.002080
# 2 -0.010838 0.023979 -0.004514 0.000000 0.000000 -0.002080
# 3 -0.004514 -0.004514 0.011513 0.000000 0.000000 0.000000
# 4 0.000000 0.000000 0.000000 0.018766 0.000000 0.000000
# 5 0.000000 0.000000 0.000000 0.000000 0.018766 0.000000
# 6 0.002080 -0.002080 0.000000 0.000000 0.000000 0.035959
#
#
# Mechanical properties :
#
#
# Convention : Reuss Voigt Hill
#
# Bulk Modulus (GPa) = 50.66652 54.50942 52.58797
# Shear Modulus (GPa) = 27.89021 35.75999 31.82510
#
# Velocity S-wave (km/s) = 3.52833 3.99523 3.76902
# Velocity P-wave (km/s) = 6.26214 6.75377 6.51259
#
# Compressibility (1/GPa) = 0.01973690
#
# Stress axis : x y z
#
# Youngs Moduli (GPa) = 41.70341 41.70341 86.85858
#
# Poissons Ratio (x) = 0.45199 0.39211
# Poissons Ratio (y) = 0.45199 0.39211
# Poissons Ratio (z) = 0.18826 0.18826
#
# Static dielectric constant tensor:
#      x y z
#    x 1.939710 0.000000 0.000000 
#    y 0.000000 1.939710 0.000000 
#    z 0.000000 0.000000 2.148030 
# 
# From -- ./inp_files/189.got.cif
#   From: 2010.05.17/outbox.cif.g08.bks.cpg/sg85_cif.got.tgz:189.got - 2010.06.03 19:01:16.
