data_PCOD9544261
_publ_section_title
;
Structure prediction by ZEFSAII (Michael W. Deem and Ramdas Pophale) SiO2 
 PCOD9544261
Probable space group: P 42/M
;
_chemical_formula_sum "Si O2"
_cell_formula_units_Z 46
_cell_length_a 11.947070
_cell_length_b 11.947070
_cell_length_c 18.549103
_cell_angle_alpha 90.000000
_cell_angle_beta 90.000000
_cell_angle_gamma 90.000000
_cell_volume 2647.559502
_symmetry_space_group_name_H-M "P 42/M"
_symmetry_group_IT_number 84
_symmetry_cell_setting 'tetragonal'
loop_
_space_group_symop_operation_xyz
x,y,z
-y,x,1/2+z
-x,-y,z
y,-x,1/2+z
-x,-y,-z
y,-x,1/2-z
x,y,-z
-y,x,1/2-z
loop_
_atom_site_type_symbol
_atom_site_label
_atom_site_fract_x
_atom_site_fract_y
_atom_site_fract_z
Si Si1 0.589353 0.607451 0.000000
Si Si2 0.857672 0.652692 0.000000
Si Si3 0.000000 0.000000 0.750000
Si Si4 0.896531 0.189515 0.157609
Si Si5 0.475400 0.365617 0.842846
Si Si6 0.728121 0.674278 0.263394
Si Si7 0.389499 0.931930 0.660944
Si Si8 0.864848 0.976562 0.500000
O O1 0.500000 0.500000 0.000000
O O2 0.561490 0.660546 0.076489
O O3 0.726173 0.614654 0.000000
O O4 0.902424 0.604644 0.924183
O O5 0.910709 0.782520 0.000000
O O6 0.075495 0.075523 0.698695
O O7 0.786176 0.237802 0.195225
O O8 0.992316 0.280662 0.171889
O O9 0.905925 0.166077 0.071887
O O10 0.500000 0.500000 0.835694
O O11 0.586792 0.300440 0.825140
O O12 0.382516 0.324656 0.786314
O O13 0.823632 0.628576 0.210076
O O14 0.500000 0.000000 0.681339
O O15 0.000000 0.000000 0.500000
#
# Coordination Sequence:
#
# PCOD9544261 Si02
#       8
#     4   4   2   8   8   8   8   4
#     4  10  22  36  60  88 119 165 209 241 308 384
#     4  10  21  40  61  88 125 164 199 260 324 365
#     4  12  20  42  60  92 116 154 228 248 312 358
#     4  11  24  39  65  90 121 164 205 262 306 374
#     4  11  22  39  60  88 123 166 203 247 305 373
#     4  12  21  38  62  87 123 160 206 253 309 364
#     4  11  23  37  59  94 122 157 203 259 314 362
#     4  10  22  42  63  92 125 166 210 257 327 377
#
# _framework density 17.374490999999999
#
# number of rings (size 3 to 8) (size 9 to 14) (size 15 to 20)
#    0.000    1.043    6.087    1.304    0.000    0.696 
#    0.000    0.000    0.000    0.000    0.000    3.652 
#    0.000    0.000    0.000    0.000    0.000    0.000 
#
# Total GULP energy -256140.182112 kJ/mol
# GULP energy per Si atom -5568.264829 kJ/mol
# Density = 1.733495 g / cm^3
# Si number density = 17.374491 Si / 1000 Ang^3
#
#
#
# Elastic Constant Matrix: (Units=GPa)
#
#
# Indices 1 2 3 4 5 6 
#
# 1 83.6103 22.7042 25.2460 0.0000 0.0000 -3.4847
# 2 22.7042 83.6103 25.2460 0.0000 0.0000 3.4847
# 3 25.2460 25.2460 96.2096 0.0000 0.0000 0.0000
# 4 0.0000 0.0000 0.0000 -11.4005 0.0000 0.0000
# 5 0.0000 0.0000 0.0000 0.0000 -11.4005 0.0000
# 6 -3.4847 3.4847 0.0000 0.0000 0.0000 31.3818
#
#
#
# Elastic Compliance Matrix: (Units=1/GPa)
#
#
# Indices 1 2 3 4 5 6 
#
# 1 0.013688 -0.002942 -0.002820 0.000000 0.000000 0.001847
# 2 -0.002942 0.013688 -0.002820 0.000000 0.000000 -0.001847
# 3 -0.002820 -0.002820 0.011874 0.000000 0.000000 0.000000
# 4 0.000000 0.000000 0.000000 -0.087715 0.000000 0.000000
# 5 0.000000 0.000000 0.000000 0.000000 -0.087715 0.000000
# 6 0.001847 -0.001847 0.000000 0.000000 0.000000 0.032276
#
#
# Mechanical properties :
#
#
# Convention : Reuss Voigt Hill
#
# Bulk Modulus (GPa) = 45.27824 45.53586 45.40705
# Shear Modulus (GPa) = -62.98713 14.39844 -24.29434
#
# Velocity S-wave (km/s) = -6.02755 2.88186 -3.74341
# Velocity P-wave (km/s) = 4.72494 6.11055 2.73987
#
# Compressibility (1/GPa) = 0.02208567
#
# Stress axis : x y z
#
# Youngs Moduli (GPa) = 73.05890 73.05890 84.21952
#
# Poissons Ratio (x) = 0.21497 0.23747
# Poissons Ratio (y) = 0.21497 0.23747
# Poissons Ratio (z) = 0.20600 0.20600
#
# Static dielectric constant tensor:
#      x y z
#    x 1.586940 0.000000 0.000000 
#    y 0.000000 1.586940 0.000000 
#    z 0.000000 0.000000 1.579080 
# 
# From -- ./inp_files/3802.got.cif
#   From: 2010.05.17/outbox.cif.g08.bks.cpg/sg84_2_cif.got.tgz:3802.got - 2010.06.03 18:57:40.
