data_PCOD9544749
_publ_section_title
;
Structure prediction by ZEFSAII (Michael W. Deem and Ramdas Pophale) SiO2 
 PCOD9544749
Probable space group: P 4/N
;
_chemical_formula_sum "Si O2"
_cell_formula_units_Z 40
_cell_length_a 13.919177
_cell_length_b 13.919177
_cell_length_c 9.817477
_cell_angle_alpha 90.000000
_cell_angle_beta 90.000000
_cell_angle_gamma 90.000000
_cell_volume 1902.072241
_symmetry_space_group_name_H-M "P 4/N"
_symmetry_group_IT_number 85
_symmetry_cell_setting 'tetragonal'
loop_
_space_group_symop_operation_xyz
x,y,z
1/2-y,x,z
1/2-x,1/2-y,z
y,1/2-x,z
-x,-y,-z
1/2+y,-x,-z
1/2+x,1/2+y,-z
-y,1/2+x,-z
loop_
_atom_site_type_symbol
_atom_site_label
_atom_site_fract_x
_atom_site_fract_y
_atom_site_fract_z
Si Si1 0.338143 0.876671 0.981425
Si Si2 0.730308 0.017507 0.577191
Si Si3 0.548565 0.450567 0.234375
Si Si4 0.802589 0.900161 0.359603
Si Si5 0.590623 0.377739 0.690135
O O1 0.412959 0.929416 0.081389
O O2 0.372818 0.767619 0.955127
O O3 0.320743 0.915492 0.830541
O O4 0.643579 0.015960 0.682797
O O5 0.804488 0.093072 0.638559
O O6 0.679849 0.049053 0.436675
O O7 0.792038 0.926269 0.521470
O O8 0.641567 0.508992 0.293191
O O9 0.464608 0.525915 0.265541
O O10 0.693885 0.866632 0.323992
#
# Coordination Sequence:
#
# PCOD9544749 Si02
#       5
#     8   8   8   8   8
#     4  11  25  44  67  98 139 179 232 293 352 419
#     4  12  23  42  68 102 138 175 230 295 350 417
#     4  12  24  46  71  98 141 189 235 285 353 435
#     4  11  23  42  68 102 141 180 230 292 355 422
#     4  12  25  42  69 102 135 183 233 289 357 418
#
# _framework density 21.029693999999999
#
# number of rings (size 3 to 8) (size 9 to 14) (size 15 to 20)
#    0.000    0.400    6.000    3.600    0.000    0.400 
#    0.000    0.000    0.000    0.000    0.000    0.000 
#    0.000    0.000    0.000    0.000    0.000    0.000 
#
# Total GULP energy -222880.848170 kJ/mol
# GULP energy per Si atom -5572.021204 kJ/mol
# Density = 2.098183 g / cm^3
# Si number density = 21.029694 Si / 1000 Ang^3
#
#
#
# Elastic Constant Matrix: (Units=GPa)
#
#
# Indices 1 2 3 4 5 6 
#
# 1 36.6635 -14.0785 3.7592 0.0000 0.0000 5.0668
# 2 -14.0785 36.6635 3.7592 0.0000 0.0000 -5.0668
# 3 3.7592 3.7592 101.3884 0.0000 0.0000 0.0000
# 4 0.0000 0.0000 0.0000 12.8544 0.0000 0.0000
# 5 0.0000 0.0000 0.0000 0.0000 12.8544 0.0000
# 6 5.0668 -5.0668 0.0000 0.0000 0.0000 22.0732
#
#
#
# Elastic Compliance Matrix: (Units=1/GPa)
#
#
# Indices 1 2 3 4 5 6 
#
# 1 0.032742 0.012088 -0.001662 0.000000 0.000000 -0.004741
# 2 0.012088 0.032742 -0.001662 0.000000 0.000000 0.004741
# 3 -0.001662 -0.001662 0.009986 0.000000 0.000000 0.000000
# 4 0.000000 0.000000 0.000000 0.077794 0.000000 0.000000
# 5 0.000000 0.000000 0.000000 0.000000 0.077794 0.000000
# 6 -0.004741 0.004741 0.000000 0.000000 0.000000 0.047480
#
#
# Mechanical properties :
#
#
# Convention : Reuss Voigt Hill
#
# Bulk Modulus (GPa) = 10.75285 17.95500 14.35392
# Shear Modulus (GPa) = 17.12254 21.64143 19.38198
#
# Velocity S-wave (km/s) = 2.85653 3.21142 3.03916
# Velocity P-wave (km/s) = 4.00049 4.72308 4.37672
#
# Compressibility (1/GPa) = 0.09299862
#
# Stress axis : x y z
#
# Youngs Moduli (GPa) = 30.54140 30.54140 100.13701
#
# Poissons Ratio (x) = -0.36919 0.16644
# Poissons Ratio (y) = -0.36919 0.16644
# Poissons Ratio (z) = 0.05077 0.05077
#
# Static dielectric constant tensor:
#      x y z
#    x 1.866630 0.000000 0.000000 
#    y 0.000000 1.866630 0.000000 
#    z 0.000000 0.000000 1.738720 
# 
# From -- ./inp_files/897.got.cif
#   From: 2010.05.17/outbox.cif.g08.bks.cpg/sg85_cif.got.tgz:897.got - 2010.06.03 19:01:16.
