data_PCOD9544385
_publ_section_title
;
Structure prediction by ZEFSAII (Michael W. Deem and Ramdas Pophale) SiO2 
 PCOD9544385
Probable space group: P 42/M
;
_chemical_formula_sum "Si O2"
_cell_formula_units_Z 34
_cell_length_a 9.813323
_cell_length_b 9.813323
_cell_length_c 19.326394
_cell_angle_alpha 90.000000
_cell_angle_beta 90.000000
_cell_angle_gamma 90.000000
_cell_volume 1861.157027
_symmetry_space_group_name_H-M "P 42/M"
_symmetry_group_IT_number 84
_symmetry_cell_setting 'tetragonal'
loop_
_space_group_symop_operation_xyz
x,y,z
-y,x,1/2+z
-x,-y,z
y,-x,1/2+z
-x,-y,-z
y,-x,1/2-z
x,y,-z
-y,x,1/2-z
loop_
_atom_site_type_symbol
_atom_site_label
_atom_site_fract_x
_atom_site_fract_y
_atom_site_fract_z
Si Si1 0.895593 0.818989 0.000000
Si Si2 0.697667 0.598410 0.252746
Si Si3 0.197115 0.863253 0.000000
Si Si4 0.000000 0.000000 0.750000
Si Si5 0.175920 0.824237 0.344025
Si Si6 0.367344 0.919811 0.870809
O O1 0.844252 0.779266 0.923674
O O2 0.055611 0.784942 0.000000
O O3 0.855302 0.979698 0.000000
O O4 0.663312 0.447451 0.225250
O O5 0.757691 0.699881 0.196041
O O6 0.809616 0.592299 0.313365
O O7 0.287188 0.845860 0.067793
O O8 0.876912 0.042579 0.698248
O O9 0.040044 0.730507 0.342905
O O10 0.500000 0.000000 0.897549
#
# Coordination Sequence:
#
# PCOD9544385 Si02
#       6
#     4   8   4   2   8   8
#     4   9  20  36  55  87 124 155 189 247 311 351
#     4  11  24  41  59  87 125 162 202 253 303 357
#     4   9  19  34  57  87 122 145 190 253 303 357
#     4  12  20  30  64  96 116 154 200 260 304 346
#     4  11  21  36  60  89 121 157 200 248 304 358
#     4  11  20  36  59  87 112 154 201 247 299 360
#
# _framework density 18.268204999999998
#
# number of rings (size 3 to 8) (size 9 to 14) (size 15 to 20)
#    0.000    1.412    4.706    3.176    0.000    0.000 
#    0.000    1.176    0.000    4.235    0.000    0.000 
#    0.000    0.000    0.000    0.000    0.000    0.000 
#
# Total GULP energy -189475.368723 kJ/mol
# GULP energy per Si atom -5572.804962 kJ/mol
# Density = 1.822663 g / cm^3
# Si number density = 18.268205 Si / 1000 Ang^3
#
#
#
# Elastic Constant Matrix: (Units=GPa)
#
#
# Indices 1 2 3 4 5 6 
#
# 1 69.3711 21.8469 28.8509 0.0000 0.0000 -1.8067
# 2 21.8469 69.3711 28.8509 0.0000 0.0000 1.8067
# 3 28.8509 28.8509 68.2511 0.0000 0.0000 0.0000
# 4 0.0000 0.0000 0.0000 -9.1776 0.0000 0.0000
# 5 0.0000 0.0000 0.0000 0.0000 -9.1776 0.0000
# 6 -1.8067 1.8067 0.0000 0.0000 0.0000 24.9754
#
#
#
# Elastic Compliance Matrix: (Units=1/GPa)
#
#
# Indices 1 2 3 4 5 6 
#
# 1 0.018061 -0.003097 -0.006326 0.000000 0.000000 0.001531
# 2 -0.003097 0.018061 -0.006326 0.000000 0.000000 -0.001531
# 3 -0.006326 -0.006326 0.020000 0.000000 0.000000 0.000000
# 4 0.000000 0.000000 0.000000 -0.108961 0.000000 0.000000
# 5 0.000000 0.000000 0.000000 0.000000 -0.108961 0.000000
# 6 0.001531 -0.001531 0.000000 0.000000 0.000000 0.040261
#
#
# Mechanical properties :
#
#
# Convention : Reuss Voigt Hill
#
# Bulk Modulus (GPa) = 40.60827 40.67677 40.64252
# Shear Modulus (GPa) = -61.09933 9.82035 -25.63949
#
# Velocity S-wave (km/s) = -5.78950 2.32106 -3.75040
# Velocity P-wave (km/s) = 4.73433 5.43119 1.88201
#
# Compressibility (1/GPa) = 0.02462553
#
# Stress axis : x y z
#
# Youngs Moduli (GPa) = 55.36731 55.36731 50.00087
#
# Poissons Ratio (x) = 0.17148 0.31628
# Poissons Ratio (y) = 0.17148 0.31628
# Poissons Ratio (z) = 0.35023 0.35023
#
# Static dielectric constant tensor:
#      x y z
#    x 1.647280 0.000000 0.000000 
#    y 0.000000 1.647280 0.000000 
#    z 0.000000 0.000000 1.634990 
# 
# From -- ./inp_files/4296.got.cif
#   From: 2010.05.17/outbox.cif.g08.bks.cpg/sg84_3_cif.got.tgz:4296.got - 2010.06.03 18:57:40.
