data_PCOD9544178
_publ_section_title
;
Structure prediction by ZEFSAII (Michael W. Deem and Ramdas Pophale) SiO2 
 PCOD9544178
Probable space group: P 42/M
;
_chemical_formula_sum "Si O2"
_cell_formula_units_Z 48
_cell_length_a 8.751426
_cell_length_b 8.751426
_cell_length_c 30.898249
_cell_angle_alpha 90.000000
_cell_angle_beta 90.000000
_cell_angle_gamma 90.000000
_cell_volume 2366.418318
_symmetry_space_group_name_H-M "P 42/M"
_symmetry_group_IT_number 84
_symmetry_cell_setting 'tetragonal'
loop_
_space_group_symop_operation_xyz
x,y,z
-y,x,1/2+z
-x,-y,z
y,-x,1/2+z
-x,-y,-z
y,-x,1/2-z
x,y,-z
-y,x,1/2-z
loop_
_atom_site_type_symbol
_atom_site_label
_atom_site_fract_x
_atom_site_fract_y
_atom_site_fract_z
Si Si1 0.847954 0.407233 0.409059
Si Si2 0.675125 0.556606 0.953271
Si Si3 0.039141 0.176991 0.646635
Si Si4 0.286467 0.568565 0.773441
Si Si5 0.029332 0.765117 0.260258
Si Si6 0.312172 0.650943 0.127458
O O1 0.737441 0.335541 0.444874
O O2 0.736658 0.526132 0.383292
O O3 0.000000 0.500000 0.423836
O O4 0.914871 0.272090 0.379931
O O5 0.500000 0.500000 0.956191
O O6 0.730443 0.467820 0.910420
O O7 0.748596 0.522036 0.000000
O O8 0.208195 0.195144 0.627619
O O9 0.044195 0.261019 0.693257
O O10 0.000000 0.000000 0.649762
O O11 0.406310 0.678254 0.748253
O O12 0.118849 0.629512 0.762091
O O13 0.315213 0.575867 0.824869
O O14 0.899133 0.844844 0.231928
#
# Coordination Sequence:
#
# PCOD9544178 Si02
#       6
#     8   8   8   8   8   8
#     4   9  20  34  60  85 113 147 185 243 290 351
#     4   9  19  36  63  89 115 148 191 249 301 354
#     4  11  20  36  57  79 112 156 199 238 286 340
#     4  11  24  33  51  83 115 153 182 230 285 354
#     4  11  20  37  53  74 109 151 195 241 268 326
#     4  10  20  38  55  84 117 150 192 237 301 345
#
# _framework density 20.283816999999999
#
# number of rings (size 3 to 8) (size 9 to 14) (size 15 to 20)
#    0.000    1.833    3.333    1.000    9.333    1.000 
#    0.000    3.333    0.000    3.000    0.000    0.000 
#    0.000    0.000    0.000    0.000    0.000    0.000 
#
# Total GULP energy -267731.449017 kJ/mol
# GULP energy per Si atom -5577.738521 kJ/mol
# Density = 2.023765 g / cm^3
# Si number density = 20.283817 Si / 1000 Ang^3
#
#
#
# Elastic Constant Matrix: (Units=GPa)
#
#
# Indices 1 2 3 4 5 6 
#
# 1 65.8182 32.5443 44.9390 0.0000 0.0000 -3.2666
# 2 32.5443 65.8182 44.9390 0.0000 0.0000 3.2666
# 3 44.9390 44.9390 149.0232 0.0000 0.0000 0.0000
# 4 0.0000 0.0000 0.0000 -12.6191 0.0000 0.0000
# 5 0.0000 0.0000 0.0000 0.0000 -12.6191 0.0000
# 6 -3.2666 3.2666 0.0000 0.0000 0.0000 29.9605
#
#
#
# Elastic Compliance Matrix: (Units=1/GPa)
#
#
# Indices 1 2 3 4 5 6 
#
# 1 0.022372 -0.008339 -0.004232 0.000000 0.000000 0.003348
# 2 -0.008339 0.022372 -0.004232 0.000000 0.000000 -0.003348
# 3 -0.004232 -0.004232 0.009263 0.000000 0.000000 0.000000
# 4 0.000000 0.000000 0.000000 -0.079245 0.000000 0.000000
# 5 0.000000 0.000000 0.000000 0.000000 -0.079245 0.000000
# 6 0.003348 -0.003348 0.000000 0.000000 0.000000 0.034107
#
#
# Mechanical properties :
#
#
# Convention : Reuss Voigt Hill
#
# Bulk Modulus (GPa) = 49.01510 58.38933 53.70221
# Shear Modulus (GPa) = -166.83218 11.49364 -77.66927
#
# Velocity S-wave (km/s) = -9.07896 2.38300 -6.19471
# Velocity P-wave (km/s) = 9.25668 6.03492 4.96316
#
# Compressibility (1/GPa) = 0.02040188
#
# Stress axis : x y z
#
# Youngs Moduli (GPa) = 44.69841 44.69841 107.96062
#
# Poissons Ratio (x) = 0.37273 0.45687
# Poissons Ratio (y) = 0.37273 0.45687
# Poissons Ratio (z) = 0.18916 0.18916
#
# Static dielectric constant tensor:
#      x y z
#    x 1.752630 0.000000 0.000000 
#    y 0.000000 1.752630 0.000000 
#    z 0.000000 0.000000 1.753670 
# 
# From -- ./inp_files/5737.got.cif
#   From: 2010.05.17/outbox.cif.g08.bks.cpg/sg84_3_cif.got.tgz:5737.got - 2010.06.03 18:57:40.
