data_PCOD9544358
_publ_section_title
;
Structure prediction by ZEFSAII (Michael W. Deem and Ramdas Pophale) SiO2 
 PCOD9544358
Probable space group: P 42/M
;
_chemical_formula_sum "Si O2"
_cell_formula_units_Z 20
_cell_length_a 5.001316
_cell_length_b 5.001316
_cell_length_c 33.720851
_cell_angle_alpha 90.000000
_cell_angle_beta 90.000000
_cell_angle_gamma 90.000000
_cell_volume 843.465100
_symmetry_space_group_name_H-M "P 42/M"
_symmetry_group_IT_number 84
_symmetry_cell_setting 'tetragonal'
loop_
_space_group_symop_operation_xyz
x,y,z
-y,x,1/2+z
-x,-y,z
y,-x,1/2+z
-x,-y,-z
y,-x,1/2-z
x,y,-z
-y,x,1/2-z
loop_
_atom_site_type_symbol
_atom_site_label
_atom_site_fract_x
_atom_site_fract_y
_atom_site_fract_z
Si Si1 0.000000 0.000000 0.000000
Si Si2 0.500000 0.500000 0.250000
Si Si3 0.000000 0.000000 0.641329
Si Si4 0.500000 0.000000 0.695486
Si Si5 0.301732 0.749087 0.573490
O O1 0.802485 0.875562 0.034795
O O2 0.750049 0.578750 0.222698
O O3 0.115261 0.773049 0.611985
O O4 0.751281 0.916716 0.668470
O O5 0.500000 0.500000 0.570961
O O6 0.500000 0.000000 0.575778
#
# Coordination Sequence:
#
# PCOD9544358 Si02
#       5
#     2   2   4   4   8
#     4  10  24  42  72 102 152 194 258 312 376 442
#     4  12  28  48  76 108 144 190 240 296 384 444
#     4  11  26  46  76 107 150 192 248 305 376 446
#     4  12  26  48  74 107 146 188 240 305 366 462
#     4  11  25  44  69 107 145 199 249 311 375 444
#
# _framework density 23.711714000000001
#
# number of rings (size 3 to 8) (size 9 to 14) (size 15 to 20)
#    0.000    0.800    2.000    3.600    2.800   11.200 
#    0.000    0.000    0.000    0.000    0.000    0.000 
#    0.000    0.000    0.000    0.000    0.000    0.000 
#
# Total GULP energy -111557.085180 kJ/mol
# GULP energy per Si atom -5577.854259 kJ/mol
# Density = 2.365775 g / cm^3
# Si number density = 23.711714 Si / 1000 Ang^3
#
#
#
# Elastic Constant Matrix: (Units=GPa)
#
#
# Indices 1 2 3 4 5 6 
#
# 1 161.2477 53.3300 52.9311 0.0000 0.0000 4.3859
# 2 53.3300 161.2477 52.9311 0.0000 0.0000 -4.3859
# 3 52.9311 52.9311 162.0101 0.0000 0.0000 0.0000
# 4 0.0000 0.0000 0.0000 -31.5045 0.0000 0.0000
# 5 0.0000 0.0000 0.0000 0.0000 -31.5045 0.0000
# 6 4.3859 -4.3859 0.0000 0.0000 0.0000 60.8266
#
#
#
# Elastic Compliance Matrix: (Units=1/GPa)
#
#
# Indices 1 2 3 4 5 6 
#
# 1 0.007438 -0.001883 -0.001815 0.000000 0.000000 -0.000672
# 2 -0.001883 0.007438 -0.001815 0.000000 0.000000 0.000672
# 3 -0.001815 -0.001815 0.007359 0.000000 0.000000 0.000000
# 4 0.000000 0.000000 0.000000 -0.031742 0.000000 0.000000
# 5 0.000000 0.000000 0.000000 0.000000 -0.031742 0.000000
# 6 -0.000672 0.000672 0.000000 0.000000 0.000000 0.016537
#
#
# Mechanical properties :
#
#
# Convention : Reuss Voigt Hill
#
# Bulk Modulus (GPa) = 89.20991 89.20999 89.20995
# Shear Modulus (GPa) = -502.60010 21.25108 -240.67451
#
# Velocity S-wave (km/s) = -14.57474 2.99695 -10.08566
# Velocity P-wave (km/s) = 15.66928 7.04841 9.89561
#
# Compressibility (1/GPa) = 0.01120952
#
# Stress axis : x y z
#
# Youngs Moduli (GPa) = 134.43761 134.43761 135.89643
#
# Poissons Ratio (x) = 0.25309 0.24668
# Poissons Ratio (y) = 0.25309 0.24668
# Poissons Ratio (z) = 0.24403 0.24403
#
# Static dielectric constant tensor:
#      x y z
#    x 1.837610 0.000000 0.000000 
#    y 0.000000 1.837610 0.000000 
#    z 0.000000 0.000000 1.868110 
# 
# From -- ./inp_files/5504.got.cif
#   From: 2010.05.17/outbox.cif.g08.bks.cpg/sg84_3_cif.got.tgz:5504.got - 2010.06.03 18:57:40.
