data_PCOD9544852
_publ_section_title
;
Structure prediction by ZEFSAII (Michael W. Deem and Ramdas Pophale) SiO2 
 PCOD9544852
Probable space group: P 4/N
;
_chemical_formula_sum "Si O2"
_cell_formula_units_Z 26
_cell_length_a 11.763158
_cell_length_b 11.763158
_cell_length_c 7.688717
_cell_angle_alpha 90.000000
_cell_angle_beta 90.000000
_cell_angle_gamma 90.000000
_cell_volume 1063.902273
_symmetry_space_group_name_H-M "P 4/N"
_symmetry_group_IT_number 85
_symmetry_cell_setting 'tetragonal'
loop_
_space_group_symop_operation_xyz
x,y,z
1/2-y,x,z
1/2-x,1/2-y,z
y,1/2-x,z
-x,-y,-z
1/2+y,-x,-z
1/2+x,1/2+y,-z
-y,1/2+x,-z
loop_
_atom_site_type_symbol
_atom_site_label
_atom_site_fract_x
_atom_site_fract_y
_atom_site_fract_z
Si Si1 0.750000 0.750000 0.215544
Si Si2 0.982256 0.254340 0.830999
Si Si3 0.962534 0.181733 0.223183
Si Si4 0.019008 0.587592 0.656843
O O1 0.612627 0.782643 0.211100
O O2 0.894122 0.349793 0.766374
O O3 0.947974 0.133224 0.752987
O O4 0.965782 0.244588 0.038799
O O5 0.972222 0.277317 0.372137
O O6 0.066651 0.094308 0.230192
O O7 0.000000 0.500000 0.500000
#
# Coordination Sequence:
#
# PCOD9544852 Si02
#       4
#     2   8   8   8
#     4  12  24  40  84 114 156 196 276 362 396 488
#     4  12  24  50  79 116 158 215 284 347 411 508
#     4  12  26  50  79 112 159 218 282 339 421 510
#     4  12  29  47  76 120 163 209 273 348 431 498
#
# _framework density 24.438333
#
# number of rings (size 3 to 8) (size 9 to 14) (size 15 to 20)
#    0.000    0.000    6.154    3.692    4.308    0.615 
#    0.000    0.000    0.000    0.000    0.000    0.000 
#    0.000    0.000    0.000    0.000    0.000    0.000 
#
# Total GULP energy -145224.924342 kJ/mol
# GULP energy per Si atom -5585.574013 kJ/mol
# Density = 2.438271 g / cm^3
# Si number density = 24.438333 Si / 1000 Ang^3
#
#
#
# Elastic Constant Matrix: (Units=GPa)
#
#
# Indices 1 2 3 4 5 6 
#
# 1 213.0322 73.6760 37.4818 0.0000 0.0000 -4.7231
# 2 73.6760 213.0322 37.4818 0.0000 0.0000 4.7231
# 3 37.4818 37.4818 68.5354 0.0000 0.0000 0.0000
# 4 0.0000 0.0000 0.0000 26.7901 0.0000 0.0000
# 5 0.0000 0.0000 0.0000 0.0000 26.7901 0.0000
# 6 -4.7231 4.7231 0.0000 0.0000 0.0000 55.3259
#
#
#
# Elastic Compliance Matrix: (Units=1/GPa)
#
#
# Indices 1 2 3 4 5 6 
#
# 1 0.005644 -0.001574 -0.002226 0.000000 0.000000 0.000616
# 2 -0.001574 0.005644 -0.002226 0.000000 0.000000 -0.000616
# 3 -0.002226 -0.002226 0.017026 0.000000 0.000000 0.000000
# 4 0.000000 0.000000 0.000000 0.037327 0.000000 0.000000
# 5 0.000000 0.000000 0.000000 0.000000 0.037327 0.000000
# 6 0.000616 -0.000616 0.000000 0.000000 0.000000 0.018180
#
#
# Mechanical properties :
#
#
# Convention : Reuss Voigt Hill
#
# Bulk Modulus (GPa) = 61.49270 87.98654 74.73962
# Shear Modulus (GPa) = 36.07014 44.84525 40.45770
#
# Velocity S-wave (km/s) = 3.84600 4.28838 4.07320
# Velocity P-wave (km/s) = 6.70368 7.78472 7.26434
#
# Compressibility (1/GPa) = 0.01626209
#
# Stress axis : x y z
#
# Youngs Moduli (GPa) = 177.18803 177.18803 58.73529
#
# Poissons Ratio (x) = 0.27888 0.13073
# Poissons Ratio (y) = 0.27888 0.13073
# Poissons Ratio (z) = 0.39438 0.39438
#
# Static dielectric constant tensor:
#      x y z
#    x 1.925650 0.000000 0.000000 
#    y 0.000000 1.925650 0.000000 
#    z 0.000000 0.000000 2.058080 
# 
# From -- ./inp_files/670.got.cif
#   From: 2010.05.17/outbox.cif.g08.bks.cpg/sg85_cif.got.tgz:670.got - 2010.06.03 19:01:16.
