data_PCOD9544591
_publ_section_title
;
Structure prediction by ZEFSAII (Michael W. Deem and Ramdas Pophale) SiO2 
 PCOD9544591
Probable space group: P 4/N
;
_chemical_formula_sum "Si O2"
_cell_formula_units_Z 50
_cell_length_a 13.801809
_cell_length_b 13.801809
_cell_length_c 12.835468
_cell_angle_alpha 90.000000
_cell_angle_beta 90.000000
_cell_angle_gamma 90.000000
_cell_volume 2445.027422
_symmetry_space_group_name_H-M "P 4/N"
_symmetry_group_IT_number 85
_symmetry_cell_setting 'tetragonal'
loop_
_space_group_symop_operation_xyz
x,y,z
1/2-y,x,z
1/2-x,1/2-y,z
y,1/2-x,z
-x,-y,-z
1/2+y,-x,-z
1/2+x,1/2+y,-z
-y,1/2+x,-z
loop_
_atom_site_type_symbol
_atom_site_label
_atom_site_fract_x
_atom_site_fract_y
_atom_site_fract_z
Si Si1 0.814409 0.428423 0.902109
Si Si2 0.810197 0.100673 0.474864
Si Si3 0.365069 0.770201 0.249416
Si Si4 0.185210 0.103992 0.418848
Si Si5 0.107077 0.108588 0.184316
Si Si6 0.589249 0.397147 0.883859
Si Si7 0.250000 0.250000 0.086702
O O1 0.869034 0.337861 0.851532
O O2 0.824093 0.512373 0.816510
O O3 0.703562 0.397080 0.912628
O O4 0.857479 0.460982 0.012494
O O5 0.696531 0.128784 0.493701
O O6 0.819082 0.090548 0.350624
O O7 0.838109 0.001324 0.533213
O O8 0.250000 0.750000 0.271540
O O9 0.417977 0.672293 0.215649
O O10 0.297684 0.126548 0.448023
O O11 0.161474 0.103059 0.294868
O O12 0.181506 0.153214 0.101509
O O13 0.066939 0.005337 0.148742
#
# Coordination Sequence:
#
# PCOD9544591 Si02
#       7
#     8   8   8   8   8   8   2
#     4  11  22  37  63  90 122 162 206 251 315 376
#     4  11  23  39  61  94 130 166 211 265 328 383
#     4  10  21  38  58  90 127 161 200 257 314 381
#     4  11  23  43  65  92 123 168 219 266 320 384
#     4  12  22  38  62  91 121 159 205 260 311 368
#     4  11  21  38  62  88 125 164 202 253 316 376
#     4  12  20  36  56  88 120 150 200 260 304 348
#
# _framework density 20.449669
#
# number of rings (size 3 to 8) (size 9 to 14) (size 15 to 20)
#    0.000    0.960    6.400    1.440    4.480    0.640 
#    2.880    0.000    0.000    0.000    0.000    0.000 
#    0.000    0.000    0.000    0.000    0.000    0.000 
#
# Total GULP energy -278381.306202 kJ/mol
# GULP energy per Si atom -5567.626124 kJ/mol
# Density = 2.040312 g / cm^3
# Si number density = 20.449669 Si / 1000 Ang^3
#
#
#
# Elastic Constant Matrix: (Units=GPa)
#
#
# Indices 1 2 3 4 5 6 
#
# 1 62.0600 -17.0481 5.3624 0.0000 0.0000 -0.6501
# 2 -17.0481 62.0600 5.3624 0.0000 0.0000 0.6501
# 3 5.3624 5.3624 70.8591 0.0000 0.0000 0.0000
# 4 0.0000 0.0000 0.0000 12.0443 0.0000 0.0000
# 5 0.0000 0.0000 0.0000 0.0000 12.0443 0.0000
# 6 -0.6501 0.6501 0.0000 0.0000 0.0000 19.1435
#
#
#
# Elastic Compliance Matrix: (Units=1/GPa)
#
#
# Indices 1 2 3 4 5 6 
#
# 1 0.017636 0.004988 -0.001712 0.000000 0.000000 0.000430
# 2 0.004988 0.017636 -0.001712 0.000000 0.000000 -0.000430
# 3 -0.001712 -0.001712 0.014372 0.000000 0.000000 0.000000
# 4 0.000000 0.000000 0.000000 0.083027 0.000000 0.000000
# 5 0.000000 0.000000 0.000000 0.000000 0.083027 0.000000
# 6 0.000430 -0.000430 0.000000 0.000000 0.000000 0.052266
#
#
# Mechanical properties :
#
#
# Convention : Reuss Voigt Hill
#
# Bulk Modulus (GPa) = 18.94957 20.25918 19.60438
# Shear Modulus (GPa) = 17.70370 22.06657 19.88513
#
# Velocity S-wave (km/s) = 2.94550 3.28848 3.12171
# Velocity P-wave (km/s) = 4.56668 4.93428 4.75404
#
# Compressibility (1/GPa) = 0.05277165
#
# Stress axis : x y z
#
# Youngs Moduli (GPa) = 56.70175 56.70175 69.58143
#
# Poissons Ratio (x) = -0.28284 0.11913
# Poissons Ratio (y) = -0.28284 0.11913
# Poissons Ratio (z) = 0.09708 0.09708
#
# Static dielectric constant tensor:
#      x y z
#    x 1.772580 0.000000 0.000000 
#    y 0.000000 1.772580 0.000000 
#    z 0.000000 0.000000 1.732960 
# 
# From -- ./inp_files/1691.got.cif
#   From: 2010.05.17/outbox.cif.g08.bks.cpg/sg85_cif.got.tgz:1691.got - 2010.06.03 19:01:16.
