data_PCOD9544457
_publ_section_title
;
Structure prediction by ZEFSAII (Michael W. Deem and Ramdas Pophale) SiO2 
 PCOD9544457
Probable space group: P 42/M
;
_chemical_formula_sum "Si O2"
_cell_formula_units_Z 34
_cell_length_a 9.715160
_cell_length_b 9.715160
_cell_length_c 20.812468
_cell_angle_alpha 90.000000
_cell_angle_beta 90.000000
_cell_angle_gamma 90.000000
_cell_volume 1964.370927
_symmetry_space_group_name_H-M "P 42/M"
_symmetry_group_IT_number 84
_symmetry_cell_setting 'tetragonal'
loop_
_space_group_symop_operation_xyz
x,y,z
-y,x,1/2+z
-x,-y,z
y,-x,1/2+z
-x,-y,-z
y,-x,1/2-z
x,y,-z
-y,x,1/2-z
loop_
_atom_site_type_symbol
_atom_site_label
_atom_site_fract_x
_atom_site_fract_y
_atom_site_fract_z
Si Si1 0.062591 0.343845 0.573639
Si Si2 0.038778 0.354152 0.219232
Si Si3 0.438131 0.742234 0.171046
Si Si4 0.741927 0.842717 0.172877
Si Si5 0.500000 0.500000 0.750000
O O1 0.067334 0.299699 0.500000
O O2 0.211256 0.358720 0.607415
O O3 0.000000 0.500000 0.575919
O O4 0.961111 0.256358 0.618858
O O5 0.141342 0.399940 0.276985
O O6 0.123589 0.250400 0.175434
O O7 0.000000 0.500000 0.187784
O O8 0.914059 0.280656 0.257147
O O9 0.602907 0.754322 0.160713
O O10 0.410010 0.596899 0.204012
#
# Coordination Sequence:
#
# PCOD9544457 Si02
#       5
#     8   8   8   8   2
#     4   8  15  29  47  66  91 127 167 203 236 282
#     4   9  17  28  42  67  97 119 152 199 245 296
#     4   9  17  26  43  68  95 123 151 195 251 300
#     4   9  16  28  44  66  94 122 155 196 243 289
#     4  12  16  24  46  68 100 128 144 190 276 304
#
# _framework density 17.308339
#
# number of rings (size 3 to 8) (size 9 to 14) (size 15 to 20)
#    0.000    3.059    2.353    2.824    0.000    0.471 
#    0.000    0.588    0.000    0.706    0.000   13.176 
#    0.000    0.000    0.000    3.765    0.000    1.882 
#
# Total GULP energy -189295.378537 kJ/mol
# GULP energy per Si atom -5567.511133 kJ/mol
# Density = 1.726894 g / cm^3
# Si number density = 17.308339 Si / 1000 Ang^3
#
#
#
# Elastic Constant Matrix: (Units=GPa)
#
#
# Indices 1 2 3 4 5 6 
#
# 1 60.0211 32.4320 33.3975 0.0000 0.0000 3.1100
# 2 32.4320 60.0211 33.3975 0.0000 0.0000 -3.1100
# 3 33.3975 33.3975 89.0235 0.0000 0.0000 0.0000
# 4 0.0000 0.0000 0.0000 13.1651 0.0000 0.0000
# 5 0.0000 0.0000 0.0000 0.0000 13.1651 0.0000
# 6 3.1100 -3.1100 0.0000 0.0000 0.0000 31.0196
#
#
#
# Elastic Compliance Matrix: (Units=1/GPa)
#
#
# Indices 1 2 3 4 5 6 
#
# 1 0.025961 -0.011123 -0.005567 0.000000 0.000000 -0.003718
# 2 -0.011123 0.025961 -0.005567 0.000000 0.000000 0.003718
# 3 -0.005567 -0.005567 0.015410 0.000000 0.000000 0.000000
# 4 0.000000 0.000000 0.000000 0.075958 0.000000 0.000000
# 5 0.000000 0.000000 0.000000 0.000000 0.075958 0.000000
# 6 -0.003718 0.003718 0.000000 0.000000 0.000000 0.032983
#
#
# Mechanical properties :
#
#
# Convention : Reuss Voigt Hill
#
# Bulk Modulus (GPa) = 43.82228 45.27997 44.55113
# Shear Modulus (GPa) = 16.42842 18.79256 17.61049
#
# Velocity S-wave (km/s) = 3.08419 3.29865 3.19322
# Velocity P-wave (km/s) = 6.16900 6.38167 6.27623
#
# Compressibility (1/GPa) = 0.02281944
#
# Stress axis : x y z
#
# Youngs Moduli (GPa) = 38.51908 38.51908 64.89468
#
# Poissons Ratio (x) = 0.42846 0.36124
# Poissons Ratio (y) = 0.42846 0.36124
# Poissons Ratio (z) = 0.21442 0.21442
#
# Static dielectric constant tensor:
#      x y z
#    x 1.624810 0.000000 0.000000 
#    y 0.000000 1.624810 0.000000 
#    z 0.000000 0.000000 1.577210 
# 
# From -- ./inp_files/4734.got.cif
#   From: 2010.05.17/outbox.cif.g08.bks.cpg/sg84_3_cif.got.tgz:4734.got - 2010.06.03 18:57:40.
