data_PCOD9544634
_publ_section_title
;
Structure prediction by ZEFSAII (Michael W. Deem and Ramdas Pophale) SiO2 
 PCOD9544634
Probable space group: P 4/N
;
_chemical_formula_sum "Si O2"
_cell_formula_units_Z 56
_cell_length_a 14.273900
_cell_length_b 14.273900
_cell_length_c 11.596063
_cell_angle_alpha 90.000000
_cell_angle_beta 90.000000
_cell_angle_gamma 90.000000
_cell_volume 2362.630825
_symmetry_space_group_name_H-M "P 4/N"
_symmetry_group_IT_number 85
_symmetry_cell_setting 'tetragonal'
loop_
_space_group_symop_operation_xyz
x,y,z
1/2-y,x,z
1/2-x,1/2-y,z
y,1/2-x,z
-x,-y,-z
1/2+y,-x,-z
1/2+x,1/2+y,-z
-y,1/2+x,-z
loop_
_atom_site_type_symbol
_atom_site_label
_atom_site_fract_x
_atom_site_fract_y
_atom_site_fract_z
Si Si1 0.028894 0.352349 0.380006
Si Si2 0.892724 0.688103 0.362544
Si Si3 0.397948 0.284924 0.979438
Si Si4 0.883969 0.221628 0.939602
Si Si5 0.139958 0.919625 0.756388
Si Si6 0.965558 0.827023 0.775099
Si Si7 0.142137 0.638209 0.493530
O O1 0.072551 0.325977 0.504945
O O2 0.007783 0.264543 0.298170
O O3 0.103226 0.411207 0.309183
O O4 0.930452 0.401644 0.413728
O O5 0.868995 0.797231 0.346552
O O6 0.973171 0.657329 0.274488
O O7 0.317714 0.359092 0.944470
O O8 0.404078 0.292031 0.118090
O O9 0.505393 0.300587 0.941003
O O10 0.872158 0.269448 0.813512
O O11 0.807150 0.142479 0.970536
O O12 0.106738 0.879970 0.633906
O O13 0.051322 0.886729 0.830510
O O14 0.123567 0.749724 0.483783
#
# Coordination Sequence:
#
# PCOD9544634 Si02
#       7
#     8   8   8   8   8   8   8
#     4  11  22  36  65  98 136 177 221 275 334 409
#     4  10  22  41  65 100 145 189 229 273 338 428
#     4  11  25  46  72 106 139 178 236 301 362 421
#     4  11  26  49  75  99 136 186 244 309 368 435
#     4  11  25  43  67 101 134 179 236 281 359 419
#     4  12  22  40  67 100 134 175 226 284 343 406
#     4  10  22  39  61  94 138 176 215 267 334 414
#
# _framework density 23.702390000000001
#
# number of rings (size 3 to 8) (size 9 to 14) (size 15 to 20)
#    0.000    1.143    5.714    0.000    0.000   10.000 
#    2.571    1.429    0.000    0.000    0.000    0.000 
#    0.000    0.000    0.000    0.000    0.000    0.000 
#
# Total GULP energy -312914.525557 kJ/mol
# GULP energy per Si atom -5587.759385 kJ/mol
# Density = 2.364844 g / cm^3
# Si number density = 23.702390 Si / 1000 Ang^3
#
#
#
# Elastic Constant Matrix: (Units=GPa)
#
#
# Indices 1 2 3 4 5 6 
#
# 1 80.6016 14.9280 1.1348 0.0000 0.0000 -3.0940
# 2 14.9280 80.6016 1.1348 0.0000 0.0000 3.0940
# 3 1.1348 1.1348 53.3785 0.0000 0.0000 0.0000
# 4 0.0000 0.0000 0.0000 21.9122 0.0000 0.0000
# 5 0.0000 0.0000 0.0000 0.0000 21.9122 0.0000
# 6 -3.0940 3.0940 0.0000 0.0000 0.0000 24.6961
#
#
#
# Elastic Compliance Matrix: (Units=1/GPa)
#
#
# Indices 1 2 3 4 5 6 
#
# 1 0.012941 -0.002468 -0.000223 0.000000 0.000000 0.001930
# 2 -0.002468 0.012941 -0.000223 0.000000 0.000000 -0.001930
# 3 -0.000223 -0.000223 0.018744 0.000000 0.000000 0.000000
# 4 0.000000 0.000000 0.000000 0.045637 0.000000 0.000000
# 5 0.000000 0.000000 0.000000 0.000000 0.045637 0.000000
# 6 0.001930 -0.001930 0.000000 0.000000 0.000000 0.040976
#
#
# Mechanical properties :
#
#
# Convention : Reuss Voigt Hill
#
# Bulk Modulus (GPa) = 25.77355 27.66410 26.71882
# Shear Modulus (GPa) = 25.55792 26.86304 26.21048
#
# Velocity S-wave (km/s) = 3.28729 3.37017 3.32899
# Velocity P-wave (km/s) = 5.03048 5.18082 5.10620
#
# Compressibility (1/GPa) = 0.03879947
#
# Stress axis : x y z
#
# Youngs Moduli (GPa) = 77.27390 77.27390 53.35149
#
# Poissons Ratio (x) = 0.19069 0.01188
# Poissons Ratio (y) = 0.19069 0.01188
# Poissons Ratio (z) = 0.01721 0.01721
#
# Static dielectric constant tensor:
#      x y z
#    x 1.914910 0.000000 0.000000 
#    y 0.000000 1.914910 0.000000 
#    z 0.000000 0.000000 1.919810 
# 
# From -- ./inp_files/1746.got.cif
#   From: 2010.05.17/outbox.cif.g08.bks.cpg/sg85_cif.got.tgz:1746.got - 2010.06.03 19:01:16.
