data_PCOD9544904
_publ_section_title
;
Structure prediction by ZEFSAII (Michael W. Deem and Ramdas Pophale) SiO2 
 PCOD9544904
Probable space group: P 42/N
;
_chemical_formula_sum "Si O2"
_cell_formula_units_Z 56
_cell_length_a 13.737934
_cell_length_b 13.737934
_cell_length_c 14.588418
_cell_angle_alpha 90.000000
_cell_angle_beta 90.000000
_cell_angle_gamma 90.000000
_cell_volume 2753.284246
_symmetry_space_group_name_H-M "P 42/N"
_symmetry_group_IT_number 86
_space_group.IT_coordinate_system_code '2'
_symmetry_cell_setting 'tetragonal'
loop_
_space_group_symop_operation_xyz
x,y,z
-y,1/2+x,1/2+z
1/2-x,1/2-y,z
1/2+y,-x,1/2+z
-x,-y,-z
y,1/2-x,1/2-z
1/2+x,1/2+y,-z
1/2-y,x,1/2-z
loop_
_atom_site_type_symbol
_atom_site_label
_atom_site_fract_x
_atom_site_fract_y
_atom_site_fract_z
Si Si1 0.193509 0.380005 0.277048
Si Si2 0.417458 0.898999 0.825188
Si Si3 0.214743 0.998292 0.496966
Si Si4 0.744460 0.134784 0.330610
Si Si5 0.822064 0.842419 0.966913
Si Si6 0.900951 0.459868 0.814482
Si Si7 0.147682 0.466359 0.984273
O O1 0.303531 0.346716 0.298260
O O2 0.129888 0.349756 0.363342
O O3 0.183715 0.487258 0.242253
O O4 0.346920 0.879655 0.738557
O O5 0.506683 0.970129 0.795738
O O6 0.359792 0.964796 0.898054
O O7 0.456452 0.813251 0.895444
O O8 0.302667 0.075716 0.501521
O O9 0.119167 0.065100 0.522300
O O10 0.248616 0.918024 0.570339
O O11 0.750000 0.250000 0.344953
O O12 0.847216 0.095232 0.288653
O O13 0.750000 0.750000 0.969397
O O14 0.756333 0.924360 0.011071
O O15 0.875427 0.475999 0.921714
#
# Coordination Sequence:
#
# PCOD9544904 Si02
#       7
#     8   8   8   8   8   8   8
#     4  11  18  31  60  99 131 156 213 283 325 382
#     4  11  23  43  72  88 129 183 226 266 338 404
#     4  10  21  44  64  94 130 174 219 278 335 409
#     4  12  28  43  65  94 133 183 227 267 334 412
#     4  10  19  32  63 100 127 157 213 276 343 385
#     4  11  22  42  64  94 136 174 224 271 335 407
#     4  10  18  41  71  93 125 173 215 278 345 400
#
# _framework density 20.339344000000001
#
# number of rings (size 3 to 8) (size 9 to 14) (size 15 to 20)
#    0.000    1.286    5.714    2.571    4.000    1.714 
#    0.000    0.000    0.000    2.571    0.000    0.000 
#    0.000    0.000    0.000    0.000    0.000    0.000 
#
# Total GULP energy -311900.771545 kJ/mol
# GULP energy per Si atom -5569.656635 kJ/mol
# Density = 2.029305 g / cm^3
# Si number density = 20.339344 Si / 1000 Ang^3
#
#
#
# Elastic Constant Matrix: (Units=GPa)
#
#
# Indices 1 2 3 4 5 6 
#
# 1 104.4237 40.4914 47.4066 0.0000 0.0000 -2.9480
# 2 40.4914 104.4237 47.4066 0.0000 0.0000 2.9480
# 3 47.4066 47.4066 85.5289 0.0000 0.0000 0.0000
# 4 0.0000 0.0000 0.0000 16.1458 0.0000 0.0000
# 5 0.0000 0.0000 0.0000 0.0000 16.1458 0.0000
# 6 -2.9480 2.9480 0.0000 0.0000 0.0000 33.2483
#
#
#
# Elastic Compliance Matrix: (Units=1/GPa)
#
#
# Indices 1 2 3 4 5 6 
#
# 1 0.013299 -0.002472 -0.006001 0.000000 0.000000 0.001398
# 2 -0.002472 0.013299 -0.006001 0.000000 0.000000 -0.001398
# 3 -0.006001 -0.006001 0.018344 0.000000 0.000000 0.000000
# 4 0.000000 0.000000 0.000000 0.061935 0.000000 0.000000
# 5 0.000000 0.000000 0.000000 0.000000 0.061935 0.000000
# 6 0.001398 -0.001398 0.000000 0.000000 0.000000 0.030325
#
#
# Mechanical properties :
#
#
# Convention : Reuss Voigt Hill
#
# Bulk Modulus (GPa) = 62.52376 62.77618 62.64997
# Shear Modulus (GPa) = 21.42090 23.71276 22.56683
#
# Velocity S-wave (km/s) = 3.24879 3.41817 3.33455
# Velocity P-wave (km/s) = 6.69924 6.81982 6.75980
#
# Compressibility (1/GPa) = 0.01599392
#
# Stress axis : x y z
#
# Youngs Moduli (GPa) = 75.19526 75.19526 54.51234
#
# Poissons Ratio (x) = 0.18587 0.32713
# Poissons Ratio (y) = 0.18587 0.32713
# Poissons Ratio (z) = 0.45125 0.45125
#
# Static dielectric constant tensor:
#      x y z
#    x 1.798050 0.000000 0.000000 
#    y 0.000000 1.798050 0.000000 
#    z 0.000000 0.000000 1.757330 
# 
# From -- ./inp_files/3049.got.cif
#   From: 2010.05.17/outbox.cif.g08.bks.cpg/sg86_2_cif.got.tgz:3049.got - 2010.06.03 19:03:11.
