data_PCOD9544264
_publ_section_title
;
Structure prediction by ZEFSAII (Michael W. Deem and Ramdas Pophale) SiO2 
 PCOD9544264
Probable space group: P 42/M
;
_chemical_formula_sum "Si O2"
_cell_formula_units_Z 56
_cell_length_a 11.662338
_cell_length_b 11.662338
_cell_length_c 18.930992
_cell_angle_alpha 90.000000
_cell_angle_beta 90.000000
_cell_angle_gamma 90.000000
_cell_volume 2574.806638
_symmetry_space_group_name_H-M "P 42/M"
_symmetry_group_IT_number 84
_symmetry_cell_setting 'tetragonal'
loop_
_space_group_symop_operation_xyz
x,y,z
-y,x,1/2+z
-x,-y,z
y,-x,1/2+z
-x,-y,-z
y,-x,1/2-z
x,y,-z
-y,x,1/2-z
loop_
_atom_site_type_symbol
_atom_site_label
_atom_site_fract_x
_atom_site_fract_y
_atom_site_fract_z
Si Si1 0.821951 0.852916 0.296173
Si Si2 0.391262 0.841758 0.579484
Si Si3 0.371524 0.216046 0.919708
Si Si4 0.223126 0.041583 0.846566
Si Si5 0.568667 0.772692 0.695061
Si Si6 0.636304 0.532762 0.667224
Si Si7 0.840768 0.026031 0.421340
O O1 0.845486 0.898966 0.218230
O O2 0.684443 0.841579 0.289638
O O3 0.855304 0.937810 0.358715
O O4 0.912564 0.753168 0.318147
O O5 0.443024 0.845821 0.500000
O O6 0.312678 0.728069 0.585266
O O7 0.480274 0.836950 0.643810
O O8 0.293096 0.937276 0.583973
O O9 0.336296 0.111515 0.869016
O O10 0.478741 0.288744 0.894203
O O11 0.380275 0.176542 0.000000
O O12 0.136039 0.076371 0.910272
O O13 0.627008 0.666515 0.655036
O O14 0.506722 0.707626 0.761841
O O15 0.500000 0.500000 0.669578
O O16 0.858333 0.979985 0.500000
#
# Coordination Sequence:
#
# PCOD9544264 Si02
#       7
#     8   8   8   8   8   8   8
#     4  12  25  38  65  93 132 171 218 265 329 402
#     4   9  20  39  63  93 130 166 211 268 329 385
#     4  10  21  40  66  93 127 168 214 264 326 392
#     4  11  22  41  62  95 127 169 218 273 316 389
#     4  12  23  38  61  97 132 171 209 278 332 396
#     4  12  21  37  65  95 126 164 217 274 325 386
#     4  10  23  43  68  96 126 171 223 276 327 388
#
# _framework density 21.749205
#
# number of rings (size 3 to 8) (size 9 to 14) (size 15 to 20)
#    0.000    1.143    5.714    1.714    2.000    3.714 
#    0.000    2.143    0.000    0.857    0.000    0.000 
#    0.000    0.000    0.000    0.000    0.000    0.000 
#
# Total GULP energy -311852.864730 kJ/mol
# GULP energy per Si atom -5568.801156 kJ/mol
# Density = 2.169970 g / cm^3
# Si number density = 21.749205 Si / 1000 Ang^3
#
#
#
# Elastic Constant Matrix: (Units=GPa)
#
#
# Indices 1 2 3 4 5 6 
#
# 1 38.5381 24.5164 27.7856 0.0000 0.0000 -1.8743
# 2 24.5164 38.5381 27.7856 0.0000 0.0000 1.8743
# 3 27.7856 27.7856 105.6601 0.0000 0.0000 0.0000
# 4 0.0000 0.0000 0.0000 7.8812 0.0000 0.0000
# 5 0.0000 0.0000 0.0000 0.0000 7.8812 0.0000
# 6 -1.8743 1.8743 0.0000 0.0000 0.0000 16.6050
#
#
#
# Elastic Compliance Matrix: (Units=1/GPa)
#
#
# Indices 1 2 3 4 5 6 
#
# 1 0.047090 -0.026447 -0.005429 0.000000 0.000000 0.008301
# 2 -0.026447 0.047090 -0.005429 0.000000 0.000000 -0.008301
# 3 -0.005429 -0.005429 0.012320 0.000000 0.000000 0.000000
# 4 0.000000 0.000000 0.000000 0.126884 0.000000 0.000000
# 5 0.000000 0.000000 0.000000 0.000000 0.126884 0.000000
# 6 0.008301 -0.008301 0.000000 0.000000 0.000000 0.062097
#
#
# Mechanical properties :
#
#
# Convention : Reuss Voigt Hill
#
# Bulk Modulus (GPa) = 31.35570 38.10129 34.72850
# Shear Modulus (GPa) = 9.85021 13.31674 11.58348
#
# Velocity S-wave (km/s) = 2.13045 2.47713 2.31030
# Velocity P-wave (km/s) = 4.52769 5.07327 4.80823
#
# Compressibility (1/GPa) = 0.03189213
#
# Stress axis : x y z
#
# Youngs Moduli (GPa) = 21.23573 21.23573 81.17205
#
# Poissons Ratio (x) = 0.56161 0.44066
# Poissons Ratio (y) = 0.56161 0.44066
# Poissons Ratio (z) = 0.11528 0.11528
#
# Static dielectric constant tensor:
#      x y z
#    x 2.043200 0.000000 0.000000 
#    y 0.000000 2.043200 0.000000 
#    z 0.000000 0.000000 1.788730 
# 
# From -- ./inp_files/4490.got.cif
#   From: 2010.05.17/outbox.cif.g08.bks.cpg/sg84_3_cif.got.tgz:4490.got - 2010.06.03 18:57:40.
