data_PCOD9544328
_publ_section_title
;
Structure prediction by ZEFSAII (Michael W. Deem and Ramdas Pophale) SiO2 
 PCOD9544328
Probable space group: P 42/M
;
_chemical_formula_sum "Si O2"
_cell_formula_units_Z 40
_cell_length_a 8.883012
_cell_length_b 8.883012
_cell_length_c 22.308906
_cell_angle_alpha 90.000000
_cell_angle_beta 90.000000
_cell_angle_gamma 90.000000
_cell_volume 1760.348973
_symmetry_space_group_name_H-M "P 42/M"
_symmetry_group_IT_number 84
_symmetry_cell_setting 'tetragonal'
loop_
_space_group_symop_operation_xyz
x,y,z
-y,x,1/2+z
-x,-y,z
y,-x,1/2+z
-x,-y,-z
y,-x,1/2-z
x,y,-z
-y,x,1/2-z
loop_
_atom_site_type_symbol
_atom_site_label
_atom_site_fract_x
_atom_site_fract_y
_atom_site_fract_z
Si Si1 0.098292 0.646976 0.931811
Si Si2 0.872992 0.118130 0.171729
Si Si3 0.446229 0.667407 0.622555
Si Si4 0.430368 0.163392 0.264654
Si Si5 0.884960 0.382528 0.368199
O O1 0.077724 0.783049 0.886053
O O2 0.258909 0.569572 0.921595
O O3 0.000000 0.500000 0.916570
O O4 0.071338 0.692024 0.000000
O O5 0.833708 0.251641 0.218760
O O6 0.260110 0.994205 0.153599
O O7 0.000000 0.000000 0.189286
O O8 0.500000 0.500000 0.625573
O O9 0.479133 0.734395 0.688816
O O10 0.269985 0.679801 0.603070
O O11 0.452361 0.183767 0.193732
O O12 0.500000 0.000000 0.276588
O O13 0.000000 0.500000 0.399917
#
# Coordination Sequence:
#
# PCOD9544328 Si02
#       5
#     8   8   8   8   8
#     4  10  22  44  69  90 118 165 214 261 322 387
#     4  11  22  37  59  90 126 157 205 264 311 367
#     4  11  23  40  63  88 125 164 213 260 306 375
#     4  10  23  37  56  84 124 174 210 243 302 385
#     4  11  24  36  57  89 126 165 208 255 309 368
#
# _framework density 22.722767000000001
#
# number of rings (size 3 to 8) (size 9 to 14) (size 15 to 20)
#    0.000    1.400    0.000    7.200   11.200    0.800 
#    0.000    1.000    0.000    2.400    0.000    0.000 
#    0.000    0.000    0.000    0.000    0.000    0.000 
#
# Total GULP energy -223239.656315 kJ/mol
# GULP energy per Si atom -5580.991408 kJ/mol
# Density = 2.267105 g / cm^3
# Si number density = 22.722767 Si / 1000 Ang^3
#
#
#
# Elastic Constant Matrix: (Units=GPa)
#
#
# Indices 1 2 3 4 5 6 
#
# 1 128.3282 24.3037 -12.0018 0.0000 0.0000 13.6977
# 2 24.3037 128.3282 -12.0018 0.0000 0.0000 -13.6977
# 3 -12.0018 -12.0018 63.6410 0.0000 0.0000 0.0000
# 4 0.0000 0.0000 0.0000 2.7800 0.0000 0.0000
# 5 0.0000 0.0000 0.0000 0.0000 2.7800 0.0000
# 6 13.6977 -13.6977 0.0000 0.0000 0.0000 37.7953
#
#
#
# Elastic Compliance Matrix: (Units=1/GPa)
#
#
# Indices 1 2 3 4 5 6 
#
# 1 0.008690 -0.001938 0.001273 0.000000 0.000000 -0.003852
# 2 -0.001938 0.008690 0.001273 0.000000 0.000000 0.003852
# 3 0.001273 0.001273 0.016193 0.000000 0.000000 0.000000
# 4 0.000000 0.000000 0.000000 0.359712 0.000000 0.000000
# 5 0.000000 0.000000 0.000000 0.000000 0.359712 0.000000
# 6 -0.003852 0.003852 0.000000 0.000000 0.000000 0.029250
#
#
# Mechanical properties :
#
#
# Convention : Reuss Voigt Hill
#
# Bulk Modulus (GPa) = 28.74336 35.65527 32.19932
# Shear Modulus (GPa) = 6.30814 30.00421 18.15618
#
# Velocity S-wave (km/s) = 1.66798 3.63774 2.82978
# Velocity P-wave (km/s) = 4.04804 5.77665 4.98780
#
# Compressibility (1/GPa) = 0.03479064
#
# Stress axis : x y z
#
# Youngs Moduli (GPa) = 115.07866 115.07866 61.75354
#
# Poissons Ratio (x) = 0.22299 -0.07863
# Poissons Ratio (y) = 0.22299 -0.07863
# Poissons Ratio (z) = -0.14653 -0.14653
#
# Static dielectric constant tensor:
#      x y z
#    x 1.889610 0.000000 0.000000 
#    y 0.000000 1.889610 0.000000 
#    z 0.000000 0.000000 1.854830 
# 
# From -- ./inp_files/5316.got.cif
#   From: 2010.05.17/outbox.cif.g08.bks.cpg/sg84_3_cif.got.tgz:5316.got - 2010.06.03 18:57:40.
