data_PCOD9544324
_publ_section_title
;
Structure prediction by ZEFSAII (Michael W. Deem and Ramdas Pophale) SiO2 
 PCOD9544324
Probable space group: P 42/M
;
_chemical_formula_sum "Si O2"
_cell_formula_units_Z 32
_cell_length_a 8.978978
_cell_length_b 8.978978
_cell_length_c 18.612675
_cell_angle_alpha 90.000000
_cell_angle_beta 90.000000
_cell_angle_gamma 90.000000
_cell_volume 1500.591939
_symmetry_space_group_name_H-M "P 42/M"
_symmetry_group_IT_number 84
_symmetry_cell_setting 'tetragonal'
loop_
_space_group_symop_operation_xyz
x,y,z
-y,x,1/2+z
-x,-y,z
y,-x,1/2+z
-x,-y,-z
y,-x,1/2-z
x,y,-z
-y,x,1/2-z
loop_
_atom_site_type_symbol
_atom_site_label
_atom_site_fract_x
_atom_site_fract_y
_atom_site_fract_z
Si Si1 0.555675 0.339329 0.915215
Si Si2 0.061739 0.334774 0.823065
Si Si3 0.160315 0.233532 0.323388
Si Si4 0.140537 0.732408 0.415472
O O1 0.500000 0.500000 0.889598
O O2 0.700266 0.286619 0.874540
O O3 0.430927 0.211657 0.905060
O O4 0.584203 0.351545 0.000000
O O5 0.155480 0.328935 0.749462
O O6 0.155116 0.268716 0.888999
O O7 0.000000 0.500000 0.834978
O O8 0.932531 0.213680 0.807301
O O9 0.004672 0.243761 0.366360
O O10 0.105467 0.751520 0.500000
#
# Coordination Sequence:
#
# PCOD9544324 Si02
#       4
#     8   8   8   8
#     4  10  22  43  70 102 137 176 226 284 343 414
#     4  12  26  43  64  97 134 175 225 285 347 409
#     4  12  24  43  67  96 136 177 228 282 345 420
#     4  11  24  43  69  99 132 180 228 278 346 415
#
# _framework density 21.324916999999999
#
# number of rings (size 3 to 8) (size 9 to 14) (size 15 to 20)
#    0.000    0.750    2.500    5.250    0.000    5.500 
#    0.000    0.000    0.000    0.000    0.000    0.000 
#    0.000    0.000    0.000    0.000    0.000    0.000 
#
# Total GULP energy -179051.567786 kJ/mol
# GULP energy per Si atom -5595.361493 kJ/mol
# Density = 2.127638 g / cm^3
# Si number density = 21.324917 Si / 1000 Ang^3
#
#
#
# Elastic Constant Matrix: (Units=GPa)
#
#
# Indices 1 2 3 4 5 6 
#
# 1 38.5822 -2.2598 10.7691 0.0000 0.0000 9.9201
# 2 -2.2598 38.5822 10.7691 0.0000 0.0000 -9.9201
# 3 10.7691 10.7691 47.8701 0.0000 0.0000 0.0000
# 4 0.0000 0.0000 0.0000 21.1261 0.0000 0.0000
# 5 0.0000 0.0000 0.0000 0.0000 21.1261 0.0000
# 6 9.9201 -9.9201 0.0000 0.0000 0.0000 37.9188
#
#
#
# Elastic Compliance Matrix: (Units=1/GPa)
#
#
# Indices 1 2 3 4 5 6 
#
# 1 0.029909 0.001860 -0.007147 0.000000 0.000000 -0.007338
# 2 0.001860 0.029909 -0.007147 0.000000 0.000000 0.007338
# 3 -0.007147 -0.007147 0.024106 0.000000 0.000000 0.000000
# 4 0.000000 0.000000 0.000000 0.047335 0.000000 0.000000
# 5 0.000000 0.000000 0.000000 0.000000 0.047335 0.000000
# 6 -0.007338 0.007338 0.000000 0.000000 0.000000 0.030212
#
#
# Mechanical properties :
#
#
# Convention : Reuss Voigt Hill
#
# Bulk Modulus (GPa) = 16.93309 18.17682 17.55496
# Shear Modulus (GPa) = 19.73490 23.08463 21.40976
#
# Velocity S-wave (km/s) = 3.04540 3.29373 3.17200
# Velocity P-wave (km/s) = 4.50818 4.79658 4.65462
#
# Compressibility (1/GPa) = 0.05905596
#
# Stress axis : x y z
#
# Youngs Moduli (GPa) = 33.43452 33.43452 41.48429
#
# Poissons Ratio (x) = -0.06219 0.29649
# Poissons Ratio (y) = -0.06219 0.29649
# Poissons Ratio (z) = 0.23895 0.23895
#
# Static dielectric constant tensor:
#      x y z
#    x 1.764850 0.000000 0.000000 
#    y 0.000000 1.764850 0.000000 
#    z 0.000000 0.000000 1.722770 
# 
# From -- ./inp_files/4084.got.cif
#   From: 2010.05.17/outbox.cif.g08.bks.cpg/sg84_3_cif.got.tgz:4084.got - 2010.06.03 18:57:40.
