data_PCOD9544955
_publ_section_title
;
Structure prediction by ZEFSAII (Michael W. Deem and Ramdas Pophale) SiO2 
 PCOD9544955
Probable space group: P 42/N
;
_chemical_formula_sum "Si O2"
_cell_formula_units_Z 56
_cell_length_a 11.429567
_cell_length_b 11.429567
_cell_length_c 20.032242
_cell_angle_alpha 90.000000
_cell_angle_beta 90.000000
_cell_angle_gamma 90.000000
_cell_volume 2616.911970
_symmetry_space_group_name_H-M "P 42/N"
_symmetry_group_IT_number 86
_space_group.IT_coordinate_system_code '2'
_symmetry_cell_setting 'tetragonal'
loop_
_space_group_symop_operation_xyz
x,y,z
-y,1/2+x,1/2+z
1/2-x,1/2-y,z
1/2+y,-x,1/2+z
-x,-y,-z
y,1/2-x,1/2-z
1/2+x,1/2+y,-z
1/2-y,x,1/2-z
loop_
_atom_site_type_symbol
_atom_site_label
_atom_site_fract_x
_atom_site_fract_y
_atom_site_fract_z
Si Si1 0.553898 0.454124 0.416265
Si Si2 0.439826 0.544638 0.741816
Si Si3 0.187380 0.952603 0.111767
Si Si4 0.166935 0.931745 0.388328
Si Si5 0.124509 0.193543 0.176908
Si Si6 0.278324 0.884518 0.519027
Si Si7 0.897947 0.167391 0.755453
O O1 0.558924 0.468118 0.337090
O O2 0.528741 0.315332 0.420974
O O3 0.451859 0.547892 0.431639
O O4 0.680802 0.468849 0.449002
O O5 0.533527 0.644614 0.766058
O O6 0.490969 0.419914 0.767058
O O7 0.304058 0.573200 0.754188
O O8 0.100195 0.899734 0.056391
O O9 0.180951 0.868468 0.179059
O O10 0.145340 0.077541 0.135366
O O11 0.265051 0.887441 0.439615
O O12 0.152295 0.866257 0.317938
O O13 0.208955 0.057822 0.364601
O O14 0.250000 0.250000 0.190240
O O15 0.250000 0.750000 0.539495
#
# Coordination Sequence:
#
# PCOD9544955 Si02
#       7
#     8   8   8   8   8   8   8
#     4  10  19  39  60  86 122 175 210 266 329 398
#     4  10  22  39  66  95 131 173 215 280 327 405
#     4  10  20  40  63  87 127 178 221 263 336 415
#     4  11  23  37  61  96 132 164 219 285 332 400
#     4  11  23  40  62  98 137 170 219 279 345 389
#     4  10  22  37  63  87 122 175 228 269 329 410
#     4  10  22  40  64  99 128 168 223 274 341 389
#
# _framework density 21.399267999999999
#
# number of rings (size 3 to 8) (size 9 to 14) (size 15 to 20)
#    0.000    1.714    2.857    1.286    2.000    2.000 
#   10.286    0.000    0.000    0.000    0.000    0.000 
#    0.000    0.000    0.000    0.000    0.000    0.000 
#
# Total GULP energy -311839.702015 kJ/mol
# GULP energy per Si atom -5568.566107 kJ/mol
# Density = 2.135056 g / cm^3
# Si number density = 21.399268 Si / 1000 Ang^3
#
#
#
# Elastic Constant Matrix: (Units=GPa)
#
#
# Indices 1 2 3 4 5 6 
#
# 1 104.1695 38.4549 29.1395 0.0000 0.0000 -5.6711
# 2 38.4549 104.1695 29.1395 0.0000 0.0000 5.6711
# 3 29.1395 29.1395 78.0239 0.0000 0.0000 0.0000
# 4 0.0000 0.0000 0.0000 -176.2674 0.0000 0.0000
# 5 0.0000 0.0000 0.0000 0.0000 -176.2674 0.0000
# 6 -5.6711 5.6711 0.0000 0.0000 0.0000 21.1595
#
#
#
# Elastic Compliance Matrix: (Units=1/GPa)
#
#
# Indices 1 2 3 4 5 6 
#
# 1 0.012115 -0.003841 -0.003090 0.000000 0.000000 0.004276
# 2 -0.003841 0.012115 -0.003090 0.000000 0.000000 -0.004276
# 3 -0.003090 -0.003090 0.015125 0.000000 0.000000 0.000000
# 4 0.000000 0.000000 0.000000 -0.005673 0.000000 0.000000
# 5 0.000000 0.000000 0.000000 0.000000 -0.005673 0.000000
# 6 0.004276 -0.004276 0.000000 0.000000 0.000000 0.049552
#
#
# Mechanical properties :
#
#
# Convention : Reuss Voigt Hill
#
# Bulk Modulus (GPa) = 51.78007 53.31450 52.54728
# Shear Modulus (GPa) = 48.05863 -53.63315 -2.78726
#
# Velocity S-wave (km/s) = 4.74414 -5.01173 -1.14251
# Velocity P-wave (km/s) = 7.36605 2.91920 4.78210
#
# Compressibility (1/GPa) = 0.01931245
#
# Stress axis : x y z
#
# Youngs Moduli (GPa) = 82.54393 82.54393 66.11696
#
# Poissons Ratio (x) = 0.31702 0.20431
# Poissons Ratio (y) = 0.31702 0.20431
# Poissons Ratio (z) = 0.25507 0.25507
#
# Static dielectric constant tensor:
#      x y z
#    x 1.868510 0.000000 0.000000 
#    y 0.000000 1.868510 0.000000 
#    z 0.000000 0.000000 1.824150 
# 
# From -- ./inp_files/4207.got.cif
#   From: 2010.05.17/outbox.cif.g08.bks.cpg/sg86_3_cif.got.tgz:4207.got - 2010.06.03 19:03:11.
