data_PCOD9544700
_publ_section_title
;
Structure prediction by ZEFSAII (Michael W. Deem and Ramdas Pophale) SiO2 
 PCOD9544700
Probable space group: P 4/N
;
_chemical_formula_sum "Si O2"
_cell_formula_units_Z 54
_cell_length_a 15.326218
_cell_length_b 15.326218
_cell_length_c 10.940643
_cell_angle_alpha 90.000000
_cell_angle_beta 90.000000
_cell_angle_gamma 90.000000
_cell_volume 2569.879999
_symmetry_space_group_name_H-M "P 4/N"
_symmetry_group_IT_number 85
_symmetry_cell_setting 'tetragonal'
loop_
_space_group_symop_operation_xyz
x,y,z
1/2-y,x,z
1/2-x,1/2-y,z
y,1/2-x,z
-x,-y,-z
1/2+y,-x,-z
1/2+x,1/2+y,-z
-y,1/2+x,-z
loop_
_atom_site_type_symbol
_atom_site_label
_atom_site_fract_x
_atom_site_fract_y
_atom_site_fract_z
Si Si1 0.740032 0.608315 0.828481
Si Si2 0.750000 0.750000 0.225896
Si Si3 0.072700 0.280742 0.885285
Si Si4 0.497131 0.025804 0.859174
Si Si5 0.836869 0.418412 0.194608
Si Si6 0.115292 0.802063 0.476816
Si Si7 0.250000 0.750000 0.183849
Si Si8 0.060654 0.819245 0.729953
O O1 0.828892 0.659800 0.790862
O O2 0.748602 0.509861 0.778381
O O3 0.730193 0.605981 0.975828
O O4 0.855774 0.753121 0.208587
O O5 0.047187 0.379383 0.855712
O O6 0.991036 0.218239 0.873200
O O7 0.591927 0.037870 0.800442
O O8 0.436426 0.949983 0.804043
O O9 0.500000 0.000000 0.000000
O O10 0.809865 0.412054 0.336706
O O11 0.803971 0.330183 0.127441
O O12 0.202634 0.859099 0.492984
O O13 0.050179 0.830232 0.584122
O O14 0.294248 0.836128 0.249835
#
# Coordination Sequence:
#
# PCOD9544700 Si02
#       8
#     8   2   8   8   8   8   4   8
#     4  11  23  44  69  93 133 183 228 274 337 412
#     4  12  20  40  72  88 122 180 228 272 332 414
#     4  12  21  42  65  96 126 179 227 271 341 409
#     4  12  27  43  62 101 144 170 222 283 337 409
#     4  12  24  43  69  97 135 175 227 283 338 403
#     4  11  20  42  69  93 130 176 226 275 335 405
#     4  12  24  45  69 100 136 182 227 285 338 400
#     4  12  25  43  69 101 133 178 228 277 345 398
#
# _framework density 21.012653
#
# number of rings (size 3 to 8) (size 9 to 14) (size 15 to 20)
#    0.000    0.296    7.407    1.778    4.148    0.593 
#    0.000    4.444    0.000    0.000    0.000    0.000 
#    0.000    0.000    0.000    0.000    0.000    0.000 
#
# Total GULP energy -300788.008177 kJ/mol
# GULP energy per Si atom -5570.148300 kJ/mol
# Density = 2.096483 g / cm^3
# Si number density = 21.012653 Si / 1000 Ang^3
#
#
#
# Elastic Constant Matrix: (Units=GPa)
#
#
# Indices 1 2 3 4 5 6 
#
# 1 111.2019 16.5164 -0.7595 0.0000 0.0000 4.4186
# 2 16.5164 111.2019 -0.7595 0.0000 0.0000 -4.4186
# 3 -0.7595 -0.7595 42.5730 0.0000 0.0000 0.0000
# 4 0.0000 0.0000 0.0000 -85.3897 0.0000 0.0000
# 5 0.0000 0.0000 0.0000 0.0000 -85.3897 0.0000
# 6 4.4186 -4.4186 0.0000 0.0000 0.0000 39.3991
#
#
#
# Elastic Compliance Matrix: (Units=1/GPa)
#
#
# Indices 1 2 3 4 5 6 
#
# 1 0.009252 -0.001421 0.000140 0.000000 0.000000 -0.001197
# 2 -0.001421 0.009252 0.000140 0.000000 0.000000 0.001197
# 3 0.000140 0.000140 0.023494 0.000000 0.000000 0.000000
# 4 0.000000 0.000000 0.000000 -0.011711 0.000000 0.000000
# 5 0.000000 0.000000 0.000000 0.000000 -0.011711 0.000000
# 6 -0.001197 0.001197 0.000000 0.000000 0.000000 0.025650
#
#
# Mechanical properties :
#
#
# Convention : Reuss Voigt Hill
#
# Bulk Modulus (GPa) = 25.17896 32.77463 28.97680
# Shear Modulus (GPa) = 83.68543 -9.61079 37.03732
#
# Velocity S-wave (km/s) = 6.31765 -2.14097 4.20291
# Velocity P-wave (km/s) = 8.07624 3.08541 6.11332
#
# Compressibility (1/GPa) = 0.03971570
#
# Stress axis : x y z
#
# Youngs Moduli (GPa) = 108.08248 108.08248 42.56393
#
# Poissons Ratio (x) = 0.15356 -0.00595
# Poissons Ratio (y) = 0.15356 -0.00595
# Poissons Ratio (z) = -0.01510 -0.01510
#
# Static dielectric constant tensor:
#      x y z
#    x 1.882280 0.000000 0.000000 
#    y 0.000000 1.882280 0.000000 
#    z 0.000000 0.000000 1.745510 
# 
# From -- ./inp_files/1800.got.cif
#   From: 2010.05.17/outbox.cif.g08.bks.cpg/sg85_cif.got.tgz:1800.got - 2010.06.03 19:01:16.
