data_PCOD9544653
_publ_section_title
;
Structure prediction by ZEFSAII (Michael W. Deem and Ramdas Pophale) SiO2 
 PCOD9544653
Probable space group: P 4/N
;
_chemical_formula_sum "Si O2"
_cell_formula_units_Z 34
_cell_length_a 10.277033
_cell_length_b 10.277033
_cell_length_c 12.029463
_cell_angle_alpha 90.000000
_cell_angle_beta 90.000000
_cell_angle_gamma 90.000000
_cell_volume 1270.520693
_symmetry_space_group_name_H-M "P 4/N"
_symmetry_group_IT_number 85
_symmetry_cell_setting 'tetragonal'
loop_
_space_group_symop_operation_xyz
x,y,z
1/2-y,x,z
1/2-x,1/2-y,z
y,1/2-x,z
-x,-y,-z
1/2+y,-x,-z
1/2+x,1/2+y,-z
-y,1/2+x,-z
loop_
_atom_site_type_symbol
_atom_site_label
_atom_site_fract_x
_atom_site_fract_y
_atom_site_fract_z
Si Si1 0.134009 0.497772 0.384152
Si Si2 0.680109 0.541082 0.042393
Si Si3 0.250000 0.750000 0.500000
Si Si4 0.215217 0.599174 0.168551
Si Si5 0.409502 0.371900 0.628060
O O1 0.169464 0.641911 0.432331
O O2 0.212071 0.498051 0.270921
O O3 0.144279 0.410647 0.493585
O O4 0.982310 0.487671 0.351595
O O5 0.828909 0.593285 0.054796
O O6 0.692391 0.463490 0.924809
O O7 0.620466 0.430694 0.121512
O O8 0.250000 0.750000 0.197029
O O9 0.271963 0.423556 0.671894
#
# Coordination Sequence:
#
# PCOD9544653 Si02
#       5
#     8   8   2   8   8
#     4  11  24  40  68  95 133 183 230 280 345 433
#     4  11  25  48  72 100 141 187 240 308 372 439
#     4  12  20  44  60  90 128 184 224 264 344 422
#     4  12  24  43  74 105 138 190 245 301 373 437
#     4  10  22  42  62  92 138 180 224 286 346 414
#
# _framework density 26.760684999999999
#
# number of rings (size 3 to 8) (size 9 to 14) (size 15 to 20)
#    0.000    0.941    5.882    0.706    0.000    3.765 
#    0.000    4.706    0.000    0.000    0.000    0.000 
#    0.000    0.000    0.000    0.000    0.000    0.000 
#
# Total GULP energy -190055.004129 kJ/mol
# GULP energy per Si atom -5589.853063 kJ/mol
# Density = 2.669978 g / cm^3
# Si number density = 26.760685 Si / 1000 Ang^3
#
#
#
# Elastic Constant Matrix: (Units=GPa)
#
#
# Indices 1 2 3 4 5 6 
#
# 1 136.3442 11.3406 14.2216 0.0000 0.0000 -6.9575
# 2 11.3406 136.3442 14.2216 0.0000 0.0000 6.9575
# 3 14.2216 14.2216 101.2819 0.0000 0.0000 0.0000
# 4 0.0000 0.0000 0.0000 14.3327 0.0000 0.0000
# 5 0.0000 0.0000 0.0000 0.0000 14.3327 0.0000
# 6 -6.9575 6.9575 0.0000 0.0000 0.0000 32.3747
#
#
#
# Elastic Compliance Matrix: (Units=1/GPa)
#
#
# Indices 1 2 3 4 5 6 
#
# 1 0.007578 -0.000618 -0.000977 0.000000 0.000000 0.001761
# 2 -0.000618 0.007578 -0.000977 0.000000 0.000000 -0.001761
# 3 -0.000977 -0.000977 0.010148 0.000000 0.000000 0.000000
# 4 0.000000 0.000000 0.000000 0.069771 0.000000 0.000000
# 5 0.000000 0.000000 0.000000 0.000000 0.069771 0.000000
# 6 0.001761 -0.001761 0.000000 0.000000 0.000000 0.031645
#
#
# Mechanical properties :
#
#
# Convention : Reuss Voigt Hill
#
# Bulk Modulus (GPa) = 49.60861 50.39311 50.00086
# Shear Modulus (GPa) = 23.99756 34.48710 29.24233
#
# Velocity S-wave (km/s) = 2.99782 3.59377 3.30924
# Velocity P-wave (km/s) = 5.52817 6.00768 5.77291
#
# Compressibility (1/GPa) = 0.02015779
#
# Stress axis : x y z
#
# Youngs Moduli (GPa) = 131.96780 131.96780 98.54292
#
# Poissons Ratio (x) = 0.08159 0.09630
# Poissons Ratio (y) = 0.08159 0.09630
# Poissons Ratio (z) = 0.12896 0.12896
#
# Static dielectric constant tensor:
#      x y z
#    x 2.055000 0.000000 0.000000 
#    y 0.000000 2.055000 0.000000 
#    z 0.000000 0.000000 2.129390 
# 
# From -- ./inp_files/1453.got.cif
#   From: 2010.05.17/outbox.cif.g08.bks.cpg/sg85_cif.got.tgz:1453.got - 2010.06.03 19:01:16.
