data_PCOD9544074
_publ_section_title
;
Structure prediction by ZEFSAII (Michael W. Deem and Ramdas Pophale) SiO2 
 PCOD9544074
Probable space group: P 42/M
;
_chemical_formula_sum "Si O2"
_cell_formula_units_Z 28
_cell_length_a 7.191051
_cell_length_b 7.191051
_cell_length_c 23.011025
_cell_angle_alpha 90.000000
_cell_angle_beta 90.000000
_cell_angle_gamma 90.000000
_cell_volume 1189.928049
_symmetry_space_group_name_H-M "P 42/M"
_symmetry_group_IT_number 84
_symmetry_cell_setting 'tetragonal'
loop_
_space_group_symop_operation_xyz
x,y,z
-y,x,1/2+z
-x,-y,z
y,-x,1/2+z
-x,-y,-z
y,-x,1/2-z
x,y,-z
-y,x,1/2-z
loop_
_atom_site_type_symbol
_atom_site_label
_atom_site_fract_x
_atom_site_fract_y
_atom_site_fract_z
Si Si1 0.234727 0.353836 0.690725
Si Si2 0.500000 0.000000 0.906670
Si Si3 0.363740 0.788272 0.316158
Si Si4 0.135558 0.179499 0.063024
O O1 0.103813 0.354613 0.635645
O O2 0.136048 0.312766 0.752076
O O3 0.413829 0.227539 0.681243
O O4 0.300256 0.571019 0.690618
O O5 0.356525 0.129288 0.939909
O O6 0.286298 0.873493 0.375388
O O7 0.090250 0.271328 0.000000
O O8 0.000000 0.000000 0.065592
#
# Coordination Sequence:
#
# PCOD9544074 Si02
#       4
#     8   4   8   8
#     4   8  15  31  57  81 109 139 187 239 298 356
#     4  10  19  36  56  84 109 150 184 242 304 350
#     4   8  15  33  55  79 108 148 185 238 295 351
#     4  10  21  38  55  78 115 154 196 241 288 354
#
# _framework density 23.530833000000001
#
# number of rings (size 3 to 8) (size 9 to 14) (size 15 to 20)
#    0.000    3.143    0.000    2.143    0.000    0.000 
#   15.429   12.857    0.000    3.429    0.000    0.000 
#    0.000    0.000    0.000    0.000    0.000    0.000 
#
# Total GULP energy -156059.027916 kJ/mol
# GULP energy per Si atom -5573.536711 kJ/mol
# Density = 2.347728 g / cm^3
# Si number density = 23.530833 Si / 1000 Ang^3
#
#
#
# Elastic Constant Matrix: (Units=GPa)
#
#
# Indices 1 2 3 4 5 6 
#
# 1 71.1092 10.7639 50.6918 0.0000 0.0000 -9.5395
# 2 10.7639 71.1092 50.6918 0.0000 0.0000 9.5395
# 3 50.6918 50.6918 253.3768 0.0000 0.0000 0.0000
# 4 0.0000 0.0000 0.0000 40.2701 0.0000 0.0000
# 5 0.0000 0.0000 0.0000 0.0000 40.2701 0.0000
# 6 -9.5395 9.5395 0.0000 0.0000 0.0000 31.6569
#
#
#
# Elastic Compliance Matrix: (Units=1/GPa)
#
#
# Indices 1 2 3 4 5 6 
#
# 1 0.017276 -0.001040 -0.003248 0.000000 0.000000 0.005519
# 2 -0.001040 0.017276 -0.003248 0.000000 0.000000 -0.005519
# 3 -0.003248 -0.003248 0.005246 0.000000 0.000000 0.000000
# 4 0.000000 0.000000 0.000000 0.024832 0.000000 0.000000
# 5 0.000000 0.000000 0.000000 0.000000 0.024832 0.000000
# 6 0.005519 -0.005519 0.000000 0.000000 0.000000 0.034915
#
#
# Mechanical properties :
#
#
# Convention : Reuss Voigt Hill
#
# Bulk Modulus (GPa) = 40.44330 68.87671 54.66000
# Shear Modulus (GPa) = 33.85371 41.33594 37.59482
#
# Velocity S-wave (km/s) = 3.79713 4.19581 4.00144
# Velocity P-wave (km/s) = 6.03729 7.26688 6.68044
#
# Compressibility (1/GPa) = 0.02472597
#
# Stress axis : x y z
#
# Youngs Moduli (GPa) = 57.88240 57.88240 190.60496
#
# Poissons Ratio (x) = 0.06020 0.61915
# Poissons Ratio (y) = 0.06020 0.61915
# Poissons Ratio (z) = 0.18802 0.18802
#
# Static dielectric constant tensor:
#      x y z
#    x 1.946060 0.000000 0.000000 
#    y 0.000000 1.946060 0.000000 
#    z 0.000000 0.000000 1.918250 
# 
# From -- ./inp_files/4663.got.cif
#   From: 2010.05.17/outbox.cif.g08.bks.cpg/sg84_3_cif.got.tgz:4663.got - 2010.06.03 18:57:40.
