data_PCOD9544633
_publ_section_title
;
Structure prediction by ZEFSAII (Michael W. Deem and Ramdas Pophale) SiO2 
 PCOD9544633
Probable space group: P 4/N
;
_chemical_formula_sum "Si O2"
_cell_formula_units_Z 32
_cell_length_a 16.401719
_cell_length_b 16.401719
_cell_length_c 5.254008
_cell_angle_alpha 90.000000
_cell_angle_beta 90.000000
_cell_angle_gamma 90.000000
_cell_volume 1413.414245
_symmetry_space_group_name_H-M "P 4/N"
_symmetry_group_IT_number 85
_symmetry_cell_setting 'tetragonal'
loop_
_space_group_symop_operation_xyz
x,y,z
1/2-y,x,z
1/2-x,1/2-y,z
y,1/2-x,z
-x,-y,-z
1/2+y,-x,-z
1/2+x,1/2+y,-z
-y,1/2+x,-z
loop_
_atom_site_type_symbol
_atom_site_label
_atom_site_fract_x
_atom_site_fract_y
_atom_site_fract_z
Si Si1 0.132860 0.031217 0.884096
Si Si2 0.638452 0.265412 0.136720
Si Si3 0.422801 0.884863 0.605200
Si Si4 0.819908 0.514064 0.139420
O O1 0.083774 0.114797 0.907750
O O2 0.104758 0.976910 0.644113
O O3 0.228462 0.046023 0.827182
O O4 0.118126 0.981404 0.145390
O O5 0.626514 0.200728 0.361858
O O6 0.707124 0.334402 0.103268
O O7 0.552881 0.307639 0.082250
O O8 0.359096 0.958066 0.639985
#
# Coordination Sequence:
#
# PCOD9544633 Si02
#       4
#     8   8   8   8
#     4  11  24  39  62  88 117 157 195 241 293 345
#     4   8  16  34  60  90 121 153 192 243 297 344
#     4  10  22  40  63  88 117 153 196 243 294 347
#     4  10  22  39  61  87 121 156 197 240 288 350
#
# _framework density 22.640211999999998
#
# number of rings (size 3 to 8) (size 9 to 14) (size 15 to 20)
#    0.000    2.250    0.000    1.500    0.000   12.500 
#    0.000    0.000    0.000   15.000    0.000    0.000 
#    0.000    0.000    0.000    0.000    0.000    0.000 
#
# Total GULP energy -178755.438158 kJ/mol
# GULP energy per Si atom -5586.107442 kJ/mol
# Density = 2.258868 g / cm^3
# Si number density = 22.640212 Si / 1000 Ang^3
#
#
#
# Elastic Constant Matrix: (Units=GPa)
#
#
# Indices 1 2 3 4 5 6 
#
# 1 140.7190 107.6410 39.8828 0.0000 0.0000 -2.1410
# 2 107.6410 140.7190 39.8828 0.0000 0.0000 2.1410
# 3 39.8828 39.8828 122.6727 0.0000 0.0000 0.0000
# 4 0.0000 0.0000 0.0000 9.7890 0.0000 0.0000
# 5 0.0000 0.0000 0.0000 0.0000 9.7890 0.0000
# 6 -2.1410 2.1410 0.0000 0.0000 0.0000 63.4565
#
#
#
# Elastic Compliance Matrix: (Units=1/GPa)
#
#
# Indices 1 2 3 4 5 6 
#
# 1 0.017430 -0.012934 -0.001462 0.000000 0.000000 0.001024
# 2 -0.012934 0.017430 -0.001462 0.000000 0.000000 -0.001024
# 3 -0.001462 -0.001462 0.009102 0.000000 0.000000 0.000000
# 4 0.000000 0.000000 0.000000 0.102156 0.000000 0.000000
# 5 0.000000 0.000000 0.000000 0.000000 0.102156 0.000000
# 6 0.001024 -0.001024 0.000000 0.000000 0.000000 0.015828
#
#
# Mechanical properties :
#
#
# Convention : Reuss Voigt Hill
#
# Bulk Modulus (GPa) = 81.65117 86.54710 84.09913
# Shear Modulus (GPa) = 16.67226 31.05382 23.86304
#
# Velocity S-wave (km/s) = 2.71661 3.70756 3.25008
# Velocity P-wave (km/s) = 6.78107 7.52583 7.16314
#
# Compressibility (1/GPa) = 0.01224722
#
# Stress axis : x y z
#
# Youngs Moduli (GPa) = 57.37217 57.37217 109.86358
#
# Poissons Ratio (x) = 0.74206 0.16058
# Poissons Ratio (y) = 0.74206 0.16058
# Poissons Ratio (z) = 0.08386 0.08386
#
# Static dielectric constant tensor:
#      x y z
#    x 1.877880 0.000000 0.000000 
#    y 0.000000 1.877880 0.000000 
#    z 0.000000 0.000000 1.875870 
# 
# From -- ./inp_files/266.got.cif
#   From: 2010.05.17/outbox.cif.g08.bks.cpg/sg85_cif.got.tgz:266.got - 2010.06.03 19:01:16.
