data_PCOD9544303
_publ_section_title
;
Structure prediction by ZEFSAII (Michael W. Deem and Ramdas Pophale) SiO2 
 PCOD9544303
Probable space group: P 42/M
;
_chemical_formula_sum "Si O2"
_cell_formula_units_Z 40
_cell_length_a 9.014544
_cell_length_b 9.014544
_cell_length_c 23.711180
_cell_angle_alpha 90.000000
_cell_angle_beta 90.000000
_cell_angle_gamma 90.000000
_cell_volume 1926.817993
_symmetry_space_group_name_H-M "P 42/M"
_symmetry_group_IT_number 84
_symmetry_cell_setting 'tetragonal'
loop_
_space_group_symop_operation_xyz
x,y,z
-y,x,1/2+z
-x,-y,z
y,-x,1/2+z
-x,-y,-z
y,-x,1/2-z
x,y,-z
-y,x,1/2-z
loop_
_atom_site_type_symbol
_atom_site_label
_atom_site_fract_x
_atom_site_fract_y
_atom_site_fract_z
Si Si1 0.024358 0.333772 0.124203
Si Si2 0.757957 0.938351 0.745075
Si Si3 0.868262 0.808298 0.435287
Si Si4 0.669081 0.531023 0.434588
Si Si5 0.852944 0.309812 0.635963
O O1 0.192293 0.282551 0.134033
O O2 0.000000 0.500000 0.102199
O O3 0.942801 0.321013 0.184892
O O4 0.960995 0.203247 0.084888
O O5 0.662187 0.892273 0.798934
O O6 0.899386 0.828344 0.743330
O O7 0.920232 0.810552 0.500000
O O8 0.725491 0.699182 0.432329
O O9 0.001162 0.755667 0.394889
O O10 0.500000 0.500000 0.416204
O O11 0.678655 0.480980 0.500000
O O12 0.790875 0.447673 0.397772
#
# Coordination Sequence:
#
# PCOD9544303 Si02
#       5
#     8   8   8   8   8
#     4  11  23  38  59  88 124 157 199 253 315 368
#     4   9  18  37  60  84 115 153 200 250 301 357
#     4  11  23  39  61  90 121 158 207 255 301 374
#     4  10  22  40  61  88 126 163 200 252 316 374
#     4  11  21  38  64  88 116 161 207 257 300 369
#
# _framework density 20.759615
#
# number of rings (size 3 to 8) (size 9 to 14) (size 15 to 20)
#    0.000    1.600    2.000    3.000    0.000    6.000 
#    0.000    0.000    0.000    0.000    0.000    0.000 
#    0.000    0.000    0.000    0.000    0.000    0.000 
#
# Total GULP energy -223394.631574 kJ/mol
# GULP energy per Si atom -5584.865789 kJ/mol
# Density = 2.071237 g / cm^3
# Si number density = 20.759615 Si / 1000 Ang^3
#
#
#
# Elastic Constant Matrix: (Units=GPa)
#
#
# Indices 1 2 3 4 5 6 
#
# 1 58.0607 -7.6607 -4.6798 0.0000 0.0000 1.6953
# 2 -7.6607 58.0607 -4.6798 0.0000 0.0000 -1.6953
# 3 -4.6798 -4.6798 52.9414 0.0000 0.0000 0.0000
# 4 0.0000 0.0000 0.0000 24.9346 0.0000 0.0000
# 5 0.0000 0.0000 0.0000 0.0000 24.9346 0.0000
# 6 1.6953 -1.6953 0.0000 0.0000 0.0000 26.3292
#
#
#
# Elastic Compliance Matrix: (Units=1/GPa)
#
#
# Indices 1 2 3 4 5 6 
#
# 1 0.017719 0.002453 0.001783 0.000000 0.000000 -0.000983
# 2 0.002453 0.017719 0.001783 0.000000 0.000000 0.000983
# 3 0.001783 0.001783 0.019204 0.000000 0.000000 0.000000
# 4 0.000000 0.000000 0.000000 0.040105 0.000000 0.000000
# 5 0.000000 0.000000 0.000000 0.000000 0.040105 0.000000
# 6 -0.000983 0.000983 0.000000 0.000000 0.000000 0.038107
#
#
# Mechanical properties :
#
#
# Convention : Reuss Voigt Hill
#
# Bulk Modulus (GPa) = 14.99666 15.00247 14.99956
# Shear Modulus (GPa) = 27.30025 27.64523 27.47274
#
# Velocity S-wave (km/s) = 3.63032 3.65318 3.64177
# Velocity P-wave (km/s) = 4.98116 5.00368 4.99243
#
# Compressibility (1/GPa) = 0.06668151
#
# Stress axis : x y z
#
# Youngs Moduli (GPa) = 56.43518 56.43518 52.07237
#
# Poissons Ratio (x) = -0.13843 -0.09285
# Poissons Ratio (y) = -0.13843 -0.09285
# Poissons Ratio (z) = -0.10063 -0.10063
#
# Static dielectric constant tensor:
#      x y z
#    x 1.736950 0.000000 0.000000 
#    y 0.000000 1.736950 0.000000 
#    z 0.000000 0.000000 1.735270 
# 
# From -- ./inp_files/4785.got.cif
#   From: 2010.05.17/outbox.cif.g08.bks.cpg/sg84_3_cif.got.tgz:4785.got - 2010.06.03 18:57:40.
