data_PCOD9544606
_publ_section_title
;
Structure prediction by ZEFSAII (Michael W. Deem and Ramdas Pophale) SiO2 
 PCOD9544606
Probable space group: P 4/N
;
_chemical_formula_sum "Si O2"
_cell_formula_units_Z 34
_cell_length_a 14.369137
_cell_length_b 14.369137
_cell_length_c 8.110026
_cell_angle_alpha 90.000000
_cell_angle_beta 90.000000
_cell_angle_gamma 90.000000
_cell_volume 1674.494084
_symmetry_space_group_name_H-M "P 4/N"
_symmetry_group_IT_number 85
_symmetry_cell_setting 'tetragonal'
loop_
_space_group_symop_operation_xyz
x,y,z
1/2-y,x,z
1/2-x,1/2-y,z
y,1/2-x,z
-x,-y,-z
1/2+y,-x,-z
1/2+x,1/2+y,-z
-y,1/2+x,-z
loop_
_atom_site_type_symbol
_atom_site_label
_atom_site_fract_x
_atom_site_fract_y
_atom_site_fract_z
Si Si1 0.030680 0.487209 0.315155
Si Si2 0.171486 0.879363 0.772047
Si Si3 0.250000 0.750000 0.500000
Si Si4 0.560230 0.359864 0.901393
Si Si5 0.672171 0.885375 0.873511
O O1 0.044470 0.592983 0.259047
O O2 0.128973 0.435133 0.287858
O O3 0.000000 0.500000 0.500000
O O4 0.955294 0.434743 0.200799
O O5 0.179528 0.803025 0.626025
O O6 0.272937 0.923381 0.783653
O O7 0.135518 0.845912 0.951799
O O8 0.458315 0.355912 0.984330
O O9 0.627881 0.782911 0.881256
#
# Coordination Sequence:
#
# PCOD9544606 Si02
#       5
#     8   8   2   8   8
#     4  11  24  39  60  89 123 162 206 259 314 372
#     4  11  23  39  62  90 124 161 205 255 311 376
#     4  12  24  38  60  96 128 166 204 256 316 374
#     4  11  21  40  62  89 121 164 207 254 309 374
#     4  10  21  39  63  88 117 158 208 258 309 371
#
# _framework density 20.304639000000002
#
# number of rings (size 3 to 8) (size 9 to 14) (size 15 to 20)
#    0.000    1.176    0.000    8.471    0.000    7.529 
#    0.000    0.000    0.000    2.824    0.000    0.000 
#    0.000    0.000    0.000    0.000    0.000    0.000 
#
# Total GULP energy -189656.047174 kJ/mol
# GULP energy per Si atom -5578.119035 kJ/mol
# Density = 2.025842 g / cm^3
# Si number density = 20.304639 Si / 1000 Ang^3
#
#
#
# Elastic Constant Matrix: (Units=GPa)
#
#
# Indices 1 2 3 4 5 6 
#
# 1 97.2745 30.3801 28.4830 0.0000 0.0000 4.6969
# 2 30.3801 97.2745 28.4830 0.0000 0.0000 -4.6969
# 3 28.4830 28.4830 87.9080 0.0000 0.0000 0.0000
# 4 0.0000 0.0000 0.0000 32.6262 0.0000 0.0000
# 5 0.0000 0.0000 0.0000 0.0000 32.6262 0.0000
# 6 4.6969 -4.6969 0.0000 0.0000 0.0000 34.1208
#
#
#
# Elastic Compliance Matrix: (Units=1/GPa)
#
#
# Indices 1 2 3 4 5 6 
#
# 1 0.012201 -0.003043 -0.002967 0.000000 0.000000 -0.002098
# 2 -0.003043 0.012201 -0.002967 0.000000 0.000000 0.002098
# 3 -0.002967 -0.002967 0.013298 0.000000 0.000000 0.000000
# 4 0.000000 0.000000 0.000000 0.030650 0.000000 0.000000
# 5 0.000000 0.000000 0.000000 0.000000 0.030650 0.000000
# 6 -0.002098 0.002098 0.000000 0.000000 0.000000 0.029885
#
#
# Mechanical properties :
#
#
# Convention : Reuss Voigt Hill
#
# Bulk Modulus (GPa) = 50.64561 50.79435 50.71998
# Shear Modulus (GPa) = 32.58988 32.88202 32.73595
#
# Velocity S-wave (km/s) = 4.01065 4.02858 4.01963
# Velocity P-wave (km/s) = 6.81499 6.83445 6.82473
#
# Compressibility (1/GPa) = 0.01974505
#
# Stress axis : x y z
#
# Youngs Moduli (GPa) = 81.96260 81.96260 75.19750
#
# Poissons Ratio (x) = 0.24941 0.22313
# Poissons Ratio (y) = 0.24941 0.22313
# Poissons Ratio (z) = 0.24320 0.24320
#
# Static dielectric constant tensor:
#      x y z
#    x 1.741670 0.000000 0.000000 
#    y 0.000000 1.741670 0.000000 
#    z 0.000000 0.000000 1.210940 
# 
# From -- ./inp_files/770.got.cif
#   From: 2010.05.17/outbox.cif.g08.bks.cpg/sg85_cif.got.tgz:770.got - 2010.06.03 19:01:16.
