data_PCOD9544173
_publ_section_title
;
Structure prediction by ZEFSAII (Michael W. Deem and Ramdas Pophale) SiO2 
 PCOD9544173
Probable space group: P 42/M
;
_chemical_formula_sum "Si O2"
_cell_formula_units_Z 64
_cell_length_a 11.883012
_cell_length_b 11.883012
_cell_length_c 21.697221
_cell_angle_alpha 90.000000
_cell_angle_beta 90.000000
_cell_angle_gamma 90.000000
_cell_volume 3063.777229
_symmetry_space_group_name_H-M "P 42/M"
_symmetry_group_IT_number 84
_symmetry_cell_setting 'tetragonal'
loop_
_space_group_symop_operation_xyz
x,y,z
-y,x,1/2+z
-x,-y,z
y,-x,1/2+z
-x,-y,-z
y,-x,1/2-z
x,y,-z
-y,x,1/2-z
loop_
_atom_site_type_symbol
_atom_site_label
_atom_site_fract_x
_atom_site_fract_y
_atom_site_fract_z
Si Si1 0.561862 0.290672 0.675026
Si Si2 0.795128 0.099404 0.848192
Si Si3 0.041792 0.384853 0.127922
Si Si4 0.985450 0.850208 0.073103
Si Si5 0.626559 0.954174 0.765596
Si Si6 0.926273 0.270123 0.428590
Si Si7 0.698075 0.657373 0.313695
Si Si8 0.767472 0.427234 0.351862
O O1 0.597618 0.170957 0.647489
O O2 0.599510 0.295086 0.746502
O O3 0.430352 0.317003 0.669545
O O4 0.641534 0.381721 0.643171
O O5 0.922013 0.105509 0.876916
O O6 0.763368 0.220560 0.822018
O O7 0.736399 0.013459 0.797388
O O8 0.724574 0.054707 0.906692
O O9 0.000000 0.500000 0.099213
O O10 0.018710 0.282481 0.083353
O O11 0.977546 0.368163 0.193230
O O12 0.857530 0.888067 0.088941
O O13 0.009529 0.876711 0.000000
O O14 0.616158 0.825466 0.787618
O O15 0.500000 0.000000 0.784902
O O16 0.915511 0.278071 0.500000
O O17 0.849935 0.365178 0.398572
O O18 0.756482 0.560150 0.354801
#
# Coordination Sequence:
#
# PCOD9544173 Si02
#       8
#     8   8   8   8   8   8   8   8
#     4  12  23  37  60  95 131 181 211 258 333 400
#     4  11  22  39  68  97 127 166 213 277 330 394
#     4  11  22  39  60  92 132 178 215 264 329 387
#     4  11  24  43  66  94 129 174 225 271 321 395
#     4  10  20  37  61  94 133 163 203 272 337 386
#     4  10  23  45  71  92 125 174 224 274 334 393
#     4  12  23  38  61  97 136 165 219 269 324 407
#     4  11  22  39  63  95 129 172 219 263 326 392
#
# _framework density 20.889249
#
# number of rings (size 3 to 8) (size 9 to 14) (size 15 to 20)
#    0.000    1.000    5.000    2.625    1.750    1.250 
#    0.000    1.875    0.000    3.000    0.000    0.000 
#    0.000    0.000    0.000    0.000    0.000    0.000 
#
# Total GULP energy -356866.384672 kJ/mol
# GULP energy per Si atom -5576.037260 kJ/mol
# Density = 2.084170 g / cm^3
# Si number density = 20.889249 Si / 1000 Ang^3
#
#
#
# Elastic Constant Matrix: (Units=GPa)
#
#
# Indices 1 2 3 4 5 6 
#
# 1 105.9798 7.9086 24.8172 0.0000 0.0000 -1.7817
# 2 7.9086 105.9798 24.8172 0.0000 0.0000 1.7817
# 3 24.8172 24.8172 37.9294 0.0000 0.0000 0.0000
# 4 0.0000 0.0000 0.0000 10.4866 0.0000 0.0000
# 5 0.0000 0.0000 0.0000 0.0000 10.4866 0.0000
# 6 -1.7817 1.7817 0.0000 0.0000 0.0000 31.4137
#
#
#
# Elastic Compliance Matrix: (Units=1/GPa)
#
#
# Indices 1 2 3 4 5 6 
#
# 1 0.011250 0.001033 -0.008037 0.000000 0.000000 0.000580
# 2 0.001033 0.011250 -0.008037 0.000000 0.000000 -0.000580
# 3 -0.008037 -0.008037 0.036882 0.000000 0.000000 0.000000
# 4 0.000000 0.000000 0.000000 0.095360 0.000000 0.000000
# 5 0.000000 0.000000 0.000000 0.000000 0.095360 0.000000
# 6 0.000580 -0.000580 0.000000 0.000000 0.000000 0.031899
#
#
# Mechanical properties :
#
#
# Convention : Reuss Voigt Hill
#
# Bulk Modulus (GPa) = 34.12892 40.55275 37.34084
# Shear Modulus (GPa) = 15.53516 23.30043 19.41780
#
# Velocity S-wave (km/s) = 2.73003 3.34342 3.05218
# Velocity P-wave (km/s) = 5.12942 5.86174 5.50776
#
# Compressibility (1/GPa) = 0.02930066
#
# Stress axis : x y z
#
# Youngs Moduli (GPa) = 88.88563 88.88563 27.11368
#
# Poissons Ratio (x) = -0.09179 0.21791
# Poissons Ratio (y) = -0.09179 0.21791
# Poissons Ratio (z) = 0.71436 0.71436
#
# Static dielectric constant tensor:
#      x y z
#    x 1.844190 0.000000 0.000000 
#    y 0.000000 1.844190 0.000000 
#    z 0.000000 0.000000 1.757800 
# 
# From -- ./inp_files/5078.got.cif
#   From: 2010.05.17/outbox.cif.g08.bks.cpg/sg84_3_cif.got.tgz:5078.got - 2010.06.03 18:57:40.
