data_PCOD9544845
_publ_section_title
;
Structure prediction by ZEFSAII (Michael W. Deem and Ramdas Pophale) SiO2 
 PCOD9544845
Probable space group: P 4/N
;
_chemical_formula_sum "Si O2"
_cell_formula_units_Z 20
_cell_length_a 9.874096
_cell_length_b 9.874096
_cell_length_c 9.872126
_cell_angle_alpha 90.000000
_cell_angle_beta 90.000000
_cell_angle_gamma 90.000000
_cell_volume 962.510288
_symmetry_space_group_name_H-M "P 4/N"
_symmetry_group_IT_number 85
_symmetry_cell_setting 'tetragonal'
loop_
_space_group_symop_operation_xyz
x,y,z
1/2-y,x,z
1/2-x,1/2-y,z
y,1/2-x,z
-x,-y,-z
1/2+y,-x,-z
1/2+x,1/2+y,-z
-y,1/2+x,-z
loop_
_atom_site_type_symbol
_atom_site_label
_atom_site_fract_x
_atom_site_fract_y
_atom_site_fract_z
Si Si1 0.750000 0.750000 0.193758
Si Si2 0.914443 0.904782 0.598158
Si Si3 0.750000 0.250000 0.000000
Si Si4 0.477470 0.921738 0.139603
O O1 0.610606 0.842912 0.187206
O O2 0.755696 0.933665 0.575617
O O3 0.968701 0.934016 0.748595
O O4 0.000000 0.000000 0.500000
O O5 0.683568 0.360169 0.099636
O O6 0.500000 0.000000 0.000000
#
# Coordination Sequence:
#
# PCOD9544845 Si02
#       4
#     2   8   2   8
#     4  12  28  40  76 106 152 184 244 302 364 416
#     4  11  29  50  74 103 143 188 239 294 357 429
#     4  12  24  44  76 106 144 192 236 294 360 428
#     4  12  26  45  73 109 145 187 241 297 360 422
#
# _framework density 20.778998999999999
#
# number of rings (size 3 to 8) (size 9 to 14) (size 15 to 20)
#    0.000    0.400    4.000    2.400    5.600    0.800 
#    0.000    0.000    0.000    0.000    0.000    0.000 
#    0.000    0.000    0.000    0.000    0.000    0.000 
#
# Total GULP energy -111404.186387 kJ/mol
# GULP energy per Si atom -5570.209319 kJ/mol
# Density = 2.073170 g / cm^3
# Si number density = 20.778999 Si / 1000 Ang^3
#
#
#
# Elastic Constant Matrix: (Units=GPa)
#
#
# Indices 1 2 3 4 5 6 
#
# 1 159.1235 110.2713 49.8136 0.0000 0.0000 18.0112
# 2 110.2713 159.1235 49.8136 0.0000 0.0000 -18.0112
# 3 49.8136 49.8136 110.4449 0.0000 0.0000 0.0000
# 4 0.0000 0.0000 0.0000 25.8215 0.0000 0.0000
# 5 0.0000 0.0000 0.0000 0.0000 25.8215 0.0000
# 6 18.0112 -18.0112 0.0000 0.0000 0.0000 37.2278
#
#
#
# Elastic Compliance Matrix: (Units=1/GPa)
#
#
# Indices 1 2 3 4 5 6 
#
# 1 0.018139 -0.013684 -0.002009 0.000000 0.000000 -0.015396
# 2 -0.013684 0.018139 -0.002009 0.000000 0.000000 0.015396
# 3 -0.002009 -0.002009 0.010867 0.000000 0.000000 0.000000
# 4 0.000000 0.000000 0.000000 0.038727 0.000000 0.000000
# 5 0.000000 0.000000 0.000000 0.000000 0.038727 0.000000
# 6 -0.015396 0.015396 0.000000 0.000000 0.000000 0.041759
#
#
# Mechanical properties :
#
#
# Convention : Reuss Voigt Hill
#
# Bulk Modulus (GPa) = 85.18185 94.27653 89.72919
# Shear Modulus (GPa) = 24.31000 32.36040 28.33520
#
# Velocity S-wave (km/s) = 3.42414 3.95062 3.69676
# Velocity P-wave (km/s) = 7.53101 8.14122 7.84205
#
# Compressibility (1/GPa) = 0.01173959
#
# Stress axis : x y z
#
# Youngs Moduli (GPa) = 55.13027 55.13027 92.02287
#
# Poissons Ratio (x) = 0.75439 0.18491
# Poissons Ratio (y) = 0.75439 0.18491
# Poissons Ratio (z) = 0.11078 0.11078
#
# Static dielectric constant tensor:
#      x y z
#    x 1.781000 0.000000 0.000000 
#    y 0.000000 1.781000 0.000000 
#    z 0.000000 0.000000 1.737600 
# 
# From -- ./inp_files/1327.got.cif
#   From: 2010.05.17/outbox.cif.g08.bks.cpg/sg85_cif.got.tgz:1327.got - 2010.06.03 19:01:16.
