data_PCOD9544206
_publ_section_title
;
Structure prediction by ZEFSAII (Michael W. Deem and Ramdas Pophale) SiO2 
 PCOD9544206
Probable space group: P 42/M
;
_chemical_formula_sum "Si O2"
_cell_formula_units_Z 40
_cell_length_a 15.033165
_cell_length_b 15.033165
_cell_length_c 8.624723
_cell_angle_alpha 90.000000
_cell_angle_beta 90.000000
_cell_angle_gamma 90.000000
_cell_volume 1949.153330
_symmetry_space_group_name_H-M "P 42/M"
_symmetry_group_IT_number 84
_symmetry_cell_setting 'tetragonal'
loop_
_space_group_symop_operation_xyz
x,y,z
-y,x,1/2+z
-x,-y,z
y,-x,1/2+z
-x,-y,-z
y,-x,1/2-z
x,y,-z
-y,x,1/2-z
loop_
_atom_site_type_symbol
_atom_site_label
_atom_site_fract_x
_atom_site_fract_y
_atom_site_fract_z
Si Si1 0.787092 0.601905 0.319312
Si Si2 0.114574 0.236199 0.182289
Si Si3 0.452589 0.093738 0.313436
Si Si4 0.756312 0.910963 0.685252
Si Si5 0.395642 0.416930 0.820620
O O1 0.766191 0.599945 0.500000
O O2 0.858333 0.677312 0.279231
O O3 0.828172 0.508424 0.265598
O O4 0.697660 0.624845 0.226113
O O5 0.182228 0.158251 0.225632
O O6 0.012098 0.213061 0.214205
O O7 0.120517 0.259013 0.000000
O O8 0.459722 0.102974 0.500000
O O9 0.348365 0.094919 0.273060
O O10 0.500000 0.000000 0.272386
O O11 0.762932 0.893442 0.500000
O O12 0.386498 0.522266 0.784922
O O13 0.417249 0.402258 0.000000
#
# Coordination Sequence:
#
# PCOD9544206 Si02
#       5
#     8   8   8   8   8
#     4  12  25  40  62  94 129 166 213 263 315 380
#     4  11  24  44  67  93 129 169 215 269 326 387
#     4  10  20  41  67  90 125 165 205 256 317 374
#     4  10  23  43  67  95 128 169 213 265 327 386
#     4  11  23  42  64  89 125 167 212 258 313 374
#
# _framework density 20.521732
#
# number of rings (size 3 to 8) (size 9 to 14) (size 15 to 20)
#    0.000    1.200    2.000    4.800    2.800    3.200 
#    0.000    2.000    0.000    0.000    0.000    0.000 
#    0.000    0.000    0.000    0.000    0.000    0.000 
#
# Total GULP energy -223768.270183 kJ/mol
# GULP energy per Si atom -5594.206755 kJ/mol
# Density = 2.047502 g / cm^3
# Si number density = 20.521732 Si / 1000 Ang^3
#
#
#
# Elastic Constant Matrix: (Units=GPa)
#
#
# Indices 1 2 3 4 5 6 
#
# 1 59.2446 16.9287 13.9909 0.0000 0.0000 9.5623
# 2 16.9287 59.2446 13.9909 0.0000 0.0000 -9.5623
# 3 13.9909 13.9909 44.7660 0.0000 0.0000 0.0000
# 4 0.0000 0.0000 0.0000 41.2146 0.0000 0.0000
# 5 0.0000 0.0000 0.0000 0.0000 41.2146 0.0000
# 6 9.5623 -9.5623 0.0000 0.0000 0.0000 28.1896
#
#
#
# Elastic Compliance Matrix: (Units=1/GPa)
#
#
# Indices 1 2 3 4 5 6 
#
# 1 0.021371 -0.006540 -0.004635 0.000000 0.000000 -0.009468
# 2 -0.006540 0.021371 -0.004635 0.000000 0.000000 0.009468
# 3 -0.004635 -0.004635 0.025236 0.000000 0.000000 0.000000
# 4 0.000000 0.000000 0.000000 0.024263 0.000000 0.000000
# 5 0.000000 0.000000 0.000000 0.000000 0.024263 0.000000
# 6 -0.009468 0.009468 0.000000 0.000000 0.000000 0.041897
#
#
# Mechanical properties :
#
#
# Convention : Reuss Voigt Hill
#
# Bulk Modulus (GPa) = 27.50535 28.11958 27.81247
# Shear Modulus (GPa) = 24.73534 30.01340 27.37437
#
# Velocity S-wave (km/s) = 3.47554 3.82844 3.65625
# Velocity P-wave (km/s) = 5.43489 5.76842 5.60414
#
# Compressibility (1/GPa) = 0.03635656
#
# Stress axis : x y z
#
# Youngs Moduli (GPa) = 46.79309 46.79309 39.62655
#
# Poissons Ratio (x) = 0.30603 0.18367
# Poissons Ratio (y) = 0.30603 0.18367
# Poissons Ratio (z) = 0.21689 0.21689
#
# Static dielectric constant tensor:
#      x y z
#    x 1.728140 0.000000 0.000000 
#    y 0.000000 1.728140 0.000000 
#    z 0.000000 0.000000 1.700940 
# 
# From -- ./inp_files/810.got.cif
#   From: 2010.05.17/outbox.cif.g08.bks.cpg/sg84_1_cif.got.tgz:810.got - 2010.06.03 18:57:40.
