data_PCOD9544916
_publ_section_title
;
Structure prediction by ZEFSAII (Michael W. Deem and Ramdas Pophale) SiO2 
 PCOD9544916
Probable space group: P 42/N
;
_chemical_formula_sum "Si O2"
_cell_formula_units_Z 48
_cell_length_a 12.774938
_cell_length_b 12.774938
_cell_length_c 13.825224
_cell_angle_alpha 90.000000
_cell_angle_beta 90.000000
_cell_angle_gamma 90.000000
_cell_volume 2256.263297
_symmetry_space_group_name_H-M "P 42/N"
_symmetry_group_IT_number 86
_space_group.IT_coordinate_system_code '2'
_symmetry_cell_setting 'tetragonal'
loop_
_space_group_symop_operation_xyz
x,y,z
-y,1/2+x,1/2+z
1/2-x,1/2-y,z
1/2+y,-x,1/2+z
-x,-y,-z
y,1/2-x,1/2-z
1/2+x,1/2+y,-z
1/2-y,x,1/2-z
loop_
_atom_site_type_symbol
_atom_site_label
_atom_site_fract_x
_atom_site_fract_y
_atom_site_fract_z
Si Si1 0.047119 0.282121 0.342282
Si Si2 0.139825 0.093908 0.445652
Si Si3 0.011737 0.165778 0.141202
Si Si4 0.678962 0.155023 0.921773
Si Si5 0.971918 0.099112 0.600572
Si Si6 0.628644 0.214336 0.713006
O O1 0.131587 0.207467 0.395459
O O2 0.034558 0.240611 0.233627
O O3 0.076190 0.402083 0.353243
O O4 0.936404 0.257351 0.389657
O O5 0.254787 0.043536 0.444596
O O6 0.085217 0.104651 0.550745
O O7 0.060646 0.020811 0.379641
O O8 0.893416 0.124034 0.151162
O O9 0.750000 0.250000 0.954772
O O10 0.613832 0.186679 0.826341
O O11 0.618807 0.107871 0.011493
O O12 0.943315 0.189922 0.676135
O O13 0.750000 0.250000 0.706604
#
# Coordination Sequence:
#
# PCOD9544916 Si02
#       6
#     8   8   8   8   8   8
#     4  10  20  32  52  87 116 146 195 242 299 359
#     4  10  20  32  55  82 110 154 193 243 300 357
#     4  11  19  32  56  84 120 152 187 250 306 353
#     4   9  20  34  54  80 113 153 195 244 296 352
#     4  10  20  37  55  83 116 153 206 243 290 377
#     4  10  19  34  56  82 114 160 201 247 302 352
#
# _framework density 21.274114000000001
#
# number of rings (size 3 to 8) (size 9 to 14) (size 15 to 20)
#    0.000    2.000    3.333    1.000    0.000    0.000 
#    0.000    3.333    3.667    0.000    0.000    0.000 
#    0.000    0.000    0.000    0.000    0.000    0.000 
#
# Total GULP energy -267901.126261 kJ/mol
# GULP energy per Si atom -5581.273464 kJ/mol
# Density = 2.122569 g / cm^3
# Si number density = 21.274114 Si / 1000 Ang^3
#
#
#
# Elastic Constant Matrix: (Units=GPa)
#
#
# Indices 1 2 3 4 5 6 
#
# 1 73.5481 -0.4658 8.7678 0.0000 0.0000 -4.5309
# 2 -0.4658 73.5481 8.7678 0.0000 0.0000 4.5309
# 3 8.7678 8.7678 49.9873 0.0000 0.0000 0.0000
# 4 0.0000 0.0000 0.0000 25.5437 0.0000 0.0000
# 5 0.0000 0.0000 0.0000 0.0000 25.5437 0.0000
# 6 -4.5309 4.5309 0.0000 0.0000 0.0000 34.9137
#
#
#
# Elastic Compliance Matrix: (Units=1/GPa)
#
#
# Indices 1 2 3 4 5 6 
#
# 1 0.014007 0.000278 -0.002505 0.000000 0.000000 0.001782
# 2 0.000278 0.014007 -0.002505 0.000000 0.000000 -0.001782
# 3 -0.002505 -0.002505 0.020884 0.000000 0.000000 0.000000
# 4 0.000000 0.000000 0.000000 0.039149 0.000000 0.000000
# 5 0.000000 0.000000 0.000000 0.000000 0.039149 0.000000
# 6 0.001782 -0.001782 0.000000 0.000000 0.000000 0.029105
#
#
# Mechanical properties :
#
#
# Convention : Reuss Voigt Hill
#
# Bulk Modulus (GPa) = 25.36088 25.69146 25.52617
# Shear Modulus (GPa) = 27.94707 29.20111 28.57409
#
# Velocity S-wave (km/s) = 3.62838 3.70890 3.66886
# Velocity P-wave (km/s) = 5.43143 5.51759 5.47468
#
# Compressibility (1/GPa) = 0.03943081
#
# Stress axis : x y z
#
# Youngs Moduli (GPa) = 71.39412 71.39412 47.88350
#
# Poissons Ratio (x) = -0.01982 0.11997
# Poissons Ratio (y) = -0.01982 0.11997
# Poissons Ratio (z) = 0.17888 0.17888
#
# Static dielectric constant tensor:
#      x y z
#    x 1.827430 0.000000 0.000000 
#    y 0.000000 1.827430 0.000000 
#    z 0.000000 0.000000 1.850760 
# 
# From -- ./inp_files/3578.got.cif
#   From: 2010.05.17/outbox.cif.g08.bks.cpg/sg86_2_cif.got.tgz:3578.got - 2010.06.03 19:03:11.
