data_PCOD9544855
_publ_section_title
;
Structure prediction by ZEFSAII (Michael W. Deem and Ramdas Pophale) SiO2 
 PCOD9544855
Probable space group: P 4/N
;
_chemical_formula_sum "Si O2"
_cell_formula_units_Z 52
_cell_length_a 16.250249
_cell_length_b 16.250249
_cell_length_c 7.319434
_cell_angle_alpha 90.000000
_cell_angle_beta 90.000000
_cell_angle_gamma 90.000000
_cell_volume 1932.847274
_symmetry_space_group_name_H-M "P 4/N"
_symmetry_group_IT_number 85
_symmetry_cell_setting 'tetragonal'
loop_
_space_group_symop_operation_xyz
x,y,z
1/2-y,x,z
1/2-x,1/2-y,z
y,1/2-x,z
-x,-y,-z
1/2+y,-x,-z
1/2+x,1/2+y,-z
-y,1/2+x,-z
loop_
_atom_site_type_symbol
_atom_site_label
_atom_site_fract_x
_atom_site_fract_y
_atom_site_fract_z
Si Si1 0.026025 0.637758 0.774390
Si Si2 0.250000 0.750000 0.757162
Si Si3 0.650813 0.835501 0.260731
Si Si4 0.688897 0.074753 0.843900
Si Si5 0.649386 0.833133 0.698614
Si Si6 0.572747 0.308079 0.726938
Si Si7 0.867929 0.023497 0.208196
O O1 0.037040 0.735386 0.730137
O O2 0.093927 0.578834 0.682560
O O3 0.931098 0.616335 0.747613
O O4 0.040794 0.639925 0.991870
O O5 0.329055 0.713483 0.858345
O O6 0.215217 0.666810 0.669247
O O7 0.638544 0.741243 0.195277
O O8 0.655232 0.833796 0.479829
O O9 0.572267 0.890815 0.216728
O O10 0.600978 0.074709 0.742156
O O11 0.686624 0.049199 0.055640
O O12 0.639073 0.738804 0.764775
O O13 0.528608 0.220183 0.685336
#
# Coordination Sequence:
#
# PCOD9544855 Si02
#       7
#     8   4   8   8   8   8   8
#     4   9  16  28  48  73  98 122 150 183 220 266
#     4   8   9  16  36  60  89 126 157 172 197 254
#     4   9  19  36  53  65  82 114 156 199 237 270
#     4   8  13  22  40  68  98 123 146 177 217 259
#     4   9  19  36  53  65  82 114 156 199 237 270
#     4   8  13  22  40  68  98 123 146 177 217 259
#     4   9  16  28  48  73  98 122 150 183 220 266
#
# _framework density 26.903317000000001
#
# number of rings (size 3 to 8) (size 9 to 14) (size 15 to 20)
#    0.000    3.385    0.000    4.154    0.000    1.231 
#    0.000    4.615    0.000    9.231    0.000    6.462 
#    0.000    0.000    0.000    0.000    0.000    0.000 
#
# Total GULP energy -289614.377720 kJ/mol
# GULP energy per Si atom -5569.507264 kJ/mol
# Density = 2.684208 g / cm^3
# Si number density = 26.903317 Si / 1000 Ang^3
#
#
#
# Elastic Constant Matrix: (Units=GPa)
#
#
# Indices 1 2 3 4 5 6 
#
# 1 148.3372 10.3060 -3.0264 0.0000 0.0000 -18.6806
# 2 10.3060 148.3372 -3.0264 0.0000 0.0000 18.6806
# 3 -3.0264 -3.0264 98.1262 0.0000 0.0000 0.0000
# 4 0.0000 0.0000 0.0000 49.9099 0.0000 0.0000
# 5 0.0000 0.0000 0.0000 0.0000 49.9099 0.0000
# 6 -18.6806 18.6806 0.0000 0.0000 0.0000 0.0262
#
#
#
# Elastic Compliance Matrix: (Units=1/GPa)
#
#
# Indices 1 2 3 4 5 6 
#
# 1 0.003137 0.003174 0.000195 0.000000 0.000000 -0.026905
# 2 0.003174 0.003137 0.000195 0.000000 0.000000 0.026905
# 3 0.000195 0.000195 0.010203 0.000000 0.000000 0.000000
# 4 0.000000 0.000000 0.000000 0.020036 0.000000 0.000000
# 5 0.000000 0.000000 0.000000 0.000000 0.020036 0.000000
# 6 -0.026905 0.026905 0.000000 0.000000 0.000000 -0.198802
#
#
# Mechanical properties :
#
#
# Convention : Reuss Voigt Hill
#
# Bulk Modulus (GPa) = 42.36698 44.81188 43.58943
# Shear Modulus (GPa) = -35.33236 46.00571 5.33667
#
# Velocity S-wave (km/s) = -3.62789 4.13975 1.40995
# Velocity P-wave (km/s) = 1.32919 6.28831 4.34604
#
# Compressibility (1/GPa) = 0.02360329
#
# Stress axis : x y z
#
# Youngs Moduli (GPa) = 318.81790 318.81790 98.01073
#
# Poissons Ratio (x) = -1.01202 -0.01908
# Poissons Ratio (y) = -1.01202 -0.01908
# Poissons Ratio (z) = -0.06206 -0.06206
#
# Static dielectric constant tensor:
#      x y z
#    x 2.127210 0.000000 0.000000 
#    y 0.000000 2.127210 0.000000 
#    z 0.000000 0.000000 2.124200 
# 
# From -- ./inp_files/1131.got.cif
#   From: 2010.05.17/outbox.cif.g08.bks.cpg/sg85_cif.got.tgz:1131.got - 2010.06.03 19:01:16.
