data_PCOD9544076
_publ_section_title
;
Structure prediction by ZEFSAII (Michael W. Deem and Ramdas Pophale) SiO2 
 PCOD9544076
Probable space group: P 42/M
;
_chemical_formula_sum "Si O2"
_cell_formula_units_Z 48
_cell_length_a 11.810074
_cell_length_b 11.810074
_cell_length_c 19.832857
_cell_angle_alpha 90.000000
_cell_angle_beta 90.000000
_cell_angle_gamma 90.000000
_cell_volume 2766.244212
_symmetry_space_group_name_H-M "P 42/M"
_symmetry_group_IT_number 84
_symmetry_cell_setting 'tetragonal'
loop_
_space_group_symop_operation_xyz
x,y,z
-y,x,1/2+z
-x,-y,z
y,-x,1/2+z
-x,-y,-z
y,-x,1/2-z
x,y,-z
-y,x,1/2-z
loop_
_atom_site_type_symbol
_atom_site_label
_atom_site_fract_x
_atom_site_fract_y
_atom_site_fract_z
Si Si1 0.477122 0.129201 0.863492
Si Si2 0.247340 0.191854 0.923916
Si Si3 0.409785 0.141484 0.706775
Si Si4 0.876190 0.046101 0.921761
Si Si5 0.108594 0.336985 0.817279
Si Si6 0.276508 0.802510 0.828102
O O1 0.379914 0.190785 0.905611
O O2 0.427531 0.123884 0.787047
O O3 0.599466 0.188091 0.861143
O O4 0.500000 0.000000 0.886103
O O5 0.169857 0.260915 0.872276
O O6 0.206793 0.061723 0.919872
O O7 0.228748 0.232064 0.000000
O O8 0.536203 0.159044 0.679905
O O9 0.324598 0.241266 0.689805
O O10 0.356383 0.025841 0.677360
O O11 0.818715 0.139587 0.874703
O O12 0.887107 0.084246 0.000000
O O13 0.000000 0.000000 0.900160
O O14 0.132031 0.286012 0.743185
#
# Coordination Sequence:
#
# PCOD9544076 Si02
#       6
#     8   8   8   8   8   8
#     4  11  19  36  56  85 114 147 190 235 278 341
#     4  11  22  37  58  83 117 154 191 234 283 343
#     4  10  19  36  57  83 109 149 183 243 287 331
#     4  10  21  36  53  84 122 150 183 230 288 348
#     4  10  20  36  57  81 115 142 195 236 283 341
#     4  11  20  34  59  81 113 150 186 236 286 332
#
# _framework density 17.352046999999999
#
# number of rings (size 3 to 8) (size 9 to 14) (size 15 to 20)
#    0.000    1.500    6.667    1.000    0.000    1.000 
#    0.000    3.333    0.000    1.000    0.000    0.000 
#    0.000    0.000    0.000    0.000    0.000    0.000 
#
# Total GULP energy -267805.311295 kJ/mol
# GULP energy per Si atom -5579.277319 kJ/mol
# Density = 1.731255 g / cm^3
# Si number density = 17.352047 Si / 1000 Ang^3
#
#
#
# Elastic Constant Matrix: (Units=GPa)
#
#
# Indices 1 2 3 4 5 6 
#
# 1 55.1338 28.2351 18.4844 0.0000 0.0000 4.4733
# 2 28.2351 55.1338 18.4844 0.0000 0.0000 -4.4733
# 3 18.4844 18.4844 58.0942 0.0000 0.0000 0.0000
# 4 0.0000 0.0000 0.0000 20.7222 0.0000 0.0000
# 5 0.0000 0.0000 0.0000 0.0000 20.7222 0.0000
# 6 4.4733 -4.4733 0.0000 0.0000 0.0000 32.1736
#
#
#
# Elastic Compliance Matrix: (Units=1/GPa)
#
#
# Indices 1 2 3 4 5 6 
#
# 1 0.026472 -0.012507 -0.004443 0.000000 0.000000 -0.005419
# 2 -0.012507 0.026472 -0.004443 0.000000 0.000000 0.005419
# 3 -0.004443 -0.004443 0.020041 0.000000 0.000000 0.000000
# 4 0.000000 0.000000 0.000000 0.048257 0.000000 0.000000
# 5 0.000000 0.000000 0.000000 0.000000 0.048257 0.000000
# 6 -0.005419 0.005419 0.000000 0.000000 0.000000 0.032588
#
#
# Mechanical properties :
#
#
# Convention : Reuss Voigt Hill
#
# Bulk Modulus (GPa) = 33.11506 33.19663 33.15584
# Shear Modulus (GPa) = 19.61229 21.60080 20.60655
#
# Velocity S-wave (km/s) = 3.36558 3.53208 3.44983
# Velocity P-wave (km/s) = 5.85051 5.98389 5.91757
#
# Compressibility (1/GPa) = 0.03019774
#
# Stress axis : x y z
#
# Youngs Moduli (GPa) = 37.77554 37.77554 49.89751
#
# Poissons Ratio (x) = 0.47245 0.22172
# Poissons Ratio (y) = 0.47245 0.22172
# Poissons Ratio (z) = 0.16785 0.16785
#
# Static dielectric constant tensor:
#      x y z
#    x 1.585220 0.000000 0.000000 
#    y 0.000000 1.585220 0.000000 
#    z 0.000000 0.000000 1.596730 
# 
# From -- ./inp_files/3733.got.cif
#   From: 2010.05.17/outbox.cif.g08.bks.cpg/sg84_2_cif.got.tgz:3733.got - 2010.06.03 18:57:40.
