data_PCOD9544315
_publ_section_title
;
Structure prediction by ZEFSAII (Michael W. Deem and Ramdas Pophale) SiO2 
 PCOD9544315
Probable space group: P 42/M
;
_chemical_formula_sum "Si O2"
_cell_formula_units_Z 42
_cell_length_a 11.077427
_cell_length_b 11.077427
_cell_length_c 17.346698
_cell_angle_alpha 90.000000
_cell_angle_beta 90.000000
_cell_angle_gamma 90.000000
_cell_volume 2128.602712
_symmetry_space_group_name_H-M "P 42/M"
_symmetry_group_IT_number 84
_symmetry_cell_setting 'tetragonal'
loop_
_space_group_symop_operation_xyz
x,y,z
-y,x,1/2+z
-x,-y,z
y,-x,1/2+z
-x,-y,-z
y,-x,1/2-z
x,y,-z
-y,x,1/2-z
loop_
_atom_site_type_symbol
_atom_site_label
_atom_site_fract_x
_atom_site_fract_y
_atom_site_fract_z
Si Si1 0.253525 0.474991 0.669711
Si Si2 0.500000 0.500000 0.250000
Si Si3 0.119574 0.723361 0.660205
Si Si4 0.293174 0.253816 0.000000
Si Si5 0.572974 0.307345 0.000000
Si Si6 0.500000 0.000000 0.371013
Si Si7 0.702452 0.104981 0.259269
Si Si8 0.805001 0.484085 0.000000
O O1 0.387882 0.513690 0.692086
O O2 0.168481 0.590201 0.683385
O O3 0.243685 0.419335 0.583716
O O4 0.217791 0.373343 0.729406
O O5 0.167801 0.726086 0.572995
O O6 0.181390 0.836771 0.702005
O O7 0.981554 0.726131 0.686549
O O8 0.209693 0.370809 0.000000
O O9 0.425615 0.319111 0.000000
O O10 0.676940 0.411536 0.000000
O O11 0.614729 0.037192 0.319300
O O12 0.459826 0.112442 0.424979
#
# Coordination Sequence:
#
# PCOD9544315 Si02
#       8
#     8   2   8   4   4   4   8   4
#     4  11  24  40  63 102 133 165 205 269 339 403
#     4  12  24  34  68 100 128 162 208 268 340 394
#     4  11  24  42  68  90 133 172 226 262 330 383
#     4  10  22  42  64 101 133 171 206 275 332 410
#     4  10  26  36  64 100 137 165 199 261 347 414
#     4  11  24  40  66  93 130 172 226 265 326 384
#     4  12  24  43  68  96 128 180 222 278 317 389
#     4  11  23  40  64  98 134 170 209 271 341 407
#
# _framework density 19.731255000000001
#
# number of rings (size 3 to 8) (size 9 to 14) (size 15 to 20)
#    0.000    0.952    5.714    0.286   10.667    1.143 
#    0.000    2.857    0.000    1.143    0.000    0.000 
#    0.000    0.000    0.000    0.000    0.000    0.000 
#
# Total GULP energy -234030.796313 kJ/mol
# GULP energy per Si atom -5572.161817 kJ/mol
# Density = 1.968635 g / cm^3
# Si number density = 19.731255 Si / 1000 Ang^3
#
#
#
# Elastic Constant Matrix: (Units=GPa)
#
#
# Indices 1 2 3 4 5 6 
#
# 1 64.0429 17.5874 21.0906 0.0000 0.0000 1.9100
# 2 17.5874 64.0429 21.0906 0.0000 0.0000 -1.9100
# 3 21.0906 21.0906 68.0934 0.0000 0.0000 0.0000
# 4 0.0000 0.0000 0.0000 14.3182 0.0000 0.0000
# 5 0.0000 0.0000 0.0000 0.0000 14.3182 0.0000
# 6 1.9100 -1.9100 0.0000 0.0000 0.0000 11.1415
#
#
#
# Elastic Compliance Matrix: (Units=1/GPa)
#
#
# Indices 1 2 3 4 5 6 
#
# 1 0.018209 -0.003625 -0.004517 0.000000 0.000000 -0.003743
# 2 -0.003625 0.018209 -0.004517 0.000000 0.000000 0.003743
# 3 -0.004517 -0.004517 0.017484 0.000000 0.000000 0.000000
# 4 0.000000 0.000000 0.000000 0.069841 0.000000 0.000000
# 5 0.000000 0.000000 0.000000 0.000000 0.069841 0.000000
# 6 -0.003743 0.003743 0.000000 0.000000 0.000000 0.091038
#
#
# Mechanical properties :
#
#
# Convention : Reuss Voigt Hill
#
# Bulk Modulus (GPa) = 34.98459 35.07960 35.03209
# Shear Modulus (GPa) = 15.65099 17.04962 16.35030
#
# Velocity S-wave (km/s) = 2.81945 2.94273 2.88175
# Velocity P-wave (km/s) = 5.32617 5.41881 5.37269
#
# Compressibility (1/GPa) = 0.02858402
#
# Stress axis : x y z
#
# Youngs Moduli (GPa) = 54.91737 54.91737 57.19517
#
# Poissons Ratio (x) = 0.19905 0.25837
# Poissons Ratio (y) = 0.19905 0.25837
# Poissons Ratio (z) = 0.24808 0.24808
#
# Static dielectric constant tensor:
#      x y z
#    x 1.668020 0.000000 0.000000 
#    y 0.000000 1.668020 0.000000 
#    z 0.000000 0.000000 1.711520 
# 
# From -- ./inp_files/3700.got.cif
#   From: 2010.05.17/outbox.cif.g08.bks.cpg/sg84_2_cif.got.tgz:3700.got - 2010.06.03 18:57:40.
