data_PCOD9544247
_publ_section_title
;
Structure prediction by ZEFSAII (Michael W. Deem and Ramdas Pophale) SiO2 
 PCOD9544247
Probable space group: P 42/M
;
_chemical_formula_sum "Si O2"
_cell_formula_units_Z 22
_cell_length_a 5.272535
_cell_length_b 5.272535
_cell_length_c 31.661327
_cell_angle_alpha 90.000000
_cell_angle_beta 90.000000
_cell_angle_gamma 90.000000
_cell_volume 880.173028
_symmetry_space_group_name_H-M "P 42/M"
_symmetry_group_IT_number 84
_symmetry_cell_setting 'tetragonal'
loop_
_space_group_symop_operation_xyz
x,y,z
-y,x,1/2+z
-x,-y,z
y,-x,1/2+z
-x,-y,-z
y,-x,1/2-z
x,y,-z
-y,x,1/2-z
loop_
_atom_site_type_symbol
_atom_site_label
_atom_site_fract_x
_atom_site_fract_y
_atom_site_fract_z
Si Si1 0.743876 0.332612 0.092613
Si Si2 0.251716 0.677031 0.816728
Si Si3 0.756047 0.831185 0.500000
Si Si4 0.000000 0.000000 0.250000
O O1 0.500000 0.500000 0.099884
O O2 0.755359 0.184747 0.136972
O O3 0.698025 0.227548 0.045535
O O4 0.000000 0.500000 0.090159
O O5 0.500000 0.500000 0.811321
O O6 0.000000 0.500000 0.815937
O O7 0.212716 0.878716 0.779963
O O8 0.500000 0.000000 0.500000
O O9 0.000000 0.000000 0.500000
#
# Coordination Sequence:
#
# PCOD9544247 Si02
#       4
#     8   8   4   2
#     4   9  19  41  65  98 139 182 235 294 360 434
#     4  10  25  45  70 102 144 190 245 308 374 447
#     4  10  21  38  70 102 140 186 234 290 358 434
#     4  12  28  40  76 102 144 192 260 304 392 446
#
# _framework density 24.995083999999999
#
# number of rings (size 3 to 8) (size 9 to 14) (size 15 to 20)
#    0.000    2.182    0.000    0.545    7.636    0.000 
#    0.000   14.545    0.000    0.000    0.000    0.000 
#    0.000    0.000    0.000    0.000    0.000    0.000 
#
# Total GULP energy -122861.193949 kJ/mol
# GULP energy per Si atom -5584.599725 kJ/mol
# Density = 2.493819 g / cm^3
# Si number density = 24.995084 Si / 1000 Ang^3
#
#
#
# Elastic Constant Matrix: (Units=GPa)
#
#
# Indices 1 2 3 4 5 6 
#
# 1 120.2074 34.6251 38.3515 0.0000 0.0000 -2.4911
# 2 34.6251 120.2074 38.3515 0.0000 0.0000 2.4911
# 3 38.3515 38.3515 304.5420 0.0000 0.0000 0.0000
# 4 0.0000 0.0000 0.0000 -529.7145 0.0000 0.0000
# 5 0.0000 0.0000 0.0000 0.0000 -529.7145 0.0000
# 6 -2.4911 2.4911 0.0000 0.0000 0.0000 50.4922
#
#
#
# Elastic Compliance Matrix: (Units=1/GPa)
#
#
# Indices 1 2 3 4 5 6 
#
# 1 0.009303 -0.002415 -0.000867 0.000000 0.000000 0.000578
# 2 -0.002415 0.009303 -0.000867 0.000000 0.000000 -0.000578
# 3 -0.000867 -0.000867 0.003502 0.000000 0.000000 0.000000
# 4 0.000000 0.000000 0.000000 -0.001888 0.000000 0.000000
# 5 0.000000 0.000000 0.000000 0.000000 -0.001888 0.000000
# 6 0.000578 -0.000578 0.000000 0.000000 0.000000 0.019862
#
#
# Mechanical properties :
#
#
# Convention : Reuss Voigt Hill
#
# Bulk Modulus (GPa) = 72.41700 85.29034 78.85367
# Shear Modulus (GPa) = 97.85122 -172.87874 -37.51376
#
# Velocity S-wave (km/s) = 6.26364 -8.32558 -3.87828
# Velocity P-wave (km/s) = 9.01922 7.63043 3.40021
#
# Compressibility (1/GPa) = 0.01380891
#
# Stress axis : x y z
#
# Youngs Moduli (GPa) = 107.48852 107.48852 285.54301
#
# Poissons Ratio (x) = 0.25958 0.24770
# Poissons Ratio (y) = 0.25958 0.24770
# Poissons Ratio (z) = 0.09324 0.09324
#
# Static dielectric constant tensor:
#      x y z
#    x 2.118540 0.000000 0.000000 
#    y 0.000000 2.118540 0.000000 
#    z 0.000000 0.000000 0.985720 
# 
# From -- ./inp_files/5528.got.cif
#   From: 2010.05.17/outbox.cif.g08.bks.cpg/sg84_3_cif.got.tgz:5528.got - 2010.06.03 18:57:40.
