data_PCOD9544270
_publ_section_title
;
Structure prediction by ZEFSAII (Michael W. Deem and Ramdas Pophale) SiO2 
 PCOD9544270
Probable space group: P 42/M
;
_chemical_formula_sum "Si O2"
_cell_formula_units_Z 40
_cell_length_a 14.875604
_cell_length_b 14.875604
_cell_length_c 9.814648
_cell_angle_alpha 90.000000
_cell_angle_beta 90.000000
_cell_angle_gamma 90.000000
_cell_volume 2171.820587
_symmetry_space_group_name_H-M "P 42/M"
_symmetry_group_IT_number 84
_symmetry_cell_setting 'tetragonal'
loop_
_space_group_symop_operation_xyz
x,y,z
-y,x,1/2+z
-x,-y,z
y,-x,1/2+z
-x,-y,-z
y,-x,1/2-z
x,y,-z
-y,x,1/2-z
loop_
_atom_site_type_symbol
_atom_site_label
_atom_site_fract_x
_atom_site_fract_y
_atom_site_fract_z
Si Si1 0.076162 0.318879 0.160841
Si Si2 0.056254 0.113050 0.835185
Si Si3 0.221010 0.465245 0.248697
Si Si4 0.412354 0.065011 0.156366
Si Si5 0.473276 0.644894 0.500000
Si Si6 0.650050 0.523539 0.500000
O O1 0.095010 0.213188 0.174099
O O2 0.155607 0.381249 0.218620
O O3 0.987169 0.343429 0.246970
O O4 0.063526 0.339640 0.000000
O O5 0.960317 0.110360 0.754708
O O6 0.049472 0.092312 0.000000
O O7 0.156921 0.550478 0.279606
O O8 0.288686 0.476425 0.125903
O O9 0.286658 0.453960 0.374646
O O10 0.500000 0.000000 0.150479
O O11 0.380994 0.077468 0.000000
O O12 0.560711 0.582651 0.500000
O O13 0.386557 0.579193 0.500000
#
# Coordination Sequence:
#
# PCOD9544270 Si02
#       6
#     8   8   8   8   4   4
#     4  10  22  39  61  92 126 159 201 254 308 364
#     4  10  21  41  62  88 122 163 200 239 300 367
#     4  11  21  41  62  91 123 158 210 259 308 365
#     4   9  19  35  59  86 121 158 193 246 309 361
#     4  11  24  42  67  84 124 171 208 261 317 367
#     4  11  24  44  61  90 122 167 216 257 315 375
#
# _framework density 18.417726999999999
#
# number of rings (size 3 to 8) (size 9 to 14) (size 15 to 20)
#    0.000    1.800    2.000    2.400    2.800    4.400 
#    7.200    0.000    0.000    0.000    0.000    0.000 
#    0.000    0.000    0.000    0.000    0.000    0.000 
#
# Total GULP energy -222987.150935 kJ/mol
# GULP energy per Si atom -5574.678773 kJ/mol
# Density = 1.837581 g / cm^3
# Si number density = 18.417727 Si / 1000 Ang^3
#
#
#
# Elastic Constant Matrix: (Units=GPa)
#
#
# Indices 1 2 3 4 5 6 
#
# 1 96.4042 25.8662 53.0241 0.0000 0.0000 -7.5827
# 2 25.8662 96.4042 53.0241 0.0000 0.0000 7.5827
# 3 53.0241 53.0241 179.8406 0.0000 0.0000 0.0000
# 4 0.0000 0.0000 0.0000 15.5354 0.0000 0.0000
# 5 0.0000 0.0000 0.0000 0.0000 15.5354 0.0000
# 6 -7.5827 7.5827 0.0000 0.0000 0.0000 11.0878
#
#
#
# Elastic Compliance Matrix: (Units=1/GPa)
#
#
# Indices 1 2 3 4 5 6 
#
# 1 0.013805 -0.002816 -0.003240 0.000000 0.000000 0.011366
# 2 -0.002816 0.013805 -0.003240 0.000000 0.000000 -0.011366
# 3 -0.003240 -0.003240 0.007471 0.000000 0.000000 0.000000
# 4 0.000000 0.000000 0.000000 0.064369 0.000000 0.000000
# 5 0.000000 0.000000 0.000000 0.000000 0.064369 0.000000
# 6 0.011366 -0.011366 0.000000 0.000000 0.000000 0.105736
#
#
# Mechanical properties :
#
#
# Convention : Reuss Voigt Hill
#
# Bulk Modulus (GPa) = 60.64758 70.71975 65.68366
# Shear Modulus (GPa) = 17.02755 24.48068 20.75411
#
# Velocity S-wave (km/s) = 3.04389 3.64976 3.36051
# Velocity P-wave (km/s) = 6.73454 7.49947 7.12728
#
# Compressibility (1/GPa) = 0.01648871
#
# Stress axis : x y z
#
# Youngs Moduli (GPa) = 72.43977 72.43977 133.85133
#
# Poissons Ratio (x) = 0.20399 0.43366
# Poissons Ratio (y) = 0.20399 0.43366
# Poissons Ratio (z) = 0.23470 0.23470
#
# Static dielectric constant tensor:
#      x y z
#    x 1.624840 0.000000 0.000000 
#    y 0.000000 1.624840 0.000000 
#    z 0.000000 0.000000 1.567780 
# 
# From -- ./inp_files/816.got.cif
#   From: 2010.05.17/outbox.cif.g08.bks.cpg/sg84_1_cif.got.tgz:816.got - 2010.06.03 18:57:40.
