data_PCOD9544645
_publ_section_title
;
Structure prediction by ZEFSAII (Michael W. Deem and Ramdas Pophale) SiO2 
 PCOD9544645
Probable space group: P 4/N
;
_chemical_formula_sum "Si O2"
_cell_formula_units_Z 56
_cell_length_a 15.057394
_cell_length_b 15.057394
_cell_length_c 11.828132
_cell_angle_alpha 90.000000
_cell_angle_beta 90.000000
_cell_angle_gamma 90.000000
_cell_volume 2681.734577
_symmetry_space_group_name_H-M "P 4/N"
_symmetry_group_IT_number 85
_symmetry_cell_setting 'tetragonal'
loop_
_space_group_symop_operation_xyz
x,y,z
1/2-y,x,z
1/2-x,1/2-y,z
y,1/2-x,z
-x,-y,-z
1/2+y,-x,-z
1/2+x,1/2+y,-z
-y,1/2+x,-z
loop_
_atom_site_type_symbol
_atom_site_label
_atom_site_fract_x
_atom_site_fract_y
_atom_site_fract_z
Si Si1 0.221873 0.881257 0.048719
Si Si2 0.145177 0.563694 0.233863
Si Si3 0.672841 0.876353 0.679312
Si Si4 0.876388 0.179296 0.485733
Si Si5 0.540488 0.592859 0.453461
Si Si6 0.147839 0.141258 0.761249
Si Si7 0.490702 0.094381 0.938210
O O1 0.270097 0.896372 0.167762
O O2 0.301065 0.849621 0.963140
O O3 0.173032 0.972102 0.016519
O O4 0.143720 0.456460 0.239361
O O5 0.146514 0.596611 0.361761
O O6 0.060567 0.594759 0.164851
O O7 0.632326 0.778825 0.693971
O O8 0.642257 0.906295 0.553793
O O9 0.784155 0.135958 0.519664
O O10 0.953881 0.152296 0.570437
O O11 0.500000 0.500000 0.500000
O O12 0.600259 0.590909 0.342644
O O13 0.253796 0.128862 0.752724
O O14 0.112705 0.103218 0.880329
O O15 0.500000 0.000000 0.000000
#
# Coordination Sequence:
#
# PCOD9544645 Si02
#       7
#     8   8   8   8   8   8   8
#     4   9  21  42  69  97 129 176 226 287 351 416
#     4  10  23  42  68  99 136 173 228 279 355 413
#     4  10  22  40  64  95 130 174 220 266 331 415
#     4  10  24  41  64 102 137 171 214 279 348 421
#     4  11  24  40  69  96 136 177 226 273 334 420
#     4  11  26  45  69 101 140 186 228 285 353 414
#     4  11  26  44  69  98 130 179 240 292 347 405
#
# _framework density 20.882006000000001
#
# number of rings (size 3 to 8) (size 9 to 14) (size 15 to 20)
#    0.000    1.714    0.000    2.571   14.000    6.857 
#    0.000    0.000    0.000    0.000    0.000    0.000 
#    0.000    0.000    0.000    0.000    0.000    0.000 
#
# Total GULP energy -312790.567493 kJ/mol
# GULP energy per Si atom -5585.545848 kJ/mol
# Density = 2.083448 g / cm^3
# Si number density = 20.882006 Si / 1000 Ang^3
#
#
#
# Elastic Constant Matrix: (Units=GPa)
#
#
# Indices 1 2 3 4 5 6 
#
# 1 101.5881 -7.7819 19.6828 0.0000 0.0000 34.0390
# 2 -7.7819 101.5881 19.6828 0.0000 0.0000 -34.0390
# 3 19.6828 19.6828 55.0773 0.0000 0.0000 0.0000
# 4 0.0000 0.0000 0.0000 30.2628 0.0000 0.0000
# 5 0.0000 0.0000 0.0000 0.0000 30.2628 0.0000
# 6 34.0390 -34.0390 0.0000 0.0000 0.0000 63.8398
#
#
#
# Elastic Compliance Matrix: (Units=1/GPa)
#
#
# Indices 1 2 3 4 5 6 
#
# 1 0.013113 -0.000572 -0.004482 0.000000 0.000000 -0.007297
# 2 -0.000572 0.013113 -0.004482 0.000000 0.000000 0.007297
# 3 -0.004482 -0.004482 0.021360 0.000000 0.000000 0.000000
# 4 0.000000 0.000000 0.000000 0.033044 0.000000 0.000000
# 5 0.000000 0.000000 0.000000 0.000000 0.033044 0.000000
# 6 -0.007297 0.007297 0.000000 0.000000 0.000000 0.023446
#
#
# Mechanical properties :
#
#
# Convention : Reuss Voigt Hill
#
# Bulk Modulus (GPa) = 35.06970 35.71341 35.39155
# Shear Modulus (GPa) = 30.17591 39.98442 35.08017
#
# Velocity S-wave (km/s) = 3.80553 4.38057 4.10313
# Velocity P-wave (km/s) = 6.01166 6.53647 6.27955
#
# Compressibility (1/GPa) = 0.02851465
#
# Stress axis : x y z
#
# Youngs Moduli (GPa) = 76.25932 76.25932 46.81748
#
# Poissons Ratio (x) = 0.04363 0.20982
# Poissons Ratio (y) = 0.04363 0.20982
# Poissons Ratio (z) = 0.34177 0.34177
#
# Static dielectric constant tensor:
#      x y z
#    x 1.773870 0.000000 0.000000 
#    y 0.000000 1.773870 0.000000 
#    z 0.000000 0.000000 1.714630 
# 
# From -- ./inp_files/1784.got.cif
#   From: 2010.05.17/outbox.cif.g08.bks.cpg/sg85_cif.got.tgz:1784.got - 2010.06.03 19:01:16.
