data_PCOD9544512
_publ_section_title
;
Structure prediction by ZEFSAII (Michael W. Deem and Ramdas Pophale) SiO2 
 PCOD9544512
Probable space group: P 4/N
;
_chemical_formula_sum "Si O2"
_cell_formula_units_Z 56
_cell_length_a 13.186972
_cell_length_b 13.186972
_cell_length_c 15.711616
_cell_angle_alpha 90.000000
_cell_angle_beta 90.000000
_cell_angle_gamma 90.000000
_cell_volume 2732.190798
_symmetry_space_group_name_H-M "P 4/N"
_symmetry_group_IT_number 85
_symmetry_cell_setting 'tetragonal'
loop_
_space_group_symop_operation_xyz
x,y,z
1/2-y,x,z
1/2-x,1/2-y,z
y,1/2-x,z
-x,-y,-z
1/2+y,-x,-z
1/2+x,1/2+y,-z
-y,1/2+x,-z
loop_
_atom_site_type_symbol
_atom_site_label
_atom_site_fract_x
_atom_site_fract_y
_atom_site_fract_z
Si Si1 0.555898 0.420141 0.760376
Si Si2 0.659909 0.894784 0.371546
Si Si3 0.092613 0.209702 0.117075
Si Si4 0.595149 0.678275 0.567904
Si Si5 0.214691 0.859363 0.838285
Si Si6 0.470951 0.716653 0.720386
Si Si7 0.958808 0.049236 0.084286
O O1 0.471130 0.396354 0.690744
O O2 0.587034 0.313544 0.802168
O O3 0.661776 0.456050 0.718302
O O4 0.512234 0.494485 0.834254
O O5 0.615763 0.781478 0.358163
O O6 0.653084 0.929316 0.470028
O O7 0.180704 0.131417 0.094000
O O8 0.067568 0.205499 0.216863
O O9 0.991406 0.167569 0.077190
O O10 0.702266 0.621608 0.580934
O O11 0.503964 0.661769 0.633838
O O12 0.250000 0.750000 0.874071
O O13 0.129482 0.831089 0.765310
O O14 0.159625 0.939896 0.899401
O O15 0.000000 0.000000 0.000000
#
# Coordination Sequence:
#
# PCOD9544512 Si02
#       7
#     8   8   8   8   8   8   8
#     4  11  21  40  58  87 122 167 209 251 315 380
#     4   9  19  38  60  81 117 167 214 257 308 371
#     4  10  19  35  60  89 121 155 192 258 328 367
#     4   9  18  33  56  91 122 155 207 264 317 369
#     4   9  22  42  61  85 128 170 202 248 323 390
#     4  10  19  35  59  90 122 159 202 250 317 385
#     4  11  24  40  64  95 123 158 221 264 309 392
#
# _framework density 20.496372000000001
#
# number of rings (size 3 to 8) (size 9 to 14) (size 15 to 20)
#    0.000    2.143    1.429    2.571    2.000    2.286 
#    2.571    1.429    0.000    1.714    0.000    0.000 
#    0.000    0.000    0.000    0.000    0.000    0.000 
#
# Total GULP energy -312187.196425 kJ/mol
# GULP energy per Si atom -5574.771365 kJ/mol
# Density = 2.044972 g / cm^3
# Si number density = 20.496372 Si / 1000 Ang^3
#
#
#
# Elastic Constant Matrix: (Units=GPa)
#
#
# Indices 1 2 3 4 5 6 
#
# 1 59.9065 9.5481 22.0222 0.0000 0.0000 1.1624
# 2 9.5481 59.9065 22.0222 0.0000 0.0000 -1.1624
# 3 22.0222 22.0222 71.4720 0.0000 0.0000 0.0000
# 4 0.0000 0.0000 0.0000 25.4682 0.0000 0.0000
# 5 0.0000 0.0000 0.0000 0.0000 25.4682 0.0000
# 6 1.1624 -1.1624 0.0000 0.0000 0.0000 36.9684
#
#
#
# Elastic Compliance Matrix: (Units=1/GPa)
#
#
# Indices 1 2 3 4 5 6 
#
# 1 0.018890 -0.000996 -0.005514 0.000000 0.000000 -0.000625
# 2 -0.000996 0.018890 -0.005514 0.000000 0.000000 0.000625
# 3 -0.005514 -0.005514 0.017389 0.000000 0.000000 0.000000
# 4 0.000000 0.000000 0.000000 0.039265 0.000000 0.000000
# 5 0.000000 0.000000 0.000000 0.000000 0.039265 0.000000
# 6 -0.000625 0.000625 0.000000 0.000000 0.000000 0.027089
#
#
# Mechanical properties :
#
#
# Convention : Reuss Voigt Hill
#
# Bulk Modulus (GPa) = 32.13023 33.16332 32.64677
# Shear Modulus (GPa) = 25.61344 26.76048 26.18696
#
# Velocity S-wave (km/s) = 3.53888 3.61726 3.57829
# Velocity P-wave (km/s) = 5.69283 5.80183 5.74759
#
# Compressibility (1/GPa) = 0.03112334
#
# Stress axis : x y z
#
# Youngs Moduli (GPa) = 52.93686 52.93686 57.50679
#
# Poissons Ratio (x) = 0.05273 0.31707
# Poissons Ratio (y) = 0.05273 0.31707
# Poissons Ratio (z) = 0.29188 0.29188
#
# Static dielectric constant tensor:
#      x y z
#    x 1.742200 0.000000 0.000000 
#    y 0.000000 1.742200 0.000000 
#    z 0.000000 0.000000 1.772130 
# 
# From -- ./inp_files/2009.got.cif
#   From: 2010.05.17/outbox.cif.g08.bks.cpg/sg85_cif.got.tgz:2009.got - 2010.06.03 19:01:16.
