data_PCOD9544843
_publ_section_title
;
Structure prediction by ZEFSAII (Michael W. Deem and Ramdas Pophale) SiO2 
 PCOD9544843
Probable space group: P 4/N
;
_chemical_formula_sum "Si O2"
_cell_formula_units_Z 32
_cell_length_a 10.209142
_cell_length_b 10.209142
_cell_length_c 14.000741
_cell_angle_alpha 90.000000
_cell_angle_beta 90.000000
_cell_angle_gamma 90.000000
_cell_volume 1459.249357
_symmetry_space_group_name_H-M "P 4/N"
_symmetry_group_IT_number 85
_symmetry_cell_setting 'tetragonal'
loop_
_space_group_symop_operation_xyz
x,y,z
1/2-y,x,z
1/2-x,1/2-y,z
y,1/2-x,z
-x,-y,-z
1/2+y,-x,-z
1/2+x,1/2+y,-z
-y,1/2+x,-z
loop_
_atom_site_type_symbol
_atom_site_label
_atom_site_fract_x
_atom_site_fract_y
_atom_site_fract_z
Si Si1 0.201262 0.464903 0.596867
Si Si2 0.911635 0.380069 0.965516
Si Si3 0.536764 0.689792 0.614259
Si Si4 0.189585 0.883413 0.760279
O O1 0.100900 0.344987 0.600956
O O2 0.179313 0.525046 0.492236
O O3 0.202606 0.553537 0.689933
O O4 0.955437 0.351628 0.856182
O O5 0.922181 0.241810 0.022413
O O6 0.000000 0.500000 0.000000
O O7 0.663313 0.594968 0.620736
O O8 0.433631 0.652213 0.694012
O O9 0.250000 0.750000 0.798065
#
# Coordination Sequence:
#
# PCOD9544843 Si02
#       4
#     8   8   8   8
#     4   9  22  41  61  92 134 174 215 261 315 391
#     4  11  27  52  72 100 139 177 234 296 349 412
#     4   9  22  41  61  92 134 174 215 261 315 391
#     4  12  26  38  70  95 131 167 220 264 340 388
#
# _framework density 21.929085000000001
#
# number of rings (size 3 to 8) (size 9 to 14) (size 15 to 20)
#    0.000    1.750    2.500    1.500   14.000    2.500 
#    0.000    0.000    0.000    0.000    0.000    0.000 
#    0.000    0.000    0.000    0.000    0.000    0.000 
#
# Total GULP energy -178820.237229 kJ/mol
# GULP energy per Si atom -5588.132413 kJ/mol
# Density = 2.187917 g / cm^3
# Si number density = 21.929085 Si / 1000 Ang^3
#
#
#
# Elastic Constant Matrix: (Units=GPa)
#
#
# Indices 1 2 3 4 5 6 
#
# 1 81.5513 22.6455 21.8020 0.0000 0.0000 -6.1298
# 2 22.6455 81.5513 21.8020 0.0000 0.0000 6.1298
# 3 21.8020 21.8020 143.2158 0.0000 0.0000 0.0000
# 4 0.0000 0.0000 0.0000 22.1554 0.0000 0.0000
# 5 0.0000 0.0000 0.0000 0.0000 22.1554 0.0000
# 6 -6.1298 6.1298 0.0000 0.0000 0.0000 28.5243
#
#
#
# Elastic Compliance Matrix: (Units=1/GPa)
#
#
# Indices 1 2 3 4 5 6 
#
# 1 0.014011 -0.003760 -0.001560 0.000000 0.000000 0.003819
# 2 -0.003760 0.014011 -0.001560 0.000000 0.000000 -0.003819
# 3 -0.001560 -0.001560 0.007458 0.000000 0.000000 0.000000
# 4 0.000000 0.000000 0.000000 0.045136 0.000000 0.000000
# 5 0.000000 0.000000 0.000000 0.000000 0.045136 0.000000
# 6 0.003819 -0.003819 0.000000 0.000000 0.000000 0.036699
#
#
# Mechanical properties :
#
#
# Convention : Reuss Voigt Hill
#
# Bulk Modulus (GPa) = 46.04823 48.75749 47.40286
# Shear Modulus (GPa) = 27.25526 30.57160 28.91343
#
# Velocity S-wave (km/s) = 3.52928 3.73783 3.63505
# Velocity P-wave (km/s) = 6.13612 6.39617 6.26749
#
# Compressibility (1/GPa) = 0.02171636
#
# Stress axis : x y z
#
# Youngs Moduli (GPa) = 71.37427 71.37427 134.09214
#
# Poissons Ratio (x) = 0.26840 0.20924
# Poissons Ratio (y) = 0.26840 0.20924
# Poissons Ratio (z) = 0.11137 0.11137
#
# Static dielectric constant tensor:
#      x y z
#    x 1.825630 0.000000 0.000000 
#    y 0.000000 1.825630 0.000000 
#    z 0.000000 0.000000 1.819420 
# 
# From -- ./inp_files/1402.got.cif
#   From: 2010.05.17/outbox.cif.g08.bks.cpg/sg85_cif.got.tgz:1402.got - 2010.06.03 19:01:16.
