data_PCOD9544234
_publ_section_title
;
Structure prediction by ZEFSAII (Michael W. Deem and Ramdas Pophale) SiO2 
 PCOD9544234
Probable space group: P 42/M
;
_chemical_formula_sum "Si O2"
_cell_formula_units_Z 40
_cell_length_a 7.719297
_cell_length_b 7.719297
_cell_length_c 29.009827
_cell_angle_alpha 90.000000
_cell_angle_beta 90.000000
_cell_angle_gamma 90.000000
_cell_volume 1728.624406
_symmetry_space_group_name_H-M "P 42/M"
_symmetry_group_IT_number 84
_symmetry_cell_setting 'tetragonal'
loop_
_space_group_symop_operation_xyz
x,y,z
-y,x,1/2+z
-x,-y,z
y,-x,1/2+z
-x,-y,-z
y,-x,1/2-z
x,y,-z
-y,x,1/2-z
loop_
_atom_site_type_symbol
_atom_site_label
_atom_site_fract_x
_atom_site_fract_y
_atom_site_fract_z
Si Si1 0.206140 0.958936 0.948964
Si Si2 0.150824 0.772162 0.642005
Si Si3 0.323914 0.112953 0.612913
Si Si4 0.729035 0.925550 0.761244
Si Si5 0.486187 0.302659 0.691569
O O1 0.202015 0.760867 0.931260
O O2 0.283796 0.077554 0.907799
O O3 0.280080 0.983384 0.000000
O O4 0.000000 0.000000 0.952262
O O5 0.036059 0.706614 0.684683
O O6 0.337359 0.719636 0.662224
O O7 0.185494 0.977575 0.634178
O O8 0.351458 0.255228 0.651783
O O9 0.500000 0.000000 0.604633
O O10 0.576993 0.826078 0.733187
O O11 0.895389 0.796236 0.760120
O O12 0.500000 0.500000 0.705351
#
# Coordination Sequence:
#
# PCOD9544234 Si02
#       5
#     8   8   8   8   8
#     4   9  18  35  65  98 126 167 223 283 338 387
#     4  10  21  37  59  88 131 163 210 273 324 399
#     4   9  18  37  60  87 127 164 215 274 333 390
#     4  11  23  38  63  91 120 172 219 269 334 399
#     4  11  24  40  59  90 133 169 214 263 332 403
#
# _framework density 23.139785
#
# number of rings (size 3 to 8) (size 9 to 14) (size 15 to 20)
#    0.000    2.000    2.000    1.200    8.400    0.400 
#    0.000    6.000    0.000    3.600    0.000    0.000 
#    0.000    0.000    0.000    0.000    0.000    0.000 
#
# Total GULP energy -222851.067007 kJ/mol
# GULP energy per Si atom -5571.276675 kJ/mol
# Density = 2.308712 g / cm^3
# Si number density = 23.139785 Si / 1000 Ang^3
#
#
#
# Elastic Constant Matrix: (Units=GPa)
#
#
# Indices 1 2 3 4 5 6 
#
# 1 123.8073 26.3485 53.8930 0.0000 0.0000 -11.8143
# 2 26.3485 123.8073 53.8930 0.0000 0.0000 11.8143
# 3 53.8930 53.8930 247.8872 0.0000 0.0000 0.0000
# 4 0.0000 0.0000 0.0000 12.8842 0.0000 0.0000
# 5 0.0000 0.0000 0.0000 0.0000 12.8842 0.0000
# 6 -11.8143 11.8143 0.0000 0.0000 0.0000 13.9465
#
#
#
# Elastic Compliance Matrix: (Units=1/GPa)
#
#
# Indices 1 2 3 4 5 6 
#
# 1 0.010402 -0.002511 -0.001716 0.000000 0.000000 0.010939
# 2 -0.002511 0.010402 -0.001716 0.000000 0.000000 -0.010939
# 3 -0.001716 -0.001716 0.004780 0.000000 0.000000 0.000000
# 4 0.000000 0.000000 0.000000 0.077614 0.000000 0.000000
# 5 0.000000 0.000000 0.000000 0.000000 0.077614 0.000000
# 6 0.010939 -0.010939 0.000000 0.000000 0.000000 0.090235
#
#
# Mechanical properties :
#
#
# Convention : Reuss Voigt Hill
#
# Bulk Modulus (GPa) = 72.99219 84.86342 78.92781
# Shear Modulus (GPa) = 17.39139 32.03414 24.71276
#
# Velocity S-wave (km/s) = 2.74447 3.72476 3.27154
# Velocity P-wave (km/s) = 6.45409 7.43319 6.96088
#
# Compressibility (1/GPa) = 0.01370010
#
# Stress axis : x y z
#
# Youngs Moduli (GPa) = 96.13509 96.13509 209.20130
#
# Poissons Ratio (x) = 0.24137 0.35891
# Poissons Ratio (y) = 0.24137 0.35891
# Poissons Ratio (z) = 0.16493 0.16493
#
# Static dielectric constant tensor:
#      x y z
#    x 1.971600 0.000000 0.000000 
#    y 0.000000 1.971600 0.000000 
#    z 0.000000 0.000000 1.921520 
# 
# From -- ./inp_files/5304.got.cif
#   From: 2010.05.17/outbox.cif.g08.bks.cpg/sg84_3_cif.got.tgz:5304.got - 2010.06.03 18:57:40.
