data_PCOD9544213
_publ_section_title
;
Structure prediction by ZEFSAII (Michael W. Deem and Ramdas Pophale) SiO2 
 PCOD9544213
Probable space group: P 42/M
;
_chemical_formula_sum "Si O2"
_cell_formula_units_Z 24
_cell_length_a 8.843556
_cell_length_b 8.843556
_cell_length_c 12.906278
_cell_angle_alpha 90.000000
_cell_angle_beta 90.000000
_cell_angle_gamma 90.000000
_cell_volume 1009.380420
_symmetry_space_group_name_H-M "P 42/M"
_symmetry_group_IT_number 84
_symmetry_cell_setting 'tetragonal'
loop_
_space_group_symop_operation_xyz
x,y,z
-y,x,1/2+z
-x,-y,z
y,-x,1/2+z
-x,-y,-z
y,-x,1/2-z
x,y,-z
-y,x,1/2-z
loop_
_atom_site_type_symbol
_atom_site_label
_atom_site_fract_x
_atom_site_fract_y
_atom_site_fract_z
Si Si1 0.362520 0.390564 0.119972
Si Si2 0.155013 0.584782 0.000000
Si Si3 0.171257 0.942781 0.000000
Si Si4 0.193292 0.114777 0.794622
O O1 0.500000 0.500000 0.145760
O O2 0.232082 0.512572 0.100702
O O3 0.304885 0.257898 0.194745
O O4 0.389691 0.330239 0.000000
O O5 0.173904 0.762911 0.000000
O O6 0.000000 0.500000 0.000000
O O7 0.235022 0.016299 0.104111
O O8 0.000000 0.000000 0.000000
O O9 0.019638 0.182765 0.792072
#
# Coordination Sequence:
#
# PCOD9544213 Si02
#       4
#     8   4   4   8
#     4   9  20  44  73 105 142 189 246 304 384 457
#     4  10  21  34  76  97 140 193 241 299 384 426
#     4  12  20  40  65 107 144 184 256 301 355 455
#     4  11  22  36  76 111 148 190 256 317 371 432
#
# _framework density 23.776962999999999
#
# number of rings (size 3 to 8) (size 9 to 14) (size 15 to 20)
#    1.000    0.667    5.000    2.000    0.000    0.000 
#    0.000    3.333   14.667    2.000    0.000    1.167 
#    0.000    0.000    0.000    0.000    0.000    0.000 
#
# Total GULP energy -133603.886740 kJ/mol
# GULP energy per Si atom -5566.828614 kJ/mol
# Density = 2.372285 g / cm^3
# Si number density = 23.776963 Si / 1000 Ang^3
#
#
#
# Elastic Constant Matrix: (Units=GPa)
#
#
# Indices 1 2 3 4 5 6 
#
# 1 169.5954 84.1587 38.4724 0.0000 0.0000 2.6330
# 2 84.1587 169.5954 38.4724 0.0000 0.0000 -2.6330
# 3 38.4724 38.4724 116.2911 0.0000 0.0000 0.0000
# 4 0.0000 0.0000 0.0000 24.3413 0.0000 0.0000
# 5 0.0000 0.0000 0.0000 0.0000 24.3413 0.0000
# 6 2.6330 -2.6330 0.0000 0.0000 0.0000 45.0298
#
#
#
# Elastic Compliance Matrix: (Units=1/GPa)
#
#
# Indices 1 2 3 4 5 6 
#
# 1 0.008064 -0.003683 -0.001449 0.000000 0.000000 -0.000687
# 2 -0.003683 0.008064 -0.001449 0.000000 0.000000 0.000687
# 3 -0.001449 -0.001449 0.009558 0.000000 0.000000 0.000000
# 4 0.000000 0.000000 0.000000 0.041082 0.000000 0.000000
# 5 0.000000 0.000000 0.000000 0.000000 0.041082 0.000000
# 6 -0.000687 0.000687 0.000000 0.000000 0.000000 0.022288
#
#
# Mechanical properties :
#
#
# Convention : Reuss Voigt Hill
#
# Bulk Modulus (GPa) = 79.85971 86.40990 83.13480
# Shear Modulus (GPa) = 33.90408 38.36771 36.13589
#
# Velocity S-wave (km/s) = 3.78023 4.02138 3.90267
# Velocity P-wave (km/s) = 7.26041 7.61464 7.43963
#
# Compressibility (1/GPa) = 0.01252196
#
# Stress axis : x y z
#
# Youngs Moduli (GPa) = 124.01458 124.01458 104.62525
#
# Poissons Ratio (x) = 0.45679 0.15161
# Poissons Ratio (y) = 0.45679 0.15161
# Poissons Ratio (z) = 0.17971 0.17971
#
# Static dielectric constant tensor:
#      x y z
#    x 1.871650 0.000000 0.000000 
#    y 0.000000 1.871650 0.000000 
#    z 0.000000 0.000000 2.046720 
# 
# From -- ./inp_files/2548.got.cif
#   From: 2010.05.17/outbox.cif.g08.bks.cpg/sg84_2_cif.got.tgz:2548.got - 2010.06.03 18:57:40.
