data_PCOD9544238
_publ_section_title
;
Structure prediction by ZEFSAII (Michael W. Deem and Ramdas Pophale) SiO2 
 PCOD9544238
Probable space group: P 42/M
;
_chemical_formula_sum "Si O2"
_cell_formula_units_Z 40
_cell_length_a 8.475638
_cell_length_b 8.475638
_cell_length_c 23.367801
_cell_angle_alpha 90.000000
_cell_angle_beta 90.000000
_cell_angle_gamma 90.000000
_cell_volume 1678.659623
_symmetry_space_group_name_H-M "P 42/M"
_symmetry_group_IT_number 84
_symmetry_cell_setting 'tetragonal'
loop_
_space_group_symop_operation_xyz
x,y,z
-y,x,1/2+z
-x,-y,z
y,-x,1/2+z
-x,-y,-z
y,-x,1/2-z
x,y,-z
-y,x,1/2-z
loop_
_atom_site_type_symbol
_atom_site_label
_atom_site_fract_x
_atom_site_fract_y
_atom_site_fract_z
Si Si1 0.310778 0.819601 0.276540
Si Si2 0.202380 0.204312 0.564886
Si Si3 0.173651 0.650217 0.179645
Si Si4 0.074229 0.677426 0.636725
Si Si5 0.550304 0.662073 0.063116
O O1 0.288884 0.779486 0.209334
O O2 0.480862 0.762625 0.299468
O O3 0.158963 0.741505 0.306684
O O4 0.316862 0.001117 0.294767
O O5 0.196678 0.137234 0.500000
O O6 0.333205 0.152824 0.611335
O O7 0.239583 0.389744 0.557485
O O8 0.043021 0.205656 0.602647
O O9 0.226527 0.666073 0.595750
O O10 0.000000 0.500000 0.643190
O O11 0.500000 0.500000 0.092751
O O12 0.612730 0.620749 0.000000
#
# Coordination Sequence:
#
# PCOD9544238 Si02
#       5
#     8   8   8   8   8
#     4  11  26  45  71 100 136 178 231 293 352 415
#     4  10  21  39  64  96 138 184 228 277 342 418
#     4  11  26  46  69 102 135 182 230 289 353 415
#     4  10  21  37  64  94 136 172 227 276 345 405
#     4   9  17  31  56  89 129 174 224 278 332 395
#
# _framework density 23.828533
#
# number of rings (size 3 to 8) (size 9 to 14) (size 15 to 20)
#    0.000    1.800    0.000    3.000    8.400    5.600 
#    0.000    6.000    0.000    0.000    0.000    0.000 
#    0.000    0.000    0.000    0.000    0.000    0.000 
#
# Total GULP energy -223160.964857 kJ/mol
# GULP energy per Si atom -5579.024121 kJ/mol
# Density = 2.377430 g / cm^3
# Si number density = 23.828533 Si / 1000 Ang^3
#
#
#
# Elastic Constant Matrix: (Units=GPa)
#
#
# Indices 1 2 3 4 5 6 
#
# 1 70.8865 -7.5665 33.3112 0.0000 0.0000 3.5158
# 2 -7.5665 70.8865 33.3112 0.0000 0.0000 -3.5158
# 3 33.3112 33.3112 178.2361 0.0000 0.0000 0.0000
# 4 0.0000 0.0000 0.0000 385.6068 0.0000 0.0000
# 5 0.0000 0.0000 0.0000 0.0000 385.6068 0.0000
# 6 3.5158 -3.5158 0.0000 0.0000 0.0000 23.5508
#
#
#
# Elastic Compliance Matrix: (Units=1/GPa)
#
#
# Indices 1 2 3 4 5 6 
#
# 1 0.016289 0.003370 -0.003674 0.000000 0.000000 -0.001929
# 2 0.003370 0.016289 -0.003674 0.000000 0.000000 0.001929
# 3 -0.003674 -0.003674 0.006984 0.000000 0.000000 0.000000
# 4 0.000000 0.000000 0.000000 0.002593 0.000000 0.000000
# 5 0.000000 0.000000 0.000000 0.000000 0.002593 0.000000
# 6 -0.001929 0.001929 0.000000 0.000000 0.000000 0.043037
#
#
# Mechanical properties :
#
#
# Convention : Reuss Voigt Hill
#
# Bulk Modulus (GPa) = 31.64098 48.68012 40.16055
# Shear Modulus (GPa) = 47.04661 176.34973 111.69817
#
# Velocity S-wave (km/s) = 4.44822 8.61211 6.85402
# Velocity P-wave (km/s) = 6.29997 10.92543 8.91781
#
# Compressibility (1/GPa) = 0.03160459
#
# Stress axis : x y z
#
# Youngs Moduli (GPa) = 61.39146 61.39146 143.18752
#
# Poissons Ratio (x) = -0.20686 0.52608
# Poissons Ratio (y) = -0.20686 0.52608
# Poissons Ratio (z) = 0.22556 0.22556
#
# Static dielectric constant tensor:
#      x y z
#    x 1.925410 0.000000 0.000000 
#    y 0.000000 1.925410 0.000000 
#    z 0.000000 0.000000 1.988780 
# 
# From -- ./inp_files/4796.got.cif
#   From: 2010.05.17/outbox.cif.g08.bks.cpg/sg84_3_cif.got.tgz:4796.got - 2010.06.03 18:57:40.
