data_PCOD9544563
_publ_section_title
;
Structure prediction by ZEFSAII (Michael W. Deem and Ramdas Pophale) SiO2 
 PCOD9544563
Probable space group: P 4/N
;
_chemical_formula_sum "Si O2"
_cell_formula_units_Z 58
_cell_length_a 17.707506
_cell_length_b 17.707506
_cell_length_c 9.567556
_cell_angle_alpha 90.000000
_cell_angle_beta 90.000000
_cell_angle_gamma 90.000000
_cell_volume 2999.962377
_symmetry_space_group_name_H-M "P 4/N"
_symmetry_group_IT_number 85
_symmetry_cell_setting 'tetragonal'
loop_
_space_group_symop_operation_xyz
x,y,z
1/2-y,x,z
1/2-x,1/2-y,z
y,1/2-x,z
-x,-y,-z
1/2+y,-x,-z
1/2+x,1/2+y,-z
-y,1/2+x,-z
loop_
_atom_site_type_symbol
_atom_site_label
_atom_site_fract_x
_atom_site_fract_y
_atom_site_fract_z
Si Si1 0.866576 0.800578 0.979389
Si Si2 0.942444 0.409627 0.951013
Si Si3 0.167946 0.664353 0.557079
Si Si4 0.214718 0.888856 0.156726
Si Si5 0.507625 0.668028 0.756858
Si Si6 0.911190 0.490287 0.479341
Si Si7 0.250000 0.750000 0.000000
Si Si8 0.594195 0.957358 0.165115
O O1 0.787486 0.845591 0.983132
O O2 0.916193 0.820765 0.843805
O O3 0.920489 0.830400 0.103131
O O4 0.890796 0.451277 0.835402
O O5 0.024308 0.403740 0.879539
O O6 0.920767 0.331941 0.026055
O O7 0.932543 0.467290 0.082350
O O8 0.149119 0.745452 0.487672
O O9 0.156111 0.669461 0.723669
O O10 0.113979 0.597064 0.510450
O O11 0.267313 0.823486 0.092415
O O12 0.256155 0.957669 0.233941
O O13 0.526639 0.636291 0.604969
O O14 0.895484 0.523490 0.326393
O O15 0.000000 0.500000 0.500000
#
# Coordination Sequence:
#
# PCOD9544563 Si02
#       8
#     8   8   8   8   8   8   2   8
#     4  10  23  46  71  94 124 164 221 283 338 395
#     4  10  20  37  62  89 128 163 219 272 320 385
#     4  11  24  43  62  90 138 185 221 266 335 407
#     4  12  22  38  62  92 132 173 220 268 328 398
#     4  11  23  40  64  98 130 176 222 268 341 391
#     4  12  24  42  63  95 138 178 221 269 325 405
#     4  12  24  32  58  96 124 164 212 270 316 384
#     4  10  21  40  63  92 122 169 214 271 326 385
#
# _framework density 19.333577999999999
#
# number of rings (size 3 to 8) (size 9 to 14) (size 15 to 20)
#    0.000    1.103    5.517    1.655    0.000    1.103 
#    2.483    0.000    0.000    1.655    0.000    0.000 
#    0.000    0.000    0.000    0.000    0.000    0.000 
#
# Total GULP energy -323498.228349 kJ/mol
# GULP energy per Si atom -5577.555661 kJ/mol
# Density = 1.928957 g / cm^3
# Si number density = 19.333578 Si / 1000 Ang^3
#
#
#
# Elastic Constant Matrix: (Units=GPa)
#
#
# Indices 1 2 3 4 5 6 
#
# 1 85.5463 60.8204 40.5146 0.0000 0.0000 -3.0515
# 2 60.8204 85.5463 40.5146 0.0000 0.0000 3.0515
# 3 40.5146 40.5146 137.0180 0.0000 0.0000 0.0000
# 4 0.0000 0.0000 0.0000 24.9093 0.0000 0.0000
# 5 0.0000 0.0000 0.0000 0.0000 24.9093 0.0000
# 6 -3.0515 3.0515 0.0000 0.0000 0.0000 31.0360
#
#
#
# Elastic Compliance Matrix: (Units=1/GPa)
#
#
# Indices 1 2 3 4 5 6 
#
# 1 0.024809 -0.016640 -0.002416 0.000000 0.000000 0.004075
# 2 -0.016640 0.024809 -0.002416 0.000000 0.000000 -0.004075
# 3 -0.002416 -0.002416 0.008727 0.000000 0.000000 0.000000
# 4 0.000000 0.000000 0.000000 0.040146 0.000000 0.000000
# 5 0.000000 0.000000 0.000000 0.000000 0.040146 0.000000
# 6 0.004075 -0.004075 0.000000 0.000000 0.000000 0.033022
#
#
# Mechanical properties :
#
#
# Convention : Reuss Voigt Hill
#
# Bulk Modulus (GPa) = 64.92111 65.75662 65.33886
# Shear Modulus (GPa) = 22.75460 27.25498 25.00479
#
# Velocity S-wave (km/s) = 3.43439 3.75870 3.60020
# Velocity P-wave (km/s) = 7.02702 7.27479 7.15198
#
# Compressibility (1/GPa) = 0.01540331
#
# Stress axis : x y z
#
# Youngs Moduli (GPa) = 40.30732 40.30732 114.58895
#
# Poissons Ratio (x) = 0.67071 0.27680
# Poissons Ratio (y) = 0.67071 0.27680
# Poissons Ratio (z) = 0.09737 0.09737
#
# Static dielectric constant tensor:
#      x y z
#    x 1.714670 0.000000 0.000000 
#    y 0.000000 1.714670 0.000000 
#    z 0.000000 0.000000 1.692760 
# 
# From -- ./inp_files/1206.got.cif
#   From: 2010.05.17/outbox.cif.g08.bks.cpg/sg85_cif.got.tgz:1206.got - 2010.06.03 19:01:16.
