data_PCOD9544943
_publ_section_title
;
Structure prediction by ZEFSAII (Michael W. Deem and Ramdas Pophale) SiO2 
 PCOD9544943
Probable space group: P 42/N
;
_chemical_formula_sum "Si O2"
_cell_formula_units_Z 60
_cell_length_a 11.638581
_cell_length_b 11.638581
_cell_length_c 19.754315
_cell_angle_alpha 90.000000
_cell_angle_beta 90.000000
_cell_angle_gamma 90.000000
_cell_volume 2675.851707
_symmetry_space_group_name_H-M "P 42/N"
_symmetry_group_IT_number 86
_space_group.IT_coordinate_system_code '2'
_symmetry_cell_setting 'tetragonal'
loop_
_space_group_symop_operation_xyz
x,y,z
-y,1/2+x,1/2+z
1/2-x,1/2-y,z
1/2+y,-x,1/2+z
-x,-y,-z
y,1/2-x,1/2-z
1/2+x,1/2+y,-z
1/2-y,x,1/2-z
loop_
_atom_site_type_symbol
_atom_site_label
_atom_site_fract_x
_atom_site_fract_y
_atom_site_fract_z
Si Si1 0.250000 0.250000 0.606947
Si Si2 0.105569 0.047975 0.407173
Si Si3 0.500249 0.418885 0.202894
Si Si4 0.250664 0.502907 0.180615
Si Si5 0.151991 0.476646 0.954993
Si Si6 0.638668 0.994757 0.561286
Si Si7 0.165217 0.923252 0.044981
Si Si8 0.617046 0.649292 0.218975
O O1 0.368328 0.275963 0.569891
O O2 0.282758 0.133764 0.648815
O O3 0.062854 0.149337 0.359263
O O4 0.079054 0.079914 0.484350
O O5 0.241431 0.039200 0.406182
O O6 0.036442 0.928826 0.399233
O O7 0.360984 0.423650 0.197523
O O8 0.540961 0.315147 0.251020
O O9 0.554568 0.418802 0.127126
O O10 0.532299 0.545537 0.228753
O O11 0.297608 0.593391 0.123207
O O12 0.228300 0.571476 0.993884
O O13 0.551670 0.891084 0.545125
O O14 0.651620 0.069868 0.493624
O O15 0.600293 0.753837 0.270564
#
# Coordination Sequence:
#
# PCOD9544943 Si02
#       8
#     4   8   8   8   8   8   8   8
#     4  10  19  36  66  90 106 167 216 292 308 400
#     4  10  22  36  56  91 130 168 212 281 331 416
#     4  11  22  40  64  94 129 175 222 273 350 424
#     4  10  23  38  63  94 136 175 219 280 348 421
#     4  10  20  35  59  87 118 161 219 267 341 387
#     4  10  20  37  63  90 127 171 225 280 344 406
#     4   9  20  38  59  90 126 170 222 283 330 417
#     4   9  22  41  64  88 116 163 221 277 326 391
#
# _framework density 22.42277
#
# number of rings (size 3 to 8) (size 9 to 14) (size 15 to 20)
#    0.000    2.267    0.000    2.400    3.733    9.333 
#    0.000    0.667   11.733    0.000    0.000    0.000 
#    0.000    0.000    0.000    0.000    0.000    0.000 
#
# Total GULP energy -334193.294188 kJ/mol
# GULP energy per Si atom -5569.888236 kJ/mol
# Density = 2.237173 g / cm^3
# Si number density = 22.422770 Si / 1000 Ang^3
#
#
#
# Elastic Constant Matrix: (Units=GPa)
#
#
# Indices 1 2 3 4 5 6 
#
# 1 15.4217 19.6219 -1.2469 0.0000 0.0000 -2.3638
# 2 19.6219 15.4217 -1.2469 0.0000 0.0000 2.3638
# 3 -1.2469 -1.2469 77.0365 0.0000 0.0000 0.0000
# 4 0.0000 0.0000 0.0000 7.2664 0.0000 0.0000
# 5 0.0000 0.0000 0.0000 0.0000 7.2664 0.0000
# 6 -2.3638 2.3638 0.0000 0.0000 0.0000 14.8048
#
#
#
# Elastic Compliance Matrix: (Units=1/GPa)
#
#
# Indices 1 2 3 4 5 6 
#
# 1 -0.086622 0.115191 0.000462 0.000000 0.000000 -0.032223
# 2 0.115191 -0.086622 0.000462 0.000000 0.000000 0.032223
# 3 0.000462 0.000462 0.012996 0.000000 0.000000 0.000000
# 4 0.000000 0.000000 0.000000 0.137619 0.000000 0.000000
# 5 0.000000 0.000000 0.000000 0.000000 0.137619 0.000000
# 6 -0.032223 0.032223 0.000000 0.000000 0.000000 0.057256
#
#
# Mechanical properties :
#
#
# Convention : Reuss Voigt Hill
#
# Bulk Modulus (GPa) = 13.89216 15.79291 14.84254
# Shear Modulus (GPa) = -138.91358 11.91766 -63.49796
#
# Velocity S-wave (km/s) = -7.87950 2.30793 -5.32729
# Velocity P-wave (km/s) = 8.75060 3.76305 5.58625
#
# Compressibility (1/GPa) = 0.07198305
#
# Stress axis : x y z
#
# Youngs Moduli (GPa) = -11.54435 -11.54435 76.94782
#
# Poissons Ratio (x) = 1.32981 -0.03558
# Poissons Ratio (y) = 1.32981 -0.03558
# Poissons Ratio (z) = 0.00534 0.00534
#
# Static dielectric constant tensor:
#      x y z
#    x 1.898040 0.000000 0.000000 
#    y 0.000000 1.898040 0.000000 
#    z 0.000000 0.000000 1.962300 
# 
# From -- ./inp_files/4258.got.cif
#   From: 2010.05.17/outbox.cif.g08.bks.cpg/sg86_3_cif.got.tgz:4258.got - 2010.06.03 19:03:11.
