data_PCOD9544295
_publ_section_title
;
Structure prediction by ZEFSAII (Michael W. Deem and Ramdas Pophale) SiO2 
 PCOD9544295
Probable space group: P 42/M
;
_chemical_formula_sum "Si O2"
_cell_formula_units_Z 32
_cell_length_a 8.292247
_cell_length_b 8.292247
_cell_length_c 18.723362
_cell_angle_alpha 90.000000
_cell_angle_beta 90.000000
_cell_angle_gamma 90.000000
_cell_volume 1287.443841
_symmetry_space_group_name_H-M "P 42/M"
_symmetry_group_IT_number 84
_symmetry_cell_setting 'tetragonal'
loop_
_space_group_symop_operation_xyz
x,y,z
-y,x,1/2+z
-x,-y,z
y,-x,1/2+z
-x,-y,-z
y,-x,1/2-z
x,y,-z
-y,x,1/2-z
loop_
_atom_site_type_symbol
_atom_site_label
_atom_site_fract_x
_atom_site_fract_y
_atom_site_fract_z
Si Si1 0.296504 0.360273 0.780558
Si Si2 0.064309 0.665681 0.079289
Si Si3 0.815887 0.073523 0.176670
Si Si4 0.712663 0.797548 0.080319
O O1 0.286565 0.543332 0.755373
O O2 0.140614 0.261342 0.750632
O O3 0.329800 0.346320 0.865437
O O4 0.179584 0.768274 0.127472
O O5 0.000000 0.500000 0.112115
O O6 0.904430 0.773161 0.070448
O O7 0.129970 0.628559 0.000000
O O8 0.702495 0.951376 0.132608
O O9 0.000000 0.000000 0.179596
O O10 0.642668 0.806174 0.000000
#
# Coordination Sequence:
#
# PCOD9544295 Si02
#       4
#     8   8   8   8
#     4  11  26  47  68  98 137 188 233 276 340 415
#     4   9  17  32  59  95 135 177 220 274 338 403
#     4  10  22  38  64  99 133 177 229 285 341 398
#     4  10  22  40  65  98 136 176 226 286 343 401
#
# _framework density 24.855450999999999
#
# number of rings (size 3 to 8) (size 9 to 14) (size 15 to 20)
#    0.000    2.000    0.000    2.250    7.000    4.000 
#    0.000    7.500    0.000    0.000    0.000    0.000 
#    0.000    0.000    0.000    0.000    0.000    0.000 
#
# Total GULP energy -178532.344818 kJ/mol
# GULP energy per Si atom -5579.135776 kJ/mol
# Density = 2.479888 g / cm^3
# Si number density = 24.855451 Si / 1000 Ang^3
#
#
#
# Elastic Constant Matrix: (Units=GPa)
#
#
# Indices 1 2 3 4 5 6 
#
# 1 75.2841 0.9384 28.2125 0.0000 0.0000 -8.3488
# 2 0.9384 75.2841 28.2125 0.0000 0.0000 8.3488
# 3 28.2125 28.2125 190.3842 0.0000 0.0000 0.0000
# 4 0.0000 0.0000 0.0000 15.0080 0.0000 0.0000
# 5 0.0000 0.0000 0.0000 0.0000 15.0080 0.0000
# 6 -8.3488 8.3488 0.0000 0.0000 0.0000 32.1042
#
#
#
# Elastic Compliance Matrix: (Units=1/GPa)
#
#
# Indices 1 2 3 4 5 6 
#
# 1 0.014511 0.000225 -0.002184 0.000000 0.000000 0.003715
# 2 0.000225 0.014511 -0.002184 0.000000 0.000000 -0.003715
# 3 -0.002184 -0.002184 0.005900 0.000000 0.000000 0.000000
# 4 0.000000 0.000000 0.000000 0.066631 0.000000 0.000000
# 5 0.000000 0.000000 0.000000 0.000000 0.066631 0.000000
# 6 0.003715 -0.003715 0.000000 0.000000 0.000000 0.033081
#
#
# Mechanical properties :
#
#
# Convention : Reuss Voigt Hill
#
# Bulk Modulus (GPa) = 37.54181 50.63102 44.08642
# Shear Modulus (GPa) = 22.89104 31.33000 27.11052
#
# Velocity S-wave (km/s) = 3.03804 3.55419 3.30620
# Velocity P-wave (km/s) = 5.23861 6.10388 5.68773
#
# Compressibility (1/GPa) = 0.02663697
#
# Stress axis : x y z
#
# Youngs Moduli (GPa) = 68.91561 68.91561 169.49950
#
# Poissons Ratio (x) = -0.01554 0.37013
# Poissons Ratio (y) = -0.01554 0.37013
# Poissons Ratio (z) = 0.15049 0.15049
#
# Static dielectric constant tensor:
#      x y z
#    x 1.998010 0.000000 0.000000 
#    y 0.000000 1.998010 0.000000 
#    z 0.000000 0.000000 2.053280 
# 
# From -- ./inp_files/4107.got.cif
#   From: 2010.05.17/outbox.cif.g08.bks.cpg/sg84_3_cif.got.tgz:4107.got - 2010.06.03 18:57:40.
