data_PCOD9544981
_publ_section_title
;
Structure prediction by ZEFSAII (Michael W. Deem and Ramdas Pophale) SiO2 
 PCOD9544981
Probable space group: P 42/N
;
_chemical_formula_sum "Si O2"
_cell_formula_units_Z 48
_cell_length_a 9.457397
_cell_length_b 9.457397
_cell_length_c 29.739547
_cell_angle_alpha 90.000000
_cell_angle_beta 90.000000
_cell_angle_gamma 90.000000
_cell_volume 2659.975210
_symmetry_space_group_name_H-M "P 42/N"
_symmetry_group_IT_number 86
_space_group.IT_coordinate_system_code '2'
_symmetry_cell_setting 'tetragonal'
loop_
_space_group_symop_operation_xyz
x,y,z
-y,1/2+x,1/2+z
1/2-x,1/2-y,z
1/2+y,-x,1/2+z
-x,-y,-z
y,1/2-x,1/2-z
1/2+x,1/2+y,-z
1/2-y,x,1/2-z
loop_
_atom_site_type_symbol
_atom_site_label
_atom_site_fract_x
_atom_site_fract_y
_atom_site_fract_z
Si Si1 0.100587 0.820550 0.028280
Si Si2 0.914050 0.252295 0.218314
Si Si3 0.848132 0.613723 0.550259
Si Si4 0.507151 0.391551 0.310389
Si Si5 0.743103 0.079092 0.374368
Si Si6 0.925950 0.598820 0.650406
O O1 0.250000 0.750000 0.020517
O O2 0.030570 0.756543 0.073783
O O3 0.132483 0.985609 0.038566
O O4 0.004577 0.800630 0.984869
O O5 0.750000 0.250000 0.204777
O O6 0.923894 0.196667 0.269434
O O7 0.991440 0.402296 0.210024
O O8 0.009251 0.147564 0.188789
O O9 0.750000 0.750000 0.544346
O O10 0.849530 0.573928 0.602806
O O11 0.626376 0.459559 0.342505
O O12 0.427407 0.266998 0.338270
O O13 0.750000 0.250000 0.377302
O O14 0.589052 0.049718 0.354135
#
# Coordination Sequence:
#
# PCOD9544981 Si02
#       6
#     8   8   8   8   8   8
#     4   9  19  36  57  82 112 153 193 234 289 344
#     4  12  24  36  56  87 114 143 189 237 279 331
#     4  10  20  35  56  86 115 147 194 244 284 342
#     4  11  21  38  61  82 110 150 191 234 282 345
#     4   8  17  36  61  81 108 150 194 230 280 350
#     4  10  20  37  59  83 113 147 188 237 288 334
#
# _framework density 18.045282
#
# number of rings (size 3 to 8) (size 9 to 14) (size 15 to 20)
#    0.000    2.000    1.667    4.000    0.000    1.333 
#    0.000    5.833    0.000    0.000    0.000    0.000 
#    0.000    0.000    0.000    0.000    0.000    0.000 
#
# Total GULP energy -267677.889556 kJ/mol
# GULP energy per Si atom -5576.622699 kJ/mol
# Density = 1.800421 g / cm^3
# Si number density = 18.045282 Si / 1000 Ang^3
#
#
#
# Elastic Constant Matrix: (Units=GPa)
#
#
# Indices 1 2 3 4 5 6 
#
# 1 65.4421 37.6557 41.2372 0.0000 0.0000 3.3794
# 2 37.6557 65.4421 41.2372 0.0000 0.0000 -3.3794
# 3 41.2372 41.2372 118.2172 0.0000 0.0000 0.0000
# 4 0.0000 0.0000 0.0000 27.2830 0.0000 0.0000
# 5 0.0000 0.0000 0.0000 0.0000 27.2830 0.0000
# 6 3.3794 -3.3794 0.0000 0.0000 0.0000 14.6788
#
#
#
# Elastic Compliance Matrix: (Units=1/GPa)
#
#
# Indices 1 2 3 4 5 6 
#
# 1 0.025789 -0.012335 -0.004693 0.000000 0.000000 -0.008777
# 2 -0.012335 0.025789 -0.004693 0.000000 0.000000 0.008777
# 3 -0.004693 -0.004693 0.011733 0.000000 0.000000 0.000000
# 4 0.000000 0.000000 0.000000 0.036653 0.000000 0.000000
# 5 0.000000 0.000000 0.000000 0.000000 0.036653 0.000000
# 6 -0.008777 0.008777 0.000000 0.000000 0.000000 0.072167
#
#
# Mechanical properties :
#
#
# Convention : Reuss Voigt Hill
#
# Bulk Modulus (GPa) = 50.33080 54.37351 52.35215
# Shear Modulus (GPa) = 19.31637 22.44704 20.88170
#
# Velocity S-wave (km/s) = 3.27531 3.53076 3.40543
# Velocity P-wave (km/s) = 6.50042 6.84243 6.67362
#
# Compressibility (1/GPa) = 0.01986855
#
# Stress axis : x y z
#
# Youngs Moduli (GPa) = 38.77664 38.77664 85.22894
#
# Poissons Ratio (x) = 0.47831 0.39998
# Poissons Ratio (y) = 0.47831 0.39998
# Poissons Ratio (z) = 0.18198 0.18198
#
# Static dielectric constant tensor:
#      x y z
#    x 1.615820 0.000000 0.000000 
#    y 0.000000 1.615820 0.000000 
#    z 0.000000 0.000000 1.651470 
# 
# From -- ./inp_files/5142.got.cif
#   From: 2010.05.17/outbox.cif.g08.bks.cpg/sg86_3_cif.got.tgz:5142.got - 2010.06.03 19:03:11.
