data_PCOD9544557
_publ_section_title
;
Structure prediction by ZEFSAII (Michael W. Deem and Ramdas Pophale) SiO2 
 PCOD9544557
Probable space group: P 4/N
;
_chemical_formula_sum "Si O2"
_cell_formula_units_Z 42
_cell_length_a 14.775866
_cell_length_b 14.775866
_cell_length_c 9.214797
_cell_angle_alpha 90.000000
_cell_angle_beta 90.000000
_cell_angle_gamma 90.000000
_cell_volume 2011.831761
_symmetry_space_group_name_H-M "P 4/N"
_symmetry_group_IT_number 85
_symmetry_cell_setting 'tetragonal'
loop_
_space_group_symop_operation_xyz
x,y,z
1/2-y,x,z
1/2-x,1/2-y,z
y,1/2-x,z
-x,-y,-z
1/2+y,-x,-z
1/2+x,1/2+y,-z
-y,1/2+x,-z
loop_
_atom_site_type_symbol
_atom_site_label
_atom_site_fract_x
_atom_site_fract_y
_atom_site_fract_z
Si Si1 0.544408 0.616363 0.573082
Si Si2 0.884529 0.990125 0.326035
Si Si3 0.750000 0.250000 0.500000
Si Si4 0.488548 0.405454 0.915804
Si Si5 0.584147 0.304885 0.675529
Si Si6 0.204096 0.392031 0.144415
O O1 0.619703 0.561275 0.481259
O O2 0.477008 0.548207 0.657742
O O3 0.483095 0.660763 0.449573
O O4 0.580317 0.686288 0.689972
O O5 0.798094 0.051994 0.294333
O O6 0.904871 0.920687 0.195935
O O7 0.682623 0.304730 0.604138
O O8 0.569640 0.369833 0.813357
O O9 0.500000 0.500000 0.000000
O O10 0.467490 0.328938 0.033307
O O11 0.139268 0.305685 0.119536
#
# Coordination Sequence:
#
# PCOD9544557 Si02
#       6
#     8   8   2   8   8   8
#     4  10  20  36  65  89 122 166 212 264 319 383
#     4  10  20  38  60  92 119 168 217 255 320 382
#     4  12  24  40  64 102 132 164 208 282 344 368
#     4  11  23  41  63  88 126 174 215 255 319 397
#     4  11  23  40  64  93 130 162 213 272 321 388
#     4  11  23  39  62  94 127 164 215 274 321 373
#
# _framework density 20.876498000000002
#
# number of rings (size 3 to 8) (size 9 to 14) (size 15 to 20)
#    0.000    1.333    3.810    2.286    0.000    1.524 
#    0.000    0.000    0.000   10.286    0.000    0.000 
#    0.000    0.000    0.000    0.000    0.000    0.000 
#
# Total GULP energy -234568.948112 kJ/mol
# GULP energy per Si atom -5584.974955 kJ/mol
# Density = 2.082898 g / cm^3
# Si number density = 20.876498 Si / 1000 Ang^3
#
#
#
# Elastic Constant Matrix: (Units=GPa)
#
#
# Indices 1 2 3 4 5 6 
#
# 1 38.0979 20.9765 29.9848 0.0000 0.0000 4.4296
# 2 20.9765 38.0979 29.9848 0.0000 0.0000 -4.4296
# 3 29.9848 29.9848 118.2234 0.0000 0.0000 0.0000
# 4 0.0000 0.0000 0.0000 28.8119 0.0000 0.0000
# 5 0.0000 0.0000 0.0000 0.0000 28.8119 0.0000
# 6 4.4296 -4.4296 0.0000 0.0000 0.0000 16.7940
#
#
#
# Elastic Compliance Matrix: (Units=1/GPa)
#
#
# Indices 1 2 3 4 5 6 
#
# 1 0.045218 -0.022420 -0.005782 0.000000 0.000000 -0.017840
# 2 -0.022420 0.045218 -0.005782 0.000000 0.000000 0.017840
# 3 -0.005782 -0.005782 0.011392 0.000000 0.000000 0.000000
# 4 0.000000 0.000000 0.000000 0.034708 0.000000 0.000000
# 5 0.000000 0.000000 0.000000 0.000000 0.034708 0.000000
# 6 -0.017840 0.017840 0.000000 0.000000 0.000000 0.068956
#
#
# Mechanical properties :
#
#
# Convention : Reuss Voigt Hill
#
# Bulk Modulus (GPa) = 29.53494 39.59017 34.56255
# Shear Modulus (GPa) = 15.65177 22.44845 19.05011
#
# Velocity S-wave (km/s) = 2.74109 3.28273 3.02406
# Velocity P-wave (km/s) = 4.91897 5.77699 5.36516
#
# Compressibility (1/GPa) = 0.03385820
#
# Stress axis : x y z
#
# Youngs Moduli (GPa) = 22.11531 22.11531 87.78425
#
# Poissons Ratio (x) = 0.49583 0.50758
# Poissons Ratio (y) = 0.49583 0.50758
# Poissons Ratio (z) = 0.12787 0.12787
#
# Static dielectric constant tensor:
#      x y z
#    x 1.763500 0.000000 0.000000 
#    y 0.000000 1.763500 0.000000 
#    z 0.000000 0.000000 1.806250 
# 
# From -- ./inp_files/965.got.cif
#   From: 2010.05.17/outbox.cif.g08.bks.cpg/sg85_cif.got.tgz:965.got - 2010.06.03 19:01:16.
