data_PCOD9544112
_publ_section_title
;
Structure prediction by ZEFSAII (Michael W. Deem and Ramdas Pophale) SiO2 
 PCOD9544112
Probable space group: P 42/M
;
_chemical_formula_sum "Si O2"
_cell_formula_units_Z 40
_cell_length_a 12.430874
_cell_length_b 12.430874
_cell_length_c 14.100105
_cell_angle_alpha 90.000000
_cell_angle_beta 90.000000
_cell_angle_gamma 90.000000
_cell_volume 2178.841686
_symmetry_space_group_name_H-M "P 42/M"
_symmetry_group_IT_number 84
_symmetry_cell_setting 'tetragonal'
loop_
_space_group_symop_operation_xyz
x,y,z
-y,x,1/2+z
-x,-y,z
y,-x,1/2+z
-x,-y,-z
y,-x,1/2-z
x,y,-z
-y,x,1/2-z
loop_
_atom_site_type_symbol
_atom_site_label
_atom_site_fract_x
_atom_site_fract_y
_atom_site_fract_z
Si Si1 0.330853 0.841501 0.109586
Si Si2 0.128420 0.686922 0.890630
Si Si3 0.087534 0.733220 0.387316
Si Si4 0.029664 0.123115 0.884310
Si Si5 0.875000 0.470063 0.273959
O O1 0.239871 0.751626 0.112401
O O2 0.425138 0.817835 0.184378
O O3 0.276998 0.958540 0.129401
O O4 0.372603 0.848560 0.000000
O O5 0.137030 0.577989 0.830726
O O6 0.041548 0.775165 0.852306
O O7 0.101429 0.663671 0.000000
O O8 0.100556 0.728574 0.500000
O O9 0.134259 0.846862 0.354688
O O10 0.145153 0.633225 0.339485
O O11 0.021150 0.124099 0.000000
O O12 0.000000 0.000000 0.857342
O O13 0.000000 0.500000 0.286176
#
# Coordination Sequence:
#
# PCOD9544112 Si02
#       5
#     8   8   8   8   8
#     4   9  17  33  55  75 100 138 184 229 266 308
#     4  10  20  34  54  78 107 146 183 218 271 328
#     4   9  16  28  48  75 109 145 177 212 258 311
#     4   9  15  28  49  76 112 144 170 206 258 328
#     4  10  21  33  49  76 109 141 183 224 265 318
#
# _framework density 18.358378999999999
#
# number of rings (size 3 to 8) (size 9 to 14) (size 15 to 20)
#    0.000    2.600    2.000    0.600    0.000    6.000 
#    0.000    0.000    0.000    3.000    0.000    2.800 
#    0.000    0.000    0.000    0.000    0.000    0.000 
#
# Total GULP energy -223000.791401 kJ/mol
# GULP energy per Si atom -5575.019785 kJ/mol
# Density = 1.831659 g / cm^3
# Si number density = 18.358379 Si / 1000 Ang^3
#
#
#
# Elastic Constant Matrix: (Units=GPa)
#
#
# Indices 1 2 3 4 5 6 
#
# 1 70.9008 15.8830 31.6219 0.0000 0.0000 -9.2126
# 2 15.8830 70.9008 31.6219 0.0000 0.0000 9.2126
# 3 31.6219 31.6219 75.6564 0.0000 0.0000 0.0000
# 4 0.0000 0.0000 0.0000 14.9900 0.0000 0.0000
# 5 0.0000 0.0000 0.0000 0.0000 14.9900 0.0000
# 6 -9.2126 9.2126 0.0000 0.0000 0.0000 -2.4758
#
#
#
# Elastic Compliance Matrix: (Units=1/GPa)
#
#
# Indices 1 2 3 4 5 6 
#
# 1 0.012331 0.004239 -0.006926 0.000000 0.000000 -0.030111
# 2 0.004239 0.012331 -0.006926 0.000000 0.000000 0.030111
# 3 -0.006926 -0.006926 0.019007 0.000000 0.000000 0.000000
# 4 0.000000 0.000000 0.000000 0.066711 0.000000 0.000000
# 5 0.000000 0.000000 0.000000 0.000000 0.066711 0.000000
# 6 -0.030111 0.030111 0.000000 0.000000 0.000000 -0.179821
#
#
# Mechanical properties :
#
#
# Convention : Reuss Voigt Hill
#
# Bulk Modulus (GPa) = 40.90945 41.74575 41.32760
# Shear Modulus (GPa) = 202.89639 14.72291 108.80965
#
# Velocity S-wave (km/s) = 10.52424 2.83498 7.70704
# Velocity P-wave (km/s) = 13.03886 5.78834 10.08753
#
# Compressibility (1/GPa) = 0.02444423
#
# Stress axis : x y z
#
# Youngs Moduli (GPa) = 81.09642 81.09642 52.61179
#
# Poissons Ratio (x) = -0.34377 0.36438
# Poissons Ratio (y) = -0.34377 0.36438
# Poissons Ratio (z) = 0.56165 0.56165
#
# Static dielectric constant tensor:
#      x y z
#    x 1.624610 0.000000 0.000000 
#    y 0.000000 1.624610 0.000000 
#    z 0.000000 0.000000 1.716130 
# 
# From -- ./inp_files/2892.got.cif
#   From: 2010.05.17/outbox.cif.g08.bks.cpg/sg84_2_cif.got.tgz:2892.got - 2010.06.03 18:57:40.
