data_PCOD9544599
_publ_section_title
;
Structure prediction by ZEFSAII (Michael W. Deem and Ramdas Pophale) SiO2 
 PCOD9544599
Probable space group: P 4/N
;
_chemical_formula_sum "Si O2"
_cell_formula_units_Z 56
_cell_length_a 16.058112
_cell_length_b 16.058112
_cell_length_c 11.371551
_cell_angle_alpha 90.000000
_cell_angle_beta 90.000000
_cell_angle_gamma 90.000000
_cell_volume 2932.301812
_symmetry_space_group_name_H-M "P 4/N"
_symmetry_group_IT_number 85
_symmetry_cell_setting 'tetragonal'
loop_
_space_group_symop_operation_xyz
x,y,z
1/2-y,x,z
1/2-x,1/2-y,z
y,1/2-x,z
-x,-y,-z
1/2+y,-x,-z
1/2+x,1/2+y,-z
-y,1/2+x,-z
loop_
_atom_site_type_symbol
_atom_site_label
_atom_site_fract_x
_atom_site_fract_y
_atom_site_fract_z
Si Si1 0.679213 0.632676 0.323162
Si Si2 0.599089 0.088799 0.800387
Si Si3 0.435671 0.127997 0.928022
Si Si4 0.990984 0.198276 0.008481
Si Si5 0.914133 0.019351 0.442040
Si Si6 0.842586 0.225594 0.825858
Si Si7 0.186240 0.850096 0.432058
O O1 0.777345 0.639293 0.346549
O O2 0.666474 0.608781 0.186949
O O3 0.633940 0.561001 0.394780
O O4 0.517429 0.078805 0.882559
O O5 0.576346 0.063718 0.670078
O O6 0.615773 0.187043 0.792089
O O7 0.675928 0.044910 0.863680
O O8 0.471136 0.208451 0.998604
O O9 0.368896 0.063846 0.981868
O O10 0.910634 0.188993 0.918608
O O11 0.857428 0.065110 0.536653
O O12 0.000000 0.000000 0.500000
O O13 0.750000 0.250000 0.871745
O O14 0.826817 0.175851 0.703661
O O15 0.280420 0.852167 0.479488
#
# Coordination Sequence:
#
# PCOD9544599 Si02
#       7
#     8   8   8   8   8   8   8
#     4  10  21  40  67  96 127 167 224 278 323 390
#     4  10  23  41  56  93 133 161 211 267 324 393
#     4  10  21  38  62  96 124 170 206 267 325 383
#     4  11  24  39  66  91 137 163 218 265 327 400
#     4  11  25  38  67  95 131 169 220 280 335 387
#     4  11  23  39  64  92 122 175 215 261 328 396
#     4  11  21  41  60  87 127 169 212 264 324 401
#
# _framework density 19.097625000000001
#
# number of rings (size 3 to 8) (size 9 to 14) (size 15 to 20)
#    0.000    1.429    4.286    0.429   10.000    0.286 
#    0.000    0.000    0.000    0.000    0.000    0.000 
#    0.000    0.000    0.000    0.000    0.000    0.000 
#
# Total GULP energy -312508.806112 kJ/mol
# GULP energy per Si atom -5580.514395 kJ/mol
# Density = 1.905416 g / cm^3
# Si number density = 19.097625 Si / 1000 Ang^3
#
#
#
# Elastic Constant Matrix: (Units=GPa)
#
#
# Indices 1 2 3 4 5 6 
#
# 1 69.4176 52.7338 50.5118 0.0000 0.0000 8.4898
# 2 52.7338 69.4176 50.5118 0.0000 0.0000 -8.4898
# 3 50.5118 50.5118 102.0374 0.0000 0.0000 0.0000
# 4 0.0000 0.0000 0.0000 20.4732 0.0000 0.0000
# 5 0.0000 0.0000 0.0000 0.0000 20.4732 0.0000
# 6 8.4898 -8.4898 0.0000 0.0000 0.0000 4.0000
#
#
#
# Elastic Compliance Matrix: (Units=1/GPa)
#
#
# Indices 1 2 3 4 5 6 
#
# 1 -0.018903 0.032765 -0.006862 0.000000 0.000000 0.109661
# 2 0.032765 -0.018903 -0.006862 0.000000 0.000000 -0.109661
# 3 -0.006862 -0.006862 0.016594 0.000000 0.000000 0.000000
# 4 0.000000 0.000000 0.000000 0.048844 0.000000 0.000000
# 5 0.000000 0.000000 0.000000 0.000000 0.048844 0.000000
# 6 0.109661 -0.109661 0.000000 0.000000 0.000000 -0.215502
#
#
# Mechanical properties :
#
#
# Convention : Reuss Voigt Hill
#
# Bulk Modulus (GPa) = 59.27836 60.93193 60.10515
# Shear Modulus (GPa) = -29.15745 14.79696 -7.18024
#
# Velocity S-wave (km/s) = -3.91161 2.78655 -1.94111
# Velocity P-wave (km/s) = 3.27201 6.50599 5.14947
#
# Compressibility (1/GPa) = 0.01686956
#
# Stress axis : x y z
#
# Youngs Moduli (GPa) = -52.90195 -52.90195 60.26235
#
# Poissons Ratio (x) = 1.73331 0.41352
# Poissons Ratio (y) = 1.73331 0.41352
# Poissons Ratio (z) = -0.36301 -0.36301
#
# Static dielectric constant tensor:
#      x y z
#    x 1.660050 0.000000 0.000000 
#    y 0.000000 1.660050 0.000000 
#    z 0.000000 0.000000 1.659340 
# 
# From -- ./inp_files/1777.got.cif
#   From: 2010.05.17/outbox.cif.g08.bks.cpg/sg85_cif.got.tgz:1777.got - 2010.06.03 19:01:16.
