data_PCOD9544486
_publ_section_title
;
Structure prediction by ZEFSAII (Michael W. Deem and Ramdas Pophale) SiO2 
 PCOD9544486
Probable space group: P 4/N
;
_chemical_formula_sum "Si O2"
_cell_formula_units_Z 52
_cell_length_a 17.108708
_cell_length_b 17.108708
_cell_length_c 7.316201
_cell_angle_alpha 90.000000
_cell_angle_beta 90.000000
_cell_angle_gamma 90.000000
_cell_volume 2141.509753
_symmetry_space_group_name_H-M "P 4/N"
_symmetry_group_IT_number 85
_symmetry_cell_setting 'tetragonal'
loop_
_space_group_symop_operation_xyz
x,y,z
1/2-y,x,z
1/2-x,1/2-y,z
y,1/2-x,z
-x,-y,-z
1/2+y,-x,-z
1/2+x,1/2+y,-z
-y,1/2+x,-z
loop_
_atom_site_type_symbol
_atom_site_label
_atom_site_fract_x
_atom_site_fract_y
_atom_site_fract_z
Si Si1 0.184197 0.140107 0.919490
Si Si2 0.637375 0.454730 0.483102
Si Si3 0.129358 0.362124 0.495356
Si Si4 0.087578 0.816271 0.948535
Si Si5 0.250000 0.250000 0.328217
Si Si6 0.750000 0.250000 0.000000
Si Si7 0.653065 0.472119 0.059575
Si Si8 0.532031 0.315076 0.450830
O O1 0.275997 0.147581 0.967300
O O2 0.177061 0.132655 0.697890
O O3 0.146234 0.061780 0.999495
O O4 0.621360 0.540239 0.563168
O O5 0.624672 0.466632 0.267084
O O6 0.584455 0.382539 0.539243
O O7 0.728445 0.437670 0.511452
O O8 0.171616 0.304690 0.356678
O O9 0.173907 0.443830 0.513152
O O10 0.174625 0.783659 0.893930
O O11 0.106674 0.900858 0.036151
O O12 0.036658 0.824869 0.767648
O O13 0.048814 0.745748 0.059809
#
# Coordination Sequence:
#
# PCOD9544486 Si02
#       8
#     8   8   8   8   2   2   8   8
#     4  10  17  32  58  83 105 140 194 241 280 345
#     4  10  22  35  56  86 118 154 192 247 296 353
#     4  11  18  35  57  88 110 148 196 244 297 354
#     4   9  19  36  56  82 113 156 194 241 288 348
#     4  12  16  32  68  80 106 152 204 228 290 380
#     4   8  16  36  64  74 104 168 216 222 272 368
#     4   9  19  36  58  79 110 152 198 233 285 347
#     4  11  22  35  55  87 123 147 190 246 304 354
#
# _framework density 24.281932999999999
#
# number of rings (size 3 to 8) (size 9 to 14) (size 15 to 20)
#    0.000    2.000    3.077    1.385    0.000    5.231 
#    0.000    2.308    0.000    0.000    0.000    0.000 
#    0.000    0.000    0.000    0.000    0.000    0.000 
#
# Total GULP energy -290151.883657 kJ/mol
# GULP energy per Si atom -5579.843916 kJ/mol
# Density = 2.422667 g / cm^3
# Si number density = 24.281933 Si / 1000 Ang^3
#
#
#
# Elastic Constant Matrix: (Units=GPa)
#
#
# Indices 1 2 3 4 5 6 
#
# 1 67.5548 46.7878 9.5120 0.0000 0.0000 -28.7621
# 2 46.7878 67.5548 9.5120 0.0000 0.0000 28.7621
# 3 9.5120 9.5120 62.8458 0.0000 0.0000 0.0000
# 4 0.0000 0.0000 0.0000 14.4578 0.0000 0.0000
# 5 0.0000 0.0000 0.0000 0.0000 14.4578 0.0000
# 6 -28.7621 28.7621 0.0000 0.0000 0.0000 45.9650
#
#
#
# Elastic Compliance Matrix: (Units=1/GPa)
#
#
# Indices 1 2 3 4 5 6 
#
# 1 -0.028348 0.037320 -0.001358 0.000000 0.000000 -0.041091
# 2 0.037320 -0.028348 -0.001358 0.000000 0.000000 0.041091
# 3 -0.001358 -0.001358 0.016323 0.000000 0.000000 0.000000
# 4 0.000000 0.000000 0.000000 0.069167 0.000000 0.000000
# 5 0.000000 0.000000 0.000000 0.000000 0.069167 0.000000
# 6 -0.041091 0.041091 0.000000 0.000000 0.000000 -0.029669
#
#
# Mechanical properties :
#
#
# Convention : Reuss Voigt Hill
#
# Bulk Modulus (GPa) = 34.68055 36.61988 35.65022
# Shear Modulus (GPa) = 574.95865 23.78568 299.37217
#
# Velocity S-wave (km/s) = 15.40450 3.13319 11.11565
# Velocity P-wave (km/s) = 18.18548 5.31066 13.39617
#
# Compressibility (1/GPa) = 0.02883460
#
# Stress axis : x y z
#
# Youngs Moduli (GPa) = -35.27582 -35.27582 61.26322
#
# Poissons Ratio (x) = 1.31648 0.08319
# Poissons Ratio (y) = 1.31648 0.08319
# Poissons Ratio (z) = -0.04790 -0.04790
#
# Static dielectric constant tensor:
#      x y z
#    x 1.937380 0.000000 0.000000 
#    y 0.000000 1.937380 0.000000 
#    z 0.000000 0.000000 1.982530 
# 
# From -- ./inp_files/1164.got.cif
#   From: 2010.05.17/outbox.cif.g08.bks.cpg/sg85_cif.got.tgz:1164.got - 2010.06.03 19:01:16.
