data_PCOD9544225
_publ_section_title
;
Structure prediction by ZEFSAII (Michael W. Deem and Ramdas Pophale) SiO2 
 PCOD9544225
Probable space group: P 42/M
;
_chemical_formula_sum "Si O2"
_cell_formula_units_Z 52
_cell_length_a 18.300513
_cell_length_b 18.300513
_cell_length_c 9.133128
_cell_angle_alpha 90.000000
_cell_angle_beta 90.000000
_cell_angle_gamma 90.000000
_cell_volume 3058.764720
_symmetry_space_group_name_H-M "P 42/M"
_symmetry_group_IT_number 84
_symmetry_cell_setting 'tetragonal'
loop_
_space_group_symop_operation_xyz
x,y,z
-y,x,1/2+z
-x,-y,z
y,-x,1/2+z
-x,-y,-z
y,-x,1/2-z
x,y,-z
-y,x,1/2-z
loop_
_atom_site_type_symbol
_atom_site_label
_atom_site_fract_x
_atom_site_fract_y
_atom_site_fract_z
Si Si1 0.868395 0.334419 0.325219
Si Si2 0.988066 0.104156 0.500000
Si Si3 0.086999 0.513380 0.824347
Si Si4 0.004685 0.274439 0.168663
Si Si5 0.768214 0.765318 0.670774
Si Si6 0.905818 0.866030 0.242988
Si Si7 0.869377 0.631772 0.675612
O O1 0.871739 0.339830 0.500000
O O2 0.886684 0.411477 0.248983
O O3 0.793311 0.297712 0.270893
O O4 0.931905 0.281651 0.263163
O O5 0.925474 0.114385 0.625430
O O6 0.051386 0.096217 0.374236
O O7 0.131206 0.447316 0.749155
O O8 0.000000 0.500000 0.796324
O O9 0.096764 0.514685 0.000000
O O10 0.039712 0.194689 0.175115
O O11 0.063080 0.327289 0.246489
O O12 0.991726 0.296240 0.000000
O O13 0.747830 0.770861 0.500000
O O14 0.837236 0.818976 0.698766
O O15 0.799410 0.684085 0.700077
O O16 0.881376 0.627635 0.500000
#
# Coordination Sequence:
#
# PCOD9544225 Si02
#       7
#     8   4   8   8   8   8   8
#     4  12  25  36  60  85 113 145 194 238 287 350
#     4  12  26  45  54  72  92 134 183 252 304 357
#     4  11  22  38  59  89 119 156 188 237 298 358
#     4  11  21  36  54  80 105 143 180 237 291 353
#     4  10  22  41  58  85 111 151 185 238 292 354
#     4  11  25  40  61  73 101 134 190 242 305 353
#     4  10  21  36  60  84 119 147 190 236 290 345
#
# _framework density 17.000326999999999
#
# number of rings (size 3 to 8) (size 9 to 14) (size 15 to 20)
#    0.000    1.077    3.077    3.692    5.385    3.385 
#    0.000    0.000    0.000    0.000    0.000    0.000 
#    0.000    0.615    0.000    6.462    0.000    2.769 
#
# Total GULP energy -289557.215941 kJ/mol
# GULP energy per Si atom -5568.407999 kJ/mol
# Density = 1.696163 g / cm^3
# Si number density = 17.000327 Si / 1000 Ang^3
#
#
#
# Elastic Constant Matrix: (Units=GPa)
#
#
# Indices 1 2 3 4 5 6 
#
# 1 78.0324 34.8237 50.9807 0.0000 0.0000 -2.1233
# 2 34.8237 78.0324 50.9807 0.0000 0.0000 2.1233
# 3 50.9807 50.9807 153.9293 0.0000 0.0000 0.0000
# 4 0.0000 0.0000 0.0000 -588.3941 0.0000 0.0000
# 5 0.0000 0.0000 0.0000 0.0000 -588.3941 0.0000
# 6 -2.1233 2.1233 0.0000 0.0000 0.0000 18.4673
#
#
#
# Elastic Compliance Matrix: (Units=1/GPa)
#
#
# Indices 1 2 3 4 5 6 
#
# 1 0.018026 -0.005382 -0.004188 0.000000 0.000000 0.002691
# 2 -0.005382 0.018026 -0.004188 0.000000 0.000000 -0.002691
# 3 -0.004188 -0.004188 0.009270 0.000000 0.000000 0.000000
# 4 0.000000 0.000000 0.000000 -0.001700 0.000000 0.000000
# 5 0.000000 0.000000 0.000000 0.000000 -0.001700 0.000000
# 6 0.002691 -0.002691 0.000000 0.000000 0.000000 0.054769
#
#
# Mechanical properties :
#
#
# Convention : Reuss Voigt Hill
#
# Bulk Modulus (GPa) = 56.15429 64.84047 60.49738
# Shear Modulus (GPa) = 38.41932 -220.11689 -90.84879
#
# Velocity S-wave (km/s) = 4.75902 -11.39119 -7.31816
# Velocity P-wave (km/s) = 7.95617 11.60985 5.97863
#
# Compressibility (1/GPa) = 0.01780808
#
# Stress axis : x y z
#
# Youngs Moduli (GPa) = 55.47495 55.47495 107.87014
#
# Poissons Ratio (x) = 0.29856 0.45173
# Poissons Ratio (y) = 0.29856 0.45173
# Poissons Ratio (z) = 0.23231 0.23231
#
# Static dielectric constant tensor:
#      x y z
#    x 1.600090 0.000000 0.000000 
#    y 0.000000 1.600090 0.000000 
#    z 0.000000 0.000000 1.567030 
# 
# From -- ./inp_files/1090.got.cif
#   From: 2010.05.17/outbox.cif.g08.bks.cpg/sg84_1_cif.got.tgz:1090.got - 2010.06.03 18:57:40.
