data_PCOD9544024
_publ_section_title
;
Structure prediction by ZEFSAII (Michael W. Deem and Ramdas Pophale) SiO2 
 PCOD9544024
Probable space group: P 42/M
;
_chemical_formula_sum "Si O2"
_cell_formula_units_Z 64
_cell_length_a 21.071343
_cell_length_b 21.071343
_cell_length_c 8.721365
_cell_angle_alpha 90.000000
_cell_angle_beta 90.000000
_cell_angle_gamma 90.000000
_cell_volume 3872.299106
_symmetry_space_group_name_H-M "P 42/M"
_symmetry_group_IT_number 84
_symmetry_cell_setting 'tetragonal'
loop_
_space_group_symop_operation_xyz
x,y,z
-y,x,1/2+z
-x,-y,z
y,-x,1/2+z
-x,-y,-z
y,-x,1/2-z
x,y,-z
-y,x,1/2-z
loop_
_atom_site_type_symbol
_atom_site_label
_atom_site_fract_x
_atom_site_fract_y
_atom_site_fract_z
Si Si1 0.025595 0.087565 0.674665
Si Si2 0.761244 0.325621 0.674861
Si Si3 0.879464 0.740657 0.682952
Si Si4 0.220172 0.350308 0.824864
Si Si5 0.150722 0.777378 0.184252
Si Si6 0.001125 0.782041 0.816865
Si Si7 0.330631 0.577432 0.817118
Si Si8 0.320647 0.438450 0.683232
O O1 0.046048 0.075962 0.500000
O O2 0.026220 0.159378 0.720281
O O3 0.953939 0.064654 0.704762
O O4 0.776523 0.342821 0.500000
O O5 0.704091 0.274428 0.672696
O O6 0.818195 0.286910 0.752034
O O7 0.732629 0.385195 0.764720
O O8 0.888710 0.745205 0.500000
O O9 0.835346 0.680665 0.724803
O O10 0.836971 0.803573 0.732692
O O11 0.946969 0.732128 0.768827
O O12 0.255944 0.410841 0.755606
O O13 0.199627 0.361213 0.000000
O O14 0.075837 0.778058 0.225179
O O15 0.154010 0.777347 0.000000
O O16 0.998722 0.792467 0.000000
O O17 0.333979 0.509034 0.740047
O O18 0.390462 0.622067 0.773068
O O19 0.330758 0.570729 0.000000
O O20 0.315230 0.436623 0.500000
#
# Coordination Sequence:
#
# PCOD9544024 Si02
#       8
#     8   8   8   8   8   8   8   8
#     4  11  21  33  46  60  82 115 153 191 233 288
#     4   9  17  30  50  72  94 122 160 203 242 284
#     4  10  19  32  49  69  94 125 161 203 250 297
#     4   9  17  31  50  71  95 125 162 203 246 289
#     4   9  19  33  48  66  92 124 158 199 247 296
#     4  11  21  32  46  67  93 121 155 197 246 297
#     4  10  20  33  50  73 104 139 170 201 237 276
#     4  10  20  33  50  74 104 137 172 205 236 275
#
# _framework density 16.527650000000001
#
# number of rings (size 3 to 8) (size 9 to 14) (size 15 to 20)
#    0.000    2.125    0.000    4.500    0.000    7.250 
#    0.000    1.250    0.000    0.000    0.000    0.875 
#    0.000    7.000    0.000    0.000    0.000    0.000 
#
# Total GULP energy -356598.731076 kJ/mol
# GULP energy per Si atom -5571.855173 kJ/mol
# Density = 1.649003 g / cm^3
# Si number density = 16.527650 Si / 1000 Ang^3
#
#
#
# Elastic Constant Matrix: (Units=GPa)
#
#
# Indices 1 2 3 4 5 6 
#
# 1 72.9718 30.6947 20.4198 0.0000 0.0000 -32.4614
# 2 30.6947 72.9718 20.4198 0.0000 0.0000 32.4614
# 3 20.4198 20.4198 48.5105 0.0000 0.0000 0.0000
# 4 0.0000 0.0000 0.0000 25.9666 0.0000 0.0000
# 5 0.0000 0.0000 0.0000 0.0000 25.9666 0.0000
# 6 -32.4614 32.4614 0.0000 0.0000 0.0000 141.1883
#
#
#
# Elastic Compliance Matrix: (Units=1/GPa)
#
#
# Indices 1 2 3 4 5 6 
#
# 1 0.024063 -0.012499 -0.004868 0.000000 0.000000 0.008406
# 2 -0.012499 0.024063 -0.004868 0.000000 0.000000 -0.008406
# 3 -0.004868 -0.004868 0.024712 0.000000 0.000000 0.000000
# 4 0.000000 0.000000 0.000000 0.038511 0.000000 0.000000
# 5 0.000000 0.000000 0.000000 0.000000 0.038511 0.000000
# 6 0.008406 -0.008406 0.000000 0.000000 0.000000 0.010948
#
#
# Mechanical properties :
#
#
# Convention : Reuss Voigt Hill
#
# Bulk Modulus (GPa) = 35.24943 37.50250 36.37596
# Shear Modulus (GPa) = 23.28455 46.81896 35.05175
#
# Velocity S-wave (km/s) = 3.75750 5.32815 4.61020
# Velocity P-wave (km/s) = 6.34026 7.78410 7.09899
#
# Compressibility (1/GPa) = 0.02836925
#
# Stress axis : x y z
#
# Youngs Moduli (GPa) = 41.55707 41.55707 40.46612
#
# Poissons Ratio (x) = 0.51944 0.19698
# Poissons Ratio (y) = 0.51944 0.19698
# Poissons Ratio (z) = 0.20229 0.20229
#
# Static dielectric constant tensor:
#      x y z
#    x 1.584620 0.000000 0.000000 
#    y 0.000000 1.584620 0.000000 
#    z 0.000000 0.000000 1.570230 
# 
# From -- ./inp_files/1368.got.cif
#   From: 2010.05.17/outbox.cif.g08.bks.cpg/sg84_1_cif.got.tgz:1368.got - 2010.06.03 18:57:40.
