data_PCOD9544967
_publ_section_title
;
Structure prediction by ZEFSAII (Michael W. Deem and Ramdas Pophale) SiO2 
 PCOD9544967
Probable space group: P 42/N
;
_chemical_formula_sum "Si O2"
_cell_formula_units_Z 56
_cell_length_a 11.105396
_cell_length_b 11.105396
_cell_length_c 24.363989
_cell_angle_alpha 90.000000
_cell_angle_beta 90.000000
_cell_angle_gamma 90.000000
_cell_volume 3004.806386
_symmetry_space_group_name_H-M "P 42/N"
_symmetry_group_IT_number 86
_space_group.IT_coordinate_system_code '2'
_symmetry_cell_setting 'tetragonal'
loop_
_space_group_symop_operation_xyz
x,y,z
-y,1/2+x,1/2+z
1/2-x,1/2-y,z
1/2+y,-x,1/2+z
-x,-y,-z
y,1/2-x,1/2-z
1/2+x,1/2+y,-z
1/2-y,x,1/2-z
loop_
_atom_site_type_symbol
_atom_site_label
_atom_site_fract_x
_atom_site_fract_y
_atom_site_fract_z
Si Si1 0.150476 0.561882 0.961660
Si Si2 0.289078 0.623660 0.852584
Si Si3 0.269947 0.051005 0.755806
Si Si4 0.382888 0.696127 0.151608
Si Si5 0.166105 0.005353 0.551577
Si Si6 0.025943 0.035280 0.095126
Si Si7 0.616504 0.860683 0.490683
O O1 0.216646 0.616998 0.909647
O O2 0.046404 0.471364 0.941098
O O3 0.245126 0.470848 0.990114
O O4 0.094599 0.658908 0.003255
O O5 0.250000 0.750000 0.826358
O O6 0.249993 0.515248 0.813327
O O7 0.429524 0.604606 0.867205
O O8 0.148835 0.124205 0.741359
O O9 0.296696 0.955806 0.708138
O O10 0.250000 0.750000 0.157387
O O11 0.450474 0.777192 0.105976
O O12 0.392863 0.559179 0.128808
O O13 0.248762 0.118267 0.532508
O O14 0.949009 0.954689 0.051684
O O15 0.098096 0.120450 0.053887
#
# Coordination Sequence:
#
# PCOD9544967 Si02
#       7
#     8   8   8   8   8   8   8
#     4  10  20  33  51  80 114 151 194 235 296 353
#     4  11  21  36  57  82 116 152 196 248 302 363
#     4  11  23  40  60  84 115 151 200 254 310 361
#     4  11  21  36  57  82 116 152 196 248 302 363
#     4  10  20  33  51  80 114 151 194 235 296 353
#     4   9  18  32  50  80 110 144 195 230 293 351
#     4   9  17  30  50  74 109 151 186 236 281 349
#
# _framework density 18.636807000000001
#
# number of rings (size 3 to 8) (size 9 to 14) (size 15 to 20)
#    0.000    1.857    1.429    3.429    0.000    2.857 
#    0.000    0.000    0.000    0.000    0.000    0.000 
#    0.000    0.000    0.000    0.000    0.000    0.000 
#
# Total GULP energy -312226.817065 kJ/mol
# GULP energy per Si atom -5575.478876 kJ/mol
# Density = 1.859439 g / cm^3
# Si number density = 18.636807 Si / 1000 Ang^3
#
#
#
# Elastic Constant Matrix: (Units=GPa)
#
#
# Indices 1 2 3 4 5 6 
#
# 1 62.0547 3.5833 10.4238 0.0000 0.0000 -5.9251
# 2 3.5833 62.0547 10.4238 0.0000 0.0000 5.9251
# 3 10.4238 10.4238 56.0618 0.0000 0.0000 0.0000
# 4 0.0000 0.0000 0.0000 20.1671 0.0000 0.0000
# 5 0.0000 0.0000 0.0000 0.0000 20.1671 0.0000
# 6 -5.9251 5.9251 0.0000 0.0000 0.0000 25.3383
#
#
#
# Elastic Compliance Matrix: (Units=1/GPa)
#
#
# Indices 1 2 3 4 5 6 
#
# 1 0.017072 -0.000881 -0.003011 0.000000 0.000000 0.004198
# 2 -0.000881 0.017072 -0.003011 0.000000 0.000000 -0.004198
# 3 -0.003011 -0.003011 0.018957 0.000000 0.000000 0.000000
# 4 0.000000 0.000000 0.000000 0.049586 0.000000 0.000000
# 5 0.000000 0.000000 0.000000 0.000000 0.049586 0.000000
# 6 0.004198 -0.004198 0.000000 0.000000 0.000000 0.041429
#
#
# Mechanical properties :
#
#
# Convention : Reuss Voigt Hill
#
# Bulk Modulus (GPa) = 25.44692 25.44809 25.44751
# Shear Modulus (GPa) = 22.66489 23.51717 23.09103
#
# Velocity S-wave (km/s) = 3.49110 3.55613 3.52376
# Velocity P-wave (km/s) = 5.47121 5.52683 5.49909
#
# Compressibility (1/GPa) = 0.03929748
#
# Stress axis : x y z
#
# Youngs Moduli (GPa) = 58.57463 58.57463 52.75099
#
# Poissons Ratio (x) = 0.05160 0.15881
# Poissons Ratio (y) = 0.05160 0.15881
# Poissons Ratio (z) = 0.17634 0.17634
#
# Static dielectric constant tensor:
#      x y z
#    x 1.676800 0.000000 0.000000 
#    y 0.000000 1.676800 0.000000 
#    z 0.000000 0.000000 1.618600 
# 
# From -- ./inp_files/4178.got.cif
#   From: 2010.05.17/outbox.cif.g08.bks.cpg/sg86_3_cif.got.tgz:4178.got - 2010.06.03 19:03:11.
