data_PCOD9544721
_publ_section_title
;
Structure prediction by ZEFSAII (Michael W. Deem and Ramdas Pophale) SiO2 
 PCOD9544721
Probable space group: P 4/N
;
_chemical_formula_sum "Si O2"
_cell_formula_units_Z 40
_cell_length_a 10.018856
_cell_length_b 10.018856
_cell_length_c 23.844480
_cell_angle_alpha 90.000000
_cell_angle_beta 90.000000
_cell_angle_gamma 90.000000
_cell_volume 2393.448708
_symmetry_space_group_name_H-M "P 4/N"
_symmetry_group_IT_number 85
_symmetry_cell_setting 'tetragonal'
loop_
_space_group_symop_operation_xyz
x,y,z
1/2-y,x,z
1/2-x,1/2-y,z
y,1/2-x,z
-x,-y,-z
1/2+y,-x,-z
1/2+x,1/2+y,-z
-y,1/2+x,-z
loop_
_atom_site_type_symbol
_atom_site_label
_atom_site_fract_x
_atom_site_fract_y
_atom_site_fract_z
Si Si1 0.600968 0.107701 0.023326
Si Si2 0.381568 0.071616 0.668804
Si Si3 0.453372 0.158100 0.132079
Si Si4 0.866134 0.940784 0.736440
Si Si5 0.100126 0.411282 0.535369
O O1 0.569661 0.120357 0.089302
O O2 0.572882 0.248296 0.992664
O O3 0.500000 0.000000 0.000000
O O4 0.430377 0.222904 0.681809
O O5 0.407504 0.060628 0.602006
O O6 0.456888 0.954005 0.701007
O O7 0.419640 0.314104 0.121489
O O8 0.478652 0.130304 0.197546
O O9 0.707428 0.926612 0.725531
O O10 0.068359 0.256501 0.522746
O O11 0.000000 0.500000 0.500000
#
# Coordination Sequence:
#
# PCOD9544721 Si02
#       5
#     8   8   8   8   8
#     4  11  22  36  56  81 108 141 178 217 268 325
#     4   9  19  37  55  75 110 148 180 218 270 321
#     4   9  17  35  58  76 104 142 175 216 270 320
#     4   9  19  35  56  81 105 137 181 223 266 321
#     4   9  19  35  54  77 108 146 182 222 269 317
#
# _framework density 16.712285000000001
#
# number of rings (size 3 to 8) (size 9 to 14) (size 15 to 20)
#    0.000    2.600    2.000    2.400    0.000    3.200 
#    3.600    6.000    0.000    0.000    0.000    0.000 
#    0.000    0.000    0.000    0.000    0.000    0.000 
#
# Total GULP energy -222817.283474 kJ/mol
# GULP energy per Si atom -5570.432087 kJ/mol
# Density = 1.667425 g / cm^3
# Si number density = 16.712285 Si / 1000 Ang^3
#
#
#
# Elastic Constant Matrix: (Units=GPa)
#
#
# Indices 1 2 3 4 5 6 
#
# 1 90.3168 81.4118 60.5202 0.0000 0.0000 -3.1353
# 2 81.4118 90.3168 60.5202 0.0000 0.0000 3.1353
# 3 60.5202 60.5202 67.6086 0.0000 0.0000 0.0000
# 4 0.0000 0.0000 0.0000 35.8285 0.0000 0.0000
# 5 0.0000 0.0000 0.0000 0.0000 35.8285 0.0000
# 6 -3.1353 3.1353 0.0000 0.0000 0.0000 37.1445
#
#
#
# Elastic Compliance Matrix: (Units=1/GPa)
#
#
# Indices 1 2 3 4 5 6 
#
# 1 0.067586 -0.051808 -0.014124 0.000000 0.000000 0.010078
# 2 -0.051808 0.067586 -0.014124 0.000000 0.000000 -0.010078
# 3 -0.014124 -0.014124 0.040077 0.000000 0.000000 0.000000
# 4 0.000000 0.000000 0.000000 0.027911 0.000000 0.000000
# 5 0.000000 0.000000 0.000000 0.000000 0.027911 0.000000
# 6 0.010078 -0.010078 0.000000 0.000000 0.000000 0.028623
#
#
# Mechanical properties :
#
#
# Convention : Reuss Voigt Hill
#
# Bulk Modulus (GPa) = 66.05937 72.57182 69.31559
# Shear Modulus (GPa) = 11.76886 24.81297 18.29091
#
# Velocity S-wave (km/s) = 2.65656 3.85738 3.31185
# Velocity P-wave (km/s) = 7.00164 7.95975 7.49602
#
# Compressibility (1/GPa) = 0.01513790
#
# Stress axis : x y z
#
# Youngs Moduli (GPa) = 14.79603 14.79603 24.95186
#
# Poissons Ratio (x) = 0.76655 0.35242
# Poissons Ratio (y) = 0.76655 0.35242
# Poissons Ratio (z) = 0.20898 0.20898
#
# Static dielectric constant tensor:
#      x y z
#    x 1.551150 0.000000 0.000000 
#    y 0.000000 1.551150 0.000000 
#    z 0.000000 0.000000 1.563700 
# 
# From -- ./inp_files/2304.got.cif
#   From: 2010.05.17/outbox.cif.g08.bks.cpg/sg85_cif.got.tgz:2304.got - 2010.06.03 19:01:16.
