data_PCOD9544015
_publ_section_title
;
Structure prediction by ZEFSAII (Michael W. Deem and Ramdas Pophale) SiO2 
 PCOD9544015
Probable space group: P 42/M
;
_chemical_formula_sum "Si O2"
_cell_formula_units_Z 40
_cell_length_a 14.270706
_cell_length_b 14.270706
_cell_length_c 8.368091
_cell_angle_alpha 90.000000
_cell_angle_beta 90.000000
_cell_angle_gamma 90.000000
_cell_volume 1704.187253
_symmetry_space_group_name_H-M "P 42/M"
_symmetry_group_IT_number 84
_symmetry_cell_setting 'tetragonal'
loop_
_space_group_symop_operation_xyz
x,y,z
-y,x,1/2+z
-x,-y,z
y,-x,1/2+z
-x,-y,-z
y,-x,1/2-z
x,y,-z
-y,x,1/2-z
loop_
_atom_site_type_symbol
_atom_site_label
_atom_site_fract_x
_atom_site_fract_y
_atom_site_fract_z
Si Si1 0.002035 0.612019 0.188465
Si Si2 0.627824 0.206741 0.688556
Si Si3 0.091945 0.095414 0.673391
Si Si4 0.640477 0.504098 0.318013
Si Si5 0.292068 0.189309 0.684992
O O1 0.899801 0.645359 0.250205
O O2 0.000000 0.500000 0.199802
O O3 0.101336 0.649446 0.253871
O O4 0.005599 0.638988 0.000000
O O5 0.609753 0.199236 0.500000
O O6 0.538777 0.256820 0.769286
O O7 0.715232 0.276155 0.718971
O O8 0.048228 0.111218 0.500000
O O9 0.186529 0.150701 0.681891
O O10 0.882768 0.013659 0.696912
O O11 0.593447 0.428699 0.201600
O O12 0.637874 0.470538 0.500000
O O13 0.321410 0.209246 0.500000
#
# Coordination Sequence:
#
# PCOD9544015 Si02
#       5
#     8   8   8   8   8
#     4   9  20  39  62  88 121 167 219 263 319 393
#     4  11  23  39  64  97 129 169 218 269 331 395
#     4  10  19  31  50  77 108 145 192 246 310 373
#     4  11  23  42  67  97 132 168 214 268 326 388
#     4  10  21  37  58  84 116 161 211 260 314 379
#
# _framework density 23.471601
#
# number of rings (size 3 to 8) (size 9 to 14) (size 15 to 20)
#    0.000    1.800    0.000    5.400    2.800    3.200 
#    0.000    2.000    0.000    3.000    0.000    0.000 
#    0.000    0.000    0.000    0.000    0.000    0.000 
#
# Total GULP energy -223416.360613 kJ/mol
# GULP energy per Si atom -5585.409015 kJ/mol
# Density = 2.341818 g / cm^3
# Si number density = 23.471601 Si / 1000 Ang^3
#
#
#
# Elastic Constant Matrix: (Units=GPa)
#
#
# Indices 1 2 3 4 5 6 
#
# 1 47.6937 47.8669 -0.4803 0.0000 0.0000 11.2763
# 2 47.8669 47.6937 -0.4803 0.0000 0.0000 -11.2763
# 3 -0.4803 -0.4803 46.2964 0.0000 0.0000 0.0000
# 4 0.0000 0.0000 0.0000 21.6994 0.0000 0.0000
# 5 0.0000 0.0000 0.0000 0.0000 21.6994 0.0000
# 6 11.2763 -11.2763 0.0000 0.0000 0.0000 44.7055
#
#
#
# Elastic Compliance Matrix: (Units=1/GPa)
#
#
# Indices 1 2 3 4 5 6 
#
# 1 -0.080068 0.090533 0.000109 0.000000 0.000000 0.043031
# 2 0.090533 -0.080068 0.000109 0.000000 0.000000 -0.043031
# 3 0.000109 0.000109 0.021602 0.000000 0.000000 0.000000
# 4 0.000000 0.000000 0.000000 0.046084 0.000000 0.000000
# 5 0.000000 0.000000 0.000000 0.000000 0.046084 0.000000
# 6 0.043031 -0.043031 0.000000 0.000000 0.000000 0.000661
#
#
# Mechanical properties :
#
#
# Convention : Reuss Voigt Hill
#
# Bulk Modulus (GPa) = 23.27324 26.16627 24.71975
# Shear Modulus (GPa) = -23.48719 23.93939 0.22610
#
# Velocity S-wave (km/s) = -3.16676 3.19710 0.31071
# Velocity P-wave (km/s) = 1.85314 4.98004 3.26854
#
# Compressibility (1/GPa) = 0.04296781
#
# Stress axis : x y z
#
# Youngs Moduli (GPa) = -12.48946 -12.48946 46.29155
#
# Poissons Ratio (x) = 1.13071 -0.00503
# Poissons Ratio (y) = 1.13071 -0.00503
# Poissons Ratio (z) = 0.00136 0.00136
#
# Static dielectric constant tensor:
#      x y z
#    x 1.930670 0.000000 0.000000 
#    y 0.000000 1.930670 0.000000 
#    z 0.000000 0.000000 1.848400 
# 
# From -- ./inp_files/769.got.cif
#   From: 2010.05.17/outbox.cif.g08.bks.cpg/sg84_1_cif.got.tgz:769.got - 2010.06.03 18:57:40.
