data_PCOD9544646
_publ_section_title
;
Structure prediction by ZEFSAII (Michael W. Deem and Ramdas Pophale) SiO2 
 PCOD9544646
Probable space group: P 4/N
;
_chemical_formula_sum "Si O2"
_cell_formula_units_Z 44
_cell_length_a 18.620612
_cell_length_b 18.620612
_cell_length_c 5.218793
_cell_angle_alpha 90.000000
_cell_angle_beta 90.000000
_cell_angle_gamma 90.000000
_cell_volume 1809.497439
_symmetry_space_group_name_H-M "P 4/N"
_symmetry_group_IT_number 85
_symmetry_cell_setting 'tetragonal'
loop_
_space_group_symop_operation_xyz
x,y,z
1/2-y,x,z
1/2-x,1/2-y,z
y,1/2-x,z
-x,-y,-z
1/2+y,-x,-z
1/2+x,1/2+y,-z
-y,1/2+x,-z
loop_
_atom_site_type_symbol
_atom_site_label
_atom_site_fract_x
_atom_site_fract_y
_atom_site_fract_z
Si Si1 0.723794 0.589770 0.388927
Si Si2 0.750000 0.250000 0.000000
Si Si3 0.821421 0.111939 0.235907
Si Si4 0.750000 0.750000 0.556188
Si Si5 0.102731 0.511328 0.289250
Si Si6 0.536041 0.228725 0.276894
Si Si7 0.616964 0.928628 0.204542
O O1 0.746891 0.662031 0.532999
O O2 0.693761 0.533873 0.596162
O O3 0.656773 0.605037 0.204584
O O4 0.795730 0.563800 0.240534
O O5 0.800197 0.193135 0.153883
O O6 0.781126 0.094946 0.499497
O O7 0.903850 0.088962 0.282777
O O8 0.797215 0.064200 0.994062
O O9 0.189112 0.513468 0.266436
O O10 0.084839 0.469955 0.549231
O O11 0.082527 0.466257 0.040292
#
# Coordination Sequence:
#
# PCOD9544646 Si02
#       7
#     8   2   8   2   8   8   8
#     4   9  20  40  68  97 133 166 221 269 335 388
#     4  12  28  42  72  98 132 166 244 282 316 398
#     4  12  26  42  65  97 128 170 224 276 330 393
#     4   8  16  40  72 106 124 170 228 278 312 402
#     4  11  23  41  63  91 132 168 219 266 333 392
#     4  11  24  41  65  94 135 173 209 278 343 385
#     4  10  22  40  66  95 126 173 212 274 321 398
#
# _framework density 24.316144999999999
#
# number of rings (size 3 to 8) (size 9 to 14) (size 15 to 20)
#    0.000    1.455    1.818    3.273    2.545    5.091 
#    0.000    5.455    0.000   19.636    0.000    0.000 
#    0.000    0.000    0.000    0.000    0.000    0.000 
#
# Total GULP energy -245536.159223 kJ/mol
# GULP energy per Si atom -5580.367255 kJ/mol
# Density = 2.426080 g / cm^3
# Si number density = 24.316145 Si / 1000 Ang^3
#
#
#
# Elastic Constant Matrix: (Units=GPa)
#
#
# Indices 1 2 3 4 5 6 
#
# 1 37.8009 37.3012 15.9832 0.0000 0.0000 -7.6044
# 2 37.3012 37.8009 15.9832 0.0000 0.0000 7.6044
# 3 15.9832 15.9832 115.4638 0.0000 0.0000 0.0000
# 4 0.0000 0.0000 0.0000 2.6468 0.0000 0.0000
# 5 0.0000 0.0000 0.0000 0.0000 2.6468 0.0000
# 6 -7.6044 7.6044 0.0000 0.0000 0.0000 33.8388
#
#
#
# Elastic Compliance Matrix: (Units=1/GPa)
#
#
# Indices 1 2 3 4 5 6 
#
# 1 -0.164270 0.178419 -0.001959 0.000000 0.000000 -0.077010
# 2 0.178419 -0.164270 -0.001959 0.000000 0.000000 0.077010
# 3 -0.001959 -0.001959 0.009203 0.000000 0.000000 0.000000
# 4 0.000000 0.000000 0.000000 0.377819 0.000000 0.000000
# 5 0.000000 0.000000 0.000000 0.000000 0.377819 0.000000
# 6 -0.077010 0.077010 0.000000 0.000000 0.000000 -0.005060
#
#
# Mechanical properties :
#
#
# Convention : Reuss Voigt Hill
#
# Bulk Modulus (GPa) = 33.70820 36.62233 35.16527
# Shear Modulus (GPa) = 54.27418 15.94633 35.11025
#
# Velocity S-wave (km/s) = 4.72955 2.56362 3.80400
# Velocity P-wave (km/s) = 6.61192 4.88431 5.81266
#
# Compressibility (1/GPa) = 0.02966637
#
# Stress axis : x y z
#
# Youngs Moduli (GPa) = -6.08753 -6.08753 108.66069
#
# Poissons Ratio (x) = 1.08613 0.21282
# Poissons Ratio (y) = 1.08613 0.21282
# Poissons Ratio (z) = -0.01192 -0.01192
#
# Static dielectric constant tensor:
#      x y z
#    x 1.993650 0.000000 0.000000 
#    y 0.000000 1.993650 0.000000 
#    z 0.000000 0.000000 1.935480 
# 
# From -- ./inp_files/440.got.cif
#   From: 2010.05.17/outbox.cif.g08.bks.cpg/sg85_cif.got.tgz:440.got - 2010.06.03 19:01:16.
