data_PCOD9544069
_publ_section_title
;
Structure prediction by ZEFSAII (Michael W. Deem and Ramdas Pophale) SiO2 
 PCOD9544069
Probable space group: P 42/M
;
_chemical_formula_sum "Si O2"
_cell_formula_units_Z 44
_cell_length_a 8.866943
_cell_length_b 8.866943
_cell_length_c 31.624605
_cell_angle_alpha 90.000000
_cell_angle_beta 90.000000
_cell_angle_gamma 90.000000
_cell_volume 2486.411141
_symmetry_space_group_name_H-M "P 42/M"
_symmetry_group_IT_number 84
_symmetry_cell_setting 'tetragonal'
loop_
_space_group_symop_operation_xyz
x,y,z
-y,x,1/2+z
-x,-y,z
y,-x,1/2+z
-x,-y,-z
y,-x,1/2-z
x,y,-z
-y,x,1/2-z
loop_
_atom_site_type_symbol
_atom_site_label
_atom_site_fract_x
_atom_site_fract_y
_atom_site_fract_z
Si Si1 0.465981 0.744456 0.758259
Si Si2 0.357079 0.407343 0.913886
Si Si3 0.536587 0.170552 0.855808
Si Si4 0.317334 0.158289 0.622713
Si Si5 0.325239 0.945051 0.453581
Si Si6 0.500000 0.000000 0.693640
O O1 0.618767 0.662943 0.743338
O O2 0.484662 0.802296 0.805850
O O3 0.434510 0.873480 0.724506
O O4 0.500000 0.500000 0.933331
O O5 0.432747 0.289342 0.881510
O O6 0.253022 0.532451 0.890727
O O7 0.233955 0.327132 0.943768
O O8 0.711226 0.200789 0.866567
O O9 0.500000 0.000000 0.867126
O O10 0.370404 0.063489 0.663019
O O11 0.265759 0.046142 0.585259
O O12 0.258260 0.974620 0.500000
O O13 0.500000 0.000000 0.455520
#
# Coordination Sequence:
#
# PCOD9544069 Si02
#       6
#     8   8   8   8   8   4
#     4  11  23  33  54  80 108 144 184 228 268 331
#     4   9  18  32  56  80 109 143 181 226 281 337
#     4  11  22  37  52  80 112 147 188 227 282 328
#     4  10  19  35  58  81 108 148 180 228 282 335
#     4   9  17  32  57  88 111 136 182 238 286 332
#     4  12  18  34  55  80 110 142 187 226 268 326
#
# _framework density 17.696189
#
# number of rings (size 3 to 8) (size 9 to 14) (size 15 to 20)
#    0.000    1.818    5.455    1.091    5.091    0.364 
#    0.000    3.636    0.000    6.000    0.000    0.000 
#    0.000    0.000    0.000    0.000    0.000    0.000 
#
# Total GULP energy -245205.326706 kJ/mol
# GULP energy per Si atom -5572.848334 kJ/mol
# Density = 1.765591 g / cm^3
# Si number density = 17.696189 Si / 1000 Ang^3
#
#
#
# Elastic Constant Matrix: (Units=GPa)
#
#
# Indices 1 2 3 4 5 6 
#
# 1 86.3072 32.6832 36.4295 0.0000 0.0000 -2.5493
# 2 32.6832 86.3072 36.4295 0.0000 0.0000 2.5493
# 3 36.4295 36.4295 98.0456 0.0000 0.0000 0.0000
# 4 0.0000 0.0000 0.0000 114.4721 0.0000 0.0000
# 5 0.0000 0.0000 0.0000 0.0000 114.4721 0.0000
# 6 -2.5493 2.5493 0.0000 0.0000 0.0000 18.1374
#
#
#
# Elastic Compliance Matrix: (Units=1/GPa)
#
#
# Indices 1 2 3 4 5 6 
#
# 1 0.014890 -0.004011 -0.004042 0.000000 0.000000 0.002657
# 2 -0.004011 0.014890 -0.004042 0.000000 0.000000 -0.002657
# 3 -0.004042 -0.004042 0.013203 0.000000 0.000000 0.000000
# 4 0.000000 0.000000 0.000000 0.008736 0.000000 0.000000
# 5 0.000000 0.000000 0.000000 0.000000 0.008736 0.000000
# 6 0.002657 -0.002657 0.000000 0.000000 0.000000 0.055881
#
#
# Mechanical properties :
#
#
# Convention : Reuss Voigt Hill
#
# Bulk Modulus (GPa) = 53.21254 53.52715 53.36985
# Shear Modulus (GPa) = 34.06204 60.42419 47.24312
#
# Velocity S-wave (km/s) = 4.39204 5.84974 5.17250
# Velocity P-wave (km/s) = 7.47364 8.71432 8.11772
#
# Compressibility (1/GPa) = 0.01879256
#
# Stress axis : x y z
#
# Youngs Moduli (GPa) = 67.15900 67.15900 75.73941
#
# Poissons Ratio (x) = 0.26937 0.30616
# Poissons Ratio (y) = 0.26937 0.30616
# Poissons Ratio (z) = 0.27147 0.27147
#
# Static dielectric constant tensor:
#      x y z
#    x 1.635740 0.000000 0.000000 
#    y 0.000000 1.635740 0.000000 
#    z 0.000000 0.000000 1.629320 
# 
# From -- ./inp_files/5675.got.cif
#   From: 2010.05.17/outbox.cif.g08.bks.cpg/sg84_3_cif.got.tgz:5675.got - 2010.06.03 18:57:40.
