data_PCOD9544042
_publ_section_title
;
Structure prediction by ZEFSAII (Michael W. Deem and Ramdas Pophale) SiO2 
 PCOD9544042
Probable space group: P 42/M
;
_chemical_formula_sum "Si O2"
_cell_formula_units_Z 48
_cell_length_a 8.644402
_cell_length_b 8.644402
_cell_length_c 27.903024
_cell_angle_alpha 90.000000
_cell_angle_beta 90.000000
_cell_angle_gamma 90.000000
_cell_volume 2085.072608
_symmetry_space_group_name_H-M "P 42/M"
_symmetry_group_IT_number 84
_symmetry_cell_setting 'tetragonal'
loop_
_space_group_symop_operation_xyz
x,y,z
-y,x,1/2+z
-x,-y,z
y,-x,1/2+z
-x,-y,-z
y,-x,1/2-z
x,y,-z
-y,x,1/2-z
loop_
_atom_site_type_symbol
_atom_site_label
_atom_site_fract_x
_atom_site_fract_y
_atom_site_fract_z
Si Si1 0.127920 0.633696 0.827460
Si Si2 0.719545 0.295061 0.553957
Si Si3 0.730766 0.409246 0.735028
Si Si4 0.094661 0.323946 0.448338
Si Si5 0.021331 0.816245 0.088110
Si Si6 0.461574 0.713943 0.867722
O O1 0.142409 0.659582 0.770519
O O2 0.062895 0.775148 0.857799
O O3 0.307972 0.621699 0.848062
O O4 0.000000 0.500000 0.835308
O O5 0.659497 0.313762 0.500000
O O6 0.652179 0.415908 0.592452
O O7 0.909206 0.307548 0.552349
O O8 0.708830 0.118859 0.571668
O O9 0.576035 0.308512 0.741111
O O10 0.760192 0.442831 0.679607
O O11 0.135031 0.397140 0.500000
O O12 0.197515 0.169019 0.446037
O O13 0.142938 0.398206 0.398309
O O14 0.000000 0.000000 0.085228
#
# Coordination Sequence:
#
# PCOD9544042 Si02
#       6
#     8   8   8   8   8   8
#     4  10  22  39  62  87 118 165 201 247 317 378
#     4  10  19  32  58  91 124 164 208 256 306 362
#     4   9  20  39  62  87 108 150 207 248 297 367
#     4   9  17  32  56  89 124 159 197 251 318 372
#     4   9  19  36  60  90 126 161 204 251 307 370
#     4  10  20  34  58  89 118 152 205 262 302 365
#
# _framework density 23.020782000000001
#
# number of rings (size 3 to 8) (size 9 to 14) (size 15 to 20)
#    0.000    2.500    0.000    1.500    2.333    4.667 
#    0.000    0.000    0.000   19.000    0.000    0.000 
#    0.000    0.000    0.000    0.000    0.000    0.000 
#
# Total GULP energy -267205.341296 kJ/mol
# GULP energy per Si atom -5566.777944 kJ/mol
# Density = 2.296839 g / cm^3
# Si number density = 23.020782 Si / 1000 Ang^3
#
#
#
# Elastic Constant Matrix: (Units=GPa)
#
#
# Indices 1 2 3 4 5 6 
#
# 1 58.3393 -0.4515 34.2967 0.0000 0.0000 11.2500
# 2 -0.4515 58.3393 34.2967 0.0000 0.0000 -11.2500
# 3 34.2967 34.2967 222.8062 0.0000 0.0000 0.0000
# 4 0.0000 0.0000 0.0000 17.1485 0.0000 0.0000
# 5 0.0000 0.0000 0.0000 0.0000 17.1485 0.0000
# 6 11.2500 -11.2500 0.0000 0.0000 0.0000 26.7154
#
#
#
# Elastic Compliance Matrix: (Units=1/GPa)
#
#
# Indices 1 2 3 4 5 6 
#
# 1 0.020703 0.000426 -0.003252 0.000000 0.000000 -0.008539
# 2 0.000426 0.020703 -0.003252 0.000000 0.000000 0.008539
# 3 -0.003252 -0.003252 0.005489 0.000000 0.000000 0.000000
# 4 0.000000 0.000000 0.000000 0.058314 0.000000 0.000000
# 5 0.000000 0.000000 0.000000 0.000000 0.058314 0.000000
# 6 -0.008539 0.008539 0.000000 0.000000 0.000000 0.044623
#
#
# Mechanical properties :
#
#
# Convention : Reuss Voigt Hill
#
# Bulk Modulus (GPa) = 28.78751 52.86318 40.82534
# Shear Modulus (GPa) = 21.56245 30.29199 25.92722
#
# Velocity S-wave (km/s) = 3.06380 3.63141 3.35961
# Velocity P-wave (km/s) = 5.00479 6.37149 5.72904
#
# Compressibility (1/GPa) = 0.03473729
#
# Stress axis : x y z
#
# Youngs Moduli (GPa) = 48.30218 48.30218 182.16692
#
# Poissons Ratio (x) = -0.02056 0.59247
# Poissons Ratio (y) = -0.02056 0.59247
# Poissons Ratio (z) = 0.15709 0.15709
#
# Static dielectric constant tensor:
#      x y z
#    x 1.966020 0.000000 0.000000 
#    y 0.000000 1.966020 0.000000 
#    z 0.000000 0.000000 1.840080 
# 
# From -- ./inp_files/5806.got.cif
#   From: 2010.05.17/outbox.cif.g08.bks.cpg/sg84_3_cif.got.tgz:5806.got - 2010.06.03 18:57:40.
