data_PCOD9544731
_publ_section_title
;
Structure prediction by ZEFSAII (Michael W. Deem and Ramdas Pophale) SiO2 
 PCOD9544731
Probable space group: P 4/N
;
_chemical_formula_sum "Si O2"
_cell_formula_units_Z 58
_cell_length_a 17.909414
_cell_length_b 17.909414
_cell_length_c 8.194344
_cell_angle_alpha 90.000000
_cell_angle_beta 90.000000
_cell_angle_gamma 90.000000
_cell_volume 2628.312155
_symmetry_space_group_name_H-M "P 4/N"
_symmetry_group_IT_number 85
_symmetry_cell_setting 'tetragonal'
loop_
_space_group_symop_operation_xyz
x,y,z
1/2-y,x,z
1/2-x,1/2-y,z
y,1/2-x,z
-x,-y,-z
1/2+y,-x,-z
1/2+x,1/2+y,-z
-y,1/2+x,-z
loop_
_atom_site_type_symbol
_atom_site_label
_atom_site_fract_x
_atom_site_fract_y
_atom_site_fract_z
Si Si1 0.140695 0.704387 0.043342
Si Si2 0.514078 0.228796 0.708913
Si Si3 0.750000 0.750000 0.623044
Si Si4 0.181706 0.514925 0.373653
Si Si5 0.770179 0.631935 0.113535
Si Si6 0.466459 0.917796 0.464824
Si Si7 0.647487 0.859284 0.771324
Si Si8 0.021955 0.665719 0.803035
O O1 0.081136 0.654180 0.945022
O O2 0.162068 0.780690 0.946826
O O3 0.094833 0.727067 0.204434
O O4 0.515454 0.279525 0.549128
O O5 0.452358 0.265211 0.827953
O O6 0.492985 0.144670 0.647434
O O7 0.669141 0.792722 0.647930
O O8 0.113409 0.571340 0.379197
O O9 0.148105 0.434840 0.329464
O O10 0.247664 0.527227 0.246074
O O11 0.831409 0.692033 0.173113
O O12 0.792464 0.637615 0.920731
O O13 0.458357 0.880825 0.642370
O O14 0.500000 0.000000 0.500000
O O15 0.564328 0.850885 0.844695
#
# Coordination Sequence:
#
# PCOD9544731 Si02
#       8
#     8   8   2   8   8   8   8   8
#     4  11  24  46  71  97 128 169 227 286 336 394
#     4  11  26  41  66  99 132 171 216 278 338 380
#     4  12  20  36  64  98 124 168 236 250 300 408
#     4  11  23  40  65  93 133 172 219 268 326 393
#     4  11  22  40  60  92 135 175 216 266 322 400
#     4  11  24  44  64  95 137 171 220 272 319 391
#     4  12  20  38  66  94 128 179 220 263 316 407
#     4  11  23  42  71  97 129 183 220 267 338 391
#
# _framework density 22.067394
#
# number of rings (size 3 to 8) (size 9 to 14) (size 15 to 20)
#    0.000    0.828    4.138    3.310    1.931    0.000 
#    0.000    0.690    0.000    6.621    0.000    0.000 
#    0.000    0.000    0.000    0.000    0.000    0.000 
#
# Total GULP energy -323254.244924 kJ/mol
# GULP energy per Si atom -5573.349050 kJ/mol
# Density = 2.201717 g / cm^3
# Si number density = 22.067394 Si / 1000 Ang^3
#
#
#
# Elastic Constant Matrix: (Units=GPa)
#
#
# Indices 1 2 3 4 5 6 
#
# 1 106.9068 27.2395 20.0888 0.0000 0.0000 -6.1682
# 2 27.2395 106.9068 20.0888 0.0000 0.0000 6.1682
# 3 20.0888 20.0888 47.4154 0.0000 0.0000 0.0000
# 4 0.0000 0.0000 0.0000 19.6978 0.0000 0.0000
# 5 0.0000 0.0000 0.0000 0.0000 19.6978 0.0000
# 6 -6.1682 6.1682 0.0000 0.0000 0.0000 37.7312
#
#
#
# Elastic Compliance Matrix: (Units=1/GPa)
#
#
# Indices 1 2 3 4 5 6 
#
# 1 0.010708 -0.002170 -0.003617 0.000000 0.000000 0.002105
# 2 -0.002170 0.010708 -0.003617 0.000000 0.000000 -0.002105
# 3 -0.003617 -0.003617 0.024155 0.000000 0.000000 0.000000
# 4 0.000000 0.000000 0.000000 0.050767 0.000000 0.000000
# 5 0.000000 0.000000 0.000000 0.000000 0.050767 0.000000
# 6 0.002105 -0.002105 0.000000 0.000000 0.000000 0.027192
#
#
# Mechanical properties :
#
#
# Convention : Reuss Voigt Hill
#
# Bulk Modulus (GPa) = 37.36650 44.00700 40.68675
# Shear Modulus (GPa) = 24.74913 28.34617 26.54765
#
# Velocity S-wave (km/s) = 3.35255 3.58792 3.47223
# Velocity P-wave (km/s) = 5.65294 6.09505 5.87815
#
# Compressibility (1/GPa) = 0.02676194
#
# Stress axis : x y z
#
# Youngs Moduli (GPa) = 93.38740 93.38740 41.39872
#
# Poissons Ratio (x) = 0.20266 0.14975
# Poissons Ratio (y) = 0.20266 0.14975
# Poissons Ratio (z) = 0.33781 0.33781
#
# Static dielectric constant tensor:
#      x y z
#    x 1.851730 0.000000 0.000000 
#    y 0.000000 1.851730 0.000000 
#    z 0.000000 0.000000 1.846190 
# 
# From -- ./inp_files/1211.got.cif
#   From: 2010.05.17/outbox.cif.g08.bks.cpg/sg85_cif.got.tgz:1211.got - 2010.06.03 19:01:16.
