data_PCOD9544664
_publ_section_title
;
Structure prediction by ZEFSAII (Michael W. Deem and Ramdas Pophale) SiO2 
 PCOD9544664
Probable space group: P 4/N
;
_chemical_formula_sum "Si O2"
_cell_formula_units_Z 52
_cell_length_a 19.832685
_cell_length_b 19.832685
_cell_length_c 4.989536
_cell_angle_alpha 90.000000
_cell_angle_beta 90.000000
_cell_angle_gamma 90.000000
_cell_volume 1962.561110
_symmetry_space_group_name_H-M "P 4/N"
_symmetry_group_IT_number 85
_symmetry_cell_setting 'tetragonal'
loop_
_space_group_symop_operation_xyz
x,y,z
1/2-y,x,z
1/2-x,1/2-y,z
y,1/2-x,z
-x,-y,-z
1/2+y,-x,-z
1/2+x,1/2+y,-z
-y,1/2+x,-z
loop_
_atom_site_type_symbol
_atom_site_label
_atom_site_fract_x
_atom_site_fract_y
_atom_site_fract_z
Si Si1 0.332623 0.858009 0.351667
Si Si2 0.250000 0.750000 0.000000
Si Si3 0.622104 0.424765 0.866161
Si Si4 0.750000 0.750000 0.019986
Si Si5 0.502442 0.716203 0.542779
Si Si6 0.530919 0.579566 0.218640
Si Si7 0.652626 0.543158 0.515002
Si Si8 0.664450 0.876955 0.841069
O O1 0.364747 0.858547 0.651532
O O2 0.289304 0.927158 0.341622
O O3 0.290222 0.798638 0.208920
O O4 0.396343 0.862505 0.155970
O O5 0.542282 0.442611 0.873025
O O6 0.657677 0.491635 0.762975
O O7 0.701976 0.818176 0.996076
O O8 0.512380 0.645847 0.390718
O O9 0.520028 0.780469 0.359398
O O10 0.564421 0.714867 0.749927
O O11 0.579119 0.531201 0.388316
O O12 0.581363 0.607232 0.995064
O O13 0.653801 0.622187 0.590978
#
# Coordination Sequence:
#
# PCOD9544664 Si02
#       8
#     8   2   8   2   8   8   8   8
#     4  11  26  47  75 107 147 190 238 306 367 447
#     4  12  28  50  80 114 148 190 252 302 380 458
#     4  11  25  48  74 108 146 188 244 303 371 436
#     4  12  24  40  70 108 140 194 248 312 362 452
#     4  10  22  45  63  96 141 188 235 291 372 429
#     4  10  24  42  66  99 140 187 240 302 360 438
#     4  11  24  40  70 101 134 193 238 305 362 441
#     4  11  23  43  66  96 143 184 242 300 362 432
#
# _framework density 26.495989999999999
#
# number of rings (size 3 to 8) (size 9 to 14) (size 15 to 20)
#    0.000    1.231    3.077    1.385    4.308    4.923 
#    0.000    3.077    0.000    0.000    0.000    0.000 
#    0.000    0.000    0.000    0.000    0.000    0.000 
#
# Total GULP energy -290384.838504 kJ/mol
# GULP energy per Si atom -5584.323817 kJ/mol
# Density = 2.643568 g / cm^3
# Si number density = 26.495990 Si / 1000 Ang^3
#
#
#
# Elastic Constant Matrix: (Units=GPa)
#
#
# Indices 1 2 3 4 5 6 
#
# 1 127.8865 57.7569 13.0671 0.0000 0.0000 1.2708
# 2 57.7569 127.8865 13.0671 0.0000 0.0000 -1.2708
# 3 13.0671 13.0671 70.9993 0.0000 0.0000 0.0000
# 4 0.0000 0.0000 0.0000 12.3233 0.0000 0.0000
# 5 0.0000 0.0000 0.0000 0.0000 12.3233 0.0000
# 6 1.2708 -1.2708 0.0000 0.0000 0.0000 53.9635
#
#
#
# Elastic Compliance Matrix: (Units=1/GPa)
#
#
# Indices 1 2 3 4 5 6 
#
# 1 0.009901 -0.004371 -0.001018 0.000000 0.000000 -0.000336
# 2 -0.004371 0.009901 -0.001018 0.000000 0.000000 0.000336
# 3 -0.001018 -0.001018 0.014459 0.000000 0.000000 0.000000
# 4 0.000000 0.000000 0.000000 0.081147 0.000000 0.000000
# 5 0.000000 0.000000 0.000000 0.000000 0.081147 0.000000
# 6 -0.000336 0.000336 0.000000 0.000000 0.000000 0.018547
#
#
# Mechanical properties :
#
#
# Convention : Reuss Voigt Hill
#
# Bulk Modulus (GPa) = 46.62412 54.95051 50.78732
# Shear Modulus (GPa) = 21.27081 31.91409 26.59245
#
# Velocity S-wave (km/s) = 2.83643 3.47434 3.17147
# Velocity P-wave (km/s) = 5.32560 6.07280 5.71143
#
# Compressibility (1/GPa) = 0.02144812
#
# Stress axis : x y z
#
# Youngs Moduli (GPa) = 101.00269 101.00269 69.15971
#
# Poissons Ratio (x) = 0.44146 0.07039
# Poissons Ratio (y) = 0.44146 0.07039
# Poissons Ratio (z) = 0.10280 0.10280
#
# Static dielectric constant tensor:
#      x y z
#    x 2.141360 0.000000 0.000000 
#    y 0.000000 2.141360 0.000000 
#    z 0.000000 0.000000 2.214600 
# 
# From -- ./inp_files/526.got.cif
#   From: 2010.05.17/outbox.cif.g08.bks.cpg/sg85_cif.got.tgz:526.got - 2010.06.03 19:01:16.
