data_PCOD9544540
_publ_section_title
;
Structure prediction by ZEFSAII (Michael W. Deem and Ramdas Pophale) SiO2 
 PCOD9544540
Probable space group: P 4/N
;
_chemical_formula_sum "Si O2"
_cell_formula_units_Z 56
_cell_length_a 10.609144
_cell_length_b 10.609144
_cell_length_c 21.197926
_cell_angle_alpha 90.000000
_cell_angle_beta 90.000000
_cell_angle_gamma 90.000000
_cell_volume 2385.910015
_symmetry_space_group_name_H-M "P 4/N"
_symmetry_group_IT_number 85
_symmetry_cell_setting 'tetragonal'
loop_
_space_group_symop_operation_xyz
x,y,z
1/2-y,x,z
1/2-x,1/2-y,z
y,1/2-x,z
-x,-y,-z
1/2+y,-x,-z
1/2+x,1/2+y,-z
-y,1/2+x,-z
loop_
_atom_site_type_symbol
_atom_site_label
_atom_site_fract_x
_atom_site_fract_y
_atom_site_fract_z
Si Si1 0.555031 0.832138 0.500000
Si Si2 0.051437 0.326391 0.930667
Si Si3 0.948563 0.673609 0.930667
Si Si4 1.000000 0.000000 0.173839
Si Si5 0.445479 0.668193 0.718112
Si Si6 0.500000 0.500000 0.608923
Si Si7 0.445480 0.668193 0.281888
O O1 0.590548 0.687063 0.500000
O O2 0.485820 0.880743 0.562594
O O3 0.485820 0.880742 0.437407
O O4 0.094089 0.182078 0.927560
O O5 0.976235 0.381032 0.871895
O O6 0.993116 0.347734 0.000000
O O7 0.905911 0.817922 0.927560
O O8 0.023765 0.618968 0.871895
O O9 0.018016 0.118727 0.220299
O O10 0.981984 0.881273 0.220299
O O11 0.513482 0.619568 0.655130
O O12 0.313294 0.590724 0.718739
O O13 0.409276 0.813294 0.718739
O O14 0.486518 0.380432 0.655130
#
# Coordination Sequence:
#
# PCOD9544540 Si02
#       7
#     8   8   8   8   8   8   8
#     4  10  20  34  54  80 104 124 156 202 242 278
#     4   9  18  32  49  70  96 125 159 200 245 294
#     4   9  18  32  49  70  96 125 159 200 245 294
#     4  11  19  31  51  73  95 126 164 202 245 285
#     4  10  21  35  50  71 100 131 164 200 236 281
#     4  10  20  35  55  74  98 134 164 190 236 290
#     4  10  21  35  50  71 100 131 164 200 236 281
#
# _framework density 23.471129000000001
#
# number of rings (size 3 to 8) (size 9 to 14) (size 15 to 20)
#    0.000    2.143    0.000    4.714    0.000    0.000 
#    0.000    0.000    0.000   20.571    0.000   12.000 
#    0.000    0.000    0.000    0.000    0.000    0.000 
#
# Total GULP energy -312981.139322 kJ/mol
# GULP energy per Si atom -5588.948916 kJ/mol
# Density = 2.341771 g / cm^3
# Si number density = 23.471129 Si / 1000 Ang^3
#
#
#
# Elastic Constant Matrix: (Units=GPa)
#
#
# Indices 1 2 3 4 5 6 
#
# 1 45.9552 -14.2884 10.2337 0.0000 0.0000 13.5839
# 2 -14.2884 45.9552 10.2337 0.0000 0.0000 -13.5839
# 3 10.2337 10.2337 165.6640 0.0000 0.0000 0.0000
# 4 0.0000 0.0000 0.0000 19.3207 0.0000 0.0000
# 5 0.0000 0.0000 0.0000 0.0000 19.3207 0.0000
# 6 13.5839 -13.5839 0.0000 0.0000 0.0000 34.2477
#
#
#
# Elastic Compliance Matrix: (Units=1/GPa)
#
#
# Indices 1 2 3 4 5 6 
#
# 1 0.026554 0.006338 -0.002032 0.000000 0.000000 -0.008018
# 2 0.006338 0.026554 -0.002032 0.000000 0.000000 0.008018
# 3 -0.002032 -0.002032 0.006287 0.000000 0.000000 0.000000
# 4 0.000000 0.000000 0.000000 0.051758 0.000000 0.000000
# 5 0.000000 0.000000 0.000000 0.000000 0.051758 0.000000
# 6 -0.008018 0.008018 0.000000 0.000000 0.000000 0.035560
#
#
# Mechanical properties :
#
#
# Convention : Reuss Voigt Hill
#
# Bulk Modulus (GPa) = 15.63868 29.99247 22.81557
# Shear Modulus (GPa) = 23.23041 31.33752 27.28397
#
# Velocity S-wave (km/s) = 3.14943 3.65794 3.41317
# Velocity P-wave (km/s) = 4.46124 5.53596 5.02740
#
# Compressibility (1/GPa) = 0.06394403
#
# Stress axis : x y z
#
# Youngs Moduli (GPa) = 37.65969 37.65969 159.04958
#
# Poissons Ratio (x) = -0.23870 0.32317
# Poissons Ratio (y) = -0.23870 0.32317
# Poissons Ratio (z) = 0.07652 0.07652
#
# Static dielectric constant tensor:
#      x y z
#    x 1.867810 0.000000 0.000000 
#    y 0.000000 1.867810 0.000000 
#    z 0.000000 0.000000 1.918170 
# 
# From -- ./inp_files/2240.got.cif
#   From: 2010.05.17/outbox.cif.g08.bks.cpg/sg85_cif.got.tgz:2240.got - 2010.06.03 19:01:16.
