data_PCOD9544628
_publ_section_title
;
Structure prediction by ZEFSAII (Michael W. Deem and Ramdas Pophale) SiO2 
 PCOD9544628
Probable space group: P 4/N
;
_chemical_formula_sum "Si O2"
_cell_formula_units_Z 36
_cell_length_a 14.091775
_cell_length_b 14.091775
_cell_length_c 8.342867
_cell_angle_alpha 90.000000
_cell_angle_beta 90.000000
_cell_angle_gamma 90.000000
_cell_volume 1656.710866
_symmetry_space_group_name_H-M "P 4/N"
_symmetry_group_IT_number 85
_symmetry_cell_setting 'tetragonal'
loop_
_space_group_symop_operation_xyz
x,y,z
1/2-y,x,z
1/2-x,1/2-y,z
y,1/2-x,z
-x,-y,-z
1/2+y,-x,-z
1/2+x,1/2+y,-z
-y,1/2+x,-z
loop_
_atom_site_type_symbol
_atom_site_label
_atom_site_fract_x
_atom_site_fract_y
_atom_site_fract_z
Si Si1 0.466418 0.209271 0.598648
Si Si2 0.011397 0.344101 0.969837
Si Si3 0.129907 0.577399 0.449018
Si Si4 0.750000 0.750000 0.482120
Si Si5 0.250000 0.750000 0.500000
Si Si6 0.360730 0.999565 0.107104
O O1 0.465654 0.181883 0.785661
O O2 0.521062 0.310248 0.580806
O O3 0.530679 0.128170 0.512292
O O4 0.362237 0.216631 0.529000
O O5 0.922373 0.415573 0.972564
O O6 0.099361 0.401402 0.042765
O O7 0.991039 0.248933 0.065701
O O8 0.197464 0.667519 0.401958
O O9 0.121424 0.511465 0.295366
#
# Coordination Sequence:
#
# PCOD9544628 Si02
#       6
#     8   8   8   2   2   8
#     4  10  22  40  62  88 121 164 206 250 312 382
#     4  10  22  40  61  89 122 160 206 255 314 375
#     4   9  20  39  62  88 122 160 205 259 311 367
#     4  12  24  36  60  90 116 156 204 242 304 380
#     4   8  16  36  64  90 116 160 212 254 312 376
#     4  10  22  38  60  90 123 159 203 257 311 371
#
# _framework density 21.729803
#
# number of rings (size 3 to 8) (size 9 to 14) (size 15 to 20)
#    0.000    2.222    0.000    1.333    0.000   10.667 
#    0.000    0.000    0.000    0.000    0.000    0.000 
#    0.000    0.000    0.000    0.000    0.000    0.000 
#
# Total GULP energy -200677.599749 kJ/mol
# GULP energy per Si atom -5574.377771 kJ/mol
# Density = 2.168035 g / cm^3
# Si number density = 21.729803 Si / 1000 Ang^3
#
#
#
# Elastic Constant Matrix: (Units=GPa)
#
#
# Indices 1 2 3 4 5 6 
#
# 1 139.3660 47.0459 37.4789 0.0000 0.0000 -17.0853
# 2 47.0459 139.3660 37.4789 0.0000 0.0000 17.0853
# 3 37.4789 37.4789 33.0976 0.0000 0.0000 0.0000
# 4 0.0000 0.0000 0.0000 20.1805 0.0000 0.0000
# 5 0.0000 0.0000 0.0000 0.0000 20.1805 0.0000
# 6 -17.0853 17.0853 0.0000 0.0000 0.0000 11.8605
#
#
#
# Elastic Compliance Matrix: (Units=1/GPa)
#
#
# Indices 1 2 3 4 5 6 
#
# 1 0.016526 -0.006677 -0.011153 0.000000 0.000000 0.033425
# 2 -0.006677 0.016526 -0.011153 0.000000 0.000000 -0.033425
# 3 -0.011153 -0.011153 0.055472 0.000000 0.000000 0.000000
# 4 0.000000 0.000000 0.000000 0.049553 0.000000 0.000000
# 5 0.000000 0.000000 0.000000 0.000000 0.049553 0.000000
# 6 0.033425 -0.033425 0.000000 0.000000 0.000000 0.180612
#
#
# Mechanical properties :
#
#
# Convention : Reuss Voigt Hill
#
# Bulk Modulus (GPa) = 32.72369 61.75965 47.24167
# Shear Modulus (GPa) = 11.45751 23.09937 17.27844
#
# Velocity S-wave (km/s) = 2.29873 3.26395 2.82290
# Velocity P-wave (km/s) = 4.70506 6.53359 5.69322
#
# Compressibility (1/GPa) = 0.03055890
#
# Stress axis : x y z
#
# Youngs Moduli (GPa) = 60.50943 60.50943 18.02697
#
# Poissons Ratio (x) = 0.40403 0.20105
# Poissons Ratio (y) = 0.40403 0.20105
# Poissons Ratio (z) = 0.67486 0.67486
#
# Static dielectric constant tensor:
#      x y z
#    x 1.802660 0.000000 0.000000 
#    y 0.000000 1.802660 0.000000 
#    z 0.000000 0.000000 1.777700 
# 
# From -- ./inp_files/838.got.cif
#   From: 2010.05.17/outbox.cif.g08.bks.cpg/sg85_cif.got.tgz:838.got - 2010.06.03 19:01:16.
