data_PCOD9544196
_publ_section_title
;
Structure prediction by ZEFSAII (Michael W. Deem and Ramdas Pophale) SiO2 
 PCOD9544196
Probable space group: P 42/M
;
_chemical_formula_sum "Si O2"
_cell_formula_units_Z 40
_cell_length_a 14.883482
_cell_length_b 14.883482
_cell_length_c 9.598773
_cell_angle_alpha 90.000000
_cell_angle_beta 90.000000
_cell_angle_gamma 90.000000
_cell_volume 2126.301347
_symmetry_space_group_name_H-M "P 42/M"
_symmetry_group_IT_number 84
_symmetry_cell_setting 'tetragonal'
loop_
_space_group_symop_operation_xyz
x,y,z
-y,x,1/2+z
-x,-y,z
y,-x,1/2+z
-x,-y,-z
y,-x,1/2-z
x,y,-z
-y,x,1/2-z
loop_
_atom_site_type_symbol
_atom_site_label
_atom_site_fract_x
_atom_site_fract_y
_atom_site_fract_z
Si Si1 0.089376 0.293484 0.332282
Si Si2 0.063344 0.117603 0.827370
Si Si3 0.219242 0.459466 0.256795
Si Si4 0.418079 0.071509 0.158727
Si Si5 0.472866 0.653870 0.500000
Si Si6 0.639777 0.528749 0.500000
O O1 0.094896 0.274022 0.500000
O O2 0.105354 0.209757 0.230464
O O3 0.158083 0.373741 0.295887
O O4 0.988781 0.332504 0.304171
O O5 0.965514 0.112672 0.750671
O O6 0.060707 0.110216 0.000000
O O7 0.153056 0.545804 0.249426
O O8 0.293272 0.472182 0.372946
O O9 0.280957 0.449748 0.124981
O O10 0.500000 0.000000 0.156063
O O11 0.407051 0.104905 0.000000
O O12 0.574681 0.615450 0.500000
O O13 0.417048 0.562239 0.500000
#
# Coordination Sequence:
#
# PCOD9544196 Si02
#       6
#     8   8   8   8   4   4
#     4  10  20  39  64  93 128 166 208 257 311 372
#     4  11  23  43  67  92 128 168 204 243 303 370
#     4  11  20  40  62  89 120 160 215 264 313 379
#     4   8  15  33  60  84 117 163 198 240 310 372
#     4  11  26  38  61  88 124 157 216 269 337 371
#     4  11  22  46  61  80 118 177 208 263 325 395
#
# _framework density 18.812010000000001
#
# number of rings (size 3 to 8) (size 9 to 14) (size 15 to 20)
#    0.000    1.800    2.000    4.800    1.400    1.600 
#    9.000    1.500    0.000    0.000    0.000    0.000 
#    0.000    0.000    0.000    0.000    0.000    0.000 
#
# Total GULP energy -222707.712763 kJ/mol
# GULP energy per Si atom -5567.692819 kJ/mol
# Density = 1.876919 g / cm^3
# Si number density = 18.812010 Si / 1000 Ang^3
#
#
#
# Elastic Constant Matrix: (Units=GPa)
#
#
# Indices 1 2 3 4 5 6 
#
# 1 81.3790 11.9349 32.1144 0.0000 0.0000 -2.5379
# 2 11.9349 81.3790 32.1144 0.0000 0.0000 2.5379
# 3 32.1144 32.1144 147.0115 0.0000 0.0000 0.0000
# 4 0.0000 0.0000 0.0000-1795.3477 0.0000 0.0000
# 5 0.0000 0.0000 0.0000 0.0000-1795.3477 0.0000
# 6 -2.5379 2.5379 0.0000 0.0000 0.0000 11.9216
#
#
#
# Elastic Compliance Matrix: (Units=1/GPa)
#
#
# Indices 1 2 3 4 5 6 
#
# 1 0.013620 -0.001007 -0.002755 0.000000 0.000000 0.003114
# 2 -0.001007 0.013620 -0.002755 0.000000 0.000000 -0.003114
# 3 -0.002755 -0.002755 0.008006 0.000000 0.000000 0.000000
# 4 0.000000 0.000000 0.000000 -0.000557 0.000000 0.000000
# 5 0.000000 0.000000 0.000000 0.000000 -0.000557 0.000000
# 6 0.003114 -0.003114 0.000000 0.000000 0.000000 0.085207
#
#
# Mechanical properties :
#
#
# Convention : Reuss Voigt Hill
#
# Bulk Modulus (GPa) = 45.02306 51.34407 48.18357
# Shear Modulus (GPa) = 35.77061 -700.18104 -332.20521
#
# Velocity S-wave (km/s) = 4.36532 -19.31339 -13.30321
# Velocity P-wave (km/s) = 7.02803 21.67926 14.50167
#
# Compressibility (1/GPa) = 0.02221084
#
# Stress axis : x y z
#
# Youngs Moduli (GPa) = 73.41955 73.41955 124.90690
#
# Poissons Ratio (x) = 0.07396 0.34415
# Poissons Ratio (y) = 0.07396 0.34415
# Poissons Ratio (z) = 0.20229 0.20229
#
# Static dielectric constant tensor:
#      x y z
#    x 1.667670 0.000000 0.000000 
#    y 0.000000 1.667670 0.000000 
#    z 0.000000 0.000000 1.607300 
# 
# From -- ./inp_files/817.got.cif
#   From: 2010.05.17/outbox.cif.g08.bks.cpg/sg84_1_cif.got.tgz:817.got - 2010.06.03 18:57:40.
