data_PCOD9544641
_publ_section_title
;
Structure prediction by ZEFSAII (Michael W. Deem and Ramdas Pophale) SiO2 
 PCOD9544641
Probable space group: P 4/N
;
_chemical_formula_sum "Si O2"
_cell_formula_units_Z 50
_cell_length_a 19.572267
_cell_length_b 19.572267
_cell_length_c 5.479094
_cell_angle_alpha 90.000000
_cell_angle_beta 90.000000
_cell_angle_gamma 90.000000
_cell_volume 2098.896458
_symmetry_space_group_name_H-M "P 4/N"
_symmetry_group_IT_number 85
_symmetry_cell_setting 'tetragonal'
loop_
_space_group_symop_operation_xyz
x,y,z
1/2-y,x,z
1/2-x,1/2-y,z
y,1/2-x,z
-x,-y,-z
1/2+y,-x,-z
1/2+x,1/2+y,-z
-y,1/2+x,-z
loop_
_atom_site_type_symbol
_atom_site_label
_atom_site_fract_x
_atom_site_fract_y
_atom_site_fract_z
Si Si1 0.958916 0.328658 0.715883
Si Si2 0.709506 0.966030 0.111554
Si Si3 0.658901 0.210006 0.417619
Si Si4 0.610080 0.091418 0.082962
Si Si5 0.607077 0.680879 0.628211
Si Si6 0.025344 0.427930 0.394979
Si Si7 0.250000 0.250000 0.409563
O O1 0.917280 0.285319 0.519445
O O2 0.986028 0.275974 0.910109
O O3 0.019905 0.370477 0.602775
O O4 0.905971 0.385059 0.810514
O O5 0.706023 0.929712 0.377303
O O6 0.646495 0.019037 0.101376
O O7 0.714555 0.914813 0.885296
O O8 0.684819 0.286684 0.375641
O O9 0.653991 0.151482 0.213425
O O10 0.534274 0.088682 0.201206
O O11 0.579178 0.603563 0.677892
O O12 0.687982 0.691718 0.593109
O O13 0.000000 0.500000 0.500000
#
# Coordination Sequence:
#
# PCOD9544641 Si02
#       7
#     8   8   8   8   8   8   2
#     4  11  26  40  71 105 153 200 250 318 389 468
#     4  12  28  50  78 114 154 205 255 322 393 465
#     4  10  22  40  62  98 150 203 254 301 370 457
#     4  11  25  41  72 106 150 197 253 320 384 470
#     4  12  30  52  82 111 154 200 262 325 392 482
#     4  11  24  48  76 110 146 195 261 326 399 453
#     4  12  32  58  84 122 160 214 264 322 408 482
#
# _framework density 23.822040999999999
#
# number of rings (size 3 to 8) (size 9 to 14) (size 15 to 20)
#    0.000    0.800    3.200    1.920   13.440    3.200 
#    0.000    1.600    0.000    0.000    0.000    0.000 
#    0.000    0.000    0.000    0.000    0.000    0.000 
#
# Total GULP energy -278683.001881 kJ/mol
# GULP energy per Si atom -5573.660038 kJ/mol
# Density = 2.376782 g / cm^3
# Si number density = 23.822041 Si / 1000 Ang^3
#
#
#
# Elastic Constant Matrix: (Units=GPa)
#
#
# Indices 1 2 3 4 5 6 
#
# 1 102.6480 14.3245 14.0157 0.0000 0.0000 7.4560
# 2 14.3245 102.6480 14.0157 0.0000 0.0000 -7.4560
# 3 14.0157 14.0157 72.6230 0.0000 0.0000 0.0000
# 4 0.0000 0.0000 0.0000 22.1766 0.0000 0.0000
# 5 0.0000 0.0000 0.0000 0.0000 22.1766 0.0000
# 6 7.4560 -7.4560 0.0000 0.0000 0.0000 46.2965
#
#
#
# Elastic Compliance Matrix: (Units=1/GPa)
#
#
# Indices 1 2 3 4 5 6 
#
# 1 0.010301 -0.001337 -0.001730 0.000000 0.000000 -0.001874
# 2 -0.001337 0.010301 -0.001730 0.000000 0.000000 0.001874
# 3 -0.001730 -0.001730 0.014437 0.000000 0.000000 0.000000
# 4 0.000000 0.000000 0.000000 0.045093 0.000000 0.000000
# 5 0.000000 0.000000 0.000000 0.000000 0.045093 0.000000
# 6 -0.001874 0.001874 0.000000 0.000000 0.000000 0.022204
#
#
# Mechanical properties :
#
#
# Convention : Reuss Voigt Hill
#
# Bulk Modulus (GPa) = 39.30045 40.29230 39.79638
# Shear Modulus (GPa) = 30.21064 33.83412 32.02238
#
# Velocity S-wave (km/s) = 3.56501 3.77276 3.67036
# Velocity P-wave (km/s) = 5.78611 5.99407 5.89101
#
# Compressibility (1/GPa) = 0.02544500
#
# Stress axis : x y z
#
# Youngs Moduli (GPa) = 97.07772 97.07772 69.26425
#
# Poissons Ratio (x) = 0.12984 0.11982
# Poissons Ratio (y) = 0.12984 0.11982
# Poissons Ratio (z) = 0.16794 0.16794
#
# Static dielectric constant tensor:
#      x y z
#    x 1.945840 0.000000 0.000000 
#    y 0.000000 1.945840 0.000000 
#    z 0.000000 0.000000 1.970380 
# 
# From -- ./inp_files/499.got.cif
#   From: 2010.05.17/outbox.cif.g08.bks.cpg/sg85_cif.got.tgz:499.got - 2010.06.03 19:01:16.
