data_PCOD9544911
_publ_section_title
;
Structure prediction by ZEFSAII (Michael W. Deem and Ramdas Pophale) SiO2 
 PCOD9544911
Probable space group: P 42/N
;
_chemical_formula_sum "Si O2"
_cell_formula_units_Z 64
_cell_length_a 16.950791
_cell_length_b 16.950791
_cell_length_c 11.602301
_cell_angle_alpha 90.000000
_cell_angle_beta 90.000000
_cell_angle_gamma 90.000000
_cell_volume 3333.681205
_symmetry_space_group_name_H-M "P 42/N"
_symmetry_group_IT_number 86
_space_group.IT_coordinate_system_code '2'
_symmetry_cell_setting 'tetragonal'
loop_
_space_group_symop_operation_xyz
x,y,z
-y,1/2+x,1/2+z
1/2-x,1/2-y,z
1/2+y,-x,1/2+z
-x,-y,-z
y,1/2-x,1/2-z
1/2+x,1/2+y,-z
1/2-y,x,1/2-z
loop_
_atom_site_type_symbol
_atom_site_label
_atom_site_fract_x
_atom_site_fract_y
_atom_site_fract_z
Si Si1 0.688994 0.042845 0.870033
Si Si2 0.940786 0.176275 0.922664
Si Si3 0.935900 0.321671 0.547816
Si Si4 0.286827 0.662817 0.730304
Si Si5 0.462959 0.039342 0.615378
Si Si6 0.690874 0.841513 0.699720
Si Si7 0.228282 0.010946 0.369399
Si Si8 0.948842 0.562516 0.804101
O O1 0.666704 0.133149 0.843888
O O2 0.736933 0.015497 0.754871
O O3 0.610552 0.990150 0.879120
O O4 0.744926 0.036610 0.979946
O O5 0.899612 0.227772 0.826203
O O6 0.019737 0.129296 0.887820
O O7 0.877929 0.108634 0.956418
O O8 0.960115 0.230040 0.032874
O O9 0.870074 0.304647 0.643411
O O10 0.006314 0.371407 0.606505
O O11 0.250000 0.750000 0.733157
O O12 0.500000 0.000000 0.500000
O O13 0.499381 0.994932 0.725716
O O14 0.749932 0.834105 0.812205
O O15 0.742677 0.897553 0.617782
O O16 0.610876 0.889112 0.720084
O O17 0.133577 0.006375 0.367818
#
# Coordination Sequence:
#
# PCOD9544911 Si02
#       8
#     8   8   8   8   8   8   8   8
#     4  11  21  38  60  91 122 156 203 251 308 371
#     4  11  23  38  59  85 113 162 201 248 303 371
#     4  11  22  39  62  85 118 160 200 251 300 376
#     4  12  25  40  57  87 123 156 200 247 310 378
#     4  10  19  36  58  82 114 156 204 244 304 371
#     4   8  14  25  46  78 113 147 180 230 298 352
#     4  10  19  35  57  85 120 154 198 252 303 361
#     4  10  19  33  55  85 123 152 194 258 306 359
#
# _framework density 19.197997000000001
#
# number of rings (size 3 to 8) (size 9 to 14) (size 15 to 20)
#    0.000    1.625    3.750    3.750    1.750    2.000 
#    0.000    1.875    0.000    0.000    0.000    0.000 
#    0.000    0.000    0.000    0.000    0.000    0.000 
#
# Total GULP energy -356780.368680 kJ/mol
# GULP energy per Si atom -5574.693261 kJ/mol
# Density = 1.915430 g / cm^3
# Si number density = 19.197997 Si / 1000 Ang^3
#
#
#
# Elastic Constant Matrix: (Units=GPa)
#
#
# Indices 1 2 3 4 5 6 
#
# 1 71.2472 30.8155 16.5829 0.0000 0.0000 1.4299
# 2 30.8155 71.2472 16.5829 0.0000 0.0000 -1.4299
# 3 16.5829 16.5829 23.5376 0.0000 0.0000 0.0000
# 4 0.0000 0.0000 0.0000 25.6827 0.0000 0.0000
# 5 0.0000 0.0000 0.0000 0.0000 25.6827 0.0000
# 6 1.4299 -1.4299 0.0000 0.0000 0.0000 28.4908
#
#
#
# Elastic Compliance Matrix: (Units=1/GPa)
#
#
# Indices 1 2 3 4 5 6 
#
# 1 0.018764 -0.006057 -0.008953 0.000000 0.000000 -0.001246
# 2 -0.006057 0.018764 -0.008953 0.000000 0.000000 0.001246
# 3 -0.008953 -0.008953 0.055100 0.000000 0.000000 0.000000
# 4 0.000000 0.000000 0.000000 0.038937 0.000000 0.000000
# 5 0.000000 0.000000 0.000000 0.000000 0.038937 0.000000
# 6 -0.001246 0.001246 0.000000 0.000000 0.000000 0.035224
#
#
# Mechanical properties :
#
#
# Convention : Reuss Voigt Hill
#
# Bulk Modulus (GPa) = 22.36940 32.66610 27.51775
# Shear Modulus (GPa) = 18.61842 22.77460 20.69651
#
# Velocity S-wave (km/s) = 3.11756 3.44801 3.28694
# Velocity P-wave (km/s) = 4.96348 5.73620 5.36377
#
# Compressibility (1/GPa) = 0.04470392
#
# Stress axis : x y z
#
# Youngs Moduli (GPa) = 53.29319 53.29319 18.14888
#
# Poissons Ratio (x) = 0.32280 0.16248
# Poissons Ratio (y) = 0.32280 0.16248
# Poissons Ratio (z) = 0.47711 0.47711
#
# Static dielectric constant tensor:
#      x y z
#    x 1.720680 0.000000 0.000000 
#    y 0.000000 1.720680 0.000000 
#    z 0.000000 0.000000 1.645360 
# 
# From -- ./inp_files/2472.got.cif
#   From: 2010.05.17/outbox.cif.g08.bks.cpg/sg86_2_cif.got.tgz:2472.got - 2010.06.03 19:03:11.
