data_PCOD9544040
_publ_section_title
;
Structure prediction by ZEFSAII (Michael W. Deem and Ramdas Pophale) SiO2 
 PCOD9544040
Probable space group: P 42/M
;
_chemical_formula_sum "Si O2"
_cell_formula_units_Z 32
_cell_length_a 8.069408
_cell_length_b 8.069408
_cell_length_c 23.704460
_cell_angle_alpha 90.000000
_cell_angle_beta 90.000000
_cell_angle_gamma 90.000000
_cell_volume 1543.524102
_symmetry_space_group_name_H-M "P 42/M"
_symmetry_group_IT_number 84
_symmetry_cell_setting 'tetragonal'
loop_
_space_group_symop_operation_xyz
x,y,z
-y,x,1/2+z
-x,-y,z
y,-x,1/2+z
-x,-y,-z
y,-x,1/2-z
x,y,-z
-y,x,1/2-z
loop_
_atom_site_type_symbol
_atom_site_label
_atom_site_fract_x
_atom_site_fract_y
_atom_site_fract_z
Si Si1 0.382291 0.751507 0.500000
Si Si2 0.243067 0.104197 0.500000
Si Si3 0.087699 0.254581 0.735066
Si Si4 0.500000 0.500000 0.410190
Si Si5 0.230126 0.756818 0.120326
Si Si6 0.500000 0.000000 0.680460
O O1 0.565800 0.833020 0.500000
O O2 0.388356 0.626870 0.447340
O O3 0.253798 0.903681 0.500000
O O4 0.175399 0.180696 0.558525
O O5 0.111355 0.270788 0.668429
O O6 0.899373 0.201233 0.746790
O O7 0.124063 0.409093 0.775764
O O8 0.630485 0.616488 0.379913
O O9 0.077546 0.641293 0.141157
#
# Coordination Sequence:
#
# PCOD9544040 Si02
#       6
#     4   4   8   4   8   4
#     4   8  14  26  42  72 116 150 176 214 266 323
#     4   9  16  30  52  78 110 150 186 218 268 333
#     4   9  20  38  57  77 108 145 183 229 279 330
#     4   9  16  24  43  78 114 140 175 225 268 310
#     4  10  19  32  55  83 113 144 184 227 274 328
#     4  10  20  35  56  79 104 144 186 224 272 334
#
# _framework density 20.731780000000001
#
# number of rings (size 3 to 8) (size 9 to 14) (size 15 to 20)
#    0.000    2.750    0.000    3.750    0.000    4.000 
#    0.000    2.500    0.000   14.250    0.000    0.000 
#    0.000    0.000    0.000    0.000    0.000    0.000 
#
# Total GULP energy -178262.870472 kJ/mol
# GULP energy per Si atom -5570.714702 kJ/mol
# Density = 2.068459 g / cm^3
# Si number density = 20.731780 Si / 1000 Ang^3
#
#
#
# Elastic Constant Matrix: (Units=GPa)
#
#
# Indices 1 2 3 4 5 6 
#
# 1 47.4687 -8.4613 25.6969 0.0000 0.0000 -2.5768
# 2 -8.4613 47.4687 25.6969 0.0000 0.0000 2.5768
# 3 25.6969 25.6969 153.8041 0.0000 0.0000 0.0000
# 4 0.0000 0.0000 0.0000 19.4687 0.0000 0.0000
# 5 0.0000 0.0000 0.0000 0.0000 19.4687 0.0000
# 6 -2.5768 2.5768 0.0000 0.0000 0.0000 3.2778
#
#
#
# Elastic Compliance Matrix: (Units=1/GPa)
#
#
# Indices 1 2 3 4 5 6 
#
# 1 0.026074 0.006798 -0.005492 0.000000 0.000000 0.015153
# 2 0.006798 0.026074 -0.005492 0.000000 0.000000 -0.015153
# 3 -0.005492 -0.005492 0.008337 0.000000 0.000000 0.000000
# 4 0.000000 0.000000 0.000000 0.051365 0.000000 0.000000
# 5 0.000000 0.000000 0.000000 0.000000 0.051365 0.000000
# 6 0.015153 -0.015153 0.000000 0.000000 0.000000 0.328910
#
#
# Mechanical properties :
#
#
# Convention : Reuss Voigt Hill
#
# Bulk Modulus (GPa) = 19.18907 37.17851 28.18379
# Shear Modulus (GPa) = 9.65498 22.16363 15.90931
#
# Velocity S-wave (km/s) = 2.16037 3.27320 2.77318
# Velocity P-wave (km/s) = 3.93686 5.67954 4.88652
#
# Compressibility (1/GPa) = 0.05211299
#
# Stress axis : x y z
#
# Youngs Moduli (GPa) = 38.35231 38.35231 119.94736
#
# Poissons Ratio (x) = -0.26073 0.65877
# Poissons Ratio (y) = -0.26073 0.65877
# Poissons Ratio (z) = 0.21064 0.21064
#
# Static dielectric constant tensor:
#      x y z
#    x 1.765900 0.000000 0.000000 
#    y 0.000000 1.765900 0.000000 
#    z 0.000000 0.000000 1.797880 
# 
# From -- ./inp_files/4761.got.cif
#   From: 2010.05.17/outbox.cif.g08.bks.cpg/sg84_3_cif.got.tgz:4761.got - 2010.06.03 18:57:40.
