data_PCOD9544922
_publ_section_title
;
Structure prediction by ZEFSAII (Michael W. Deem and Ramdas Pophale) SiO2 
 PCOD9544922
Probable space group: P 42/N
;
_chemical_formula_sum "Si O2"
_cell_formula_units_Z 50
_cell_length_a 18.769514
_cell_length_b 18.769514
_cell_length_c 4.983718
_cell_angle_alpha 90.000000
_cell_angle_beta 90.000000
_cell_angle_gamma 90.000000
_cell_volume 1755.737217
_symmetry_space_group_name_H-M "P 42/N"
_symmetry_group_IT_number 86
_space_group.IT_coordinate_system_code '2'
_symmetry_cell_setting 'tetragonal'
loop_
_space_group_symop_operation_xyz
x,y,z
-y,1/2+x,1/2+z
1/2-x,1/2-y,z
1/2+y,-x,1/2+z
-x,-y,-z
y,1/2-x,1/2-z
1/2+x,1/2+y,-z
1/2-y,x,1/2-z
loop_
_atom_site_type_symbol
_atom_site_label
_atom_site_fract_x
_atom_site_fract_y
_atom_site_fract_z
Si Si1 0.613451 0.732868 0.426348
Si Si2 0.728184 0.336828 0.446733
Si Si3 0.497941 0.595735 0.944497
Si Si4 0.529381 0.762375 0.914033
Si Si5 0.250000 0.250000 0.250000
Si Si6 0.067233 0.412807 0.951329
Si Si7 0.623385 0.149060 0.418058
O O1 0.595824 0.746771 0.119111
O O2 0.684344 0.764112 0.551883
O O3 0.613200 0.649173 0.492513
O O4 0.549913 0.767437 0.601608
O O5 0.750000 0.250000 0.481699
O O6 0.798192 0.366458 0.293011
O O7 0.670133 0.354523 0.220977
O O8 0.712466 0.388640 0.704108
O O9 0.495715 0.682514 0.934649
O O10 0.556511 0.569958 0.153881
O O11 0.521322 0.564728 0.659760
O O12 0.420041 0.576947 0.057630
O O13 0.515773 0.845079 0.003865
#
# Coordination Sequence:
#
# PCOD9544922 Si02
#       7
#     8   8   8   8   2   8   8
#     4  10  21  26  44  65  92 124 179 234 290 337
#     4  12  19  35  60  92 120 145 150 187 268 359
#     4  10  23  34  50  81 105 142 191 231 264 321
#     4  10  20  35  46  64  96 143 184 233 275 305
#     4  12  20  26  40  74  88 130 172 238 304 350
#     4  10  19  35  47  65 102 144 188 236 278 304
#     4  12  20  35  56  88 124 141 167 198 258 350
#
# _framework density 28.478068
#
# number of rings (size 3 to 8) (size 9 to 14) (size 15 to 20)
#    0.000    1.280    4.800    2.400    4.480    0.640 
#    0.000    0.000    0.000    0.000    0.000    6.720 
#    0.000    0.000    0.000    0.000    0.000    0.000 
#
# Total GULP energy -278938.084510 kJ/mol
# GULP energy per Si atom -5578.761690 kJ/mol
# Density = 2.841325 g / cm^3
# Si number density = 28.478068 Si / 1000 Ang^3
#
#
#
# Elastic Constant Matrix: (Units=GPa)
#
#
# Indices 1 2 3 4 5 6 
#
# 1 95.8489 21.3314 11.9067 0.0000 0.0000 -8.0395
# 2 21.3314 95.8489 11.9067 0.0000 0.0000 8.0395
# 3 11.9067 11.9067 124.1003 0.0000 0.0000 0.0000
# 4 0.0000 0.0000 0.0000 32.0554 0.0000 0.0000
# 5 0.0000 0.0000 0.0000 0.0000 32.0554 0.0000
# 6 -8.0395 8.0395 0.0000 0.0000 0.0000 30.6672
#
#
#
# Elastic Compliance Matrix: (Units=1/GPa)
#
#
# Indices 1 2 3 4 5 6 
#
# 1 0.011464 -0.002760 -0.000835 0.000000 0.000000 0.003729
# 2 -0.002760 0.011464 -0.000835 0.000000 0.000000 -0.003729
# 3 -0.000835 -0.000835 0.008218 0.000000 0.000000 0.000000
# 4 0.000000 0.000000 0.000000 0.031196 0.000000 0.000000
# 5 0.000000 0.000000 0.000000 0.000000 0.031196 0.000000
# 6 0.003729 -0.003729 0.000000 0.000000 0.000000 0.034563
#
#
# Mechanical properties :
#
#
# Convention : Reuss Voigt Hill
#
# Bulk Modulus (GPa) = 44.87297 45.12085 44.99691
# Shear Modulus (GPa) = 34.62831 36.99917 35.81374
#
# Velocity S-wave (km/s) = 3.49085 3.60837 3.55010
# Velocity P-wave (km/s) = 5.66033 5.76532 5.71307
#
# Compressibility (1/GPa) = 0.02228513
#
# Stress axis : x y z
#
# Youngs Moduli (GPa) = 87.23015 87.23015 121.68061
#
# Poissons Ratio (x) = 0.24079 0.10161
# Poissons Ratio (y) = 0.24079 0.10161
# Poissons Ratio (z) = 0.07284 0.07284
#
# Static dielectric constant tensor:
#      x y z
#    x 2.616340 0.000000 0.000000 
#    y 0.000000 2.616340 0.000000 
#    z 0.000000 0.000000 2.256560 
# 
# From -- ./inp_files/439.got.cif
#   From: 2010.05.17/outbox.cif.g08.bks.cpg/sg86_1_cif.got.tgz:439.got - 2010.06.03 19:03:11.
