data_PCOD9544505
_publ_section_title
;
Structure prediction by ZEFSAII (Michael W. Deem and Ramdas Pophale) SiO2 
 PCOD9544505
Probable space group: P 4/N
;
_chemical_formula_sum "Si O2"
_cell_formula_units_Z 34
_cell_length_a 12.532528
_cell_length_b 12.532528
_cell_length_c 9.759451
_cell_angle_alpha 90.000000
_cell_angle_beta 90.000000
_cell_angle_gamma 90.000000
_cell_volume 1532.860930
_symmetry_space_group_name_H-M "P 4/N"
_symmetry_group_IT_number 85
_symmetry_cell_setting 'tetragonal'
loop_
_space_group_symop_operation_xyz
x,y,z
1/2-y,x,z
1/2-x,1/2-y,z
y,1/2-x,z
-x,-y,-z
1/2+y,-x,-z
1/2+x,1/2+y,-z
-y,1/2+x,-z
loop_
_atom_site_type_symbol
_atom_site_label
_atom_site_fract_x
_atom_site_fract_y
_atom_site_fract_z
Si Si1 0.750000 0.250000 0.500000
Si Si2 0.942573 0.291188 0.683481
Si Si3 0.772692 0.428063 0.019807
Si Si4 0.547856 0.887576 0.553629
Si Si5 0.001685 0.793747 0.734732
O O1 0.855420 0.231642 0.589834
O O2 0.970026 0.235922 0.825912
O O3 0.872469 0.396913 0.719038
O O4 0.041009 0.318801 0.585441
O O5 0.864177 0.337088 0.014370
O O6 0.788322 0.512673 0.897909
O O7 0.481815 0.822159 0.668580
O O8 0.500000 0.000000 0.500000
O O9 0.654779 0.912475 0.637410
#
# Coordination Sequence:
#
# PCOD9544505 Si02
#       5
#     2   8   8   8   8
#     4  12  16  28  66  88 124 148 190 276 312 340
#     4  10  19  32  57  91 114 150 200 257 308 354
#     4   9  18  32  55  87 118 149 193 252 319 357
#     4  10  22  37  58  87 115 158 204 244 299 359
#     4  10  20  38  54  79 125 157 198 243 301 365
#
# _framework density 22.180745999999999
#
# number of rings (size 3 to 8) (size 9 to 14) (size 15 to 20)
#    0.000    2.118    2.353    2.824    0.000    0.471 
#    0.000   12.941    0.000    0.000    0.000    9.882 
#    0.000    0.000    0.000    0.000    0.000    0.000 
#
# Total GULP energy -189446.745754 kJ/mol
# GULP energy per Si atom -5571.963110 kJ/mol
# Density = 2.213026 g / cm^3
# Si number density = 22.180746 Si / 1000 Ang^3
#
#
#
# Elastic Constant Matrix: (Units=GPa)
#
#
# Indices 1 2 3 4 5 6 
#
# 1 41.1979 25.5806 54.1041 0.0000 0.0000 -2.7820
# 2 25.5806 41.1979 54.1041 0.0000 0.0000 2.7820
# 3 54.1041 54.1041 239.4817 0.0000 0.0000 0.0000
# 4 0.0000 0.0000 0.0000 22.4408 0.0000 0.0000
# 5 0.0000 0.0000 0.0000 0.0000 22.4408 0.0000
# 6 -2.7820 2.7820 0.0000 0.0000 0.0000 6.3136
#
#
#
# Elastic Compliance Matrix: (Units=1/GPa)
#
#
# Indices 1 2 3 4 5 6 
#
# 1 0.049789 -0.026167 -0.005337 0.000000 0.000000 0.033469
# 2 -0.026167 0.049789 -0.005337 0.000000 0.000000 -0.033469
# 3 -0.005337 -0.005337 0.006587 0.000000 0.000000 0.000000
# 4 0.000000 0.000000 0.000000 0.044562 0.000000 0.000000
# 5 0.000000 0.000000 0.000000 0.000000 0.044562 0.000000
# 6 0.033469 -0.033469 0.000000 0.000000 0.000000 0.187884
#
#
# Mechanical properties :
#
#
# Convention : Reuss Voigt Hill
#
# Bulk Modulus (GPa) = 30.78327 65.49502 48.13915
# Shear Modulus (GPa) = 10.69103 22.77828 16.73465
#
# Velocity S-wave (km/s) = 2.19782 3.20807 2.74974
# Velocity P-wave (km/s) = 4.51099 6.58135 5.64195
#
# Compressibility (1/GPa) = 0.03248517
#
# Stress axis : x y z
#
# Youngs Moduli (GPa) = 20.08461 20.08461 151.81114
#
# Poissons Ratio (x) = 0.52554 0.81020
# Poissons Ratio (y) = 0.52554 0.81020
# Poissons Ratio (z) = 0.10719 0.10719
#
# Static dielectric constant tensor:
#      x y z
#    x 1.891280 0.000000 0.000000 
#    y 0.000000 1.891280 0.000000 
#    z 0.000000 0.000000 1.833500 
# 
# From -- ./inp_files/772.got.cif
#   From: 2010.05.17/outbox.cif.g08.bks.cpg/sg85_cif.got.tgz:772.got - 2010.06.03 19:01:16.
