data_PCOD9544179
_publ_section_title
;
Structure prediction by ZEFSAII (Michael W. Deem and Ramdas Pophale) SiO2 
 PCOD9544179
Probable space group: P 42/M
;
_chemical_formula_sum "Si O2"
_cell_formula_units_Z 48
_cell_length_a 17.320613
_cell_length_b 17.320613
_cell_length_c 8.152665
_cell_angle_alpha 90.000000
_cell_angle_beta 90.000000
_cell_angle_gamma 90.000000
_cell_volume 2445.829132
_symmetry_space_group_name_H-M "P 42/M"
_symmetry_group_IT_number 84
_symmetry_cell_setting 'tetragonal'
loop_
_space_group_symop_operation_xyz
x,y,z
-y,x,1/2+z
-x,-y,z
y,-x,1/2+z
-x,-y,-z
y,-x,1/2-z
x,y,-z
-y,x,1/2-z
loop_
_atom_site_type_symbol
_atom_site_label
_atom_site_fract_x
_atom_site_fract_y
_atom_site_fract_z
Si Si1 0.239756 0.783513 0.193320
Si Si2 0.721488 0.509560 0.685919
Si Si3 0.895427 0.328749 0.195415
Si Si4 0.935540 0.671458 0.695833
Si Si5 0.652926 0.362183 0.810596
Si Si6 0.116037 0.494803 0.812500
O O1 0.165678 0.735183 0.260277
O O2 0.275556 0.863896 0.258264
O O3 0.308360 0.721321 0.202638
O O4 0.223100 0.797703 0.000000
O O5 0.745290 0.530027 0.500000
O O6 0.695825 0.422042 0.697957
O O7 0.649851 0.563788 0.728906
O O8 0.793242 0.522553 0.802547
O O9 0.889998 0.417873 0.259869
O O10 0.983178 0.304413 0.226372
O O11 0.879107 0.335353 0.000000
O O12 0.939575 0.679833 0.500000
O O13 0.923180 0.579874 0.731693
O O14 0.662223 0.387870 0.000000
O O15 0.089197 0.497807 0.000000
#
# Coordination Sequence:
#
# PCOD9544179 Si02
#       6
#     8   8   8   8   8   8
#     4   9  18  37  59  77 108 151 181 216 275 336
#     4  11  22  35  55  81 109 143 192 243 278 318
#     4  10  21  38  58  81 111 149 187 220 270 339
#     4  11  22  37  58  86 117 145 182 232 280 323
#     4  10  20  38  56  74 107 150 190 228 280 332
#     4  11  21  35  57  83 114 152 186 222 278 339
#
# _framework density 19.625247000000002
#
# number of rings (size 3 to 8) (size 9 to 14) (size 15 to 20)
#    0.000    1.667    3.333    2.000    0.000    5.000 
#    0.000    3.333    0.000    0.500    0.000    3.500 
#    0.000    0.000    0.000    0.000    0.000    0.000 
#
# Total GULP energy -267616.851114 kJ/mol
# GULP energy per Si atom -5575.351065 kJ/mol
# Density = 1.958058 g / cm^3
# Si number density = 19.625247 Si / 1000 Ang^3
#
#
#
# Elastic Constant Matrix: (Units=GPa)
#
#
# Indices 1 2 3 4 5 6 
#
# 1 93.3793 46.7170 7.0940 0.0000 0.0000 -6.8935
# 2 46.7170 93.3793 7.0940 0.0000 0.0000 6.8935
# 3 7.0940 7.0940 12.9501 0.0000 0.0000 0.0000
# 4 0.0000 0.0000 0.0000 -145.6074 0.0000 0.0000
# 5 0.0000 0.0000 0.0000 0.0000 -145.6074 0.0000
# 6 -6.8935 6.8935 0.0000 0.0000 0.0000 14.2991
#
#
#
# Elastic Compliance Matrix: (Units=1/GPa)
#
#
# Indices 1 2 3 4 5 6 
#
# 1 0.016274 -0.008717 -0.004140 0.000000 0.000000 0.012048
# 2 -0.008717 0.016274 -0.004140 0.000000 0.000000 -0.012048
# 3 -0.004140 -0.004140 0.081755 0.000000 0.000000 0.000000
# 4 0.000000 0.000000 0.000000 -0.006868 0.000000 0.000000
# 5 0.000000 0.000000 0.000000 0.000000 -0.006868 0.000000
# 6 0.012048 -0.012048 0.000000 0.000000 0.000000 0.081551
#
#
# Mechanical properties :
#
#
# Convention : Reuss Voigt Hill
#
# Bulk Modulus (GPa) = 12.45170 35.72429 24.08799
# Shear Modulus (GPa) = 20.58631 -46.12955 -12.77162
#
# Velocity S-wave (km/s) = 3.24230 -4.85348 -2.55380
# Velocity P-wave (km/s) = 4.51388 3.62844 1.89863
#
# Compressibility (1/GPa) = 0.08031030
#
# Stress axis : x y z
#
# Youngs Moduli (GPa) = 61.44880 61.44880 12.23166
#
# Poissons Ratio (x) = 0.53562 0.05064
# Poissons Ratio (y) = 0.53562 0.05064
# Poissons Ratio (z) = 0.25439 0.25439
#
# Static dielectric constant tensor:
#      x y z
#    x 1.708800 0.000000 0.000000 
#    y 0.000000 1.708800 0.000000 
#    z 0.000000 0.000000 1.722460 
# 
# From -- ./inp_files/1012.got.cif
#   From: 2010.05.17/outbox.cif.g08.bks.cpg/sg84_1_cif.got.tgz:1012.got - 2010.06.03 18:57:40.
