data_PCOD9544297
_publ_section_title
;
Structure prediction by ZEFSAII (Michael W. Deem and Ramdas Pophale) SiO2 
 PCOD9544297
Probable space group: P 42/M
;
_chemical_formula_sum "Si O2"
_cell_formula_units_Z 48
_cell_length_a 9.085238
_cell_length_b 9.085238
_cell_length_c 27.380295
_cell_angle_alpha 90.000000
_cell_angle_beta 90.000000
_cell_angle_gamma 90.000000
_cell_volume 2260.011976
_symmetry_space_group_name_H-M "P 42/M"
_symmetry_group_IT_number 84
_symmetry_cell_setting 'tetragonal'
loop_
_space_group_symop_operation_xyz
x,y,z
-y,x,1/2+z
-x,-y,z
y,-x,1/2+z
-x,-y,-z
y,-x,1/2-z
x,y,-z
-y,x,1/2-z
loop_
_atom_site_type_symbol
_atom_site_label
_atom_site_fract_x
_atom_site_fract_y
_atom_site_fract_z
Si Si1 0.430060 0.848658 0.944144
Si Si2 0.762465 0.869623 0.676684
Si Si3 0.639203 0.425004 0.882147
Si Si4 0.194283 0.302424 0.864777
Si Si5 0.651091 0.692721 0.761955
Si Si6 0.993646 0.837859 0.403650
O O1 0.436203 0.687642 0.920125
O O2 0.500000 0.000000 0.921850
O O3 0.259629 0.890604 0.937201
O O4 0.478751 0.840024 0.000000
O O5 0.671586 0.736527 0.653142
O O6 0.735997 0.825239 0.732804
O O7 0.921117 0.851161 0.650799
O O8 0.701189 0.027223 0.657378
O O9 0.500000 0.500000 0.856880
O O10 0.754104 0.554708 0.895152
O O11 0.298697 0.291433 0.817693
O O12 0.216149 0.158966 0.897523
O O13 0.700890 0.526109 0.746050
O O14 0.000000 0.000000 0.424371
#
# Coordination Sequence:
#
# PCOD9544297 Si02
#       6
#     8   8   8   8   8   8
#     4  10  22  41  66  96 125 155 200 251 313 394
#     4  10  22  39  57  85 117 165 210 258 303 359
#     4  11  21  38  63  87 124 159 199 249 317 370
#     4  11  22  38  61  85 120 163 211 262 305 368
#     4  11  23  37  53  81 122 163 207 257 304 361
#     4   9  21  41  62  88 120 163 205 254 311 370
#
# _framework density 21.238824000000001
#
# number of rings (size 3 to 8) (size 9 to 14) (size 15 to 20)
#    0.000    1.667    1.667    2.500    2.333    2.000 
#    0.000    0.833    0.000   13.000    0.000    0.000 
#    0.000    0.000    0.000    0.000    0.000    0.000 
#
# Total GULP energy -267300.027255 kJ/mol
# GULP energy per Si atom -5568.750568 kJ/mol
# Density = 2.119048 g / cm^3
# Si number density = 21.238824 Si / 1000 Ang^3
#
#
#
# Elastic Constant Matrix: (Units=GPa)
#
#
# Indices 1 2 3 4 5 6 
#
# 1 78.9230 0.1565 0.9446 0.0000 0.0000 -15.0696
# 2 0.1565 78.9230 0.9446 0.0000 0.0000 15.0696
# 3 0.9446 0.9446 21.5121 0.0000 0.0000 0.0000
# 4 0.0000 0.0000 0.0000 4.6417 0.0000 0.0000
# 5 0.0000 0.0000 0.0000 0.0000 4.6417 0.0000
# 6 -15.0696 15.0696 0.0000 0.0000 0.0000 36.8837
#
#
#
# Elastic Compliance Matrix: (Units=1/GPa)
#
#
# Indices 1 2 3 4 5 6 
#
# 1 0.013854 -0.001195 -0.000556 0.000000 0.000000 0.006148
# 2 -0.001195 0.013854 -0.000556 0.000000 0.000000 -0.006148
# 3 -0.000556 -0.000556 0.046534 0.000000 0.000000 0.000000
# 4 0.000000 0.000000 0.000000 0.215439 0.000000 0.000000
# 5 0.000000 0.000000 0.000000 0.000000 0.215439 0.000000
# 6 0.006148 -0.006148 0.000000 0.000000 0.000000 0.032136
#
#
# Mechanical properties :
#
#
# Convention : Reuss Voigt Hill
#
# Bulk Modulus (GPa) = 14.36194 20.38327 17.37261
# Shear Modulus (GPa) = 8.84834 21.05425 14.95129
#
# Velocity S-wave (km/s) = 2.04332 3.15192 2.65610
# Velocity P-wave (km/s) = 3.51336 4.78165 4.19570
#
# Compressibility (1/GPa) = 0.06962847
#
# Stress axis : x y z
#
# Youngs Moduli (GPa) = 72.18361 72.18361 21.48956
#
# Poissons Ratio (x) = 0.08624 0.01194
# Poissons Ratio (y) = 0.08624 0.01194
# Poissons Ratio (z) = 0.04012 0.04012
#
# Static dielectric constant tensor:
#      x y z
#    x 1.842520 0.000000 0.000000 
#    y 0.000000 1.842520 0.000000 
#    z 0.000000 0.000000 1.816610 
# 
# From -- ./inp_files/5741.got.cif
#   From: 2010.05.17/outbox.cif.g08.bks.cpg/sg84_3_cif.got.tgz:5741.got - 2010.06.03 18:57:40.
