data_PCOD9544161
_publ_section_title
;
Structure prediction by ZEFSAII (Michael W. Deem and Ramdas Pophale) SiO2 
 PCOD9544161
Probable space group: P 42/M
;
_chemical_formula_sum "Si O2"
_cell_formula_units_Z 48
_cell_length_a 13.556003
_cell_length_b 13.556003
_cell_length_c 12.903950
_cell_angle_alpha 90.000000
_cell_angle_beta 90.000000
_cell_angle_gamma 90.000000
_cell_volume 2371.297176
_symmetry_space_group_name_H-M "P 42/M"
_symmetry_group_IT_number 84
_symmetry_cell_setting 'tetragonal'
loop_
_space_group_symop_operation_xyz
x,y,z
-y,x,1/2+z
-x,-y,z
y,-x,1/2+z
-x,-y,-z
y,-x,1/2-z
x,y,-z
-y,x,1/2-z
loop_
_atom_site_type_symbol
_atom_site_label
_atom_site_fract_x
_atom_site_fract_y
_atom_site_fract_z
Si Si1 0.433921 0.737347 0.876982
Si Si2 0.727884 0.851196 0.111357
Si Si3 0.909950 0.873337 0.763167
Si Si4 0.608836 0.955814 0.613522
Si Si5 0.326327 0.937976 0.819712
Si Si6 0.742445 0.386602 0.783216
O O1 0.397407 0.851041 0.857420
O O2 0.346509 0.659981 0.849075
O O3 0.518751 0.719716 0.789948
O O4 0.460468 0.728400 0.000000
O O5 0.842103 0.867363 0.136313
O O6 0.692911 0.777689 0.199066
O O7 0.674011 0.957759 0.120014
O O8 0.709338 0.808073 0.000000
O O9 0.895233 0.783901 0.684096
O O10 0.024466 0.879605 0.789669
O O11 0.656422 0.961792 0.500000
O O12 0.599301 0.841808 0.648927
O O13 0.500000 0.000000 0.606655
O O14 0.656897 0.023528 0.702269
#
# Coordination Sequence:
#
# PCOD9544161 Si02
#       6
#     8   8   8   8   8   8
#     4  12  25  45  68  91 124 168 208 262 331 380
#     4  10  20  36  62  93 126 165 210 261 313 366
#     4   9  18  35  56  83 131 171 204 251 301 365
#     4  10  20  38  65  97 129 164 205 258 319 364
#     4  10  20  38  60  94 130 166 210 257 301 379
#     4  11  24  44  63  95 128 159 212 266 314 389
#
# _framework density 20.242084999999999
#
# number of rings (size 3 to 8) (size 9 to 14) (size 15 to 20)
#    0.000    1.667    3.333    1.500    0.000    1.000 
#    0.000   14.167    0.000    0.000    0.000    0.000 
#    0.000    0.000    0.000    0.000    0.000    0.000 
#
# Total GULP energy -267517.658986 kJ/mol
# GULP energy per Si atom -5573.284562 kJ/mol
# Density = 2.019601 g / cm^3
# Si number density = 20.242085 Si / 1000 Ang^3
#
#
#
# Elastic Constant Matrix: (Units=GPa)
#
#
# Indices 1 2 3 4 5 6 
#
# 1 47.9243 24.7702 14.6803 0.0000 0.0000 16.5712
# 2 24.7702 47.9243 14.6803 0.0000 0.0000 -16.5712
# 3 14.6803 14.6803 113.2774 0.0000 0.0000 0.0000
# 4 0.0000 0.0000 0.0000 11.3112 0.0000 0.0000
# 5 0.0000 0.0000 0.0000 0.0000 11.3112 0.0000
# 6 16.5712 -16.5712 0.0000 0.0000 0.0000 12.9000
#
#
#
# Elastic Compliance Matrix: (Units=1/GPa)
#
#
# Indices 1 2 3 4 5 6 
#
# 1 -0.018489 0.033005 -0.001881 0.000000 0.000000 0.066148
# 2 0.033005 -0.018489 -0.001881 0.000000 0.000000 -0.066148
# 3 -0.001881 -0.001881 0.009315 0.000000 0.000000 0.000000
# 4 0.000000 0.000000 0.000000 0.088408 0.000000 0.000000
# 5 0.000000 0.000000 0.000000 0.000000 0.088408 0.000000
# 6 0.066148 -0.066148 0.000000 0.000000 0.000000 -0.092425
#
#
# Mechanical properties :
#
#
# Convention : Reuss Voigt Hill
#
# Bulk Modulus (GPa) = 32.44369 35.26527 33.85448
# Shear Modulus (GPa) = 587.00310 17.43752 302.22031
#
# Velocity S-wave (km/s) = 17.04761 2.93823 12.23221
# Velocity P-wave (km/s) = 20.08873 5.38243 14.70591
#
# Compressibility (1/GPa) = 0.03082263
#
# Stress axis : x y z
#
# Youngs Moduli (GPa) = -54.08694 -54.08694 107.34821
#
# Poissons Ratio (x) = 1.78513 0.20194
# Poissons Ratio (y) = 1.78513 0.20194
# Poissons Ratio (z) = -0.10175 -0.10175
#
# Static dielectric constant tensor:
#      x y z
#    x 1.764880 0.000000 0.000000 
#    y 0.000000 1.764880 0.000000 
#    z 0.000000 0.000000 1.766390 
# 
# From -- ./inp_files/2183.got.cif
#   From: 2010.05.17/outbox.cif.g08.bks.cpg/sg84_2_cif.got.tgz:2183.got - 2010.06.03 18:57:40.
