data_PCOD9544708
_publ_section_title
;
Structure prediction by ZEFSAII (Michael W. Deem and Ramdas Pophale) SiO2 
 PCOD9544708
Probable space group: P 4/N
;
_chemical_formula_sum "Si O2"
_cell_formula_units_Z 50
_cell_length_a 14.877903
_cell_length_b 14.877903
_cell_length_c 11.475594
_cell_angle_alpha 90.000000
_cell_angle_beta 90.000000
_cell_angle_gamma 90.000000
_cell_volume 2540.145656
_symmetry_space_group_name_H-M "P 4/N"
_symmetry_group_IT_number 85
_symmetry_cell_setting 'tetragonal'
loop_
_space_group_symop_operation_xyz
x,y,z
1/2-y,x,z
1/2-x,1/2-y,z
y,1/2-x,z
-x,-y,-z
1/2+y,-x,-z
1/2+x,1/2+y,-z
-y,1/2+x,-z
loop_
_atom_site_type_symbol
_atom_site_label
_atom_site_fract_x
_atom_site_fract_y
_atom_site_fract_z
Si Si1 0.469258 0.972895 0.132066
Si Si2 0.750000 0.250000 0.000000
Si Si3 0.948551 0.275820 0.901106
Si Si4 0.889455 0.409609 0.258343
Si Si5 0.617757 0.316879 0.495028
Si Si6 0.102155 0.258773 0.091340
Si Si7 0.029553 0.779647 0.745898
O O1 0.486908 0.867670 0.152136
O O2 0.364864 0.974136 0.168163
O O3 0.522865 0.039133 0.215393
O O4 0.500000 0.000000 0.000000
O O5 0.781592 0.157291 0.063688
O O6 0.950555 0.192126 0.815023
O O7 0.014362 0.264051 0.010694
O O8 0.870492 0.419050 0.394719
O O9 0.900464 0.302495 0.232737
O O10 0.714742 0.360065 0.464226
O O11 0.554091 0.312684 0.382980
O O12 0.158758 0.168910 0.068284
O O13 0.067241 0.262967 0.224624
#
# Coordination Sequence:
#
# PCOD9544708 Si02
#       7
#     8   2   8   8   8   8   8
#     4  12  24  37  58  89 121 154 194 240 291 352
#     4  12  24  32  56  88 118 156 188 228 304 366
#     4  12  22  37  56  85 121 152 191 242 296 354
#     4  11  23  39  61  87 118 156 195 239 294 349
#     4   9  20  38  60  87 117 152 195 241 292 349
#     4  11  23  39  60  84 115 160 204 241 287 345
#     4  11  21  38  60  84 118 152 192 244 294 347
#
# _framework density 19.683911999999999
#
# number of rings (size 3 to 8) (size 9 to 14) (size 15 to 20)
#    0.000    0.960    0.000    9.600    0.000    3.200 
#    0.000    1.600    0.000    0.000    0.000    2.240 
#    0.000    0.000    0.000    0.000    0.000    0.000 
#
# Total GULP energy -278939.617050 kJ/mol
# GULP energy per Si atom -5578.792341 kJ/mol
# Density = 1.963911 g / cm^3
# Si number density = 19.683912 Si / 1000 Ang^3
#
#
#
# Elastic Constant Matrix: (Units=GPa)
#
#
# Indices 1 2 3 4 5 6 
#
# 1 108.9642 33.6913 50.2868 0.0000 0.0000 2.0247
# 2 33.6913 108.9642 50.2868 0.0000 0.0000 -2.0247
# 3 50.2868 50.2868 82.5425 0.0000 0.0000 0.0000
# 4 0.0000 0.0000 0.0000 28.5436 0.0000 0.0000
# 5 0.0000 0.0000 0.0000 0.0000 28.5436 0.0000
# 6 2.0247 -2.0247 0.0000 0.0000 0.0000 30.4716
#
#
#
# Elastic Compliance Matrix: (Units=1/GPa)
#
#
# Indices 1 2 3 4 5 6 
#
# 1 0.012810 -0.000523 -0.007486 0.000000 0.000000 -0.000886
# 2 -0.000523 0.012810 -0.007486 0.000000 0.000000 0.000886
# 3 -0.007486 -0.007486 0.021236 0.000000 0.000000 0.000000
# 4 0.000000 0.000000 0.000000 0.035034 0.000000 0.000000
# 5 0.000000 0.000000 0.000000 0.000000 0.035034 0.000000
# 6 -0.000886 0.000886 0.000000 0.000000 0.000000 0.032935
#
#
# Mechanical properties :
#
#
# Convention : Reuss Voigt Hill
#
# Bulk Modulus (GPa) = 63.02101 63.22231 63.12166
# Shear Modulus (GPa) = 26.86190 28.59216 27.72703
#
# Velocity S-wave (km/s) = 3.69814 3.81539 3.75722
# Velocity P-wave (km/s) = 7.09373 7.18318 7.13860
#
# Compressibility (1/GPa) = 0.01586772
#
# Stress axis : x y z
#
# Youngs Moduli (GPa) = 78.06368 78.06368 47.08977
#
# Poissons Ratio (x) = 0.04080 0.35250
# Poissons Ratio (y) = 0.04080 0.35250
# Poissons Ratio (z) = 0.58437 0.58437
#
# Static dielectric constant tensor:
#      x y z
#    x 1.733160 0.000000 0.000000 
#    y 0.000000 1.733160 0.000000 
#    z 0.000000 0.000000 1.695180 
# 
# From -- ./inp_files/1669.got.cif
#   From: 2010.05.17/outbox.cif.g08.bks.cpg/sg85_cif.got.tgz:1669.got - 2010.06.03 19:01:16.
