data_PCOD9544445
_publ_section_title
;
Structure prediction by ZEFSAII (Michael W. Deem and Ramdas Pophale) SiO2 
 PCOD9544445
Probable space group: P 42/M
;
_chemical_formula_sum "Si O2"
_cell_formula_units_Z 18
_cell_length_a 6.621308
_cell_length_b 6.621308
_cell_length_c 12.653054
_cell_angle_alpha 90.000000
_cell_angle_beta 90.000000
_cell_angle_gamma 90.000000
_cell_volume 554.731646
_symmetry_space_group_name_H-M "P 42/M"
_symmetry_group_IT_number 84
_symmetry_cell_setting 'tetragonal'
loop_
_space_group_symop_operation_xyz
x,y,z
-y,x,1/2+z
-x,-y,z
y,-x,1/2+z
-x,-y,-z
y,-x,1/2-z
x,y,-z
-y,x,1/2-z
loop_
_atom_site_type_symbol
_atom_site_label
_atom_site_fract_x
_atom_site_fract_y
_atom_site_fract_z
Si Si1 0.655910 0.129529 0.343843
Si Si2 0.674289 0.629390 0.379564
Si Si3 0.000000 0.000000 0.000000
O O1 0.608062 0.381040 0.372700
O O2 0.647822 0.166852 0.217237
O O3 0.602433 0.875900 0.368532
O O4 0.862694 0.112537 0.408062
O O5 0.754947 0.641830 0.500000
#
# Coordination Sequence:
#
# PCOD9544445 Si02
#       3
#     8   8   2
#     4  12  26  51  86 133 189 245 322 395 480 594
#     4  11  24  52  89 121 171 243 314 394 479 575
#     4  12  30  52  86 136 204 254 318 412 494 586
#
# _framework density 32.448124
#
# number of rings (size 3 to 8) (size 9 to 14) (size 15 to 20)
#    0.000    0.444    6.667    0.667    0.000    4.444 
#    0.000    1.111    0.000    2.667    0.000    0.000 
#    0.000    0.000    0.000    0.000    0.000    0.000 
#
# Total GULP energy -100213.885932 kJ/mol
# GULP energy per Si atom -5567.438107 kJ/mol
# Density = 3.237427 g / cm^3
# Si number density = 32.448124 Si / 1000 Ang^3
#
#
#
# Elastic Constant Matrix: (Units=GPa)
#
#
# Indices 1 2 3 4 5 6 
#
# 1 261.2652 166.0296 122.6221 0.0000 0.0000 -2.2718
# 2 166.0296 261.2652 122.6221 0.0000 0.0000 2.2718
# 3 122.6221 122.6221 406.0765 0.0000 0.0000 0.0000
# 4 0.0000 0.0000 0.0000 36.4848 0.0000 0.0000
# 5 0.0000 0.0000 0.0000 0.0000 36.4848 0.0000
# 6 -2.2718 2.2718 0.0000 0.0000 0.0000 139.6121
#
#
#
# Elastic Compliance Matrix: (Units=1/GPa)
#
#
# Indices 1 2 3 4 5 6 
#
# 1 0.006670 -0.003839 -0.000855 0.000000 0.000000 0.000171
# 2 -0.003839 0.006670 -0.000855 0.000000 0.000000 -0.000171
# 3 -0.000855 -0.000855 0.002979 0.000000 0.000000 0.000000
# 4 0.000000 0.000000 0.000000 0.027409 0.000000 0.000000
# 5 0.000000 0.000000 0.000000 0.000000 0.027409 0.000000
# 6 0.000171 -0.000171 0.000000 0.000000 0.000000 0.007168
#
#
# Mechanical properties :
#
#
# Convention : Reuss Voigt Hill
#
# Bulk Modulus (GPa) = 191.52177 194.57274 193.04725
# Shear Modulus (GPa) = 54.85988 77.00519 65.93254
#
# Velocity S-wave (km/s) = 4.11627 4.87681 4.51259
# Velocity P-wave (km/s) = 9.04122 9.58152 9.31529
#
# Compressibility (1/GPa) = 0.00522134
#
# Stress axis : x y z
#
# Youngs Moduli (GPa) = 149.93204 149.93204 335.69804
#
# Poissons Ratio (x) = 0.57555 0.28697
# Poissons Ratio (y) = 0.57555 0.28697
# Poissons Ratio (z) = 0.12817 0.12817
#
# Static dielectric constant tensor:
#      x y z
#    x 3.186580 0.000000 0.000000 
#    y 0.000000 3.186580 0.000000 
#    z 0.000000 0.000000 2.134630 
# 
# From -- ./inp_files/1583.got.cif
#   From: 2010.05.17/outbox.cif.g08.bks.cpg/sg84_1_cif.got.tgz:1583.got - 2010.06.03 18:57:40.
