data_PCOD9544121
_publ_section_title
;
Structure prediction by ZEFSAII (Michael W. Deem and Ramdas Pophale) SiO2 
 PCOD9544121
Probable space group: P 42/M
;
_chemical_formula_sum "Si O2"
_cell_formula_units_Z 32
_cell_length_a 11.332465
_cell_length_b 11.332465
_cell_length_c 9.522802
_cell_angle_alpha 90.000000
_cell_angle_beta 90.000000
_cell_angle_gamma 90.000000
_cell_volume 1222.963590
_symmetry_space_group_name_H-M "P 42/M"
_symmetry_group_IT_number 84
_symmetry_cell_setting 'tetragonal'
loop_
_space_group_symop_operation_xyz
x,y,z
-y,x,1/2+z
-x,-y,z
y,-x,1/2+z
-x,-y,-z
y,-x,1/2-z
x,y,-z
-y,x,1/2-z
loop_
_atom_site_type_symbol
_atom_site_label
_atom_site_fract_x
_atom_site_fract_y
_atom_site_fract_z
Si Si1 0.000000 0.000000 0.750000
Si Si2 0.500000 0.000000 0.755491
Si Si3 0.321396 0.584609 0.000000
Si Si4 0.077238 0.247324 0.204865
Si Si5 0.322435 0.736848 0.500000
Si Si6 0.808773 0.491767 0.500000
Si Si7 0.500000 0.500000 0.250000
Si Si8 0.810067 0.754801 0.500000
O O1 0.875694 0.014553 0.667240
O O2 0.626023 0.017459 0.681325
O O3 0.483106 0.110299 0.862653
O O4 0.398701 0.292891 0.000000
O O5 0.400917 0.558057 0.145307
O O6 0.245847 0.459995 0.000000
O O7 0.105887 0.236644 0.368653
O O8 0.202277 0.257811 0.130225
O O9 0.323241 0.204416 0.500000
O O10 0.753313 0.621000 0.500000
#
# Coordination Sequence:
#
# PCOD9544121 Si02
#       8
#     2   4   4   8   4   4   2   4
#     4  12  28  50  76 106 144 190 244 306 364 430
#     4   9  20  43  70  94 124 174 234 292 348 422
#     4  11  22  38  62  97 144 186 236 296 362 430
#     4  11  26  44  70 100 135 181 237 295 359 427
#     4  12  25  38  62 101 140 182 225 287 360 428
#     4   9  18  39  65  87 124 176 229 269 340 442
#     4  10  20  34  60  98 140 194 244 298 360 430
#     4  10  23  43  67  98 132 183 236 288 350 428
#
# _framework density 26.165948
#
# number of rings (size 3 to 8) (size 9 to 14) (size 15 to 20)
#    0.000    1.500    0.000    5.250    0.000   11.500 
#    0.000    0.000    0.000    0.000    0.000    0.000 
#    0.000    0.000    0.000    0.000    0.000    0.000 
#
# Total GULP energy -178716.603586 kJ/mol
# GULP energy per Si atom -5584.893862 kJ/mol
# Density = 2.610639 g / cm^3
# Si number density = 26.165948 Si / 1000 Ang^3
#
#
#
# Elastic Constant Matrix: (Units=GPa)
#
#
# Indices 1 2 3 4 5 6 
#
# 1 142.2140 32.6023 9.9090 0.0000 0.0000 10.0810
# 2 32.6023 142.2140 9.9090 0.0000 0.0000 -10.0810
# 3 9.9090 9.9090 126.3473 0.0000 0.0000 0.0000
# 4 0.0000 0.0000 0.0000 -8.8175 0.0000 0.0000
# 5 0.0000 0.0000 0.0000 0.0000 -8.8175 0.0000
# 6 10.0810 -10.0810 0.0000 0.0000 0.0000 31.6694
#
#
#
# Elastic Compliance Matrix: (Units=1/GPa)
#
#
# Indices 1 2 3 4 5 6 
#
# 1 0.007731 -0.001959 -0.000453 0.000000 0.000000 -0.003085
# 2 -0.001959 0.007731 -0.000453 0.000000 0.000000 0.003085
# 3 -0.000453 -0.000453 0.007986 0.000000 0.000000 0.000000
# 4 0.000000 0.000000 0.000000 -0.113411 0.000000 0.000000
# 5 0.000000 0.000000 0.000000 0.000000 -0.113411 0.000000
# 6 -0.003085 0.003085 0.000000 0.000000 0.000000 0.033540
#
#
# Mechanical properties :
#
#
# Convention : Reuss Voigt Hill
#
# Bulk Modulus (GPa) = 56.43877 57.29063 56.86470
# Shear Modulus (GPa) = -31.60593 26.69720 -2.45436
#
# Velocity S-wave (km/s) = -3.47926 3.19768 -0.96955
# Velocity P-wave (km/s) = 2.34009 5.96458 4.53058
#
# Compressibility (1/GPa) = 0.01771832
#
# Stress axis : x y z
#
# Youngs Moduli (GPa) = 129.34841 129.34841 125.22393
#
# Poissons Ratio (x) = 0.25345 0.05668
# Poissons Ratio (y) = 0.25345 0.05668
# Poissons Ratio (z) = 0.05855 0.05855
#
# Static dielectric constant tensor:
#      x y z
#    x 2.275040 0.000000 0.000000 
#    y 0.000000 2.275040 0.000000 
#    z 0.000000 0.000000 1.938560 
# 
# From -- ./inp_files/1933.got.cif
#   From: 2010.05.17/outbox.cif.g08.bks.cpg/sg84_1_cif.got.tgz:1933.got - 2010.06.03 18:57:40.
