data_PCOD9544126
_publ_section_title
;
Structure prediction by ZEFSAII (Michael W. Deem and Ramdas Pophale) SiO2 
 PCOD9544126
Probable space group: P 42/M
;
_chemical_formula_sum "Si O2"
_cell_formula_units_Z 40
_cell_length_a 16.237396
_cell_length_b 16.237396
_cell_length_c 8.603272
_cell_angle_alpha 90.000000
_cell_angle_beta 90.000000
_cell_angle_gamma 90.000000
_cell_volume 2268.278721
_symmetry_space_group_name_H-M "P 42/M"
_symmetry_group_IT_number 84
_symmetry_cell_setting 'tetragonal'
loop_
_space_group_symop_operation_xyz
x,y,z
-y,x,1/2+z
-x,-y,z
y,-x,1/2+z
-x,-y,-z
y,-x,1/2-z
x,y,-z
-y,x,1/2-z
loop_
_atom_site_type_symbol
_atom_site_label
_atom_site_fract_x
_atom_site_fract_y
_atom_site_fract_z
Si Si1 0.657336 0.682781 0.812385
Si Si2 0.111933 0.061804 0.315207
Si Si3 0.081093 0.549829 0.187897
Si Si4 0.138009 0.721141 0.686214
Si Si5 0.486521 0.739968 0.312544
O O1 0.703695 0.767085 0.765965
O O2 0.703367 0.600400 0.758899
O O3 0.564565 0.689631 0.750264
O O4 0.654654 0.682008 0.000000
O O5 0.103658 0.065583 0.500000
O O6 0.196673 0.102459 0.261296
O O7 0.033140 0.106297 0.238760
O O8 0.087927 0.640440 0.260211
O O9 0.164826 0.501693 0.232426
O O10 0.000000 0.500000 0.235046
O O11 0.080242 0.557810 0.000000
O O12 0.135002 0.728250 0.500000
O O13 0.487733 0.736704 0.500000
#
# Coordination Sequence:
#
# PCOD9544126 Si02
#       5
#     8   8   8   8   8
#     4   9  19  34  51  73 103 137 171 212 261 310
#     4  11  22  38  58  81 109 140 176 216 260 310
#     4   9  18  33  53  76 102 136 177 219 264 315
#     4  10  20  35  54  78 108 140 175 216 264 316
#     4   9  18  33  51  72  99 131 170 213 257 308
#
# _framework density 17.634516999999999
#
# number of rings (size 3 to 8) (size 9 to 14) (size 15 to 20)
#    0.000    2.400    0.000    3.000    0.000    4.000 
#    0.000    6.000    0.000    0.000    0.000    0.000 
#    0.000    0.000    0.000    0.000    0.000    0.000 
#
# Total GULP energy -223215.000212 kJ/mol
# GULP energy per Si atom -5580.375005 kJ/mol
# Density = 1.759438 g / cm^3
# Si number density = 17.634517 Si / 1000 Ang^3
#
#
#
# Elastic Constant Matrix: (Units=GPa)
#
#
# Indices 1 2 3 4 5 6 
#
# 1 115.3691 76.8290 11.1393 0.0000 0.0000 18.7867
# 2 76.8290 115.3691 11.1393 0.0000 0.0000 -18.7867
# 3 11.1393 11.1393 21.2118 0.0000 0.0000 0.0000
# 4 0.0000 0.0000 0.0000 28.4034 0.0000 0.0000
# 5 0.0000 0.0000 0.0000 0.0000 28.4034 0.0000
# 6 18.7867 -18.7867 0.0000 0.0000 0.0000 30.7059
#
#
#
# Elastic Compliance Matrix: (Units=1/GPa)
#
#
# Indices 1 2 3 4 5 6 
#
# 1 0.034921 -0.029381 -0.002909 0.000000 0.000000 -0.039342
# 2 -0.029381 0.034921 -0.002909 0.000000 0.000000 0.039342
# 3 -0.002909 -0.002909 0.050199 0.000000 0.000000 0.000000
# 4 0.000000 0.000000 0.000000 0.035207 0.000000 0.000000
# 5 0.000000 0.000000 0.000000 0.000000 0.035207 0.000000
# 6 -0.039342 0.039342 0.000000 0.000000 0.000000 0.080708
#
#
# Mechanical properties :
#
#
# Convention : Reuss Voigt Hill
#
# Bulk Modulus (GPa) = 20.14423 50.01834 35.08128
# Shear Modulus (GPa) = 13.96219 27.69206 20.82712
#
# Velocity S-wave (km/s) = 2.81686 3.96704 3.44036
# Velocity P-wave (km/s) = 4.69336 7.02913 5.97647
#
# Compressibility (1/GPa) = 0.04964201
#
# Stress axis : x y z
#
# Youngs Moduli (GPa) = 28.63595 28.63595 19.92063
#
# Poissons Ratio (x) = 0.84135 0.05796
# Poissons Ratio (y) = 0.84135 0.05796
# Poissons Ratio (z) = 0.08331 0.08331
#
# Static dielectric constant tensor:
#      x y z
#    x 1.581100 0.000000 0.000000 
#    y 0.000000 1.581100 0.000000 
#    z 0.000000 0.000000 1.600390 
# 
# From -- ./inp_files/734.got.cif
#   From: 2010.05.17/outbox.cif.g08.bks.cpg/sg84_1_cif.got.tgz:734.got - 2010.06.03 18:57:40.
