data_PCOD9544410
_publ_section_title
;
Structure prediction by ZEFSAII (Michael W. Deem and Ramdas Pophale) SiO2 
 PCOD9544410
Probable space group: P 42/M
;
_chemical_formula_sum "Si O2"
_cell_formula_units_Z 40
_cell_length_a 9.040838
_cell_length_b 9.040838
_cell_length_c 22.567229
_cell_angle_alpha 90.000000
_cell_angle_beta 90.000000
_cell_angle_gamma 90.000000
_cell_volume 1844.571994
_symmetry_space_group_name_H-M "P 42/M"
_symmetry_group_IT_number 84
_symmetry_cell_setting 'tetragonal'
loop_
_space_group_symop_operation_xyz
x,y,z
-y,x,1/2+z
-x,-y,z
y,-x,1/2+z
-x,-y,-z
y,-x,1/2-z
x,y,-z
-y,x,1/2-z
loop_
_atom_site_type_symbol
_atom_site_label
_atom_site_fract_x
_atom_site_fract_y
_atom_site_fract_z
Si Si1 0.666490 0.467689 0.067609
Si Si2 0.341487 0.072278 0.069815
Si Si3 0.844138 0.689809 0.132881
Si Si4 0.869607 0.794634 0.258023
Si Si5 0.200376 0.176749 0.609304
O O1 0.500000 0.500000 0.089083
O O2 0.800910 0.534308 0.105406
O O3 0.709729 0.297181 0.071066
O O4 0.674107 0.521713 0.000000
O O5 0.292228 0.212550 0.108038
O O6 0.500000 0.000000 0.086792
O O7 0.206221 0.960996 0.083285
O O8 0.348746 0.107261 0.000000
O O9 0.843233 0.684830 0.203959
O O10 0.004089 0.751772 0.111721
O O11 0.800932 0.769430 0.322109
O O12 0.045972 0.813039 0.265340
#
# Coordination Sequence:
#
# PCOD9544410 Si02
#       5
#     8   8   8   8   8
#     4  11  25  45  63  87 131 173 208 263 332 387
#     4  11  23  39  61  93 129 165 208 259 320 383
#     4  11  22  40  64  94 123 166 218 267 315 379
#     4   9  18  38  63  90 128 160 201 262 317 364
#     4  11  22  40  64  94 123 166 218 267 315 379
#
# _framework density 21.685248000000001
#
# number of rings (size 3 to 8) (size 9 to 14) (size 15 to 20)
#    0.000    1.400    2.000    3.600    0.000    8.000 
#    7.200    0.000    0.000    0.000    0.000    0.000 
#    0.000    0.000    0.000    0.000    0.000    0.000 
#
# Total GULP energy -223255.254287 kJ/mol
# GULP energy per Si atom -5581.381357 kJ/mol
# Density = 2.163589 g / cm^3
# Si number density = 21.685248 Si / 1000 Ang^3
#
#
#
# Elastic Constant Matrix: (Units=GPa)
#
#
# Indices 1 2 3 4 5 6 
#
# 1 58.1450 5.5426 13.0142 0.0000 0.0000 -3.8726
# 2 5.5426 58.1450 13.0142 0.0000 0.0000 3.8726
# 3 13.0142 13.0142 72.9219 0.0000 0.0000 0.0000
# 4 0.0000 0.0000 0.0000 55.8840 0.0000 0.0000
# 5 0.0000 0.0000 0.0000 0.0000 55.8840 0.0000
# 6 -3.8726 3.8726 0.0000 0.0000 0.0000 36.5989
#
#
#
# Elastic Compliance Matrix: (Units=1/GPa)
#
#
# Indices 1 2 3 4 5 6 
#
# 1 0.018124 -0.001187 -0.003023 0.000000 0.000000 0.002043
# 2 -0.001187 0.018124 -0.003023 0.000000 0.000000 -0.002043
# 3 -0.003023 -0.003023 0.014792 0.000000 0.000000 0.000000
# 4 0.000000 0.000000 0.000000 0.017894 0.000000 0.000000
# 5 0.000000 0.000000 0.000000 0.000000 0.017894 0.000000
# 6 0.002043 -0.002043 0.000000 0.000000 0.000000 0.027756
#
#
# Mechanical properties :
#
#
# Convention : Reuss Voigt Hill
#
# Bulk Modulus (GPa) = 27.34080 28.03933 27.69006
# Shear Modulus (GPa) = 35.40030 40.18277 37.79154
#
# Velocity S-wave (km/s) = 4.04475 4.30932 4.17913
# Velocity P-wave (km/s) = 5.86931 6.14154 6.00697
#
# Compressibility (1/GPa) = 0.03657537
#
# Stress axis : x y z
#
# Youngs Moduli (GPa) = 55.17484 55.17484 67.60313
#
# Poissons Ratio (x) = 0.06550 0.20434
# Poissons Ratio (y) = 0.06550 0.20434
# Poissons Ratio (z) = 0.16678 0.16678
#
# Static dielectric constant tensor:
#      x y z
#    x 1.804860 0.000000 0.000000 
#    y 0.000000 1.804860 0.000000 
#    z 0.000000 0.000000 1.768670 
# 
# From -- ./inp_files/4801.got.cif
#   From: 2010.05.17/outbox.cif.g08.bks.cpg/sg84_3_cif.got.tgz:4801.got - 2010.06.03 18:57:40.
