data_PCOD9544232
_publ_section_title
;
Structure prediction by ZEFSAII (Michael W. Deem and Ramdas Pophale) SiO2 
 PCOD9544232
Probable space group: P 42/M
;
_chemical_formula_sum "Si O2"
_cell_formula_units_Z 40
_cell_length_a 16.436595
_cell_length_b 16.436595
_cell_length_c 7.686444
_cell_angle_alpha 90.000000
_cell_angle_beta 90.000000
_cell_angle_gamma 90.000000
_cell_volume 2076.582434
_symmetry_space_group_name_H-M "P 42/M"
_symmetry_group_IT_number 84
_symmetry_cell_setting 'tetragonal'
loop_
_space_group_symop_operation_xyz
x,y,z
-y,x,1/2+z
-x,-y,z
y,-x,1/2+z
-x,-y,-z
y,-x,1/2-z
x,y,-z
-y,x,1/2-z
loop_
_atom_site_type_symbol
_atom_site_label
_atom_site_fract_x
_atom_site_fract_y
_atom_site_fract_z
Si Si1 0.139413 0.810713 0.791096
Si Si2 0.124975 0.548746 0.500000
Si Si3 0.055442 0.374225 0.500000
Si Si4 0.223126 0.641059 0.791168
Si Si5 0.753917 0.040515 0.300508
Si Si6 0.564427 0.609833 0.697379
O O1 0.194355 0.732170 0.748353
O O2 0.176745 0.891100 0.708475
O O3 0.046864 0.789393 0.742775
O O4 0.141462 0.821854 0.000000
O O5 0.114427 0.451752 0.500000
O O6 0.171258 0.580392 0.671569
O O7 0.035917 0.589833 0.500000
O O8 0.065231 0.317630 0.669165
O O9 0.317417 0.623346 0.749130
O O10 0.210055 0.629933 0.000000
O O11 0.725079 0.031740 0.500000
O O12 0.604511 0.520901 0.703245
O O13 0.539966 0.626888 0.500000
#
# Coordination Sequence:
#
# PCOD9544232 Si02
#       6
#     8   4   4   8   8   8
#     4  10  22  42  64  92 129 168 211 265 313 380
#     4  11  24  40  72  86 124 175 202 264 316 373
#     4  11  24  44  62  98 125 164 219 256 311 386
#     4  10  23  41  62  91 125 162 211 261 314 377
#     4  11  24  41  66  95 132 169 209 265 319 374
#     4  10  21  37  58  86 121 159 204 259 314 375
#
# _framework density 19.262419000000001
#
# number of rings (size 3 to 8) (size 9 to 14) (size 15 to 20)
#    0.000    1.600    3.000    1.200    5.600    2.800 
#    0.000    6.000    0.000    0.000    0.000    0.000 
#    0.000    0.000    0.000    0.000    0.000    0.000 
#
# Total GULP energy -223363.675019 kJ/mol
# GULP energy per Si atom -5584.091875 kJ/mol
# Density = 1.921858 g / cm^3
# Si number density = 19.262419 Si / 1000 Ang^3
#
#
#
# Elastic Constant Matrix: (Units=GPa)
#
#
# Indices 1 2 3 4 5 6 
#
# 1 103.1153 75.4400 27.0685 0.0000 0.0000 -16.6432
# 2 75.4400 103.1153 27.0685 0.0000 0.0000 16.6432
# 3 27.0685 27.0685 62.5393 0.0000 0.0000 0.0000
# 4 0.0000 0.0000 0.0000 -64.4049 0.0000 0.0000
# 5 0.0000 0.0000 0.0000 0.0000 -64.4049 0.0000
# 6 -16.6432 16.6432 0.0000 0.0000 0.0000 29.8112
#
#
#
# Elastic Compliance Matrix: (Units=1/GPa)
#
#
# Indices 1 2 3 4 5 6 
#
# 1 0.058217 -0.051771 -0.002790 0.000000 0.000000 0.061405
# 2 -0.051771 0.058217 -0.002790 0.000000 0.000000 -0.061405
# 3 -0.002790 -0.002790 0.018405 0.000000 0.000000 0.000000
# 4 0.000000 0.000000 0.000000 -0.015527 0.000000 0.000000
# 5 0.000000 0.000000 0.000000 0.000000 -0.015527 0.000000
# 6 0.061405 -0.061405 0.000000 0.000000 0.000000 0.102108
#
#
# Mechanical properties :
#
#
# Convention : Reuss Voigt Hill
#
# Bulk Modulus (GPa) = 49.65867 58.65820 54.15844
# Shear Modulus (GPa) = 15.27606 -10.52019 2.37793
#
# Velocity S-wave (km/s) = 2.81917 -2.33952 1.11228
# Velocity P-wave (km/s) = 6.03598 4.81876 5.46138
#
# Compressibility (1/GPa) = 0.02013747
#
# Stress axis : x y z
#
# Youngs Moduli (GPa) = 17.17699 17.17699 54.33227
#
# Poissons Ratio (x) = 0.88927 0.15160
# Poissons Ratio (y) = 0.88927 0.15160
# Poissons Ratio (z) = 0.04793 0.04793
#
# Static dielectric constant tensor:
#      x y z
#    x 1.659140 0.000000 0.000000 
#    y 0.000000 1.659140 0.000000 
#    z 0.000000 0.000000 1.689300 
# 
# From -- ./inp_files/826.got.cif
#   From: 2010.05.17/outbox.cif.g08.bks.cpg/sg84_1_cif.got.tgz:826.got - 2010.06.03 18:57:40.
