data_PCOD9544885
_publ_section_title
;
Structure prediction by ZEFSAII (Michael W. Deem and Ramdas Pophale) SiO2 
 PCOD9544885
Probable space group: P 42/N
;
_chemical_formula_sum "Si O2"
_cell_formula_units_Z 64
_cell_length_a 11.567811
_cell_length_b 11.567811
_cell_length_c 25.109085
_cell_angle_alpha 90.000000
_cell_angle_beta 90.000000
_cell_angle_gamma 90.000000
_cell_volume 3359.953411
_symmetry_space_group_name_H-M "P 42/N"
_symmetry_group_IT_number 86
_space_group.IT_coordinate_system_code '2'
_symmetry_cell_setting 'tetragonal'
loop_
_space_group_symop_operation_xyz
x,y,z
-y,1/2+x,1/2+z
1/2-x,1/2-y,z
1/2+y,-x,1/2+z
-x,-y,-z
y,1/2-x,1/2-z
1/2+x,1/2+y,-z
1/2-y,x,1/2-z
loop_
_atom_site_type_symbol
_atom_site_label
_atom_site_fract_x
_atom_site_fract_y
_atom_site_fract_z
Si Si1 0.565959 0.300469 0.135887
Si Si2 0.559912 0.948342 0.243956
Si Si3 0.404150 0.341440 0.231659
Si Si4 0.105225 0.582784 0.482495
Si Si5 0.426200 0.701007 0.345300
Si Si6 0.559132 0.734048 0.452635
Si Si7 0.389572 0.265728 0.827931
Si Si8 0.565182 0.753279 0.050809
O O1 0.454516 0.310012 0.173494
O O2 0.552783 0.355554 0.077592
O O3 0.612550 0.169811 0.131838
O O4 0.674656 0.367140 0.162620
O O5 0.611767 0.924515 0.302471
O O6 0.562348 0.828117 0.213029
O O7 0.437094 0.009673 0.245486
O O8 0.645991 0.026873 0.208575
O O9 0.395149 0.224373 0.266239
O O10 0.209561 0.548831 0.521327
O O11 0.000000 0.500000 0.500000
O O12 0.053741 0.712795 0.481251
O O13 0.522393 0.717482 0.390997
O O14 0.655821 0.834601 0.457259
O O15 0.625362 0.617913 0.469505
O O16 0.250000 0.250000 0.829290
O O17 0.443531 0.244772 0.885516
#
# Coordination Sequence:
#
# PCOD9544885 Si02
#       8
#     8   8   8   8   8   8   8   8
#     4  10  21  39  63  85 116 157 216 258 301 374
#     4  12  21  35  59  93 124 157 200 246 324 392
#     4  11  25  43  59  79 119 172 215 254 293 361
#     4   9  20  34  58  86 111 156 211 250 309 366
#     4  10  19  36  62  92 115 156 197 254 318 381
#     4   9  17  32  55  82 119 151 194 249 305 375
#     4  12  21  32  60  99 131 153 189 262 340 386
#     4  10  18  32  54  86 126 155 192 254 316 370
#
# _framework density 19.047882999999999
#
# number of rings (size 3 to 8) (size 9 to 14) (size 15 to 20)
#    0.000    1.625    5.000    0.750    5.250    0.000 
#    0.000    5.625    0.000    4.500    0.000    0.000 
#    0.000    0.000    0.000    0.000    0.000    0.000 
#
# Total GULP energy -356926.351563 kJ/mol
# GULP energy per Si atom -5576.974243 kJ/mol
# Density = 1.900453 g / cm^3
# Si number density = 19.047883 Si / 1000 Ang^3
#
#
#
# Elastic Constant Matrix: (Units=GPa)
#
#
# Indices 1 2 3 4 5 6 
#
# 1 91.2018 46.3328 44.7220 0.0000 0.0000 -6.4830
# 2 46.3328 91.2018 44.7220 0.0000 0.0000 6.4830
# 3 44.7220 44.7220 81.5571 0.0000 0.0000 0.0000
# 4 0.0000 0.0000 0.0000 10.0774 0.0000 0.0000
# 5 0.0000 0.0000 0.0000 0.0000 10.0774 0.0000
# 6 -6.4830 6.4830 0.0000 0.0000 0.0000 37.8924
#
#
#
# Elastic Compliance Matrix: (Units=1/GPa)
#
#
# Indices 1 2 3 4 5 6 
#
# 1 0.017374 -0.006073 -0.006197 0.000000 0.000000 0.004011
# 2 -0.006073 0.017374 -0.006197 0.000000 0.000000 -0.004011
# 3 -0.006197 -0.006197 0.019058 0.000000 0.000000 0.000000
# 4 0.000000 0.000000 0.000000 0.099232 0.000000 0.000000
# 5 0.000000 0.000000 0.000000 0.000000 0.099232 0.000000
# 6 0.004011 -0.004011 0.000000 0.000000 0.000000 0.027763
#
#
# Mechanical properties :
#
#
# Convention : Reuss Voigt Hill
#
# Bulk Modulus (GPa) = 59.27039 59.50160 59.38599
# Shear Modulus (GPa) = 15.49958 20.15501 17.82730
#
# Velocity S-wave (km/s) = 2.85567 3.25641 3.06260
# Velocity P-wave (km/s) = 6.48515 6.74127 6.61445
#
# Compressibility (1/GPa) = 0.01687183
#
# Stress axis : x y z
#
# Youngs Moduli (GPa) = 57.55838 57.55838 52.47260
#
# Poissons Ratio (x) = 0.34953 0.32517
# Poissons Ratio (y) = 0.34953 0.32517
# Poissons Ratio (z) = 0.35669 0.35669
#
# Static dielectric constant tensor:
#      x y z
#    x 1.698050 0.000000 0.000000 
#    y 0.000000 1.698050 0.000000 
#    z 0.000000 0.000000 1.644440 
# 
# From -- ./inp_files/4701.got.cif
#   From: 2010.05.17/outbox.cif.g08.bks.cpg/sg86_3_cif.got.tgz:4701.got - 2010.06.03 19:03:11.
