data_PCOD9544380
_publ_section_title
;
Structure prediction by ZEFSAII (Michael W. Deem and Ramdas Pophale) SiO2 
 PCOD9544380
Probable space group: P 42/M
;
_chemical_formula_sum "Si O2"
_cell_formula_units_Z 48
_cell_length_a 11.330143
_cell_length_b 11.330143
_cell_length_c 19.642720
_cell_angle_alpha 90.000000
_cell_angle_beta 90.000000
_cell_angle_gamma 90.000000
_cell_volume 2521.578010
_symmetry_space_group_name_H-M "P 42/M"
_symmetry_group_IT_number 84
_symmetry_cell_setting 'tetragonal'
loop_
_space_group_symop_operation_xyz
x,y,z
-y,x,1/2+z
-x,-y,z
y,-x,1/2+z
-x,-y,-z
y,-x,1/2-z
x,y,-z
-y,x,1/2-z
loop_
_atom_site_type_symbol
_atom_site_label
_atom_site_fract_x
_atom_site_fract_y
_atom_site_fract_z
Si Si1 0.258654 0.007296 0.729802
Si Si2 0.921872 0.116971 0.641140
Si Si3 0.111779 0.442167 0.319542
Si Si4 0.087289 0.845032 0.500000
Si Si5 0.277004 0.231317 0.636941
Si Si6 0.192345 0.106868 0.500000
Si Si7 0.455718 0.313131 0.264212
O O1 0.179836 0.010869 0.797854
O O2 0.258048 0.136858 0.697534
O O3 0.198490 0.927877 0.672971
O O4 0.378746 0.949610 0.754642
O O5 0.895606 0.199219 0.576656
O O6 0.000000 0.000000 0.621839
O O7 0.185588 0.340759 0.358522
O O8 0.204262 0.534780 0.288165
O O9 0.000000 0.500000 0.357531
O O10 0.944427 0.854162 0.500000
O O11 0.169861 0.964787 0.500000
O O12 0.256443 0.160558 0.566795
O O13 0.404585 0.280726 0.661187
O O14 0.369133 0.413815 0.234730
#
# Coordination Sequence:
#
# PCOD9544380 Si02
#       7
#     8   8   8   4   8   4   8
#     4  12  19  29  52  84 113 150 187 232 277 334
#     4  12  18  30  48  77 120 156 187 210 265 344
#     4  11  21  34  55  87 114 138 188 251 294 338
#     4  11  20  30  46  77 128 173 187 210 270 367
#     4  11  21  36  56  84 114 153 192 239 283 344
#     4  11  20  32  51  81 121 160 195 223 282 351
#     4   9  20  39  61  81 103 142 193 250 296 335
#
# _framework density 19.035699999999999
#
# number of rings (size 3 to 8) (size 9 to 14) (size 15 to 20)
#    0.000    1.000    8.333    1.000    0.000    0.000 
#    0.000    0.417    0.000   11.000    0.000    0.000 
#    0.000    0.000    0.000    0.000    0.000    0.000 
#
# Total GULP energy -267231.831863 kJ/mol
# GULP energy per Si atom -5567.329830 kJ/mol
# Density = 1.899237 g / cm^3
# Si number density = 19.035700 Si / 1000 Ang^3
#
#
#
# Elastic Constant Matrix: (Units=GPa)
#
#
# Indices 1 2 3 4 5 6 
#
# 1 57.8384 10.8253 16.0031 0.0000 0.0000 0.4978
# 2 10.8253 57.8384 16.0031 0.0000 0.0000 -0.4978
# 3 16.0031 16.0031 103.7423 0.0000 0.0000 0.0000
# 4 0.0000 0.0000 0.0000 10.6726 0.0000 0.0000
# 5 0.0000 0.0000 0.0000 0.0000 10.6726 0.0000
# 6 0.4978 -0.4978 0.0000 0.0000 0.0000 20.3775
#
#
#
# Elastic Compliance Matrix: (Units=1/GPa)
#
#
# Indices 1 2 3 4 5 6 
#
# 1 0.018487 -0.002795 -0.002421 0.000000 0.000000 -0.000520
# 2 -0.002795 0.018487 -0.002421 0.000000 0.000000 0.000520
# 3 -0.002421 -0.002421 0.010386 0.000000 0.000000 0.000000
# 4 0.000000 0.000000 0.000000 0.093697 0.000000 0.000000
# 5 0.000000 0.000000 0.000000 0.000000 0.093697 0.000000
# 6 -0.000520 0.000520 0.000000 0.000000 0.000000 0.049099
#
#
# Mechanical properties :
#
#
# Convention : Reuss Voigt Hill
#
# Bulk Modulus (GPa) = 31.16459 33.89799 32.53129
# Shear Modulus (GPa) = 16.13830 20.11706 18.12768
#
# Velocity S-wave (km/s) = 2.91484 3.25438 3.08928
# Velocity P-wave (km/s) = 5.26646 5.65399 5.46366
#
# Compressibility (1/GPa) = 0.03208770
#
# Stress axis : x y z
#
# Youngs Moduli (GPa) = 54.09240 54.09240 96.28275
#
# Poissons Ratio (x) = 0.15118 0.23306
# Poissons Ratio (y) = 0.15118 0.23306
# Poissons Ratio (z) = 0.13094 0.13094
#
# Static dielectric constant tensor:
#      x y z
#    x 1.737070 0.000000 0.000000 
#    y 0.000000 1.737070 0.000000 
#    z 0.000000 0.000000 1.675890 
# 
# From -- ./inp_files/4442.got.cif
#   From: 2010.05.17/outbox.cif.g08.bks.cpg/sg84_3_cif.got.tgz:4442.got - 2010.06.03 18:57:40.
