data_PCOD9544905
_publ_section_title
;
Structure prediction by ZEFSAII (Michael W. Deem and Ramdas Pophale) SiO2 
 PCOD9544905
Probable space group: P 42/N
;
_chemical_formula_sum "Si O2"
_cell_formula_units_Z 64
_cell_length_a 20.149027
_cell_length_b 20.149027
_cell_length_c 5.720961
_cell_angle_alpha 90.000000
_cell_angle_beta 90.000000
_cell_angle_gamma 90.000000
_cell_volume 2322.614563
_symmetry_space_group_name_H-M "P 42/N"
_symmetry_group_IT_number 86
_space_group.IT_coordinate_system_code '2'
_symmetry_cell_setting 'tetragonal'
loop_
_space_group_symop_operation_xyz
x,y,z
-y,1/2+x,1/2+z
1/2-x,1/2-y,z
1/2+y,-x,1/2+z
-x,-y,-z
y,1/2-x,1/2-z
1/2+x,1/2+y,-z
1/2-y,x,1/2-z
loop_
_atom_site_type_symbol
_atom_site_label
_atom_site_fract_x
_atom_site_fract_y
_atom_site_fract_z
Si Si1 0.577884 0.982448 0.000002
Si Si2 0.362225 0.176336 0.500015
Si Si3 0.269096 0.380893 0.499985
Si Si4 0.329954 0.520986 0.999989
Si Si5 0.327024 0.528500 0.499989
Si Si6 0.686861 0.102270 0.500007
Si Si7 0.579441 0.981603 0.500002
Si Si8 0.811460 0.402092 0.000007
O O1 0.589484 0.947330 0.752388
O O2 0.629659 0.043371 0.000004
O O3 0.589484 0.947330 0.247617
O O4 0.500000 0.000000 0.000000
O O5 0.310297 0.115763 0.500001
O O6 0.348502 0.210510 0.247263
O O7 0.442060 0.174263 0.500013
O O8 0.348501 0.210504 0.752776
O O9 0.302149 0.453098 0.499986
O O10 0.361688 0.539507 0.750053
O O11 0.361688 0.539507 0.249924
O O12 0.257307 0.555638 0.999991
O O13 0.259558 0.570062 0.499991
O O14 0.683255 0.136803 0.754214
O O15 0.631159 0.043586 0.500005
O O16 0.683255 0.136803 0.245799
O O17 0.500000 0.000000 0.500000
#
# Coordination Sequence:
#
# PCOD9544905 Si02
#       8
#     8   8   8   8   8   8   8   8
#     4   8  12  16  22  33  47  60  72  84  96 108
#     4  10  19  28  36  44  52  60  70  85 106 133
#     4  10  19  28  36  44  52  60  70  85 106 133
#     4   8  14  23  32  40  48  58  71  84  98 118
#     4   8  14  23  32  40  48  58  71  84  98 118
#     4   8  12  18  27  36  46  59  72  84  96 110
#     4   8  12  16  22  33  47  60  72  84  96 108
#     4   8  12  18  27  36  46  59  72  84  96 110
#
# _framework density 27.555152
#
# number of rings (size 3 to 8) (size 9 to 14) (size 15 to 20)
#    0.000    3.500    0.000    0.750    0.000    1.500 
#    0.000    0.000    0.000    0.000    0.000    0.000 
#    0.000    0.000    0.000    0.000    0.000    0.000 
#
# Total GULP energy -357193.905183 kJ/mol
# GULP energy per Si atom -5581.154768 kJ/mol
# Density = 2.749244 g / cm^3
# Si number density = 27.555152 Si / 1000 Ang^3
#
#
#
# Elastic Constant Matrix: (Units=GPa)
#
#
# Indices 1 2 3 4 5 6 
#
# 1 69.4935 26.9813 35.8834 0.0000 0.0000 0.5254
# 2 26.9813 69.4935 35.8834 0.0000 0.0000 -0.5254
# 3 35.8834 35.8834 402.7400 0.0000 0.0000 0.0000
# 4 0.0000 0.0000 0.0000 4.1326 0.0000 0.0000
# 5 0.0000 0.0000 0.0000 0.0000 4.1326 0.0000
# 6 0.5254 -0.5254 0.0000 0.0000 0.0000 11.5972
#
#
#
# Elastic Compliance Matrix: (Units=1/GPa)
#
#
# Indices 1 2 3 4 5 6 
#
# 1 0.017325 -0.006224 -0.000989 0.000000 0.000000 -0.001067
# 2 -0.006224 0.017325 -0.000989 0.000000 0.000000 0.001067
# 3 -0.000989 -0.000989 0.002659 0.000000 0.000000 0.000000
# 4 0.000000 0.000000 0.000000 0.241981 0.000000 0.000000
# 5 0.000000 0.000000 0.000000 0.000000 0.241981 0.000000
# 6 -0.001067 0.001067 0.000000 0.000000 0.000000 0.086325
#
#
# Mechanical properties :
#
#
# Convention : Reuss Voigt Hill
#
# Bulk Modulus (GPa) = 47.83491 82.13590 64.98540
# Shear Modulus (GPa) = 7.92432 33.50438 20.71435
#
# Velocity S-wave (km/s) = 1.69766 3.49076 2.74476
# Velocity P-wave (km/s) = 4.60870 6.79115 5.80344
#
# Compressibility (1/GPa) = 0.02090524
#
# Stress axis : x y z
#
# Youngs Moduli (GPa) = 57.71965 57.71965 376.04666
#
# Poissons Ratio (x) = 0.35924 0.37195
# Poissons Ratio (y) = 0.35924 0.37195
# Poissons Ratio (z) = 0.05709 0.05709
#
# Static dielectric constant tensor:
#      x y z
#    x 2.076370 0.000000 0.000000 
#    y 0.000000 2.076370 0.000000 
#    z 0.000000 0.000000 2.193430 
# 
# From -- ./inp_files/561.got.cif
#   From: 2010.05.17/outbox.cif.g08.bks.cpg/sg86_1_cif.got.tgz:561.got - 2010.06.03 19:03:11.
