data_PCOD9544446
_publ_section_title
;
Structure prediction by ZEFSAII (Michael W. Deem and Ramdas Pophale) SiO2 
 PCOD9544446
Probable space group: P 42/M
;
_chemical_formula_sum "Si O2"
_cell_formula_units_Z 26
_cell_length_a 7.687066
_cell_length_b 7.687066
_cell_length_c 16.305288
_cell_angle_alpha 90.000000
_cell_angle_beta 90.000000
_cell_angle_gamma 90.000000
_cell_volume 963.495507
_symmetry_space_group_name_H-M "P 42/M"
_symmetry_group_IT_number 84
_symmetry_cell_setting 'tetragonal'
loop_
_space_group_symop_operation_xyz
x,y,z
-y,x,1/2+z
-x,-y,z
y,-x,1/2+z
-x,-y,-z
y,-x,1/2-z
x,y,-z
-y,x,1/2-z
loop_
_atom_site_type_symbol
_atom_site_label
_atom_site_fract_x
_atom_site_fract_y
_atom_site_fract_z
Si Si1 0.707030 0.822522 0.326700
Si Si2 0.261926 0.126763 0.000000
Si Si3 0.462586 0.285230 0.155038
Si Si4 0.000000 0.000000 0.750000
Si Si5 0.126982 0.733640 0.000000
O O1 0.610223 0.770994 0.243696
O O2 0.812371 0.647084 0.343491
O O3 0.831972 0.981421 0.306306
O O4 0.625124 0.846380 0.416290
O O5 0.355148 0.210892 0.079534
O O6 0.066811 0.196580 0.000000
O O7 0.241242 0.914788 0.000000
O O8 0.500000 0.500000 0.149006
#
# Coordination Sequence:
#
# PCOD9544446 Si02
#       5
#     8   4   8   2   4
#     4  12  24  49  74 110 152 198 258 306 383 445
#     4  11  26  48  78 111 161 194 259 307 382 457
#     4  12  25  50  76 109 150 207 252 312 374 454
#     4  12  28  42  76 112 152 202 252 322 376 448
#     4  11  25  46  73 120 151 200 246 318 377 452
#
# _framework density 26.985074000000001
#
# number of rings (size 3 to 8) (size 9 to 14) (size 15 to 20)
#    0.000    0.308    3.077    6.923    0.000    6.154 
#    5.538    2.308    0.000    0.000    0.000    0.000 
#    0.000    0.000    0.000    0.000    0.000    0.000 
#
# Total GULP energy -145201.380093 kJ/mol
# GULP energy per Si atom -5584.668465 kJ/mol
# Density = 2.692365 g / cm^3
# Si number density = 26.985074 Si / 1000 Ang^3
#
#
#
# Elastic Constant Matrix: (Units=GPa)
#
#
# Indices 1 2 3 4 5 6 
#
# 1 79.5591 18.5001 59.9481 0.0000 0.0000 -4.9828
# 2 18.5001 79.5591 59.9481 0.0000 0.0000 4.9828
# 3 59.9481 59.9481 304.6062 0.0000 0.0000 0.0000
# 4 0.0000 0.0000 0.0000 13.4207 0.0000 0.0000
# 5 0.0000 0.0000 0.0000 0.0000 13.4207 0.0000
# 6 -4.9828 4.9828 0.0000 0.0000 0.0000 52.6187
#
#
#
# Elastic Compliance Matrix: (Units=1/GPa)
#
#
# Indices 1 2 3 4 5 6 
#
# 1 0.015032 -0.001603 -0.002643 0.000000 0.000000 0.001575
# 2 -0.001603 0.015032 -0.002643 0.000000 0.000000 -0.001575
# 3 -0.002643 -0.002643 0.004323 0.000000 0.000000 0.000000
# 4 0.000000 0.000000 0.000000 0.074512 0.000000 0.000000
# 5 0.000000 0.000000 0.000000 0.000000 0.074512 0.000000
# 6 0.001575 -0.001575 0.000000 0.000000 0.000000 0.019303
#
#
# Mechanical properties :
#
#
# Convention : Reuss Voigt Hill
#
# Bulk Modulus (GPa) = 48.51957 82.27968 65.39963
# Shear Modulus (GPa) = 22.38525 37.58055 29.98290
#
# Velocity S-wave (km/s) = 2.88330 3.73586 3.33692
# Velocity P-wave (km/s) = 5.39479 7.01184 6.25578
#
# Compressibility (1/GPa) = 0.02061024
#
# Stress axis : x y z
#
# Youngs Moduli (GPa) = 66.52437 66.52437 231.30807
#
# Poissons Ratio (x) = 0.10661 0.61135
# Poissons Ratio (y) = 0.10661 0.61135
# Poissons Ratio (z) = 0.17582 0.17582
#
# Static dielectric constant tensor:
#      x y z
#    x 2.191880 0.000000 0.000000 
#    y 0.000000 2.191880 0.000000 
#    z 0.000000 0.000000 2.210210 
# 
# From -- ./inp_files/3391.got.cif
#   From: 2010.05.17/outbox.cif.g08.bks.cpg/sg84_2_cif.got.tgz:3391.got - 2010.06.03 18:57:40.
