data_PCOD9544296
_publ_section_title
;
Structure prediction by ZEFSAII (Michael W. Deem and Ramdas Pophale) SiO2 
 PCOD9544296
Probable space group: P 42/M
;
_chemical_formula_sum "Si O2"
_cell_formula_units_Z 48
_cell_length_a 8.093866
_cell_length_b 8.093866
_cell_length_c 31.938243
_cell_angle_alpha 90.000000
_cell_angle_beta 90.000000
_cell_angle_gamma 90.000000
_cell_volume 2092.295596
_symmetry_space_group_name_H-M "P 42/M"
_symmetry_group_IT_number 84
_symmetry_cell_setting 'tetragonal'
loop_
_space_group_symop_operation_xyz
x,y,z
-y,x,1/2+z
-x,-y,z
y,-x,1/2+z
-x,-y,-z
y,-x,1/2-z
x,y,-z
-y,x,1/2-z
loop_
_atom_site_type_symbol
_atom_site_label
_atom_site_fract_x
_atom_site_fract_y
_atom_site_fract_z
Si Si1 0.252553 0.596066 0.315107
Si Si2 0.129755 0.118547 0.123149
Si Si3 0.083405 0.741203 0.240371
Si Si4 0.120860 0.631272 0.920865
Si Si5 0.063283 0.309758 0.452566
Si Si6 0.260691 0.599385 0.833219
O O1 0.168542 0.721773 0.347253
O O2 0.154690 0.605792 0.272112
O O3 0.269654 0.411001 0.332433
O O4 0.437039 0.669255 0.310695
O O5 0.013886 0.255713 0.102736
O O6 0.208347 0.026862 0.083411
O O7 0.000000 0.000000 0.146811
O O8 0.110650 0.672956 0.193679
O O9 0.900700 0.800555 0.251185
O O10 0.252692 0.744562 0.945804
O O11 0.218690 0.556200 0.881000
O O12 0.000000 0.500000 0.943689
O O13 0.018570 0.260374 0.500000
O O14 0.000000 0.500000 0.448136
#
# Coordination Sequence:
#
# PCOD9544296 Si02
#       6
#     8   8   8   8   8   8
#     4  11  23  41  63  89 124 169 217 266 325 393
#     4  10  22  38  66  92 125 164 212 260 319 392
#     4  11  26  40  60  89 125 168 219 273 323 386
#     4  11  22  40  67  97 130 167 215 273 331 392
#     4  10  23  44  68  96 133 173 215 265 327 405
#     4  11  24  41  62  89 127 168 214 266 331 390
#
# _framework density 22.941306999999998
#
# number of rings (size 3 to 8) (size 9 to 14) (size 15 to 20)
#    0.000    1.333    1.667    3.000    7.000    6.667 
#    0.000    0.000    0.000    2.000    0.000    0.000 
#    0.000    0.000    0.000    0.000    0.000    0.000 
#
# Total GULP energy -268311.215514 kJ/mol
# GULP energy per Si atom -5589.816990 kJ/mol
# Density = 2.288909 g / cm^3
# Si number density = 22.941307 Si / 1000 Ang^3
#
#
#
# Elastic Constant Matrix: (Units=GPa)
#
#
# Indices 1 2 3 4 5 6 
#
# 1 92.3362 29.2625 20.0944 0.0000 0.0000 4.4913
# 2 29.2625 92.3362 20.0944 0.0000 0.0000 -4.4913
# 3 20.0944 20.0944 88.7589 0.0000 0.0000 0.0000
# 4 0.0000 0.0000 0.0000 68.0058 0.0000 0.0000
# 5 0.0000 0.0000 0.0000 0.0000 68.0058 0.0000
# 6 4.4913 -4.4913 0.0000 0.0000 0.0000 51.6561
#
#
#
# Elastic Compliance Matrix: (Units=1/GPa)
#
#
# Indices 1 2 3 4 5 6 
#
# 1 0.012471 -0.003582 -0.002012 0.000000 0.000000 -0.001396
# 2 -0.003582 0.012471 -0.002012 0.000000 0.000000 0.001396
# 3 -0.002012 -0.002012 0.012178 0.000000 0.000000 0.000000
# 4 0.000000 0.000000 0.000000 0.014705 0.000000 0.000000
# 5 0.000000 0.000000 0.000000 0.000000 0.014705 0.000000
# 6 -0.001396 0.001396 0.000000 0.000000 0.000000 0.019602
#
#
# Mechanical properties :
#
#
# Convention : Reuss Voigt Hill
#
# Bulk Modulus (GPa) = 45.64985 45.81488 45.73237
# Shear Modulus (GPa) = 46.02086 51.13220 48.57653
#
# Velocity S-wave (km/s) = 4.48373 4.72617 4.60654
# Velocity P-wave (km/s) = 6.83716 7.05663 6.94776
#
# Compressibility (1/GPa) = 0.02190588
#
# Stress axis : x y z
#
# Youngs Moduli (GPa) = 80.18570 80.18570 82.11765
#
# Poissons Ratio (x) = 0.28724 0.16525
# Poissons Ratio (y) = 0.28724 0.16525
# Poissons Ratio (z) = 0.16136 0.16136
#
# Static dielectric constant tensor:
#      x y z
#    x 1.915000 0.000000 0.000000 
#    y 0.000000 1.915000 0.000000 
#    z 0.000000 0.000000 1.813320 
# 
# From -- ./inp_files/5750.got.cif
#   From: 2010.05.17/outbox.cif.g08.bks.cpg/sg84_3_cif.got.tgz:5750.got - 2010.06.03 18:57:40.
