data_PCOD9544879
_publ_section_title
;
Structure prediction by ZEFSAII (Michael W. Deem and Ramdas Pophale) SiO2 
 PCOD9544879
Probable space group: P 42/N
;
_chemical_formula_sum "Si O2"
_cell_formula_units_Z 48
_cell_length_a 8.092309
_cell_length_b 8.092309
_cell_length_c 31.570344
_cell_angle_alpha 90.000000
_cell_angle_beta 90.000000
_cell_angle_gamma 90.000000
_cell_volume 2067.398656
_symmetry_space_group_name_H-M "P 42/N"
_symmetry_group_IT_number 86
_space_group.IT_coordinate_system_code '2'
_symmetry_cell_setting 'tetragonal'
loop_
_space_group_symop_operation_xyz
x,y,z
-y,1/2+x,1/2+z
1/2-x,1/2-y,z
1/2+y,-x,1/2+z
-x,-y,-z
y,1/2-x,1/2-z
1/2+x,1/2+y,-z
1/2-y,x,1/2-z
loop_
_atom_site_type_symbol
_atom_site_label
_atom_site_fract_x
_atom_site_fract_y
_atom_site_fract_z
Si Si1 0.503790 0.915263 0.433570
Si Si2 0.109648 0.495282 0.343796
Si Si3 0.839097 0.070828 0.423786
Si Si4 0.618008 0.991383 0.839374
Si Si5 0.556502 0.749124 0.514776
Si Si6 0.996661 0.884373 0.751795
O O1 0.464576 0.784575 0.470338
O O2 0.430033 0.904486 0.386409
O O3 0.700868 0.935444 0.430667
O O4 0.456391 0.091512 0.454182
O O5 0.015096 0.317743 0.345832
O O6 0.302213 0.443977 0.341428
O O7 0.073919 0.573995 0.297394
O O8 0.750000 0.250000 0.422661
O O9 0.917726 0.040389 0.378620
O O10 0.976262 0.097796 0.459775
O O11 0.574964 0.071540 0.793942
O O12 0.750000 0.750000 0.507557
O O13 0.964144 0.686917 0.748986
#
# Coordination Sequence:
#
# PCOD9544879 Si02
#       6
#     8   8   8   8   8   8
#     4  10  20  31  48  73  96 129 171 208 254 310
#     4   9  14  25  44  67  99 127 155 199 258 311
#     4  10  18  29  46  72  98 125 168 213 255 306
#     4   9  14  24  44  68 100 127 154 201 263 307
#     4  10  20  34  48  67  97 133 167 211 259 302
#     4   7  12  20  37  68  93 115 151 185 241 320
#
# _framework density 23.217582
#
# number of rings (size 3 to 8) (size 9 to 14) (size 15 to 20)
#    0.000    2.833    3.333    3.000    0.000    0.667 
#    0.000    3.333    0.000    0.000    4.333    5.833 
#    0.000    0.000    0.000    0.000    0.000    0.000 
#
# Total GULP energy -267843.210713 kJ/mol
# GULP energy per Si atom -5580.066890 kJ/mol
# Density = 2.316474 g / cm^3
# Si number density = 23.217582 Si / 1000 Ang^3
#
#
#
# Elastic Constant Matrix: (Units=GPa)
#
#
# Indices 1 2 3 4 5 6 
#
# 1 28.1447 -0.2630 21.4121 0.0000 0.0000 3.1077
# 2 -0.2630 28.1447 21.4121 0.0000 0.0000 -3.1077
# 3 21.4121 21.4121 236.5293 0.0000 0.0000 0.0000
# 4 0.0000 0.0000 0.0000 28.6687 0.0000 0.0000
# 5 0.0000 0.0000 0.0000 0.0000 28.6687 0.0000
# 6 3.1077 -3.1077 0.0000 0.0000 0.0000 4.3574
#
#
#
# Elastic Compliance Matrix: (Units=1/GPa)
#
#
# Indices 1 2 3 4 5 6 
#
# 1 0.041684 -0.000026 -0.003771 0.000000 0.000000 -0.029748
# 2 -0.000026 0.041684 -0.003771 0.000000 0.000000 0.029748
# 3 -0.003771 -0.003771 0.004911 0.000000 0.000000 0.000000
# 4 0.000000 0.000000 0.000000 0.034881 0.000000 0.000000
# 5 0.000000 0.000000 0.000000 0.000000 0.034881 0.000000
# 6 -0.029748 0.029748 0.000000 0.000000 0.000000 0.271926
#
#
# Mechanical properties :
#
#
# Convention : Reuss Voigt Hill
#
# Bulk Modulus (GPa) = 13.67201 41.99347 27.83274
# Shear Modulus (GPa) = 10.64997 29.02277 19.83637
#
# Velocity S-wave (km/s) = 2.14406 3.53942 2.92613
# Velocity P-wave (km/s) = 3.46854 5.90165 4.84047
#
# Compressibility (1/GPa) = 0.07314212
#
# Stress axis : x y z
#
# Youngs Moduli (GPa) = 23.98989 23.98989 203.64178
#
# Poissons Ratio (x) = 0.00063 0.76796
# Poissons Ratio (y) = 0.00063 0.76796
# Poissons Ratio (z) = 0.09047 0.09047
#
# Static dielectric constant tensor:
#      x y z
#    x 1.955610 0.000000 0.000000 
#    y 0.000000 1.955610 0.000000 
#    z 0.000000 0.000000 1.939440 
# 
# From -- ./inp_files/5190.got.cif
#   From: 2010.05.17/outbox.cif.g08.bks.cpg/sg86_3_cif.got.tgz:5190.got - 2010.06.03 19:03:11.
