data_PCOD9544774
_publ_section_title
;
Structure prediction by ZEFSAII (Michael W. Deem and Ramdas Pophale) SiO2 
 PCOD9544774
Probable space group: P 4/N
;
_chemical_formula_sum "Si O2"
_cell_formula_units_Z 34
_cell_length_a 7.871111
_cell_length_b 7.871111
_cell_length_c 24.104376
_cell_angle_alpha 90.000000
_cell_angle_beta 90.000000
_cell_angle_gamma 90.000000
_cell_volume 1493.371872
_symmetry_space_group_name_H-M "P 4/N"
_symmetry_group_IT_number 85
_symmetry_cell_setting 'tetragonal'
loop_
_space_group_symop_operation_xyz
x,y,z
1/2-y,x,z
1/2-x,1/2-y,z
y,1/2-x,z
-x,-y,-z
1/2+y,-x,-z
1/2+x,1/2+y,-z
-y,1/2+x,-z
loop_
_atom_site_type_symbol
_atom_site_label
_atom_site_fract_x
_atom_site_fract_y
_atom_site_fract_z
Si Si1 0.582177 0.512999 0.821243
Si Si2 0.250000 0.750000 0.500000
Si Si3 0.002630 0.610926 0.701845
Si Si4 0.560260 0.539166 0.938302
Si Si5 0.147192 0.511316 0.585928
O O1 0.788941 0.523904 0.820806
O O2 0.549375 0.427440 0.761836
O O3 0.508923 0.448074 0.880284
O O4 0.117322 0.658160 0.541267
O O5 0.970955 0.813919 0.699151
O O6 0.113748 0.565251 0.649023
O O7 0.762162 0.518893 0.935378
O O8 0.500000 0.500000 0.000000
O O9 0.038122 0.343108 0.577557
#
# Coordination Sequence:
#
# PCOD9544774 Si02
#       5
#     8   2   8   8   8
#     4   7  12  26  49  74  99 133 179 222 258 309
#     4  12  24  44  64  80 108 152 188 214 260 340
#     4   9  17  33  59  85 107 138 181 224 270 330
#     4   9  17  30  48  71 101 137 178 223 267 313
#     4  11  24  40  59  85 114 142 176 223 273 319
#
# _framework density 22.767271000000001
#
# number of rings (size 3 to 8) (size 9 to 14) (size 15 to 20)
#    0.000    2.824    0.000    4.941    0.000    0.471 
#    0.000    4.706    0.000   11.294    0.000    0.000 
#    0.000    0.000    0.000    0.000    0.000    0.000 
#
# Total GULP energy -189397.155097 kJ/mol
# GULP energy per Si atom -5570.504562 kJ/mol
# Density = 2.271545 g / cm^3
# Si number density = 22.767271 Si / 1000 Ang^3
#
#
#
# Elastic Constant Matrix: (Units=GPa)
#
#
# Indices 1 2 3 4 5 6 
#
# 1 45.5083 -3.0295 39.4369 0.0000 0.0000 -5.2011
# 2 -3.0295 45.5083 39.4369 0.0000 0.0000 5.2011
# 3 39.4369 39.4369 276.3991 0.0000 0.0000 0.0000
# 4 0.0000 0.0000 0.0000 28.6519 0.0000 0.0000
# 5 0.0000 0.0000 0.0000 0.0000 28.6519 0.0000
# 6 -5.2011 5.2011 0.0000 0.0000 0.0000 14.6868
#
#
#
# Elastic Compliance Matrix: (Units=1/GPa)
#
#
# Indices 1 2 3 4 5 6 
#
# 1 0.027160 0.004866 -0.004569 0.000000 0.000000 0.007895
# 2 0.004866 0.027160 -0.004569 0.000000 0.000000 -0.007895
# 3 -0.004569 -0.004569 0.004922 0.000000 0.000000 0.000000
# 4 0.000000 0.000000 0.000000 0.034902 0.000000 0.000000
# 5 0.000000 0.000000 0.000000 0.000000 0.034902 0.000000
# 6 0.007895 -0.007895 0.000000 0.000000 0.000000 0.073680
#
#
# Mechanical properties :
#
#
# Convention : Reuss Voigt Hill
#
# Bulk Modulus (GPa) = 19.72567 57.67827 38.70197
# Shear Modulus (GPa) = 21.91338 33.83621 27.87479
#
# Velocity S-wave (km/s) = 3.10578 3.85928 3.50285
# Velocity P-wave (km/s) = 4.64155 6.72663 5.77891
#
# Compressibility (1/GPa) = 0.05069537
#
# Stress axis : x y z
#
# Youngs Moduli (GPa) = 36.81874 36.81874 203.17335
#
# Poissons Ratio (x) = -0.17914 0.92839
# Poissons Ratio (y) = -0.17914 0.92839
# Poissons Ratio (z) = 0.16824 0.16824
#
# Static dielectric constant tensor:
#      x y z
#    x 1.893910 0.000000 0.000000 
#    y 0.000000 1.893910 0.000000 
#    z 0.000000 0.000000 1.968200 
# 
# From -- ./inp_files/2177.got.cif
#   From: 2010.05.17/outbox.cif.g08.bks.cpg/sg85_cif.got.tgz:2177.got - 2010.06.03 19:01:16.
