data_PCOD9544702
_publ_section_title
;
Structure prediction by ZEFSAII (Michael W. Deem and Ramdas Pophale) SiO2 
 PCOD9544702
Probable space group: P 4/N
;
_chemical_formula_sum "Si O2"
_cell_formula_units_Z 56
_cell_length_a 14.153625
_cell_length_b 14.153625
_cell_length_c 13.882809
_cell_angle_alpha 90.000000
_cell_angle_beta 90.000000
_cell_angle_gamma 90.000000
_cell_volume 2781.075110
_symmetry_space_group_name_H-M "P 4/N"
_symmetry_group_IT_number 85
_symmetry_cell_setting 'tetragonal'
loop_
_space_group_symop_operation_xyz
x,y,z
1/2-y,x,z
1/2-x,1/2-y,z
y,1/2-x,z
-x,-y,-z
1/2+y,-x,-z
1/2+x,1/2+y,-z
-y,1/2+x,-z
loop_
_atom_site_type_symbol
_atom_site_label
_atom_site_fract_x
_atom_site_fract_y
_atom_site_fract_z
Si Si1 0.813025 0.166944 0.071782
Si Si2 0.725328 0.357364 0.375197
Si Si3 0.350677 0.369020 0.687298
Si Si4 0.439473 0.925059 0.230167
Si Si5 0.097590 0.605605 0.552910
Si Si6 0.597623 0.610322 0.535762
Si Si7 0.880588 0.827510 0.737792
O O1 0.750000 0.250000 0.126028
O O2 0.871950 0.093879 0.132837
O O3 0.732987 0.124568 0.000088
O O4 0.750000 0.250000 0.359550
O O5 0.641084 0.390811 0.310304
O O6 0.693913 0.379455 0.484507
O O7 0.826277 0.407618 0.363662
O O8 0.238852 0.379428 0.710571
O O9 0.412405 0.450051 0.740438
O O10 0.356546 0.381205 0.569989
O O11 0.390684 0.028203 0.234404
O O12 0.106381 0.513066 0.488071
O O13 0.991015 0.619469 0.582922
O O14 0.616896 0.682333 0.620473
O O15 0.782043 0.875949 0.770365
#
# Coordination Sequence:
#
# PCOD9544702 Si02
#       7
#     8   8   8   8   8   8   8
#     4   6  17  40  65 104 129 150 191 270 335 412
#     4  12  22  31  49  85 116 150 196 278 321 360
#     4  11  24  40  59  89 130 175 222 269 310 370
#     4  12  21  42  66  89 121 165 218 260 335 409
#     4  11  21  34  46  78 120 156 217 268 317 365
#     4  11  21  38  52  70 116 180 231 259 304 371
#     4  11  26  41  57  86 126 174 225 274 315 370
#
# _framework density 20.136098
#
# number of rings (size 3 to 8) (size 9 to 14) (size 15 to 20)
#    0.857    0.571    4.286    3.000    4.000    1.143 
#    2.571    0.000    0.000    3.429    0.000    2.000 
#    0.000    0.000    0.000    0.000    0.000    0.000 
#
# Total GULP energy -311795.407902 kJ/mol
# GULP energy per Si atom -5567.775141 kJ/mol
# Density = 2.009027 g / cm^3
# Si number density = 20.136098 Si / 1000 Ang^3
#
#
#
# Elastic Constant Matrix: (Units=GPa)
#
#
# Indices 1 2 3 4 5 6 
#
# 1 123.4727 43.0157 17.3302 0.0000 0.0000 8.8276
# 2 43.0157 123.4727 17.3302 0.0000 0.0000 -8.8276
# 3 17.3302 17.3302 49.9543 0.0000 0.0000 0.0000
# 4 0.0000 0.0000 0.0000 14.1764 0.0000 0.0000
# 5 0.0000 0.0000 0.0000 0.0000 14.1764 0.0000
# 6 8.8276 -8.8276 0.0000 0.0000 0.0000 29.3309
#
#
#
# Elastic Compliance Matrix: (Units=1/GPa)
#
#
# Indices 1 2 3 4 5 6 
#
# 1 0.009891 -0.003417 -0.002246 0.000000 0.000000 -0.004005
# 2 -0.003417 0.009891 -0.002246 0.000000 0.000000 0.004005
# 3 -0.002246 -0.002246 0.021577 0.000000 0.000000 0.000000
# 4 0.000000 0.000000 0.000000 0.070540 0.000000 0.000000
# 5 0.000000 0.000000 0.000000 0.000000 0.070540 0.000000
# 6 -0.004005 0.004005 0.000000 0.000000 0.000000 0.036505
#
#
# Mechanical properties :
#
#
# Convention : Reuss Voigt Hill
#
# Bulk Modulus (GPa) = 39.15309 50.25020 44.70164
# Shear Modulus (GPa) = 20.55298 26.15166 23.35232
#
# Velocity S-wave (km/s) = 3.19831 3.60772 3.40917
# Velocity P-wave (km/s) = 5.75546 6.50874 6.14366
#
# Compressibility (1/GPa) = 0.02554077
#
# Stress axis : x y z
#
# Youngs Moduli (GPa) = 101.10249 101.10249 46.34646
#
# Poissons Ratio (x) = 0.34546 0.10409
# Poissons Ratio (y) = 0.34546 0.10409
# Poissons Ratio (z) = 0.22707 0.22707
#
# Static dielectric constant tensor:
#      x y z
#    x 1.790900 0.000000 0.000000 
#    y 0.000000 1.790900 0.000000 
#    z 0.000000 0.000000 1.737230 
# 
# From -- ./inp_files/1997.got.cif
#   From: 2010.05.17/outbox.cif.g08.bks.cpg/sg85_cif.got.tgz:1997.got - 2010.06.03 19:01:16.
