data_PCOD9544194
_publ_section_title
;
Structure prediction by ZEFSAII (Michael W. Deem and Ramdas Pophale) SiO2 
 PCOD9544194
Probable space group: P 42/M
;
_chemical_formula_sum "Si O2"
_cell_formula_units_Z 40
_cell_length_a 14.738677
_cell_length_b 14.738677
_cell_length_c 9.981015
_cell_angle_alpha 90.000000
_cell_angle_beta 90.000000
_cell_angle_gamma 90.000000
_cell_volume 2168.161912
_symmetry_space_group_name_H-M "P 42/M"
_symmetry_group_IT_number 84
_symmetry_cell_setting 'tetragonal'
loop_
_space_group_symop_operation_xyz
x,y,z
-y,x,1/2+z
-x,-y,z
y,-x,1/2+z
-x,-y,-z
y,-x,1/2-z
x,y,-z
-y,x,1/2-z
loop_
_atom_site_type_symbol
_atom_site_label
_atom_site_fract_x
_atom_site_fract_y
_atom_site_fract_z
Si Si1 0.023462 0.396233 0.270561
Si Si2 0.165268 0.176786 0.500000
Si Si3 0.255038 0.026382 0.000000
Si Si4 0.318804 0.778777 0.223715
Si Si5 0.009764 0.700264 0.000000
Si Si6 0.395978 0.432615 0.339142
Si Si7 0.197525 0.232219 0.000000
O O1 0.132138 0.382172 0.268949
O O2 0.000000 0.500000 0.302249
O O3 0.986503 0.322629 0.375247
O O4 0.983633 0.364197 0.128800
O O5 0.196272 0.235232 0.627851
O O6 0.218578 0.082474 0.500000
O O7 0.055546 0.181592 0.500000
O O8 0.211403 0.124890 0.000000
O O9 0.373646 0.694137 0.168954
O O10 0.278059 0.760310 0.369292
O O11 0.909350 0.743883 0.000000
O O12 0.384905 0.523818 0.248340
O O13 0.415795 0.446437 0.500000
#
# Coordination Sequence:
#
# PCOD9544194 Si02
#       7
#     8   4   4   8   4   8   4
#     4  10  21  39  58  86 118 155 193 245 297 353
#     4  10  20  39  60  85 118 158 194 244 303 353
#     4  10  21  37  60  84 120 154 196 243 295 355
#     4  10  22  39  59  86 123 153 197 247 297 350
#     4  10  21  37  60  84 120 152 196 247 293 355
#     4  11  24  42  63  89 120 157 200 247 297 355
#     4  10  22  37  58  91 118 158 198 244 293 353
#
# _framework density 18.448808
#
# number of rings (size 3 to 8) (size 9 to 14) (size 15 to 20)
#    0.000    1.800    1.000    3.000    2.800    3.600 
#    0.000    0.000    0.000    7.200    0.000    0.000 
#    0.000    0.000    0.000    0.000    0.000    0.000 
#
# Total GULP energy -223101.660532 kJ/mol
# GULP energy per Si atom -5577.541513 kJ/mol
# Density = 1.840682 g / cm^3
# Si number density = 18.448808 Si / 1000 Ang^3
#
#
#
# Elastic Constant Matrix: (Units=GPa)
#
#
# Indices 1 2 3 4 5 6 
#
# 1 94.2216 -2.3901 4.5318 0.0000 0.0000 22.6111
# 2 -2.3901 94.2216 4.5318 0.0000 0.0000 -22.6111
# 3 4.5318 4.5318 131.1475 0.0000 0.0000 0.0000
# 4 0.0000 0.0000 0.0000 26.9573 0.0000 0.0000
# 5 0.0000 0.0000 0.0000 0.0000 26.9573 0.0000
# 6 22.6111 -22.6111 0.0000 0.0000 0.0000 36.3432
#
#
#
# Elastic Compliance Matrix: (Units=1/GPa)
#
#
# Indices 1 2 3 4 5 6 
#
# 1 0.012765 -0.001838 -0.000378 0.000000 0.000000 -0.009086
# 2 -0.001838 0.012765 -0.000378 0.000000 0.000000 0.009086
# 3 -0.000378 -0.000378 0.007651 0.000000 0.000000 0.000000
# 4 0.000000 0.000000 0.000000 0.037096 0.000000 0.000000
# 5 0.000000 0.000000 0.000000 0.000000 0.037096 0.000000
# 6 -0.009086 0.009086 0.000000 0.000000 0.000000 0.038821
#
#
# Mechanical properties :
#
#
# Convention : Reuss Voigt Hill
#
# Bulk Modulus (GPa) = 35.72151 36.99309 36.35730
# Shear Modulus (GPa) = 31.11150 38.91271 35.01210
#
# Velocity S-wave (km/s) = 4.11100 4.59761 4.36110
# Velocity P-wave (km/s) = 6.47598 6.94833 6.71631
#
# Compressibility (1/GPa) = 0.02799434
#
# Stress axis : x y z
#
# Youngs Moduli (GPa) = 78.33819 78.33819 130.70024
#
# Poissons Ratio (x) = 0.14402 0.04935
# Poissons Ratio (y) = 0.14402 0.04935
# Poissons Ratio (z) = 0.02958 0.02958
#
# Static dielectric constant tensor:
#      x y z
#    x 1.609520 0.000000 0.000000 
#    y 0.000000 1.609520 0.000000 
#    z 0.000000 0.000000 1.700440 
# 
# From -- ./inp_files/861.got.cif
#   From: 2010.05.17/outbox.cif.g08.bks.cpg/sg84_1_cif.got.tgz:861.got - 2010.06.03 18:57:40.
