data_PCOD9544336
_publ_section_title
;
Structure prediction by ZEFSAII (Michael W. Deem and Ramdas Pophale) SiO2 
 PCOD9544336
Probable space group: P 42/M
;
_chemical_formula_sum "Si O2"
_cell_formula_units_Z 48
_cell_length_a 17.120803
_cell_length_b 17.120803
_cell_length_c 8.583999
_cell_angle_alpha 90.000000
_cell_angle_beta 90.000000
_cell_angle_gamma 90.000000
_cell_volume 2516.158057
_symmetry_space_group_name_H-M "P 42/M"
_symmetry_group_IT_number 84
_symmetry_cell_setting 'tetragonal'
loop_
_space_group_symop_operation_xyz
x,y,z
-y,x,1/2+z
-x,-y,z
y,-x,1/2+z
-x,-y,-z
y,-x,1/2-z
x,y,-z
-y,x,1/2-z
loop_
_atom_site_type_symbol
_atom_site_label
_atom_site_fract_x
_atom_site_fract_y
_atom_site_fract_z
Si Si1 0.344859 0.638192 0.677227
Si Si2 0.331956 0.103923 0.686263
Si Si3 0.121563 0.492422 0.679073
Si Si4 0.720114 0.507190 0.175638
Si Si5 0.671454 0.072074 0.685641
Si Si6 0.225109 0.252758 0.686319
O O1 0.325832 0.615001 0.500000
O O2 0.437290 0.645872 0.695232
O O3 0.305551 0.580762 0.797807
O O4 0.313011 0.723765 0.713302
O O5 0.342969 0.108270 0.500000
O O6 0.418784 0.114200 0.758385
O O7 0.267059 0.169639 0.725990
O O8 0.304727 0.016487 0.725943
O O9 0.097950 0.490375 0.500000
O O10 0.213085 0.474157 0.701655
O O11 0.080239 0.420371 0.766768
O O12 0.750664 0.519168 0.000000
O O13 0.676998 0.083117 0.500000
O O14 0.726131 0.136376 0.768407
O O15 0.233881 0.264019 0.500000
#
# Coordination Sequence:
#
# PCOD9544336 Si02
#       6
#     8   8   8   8   8   8
#     4  11  23  38  58  83 112 154 202 246 293 343
#     4  10  23  41  61  86 120 158 192 236 295 353
#     4  12  23  35  58  89 120 154 195 242 290 346
#     4  11  23  38  57  80 114 155 198 246 294 343
#     4  11  23  40  61  87 121 157 193 236 294 353
#     4  11  22  38  62  87 115 153 194 238 289 347
#
# _framework density 19.076702000000001
#
# number of rings (size 3 to 8) (size 9 to 14) (size 15 to 20)
#    0.000    1.000    3.333    4.000    0.000    6.333 
#    0.000    1.667    0.000    0.500    0.000    3.500 
#    0.000    0.000    0.000    0.000    0.000    0.000 
#
# Total GULP energy -267885.187792 kJ/mol
# GULP energy per Si atom -5580.941412 kJ/mol
# Density = 1.903328 g / cm^3
# Si number density = 19.076702 Si / 1000 Ang^3
#
#
#
# Elastic Constant Matrix: (Units=GPa)
#
#
# Indices 1 2 3 4 5 6 
#
# 1 80.7584 40.2989 18.6361 0.0000 0.0000 -8.6524
# 2 40.2989 80.7584 18.6361 0.0000 0.0000 8.6524
# 3 18.6361 18.6361 46.4191 0.0000 0.0000 0.0000
# 4 0.0000 0.0000 0.0000 -13.6779 0.0000 0.0000
# 5 0.0000 0.0000 0.0000 0.0000 -13.6779 0.0000
# 6 -8.6524 8.6524 0.0000 0.0000 0.0000 12.3161
#
#
#
# Elastic Compliance Matrix: (Units=1/GPa)
#
#
# Indices 1 2 3 4 5 6 
#
# 1 0.022379 -0.012954 -0.003784 0.000000 0.000000 0.024822
# 2 -0.012954 0.022379 -0.003784 0.000000 0.000000 -0.024822
# 3 -0.003784 -0.003784 0.024581 0.000000 0.000000 0.000000
# 4 0.000000 0.000000 0.000000 -0.073111 0.000000 0.000000
# 5 0.000000 0.000000 0.000000 0.000000 -0.073111 0.000000
# 6 0.024822 -0.024822 0.000000 0.000000 0.000000 0.116071
#
#
# Mechanical properties :
#
#
# Convention : Reuss Voigt Hill
#
# Bulk Modulus (GPa) = 35.34070 40.34202 37.84136
# Shear Modulus (GPa) = 55.76277 5.68305 30.72291
#
# Velocity S-wave (km/s) = 5.41242 1.72787 4.01745
# Velocity P-wave (km/s) = 7.59110 5.01736 6.43423
#
# Compressibility (1/GPa) = 0.02829598
#
# Stress axis : x y z
#
# Youngs Moduli (GPa) = 44.68426 44.68426 40.68125
#
# Poissons Ratio (x) = 0.57882 0.15394
# Poissons Ratio (y) = 0.57882 0.15394
# Poissons Ratio (z) = 0.16909 0.16909
#
# Static dielectric constant tensor:
#      x y z
#    x 1.679330 0.000000 0.000000 
#    y 0.000000 1.679330 0.000000 
#    z 0.000000 0.000000 1.642330 
# 
# From -- ./inp_files/963.got.cif
#   From: 2010.05.17/outbox.cif.g08.bks.cpg/sg84_1_cif.got.tgz:963.got - 2010.06.03 18:57:40.
