data_PCOD9544744
_publ_section_title
;
Structure prediction by ZEFSAII (Michael W. Deem and Ramdas Pophale) SiO2 
 PCOD9544744
Probable space group: P 4/N
;
_chemical_formula_sum "Si O2"
_cell_formula_units_Z 34
_cell_length_a 10.938711
_cell_length_b 10.938711
_cell_length_c 12.776822
_cell_angle_alpha 90.000000
_cell_angle_beta 90.000000
_cell_angle_gamma 90.000000
_cell_volume 1528.815726
_symmetry_space_group_name_H-M "P 4/N"
_symmetry_group_IT_number 85
_symmetry_cell_setting 'tetragonal'
loop_
_space_group_symop_operation_xyz
x,y,z
1/2-y,x,z
1/2-x,1/2-y,z
y,1/2-x,z
-x,-y,-z
1/2+y,-x,-z
1/2+x,1/2+y,-z
-y,1/2+x,-z
loop_
_atom_site_type_symbol
_atom_site_label
_atom_site_fract_x
_atom_site_fract_y
_atom_site_fract_z
Si Si1 0.250000 0.750000 0.500000
Si Si2 0.950603 0.427874 0.738424
Si Si3 0.465651 0.671509 0.346898
Si Si4 0.114176 0.597097 0.030748
Si Si5 0.168919 0.428543 0.434961
O O1 0.346589 0.690087 0.419485
O O2 0.061075 0.524313 0.734166
O O3 0.996150 0.291600 0.717847
O O4 0.876565 0.426876 0.844713
O O5 0.876495 0.461159 0.634277
O O6 0.559692 0.649360 0.441564
O O7 0.081386 0.743848 0.012321
O O8 0.000000 0.500000 0.000000
O O9 0.095017 0.307983 0.406988
#
# Coordination Sequence:
#
# PCOD9544744 Si02
#       5
#     2   8   8   8   8
#     4  12  24  36  64 100 162 184 236 288 344 432
#     4  12  26  42  74  97 140 192 239 289 380 425
#     4  12  23  41  63 106 141 190 228 282 346 457
#     4  11  28  55  80 112 151 194 269 340 387 452
#     4  11  23  41  63 102 151 183 229 282 348 444
#
# _framework density 22.239438
#
# number of rings (size 3 to 8) (size 9 to 14) (size 15 to 20)
#    0.000    0.471    4.706    3.529    3.294    2.824 
#    0.000    2.353    0.000    0.000    0.000    0.000 
#    0.000    0.000    0.000    0.000    0.000    0.000 
#
# Total GULP energy -189501.760745 kJ/mol
# GULP energy per Si atom -5573.581198 kJ/mol
# Density = 2.218882 g / cm^3
# Si number density = 22.239438 Si / 1000 Ang^3
#
#
#
# Elastic Constant Matrix: (Units=GPa)
#
#
# Indices 1 2 3 4 5 6 
#
# 1 95.7504 48.9099 3.8026 0.0000 0.0000 7.0310
# 2 48.9099 95.7504 3.8026 0.0000 0.0000 -7.0310
# 3 3.8026 3.8026 72.4624 0.0000 0.0000 0.0000
# 4 0.0000 0.0000 0.0000 27.2849 0.0000 0.0000
# 5 0.0000 0.0000 0.0000 0.0000 27.2849 0.0000
# 6 7.0310 -7.0310 0.0000 0.0000 0.0000 18.4595
#
#
#
# Elastic Compliance Matrix: (Units=1/GPa)
#
#
# Indices 1 2 3 4 5 6 
#
# 1 0.015519 -0.008587 -0.000364 0.000000 0.000000 -0.009182
# 2 -0.008587 0.015519 -0.000364 0.000000 0.000000 0.009182
# 3 -0.000364 -0.000364 0.013838 0.000000 0.000000 0.000000
# 4 0.000000 0.000000 0.000000 0.036650 0.000000 0.000000
# 5 0.000000 0.000000 0.000000 0.000000 0.036650 0.000000
# 6 -0.009182 0.009182 0.000000 0.000000 0.000000 0.061167
#
#
# Mechanical properties :
#
#
# Convention : Reuss Voigt Hill
#
# Bulk Modulus (GPa) = 38.09944 41.88819 39.99382
# Shear Modulus (GPa) = 24.18721 28.43575 26.31148
#
# Velocity S-wave (km/s) = 3.30143 3.57966 3.44335
# Velocity P-wave (km/s) = 5.63039 5.99677 5.81646
#
# Compressibility (1/GPa) = 0.02624710
#
# Stress axis : x y z
#
# Youngs Moduli (GPa) = 64.43849 64.43849 72.26252
#
# Poissons Ratio (x) = 0.55332 0.02629
# Poissons Ratio (y) = 0.55332 0.02629
# Poissons Ratio (z) = 0.02344 0.02344
#
# Static dielectric constant tensor:
#      x y z
#    x 1.921350 0.000000 0.000000 
#    y 0.000000 1.921350 0.000000 
#    z 0.000000 0.000000 1.754600 
# 
# From -- ./inp_files/1503.got.cif
#   From: 2010.05.17/outbox.cif.g08.bks.cpg/sg85_cif.got.tgz:1503.got - 2010.06.03 19:01:16.
