data_PCOD9544972
_publ_section_title
;
Structure prediction by ZEFSAII (Michael W. Deem and Ramdas Pophale) SiO2 
 PCOD9544972
Probable space group: P 42/N
;
_chemical_formula_sum "Si O2"
_cell_formula_units_Z 40
_cell_length_a 20.923767
_cell_length_b 20.923767
_cell_length_c 5.219023
_cell_angle_alpha 90.000000
_cell_angle_beta 90.000000
_cell_angle_gamma 90.000000
_cell_volume 2284.909278
_symmetry_space_group_name_H-M "P 42/N"
_symmetry_group_IT_number 86
_space_group.IT_coordinate_system_code '2'
_symmetry_cell_setting 'tetragonal'
loop_
_space_group_symop_operation_xyz
x,y,z
-y,1/2+x,1/2+z
1/2-x,1/2-y,z
1/2+y,-x,1/2+z
-x,-y,-z
y,1/2-x,1/2-z
1/2+x,1/2+y,-z
1/2-y,x,1/2-z
loop_
_atom_site_type_symbol
_atom_site_label
_atom_site_fract_x
_atom_site_fract_y
_atom_site_fract_z
Si Si1 0.499391 0.587047 0.764617
Si Si2 0.052009 0.431620 0.767389
Si Si3 0.326273 0.607142 0.299500
Si Si4 0.973599 0.320362 0.679362
Si Si5 0.580873 0.298662 0.455314
O O1 0.552068 0.582239 0.539646
O O2 0.460581 0.520373 0.737282
O O3 0.454301 0.646827 0.704697
O O4 0.532110 0.588504 0.040868
O O5 0.039791 0.357103 0.712614
O O6 0.326784 0.565743 0.558266
O O7 0.370210 0.667706 0.351507
O O8 0.252769 0.618824 0.219097
O O9 0.351523 0.564737 0.061689
O O10 0.970790 0.246003 0.600355
#
# Coordination Sequence:
#
# PCOD9544972 Si02
#       5
#     8   8   8   8   8
#     4  10  21  32  58  78 104 138 185 226 286 331
#     4  10  20  34  54  81 104 136 179 234 281 333
#     4  10  23  35  57  72 111 147 193 221 264 318
#     4  10  22  36  56  75 113 142 180 236 268 324
#     4  10  24  37  59  76 113 150 193 228 274 316
#
# _framework density 17.506167000000001
#
# number of rings (size 3 to 8) (size 9 to 14) (size 15 to 20)
#    1.200    0.800    2.000    1.200   11.200    0.000 
#    0.000    3.000    0.000    0.000    0.000    0.000 
#    0.000    4.800    0.000    0.000    0.000    0.000 
#
# Total GULP energy -222878.892745 kJ/mol
# GULP energy per Si atom -5571.972319 kJ/mol
# Density = 1.746632 g / cm^3
# Si number density = 17.506167 Si / 1000 Ang^3
#
#
#
# Elastic Constant Matrix: (Units=GPa)
#
#
# Indices 1 2 3 4 5 6 
#
# 1 56.4040 39.2712 15.9532 0.0000 0.0000 -12.8407
# 2 39.2712 56.4040 15.9532 0.0000 0.0000 12.8407
# 3 15.9532 15.9532 94.1946 0.0000 0.0000 0.0000
# 4 0.0000 0.0000 0.0000 20.3154 0.0000 0.0000
# 5 0.0000 0.0000 0.0000 0.0000 20.3154 0.0000
# 6 -12.8407 12.8407 0.0000 0.0000 0.0000 12.4347
#
#
#
# Elastic Compliance Matrix: (Units=1/GPa)
#
#
# Indices 1 2 3 4 5 6 
#
# 1 -0.047726 0.058804 -0.001876 0.000000 0.000000 -0.110008
# 2 0.058804 -0.047726 -0.001876 0.000000 0.000000 0.110008
# 3 -0.001876 -0.001876 0.011252 0.000000 0.000000 0.000000
# 4 0.000000 0.000000 0.000000 0.049224 0.000000 0.000000
# 5 0.000000 0.000000 0.000000 0.000000 0.049224 0.000000
# 6 -0.110008 0.110008 0.000000 0.000000 0.000000 -0.146779
#
#
# Mechanical properties :
#
#
# Convention : Reuss Voigt Hill
#
# Bulk Modulus (GPa) = 38.60620 38.81753 38.71187
# Shear Modulus (GPa) = -21.36755 19.66809 -0.84973
#
# Velocity S-wave (km/s) = -3.49746 3.35549 -0.69746
# Velocity P-wave (km/s) = 2.40648 6.10199 4.63818
#
# Compressibility (1/GPa) = 0.02590257
#
# Stress axis : x y z
#
# Youngs Moduli (GPa) = -20.95295 -20.95295 88.87445
#
# Poissons Ratio (x) = 1.23211 0.16674
# Poissons Ratio (y) = 1.23211 0.16674
# Poissons Ratio (z) = -0.03931 -0.03931
#
# Static dielectric constant tensor:
#      x y z
#    x 1.617310 0.000000 0.000000 
#    y 0.000000 1.617310 0.000000 
#    z 0.000000 0.000000 1.623480 
# 
# From -- ./inp_files/365.got.cif
#   From: 2010.05.17/outbox.cif.g08.bks.cpg/sg86_1_cif.got.tgz:365.got - 2010.06.03 19:03:11.
