data_PCOD9544831
_publ_section_title
;
Structure prediction by ZEFSAII (Michael W. Deem and Ramdas Pophale) SiO2 
 PCOD9544831
Probable space group: P 4/N
;
_chemical_formula_sum "Si O2"
_cell_formula_units_Z 40
_cell_length_a 17.223761
_cell_length_b 17.223761
_cell_length_c 5.110707
_cell_angle_alpha 90.000000
_cell_angle_beta 90.000000
_cell_angle_gamma 90.000000
_cell_volume 1516.131826
_symmetry_space_group_name_H-M "P 4/N"
_symmetry_group_IT_number 85
_symmetry_cell_setting 'tetragonal'
loop_
_space_group_symop_operation_xyz
x,y,z
1/2-y,x,z
1/2-x,1/2-y,z
y,1/2-x,z
-x,-y,-z
1/2+y,-x,-z
1/2+x,1/2+y,-z
-y,1/2+x,-z
loop_
_atom_site_type_symbol
_atom_site_label
_atom_site_fract_x
_atom_site_fract_y
_atom_site_fract_z
Si Si1 0.622889 0.731888 0.495341
Si Si2 0.133139 0.784311 0.991266
Si Si3 0.911606 0.008488 0.289828
Si Si4 0.507357 0.802296 0.795614
Si Si5 0.869405 0.478572 0.375502
O O1 0.687678 0.667129 0.440856
O O2 0.748526 0.586635 0.784285
O O3 0.543621 0.697737 0.376626
O O4 0.091719 0.837115 0.206839
O O5 0.206499 0.830351 0.877725
O O6 0.068466 0.751888 0.793641
O O7 0.978333 0.944499 0.254522
O O8 0.860573 0.991322 0.549848
O O9 0.949888 0.091928 0.351659
O O10 0.854012 0.000598 0.050652
#
# Coordination Sequence:
#
# PCOD9544831 Si02
#       5
#     8   8   8   8   8
#     4  11  26  50  80 117 168 221 286 360 440 513
#     4  11  26  49  81 121 172 226 279 356 435 519
#     4  11  27  50  88 121 162 224 281 350 416 520
#     4  12  26  53  78 123 164 219 277 348 424 514
#     4  11  25  51  85 125 166 221 290 353 426 519
#
# _framework density 26.382930000000002
#
# number of rings (size 3 to 8) (size 9 to 14) (size 15 to 20)
#    0.000    0.800    4.000    1.200    5.600    3.200 
#    0.000    0.000    0.000    0.000    0.000    0.000 
#    0.000    0.000    0.000    0.000    0.000    0.000 
#
# Total GULP energy -223951.452056 kJ/mol
# GULP energy per Si atom -5598.786301 kJ/mol
# Density = 2.632288 g / cm^3
# Si number density = 26.382930 Si / 1000 Ang^3
#
#
#
# Elastic Constant Matrix: (Units=GPa)
#
#
# Indices 1 2 3 4 5 6 
#
# 1 181.9416 70.9441 41.0623 0.0000 0.0000 -2.4092
# 2 70.9441 181.9416 41.0623 0.0000 0.0000 2.4092
# 3 41.0623 41.0623 116.5549 0.0000 0.0000 0.0000
# 4 0.0000 0.0000 0.0000 40.1640 0.0000 0.0000
# 5 0.0000 0.0000 0.0000 0.0000 40.1640 0.0000
# 6 -2.4092 2.4092 0.0000 0.0000 0.0000 73.0135
#
#
#
# Elastic Compliance Matrix: (Units=1/GPa)
#
#
# Indices 1 2 3 4 5 6 
#
# 1 0.006744 -0.002278 -0.001573 0.000000 0.000000 0.000298
# 2 -0.002278 0.006744 -0.001573 0.000000 0.000000 -0.000298
# 3 -0.001573 -0.001573 0.009688 0.000000 0.000000 0.000000
# 4 0.000000 0.000000 0.000000 0.024898 0.000000 0.000000
# 5 0.000000 0.000000 0.000000 0.000000 0.024898 0.000000
# 6 0.000298 -0.000298 0.000000 0.000000 0.000000 0.013716
#
#
# Mechanical properties :
#
#
# Convention : Reuss Voigt Hill
#
# Bulk Modulus (GPa) = 81.12866 87.39729 84.26297
# Shear Modulus (GPa) = 49.19080 52.49291 50.84186
#
# Velocity S-wave (km/s) = 4.32266 4.46539 4.39461
# Velocity P-wave (km/s) = 7.46532 7.73206 7.59986
#
# Compressibility (1/GPa) = 0.01232610
#
# Stress axis : x y z
#
# Youngs Moduli (GPa) = 148.28703 148.28703 103.21987
#
# Poissons Ratio (x) = 0.33787 0.16238
# Poissons Ratio (y) = 0.33787 0.16238
# Poissons Ratio (z) = 0.23327 0.23327
#
# Static dielectric constant tensor:
#      x y z
#    x 2.099030 0.000000 0.000000 
#    y 0.000000 2.099030 0.000000 
#    z 0.000000 0.000000 2.108020 
# 
# From -- ./inp_files/355.got.cif
#   From: 2010.05.17/outbox.cif.g08.bks.cpg/sg85_cif.got.tgz:355.got - 2010.06.03 19:01:16.
