data_PCOD9544003
_publ_section_title
;
Structure prediction by ZEFSAII (Michael W. Deem and Ramdas Pophale) SiO2 
 PCOD9544003
Probable space group: P 42/M
;
_chemical_formula_sum "Si O2"
_cell_formula_units_Z 64
_cell_length_a 20.732526
_cell_length_b 20.732526
_cell_length_c 7.966885
_cell_angle_alpha 90.000000
_cell_angle_beta 90.000000
_cell_angle_gamma 90.000000
_cell_volume 3424.467001
_symmetry_space_group_name_H-M "P 42/M"
_symmetry_group_IT_number 84
_symmetry_cell_setting 'tetragonal'
loop_
_space_group_symop_operation_xyz
x,y,z
-y,x,1/2+z
-x,-y,z
y,-x,1/2+z
-x,-y,-z
y,-x,1/2-z
x,y,-z
-y,x,1/2-z
loop_
_atom_site_type_symbol
_atom_site_label
_atom_site_fract_x
_atom_site_fract_y
_atom_site_fract_z
Si Si1 0.717550 0.801181 0.798898
Si Si2 0.939533 0.629817 0.799069
Si Si3 0.911549 0.373073 0.703812
Si Si4 0.413015 0.540977 0.315052
Si Si5 0.853578 0.507685 0.300319
Si Si6 0.399727 0.748746 0.204424
Si Si7 0.317985 0.629227 0.199573
Si Si8 0.278343 0.834412 0.303883
O O1 0.687067 0.867960 0.737674
O O2 0.663717 0.746093 0.765178
O O3 0.786918 0.776665 0.730339
O O4 0.724594 0.805227 0.000000
O O5 0.904954 0.565276 0.730073
O O6 0.902057 0.694227 0.734473
O O7 0.014472 0.630386 0.756374
O O8 0.931545 0.627979 0.000000
O O9 0.909862 0.373945 0.500000
O O10 0.879212 0.439835 0.767238
O O11 0.465279 0.572719 0.192792
O O12 0.428760 0.564500 0.500000
O O13 0.340547 0.561249 0.272684
O O14 0.847436 0.499143 0.500000
O O15 0.784626 0.535217 0.239145
O O16 0.377720 0.676910 0.247009
O O17 0.342329 0.790849 0.284456
O O18 0.396148 0.753775 0.000000
O O19 0.313273 0.625552 0.000000
O O20 0.262714 0.844507 0.500000
#
# Coordination Sequence:
#
# PCOD9544003 Si02
#       8
#     8   8   8   8   8   8   8   8
#     4   9  18  33  50  68  92 123 156 190 229 272
#     4  10  19  30  46  67  91 122 157 191 228 270
#     4  10  20  31  45  67  95 125 155 189 231 276
#     4  11  22  37  53  68  86 110 145 192 244 293
#     4   9  17  30  45  63  90 124 159 191 223 264
#     4   8  15  27  44  64  87 117 153 188 220 262
#     4  10  19  32  50  72  94 118 150 189 237 288
#     4   8  15  29  47  64  84 114 154 193 225 262
#
# _framework density 18.689041
#
# number of rings (size 3 to 8) (size 9 to 14) (size 15 to 20)
#    0.000    2.625    0.000    2.625    0.000    4.500 
#    0.000    2.500    0.000    0.000    0.000    0.000 
#    0.000    0.500    0.000    6.250    0.000    0.000 
#
# Total GULP energy -356548.044627 kJ/mol
# GULP energy per Si atom -5571.063197 kJ/mol
# Density = 1.864650 g / cm^3
# Si number density = 18.689041 Si / 1000 Ang^3
#
#
#
# Elastic Constant Matrix: (Units=GPa)
#
#
# Indices 1 2 3 4 5 6 
#
# 1 45.1314 47.9364 -7.1036 0.0000 0.0000 5.2061
# 2 47.9364 45.1314 -7.1036 0.0000 0.0000 -5.2061
# 3 -7.1036 -7.1036 23.4017 0.0000 0.0000 0.0000
# 4 0.0000 0.0000 0.0000 2.0007 0.0000 0.0000
# 5 0.0000 0.0000 0.0000 0.0000 2.0007 0.0000
# 6 5.2061 -5.2061 0.0000 0.0000 0.0000 19.5469
#
#
#
# Elastic Compliance Matrix: (Units=1/GPa)
#
#
# Indices 1 2 3 4 5 6 
#
# 1 -0.084001 0.095268 0.003420 0.000000 0.000000 0.047747
# 2 0.095268 -0.084001 0.003420 0.000000 0.000000 -0.047747
# 3 0.003420 0.003420 0.044808 0.000000 0.000000 0.000000
# 4 0.000000 0.000000 0.000000 0.499831 0.000000 0.000000
# 5 0.000000 0.000000 0.000000 0.000000 0.499831 0.000000
# 6 0.047747 -0.047747 0.000000 0.000000 0.000000 0.025725
#
#
# Mechanical properties :
#
#
# Convention : Reuss Voigt Hill
#
# Bulk Modulus (GPa) = 12.34222 20.12474 16.23348
# Shear Modulus (GPa) = 6.89671 10.03868 8.46770
#
# Velocity S-wave (km/s) = 1.92308 2.32015 2.13088
# Velocity P-wave (km/s) = 3.39843 4.23899 3.84177
#
# Compressibility (1/GPa) = 0.08102271
#
# Stress axis : x y z
#
# Youngs Moduli (GPa) = -11.90455 -11.90455 22.31727
#
# Poissons Ratio (x) = 1.13413 -0.07633
# Poissons Ratio (y) = 1.13413 -0.07633
# Poissons Ratio (z) = 0.04071 0.04071
#
# Static dielectric constant tensor:
#      x y z
#    x 1.675850 0.000000 0.000000 
#    y 0.000000 1.675850 0.000000 
#    z 0.000000 0.000000 1.663260 
# 
# From -- ./inp_files/1374.got.cif
#   From: 2010.05.17/outbox.cif.g08.bks.cpg/sg84_1_cif.got.tgz:1374.got - 2010.06.03 18:57:40.
