data_PCOD9544157
_publ_section_title
;
Structure prediction by ZEFSAII (Michael W. Deem and Ramdas Pophale) SiO2 
 PCOD9544157
Probable space group: P 42/M
;
_chemical_formula_sum "Si O2"
_cell_formula_units_Z 58
_cell_length_a 18.199226
_cell_length_b 18.199226
_cell_length_c 9.373792
_cell_angle_alpha 90.000000
_cell_angle_beta 90.000000
_cell_angle_gamma 90.000000
_cell_volume 3104.710774
_symmetry_space_group_name_H-M "P 42/M"
_symmetry_group_IT_number 84
_symmetry_cell_setting 'tetragonal'
loop_
_space_group_symop_operation_xyz
x,y,z
-y,x,1/2+z
-x,-y,z
y,-x,1/2+z
-x,-y,-z
y,-x,1/2-z
x,y,-z
-y,x,1/2-z
loop_
_atom_site_type_symbol
_atom_site_label
_atom_site_fract_x
_atom_site_fract_y
_atom_site_fract_z
Si Si1 0.682057 0.260561 0.669952
Si Si2 0.240253 0.866630 0.170357
Si Si3 0.693005 0.922025 0.163528
Si Si4 0.863164 0.906895 0.836912
Si Si5 0.390648 0.227770 0.162847
Si Si6 0.954845 0.631936 0.828847
Si Si7 0.468807 0.824068 0.331892
Si Si8 0.000000 0.000000 0.250000
O O1 0.699007 0.247429 0.500000
O O2 0.733471 0.212603 0.772821
O O3 0.698792 0.345590 0.699688
O O4 0.599764 0.231220 0.691930
O O5 0.158883 0.880487 0.228828
O O6 0.297922 0.918810 0.250928
O O7 0.243990 0.873365 0.000000
O O8 0.779660 0.932818 0.196969
O O9 0.670327 0.836985 0.168269
O O10 0.637520 0.963450 0.269204
O O11 0.681859 0.947689 0.000000
O O12 0.928214 0.966634 0.828853
O O13 0.860019 0.878648 0.000000
O O14 0.459248 0.204455 0.255679
O O15 0.416096 0.233269 0.000000
O O16 0.904594 0.562196 0.788094
O O17 0.951936 0.639148 0.000000
O O18 0.482579 0.827902 0.500000
#
# Coordination Sequence:
#
# PCOD9544157 Si02
#       8
#     8   8   8   8   8   8   8   2
#     4   9  18  38  61  83 115 154 184 221 281 335
#     4  11  21  34  58  85 107 141 193 242 282 335
#     4  10  21  37  58  81 110 149 189 238 287 338
#     4  11  23  41  57  76 110 148 190 242 296 342
#     4  10  20  36  60  86 114 149 187 227 279 336
#     4  10  21  37  55  78 114 155 187 228 287 341
#     4   9  20  36  57  84 115 149 186 228 275 330
#     4  12  26  36  60  86 102 148 204 250 286 336
#
# _framework density 18.681287999999999
#
# number of rings (size 3 to 8) (size 9 to 14) (size 15 to 20)
#    0.000    1.931    1.379    3.517    0.000    7.172 
#    0.000    2.759    0.000    0.414    0.000    2.897 
#    0.000    0.000    0.000    0.000    0.000    0.000 
#
# Total GULP energy -323453.162926 kJ/mol
# GULP energy per Si atom -5576.778671 kJ/mol
# Density = 1.863877 g / cm^3
# Si number density = 18.681288 Si / 1000 Ang^3
#
#
#
# Elastic Constant Matrix: (Units=GPa)
#
#
# Indices 1 2 3 4 5 6 
#
# 1 64.9852 1.0565 17.4795 0.0000 0.0000 -6.4371
# 2 1.0565 64.9852 17.4795 0.0000 0.0000 6.4371
# 3 17.4795 17.4795 52.5983 0.0000 0.0000 0.0000
# 4 0.0000 0.0000 0.0000 25.1236 0.0000 0.0000
# 5 0.0000 0.0000 0.0000 0.0000 25.1236 0.0000
# 6 -6.4371 6.4371 0.0000 0.0000 0.0000 5.8478
#
#
#
# Elastic Compliance Matrix: (Units=1/GPa)
#
#
# Indices 1 2 3 4 5 6 
#
# 1 0.019236 -0.000862 -0.006106 0.000000 0.000000 0.022123
# 2 -0.000862 0.019236 -0.006106 0.000000 0.000000 -0.022123
# 3 -0.006106 -0.006106 0.023070 0.000000 0.000000 0.000000
# 4 0.000000 0.000000 0.000000 0.039803 0.000000 0.000000
# 5 0.000000 0.000000 0.000000 0.000000 0.039803 0.000000
# 6 0.022123 -0.022123 0.000000 0.000000 0.000000 0.219707
#
#
# Mechanical properties :
#
#
# Convention : Reuss Voigt Hill
#
# Bulk Modulus (GPa) = 28.25312 28.28885 28.27099
# Shear Modulus (GPa) = 12.53755 20.98922 16.76339
#
# Velocity S-wave (km/s) = 2.59343 3.35557 2.99881
# Velocity P-wave (km/s) = 4.91166 5.49444 5.21120
#
# Compressibility (1/GPa) = 0.03539432
#
# Stress axis : x y z
#
# Youngs Moduli (GPa) = 51.98608 51.98608 43.34559
#
# Poissons Ratio (x) = 0.04480 0.26467
# Poissons Ratio (y) = 0.04480 0.26467
# Poissons Ratio (z) = 0.31743 0.31743
#
# Static dielectric constant tensor:
#      x y z
#    x 1.682350 0.000000 0.000000 
#    y 0.000000 1.682350 0.000000 
#    z 0.000000 0.000000 1.634740 
# 
# From -- ./inp_files/1173.got.cif
#   From: 2010.05.17/outbox.cif.g08.bks.cpg/sg84_1_cif.got.tgz:1173.got - 2010.06.03 18:57:40.
