data_PCOD9544674
_publ_section_title
;
Structure prediction by ZEFSAII (Michael W. Deem and Ramdas Pophale) SiO2 
 PCOD9544674
Probable space group: P 4/N
;
_chemical_formula_sum "Si O2"
_cell_formula_units_Z 60
_cell_length_a 10.901018
_cell_length_b 10.901018
_cell_length_c 21.757305
_cell_angle_alpha 90.000000
_cell_angle_beta 90.000000
_cell_angle_gamma 90.000000
_cell_volume 2585.468276
_symmetry_space_group_name_H-M "P 4/N"
_symmetry_group_IT_number 85
_symmetry_cell_setting 'tetragonal'
loop_
_space_group_symop_operation_xyz
x,y,z
1/2-y,x,z
1/2-x,1/2-y,z
y,1/2-x,z
-x,-y,-z
1/2+y,-x,-z
1/2+x,1/2+y,-z
-y,1/2+x,-z
loop_
_atom_site_type_symbol
_atom_site_label
_atom_site_fract_x
_atom_site_fract_y
_atom_site_fract_z
Si Si1 0.646764 0.029569 0.854872
Si Si2 0.606248 0.609623 0.734331
Si Si3 0.544773 0.730424 0.436468
Si Si4 0.253895 0.041036 0.425842
Si Si5 0.941411 0.290691 0.022239
Si Si6 0.615094 0.384933 0.665512
Si Si7 0.362297 0.410916 0.915412
Si Si8 0.750000 0.250000 0.227750
O O1 0.745471 0.022397 0.910100
O O2 0.520495 0.063201 0.887378
O O3 0.690143 0.144490 0.813541
O O4 0.612247 0.922350 0.806916
O O5 0.748676 0.584940 0.719790
O O6 0.542918 0.504258 0.693986
O O7 0.644221 0.620802 0.433420
O O8 0.489524 0.732637 0.505098
O O9 0.458375 0.703072 0.379769
O O10 0.369109 0.133998 0.419498
O O11 0.226571 0.934319 0.377590
O O12 0.886498 0.172257 0.984405
O O13 0.057856 0.349044 0.987888
O O14 0.655441 0.314234 0.726302
O O15 0.219908 0.412449 0.896238
#
# Coordination Sequence:
#
# PCOD9544674 Si02
#       8
#     8   8   8   8   8   8   8   4
#     4  11  24  43  66  93 139 186 224 283 350 417
#     4  11  25  45  67  98 133 181 242 288 342 402
#     4   9  22  43  66  96 133 177 229 283 351 428
#     4   9  20  41  68  96 129 173 221 284 352 408
#     4   9  19  39  68  95 124 171 224 285 356 410
#     4  12  25  40  68  97 138 180 226 294 343 414
#     4  10  23  41  65  99 134 170 226 287 350 428
#     4  12  28  44  60  98 140 176 232 286 332 416
#
# _framework density 23.206629
#
# number of rings (size 3 to 8) (size 9 to 14) (size 15 to 20)
#    0.000    1.733    1.333    3.200    3.733    8.533 
#    0.000    1.333    0.000    0.000    0.000    0.000 
#    0.000    0.000    0.000    0.000    0.000    0.000 
#
# Total GULP energy -335178.564760 kJ/mol
# GULP energy per Si atom -5586.309413 kJ/mol
# Density = 2.315381 g / cm^3
# Si number density = 23.206629 Si / 1000 Ang^3
#
#
#
# Elastic Constant Matrix: (Units=GPa)
#
#
# Indices 1 2 3 4 5 6 
#
# 1 36.9750 -7.8430 9.5529 0.0000 0.0000 -1.0672
# 2 -7.8430 36.9750 9.5529 0.0000 0.0000 1.0672
# 3 9.5529 9.5529 89.8099 0.0000 0.0000 0.0000
# 4 0.0000 0.0000 0.0000 29.3040 0.0000 0.0000
# 5 0.0000 0.0000 0.0000 0.0000 29.3040 0.0000
# 6 -1.0672 1.0672 0.0000 0.0000 0.0000 27.6905
#
#
#
# Elastic Compliance Matrix: (Units=1/GPa)
#
#
# Indices 1 2 3 4 5 6 
#
# 1 0.029627 0.007274 -0.003925 0.000000 0.000000 0.000862
# 2 0.007274 0.029627 -0.003925 0.000000 0.000000 -0.000862
# 3 -0.003925 -0.003925 0.011970 0.000000 0.000000 0.000000
# 4 0.000000 0.000000 0.000000 0.034125 0.000000 0.000000
# 5 0.000000 0.000000 0.000000 0.000000 0.034125 0.000000
# 6 0.000862 -0.000862 0.000000 0.000000 0.000000 0.036180
#
#
# Mechanical properties :
#
#
# Convention : Reuss Voigt Hill
#
# Bulk Modulus (GPa) = 14.27128 20.69839 17.48483
# Shear Modulus (GPa) = 24.97955 27.42617 26.20286
#
# Velocity S-wave (km/s) = 3.28441 3.44150 3.36387
# Velocity P-wave (km/s) = 4.53278 4.97297 4.75797
#
# Compressibility (1/GPa) = 0.07007081
#
# Stress axis : x y z
#
# Youngs Moduli (GPa) = 33.75291 33.75291 83.54479
#
# Poissons Ratio (x) = -0.24551 0.32792
# Poissons Ratio (y) = -0.24551 0.32792
# Poissons Ratio (z) = 0.13248 0.13248
#
# Static dielectric constant tensor:
#      x y z
#    x 1.911860 0.000000 0.000000 
#    y 0.000000 1.911860 0.000000 
#    z 0.000000 0.000000 1.896010 
# 
# From -- ./inp_files/2289.got.cif
#   From: 2010.05.17/outbox.cif.g08.bks.cpg/sg85_cif.got.tgz:2289.got - 2010.06.03 19:01:16.
