data_PCOD9544533
_publ_section_title
;
Structure prediction by ZEFSAII (Michael W. Deem and Ramdas Pophale) SiO2 
 PCOD9544533
Probable space group: P 4/N
;
_chemical_formula_sum "Si O2"
_cell_formula_units_Z 64
_cell_length_a 17.273636
_cell_length_b 17.273636
_cell_length_c 11.939348
_cell_angle_alpha 90.000000
_cell_angle_beta 90.000000
_cell_angle_gamma 90.000000
_cell_volume 3562.444755
_symmetry_space_group_name_H-M "P 4/N"
_symmetry_group_IT_number 85
_symmetry_cell_setting 'tetragonal'
loop_
_space_group_symop_operation_xyz
x,y,z
1/2-y,x,z
1/2-x,1/2-y,z
y,1/2-x,z
-x,-y,-z
1/2+y,-x,-z
1/2+x,1/2+y,-z
-y,1/2+x,-z
loop_
_atom_site_type_symbol
_atom_site_label
_atom_site_fract_x
_atom_site_fract_y
_atom_site_fract_z
Si Si1 0.340173 0.672599 0.962107
Si Si2 0.129862 0.207206 0.675184
Si Si3 0.993270 0.888031 0.968935
Si Si4 0.340436 0.838020 0.488208
Si Si5 0.627969 0.713180 0.056414
Si Si6 0.540472 0.514301 0.182804
Si Si7 0.424405 0.813376 0.256058
Si Si8 0.971868 0.147382 0.665006
O O1 0.418741 0.632149 0.001147
O O2 0.323243 0.639905 0.839221
O O3 0.152229 0.734888 0.964417
O O4 0.204852 0.154762 0.651598
O O5 0.113397 0.204442 0.809747
O O6 0.053757 0.176700 0.614411
O O7 0.998131 0.934001 0.851914
O O8 0.943341 0.810735 0.979526
O O9 0.955168 0.941891 0.063911
O O10 0.348604 0.751083 0.537240
O O11 0.390006 0.837899 0.375423
O O12 0.364758 0.904564 0.574750
O O13 0.700554 0.657070 0.034485
O O14 0.626393 0.493012 0.225809
O O15 0.493669 0.570824 0.264914
O O16 0.446686 0.722987 0.262691
#
# Coordination Sequence:
#
# PCOD9544533 Si02
#       8
#     8   8   8   8   8   8   8   8
#     4  10  22  36  53  78 108 146 183 215 263 326
#     4   9  17  29  49  80 109 136 175 219 274 331
#     4  10  20  33  49  76 112 139 174 219 269 315
#     4   9  21  39  57  76  99 140 186 226 269 327
#     4   9  18  31  50  72 102 142 179 214 261 325
#     4  10  21  32  49  79 106 138 174 217 268 326
#     4  10  22  38  54  75 110 140 177 224 267 327
#     4  11  19  33  58  77 103 140 180 228 281 312
#
# _framework density 17.965191000000001
#
# number of rings (size 3 to 8) (size 9 to 14) (size 15 to 20)
#    0.000    2.250    1.250    2.250    1.750    7.500 
#    0.000    1.250    0.000    0.000    0.000    0.000 
#    0.000    8.000    0.000    0.000    0.000    0.000 
#
# Total GULP energy -356845.628467 kJ/mol
# GULP energy per Si atom -5575.712945 kJ/mol
# Density = 1.792430 g / cm^3
# Si number density = 17.965191 Si / 1000 Ang^3
#
#
#
# Elastic Constant Matrix: (Units=GPa)
#
#
# Indices 1 2 3 4 5 6 
#
# 1 95.3345 48.1223 38.7828 0.0000 0.0000 2.8846
# 2 48.1223 95.3345 38.7828 0.0000 0.0000 -2.8846
# 3 38.7828 38.7828 44.5270 0.0000 0.0000 0.0000
# 4 0.0000 0.0000 0.0000 27.6897 0.0000 0.0000
# 5 0.0000 0.0000 0.0000 0.0000 27.6897 0.0000
# 6 2.8846 -2.8846 0.0000 0.0000 0.0000 32.3884
#
#
#
# Elastic Compliance Matrix: (Units=1/GPa)
#
#
# Indices 1 2 3 4 5 6 
#
# 1 0.017295 -0.004119 -0.011476 0.000000 0.000000 -0.001907
# 2 -0.004119 0.017295 -0.011476 0.000000 0.000000 0.001907
# 3 -0.011476 -0.011476 0.042449 0.000000 0.000000 0.000000
# 4 0.000000 0.000000 0.000000 0.036115 0.000000 0.000000
# 5 0.000000 0.000000 0.000000 0.000000 0.036115 0.000000
# 6 -0.001907 0.001907 0.000000 0.000000 0.000000 0.031215
#
#
# Mechanical properties :
#
#
# Convention : Reuss Voigt Hill
#
# Bulk Modulus (GPa) = 43.67416 54.06353 48.86885
# Shear Modulus (GPa) = 20.63921 24.85409 22.74665
#
# Velocity S-wave (km/s) = 3.39314 3.72352 3.56216
# Velocity P-wave (km/s) = 6.30194 6.97460 6.64678
#
# Compressibility (1/GPa) = 0.02289683
#
# Stress axis : x y z
#
# Youngs Moduli (GPa) = 57.82079 57.82079 23.55753
#
# Poissons Ratio (x) = 0.23817 0.27034
# Poissons Ratio (y) = 0.23817 0.27034
# Poissons Ratio (z) = 0.66355 0.66355
#
# Static dielectric constant tensor:
#      x y z
#    x 1.659340 0.000000 0.000000 
#    y 0.000000 1.659340 0.000000 
#    z 0.000000 0.000000 1.585390 
# 
# From -- ./inp_files/1865.got.cif
#   From: 2010.05.17/outbox.cif.g08.bks.cpg/sg85_cif.got.tgz:1865.got - 2010.06.03 19:01:16.
