data_PCOD9544897
_publ_section_title
;
Structure prediction by ZEFSAII (Michael W. Deem and Ramdas Pophale) SiO2 
 PCOD9544897
Probable space group: P 42/N
;
_chemical_formula_sum "Si O2"
_cell_formula_units_Z 48
_cell_length_a 10.385435
_cell_length_b 10.385435
_cell_length_c 23.047822
_cell_angle_alpha 90.000000
_cell_angle_beta 90.000000
_cell_angle_gamma 90.000000
_cell_volume 2485.874933
_symmetry_space_group_name_H-M "P 42/N"
_symmetry_group_IT_number 86
_space_group.IT_coordinate_system_code '2'
_symmetry_cell_setting 'tetragonal'
loop_
_space_group_symop_operation_xyz
x,y,z
-y,1/2+x,1/2+z
1/2-x,1/2-y,z
1/2+y,-x,1/2+z
-x,-y,-z
y,1/2-x,1/2-z
1/2+x,1/2+y,-z
1/2-y,x,1/2-z
loop_
_atom_site_type_symbol
_atom_site_label
_atom_site_fract_x
_atom_site_fract_y
_atom_site_fract_z
Si Si1 0.748965 0.521931 0.062727
Si Si2 0.421083 0.116562 0.757786
Si Si3 0.821475 0.986236 0.383075
Si Si4 0.016939 0.484719 0.640308
Si Si5 0.360975 0.570490 0.500256
Si Si6 0.158413 0.368599 0.449483
O O1 0.853894 0.626002 0.086602
O O2 0.653080 0.484769 0.113150
O O3 0.810999 0.391288 0.039864
O O4 0.677322 0.580872 0.006644
O O5 0.268676 0.080036 0.760430
O O6 0.486426 0.110171 0.820896
O O7 0.490886 0.029008 0.709680
O O8 0.669849 0.990710 0.372096
O O9 0.842847 0.094722 0.431563
O O10 0.933983 0.585379 0.602774
O O11 0.500000 0.500000 0.500000
O O12 0.250242 0.482684 0.473107
O O13 0.250000 0.250000 0.431649
#
# Coordination Sequence:
#
# PCOD9544897 Si02
#       6
#     8   8   8   8   8   8
#     4  11  20  36  59  90 125 149 199 247 308 369
#     4   9  17  30  57  88 118 151 187 243 303 357
#     4  10  18  35  56  89 124 145 193 246 307 363
#     4  11  21  33  58  93 120 162 192 249 308 360
#     4  10  21  34  58  86 111 164 189 245 311 344
#     4  12  22  38  54  85 130 161 201 248 301 369
#
# _framework density 19.309099
#
# number of rings (size 3 to 8) (size 9 to 14) (size 15 to 20)
#    0.000    1.500    6.667    1.000    0.000    0.667 
#    0.000    0.000    0.000    4.000   13.000    0.000 
#    0.000    0.000    0.000    0.000    0.000    0.000 
#
# Total GULP energy -267499.622632 kJ/mol
# GULP energy per Si atom -5572.908805 kJ/mol
# Density = 1.926515 g / cm^3
# Si number density = 19.309099 Si / 1000 Ang^3
#
#
#
# Elastic Constant Matrix: (Units=GPa)
#
#
# Indices 1 2 3 4 5 6 
#
# 1 35.7283 48.2937 39.9591 0.0000 0.0000 18.6392
# 2 48.2937 35.7283 39.9591 0.0000 0.0000 -18.6392
# 3 39.9591 39.9591 162.0387 0.0000 0.0000 0.0000
# 4 0.0000 0.0000 0.0000 26.5745 0.0000 0.0000
# 5 0.0000 0.0000 0.0000 0.0000 26.5745 0.0000
# 6 18.6392 -18.6392 0.0000 0.0000 0.0000 1.8585
#
#
#
# Elastic Compliance Matrix: (Units=1/GPa)
#
#
# Indices 1 2 3 4 5 6 
#
# 1 0.006480 0.009068 -0.003834 0.000000 0.000000 0.025953
# 2 0.009068 0.006480 -0.003834 0.000000 0.000000 -0.025953
# 3 -0.003834 -0.003834 0.008062 0.000000 0.000000 0.000000
# 4 0.000000 0.000000 0.000000 0.037630 0.000000 0.000000
# 5 0.000000 0.000000 0.000000 0.000000 0.037630 0.000000
# 6 0.025953 -0.025953 0.000000 0.000000 0.000000 0.017496
#
#
# Mechanical properties :
#
#
# Convention : Reuss Voigt Hill
#
# Bulk Modulus (GPa) = 41.97704 54.43543 48.20624
# Shear Modulus (GPa) = 42.04462 18.02038 30.03250
#
# Velocity S-wave (km/s) = 4.67138 3.05824 3.94808
# Velocity P-wave (km/s) = 7.13319 6.38148 6.76778
#
# Compressibility (1/GPa) = 0.02382254
#
# Stress axis : x y z
#
# Youngs Moduli (GPa) = 154.30987 154.30987 124.03122
#
# Poissons Ratio (x) = -1.39932 0.47558
# Poissons Ratio (y) = -1.39932 0.47558
# Poissons Ratio (z) = 0.59168 0.59168
#
# Static dielectric constant tensor:
#      x y z
#    x 1.791380 0.000000 0.000000 
#    y 0.000000 1.791380 0.000000 
#    z 0.000000 0.000000 1.707190 
# 
# From -- ./inp_files/4120.got.cif
#   From: 2010.05.17/outbox.cif.g08.bks.cpg/sg86_3_cif.got.tgz:4120.got - 2010.06.03 19:03:11.
