data_PCOD9544148
_publ_section_title
;
Structure prediction by ZEFSAII (Michael W. Deem and Ramdas Pophale) SiO2 
 PCOD9544148
Probable space group: P 42/M
;
_chemical_formula_sum "Si O2"
_cell_formula_units_Z 40
_cell_length_a 15.981983
_cell_length_b 15.981983
_cell_length_c 8.733297
_cell_angle_alpha 90.000000
_cell_angle_beta 90.000000
_cell_angle_gamma 90.000000
_cell_volume 2230.691737
_symmetry_space_group_name_H-M "P 42/M"
_symmetry_group_IT_number 84
_symmetry_cell_setting 'tetragonal'
loop_
_space_group_symop_operation_xyz
x,y,z
-y,x,1/2+z
-x,-y,z
y,-x,1/2+z
-x,-y,-z
y,-x,1/2-z
x,y,-z
-y,x,1/2-z
loop_
_atom_site_type_symbol
_atom_site_label
_atom_site_fract_x
_atom_site_fract_y
_atom_site_fract_z
Si Si1 0.377316 0.539012 0.182242
Si Si2 0.431419 0.924997 0.675680
Si Si3 0.311283 0.064808 0.314993
Si Si4 0.953529 0.119380 0.817076
Si Si5 0.196022 0.557505 0.319244
O O1 0.446053 0.599047 0.259878
O O2 0.284102 0.560945 0.233561
O O3 0.386229 0.543398 0.000000
O O4 0.421868 0.895918 0.500000
O O5 0.471375 0.852048 0.775639
O O6 0.500000 0.000000 0.674749
O O7 0.348124 0.973164 0.728014
O O8 0.321864 0.071173 0.500000
O O9 0.213890 0.071418 0.277780
O O10 0.367939 0.135355 0.237115
O O11 0.048683 0.101331 0.765388
O O12 0.947354 0.108676 0.000000
O O13 0.208519 0.562257 0.500000
#
# Coordination Sequence:
#
# PCOD9544148 Si02
#       5
#     8   8   8   8   8
#     4  11  22  40  62  83 111 147 186 226 273 327
#     4   8  15  31  53  75 105 146 181 219 275 328
#     4   9  19  36  56  79 110 148 185 229 282 330
#     4  10  20  36  57  79 107 145 185 227 277 332
#     4  11  21  34  55  85 115 146 183 227 276 327
#
# _framework density 17.931657999999999
#
# number of rings (size 3 to 8) (size 9 to 14) (size 15 to 20)
#    0.000    2.200    0.000    6.600    0.000    5.200 
#    3.600    0.000    0.000    0.000    0.000    0.000 
#    0.000    0.000    0.000    0.000    0.000    0.000 
#
# Total GULP energy -223191.750515 kJ/mol
# GULP energy per Si atom -5579.793763 kJ/mol
# Density = 1.789084 g / cm^3
# Si number density = 17.931658 Si / 1000 Ang^3
#
#
#
# Elastic Constant Matrix: (Units=GPa)
#
#
# Indices 1 2 3 4 5 6 
#
# 1 71.3266 25.0263 17.9016 0.0000 0.0000 -1.4756
# 2 25.0263 71.3266 17.9016 0.0000 0.0000 1.4756
# 3 17.9016 17.9016 64.3159 0.0000 0.0000 0.0000
# 4 0.0000 0.0000 0.0000 49.8483 0.0000 0.0000
# 5 0.0000 0.0000 0.0000 0.0000 49.8483 0.0000
# 6 -1.4756 1.4756 0.0000 0.0000 0.0000 7.2583
#
#
#
# Elastic Compliance Matrix: (Units=1/GPa)
#
#
# Indices 1 2 3 4 5 6 
#
# 1 0.016729 -0.005153 -0.003222 0.000000 0.000000 0.004449
# 2 -0.005153 0.016729 -0.003222 0.000000 0.000000 -0.004449
# 3 -0.003222 -0.003222 0.017342 0.000000 0.000000 0.000000
# 4 0.000000 0.000000 0.000000 0.020061 0.000000 0.000000
# 5 0.000000 0.000000 0.000000 0.000000 0.020061 0.000000
# 6 0.004449 -0.004449 0.000000 0.000000 0.000000 0.139581
#
#
# Mechanical properties :
#
#
# Convention : Reuss Voigt Hill
#
# Bulk Modulus (GPa) = 36.22471 36.51420 36.36945
# Shear Modulus (GPa) = 19.01878 31.13362 25.07620
#
# Velocity S-wave (km/s) = 3.26026 4.17134 3.74362
# Velocity P-wave (km/s) = 5.86667 6.60358 6.24600
#
# Compressibility (1/GPa) = 0.02760547
#
# Stress axis : x y z
#
# Youngs Moduli (GPa) = 59.77742 59.77742 57.66397
#
# Poissons Ratio (x) = 0.30803 0.18579
# Poissons Ratio (y) = 0.30803 0.18579
# Poissons Ratio (z) = 0.19260 0.19260
#
# Static dielectric constant tensor:
#      x y z
#    x 1.610920 0.000000 0.000000 
#    y 0.000000 1.610920 0.000000 
#    z 0.000000 0.000000 1.600340 
# 
# From -- ./inp_files/790.got.cif
#   From: 2010.05.17/outbox.cif.g08.bks.cpg/sg84_1_cif.got.tgz:790.got - 2010.06.03 18:57:40.
