data_PCOD9544448
_publ_section_title
;
Structure prediction by ZEFSAII (Michael W. Deem and Ramdas Pophale) SiO2 
 PCOD9544448
Probable space group: P 42/M
;
_chemical_formula_sum "Si O2"
_cell_formula_units_Z 24
_cell_length_a 10.976644
_cell_length_b 10.976644
_cell_length_c 9.815833
_cell_angle_alpha 90.000000
_cell_angle_beta 90.000000
_cell_angle_gamma 90.000000
_cell_volume 1182.677458
_symmetry_space_group_name_H-M "P 42/M"
_symmetry_group_IT_number 84
_symmetry_cell_setting 'tetragonal'
loop_
_space_group_symop_operation_xyz
x,y,z
-y,x,1/2+z
-x,-y,z
y,-x,1/2+z
-x,-y,-z
y,-x,1/2-z
x,y,-z
-y,x,1/2-z
loop_
_atom_site_type_symbol
_atom_site_label
_atom_site_fract_x
_atom_site_fract_y
_atom_site_fract_z
Si Si1 0.937842 0.368742 0.263171
Si Si2 0.192898 0.014873 0.000000
Si Si3 0.789709 0.990066 0.500000
Si Si4 0.337468 0.564306 0.667212
O O1 0.996917 0.280848 0.373248
O O2 0.797248 0.386778 0.305000
O O3 0.000000 0.500000 0.259497
O O4 0.960464 0.295952 0.125912
O O5 0.122724 0.145380 0.000000
O O6 0.097776 0.906034 0.000000
O O7 0.436228 0.646300 0.750170
O O8 0.358193 0.556536 0.500000
#
# Coordination Sequence:
#
# PCOD9544448 Si02
#       4
#     8   4   4   8
#     4  12  27  42  73 106 139 180 237 294 355 418
#     4  11  25  50  70 101 140 194 234 299 351 416
#     4  11  27  46  74 101 142 188 242 289 357 418
#     4  11  26  45  70 100 140 187 229 286 358 418
#
# _framework density 20.292936000000001
#
# number of rings (size 3 to 8) (size 9 to 14) (size 15 to 20)
#    0.000    0.667    1.667    5.000   14.000    2.667 
#    0.000    0.000    0.000    0.000    0.000    0.000 
#    0.000    0.000    0.000    0.000    0.000    0.000 
#
# Total GULP energy -134030.631222 kJ/mol
# GULP energy per Si atom -5584.609634 kJ/mol
# Density = 2.024675 g / cm^3
# Si number density = 20.292936 Si / 1000 Ang^3
#
#
#
# Elastic Constant Matrix: (Units=GPa)
#
#
# Indices 1 2 3 4 5 6 
#
# 1 114.8314 38.1011 60.7345 0.0000 0.0000 -19.5901
# 2 38.1011 114.8314 60.7345 0.0000 0.0000 19.5901
# 3 60.7345 60.7345 239.4777 0.0000 0.0000 0.0000
# 4 0.0000 0.0000 0.0000 33.0153 0.0000 0.0000
# 5 0.0000 0.0000 0.0000 0.0000 33.0153 0.0000
# 6 -19.5901 19.5901 0.0000 0.0000 0.0000 17.0787
#
#
#
# Elastic Compliance Matrix: (Units=1/GPa)
#
#
# Indices 1 2 3 4 5 6 
#
# 1 0.019823 -0.011635 -0.002077 0.000000 0.000000 0.036083
# 2 -0.011635 0.019823 -0.002077 0.000000 0.000000 -0.036083
# 3 -0.002077 -0.002077 0.005229 0.000000 0.000000 0.000000
# 4 0.000000 0.000000 0.000000 0.030289 0.000000 0.000000
# 5 0.000000 0.000000 0.000000 0.000000 0.030289 0.000000
# 6 0.036083 -0.036083 0.000000 0.000000 0.000000 0.141331
#
#
# Mechanical properties :
#
#
# Convention : Reuss Voigt Hill
#
# Bulk Modulus (GPa) = 75.19363 87.58675 81.39019
# Shear Modulus (GPa) = 17.68077 37.25989 27.47033
#
# Velocity S-wave (km/s) = 2.95494 4.28962 3.68324
# Velocity P-wave (km/s) = 6.98404 8.23343 7.63434
#
# Compressibility (1/GPa) = 0.01329900
#
# Stress axis : x y z
#
# Youngs Moduli (GPa) = 50.44652 50.44652 191.23835
#
# Poissons Ratio (x) = 0.58693 0.39713
# Poissons Ratio (y) = 0.58693 0.39713
# Poissons Ratio (z) = 0.10476 0.10476
#
# Static dielectric constant tensor:
#      x y z
#    x 1.709660 0.000000 0.000000 
#    y 0.000000 1.709660 0.000000 
#    z 0.000000 0.000000 1.665460 
# 
# From -- ./inp_files/427.got.cif
#   From: 2010.05.17/outbox.cif.g08.bks.cpg/sg84_1_cif.got.tgz:427.got - 2010.06.03 18:57:40.
