data_PCOD9544743
_publ_section_title
;
Structure prediction by ZEFSAII (Michael W. Deem and Ramdas Pophale) SiO2 
 PCOD9544743
Probable space group: P 4/N
;
_chemical_formula_sum "Si O2"
_cell_formula_units_Z 36
_cell_length_a 13.979031
_cell_length_b 13.979031
_cell_length_c 6.961283
_cell_angle_alpha 90.000000
_cell_angle_beta 90.000000
_cell_angle_gamma 90.000000
_cell_volume 1360.327337
_symmetry_space_group_name_H-M "P 4/N"
_symmetry_group_IT_number 85
_symmetry_cell_setting 'tetragonal'
loop_
_space_group_symop_operation_xyz
x,y,z
1/2-y,x,z
1/2-x,1/2-y,z
y,1/2-x,z
-x,-y,-z
1/2+y,-x,-z
1/2+x,1/2+y,-z
-y,1/2+x,-z
loop_
_atom_site_type_symbol
_atom_site_label
_atom_site_fract_x
_atom_site_fract_y
_atom_site_fract_z
Si Si1 0.387730 0.821409 0.037482
Si Si2 0.370825 0.651996 0.535051
Si Si3 0.000000 0.500000 0.500000
Si Si4 0.604276 0.805614 0.993628
Si Si5 0.670471 0.621372 0.455073
O O1 0.388364 0.872624 0.245869
O O2 0.493773 0.831492 0.949368
O O3 0.364322 0.707559 0.063766
O O4 0.266524 0.627888 0.452477
O O5 0.463329 0.608154 0.434497
O O6 0.037307 0.392637 0.467723
O O7 0.629205 0.695800 0.936436
O O8 0.610117 0.818704 0.225182
O O9 0.778781 0.626342 0.518892
#
# Coordination Sequence:
#
# PCOD9544743 Si02
#       5
#     8   8   4   8   8
#     4  11  23  41  62  91 134 178 217 274 336 399
#     4  11  24  41  61  91 131 171 213 279 335 392
#     4  12  20  32  62  94 120 162 216 270 328 396
#     4   9  19  38  63  91 124 163 217 272 323 390
#     4   9  18  34  55  85 126 160 200 260 322 384
#
# _framework density 26.464217999999999
#
# number of rings (size 3 to 8) (size 9 to 14) (size 15 to 20)
#    0.000    1.778    2.222    5.333    3.111    0.889 
#    0.000    2.222    0.000    0.000    0.000    3.111 
#    0.000    0.000    0.000    0.000    0.000    0.000 
#
# Total GULP energy -200415.040754 kJ/mol
# GULP energy per Si atom -5567.084465 kJ/mol
# Density = 2.640398 g / cm^3
# Si number density = 26.464218 Si / 1000 Ang^3
#
#
#
# Elastic Constant Matrix: (Units=GPa)
#
#
# Indices 1 2 3 4 5 6 
#
# 1 109.6706 82.4689 3.5016 0.0000 0.0000 13.5329
# 2 82.4689 109.6706 3.5016 0.0000 0.0000 -13.5329
# 3 3.5016 3.5016 92.9546 0.0000 0.0000 0.0000
# 4 0.0000 0.0000 0.0000 -0.2793 0.0000 0.0000
# 5 0.0000 0.0000 0.0000 0.0000 -0.2793 0.0000
# 6 13.5329 -13.5329 0.0000 0.0000 0.0000 58.0794
#
#
#
# Elastic Compliance Matrix: (Units=1/GPa)
#
#
# Indices 1 2 3 4 5 6 
#
# 1 0.026535 -0.021323 -0.000196 0.000000 0.000000 -0.011151
# 2 -0.021323 0.026535 -0.000196 0.000000 0.000000 0.011151
# 3 -0.000196 -0.000196 0.010773 0.000000 0.000000 0.000000
# 4 0.000000 0.000000 0.000000 -3.580641 0.000000 0.000000
# 5 0.000000 0.000000 0.000000 0.000000 -3.580641 0.000000
# 6 -0.011151 0.011151 0.000000 0.000000 0.000000 0.022414
#
#
# Mechanical properties :
#
#
# Convention : Reuss Voigt Hill
#
# Bulk Modulus (GPa) = 48.99356 54.58223 51.78789
# Shear Modulus (GPa) = -0.71177 26.35908 12.82366
#
# Velocity S-wave (km/s) = -0.51917 3.15941 2.20367
# Velocity P-wave (km/s) = 4.26544 5.82914 5.10749
#
# Compressibility (1/GPa) = 0.02041084
#
# Stress axis : x y z
#
# Youngs Moduli (GPa) = 37.68639 37.68639 92.82702
#
# Poissons Ratio (x) = 0.80359 0.01822
# Poissons Ratio (y) = 0.80359 0.01822
# Poissons Ratio (z) = 0.00740 0.00740
#
# Static dielectric constant tensor:
#      x y z
#    x 2.889600 0.000000 0.000000 
#    y 0.000000 2.889600 0.000000 
#    z 0.000000 0.000000 2.163170 
# 
# From -- ./inp_files/814.got.cif
#   From: 2010.05.17/outbox.cif.g08.bks.cpg/sg85_cif.got.tgz:814.got - 2010.06.03 19:01:16.
