data_PCOD9544880
_publ_section_title
;
Structure prediction by ZEFSAII (Michael W. Deem and Ramdas Pophale) SiO2 
 PCOD9544880
Probable space group: P 42/N
;
_chemical_formula_sum "Si O2"
_cell_formula_units_Z 56
_cell_length_a 14.946026
_cell_length_b 14.946026
_cell_length_c 13.777653
_cell_angle_alpha 90.000000
_cell_angle_beta 90.000000
_cell_angle_gamma 90.000000
_cell_volume 3077.703011
_symmetry_space_group_name_H-M "P 42/N"
_symmetry_group_IT_number 86
_space_group.IT_coordinate_system_code '2'
_symmetry_cell_setting 'tetragonal'
loop_
_space_group_symop_operation_xyz
x,y,z
-y,1/2+x,1/2+z
1/2-x,1/2-y,z
1/2+y,-x,1/2+z
-x,-y,-z
y,1/2-x,1/2-z
1/2+x,1/2+y,-z
1/2-y,x,1/2-z
loop_
_atom_site_type_symbol
_atom_site_label
_atom_site_fract_x
_atom_site_fract_y
_atom_site_fract_z
Si Si1 0.112545 0.642077 0.862347
Si Si2 0.607243 0.703904 0.574315
Si Si3 0.891418 0.796930 0.920875
Si Si4 0.303359 0.974944 0.253583
Si Si5 0.542034 0.568566 0.422251
Si Si6 0.781826 0.028717 0.438505
Si Si7 0.273793 0.651294 0.732756
O O1 0.057575 0.705626 0.789899
O O2 0.083079 0.539666 0.850796
O O3 0.216295 0.644647 0.831375
O O4 0.088723 0.679530 0.970646
O O5 0.695853 0.645427 0.602928
O O6 0.642629 0.804619 0.563105
O O7 0.529627 0.697688 0.654121
O O8 0.568148 0.659727 0.477236
O O9 0.953473 0.832995 0.834495
O O10 0.956009 0.782710 0.012645
O O11 0.355432 0.880691 0.247483
O O12 0.500000 0.500000 0.500000
O O13 0.634179 0.523911 0.392203
O O14 0.742028 0.085261 0.351396
O O15 0.250000 0.750000 0.695156
#
# Coordination Sequence:
#
# PCOD9544880 Si02
#       7
#     8   8   8   8   8   8   8
#     4   9  19  34  50  73 100 132 175 219 262 315
#     4  10  18  31  51  77 104 134 170 211 267 323
#     4   9  19  31  49  76 106 133 165 218 272 317
#     4  10  18  29  48  74 101 131 170 212 260 315
#     4   9  17  32  54  74  98 135 175 214 260 317
#     4   9  18  34  54  73  99 137 177 216 265 323
#     4  10  21  34  52  75 103 142 180 217 266 323
#
# _framework density 18.195388999999999
#
# number of rings (size 3 to 8) (size 9 to 14) (size 15 to 20)
#    0.000    2.571    0.000    3.429    0.000    5.143 
#    0.000    1.429    0.000    4.286    0.000    0.000 
#    0.000    0.000    0.000    0.000    0.000    0.000 
#
# Total GULP energy -311823.924356 kJ/mol
# GULP energy per Si atom -5568.284364 kJ/mol
# Density = 1.815398 g / cm^3
# Si number density = 18.195389 Si / 1000 Ang^3
#
#
#
# Elastic Constant Matrix: (Units=GPa)
#
#
# Indices 1 2 3 4 5 6 
#
# 1 82.5361 10.5993 25.1624 0.0000 0.0000 -0.8676
# 2 10.5993 82.5361 25.1624 0.0000 0.0000 0.8676
# 3 25.1624 25.1624 39.9851 0.0000 0.0000 0.0000
# 4 0.0000 0.0000 0.0000 20.4641 0.0000 0.0000
# 5 0.0000 0.0000 0.0000 0.0000 20.4641 0.0000
# 6 -0.8676 0.8676 0.0000 0.0000 0.0000 14.5054
#
#
#
# Elastic Compliance Matrix: (Units=1/GPa)
#
#
# Indices 1 2 3 4 5 6 
#
# 1 0.015095 0.001174 -0.010238 0.000000 0.000000 0.000833
# 2 0.001174 0.015095 -0.010238 0.000000 0.000000 -0.000833
# 3 -0.010238 -0.010238 0.037895 0.000000 0.000000 0.000000
# 4 0.000000 0.000000 0.000000 0.048866 0.000000 0.000000
# 5 0.000000 0.000000 0.000000 0.000000 0.048866 0.000000
# 6 0.000833 -0.000833 0.000000 0.000000 0.000000 0.069039
#
#
# Mechanical properties :
#
#
# Convention : Reuss Voigt Hill
#
# Bulk Modulus (GPa) = 33.92040 36.32286 35.12163
# Shear Modulus (GPa) = 17.64987 20.69558 19.17272
#
# Velocity S-wave (km/s) = 3.11789 3.37621 3.24962
# Velocity P-wave (km/s) = 5.62534 5.93333 5.78138
#
# Compressibility (1/GPa) = 0.02948078
#
# Stress axis : x y z
#
# Youngs Moduli (GPa) = 66.24650 66.24650 26.38878
#
# Poissons Ratio (x) = -0.07777 0.27017
# Poissons Ratio (y) = -0.07777 0.27017
# Poissons Ratio (z) = 0.67824 0.67824
#
# Static dielectric constant tensor:
#      x y z
#    x 1.655910 0.000000 0.000000 
#    y 0.000000 1.655910 0.000000 
#    z 0.000000 0.000000 1.618110 
# 
# From -- ./inp_files/3061.got.cif
#   From: 2010.05.17/outbox.cif.g08.bks.cpg/sg86_2_cif.got.tgz:3061.got - 2010.06.03 19:03:11.
