data_PCOD9544381
_publ_section_title
;
Structure prediction by ZEFSAII (Michael W. Deem and Ramdas Pophale) SiO2 
 PCOD9544381
Probable space group: P 42/M
;
_chemical_formula_sum "Si O2"
_cell_formula_units_Z 32
_cell_length_a 14.395833
_cell_length_b 14.395833
_cell_length_c 7.787313
_cell_angle_alpha 90.000000
_cell_angle_beta 90.000000
_cell_angle_gamma 90.000000
_cell_volume 1613.842807
_symmetry_space_group_name_H-M "P 42/M"
_symmetry_group_IT_number 84
_symmetry_cell_setting 'tetragonal'
loop_
_space_group_symop_operation_xyz
x,y,z
-y,x,1/2+z
-x,-y,z
y,-x,1/2+z
-x,-y,-z
y,-x,1/2-z
x,y,-z
-y,x,1/2-z
loop_
_atom_site_type_symbol
_atom_site_label
_atom_site_fract_x
_atom_site_fract_y
_atom_site_fract_z
Si Si1 0.384144 0.901298 0.288766
Si Si2 0.748242 0.742461 0.807632
Si Si3 0.113096 0.590918 0.203908
Si Si4 0.577962 0.373367 0.798892
O O1 0.380486 0.897072 0.500000
O O2 0.294149 0.844293 0.225241
O O3 0.486260 0.862925 0.232245
O O4 0.383992 0.009163 0.235983
O O5 0.674588 0.815654 0.734450
O O6 0.693274 0.645163 0.803697
O O7 0.767823 0.774632 0.000000
O O8 0.106353 0.579973 0.000000
O O9 0.476332 0.379398 0.719088
O O10 0.573767 0.348862 0.000000
#
# Coordination Sequence:
#
# PCOD9544381 Si02
#       4
#     8   8   8   8
#     4   8  17  33  53  72  97 131 170 208 249 298
#     4  11  20  31  49  76 103 129 161 207 259 307
#     4   9  17  34  55  73  94 132 175 209 245 298
#     4  11  21  33  47  68  99 135 168 202 241 292
#
# _framework density 19.828448000000002
#
# number of rings (size 3 to 8) (size 9 to 14) (size 15 to 20)
#    0.000    2.250    0.000    6.750    0.000    2.000 
#    0.000    6.250    0.000    0.750    0.000    5.250 
#    0.000    0.000    0.000    0.000    0.000    0.000 
#
# Total GULP energy -178332.309045 kJ/mol
# GULP energy per Si atom -5572.884658 kJ/mol
# Density = 1.978332 g / cm^3
# Si number density = 19.828448 Si / 1000 Ang^3
#
#
#
# Elastic Constant Matrix: (Units=GPa)
#
#
# Indices 1 2 3 4 5 6 
#
# 1 69.7202 62.3955 -2.4379 0.0000 0.0000 0.8670
# 2 62.3955 69.7202 -2.4379 0.0000 0.0000 -0.8670
# 3 -2.4379 -2.4379 48.3787 0.0000 0.0000 0.0000
# 4 0.0000 0.0000 0.0000 16.6761 0.0000 0.0000
# 5 0.0000 0.0000 0.0000 0.0000 16.6761 0.0000
# 6 0.8670 -0.8670 0.0000 0.0000 0.0000 33.8688
#
#
#
# Elastic Compliance Matrix: (Units=1/GPa)
#
#
# Indices 1 2 3 4 5 6 
#
# 1 0.072471 -0.064887 0.000382 0.000000 0.000000 -0.003516
# 2 -0.064887 0.072471 0.000382 0.000000 0.000000 0.003516
# 3 0.000382 0.000382 0.020709 0.000000 0.000000 0.000000
# 4 0.000000 0.000000 0.000000 0.059966 0.000000 0.000000
# 5 0.000000 0.000000 0.000000 0.000000 0.059966 0.000000
# 6 -0.003516 0.003516 0.000000 0.000000 0.000000 0.029706
#
#
# Mechanical properties :
#
#
# Convention : Reuss Voigt Hill
#
# Bulk Modulus (GPa) = 26.73528 33.65094 30.19311
# Shear Modulus (GPa) = 10.96486 22.13080 16.54783
#
# Velocity S-wave (km/s) = 2.35412 3.34445 2.89199
# Velocity P-wave (km/s) = 4.57184 5.64993 5.13923
#
# Compressibility (1/GPa) = 0.03740376
#
# Stress axis : x y z
#
# Youngs Moduli (GPa) = 13.79871 13.79871 48.28872
#
# Poissons Ratio (x) = 0.89536 -0.01845
# Poissons Ratio (y) = 0.89536 -0.01845
# Poissons Ratio (z) = -0.00527 -0.00527
#
# Static dielectric constant tensor:
#      x y z
#    x 1.733800 0.000000 0.000000 
#    y 0.000000 1.733800 0.000000 
#    z 0.000000 0.000000 1.744800 
# 
# From -- ./inp_files/583.got.cif
#   From: 2010.05.17/outbox.cif.g08.bks.cpg/sg84_1_cif.got.tgz:583.got - 2010.06.03 18:57:40.
