data_PCOD9544298
_publ_section_title
;
Structure prediction by ZEFSAII (Michael W. Deem and Ramdas Pophale) SiO2 
 PCOD9544298
Probable space group: P 42/M
;
_chemical_formula_sum "Si O2"
_cell_formula_units_Z 44
_cell_length_a 8.096193
_cell_length_b 8.096193
_cell_length_c 32.234917
_cell_angle_alpha 90.000000
_cell_angle_beta 90.000000
_cell_angle_gamma 90.000000
_cell_volume 2112.945335
_symmetry_space_group_name_H-M "P 42/M"
_symmetry_group_IT_number 84
_symmetry_cell_setting 'tetragonal'
loop_
_space_group_symop_operation_xyz
x,y,z
-y,x,1/2+z
-x,-y,z
y,-x,1/2+z
-x,-y,-z
y,-x,1/2-z
x,y,-z
-y,x,1/2-z
loop_
_atom_site_type_symbol
_atom_site_label
_atom_site_fract_x
_atom_site_fract_y
_atom_site_fract_z
Si Si1 0.810955 0.064932 0.953408
Si Si2 0.000000 0.500000 0.686647
Si Si3 0.680659 0.916932 0.609867
Si Si4 0.482880 0.686484 0.658870
Si Si5 0.415059 0.759692 0.255647
Si Si6 0.833000 0.262300 0.380506
O O1 0.830915 0.239655 0.930119
O O2 0.718322 0.940150 0.922075
O O3 0.743492 0.073495 0.000000
O O4 0.000000 0.000000 0.956494
O O5 0.111379 0.396758 0.719072
O O6 0.086061 0.633257 0.656582
O O7 0.647308 0.775099 0.643663
O O8 0.500000 0.000000 0.602819
O O9 0.803818 0.063949 0.623823
O O10 0.500000 0.500000 0.675090
O O11 0.402683 0.797977 0.695415
O O12 0.355534 0.673146 0.620668
O O13 0.605313 0.702543 0.251996
#
# Coordination Sequence:
#
# PCOD9544298 Si02
#       6
#     8   4   8   8   8   8
#     4   9  19  38  63  89 119 156 200 251 312 376
#     4  12  24  36  63  88 128 162 205 258 306 368
#     4   9  21  38  64  89 117 153 200 253 300 369
#     4  11  21  39  63  85 120 164 211 251 303 365
#     4  11  22  38  56  84 113 163 211 247 292 363
#     4  10  22  39  58  92 119 162 198 248 315 362
#
# _framework density 20.824010000000001
#
# number of rings (size 3 to 8) (size 9 to 14) (size 15 to 20)
#    0.000    1.818    3.636    0.000    8.909    0.364 
#    0.000    3.182    0.000    1.091    0.000    0.000 
#    0.000    0.000    0.000    0.000    0.000    0.000 
#
# Total GULP energy -245097.824122 kJ/mol
# GULP energy per Si atom -5570.405094 kJ/mol
# Density = 2.077661 g / cm^3
# Si number density = 20.824010 Si / 1000 Ang^3
#
#
#
# Elastic Constant Matrix: (Units=GPa)
#
#
# Indices 1 2 3 4 5 6 
#
# 1 57.3358 21.3409 37.9830 0.0000 0.0000 -4.3432
# 2 21.3409 57.3358 37.9830 0.0000 0.0000 4.3432
# 3 37.9830 37.9830 142.1387 0.0000 0.0000 0.0000
# 4 0.0000 0.0000 0.0000 24.7231 0.0000 0.0000
# 5 0.0000 0.0000 0.0000 0.0000 24.7231 0.0000
# 6 -4.3432 4.3432 0.0000 0.0000 0.0000 29.7988
#
#
#
# Elastic Compliance Matrix: (Units=1/GPa)
#
#
# Indices 1 2 3 4 5 6 
#
# 1 0.022962 -0.005832 -0.004578 0.000000 0.000000 0.004197
# 2 -0.005832 0.022962 -0.004578 0.000000 0.000000 -0.004197
# 3 -0.004578 -0.004578 0.009482 0.000000 0.000000 0.000000
# 4 0.000000 0.000000 0.000000 0.040448 0.000000 0.000000
# 5 0.000000 0.000000 0.000000 0.000000 0.040448 0.000000
# 6 0.004197 -0.004197 0.000000 0.000000 0.000000 0.034782
#
#
# Mechanical properties :
#
#
# Convention : Reuss Voigt Hill
#
# Bulk Modulus (GPa) = 39.32095 50.15823 44.73959
# Shear Modulus (GPa) = 23.86222 26.48256 25.17239
#
# Velocity S-wave (km/s) = 3.38879 3.57000 3.48057
# Velocity P-wave (km/s) = 5.85110 6.41344 6.13871
#
# Compressibility (1/GPa) = 0.02543174
#
# Stress axis : x y z
#
# Youngs Moduli (GPa) = 43.54959 43.54959 105.46436
#
# Poissons Ratio (x) = 0.25399 0.48277
# Poissons Ratio (y) = 0.25399 0.48277
# Poissons Ratio (z) = 0.19935 0.19935
#
# Static dielectric constant tensor:
#      x y z
#    x 1.815920 0.000000 0.000000 
#    y 0.000000 1.815920 0.000000 
#    z 0.000000 0.000000 1.784850 
# 
# From -- ./inp_files/5678.got.cif
#   From: 2010.05.17/outbox.cif.g08.bks.cpg/sg84_3_cif.got.tgz:5678.got - 2010.06.03 18:57:40.
