data_PCOD9544799
_publ_section_title
;
Structure prediction by ZEFSAII (Michael W. Deem and Ramdas Pophale) SiO2 
 PCOD9544799
Probable space group: P 4/N
;
_chemical_formula_sum "Si O2"
_cell_formula_units_Z 40
_cell_length_a 16.464215
_cell_length_b 16.464215
_cell_length_c 5.461785
_cell_angle_alpha 90.000000
_cell_angle_beta 90.000000
_cell_angle_gamma 90.000000
_cell_volume 1480.528111
_symmetry_space_group_name_H-M "P 4/N"
_symmetry_group_IT_number 85
_symmetry_cell_setting 'tetragonal'
loop_
_space_group_symop_operation_xyz
x,y,z
1/2-y,x,z
1/2-x,1/2-y,z
y,1/2-x,z
-x,-y,-z
1/2+y,-x,-z
1/2+x,1/2+y,-z
-y,1/2+x,-z
loop_
_atom_site_type_symbol
_atom_site_label
_atom_site_fract_x
_atom_site_fract_y
_atom_site_fract_z
Si Si1 0.338592 0.671954 0.910513
Si Si2 0.780101 0.049478 0.442698
Si Si3 0.062316 0.903582 0.296651
Si Si4 0.841098 0.650230 0.717544
Si Si5 0.575573 0.888289 0.213787
O O1 0.299646 0.636411 0.671198
O O2 0.267399 0.653614 0.107385
O O3 0.416653 0.631646 0.027249
O O4 0.681209 0.046517 0.457851
O O5 0.858462 0.043356 0.626616
O O6 0.813305 0.987002 0.235258
O O7 0.979629 0.953969 0.273235
O O8 0.861648 0.745299 0.744339
O O9 0.863464 0.628262 0.439564
O O10 0.884546 0.609085 0.947490
#
# Coordination Sequence:
#
# PCOD9544799 Si02
#       5
#     8   8   8   8   8
#     4   9  20  39  64  94 132 183 236 283 340 416
#     4  11  24  42  67  99 140 185 233 288 349 416
#     4  11  24  42  67  99 140 185 233 288 349 416
#     4  11  24  46  72 100 137 187 241 286 340 418
#     4  12  27  44  72 106 141 180 228 294 360 414
#
# _framework density 27.017385999999998
#
# number of rings (size 3 to 8) (size 9 to 14) (size 15 to 20)
#    0.000    1.200    0.000    5.400    5.600    4.400 
#    0.000    0.000    0.000    0.000    0.000    0.000 
#    0.000    0.000    0.000    0.000    0.000    0.000 
#
# Total GULP energy -223366.596485 kJ/mol
# GULP energy per Si atom -5584.164912 kJ/mol
# Density = 2.695589 g / cm^3
# Si number density = 27.017386 Si / 1000 Ang^3
#
#
#
# Elastic Constant Matrix: (Units=GPa)
#
#
# Indices 1 2 3 4 5 6 
#
# 1 126.2969 -48.6621 13.6036 0.0000 0.0000 5.9248
# 2 -48.6621 126.2969 13.6036 0.0000 0.0000 -5.9248
# 3 13.6036 13.6036 104.6563 0.0000 0.0000 0.0000
# 4 0.0000 0.0000 0.0000 28.5402 0.0000 0.0000
# 5 0.0000 0.0000 0.0000 0.0000 28.5402 0.0000
# 6 5.9248 -5.9248 0.0000 0.0000 0.0000 45.2656
#
#
#
# Elastic Compliance Matrix: (Units=1/GPa)
#
#
# Indices 1 2 3 4 5 6 
#
# 1 0.009631 0.003864 -0.001754 0.000000 0.000000 -0.000755
# 2 0.003864 0.009631 -0.001754 0.000000 0.000000 0.000755
# 3 -0.001754 -0.001754 0.010011 0.000000 0.000000 0.000000
# 4 0.000000 0.000000 0.000000 0.035038 0.000000 0.000000
# 5 0.000000 0.000000 0.000000 0.000000 0.035038 0.000000
# 6 -0.000755 0.000755 0.000000 0.000000 0.000000 0.022289
#
#
# Mechanical properties :
#
#
# Convention : Reuss Voigt Hill
#
# Bulk Modulus (GPa) = 33.34948 34.92670 34.13809
# Shear Modulus (GPa) = 38.19047 45.71618 41.95332
#
# Velocity S-wave (km/s) = 3.76380 4.11798 3.94487
# Velocity P-wave (km/s) = 5.59095 5.96371 5.78034
#
# Compressibility (1/GPa) = 0.02998548
#
# Stress axis : x y z
#
# Youngs Moduli (GPa) = 103.82955 103.82955 99.88886
#
# Poissons Ratio (x) = -0.40124 0.17523
# Poissons Ratio (y) = -0.40124 0.17523
# Poissons Ratio (z) = 0.18214 0.18214
#
# Static dielectric constant tensor:
#      x y z
#    x 2.145710 0.000000 0.000000 
#    y 0.000000 2.145710 0.000000 
#    z 0.000000 0.000000 2.274560 
# 
# From -- ./inp_files/346.got.cif
#   From: 2010.05.17/outbox.cif.g08.bks.cpg/sg85_cif.got.tgz:346.got - 2010.06.03 19:01:16.
