data_PCOD9544726
_publ_section_title
;
Structure prediction by ZEFSAII (Michael W. Deem and Ramdas Pophale) SiO2 
 PCOD9544726
Probable space group: P 4/N
;
_chemical_formula_sum "Si O2"
_cell_formula_units_Z 50
_cell_length_a 9.918010
_cell_length_b 9.918010
_cell_length_c 27.336597
_cell_angle_alpha 90.000000
_cell_angle_beta 90.000000
_cell_angle_gamma 90.000000
_cell_volume 2689.016915
_symmetry_space_group_name_H-M "P 4/N"
_symmetry_group_IT_number 85
_symmetry_cell_setting 'tetragonal'
loop_
_space_group_symop_operation_xyz
x,y,z
1/2-y,x,z
1/2-x,1/2-y,z
y,1/2-x,z
-x,-y,-z
1/2+y,-x,-z
1/2+x,1/2+y,-z
-y,1/2+x,-z
loop_
_atom_site_type_symbol
_atom_site_label
_atom_site_fract_x
_atom_site_fract_y
_atom_site_fract_z
Si Si1 0.863727 0.947758 0.730700
Si Si2 0.033628 0.496423 0.825058
Si Si3 0.412653 0.624535 0.982048
Si Si4 0.250000 0.250000 0.834832
Si Si5 0.228416 0.592177 0.123665
Si Si6 0.099619 0.609128 0.520936
Si Si7 0.841896 0.958343 0.619168
O O1 0.702905 0.925940 0.736754
O O2 0.875338 0.998208 0.674867
O O3 0.939132 0.037745 0.770683
O O4 0.149913 0.386479 0.834048
O O5 0.037120 0.627273 0.860201
O O6 0.887601 0.432819 0.836506
O O7 0.457379 0.675499 0.928887
O O8 0.500000 0.500000 0.000000
O O9 0.255069 0.581039 0.982607
O O10 0.250000 0.750000 0.118253
O O11 0.072170 0.748726 0.492771
O O12 0.000000 0.500000 0.500000
O O13 0.067442 0.624195 0.578211
O O14 0.683863 0.920499 0.612746
#
# Coordination Sequence:
#
# PCOD9544726 Si02
#       7
#     8   8   8   2   8   8   8
#     4   9  18  36  65 100 129 160 215 281 333 399
#     4  12  24  43  67 102 132 172 229 274 342 398
#     4  11  24  45  66  94 131 168 213 266 324 392
#     4  12  28  40  64  92 140 184 220 268 344 416
#     4  12  24  42  70  97 133 175 220 278 332 398
#     4  11  22  36  59  90 125 164 215 268 320 390
#     4   9  17  34  62  92 123 167 212 266 340 395
#
# _framework density 18.594156000000002
#
# number of rings (size 3 to 8) (size 9 to 14) (size 15 to 20)
#    0.000    1.280    6.400    1.920    0.000    0.960 
#    0.000    3.200    3.520    0.000    0.000    0.000 
#    0.000    0.000    0.000    0.000    0.000    0.000 
#
# Total GULP energy -278408.325918 kJ/mol
# GULP energy per Si atom -5568.166518 kJ/mol
# Density = 1.855183 g / cm^3
# Si number density = 18.594156 Si / 1000 Ang^3
#
#
#
# Elastic Constant Matrix: (Units=GPa)
#
#
# Indices 1 2 3 4 5 6 
#
# 1 96.7286 73.1898 45.6945 0.0000 0.0000 -2.3233
# 2 73.1898 96.7286 45.6945 0.0000 0.0000 2.3233
# 3 45.6945 45.6945 136.1782 0.0000 0.0000 0.0000
# 4 0.0000 0.0000 0.0000 19.9771 0.0000 0.0000
# 5 0.0000 0.0000 0.0000 0.0000 19.9771 0.0000
# 6 -2.3233 2.3233 0.0000 0.0000 0.0000 70.1031
#
#
#
# Elastic Compliance Matrix: (Units=1/GPa)
#
#
# Indices 1 2 3 4 5 6 
#
# 1 0.024972 -0.017791 -0.002410 0.000000 0.000000 0.001417
# 2 -0.017791 0.024972 -0.002410 0.000000 0.000000 -0.001417
# 3 -0.002410 -0.002410 0.008960 0.000000 0.000000 0.000000
# 4 0.000000 0.000000 0.000000 0.050057 0.000000 0.000000
# 5 0.000000 0.000000 0.000000 0.000000 0.050057 0.000000
# 6 0.001417 -0.001417 0.000000 0.000000 0.000000 0.014359
#
#
# Mechanical properties :
#
#
# Convention : Reuss Voigt Hill
#
# Bulk Modulus (GPa) = 73.07682 73.19920 73.13801
# Shear Modulus (GPa) = 22.40551 33.01524 27.71038
#
# Velocity S-wave (km/s) = 3.47504 4.21832 3.86459
# Velocity P-wave (km/s) = 7.44899 7.94845 7.70277
#
# Compressibility (1/GPa) = 0.01368423
#
# Stress axis : x y z
#
# Youngs Moduli (GPa) = 40.04486 40.04486 111.60190
#
# Poissons Ratio (x) = 0.71243 0.26892
# Poissons Ratio (y) = 0.71243 0.26892
# Poissons Ratio (z) = 0.09649 0.09649
#
# Static dielectric constant tensor:
#      x y z
#    x -0.121730 0.000000 0.000000 
#    y 0.000000 -0.121730 0.000000 
#    z 0.000000 0.000000 1.693910 
# 
# From -- ./inp_files/2449.got.cif
#   From: 2010.05.17/outbox.cif.g08.bks.cpg/sg85_cif.got.tgz:2449.got - 2010.06.03 19:01:16.
