data_PCOD9544343
_publ_section_title
;
Structure prediction by ZEFSAII (Michael W. Deem and Ramdas Pophale) SiO2 
 PCOD9544343
Probable space group: P 42/M
;
_chemical_formula_sum "Si O2"
_cell_formula_units_Z 26
_cell_length_a 11.776237
_cell_length_b 11.776237
_cell_length_c 9.794605
_cell_angle_alpha 90.000000
_cell_angle_beta 90.000000
_cell_angle_gamma 90.000000
_cell_volume 1358.313450
_symmetry_space_group_name_H-M "P 42/M"
_symmetry_group_IT_number 84
_symmetry_cell_setting 'tetragonal'
loop_
_space_group_symop_operation_xyz
x,y,z
-y,x,1/2+z
-x,-y,z
y,-x,1/2+z
-x,-y,-z
y,-x,1/2-z
x,y,-z
-y,x,1/2-z
loop_
_atom_site_type_symbol
_atom_site_label
_atom_site_fract_x
_atom_site_fract_y
_atom_site_fract_z
Si Si1 0.098894 0.294774 0.843125
Si Si2 0.701043 0.876683 0.838956
Si Si3 0.521862 0.751867 0.346957
Si Si4 0.500000 0.500000 0.250000
O O1 0.177415 0.184646 0.823323
O O2 0.180932 0.403880 0.829003
O O3 0.996565 0.300992 0.737588
O O4 0.056170 0.295209 0.000000
O O5 0.608643 0.796894 0.765773
O O6 0.677286 0.887388 0.000000
O O7 0.564701 0.777228 0.500000
O O8 0.503524 0.617410 0.333194
#
# Coordination Sequence:
#
# PCOD9544343 Si02
#       4
#     8   8   8   2
#     4  10  23  43  62  89 127 165 206 257 315 367
#     4  11  24  42  64  93 125 163 213 259 306 371
#     4  11  23  41  65  93 130 166 201 254 316 372
#     4  12  22  40  68 102 126 160 208 250 306 376
#
# _framework density 19.141383999999999
#
# number of rings (size 3 to 8) (size 9 to 14) (size 15 to 20)
#    0.000    1.231    3.077    2.308    0.000    9.231 
#    0.000    3.077    0.000    0.000    0.000    0.000 
#    0.000    0.000    0.000    0.000    0.000    0.000 
#
# Total GULP energy -145311.423370 kJ/mol
# GULP energy per Si atom -5588.900899 kJ/mol
# Density = 1.909782 g / cm^3
# Si number density = 19.141384 Si / 1000 Ang^3
#
#
#
# Elastic Constant Matrix: (Units=GPa)
#
#
# Indices 1 2 3 4 5 6 
#
# 1 121.8050 40.4394 84.0703 0.0000 0.0000 5.2849
# 2 40.4394 121.8050 84.0703 0.0000 0.0000 -5.2849
# 3 84.0703 84.0703 154.6870 0.0000 0.0000 0.0000
# 4 0.0000 0.0000 0.0000 19.5771 0.0000 0.0000
# 5 0.0000 0.0000 0.0000 0.0000 19.5771 0.0000
# 6 5.2849 -5.2849 0.0000 0.0000 0.0000 12.2020
#
#
#
# Elastic Compliance Matrix: (Units=1/GPa)
#
#
# Indices 1 2 3 4 5 6 
#
# 1 0.013567 0.000544 -0.007670 0.000000 0.000000 -0.005641
# 2 0.000544 0.013567 -0.007670 0.000000 0.000000 0.005641
# 3 -0.007670 -0.007670 0.014801 0.000000 0.000000 0.000000
# 4 0.000000 0.000000 0.000000 0.051080 0.000000 0.000000
# 5 0.000000 0.000000 0.000000 0.000000 0.051080 0.000000
# 6 -0.005641 0.005641 0.000000 0.000000 0.000000 0.086840
#
#
# Mechanical properties :
#
#
# Convention : Reuss Voigt Hill
#
# Bulk Modulus (GPa) = 80.99374 90.60631 85.80003
# Shear Modulus (GPa) = 18.89352 22.91906 20.90629
#
# Velocity S-wave (km/s) = 3.14514 3.46404 3.30844
# Velocity P-wave (km/s) = 7.45617 7.96476 7.71466
#
# Compressibility (1/GPa) = 0.01234663
#
# Stress axis : x y z
#
# Youngs Moduli (GPa) = 73.70605 73.70605 67.56154
#
# Poissons Ratio (x) = -0.04013 0.51817
# Poissons Ratio (y) = -0.04013 0.51817
# Poissons Ratio (z) = 0.56530 0.56530
#
# Static dielectric constant tensor:
#      x y z
#    x 1.649300 0.000000 0.000000 
#    y 0.000000 1.649300 0.000000 
#    z 0.000000 0.000000 1.652730 
# 
# From -- ./inp_files/441.got.cif
#   From: 2010.05.17/outbox.cif.g08.bks.cpg/sg84_1_cif.got.tgz:441.got - 2010.06.03 18:57:40.
