data_PCOD9544341
_publ_section_title
;
Structure prediction by ZEFSAII (Michael W. Deem and Ramdas Pophale) SiO2 
 PCOD9544341
Probable space group: P 42/M
;
_chemical_formula_sum "Si O2"
_cell_formula_units_Z 40
_cell_length_a 16.286044
_cell_length_b 16.286044
_cell_length_c 7.779793
_cell_angle_alpha 90.000000
_cell_angle_beta 90.000000
_cell_angle_gamma 90.000000
_cell_volume 2063.475179
_symmetry_space_group_name_H-M "P 42/M"
_symmetry_group_IT_number 84
_symmetry_cell_setting 'tetragonal'
loop_
_space_group_symop_operation_xyz
x,y,z
-y,x,1/2+z
-x,-y,z
y,-x,1/2+z
-x,-y,-z
y,-x,1/2-z
x,y,-z
-y,x,1/2-z
loop_
_atom_site_type_symbol
_atom_site_label
_atom_site_fract_x
_atom_site_fract_y
_atom_site_fract_z
Si Si1 0.373675 0.949256 0.000000
Si Si2 0.599687 0.413478 0.700228
Si Si3 0.452599 0.130993 0.000000
Si Si4 0.776169 0.363194 0.197741
Si Si5 0.140600 0.809780 0.205498
Si Si6 0.752549 0.040973 0.303585
O O1 0.451365 0.889248 0.000000
O O2 0.318447 0.937355 0.168954
O O3 0.406574 0.043001 0.000000
O O4 0.512123 0.391541 0.782136
O O5 0.596544 0.391606 0.500000
O O6 0.678450 0.371817 0.784367
O O7 0.424362 0.181390 0.167488
O O8 0.806907 0.271906 0.243284
O O9 0.800422 0.379578 0.000000
O O10 0.179420 0.888333 0.294658
O O11 0.046509 0.790720 0.250156
O O12 0.144461 0.823801 0.000000
O O13 0.722227 0.032420 0.500000
#
# Coordination Sequence:
#
# PCOD9544341 Si02
#       6
#     4   8   4   8   8   8
#     4  11  24  44  66  94 133 164 221 266 315 392
#     4  11  22  39  62  91 126 166 212 265 327 384
#     4  11  24  42  70  92 124 181 204 268 330 375
#     4  11  23  42  65  93 129 166 217 266 317 387
#     4  10  23  42  65  95 130 171 216 270 319 385
#     4  11  24  41  67  97 132 173 215 266 327 382
#
# _framework density 19.384774
#
# number of rings (size 3 to 8) (size 9 to 14) (size 15 to 20)
#    0.000    1.200    4.000    2.400    2.800    2.800 
#    0.000    4.000    0.000    0.000    0.000    0.000 
#    0.000    0.000    0.000    0.000    0.000    0.000 
#
# Total GULP energy -223629.063078 kJ/mol
# GULP energy per Si atom -5590.726577 kJ/mol
# Density = 1.934065 g / cm^3
# Si number density = 19.384774 Si / 1000 Ang^3
#
#
#
# Elastic Constant Matrix: (Units=GPa)
#
#
# Indices 1 2 3 4 5 6 
#
# 1 92.6415 66.0252 27.9825 0.0000 0.0000 -14.8402
# 2 66.0252 92.6415 27.9825 0.0000 0.0000 14.8402
# 3 27.9825 27.9825 87.8607 0.0000 0.0000 0.0000
# 4 0.0000 0.0000 0.0000 52.6770 0.0000 0.0000
# 5 0.0000 0.0000 0.0000 0.0000 52.6770 0.0000
# 6 -14.8402 14.8402 0.0000 0.0000 0.0000 26.6728
#
#
#
# Elastic Compliance Matrix: (Units=1/GPa)
#
#
# Indices 1 2 3 4 5 6 
#
# 1 0.053042 -0.045942 -0.002261 0.000000 0.000000 0.055072
# 2 -0.045942 0.053042 -0.002261 0.000000 0.000000 -0.055072
# 3 -0.002261 -0.002261 0.012822 0.000000 0.000000 0.000000
# 4 0.000000 0.000000 0.000000 0.018984 0.000000 0.000000
# 5 0.000000 0.000000 0.000000 0.000000 0.018984 0.000000
# 6 0.055072 -0.055072 0.000000 0.000000 0.000000 0.098774
#
#
# Mechanical properties :
#
#
# Convention : Reuss Voigt Hill
#
# Bulk Modulus (GPa) = 55.62633 57.45824 56.54228
# Shear Modulus (GPa) = 13.79054 36.48226 25.13640
#
# Velocity S-wave (km/s) = 2.67012 4.34292 3.60489
# Velocity P-wave (km/s) = 6.18581 7.40629 6.82339
#
# Compressibility (1/GPa) = 0.01797710
#
# Stress axis : x y z
#
# Youngs Moduli (GPa) = 18.85306 18.85306 77.99063
#
# Poissons Ratio (x) = 0.86614 0.17636
# Poissons Ratio (y) = 0.86614 0.17636
# Poissons Ratio (z) = 0.04263 0.04263
#
# Static dielectric constant tensor:
#      x y z
#    x 1.655990 0.000000 0.000000 
#    y 0.000000 1.655990 0.000000 
#    z 0.000000 0.000000 1.684870 
# 
# From -- ./inp_files/825.got.cif
#   From: 2010.05.17/outbox.cif.g08.bks.cpg/sg84_1_cif.got.tgz:825.got - 2010.06.03 18:57:40.
