data_PCOD9544499
_publ_section_title
;
Structure prediction by ZEFSAII (Michael W. Deem and Ramdas Pophale) SiO2 
 PCOD9544499
Probable space group: P 4/N
;
_chemical_formula_sum "Si O2"
_cell_formula_units_Z 48
_cell_length_a 17.981865
_cell_length_b 17.981865
_cell_length_c 6.621754
_cell_angle_alpha 90.000000
_cell_angle_beta 90.000000
_cell_angle_gamma 90.000000
_cell_volume 2141.127395
_symmetry_space_group_name_H-M "P 4/N"
_symmetry_group_IT_number 85
_symmetry_cell_setting 'tetragonal'
loop_
_space_group_symop_operation_xyz
x,y,z
1/2-y,x,z
1/2-x,1/2-y,z
y,1/2-x,z
-x,-y,-z
1/2+y,-x,-z
1/2+x,1/2+y,-z
-y,1/2+x,-z
loop_
_atom_site_type_symbol
_atom_site_label
_atom_site_fract_x
_atom_site_fract_y
_atom_site_fract_z
Si Si1 0.241538 0.973067 0.693187
Si Si2 0.312585 0.144700 0.022741
Si Si3 0.854478 0.524235 0.644534
Si Si4 0.850990 0.308658 0.949333
Si Si5 0.458656 0.611314 0.038476
Si Si6 0.094745 0.074515 0.722577
O O1 0.285408 0.994132 0.488623
O O2 0.168257 0.024074 0.723431
O O3 0.211973 0.890107 0.738467
O O4 0.306940 0.977425 0.864712
O O5 0.347782 0.225422 0.044944
O O6 0.336176 0.089763 0.199324
O O7 0.344491 0.121677 0.804344
O O8 0.885393 0.462902 0.796586
O O9 0.915172 0.557628 0.493614
O O10 0.899062 0.370518 0.072414
O O11 0.841072 0.231876 0.071225
O O12 0.523566 0.559848 0.131360
#
# Coordination Sequence:
#
# PCOD9544499 Si02
#       6
#     8   8   8   8   8   8
#     4  10  20  36  59  85 116 152 193 241 291 341
#     4  10  19  30  48  77 114 160 206 235 264 319
#     4  10  19  33  52  80 119 155 184 229 283 335
#     4   9  19  40  65  84 104 137 184 238 297 354
#     4   9  20  37  57  83 115 151 193 236 284 345
#     4  10  19  32  52  80 116 154 191 231 281 339
#
# _framework density 22.418095999999998
#
# number of rings (size 3 to 8) (size 9 to 14) (size 15 to 20)
#    0.000    2.333    0.000    4.000    0.000    2.000 
#    0.000   14.167    0.000    4.000    0.000    0.000 
#    0.000    0.000    0.000    0.000    0.000    0.000 
#
# Total GULP energy -267318.353603 kJ/mol
# GULP energy per Si atom -5569.132367 kJ/mol
# Density = 2.236707 g / cm^3
# Si number density = 22.418096 Si / 1000 Ang^3
#
#
#
# Elastic Constant Matrix: (Units=GPa)
#
#
# Indices 1 2 3 4 5 6 
#
# 1 88.3103 12.5141 25.5155 0.0000 0.0000 -17.3941
# 2 12.5141 88.3103 25.5155 0.0000 0.0000 17.3941
# 3 25.5155 25.5155 106.5932 0.0000 0.0000 0.0000
# 4 0.0000 0.0000 0.0000 14.2281 0.0000 0.0000
# 5 0.0000 0.0000 0.0000 0.0000 14.2281 0.0000
# 6 -17.3941 17.3941 0.0000 0.0000 0.0000 34.0727
#
#
#
# Elastic Compliance Matrix: (Units=1/GPa)
#
#
# Indices 1 2 3 4 5 6 
#
# 1 0.014258 -0.002972 -0.002701 0.000000 0.000000 0.008796
# 2 -0.002972 0.014258 -0.002701 0.000000 0.000000 -0.008796
# 3 -0.002701 -0.002701 0.010675 0.000000 0.000000 0.000000
# 4 0.000000 0.000000 0.000000 0.070283 0.000000 0.000000
# 5 0.000000 0.000000 0.000000 0.000000 0.070283 0.000000
# 6 0.008796 -0.008796 0.000000 0.000000 0.000000 0.038330
#
#
# Mechanical properties :
#
#
# Convention : Reuss Voigt Hill
#
# Bulk Modulus (GPa) = 44.56318 45.58933 45.07625
# Shear Modulus (GPa) = 20.63403 27.15037 23.89220
#
# Velocity S-wave (km/s) = 3.03713 3.48385 3.26813
# Velocity P-wave (km/s) = 5.67629 6.04674 5.86444
#
# Compressibility (1/GPa) = 0.02244005
#
# Stress axis : x y z
#
# Youngs Moduli (GPa) = 70.13605 70.13605 93.67883
#
# Poissons Ratio (x) = 0.20848 0.25307
# Poissons Ratio (y) = 0.20848 0.25307
# Poissons Ratio (z) = 0.18947 0.18947
#
# Static dielectric constant tensor:
#      x y z
#    x 1.907400 0.000000 0.000000 
#    y 0.000000 1.907400 0.000000 
#    z 0.000000 0.000000 1.810670 
# 
# From -- ./inp_files/456.got.cif
#   From: 2010.05.17/outbox.cif.g08.bks.cpg/sg85_cif.got.tgz:456.got - 2010.06.03 19:01:16.
