data_PCOD9544913
_publ_section_title
;
Structure prediction by ZEFSAII (Michael W. Deem and Ramdas Pophale) SiO2 
 PCOD9544913
Probable space group: P 42/N
;
_chemical_formula_sum "Si O2"
_cell_formula_units_Z 56
_cell_length_a 12.048533
_cell_length_b 12.048533
_cell_length_c 14.926536
_cell_angle_alpha 90.000000
_cell_angle_beta 90.000000
_cell_angle_gamma 90.000000
_cell_volume 2166.842652
_symmetry_space_group_name_H-M "P 42/N"
_symmetry_group_IT_number 86
_space_group.IT_coordinate_system_code '2'
_symmetry_cell_setting 'tetragonal'
loop_
_space_group_symop_operation_xyz
x,y,z
-y,1/2+x,1/2+z
1/2-x,1/2-y,z
1/2+y,-x,1/2+z
-x,-y,-z
y,1/2-x,1/2-z
1/2+x,1/2+y,-z
1/2-y,x,1/2-z
loop_
_atom_site_type_symbol
_atom_site_label
_atom_site_fract_x
_atom_site_fract_y
_atom_site_fract_z
Si Si1 0.910975 0.687670 0.222493
Si Si2 0.873688 0.871607 0.643566
Si Si3 0.291561 0.874776 0.761935
Si Si4 0.893585 0.890456 0.837951
Si Si5 0.594086 0.075398 0.430342
Si Si6 0.376414 0.709706 0.463372
Si Si7 0.167100 0.015677 0.535380
O O1 0.817519 0.625889 0.278299
O O2 0.036410 0.691678 0.255005
O O3 0.913404 0.643088 0.122698
O O4 0.923920 0.918642 0.735059
O O5 0.900961 0.740165 0.644974
O O6 0.742103 0.901176 0.654777
O O7 0.889410 0.923342 0.547107
O O8 0.250000 0.750000 0.761943
O O9 0.361361 0.886593 0.669708
O O10 0.335023 0.900011 0.862890
O O11 0.963197 0.970352 0.903014
O O12 0.570288 0.180164 0.495544
O O13 0.697940 0.001638 0.464883
O O14 0.250000 0.750000 0.457524
O O15 0.376088 0.609845 0.534068
#
# Coordination Sequence:
#
# PCOD9544913 Si02
#       7
#     8   8   8   8   8   8   8
#     4  10  23  41  61  90 130 170 207 252 313 382
#     4   9  19  36  55  78 109 145 185 232 299 360
#     4  10  20  39  63  86 120 161 207 265 314 364
#     4   9  19  35  55  79 110 146 183 237 299 359
#     4  10  19  34  55  82 112 146 193 243 296 358
#     4   9  19  35  57  83 111 149 196 249 308 359
#     4  10  20  37  58  81 113 152 198 250 296 362
#
# _framework density 25.844054
#
# number of rings (size 3 to 8) (size 9 to 14) (size 15 to 20)
#    0.000    2.429    0.000    3.857    0.000    5.143 
#    0.000   22.857    0.000    0.000    0.000    0.000 
#    0.000    0.000    0.000    0.000    0.000    0.000 
#
# Total GULP energy -312615.044236 kJ/mol
# GULP energy per Si atom -5582.411504 kJ/mol
# Density = 2.578523 g / cm^3
# Si number density = 25.844054 Si / 1000 Ang^3
#
#
#
# Elastic Constant Matrix: (Units=GPa)
#
#
# Indices 1 2 3 4 5 6 
#
# 1 101.1983 21.3646 38.1343 0.0000 0.0000 -7.6924
# 2 21.3646 101.1983 38.1343 0.0000 0.0000 7.6924
# 3 38.1343 38.1343 96.7670 0.0000 0.0000 0.0000
# 4 0.0000 0.0000 0.0000 -25.3224 0.0000 0.0000
# 5 0.0000 0.0000 0.0000 0.0000 -25.3224 0.0000
# 6 -7.6924 7.6924 0.0000 0.0000 0.0000 14.8653
#
#
#
# Elastic Compliance Matrix: (Units=1/GPa)
#
#
# Indices 1 2 3 4 5 6 
#
# 1 0.012362 -0.001552 -0.004260 0.000000 0.000000 0.007200
# 2 -0.001552 0.012362 -0.004260 0.000000 0.000000 -0.007200
# 3 -0.004260 -0.004260 0.013692 0.000000 0.000000 0.000000
# 4 0.000000 0.000000 0.000000 -0.039491 0.000000 0.000000
# 5 0.000000 0.000000 0.000000 0.000000 -0.039491 0.000000
# 6 0.007200 -0.007200 0.000000 0.000000 0.000000 0.074723
#
#
# Mechanical properties :
#
#
# Convention : Reuss Voigt Hill
#
# Bulk Modulus (GPa) = 54.72982 54.93666 54.83324
# Shear Modulus (GPa) = 82.79429 6.27945 44.53687
#
# Velocity S-wave (km/s) = 5.66619 1.56046 4.15576
# Velocity P-wave (km/s) = 8.00190 4.95478 6.65508
#
# Compressibility (1/GPa) = 0.01827157
#
# Stress axis : x y z
#
# Youngs Moduli (GPa) = 80.89448 80.89448 73.03682
#
# Poissons Ratio (x) = 0.12553 0.31114
# Poissons Ratio (y) = 0.12553 0.31114
# Poissons Ratio (z) = 0.34461 0.34461
#
# Static dielectric constant tensor:
#      x y z
#    x 2.044540 0.000000 0.000000 
#    y 0.000000 2.044540 0.000000 
#    z 0.000000 0.000000 2.126090 
# 
# From -- ./inp_files/3064.got.cif
#   From: 2010.05.17/outbox.cif.g08.bks.cpg/sg86_2_cif.got.tgz:3064.got - 2010.06.03 19:03:11.
