data_PCOD9544656
_publ_section_title
;
Structure prediction by ZEFSAII (Michael W. Deem and Ramdas Pophale) SiO2 
 PCOD9544656
Probable space group: P 4/N
;
_chemical_formula_sum "Si O2"
_cell_formula_units_Z 56
_cell_length_a 11.360521
_cell_length_b 11.360521
_cell_length_c 19.761641
_cell_angle_alpha 90.000000
_cell_angle_beta 90.000000
_cell_angle_gamma 90.000000
_cell_volume 2550.465793
_symmetry_space_group_name_H-M "P 4/N"
_symmetry_group_IT_number 85
_symmetry_cell_setting 'tetragonal'
loop_
_space_group_symop_operation_xyz
x,y,z
1/2-y,x,z
1/2-x,1/2-y,z
y,1/2-x,z
-x,-y,-z
1/2+y,-x,-z
1/2+x,1/2+y,-z
-y,1/2+x,-z
loop_
_atom_site_type_symbol
_atom_site_label
_atom_site_fract_x
_atom_site_fract_y
_atom_site_fract_z
Si Si1 0.999999 0.000000 0.383906
Si Si2 0.073312 0.159953 0.500000
Si Si3 0.428670 0.163991 0.000000
Si Si4 0.071196 0.664267 0.864250
Si Si5 0.335733 0.571197 0.864251
Si Si6 0.662624 0.572238 0.728739
Si Si7 0.162624 0.072237 0.728739
O O1 0.008617 0.111725 0.433591
O O2 0.112059 0.000100 0.334361
O O3 0.991381 0.888274 0.433590
O O4 0.887941 0.999901 0.334360
O O5 0.201821 0.097227 0.500000
O O6 0.400577 0.303574 1.000000
O O7 0.501682 0.137058 0.932747
O O8 0.501680 0.137059 0.067253
O O9 0.196146 0.599311 0.863019
O O10 0.099310 0.803854 0.863018
O O11 0.993600 0.636963 0.798645
O O12 0.363035 0.493599 0.798645
O O13 0.801257 0.598507 0.725513
O O14 0.301257 0.098507 0.725513
#
# Coordination Sequence:
#
# PCOD9544656 Si02
#       7
#     8   8   8   8   8   8   8
#     4  11  22  38  66  97 128 164 208 263 314 362
#     4  10  22  42  68  98 130 168 212 255 308 377
#     4  11  24  41  62  90 124 169 224 274 322 382
#     4  11  24  41  62  92 129 168 214 272 333 385
#     4  11  24  41  62  92 129 168 214 272 333 385
#     4  11  23  40  64  93 126 169 219 266 319 386
#     4  11  23  40  64  93 126 169 219 266 319 386
#
# _framework density 21.956772999999998
#
# number of rings (size 3 to 8) (size 9 to 14) (size 15 to 20)
#    0.000    1.143    0.000    6.000    0.000   10.286 
#    0.000    0.000    0.000   29.143    0.000    0.000 
#    0.000    0.000    0.000    0.000    0.000    0.000 
#
# Total GULP energy -313835.015306 kJ/mol
# GULP energy per Si atom -5604.196702 kJ/mol
# Density = 2.190680 g / cm^3
# Si number density = 21.956773 Si / 1000 Ang^3
#
#
#
# Elastic Constant Matrix: (Units=GPa)
#
#
# Indices 1 2 3 4 5 6 
#
# 1 123.5757 54.2885 73.1488 0.0000 0.0000 2.5737
# 2 54.2885 123.5757 73.1488 0.0000 0.0000 -2.5737
# 3 73.1488 73.1488 221.2906 0.0000 0.0000 0.0000
# 4 0.0000 0.0000 0.0000 49.8232 0.0000 0.0000
# 5 0.0000 0.0000 0.0000 0.0000 49.8232 0.0000
# 6 2.5737 -2.5737 0.0000 0.0000 0.0000 32.4138
#
#
#
# Elastic Compliance Matrix: (Units=1/GPa)
#
#
# Indices 1 2 3 4 5 6 
#
# 1 0.011120 -0.003398 -0.002552 0.000000 0.000000 -0.001153
# 2 -0.003398 0.011120 -0.002552 0.000000 0.000000 0.001153
# 3 -0.002552 -0.002552 0.006206 0.000000 0.000000 0.000000
# 4 0.000000 0.000000 0.000000 0.020071 0.000000 0.000000
# 5 0.000000 0.000000 0.000000 0.000000 0.020071 0.000000
# 6 -0.001153 0.001153 0.000000 0.000000 0.000000 0.031034
#
#
# Mechanical properties :
#
#
# Convention : Reuss Voigt Hill
#
# Bulk Modulus (GPa) = 87.41242 96.62378 92.01810
# Shear Modulus (GPa) = 41.51367 44.26910 42.89139
#
# Velocity S-wave (km/s) = 4.35294 4.49508 4.42458
# Velocity P-wave (km/s) = 8.07228 8.42869 8.25241
#
# Compressibility (1/GPa) = 0.01144002
#
# Stress axis : x y z
#
# Youngs Moduli (GPa) = 89.92782 89.92782 161.12396
#
# Poissons Ratio (x) = 0.30560 0.41126
# Poissons Ratio (y) = 0.30560 0.41126
# Poissons Ratio (z) = 0.22954 0.22954
#
# Static dielectric constant tensor:
#      x y z
#    x 1.803600 0.000000 0.000000 
#    y 0.000000 1.803600 0.000000 
#    z 0.000000 0.000000 1.756290 
# 
# From -- ./inp_files/2238.got.cif
#   From: 2010.05.17/outbox.cif.g08.bks.cpg/sg85_cif.got.tgz:2238.got - 2010.06.03 19:01:16.
