data_PCOD9544598
_publ_section_title
;
Structure prediction by ZEFSAII (Michael W. Deem and Ramdas Pophale) SiO2 
 PCOD9544598
Probable space group: P 4/N
;
_chemical_formula_sum "Si O2"
_cell_formula_units_Z 36
_cell_length_a 9.931123
_cell_length_b 9.931123
_cell_length_c 19.785603
_cell_angle_alpha 90.000000
_cell_angle_beta 90.000000
_cell_angle_gamma 90.000000
_cell_volume 1951.398704
_symmetry_space_group_name_H-M "P 4/N"
_symmetry_group_IT_number 85
_symmetry_cell_setting 'tetragonal'
loop_
_space_group_symop_operation_xyz
x,y,z
1/2-y,x,z
1/2-x,1/2-y,z
y,1/2-x,z
-x,-y,-z
1/2+y,-x,-z
1/2+x,1/2+y,-z
-y,1/2+x,-z
loop_
_atom_site_type_symbol
_atom_site_label
_atom_site_fract_x
_atom_site_fract_y
_atom_site_fract_z
Si Si1 0.404339 0.750000 0.271676
Si Si2 0.470321 0.470321 0.822376
Si Si3 0.592136 0.907864 0.953203
Si Si4 0.750000 0.250000 0.500000
Si Si5 0.028338 0.250000 0.582340
Si Si6 0.750000 0.750000 0.133747
O O1 0.250000 0.750000 0.293217
O O2 0.437178 0.621093 0.225652
O O3 0.437178 0.878907 0.225652
O O4 0.498755 0.750000 0.337372
O O5 0.553886 0.553887 0.876752
O O6 0.367756 0.367757 0.859919
O O7 0.567302 0.750000 0.966136
O O8 0.500000 0.000000 0.000000
O O9 0.613566 0.250000 0.544190
O O10 0.119549 0.119549 0.565974
#
# Coordination Sequence:
#
# PCOD9544598 Si02
#       6
#     8   8   8   2   8   2
#     4  11  20  35  64  94 121 161 209 260 311 376
#     4  10  21  38  62  92 126 162 211 259 321 361
#     4  11  27  46  65  90 128 170 213 262 318 380
#     4  12  24  44  64  92 128 176 210 264 316 368
#     4  11  23  40  64  94 128 167 213 260 312 379
#     4   8  20  32  64  92 120 156 196 256 310 368
#
# _framework density 18.448307
#
# number of rings (size 3 to 8) (size 9 to 14) (size 15 to 20)
#    0.000    1.333    3.333    2.000    6.222    0.444 
#    0.000    0.000    0.000    0.000    0.000    0.000 
#    0.000    0.000    0.000    0.000    0.000    0.000 
#
# Total GULP energy -200602.531667 kJ/mol
# GULP energy per Si atom -5572.292546 kJ/mol
# Density = 1.840632 g / cm^3
# Si number density = 18.448307 Si / 1000 Ang^3
#
#
#
# Elastic Constant Matrix: (Units=GPa)
#
#
# Indices 1 2 3 4 5 6 
#
# 1 125.8895 78.3606 46.6161 0.0000 0.0000 0.0000
# 2 78.3606 125.8895 46.6161 0.0000 0.0000 0.0000
# 3 46.6161 46.6161 93.2685 0.0000 0.0000 0.0000
# 4 0.0000 0.0000 0.0000 30.3711 0.0000 0.0000
# 5 0.0000 0.0000 0.0000 0.0000 30.3711 0.0000
# 6 0.0000 0.0000 0.0000 0.0000 0.0000 37.3610
#
#
#
# Elastic Compliance Matrix: (Units=1/GPa)
#
#
# Indices 1 2 3 4 5 6 
#
# 1 0.013691 -0.007348 -0.003170 0.000000 0.000000 0.000000
# 2 -0.007348 0.013691 -0.003170 0.000000 0.000000 0.000000
# 3 -0.003170 -0.003170 0.013891 0.000000 0.000000 0.000000
# 4 0.000000 0.000000 0.000000 0.032926 0.000000 0.000000
# 5 0.000000 0.000000 0.000000 0.000000 0.032926 0.000000
# 6 0.000000 0.000000 0.000000 0.000000 0.000000 0.026766
#
#
# Mechanical properties :
#
#
# Convention : Reuss Voigt Hill
#
# Bulk Modulus (GPa) = 71.96446 76.47032 74.21739
# Shear Modulus (GPa) = 30.13835 31.18429 30.66132
#
# Velocity S-wave (km/s) = 4.04625 4.11586 4.08120
# Velocity P-wave (km/s) = 7.80531 8.00801 7.90731
#
# Compressibility (1/GPa) = 0.01389575
#
# Stress axis : x y z
#
# Youngs Moduli (GPa) = 73.03828 73.03828 71.99006
#
# Poissons Ratio (x) = 0.53671 0.22823
# Poissons Ratio (y) = 0.53671 0.22823
# Poissons Ratio (z) = 0.23155 0.23155
#
# Static dielectric constant tensor:
#      x y z
#    x 1.607130 0.000000 0.000000 
#    y 0.000000 1.607130 0.000000 
#    z 0.000000 0.000000 1.640230 
# 
# From -- ./inp_files/2209.got.cif
#   From: 2010.05.17/outbox.cif.g08.bks.cpg/sg85_cif.got.tgz:2209.got - 2010.06.03 19:01:16.
