data_PCOD9544699
_publ_section_title
;
Structure prediction by ZEFSAII (Michael W. Deem and Ramdas Pophale) SiO2 
 PCOD9544699
Probable space group: P 4/N
;
_chemical_formula_sum "Si O2"
_cell_formula_units_Z 32
_cell_length_a 11.303037
_cell_length_b 11.303037
_cell_length_c 11.768548
_cell_angle_alpha 90.000000
_cell_angle_beta 90.000000
_cell_angle_gamma 90.000000
_cell_volume 1503.533751
_symmetry_space_group_name_H-M "P 4/N"
_symmetry_group_IT_number 85
_symmetry_cell_setting 'tetragonal'
loop_
_space_group_symop_operation_xyz
x,y,z
1/2-y,x,z
1/2-x,1/2-y,z
y,1/2-x,z
-x,-y,-z
1/2+y,-x,-z
1/2+x,1/2+y,-z
-y,1/2+x,-z
loop_
_atom_site_type_symbol
_atom_site_label
_atom_site_fract_x
_atom_site_fract_y
_atom_site_fract_z
Si Si1 0.575357 0.196801 0.030185
Si Si2 0.579831 0.846968 0.170280
Si Si3 0.234951 0.897601 0.286073
Si Si4 0.003820 0.972481 0.632881
O O1 0.557352 0.247230 0.155526
O O2 0.616102 0.309404 0.957106
O O3 0.478931 0.131762 0.953412
O O4 0.596799 0.707766 0.176545
O O5 0.511466 0.892294 0.280301
O O6 0.250000 0.750000 0.294176
O O7 0.108289 0.952192 0.320983
O O8 0.331364 0.973243 0.356830
O O9 0.000000 0.000000 0.500000
#
# Coordination Sequence:
#
# PCOD9544699 Si02
#       4
#     8   8   8   8
#     4  11  20  41  72 107 144 186 245 304 392 468
#     4  11  25  44  71 107 147 193 244 313 384 462
#     4  12  27  49  78 111 153 202 256 323 392 458
#     4  12  29  47  76 107 146 207 262 314 385 469
#
# _framework density 21.283194000000002
#
# number of rings (size 3 to 8) (size 9 to 14) (size 15 to 20)
#    0.000    0.500    5.000    3.000   10.500    2.500 
#    0.000    0.000    0.000    0.000    0.000    0.000 
#    0.000    0.000    0.000    0.000    0.000    0.000 
#
# Total GULP energy -178182.217109 kJ/mol
# GULP energy per Si atom -5568.194285 kJ/mol
# Density = 2.123475 g / cm^3
# Si number density = 21.283194 Si / 1000 Ang^3
#
#
#
# Elastic Constant Matrix: (Units=GPa)
#
#
# Indices 1 2 3 4 5 6 
#
# 1 333.4816 -201.6916 23.0461 0.0000 0.0000 80.4847
# 2 -201.6916 333.4816 23.0461 0.0000 0.0000 -80.4847
# 3 23.0461 23.0461 119.8398 0.0000 0.0000 0.0000
# 4 0.0000 0.0000 0.0000 27.0556 0.0000 0.0000
# 5 0.0000 0.0000 0.0000 0.0000 27.0556 0.0000
# 6 80.4847 -80.4847 0.0000 0.0000 0.0000 59.2929
#
#
#
# Elastic Compliance Matrix: (Units=1/GPa)
#
#
# Indices 1 2 3 4 5 6 
#
# 1 0.005646 0.002489 -0.001564 0.000000 0.000000 -0.004286
# 2 0.002489 0.005646 -0.001564 0.000000 0.000000 0.004286
# 3 -0.001564 -0.001564 0.008946 0.000000 0.000000 0.000000
# 4 0.000000 0.000000 0.000000 0.036961 0.000000 0.000000
# 5 0.000000 0.000000 0.000000 0.000000 0.036961 0.000000
# 6 -0.004286 0.004286 0.000000 0.000000 0.000000 0.028502
#
#
# Mechanical properties :
#
#
# Convention : Reuss Voigt Hill
#
# Bulk Modulus (GPa) = 52.74695 52.84491 52.79593
# Shear Modulus (GPa) = 38.38381 85.50765 61.94573
#
# Velocity S-wave (km/s) = 4.25135 6.34534 5.40080
# Velocity P-wave (km/s) = 6.99541 8.86385 7.98447
#
# Compressibility (1/GPa) = 0.01895844
#
# Stress axis : x y z
#
# Youngs Moduli (GPa) = 177.10389 177.10389 111.77967
#
# Poissons Ratio (x) = -0.44073 0.17487
# Poissons Ratio (y) = -0.44073 0.17487
# Poissons Ratio (z) = 0.27706 0.27706
#
# Static dielectric constant tensor:
#      x y z
#    x 1.835430 0.000000 0.000000 
#    y 0.000000 1.835430 0.000000 
#    z 0.000000 0.000000 1.861250 
# 
# From -- ./inp_files/1408.got.cif
#   From: 2010.05.17/outbox.cif.g08.bks.cpg/sg85_cif.got.tgz:1408.got - 2010.06.03 19:01:16.
