data_PCOD9544018
_publ_section_title
;
Structure prediction by ZEFSAII (Michael W. Deem and Ramdas Pophale) SiO2 
 PCOD9544018
Probable space group: P 42/M
;
_chemical_formula_sum "Si O2"
_cell_formula_units_Z 56
_cell_length_a 19.113381
_cell_length_b 19.113381
_cell_length_c 9.042812
_cell_angle_alpha 90.000000
_cell_angle_beta 90.000000
_cell_angle_gamma 90.000000
_cell_volume 3303.532136
_symmetry_space_group_name_H-M "P 42/M"
_symmetry_group_IT_number 84
_symmetry_cell_setting 'tetragonal'
loop_
_space_group_symop_operation_xyz
x,y,z
-y,x,1/2+z
-x,-y,z
y,-x,1/2+z
-x,-y,-z
y,-x,1/2-z
x,y,-z
-y,x,1/2-z
loop_
_atom_site_type_symbol
_atom_site_label
_atom_site_fract_x
_atom_site_fract_y
_atom_site_fract_z
Si Si1 0.543104 0.931047 0.323801
Si Si2 0.384860 0.272817 0.830972
Si Si3 0.678686 0.250102 0.176279
Si Si4 0.911637 0.058038 0.678201
Si Si5 0.114161 0.676218 0.331011
Si Si6 0.184846 0.814487 0.678088
Si Si7 0.205750 0.477421 0.678492
O O1 0.544789 0.924009 0.500000
O O2 0.622470 0.931135 0.263371
O O3 0.503356 0.865099 0.253779
O O4 0.500000 0.000000 0.283682
O O5 0.330132 0.312869 0.729615
O O6 0.356752 0.192508 0.832692
O O7 0.465327 0.265420 0.782464
O O8 0.381166 0.298657 0.000000
O O9 0.741382 0.205327 0.249107
O O10 0.601804 0.223408 0.218812
O O11 0.685714 0.246406 0.000000
O O12 0.917332 0.049991 0.500000
O O13 0.847142 0.109757 0.710708
O O14 0.982978 0.092190 0.742261
O O15 0.088497 0.678074 0.500000
O O16 0.128219 0.754832 0.276185
O O17 0.192210 0.807514 0.500000
O O18 0.197978 0.481793 0.500000
#
# Coordination Sequence:
#
# PCOD9544018 Si02
#       7
#     8   8   8   8   8   8   8
#     4  10  20  32  46  69 100 130 163 204 244 286
#     4   8  15  30  50  69  95 130 164 196 240 291
#     4  10  19  31  51  79 104 126 165 213 246 284
#     4  10  20  36  56  75  98 128 165 205 249 301
#     4   8  15  30  50  68  90 127 166 195 233 290
#     4   9  19  35  52  73 101 130 161 202 251 300
#     4   9  19  34  50  71  99 132 166 199 240 296
#
# _framework density 16.951554000000002
#
# number of rings (size 3 to 8) (size 9 to 14) (size 15 to 20)
#    0.000    2.857    0.000    3.429    0.000    8.571 
#    2.571    0.000    0.000    0.429    0.000    3.000 
#    0.000    0.000    0.000    0.000    0.000    0.000 
#
# Total GULP energy -311919.982229 kJ/mol
# GULP energy per Si atom -5569.999683 kJ/mol
# Density = 1.691297 g / cm^3
# Si number density = 16.951554 Si / 1000 Ang^3
#
#
#
# Elastic Constant Matrix: (Units=GPa)
#
#
# Indices 1 2 3 4 5 6 
#
# 1 65.3000 30.8744 23.1778 0.0000 0.0000 5.1582
# 2 30.8744 65.3000 23.1778 0.0000 0.0000 -5.1582
# 3 23.1778 23.1778 30.6287 0.0000 0.0000 0.0000
# 4 0.0000 0.0000 0.0000 -117.0095 0.0000 0.0000
# 5 0.0000 0.0000 0.0000 0.0000 -117.0095 0.0000
# 6 5.1582 -5.1582 0.0000 0.0000 0.0000 18.8552
#
#
#
# Elastic Compliance Matrix: (Units=1/GPa)
#
#
# Indices 1 2 3 4 5 6 
#
# 1 0.024005 -0.007637 -0.012386 0.000000 0.000000 -0.008656
# 2 -0.007637 0.024005 -0.012386 0.000000 0.000000 0.008656
# 3 -0.012386 -0.012386 0.051395 0.000000 0.000000 0.000000
# 4 0.000000 0.000000 0.000000 -0.008546 0.000000 0.000000
# 5 0.000000 0.000000 0.000000 0.000000 -0.008546 0.000000
# 6 -0.008656 0.008656 0.000000 0.000000 0.000000 0.057772
#
#
# Mechanical properties :
#
#
# Convention : Reuss Voigt Hill
#
# Bulk Modulus (GPa) = 28.91316 35.07652 31.99484
# Shear Modulus (GPa) = 23.10202 -37.43283 -7.16541
#
# Velocity S-wave (km/s) = 3.69565 -4.70427 -2.05820
# Velocity P-wave (km/s) = 5.94170 2.96138 3.64239
#
# Compressibility (1/GPa) = 0.03458633
#
# Stress axis : x y z
#
# Youngs Moduli (GPa) = 41.65807 41.65807 19.45719
#
# Poissons Ratio (x) = 0.31815 0.24100
# Poissons Ratio (y) = 0.31815 0.24100
# Poissons Ratio (z) = 0.51598 0.51598
#
# Static dielectric constant tensor:
#      x y z
#    x 1.580960 0.000000 0.000000 
#    y 0.000000 1.580960 0.000000 
#    z 0.000000 0.000000 1.569390 
# 
# From -- ./inp_files/1312.got.cif
#   From: 2010.05.17/outbox.cif.g08.bks.cpg/sg84_1_cif.got.tgz:1312.got - 2010.06.03 18:57:40.
