data_PCOD9544048
_publ_section_title
;
Structure prediction by ZEFSAII (Michael W. Deem and Ramdas Pophale) SiO2 
 PCOD9544048
Probable space group: P 42/M
;
_chemical_formula_sum "Si O2"
_cell_formula_units_Z 48
_cell_length_a 15.993562
_cell_length_b 15.993562
_cell_length_c 10.693324
_cell_angle_alpha 90.000000
_cell_angle_beta 90.000000
_cell_angle_gamma 90.000000
_cell_volume 2735.288391
_symmetry_space_group_name_H-M "P 42/M"
_symmetry_group_IT_number 84
_symmetry_cell_setting 'tetragonal'
loop_
_space_group_symop_operation_xyz
x,y,z
-y,x,1/2+z
-x,-y,z
y,-x,1/2+z
-x,-y,-z
y,-x,1/2-z
x,y,-z
-y,x,1/2-z
loop_
_atom_site_type_symbol
_atom_site_label
_atom_site_fract_x
_atom_site_fract_y
_atom_site_fract_z
Si Si1 0.127129 0.838384 0.135859
Si Si2 0.168465 0.396560 0.858469
Si Si3 0.986335 0.220313 0.362779
Si Si4 0.183935 0.590679 0.143865
Si Si5 0.005661 0.595931 0.724911
Si Si6 0.297675 0.734871 0.857544
O O1 0.071776 0.807146 0.249395
O O2 0.210262 0.783397 0.134505
O O3 0.162490 0.931875 0.147914
O O4 0.084150 0.830162 0.000000
O O5 0.198803 0.492114 0.854331
O O6 0.069122 0.399775 0.826822
O O7 0.217802 0.349733 0.748426
O O8 0.180538 0.363526 0.000000
O O9 0.948080 0.205931 0.500000
O O10 0.008310 0.319373 0.354240
O O11 0.265935 0.642664 0.181560
O O12 0.099289 0.605843 0.221216
O O13 0.166145 0.614878 0.000000
O O14 0.000000 0.500000 0.671661
O O15 0.334001 0.734569 0.000000
#
# Coordination Sequence:
#
# PCOD9544048 Si02
#       6
#     8   8   8   8   8   8
#     4  10  22  39  57  76 106 146 183 222 267 317
#     4  10  20  33  55  84 109 136 180 224 259 312
#     4  11  23  39  56  80 109 140 185 228 266 314
#     4   9  18  34  54  78 108 144 179 214 259 321
#     4  10  19  33  53  81 114 143 171 214 275 324
#     4  10  19  35  56  77 109 146 176 211 270 324
#
# _framework density 17.548423
#
# number of rings (size 3 to 8) (size 9 to 14) (size 15 to 20)
#    0.000    2.000    3.333    0.500    0.000    4.667 
#    0.000    5.000    0.000    0.500    0.000    3.500 
#    0.000    0.000    0.000    0.000    0.000    0.000 
#
# Total GULP energy -267242.070254 kJ/mol
# GULP energy per Si atom -5567.543130 kJ/mol
# Density = 1.750848 g / cm^3
# Si number density = 17.548423 Si / 1000 Ang^3
#
#
#
# Elastic Constant Matrix: (Units=GPa)
#
#
# Indices 1 2 3 4 5 6 
#
# 1 58.7881 26.1901 52.3084 0.0000 0.0000 -1.4988
# 2 26.1901 58.7881 52.3084 0.0000 0.0000 1.4988
# 3 52.3084 52.3084 129.8312 0.0000 0.0000 0.0000
# 4 0.0000 0.0000 0.0000 25.0646 0.0000 0.0000
# 5 0.0000 0.0000 0.0000 0.0000 25.0646 0.0000
# 6 -1.4988 1.4988 0.0000 0.0000 0.0000 26.8010
#
#
#
# Elastic Compliance Matrix: (Units=1/GPa)
#
#
# Indices 1 2 3 4 5 6 
#
# 1 0.027092 -0.003743 -0.009407 0.000000 0.000000 0.001724
# 2 -0.003743 0.027092 -0.009407 0.000000 0.000000 -0.001724
# 3 -0.009407 -0.009407 0.015283 0.000000 0.000000 0.000000
# 4 0.000000 0.000000 0.000000 0.039897 0.000000 0.000000
# 5 0.000000 0.000000 0.000000 0.000000 0.039897 0.000000
# 6 0.001724 -0.001724 0.000000 0.000000 0.000000 0.037505
#
#
# Mechanical properties :
#
#
# Convention : Reuss Voigt Hill
#
# Bulk Modulus (GPa) = 41.06494 56.55791 48.81143
# Shear Modulus (GPa) = 20.83352 23.15939 21.99645
#
# Velocity S-wave (km/s) = 3.44932 3.63677 3.54428
# Velocity P-wave (km/s) = 6.27020 7.06642 6.68019
#
# Compressibility (1/GPa) = 0.02435167
#
# Stress axis : x y z
#
# Youngs Moduli (GPa) = 36.91111 36.91111 65.43425
#
# Poissons Ratio (x) = 0.13817 0.61555
# Poissons Ratio (y) = 0.13817 0.61555
# Poissons Ratio (z) = 0.34723 0.34723
#
# Static dielectric constant tensor:
#      x y z
#    x 1.621560 0.000000 0.000000 
#    y 0.000000 1.621560 0.000000 
#    z 0.000000 0.000000 1.632750 
# 
# From -- ./inp_files/2151.got.cif
#   From: 2010.05.17/outbox.cif.g08.bks.cpg/sg84_2_cif.got.tgz:2151.got - 2010.06.03 18:57:40.
