data_PCOD9544396
_publ_section_title
;
Structure prediction by ZEFSAII (Michael W. Deem and Ramdas Pophale) SiO2 
 PCOD9544396
Probable space group: P 42/M
;
_chemical_formula_sum "Si O2"
_cell_formula_units_Z 48
_cell_length_a 8.835352
_cell_length_b 8.835352
_cell_length_c 30.793716
_cell_angle_alpha 90.000000
_cell_angle_beta 90.000000
_cell_angle_gamma 90.000000
_cell_volume 2403.863554
_symmetry_space_group_name_H-M "P 42/M"
_symmetry_group_IT_number 84
_symmetry_cell_setting 'tetragonal'
loop_
_space_group_symop_operation_xyz
x,y,z
-y,x,1/2+z
-x,-y,z
y,-x,1/2+z
-x,-y,-z
y,-x,1/2-z
x,y,-z
-y,x,1/2-z
loop_
_atom_site_type_symbol
_atom_site_label
_atom_site_fract_x
_atom_site_fract_y
_atom_site_fract_z
Si Si1 0.564866 0.661649 0.138392
Si Si2 0.158557 0.258767 0.643611
Si Si3 0.666070 0.934166 0.290211
Si Si4 0.238099 0.599556 0.546847
Si Si5 0.847889 0.231356 0.697973
Si Si6 0.736388 0.093257 0.952167
O O1 0.500000 0.500000 0.151096
O O2 0.434094 0.790419 0.140961
O O3 0.618468 0.657750 0.088432
O O4 0.697967 0.716509 0.168799
O O5 0.287335 0.176981 0.671295
O O6 0.141515 0.196005 0.594339
O O7 0.002471 0.240595 0.670254
O O8 0.676020 0.861470 0.242549
O O9 0.500000 0.000000 0.296609
O O10 0.795245 0.063434 0.290308
O O11 0.309488 0.631896 0.500000
O O12 0.177941 0.426323 0.546128
O O13 0.085549 0.698907 0.551286
O O14 0.809449 0.119549 0.000000
#
# Coordination Sequence:
#
# PCOD9544396 Si02
#       6
#     8   8   8   8   8   8
#     4  11  22  37  58  92 128 160 197 252 315 364
#     4  11  21  39  64  88 119 162 206 255 298 369
#     4  12  26  43  61  88 118 155 202 256 310 370
#     4   8  14  27  51  84 122 157 196 245 299 362
#     4  12  24  42  63  86 118 159 205 249 307 372
#     4   8  14  28  55  87 115 153 203 251 299 358
#
# _framework density 19.967855
#
# number of rings (size 3 to 8) (size 9 to 14) (size 15 to 20)
#    0.000    1.667    3.333    4.000    0.000    0.333 
#    0.000    0.000    0.000    3.500    0.000    0.000 
#    0.000    0.000    0.000    0.000    0.000    0.000 
#
# Total GULP energy -267910.538066 kJ/mol
# GULP energy per Si atom -5581.469543 kJ/mol
# Density = 1.992241 g / cm^3
# Si number density = 19.967855 Si / 1000 Ang^3
#
#
#
# Elastic Constant Matrix: (Units=GPa)
#
#
# Indices 1 2 3 4 5 6 
#
# 1 24.6082 -0.1099 21.2765 0.0000 0.0000 -8.7972
# 2 -0.1099 24.6082 21.2765 0.0000 0.0000 8.7972
# 3 21.2765 21.2765 161.0554 0.0000 0.0000 0.0000
# 4 0.0000 0.0000 0.0000 12.6725 0.0000 0.0000
# 5 0.0000 0.0000 0.0000 0.0000 12.6725 0.0000
# 6 -8.7972 8.7972 0.0000 0.0000 0.0000 33.0125
#
#
#
# Elastic Compliance Matrix: (Units=1/GPa)
#
#
# Indices 1 2 3 4 5 6 
#
# 1 0.051451 0.001524 -0.006998 0.000000 0.000000 0.013304
# 2 0.001524 0.051451 -0.006998 0.000000 0.000000 -0.013304
# 3 -0.006998 -0.006998 0.008058 0.000000 0.000000 0.000000
# 4 0.000000 0.000000 0.000000 0.078911 0.000000 0.000000
# 5 0.000000 0.000000 0.000000 0.000000 0.078911 0.000000
# 6 0.013304 -0.013304 0.000000 0.000000 0.000000 0.037382
#
#
# Mechanical properties :
#
#
# Convention : Reuss Voigt Hill
#
# Bulk Modulus (GPa) = 11.62591 32.79532 22.21062
# Shear Modulus (GPa) = 13.89739 22.86011 18.37875
#
# Velocity S-wave (km/s) = 2.64102 3.38723 3.03713
# Velocity P-wave (km/s) = 3.89037 5.63538 4.84213
#
# Compressibility (1/GPa) = 0.08601474
#
# Stress axis : x y z
#
# Youngs Moduli (GPa) = 19.43608 19.43608 124.09879
#
# Poissons Ratio (x) = -0.02963 0.86849
# Poissons Ratio (y) = -0.02963 0.86849
# Poissons Ratio (z) = 0.13602 0.13602
#
# Static dielectric constant tensor:
#      x y z
#    x 1.693500 0.000000 0.000000 
#    y 0.000000 1.693500 0.000000 
#    z 0.000000 0.000000 1.753520 
# 
# From -- ./inp_files/5774.got.cif
#   From: 2010.05.17/outbox.cif.g08.bks.cpg/sg84_3_cif.got.tgz:5774.got - 2010.06.03 18:57:40.
