data_PCOD9544677
_publ_section_title
;
Structure prediction by ZEFSAII (Michael W. Deem and Ramdas Pophale) SiO2 
 PCOD9544677
Probable space group: P 4/N
;
_chemical_formula_sum "Si O2"
_cell_formula_units_Z 28
_cell_length_a 10.555957
_cell_length_b 10.555957
_cell_length_c 9.556993
_cell_angle_alpha 90.000000
_cell_angle_beta 90.000000
_cell_angle_gamma 90.000000
_cell_volume 1064.918797
_symmetry_space_group_name_H-M "P 4/N"
_symmetry_group_IT_number 85
_symmetry_cell_setting 'tetragonal'
loop_
_space_group_symop_operation_xyz
x,y,z
1/2-y,x,z
1/2-x,1/2-y,z
y,1/2-x,z
-x,-y,-z
1/2+y,-x,-z
1/2+x,1/2+y,-z
-y,1/2+x,-z
loop_
_atom_site_type_symbol
_atom_site_label
_atom_site_fract_x
_atom_site_fract_y
_atom_site_fract_z
Si Si1 0.250000 0.250000 0.571193
Si Si2 0.818734 0.488109 0.329548
Si Si3 0.750000 0.250000 0.500000
Si Si4 0.547480 0.210638 0.970589
Si Si5 0.639158 0.577892 0.758164
O O1 0.169792 0.382048 0.588740
O O2 0.745638 0.375494 0.406721
O O3 0.751342 0.506202 0.178542
O O4 0.958602 0.433709 0.299942
O O5 0.612872 0.334775 0.041086
O O6 0.445131 0.150495 0.074314
O O7 0.786998 0.583642 0.716214
#
# Coordination Sequence:
#
# PCOD9544677 Si02
#       5
#     2   8   2   8   8
#     4  12  32  48  76 112 154 192 264 320 384 438
#     4  11  27  48  77 111 149 199 257 316 376 452
#     4  12  28  56  86  92 148 208 272 322 388 424
#     4   9  19  37  68 107 153 194 244 298 370 450
#     4  10  23  42  74 116 158 198 242 303 380 466
#
# _framework density 26.293084
#
# number of rings (size 3 to 8) (size 9 to 14) (size 15 to 20)
#    0.000    1.714    0.000    3.429   12.000    3.429 
#    0.000    0.000    0.000    0.000    0.000    0.000 
#    0.000    0.000    0.000    0.000    0.000    0.000 
#
# Total GULP energy -156759.769692 kJ/mol
# GULP energy per Si atom -5598.563203 kJ/mol
# Density = 2.623324 g / cm^3
# Si number density = 26.293084 Si / 1000 Ang^3
#
#
#
# Elastic Constant Matrix: (Units=GPa)
#
#
# Indices 1 2 3 4 5 6 
#
# 1 194.6371 -29.6302 37.8745 0.0000 0.0000 18.6282
# 2 -29.6302 194.6371 37.8745 0.0000 0.0000 -18.6282
# 3 37.8745 37.8745 100.2528 0.0000 0.0000 0.0000
# 4 0.0000 0.0000 0.0000 -4.7702 0.0000 0.0000
# 5 0.0000 0.0000 0.0000 0.0000 -4.7702 0.0000
# 6 18.6282 -18.6282 0.0000 0.0000 0.0000 48.8908
#
#
#
# Elastic Compliance Matrix: (Units=1/GPa)
#
#
# Indices 1 2 3 4 5 6 
#
# 1 0.006046 0.001286 -0.002770 0.000000 0.000000 -0.001814
# 2 0.001286 0.006046 -0.002770 0.000000 0.000000 0.001814
# 3 -0.002770 -0.002770 0.012068 0.000000 0.000000 0.000000
# 4 0.000000 0.000000 0.000000 -0.209637 0.000000 0.000000
# 5 0.000000 0.000000 0.000000 0.000000 -0.209637 0.000000
# 6 -0.001814 0.001814 0.000000 0.000000 0.000000 0.021836
#
#
# Mechanical properties :
#
#
# Convention : Reuss Voigt Hill
#
# Bulk Modulus (GPa) = 63.89027 64.64050 64.26538
# Shear Modulus (GPa) = -13.90617 37.43064 11.76224
#
# Velocity S-wave (km/s) = -2.30226 3.77715 2.11736
# Velocity P-wave (km/s) = 4.15750 6.60760 5.52020
#
# Compressibility (1/GPa) = 0.01565184
#
# Stress axis : x y z
#
# Youngs Moduli (GPa) = 165.39584 165.39584 82.86593
#
# Poissons Ratio (x) = -0.21267 0.22953
# Poissons Ratio (y) = -0.21267 0.22953
# Poissons Ratio (z) = 0.45813 0.45813
#
# Static dielectric constant tensor:
#      x y z
#    x 2.016800 0.000000 0.000000 
#    y 0.000000 2.016800 0.000000 
#    z 0.000000 0.000000 2.164900 
# 
# From -- ./inp_files/1382.got.cif
#   From: 2010.05.17/outbox.cif.g08.bks.cpg/sg85_cif.got.tgz:1382.got - 2010.06.03 19:01:16.
