data_PCOD9544623
_publ_section_title
;
Structure prediction by ZEFSAII (Michael W. Deem and Ramdas Pophale) SiO2 
 PCOD9544623
Probable space group: P 4/N
;
_chemical_formula_sum "Si O2"
_cell_formula_units_Z 60
_cell_length_a 14.202190
_cell_length_b 14.202190
_cell_length_c 13.221749
_cell_angle_alpha 90.000000
_cell_angle_beta 90.000000
_cell_angle_gamma 90.000000
_cell_volume 2666.855872
_symmetry_space_group_name_H-M "P 4/N"
_symmetry_group_IT_number 85
_symmetry_cell_setting 'tetragonal'
loop_
_space_group_symop_operation_xyz
x,y,z
1/2-y,x,z
1/2-x,1/2-y,z
y,1/2-x,z
-x,-y,-z
1/2+y,-x,-z
1/2+x,1/2+y,-z
-y,1/2+x,-z
loop_
_atom_site_type_symbol
_atom_site_label
_atom_site_fract_x
_atom_site_fract_y
_atom_site_fract_z
Si Si1 0.706276 0.898453 0.107439
Si Si2 0.431574 0.021052 0.759751
Si Si3 0.150290 0.528697 0.435411
Si Si4 0.376182 0.914804 0.213896
Si Si5 0.215313 0.400603 0.133929
Si Si6 0.641880 0.865281 0.432886
Si Si7 0.750000 0.250000 0.244248
Si Si8 0.587861 0.150283 0.372743
O O1 0.638262 0.809877 0.133771
O O2 0.660975 0.983160 0.169530
O O3 0.707803 0.912844 0.987351
O O4 0.519326 0.061329 0.823854
O O5 0.401778 0.087103 0.665978
O O6 0.456134 0.921522 0.708305
O O7 0.109188 0.576294 0.335146
O O8 0.112546 0.426109 0.468442
O O9 0.261557 0.527892 0.411805
O O10 0.126031 0.593036 0.531104
O O11 0.324884 0.817424 0.187368
O O12 0.309193 0.001406 0.184693
O O13 0.141103 0.317785 0.159826
O O14 0.622444 0.755004 0.430583
O O15 0.677813 0.194147 0.315464
#
# Coordination Sequence:
#
# PCOD9544623 Si02
#       8
#     8   8   8   8   8   8   4   8
#     4   9  19  40  68  95 122 159 206 264 331 392
#     4  11  24  35  64  94 124 164 218 269 323 393
#     4  10  22  37  61  81 120 166 216 259 316 377
#     4  11  25  38  64  94 131 171 220 267 330 399
#     4   9  21  43  70  96 124 162 215 276 334 402
#     4  10  23  37  55  87 126 161 204 268 329 372
#     4  10  24  43  62  89 128 180 222 273 328 395
#     4  10  22  39  61  87 119 173 228 265 312 388
#
# _framework density 22.498404000000001
#
# number of rings (size 3 to 8) (size 9 to 14) (size 15 to 20)
#    0.000    2.000    0.000    3.200   13.067    3.200 
#    0.000    1.333    0.000    0.800    0.000    0.000 
#    0.000    0.000    0.000    0.000    0.000    0.000 
#
# Total GULP energy -335254.384417 kJ/mol
# GULP energy per Si atom -5587.573074 kJ/mol
# Density = 2.244720 g / cm^3
# Si number density = 22.498404 Si / 1000 Ang^3
#
#
#
# Elastic Constant Matrix: (Units=GPa)
#
#
# Indices 1 2 3 4 5 6 
#
# 1 93.9050 28.5485 15.9659 0.0000 0.0000 -5.7918
# 2 28.5485 93.9050 15.9659 0.0000 0.0000 5.7918
# 3 15.9659 15.9659 30.2536 0.0000 0.0000 0.0000
# 4 0.0000 0.0000 0.0000 18.2220 0.0000 0.0000
# 5 0.0000 0.0000 0.0000 0.0000 18.2220 0.0000
# 6 -5.7918 5.7918 0.0000 0.0000 0.0000 33.5519
#
#
#
# Elastic Compliance Matrix: (Units=1/GPa)
#
#
# Indices 1 2 3 4 5 6 
#
# 1 0.012627 -0.003157 -0.004997 0.000000 0.000000 0.002725
# 2 -0.003157 0.012627 -0.004997 0.000000 0.000000 -0.002725
# 3 -0.004997 -0.004997 0.038329 0.000000 0.000000 0.000000
# 4 0.000000 0.000000 0.000000 0.054879 0.000000 0.000000
# 5 0.000000 0.000000 0.000000 0.000000 0.054879 0.000000
# 6 0.002725 -0.002725 0.000000 0.000000 0.000000 0.030745
#
#
# Mechanical properties :
#
#
# Convention : Reuss Voigt Hill
#
# Bulk Modulus (GPa) = 26.82547 37.66934 32.24741
# Shear Modulus (GPa) = 20.59189 24.50473 22.54831
#
# Velocity S-wave (km/s) = 3.02861 3.30385 3.16922
# Velocity P-wave (km/s) = 4.91723 5.59762 5.26842
#
# Compressibility (1/GPa) = 0.03727800
#
# Stress axis : x y z
#
# Youngs Moduli (GPa) = 79.19813 79.19813 26.09019
#
# Poissons Ratio (x) = 0.25003 0.13038
# Poissons Ratio (y) = 0.25003 0.13038
# Poissons Ratio (z) = 0.39579 0.39579
#
# Static dielectric constant tensor:
#      x y z
#    x 1.860310 0.000000 0.000000 
#    y 0.000000 1.860310 0.000000 
#    z 0.000000 0.000000 1.812030 
# 
# From -- ./inp_files/2029.got.cif
#   From: 2010.05.17/outbox.cif.g08.bks.cpg/sg85_cif.got.tgz:2029.got - 2010.06.03 19:01:16.
