data_PCOD9544588
_publ_section_title
;
Structure prediction by ZEFSAII (Michael W. Deem and Ramdas Pophale) SiO2 
 PCOD9544588
Probable space group: P 4/N
;
_chemical_formula_sum "Si O2"
_cell_formula_units_Z 40
_cell_length_a 17.060969
_cell_length_b 17.060969
_cell_length_c 5.007012
_cell_angle_alpha 90.000000
_cell_angle_beta 90.000000
_cell_angle_gamma 90.000000
_cell_volume 1457.424346
_symmetry_space_group_name_H-M "P 4/N"
_symmetry_group_IT_number 85
_symmetry_cell_setting 'tetragonal'
loop_
_space_group_symop_operation_xyz
x,y,z
1/2-y,x,z
1/2-x,1/2-y,z
y,1/2-x,z
-x,-y,-z
1/2+y,-x,-z
1/2+x,1/2+y,-z
-y,1/2+x,-z
loop_
_atom_site_type_symbol
_atom_site_label
_atom_site_fract_x
_atom_site_fract_y
_atom_site_fract_z
Si Si1 0.498047 0.644239 0.437147
Si Si2 0.342647 0.334932 0.367644
Si Si3 0.694341 0.548458 0.231524
Si Si4 0.763297 0.351767 0.630656
Si Si5 0.129210 0.958281 0.251696
O O1 0.569995 0.629451 0.636307
O O2 0.526872 0.714216 0.243207
O O3 0.426196 0.681018 0.602118
O O4 0.458947 0.572561 0.280839
O O5 0.254631 0.355205 0.270560
O O6 0.322435 0.362489 0.677725
O O7 0.657795 0.496380 0.471775
O O8 0.649909 0.520492 0.972748
O O9 0.823012 0.278302 0.651911
O O10 0.688556 0.384123 0.791891
#
# Coordination Sequence:
#
# PCOD9544588 Si02
#       5
#     8   8   8   8   8
#     4   9  19  35  61  89 121 158 200 243 290 348
#     4   9  19  40  64  86 115 154 201 252 303 354
#     4  10  22  39  60  88 121 158 197 240 296 354
#     4   8  15  31  55  87 127 165 196 232 285 350
#     4  10  21  37  60  91 124 156 194 241 292 352
#
# _framework density 27.445678000000001
#
# number of rings (size 3 to 8) (size 9 to 14) (size 15 to 20)
#    0.000    2.800    0.000    0.000    0.000    8.000 
#    0.000   12.000    0.000   21.600    0.000    0.000 
#    0.000    0.000    0.000    0.000    0.000    0.000 
#
# Total GULP energy -222830.246277 kJ/mol
# GULP energy per Si atom -5570.756157 kJ/mol
# Density = 2.738321 g / cm^3
# Si number density = 27.445678 Si / 1000 Ang^3
#
#
#
# Elastic Constant Matrix: (Units=GPa)
#
#
# Indices 1 2 3 4 5 6 
#
# 1 116.1000 26.5725 22.4699 0.0000 0.0000 1.4873
# 2 26.5725 116.1000 22.4699 0.0000 0.0000 -1.4873
# 3 22.4699 22.4699 93.5922 0.0000 0.0000 0.0000
# 4 0.0000 0.0000 0.0000 17.2920 0.0000 0.0000
# 5 0.0000 0.0000 0.0000 0.0000 17.2920 0.0000
# 6 1.4873 -1.4873 0.0000 0.0000 0.0000 69.5345
#
#
#
# Elastic Compliance Matrix: (Units=1/GPa)
#
#
# Indices 1 2 3 4 5 6 
#
# 1 0.009380 -0.001798 -0.001820 0.000000 0.000000 -0.000239
# 2 -0.001798 0.009380 -0.001820 0.000000 0.000000 0.000239
# 3 -0.001820 -0.001820 0.011559 0.000000 0.000000 0.000000
# 4 0.000000 0.000000 0.000000 0.057830 0.000000 0.000000
# 5 0.000000 0.000000 0.000000 0.000000 0.057830 0.000000
# 6 -0.000239 0.000239 0.000000 0.000000 0.000000 0.014392
#
#
# Mechanical properties :
#
#
# Convention : Reuss Voigt Hill
#
# Bulk Modulus (GPa) = 51.43503 52.09076 51.76289
# Shear Modulus (GPa) = 28.13282 37.77570 32.95426
#
# Velocity S-wave (km/s) = 3.20509 3.71399 3.46888
# Velocity P-wave (km/s) = 5.69896 6.11657 5.91145
#
# Compressibility (1/GPa) = 0.01944200
#
# Stress axis : x y z
#
# Youngs Moduli (GPa) = 106.60889 106.60889 86.51451
#
# Poissons Ratio (x) = 0.19164 0.15749
# Poissons Ratio (y) = 0.19164 0.15749
# Poissons Ratio (z) = 0.19407 0.19407
#
# Static dielectric constant tensor:
#      x y z
#    x 2.273230 0.000000 0.000000 
#    y 0.000000 2.273230 0.000000 
#    z 0.000000 0.000000 2.204640 
# 
# From -- ./inp_files/358.got.cif
#   From: 2010.05.17/outbox.cif.g08.bks.cpg/sg85_cif.got.tgz:358.got - 2010.06.03 19:01:16.
