data_PCOD9544630
_publ_section_title
;
Structure prediction by ZEFSAII (Michael W. Deem and Ramdas Pophale) SiO2 
 PCOD9544630
Probable space group: P 4/N
;
_chemical_formula_sum "Si O2"
_cell_formula_units_Z 26
_cell_length_a 10.266063
_cell_length_b 10.266063
_cell_length_c 9.688247
_cell_angle_alpha 90.000000
_cell_angle_beta 90.000000
_cell_angle_gamma 90.000000
_cell_volume 1021.064208
_symmetry_space_group_name_H-M "P 4/N"
_symmetry_group_IT_number 85
_symmetry_cell_setting 'tetragonal'
loop_
_space_group_symop_operation_xyz
x,y,z
1/2-y,x,z
1/2-x,1/2-y,z
y,1/2-x,z
-x,-y,-z
1/2+y,-x,-z
1/2+x,1/2+y,-z
-y,1/2+x,-z
loop_
_atom_site_type_symbol
_atom_site_label
_atom_site_fract_x
_atom_site_fract_y
_atom_site_fract_z
Si Si1 0.750000 0.250000 0.000000
Si Si2 0.372754 0.585241 0.542423
Si Si3 0.123408 0.985649 0.843584
Si Si4 0.852940 0.923098 0.861321
O O1 0.837841 0.155611 0.092581
O O2 0.500000 0.500000 0.500000
O O3 0.239346 0.587113 0.451551
O O4 0.327736 0.522475 0.688610
O O5 0.968672 0.021967 0.832074
O O6 0.164833 0.073279 0.972803
O O7 0.709139 0.918116 0.805999
#
# Coordination Sequence:
#
# PCOD9544630 Si02
#       4
#     2   8   8   8
#     4  12  20  40  66 100 124 192 208 298 364 404
#     4  11  28  49  73 105 146 202 249 297 353 446
#     4  11  24  40  70  93 143 171 234 278 364 416
#     4  10  22  38  62 104 130 168 216 294 344 412
#
# _framework density 25.463626000000001
#
# number of rings (size 3 to 8) (size 9 to 14) (size 15 to 20)
#    0.000    1.231    3.077    1.846    8.615    0.615 
#    0.000    0.000    0.000    0.000    0.000    0.000 
#    0.000    0.000    0.000    0.000    0.000    0.000 
#
# Total GULP energy -144738.576932 kJ/mol
# GULP energy per Si atom -5566.868344 kJ/mol
# Density = 2.540567 g / cm^3
# Si number density = 25.463626 Si / 1000 Ang^3
#
#
#
# Elastic Constant Matrix: (Units=GPa)
#
#
# Indices 1 2 3 4 5 6 
#
# 1 109.6666 19.0999 4.0414 0.0000 0.0000 15.2643
# 2 19.0999 109.6666 4.0414 0.0000 0.0000 -15.2643
# 3 4.0414 4.0414 114.0103 0.0000 0.0000 0.0000
# 4 0.0000 0.0000 0.0000 16.4540 0.0000 0.0000
# 5 0.0000 0.0000 0.0000 0.0000 16.4540 0.0000
# 6 15.2643 -15.2643 0.0000 0.0000 0.0000 37.4872
#
#
#
# Elastic Compliance Matrix: (Units=1/GPa)
#
#
# Indices 1 2 3 4 5 6 
#
# 1 0.010291 -0.002507 -0.000276 0.000000 0.000000 -0.005211
# 2 -0.002507 0.010291 -0.000276 0.000000 0.000000 0.005211
# 3 -0.000276 -0.000276 0.008791 0.000000 0.000000 0.000000
# 4 0.000000 0.000000 0.000000 0.060775 0.000000 0.000000
# 5 0.000000 0.000000 0.000000 0.000000 0.060775 0.000000
# 6 -0.005211 0.005211 0.000000 0.000000 0.000000 0.030920
#
#
# Mechanical properties :
#
#
# Convention : Reuss Voigt Hill
#
# Bulk Modulus (GPa) = 43.00386 43.07876 43.04131
# Shear Modulus (GPa) = 25.54768 34.48976 30.01872
#
# Velocity S-wave (km/s) = 3.17093 3.68431 3.43722
# Velocity P-wave (km/s) = 5.50739 5.92058 5.71772
#
# Compressibility (1/GPa) = 0.02325372
#
# Stress axis : x y z
#
# Youngs Moduli (GPa) = 97.17440 97.17440 113.75665
#
# Poissons Ratio (x) = 0.24366 0.03139
# Poissons Ratio (y) = 0.24366 0.03139
# Poissons Ratio (z) = 0.02681 0.02681
#
# Static dielectric constant tensor:
#      x y z
#    x 2.062000 0.000000 0.000000 
#    y 0.000000 2.062000 0.000000 
#    z 0.000000 0.000000 2.028310 
# 
# From -- ./inp_files/676.got.cif
#   From: 2010.05.17/outbox.cif.g08.bks.cpg/sg85_cif.got.tgz:676.got - 2010.06.03 19:01:16.
