data_PCOD9544545
_publ_section_title
;
Structure prediction by ZEFSAII (Michael W. Deem and Ramdas Pophale) SiO2 
 PCOD9544545
Probable space group: P 4/N
;
_chemical_formula_sum "Si O2"
_cell_formula_units_Z 58
_cell_length_a 17.714812
_cell_length_b 17.714812
_cell_length_c 9.182147
_cell_angle_alpha 90.000000
_cell_angle_beta 90.000000
_cell_angle_gamma 90.000000
_cell_volume 2881.491459
_symmetry_space_group_name_H-M "P 4/N"
_symmetry_group_IT_number 85
_symmetry_cell_setting 'tetragonal'
loop_
_space_group_symop_operation_xyz
x,y,z
1/2-y,x,z
1/2-x,1/2-y,z
y,1/2-x,z
-x,-y,-z
1/2+y,-x,-z
1/2+x,1/2+y,-z
-y,1/2+x,-z
loop_
_atom_site_type_symbol
_atom_site_label
_atom_site_fract_x
_atom_site_fract_y
_atom_site_fract_z
Si Si1 0.289285 0.629800 0.971072
Si Si2 0.234906 0.629127 0.467618
Si Si3 0.696723 0.898136 0.628370
Si Si4 0.530606 0.205155 0.238079
Si Si5 0.750000 0.750000 0.741885
Si Si6 0.523824 0.914694 0.533414
Si Si7 0.247616 0.372294 0.699185
Si Si8 0.788689 0.029308 0.304526
O O1 0.300876 0.595675 0.810179
O O2 0.202529 0.659025 0.989981
O O3 0.307211 0.558548 0.075692
O O4 0.169527 0.688370 0.481679
O O5 0.251356 0.602097 0.307488
O O6 0.228791 0.558600 0.574762
O O7 0.693273 0.822613 0.724017
O O8 0.612618 0.916849 0.572618
O O9 0.742656 0.881081 0.477539
O O10 0.738903 0.962134 0.721460
O O11 0.515809 0.128623 0.330226
O O12 0.500099 0.861778 0.395180
O O13 0.500000 0.000000 0.500000
O O14 0.176200 0.321262 0.738226
O O15 0.252914 0.454626 0.765992
#
# Coordination Sequence:
#
# PCOD9544545 Si02
#       8
#     8   8   8   8   2   8   8   8
#     4  11  26  47  66  86 126 182 227 260 313 397
#     4  10  20  34  57  86 114 152 211 272 319 374
#     4  12  19  36  65  97 130 166 209 274 328 399
#     4  11  23  39  62  94 124 169 215 264 327 388
#     4  12  16  36  64  92 122 164 212 248 322 400
#     4  11  25  38  63 102 134 159 211 283 350 398
#     4  11  18  35  64  95 125 158 209 263 326 390
#     4  11  22  39  62  92 124 167 211 269 329 384
#
# _framework density 20.128464999999998
#
# number of rings (size 3 to 8) (size 9 to 14) (size 15 to 20)
#    0.000    0.966    6.897    1.655    5.793    3.310 
#    0.000    2.069    0.000    0.000    0.000    0.000 
#    0.000    0.000    0.000    0.000    0.000    0.000 
#
# Total GULP energy -323071.700982 kJ/mol
# GULP energy per Si atom -5570.201741 kJ/mol
# Density = 2.008265 g / cm^3
# Si number density = 20.128465 Si / 1000 Ang^3
#
#
#
# Elastic Constant Matrix: (Units=GPa)
#
#
# Indices 1 2 3 4 5 6 
#
# 1 99.3917 51.3815 19.8482 0.0000 0.0000 6.2007
# 2 51.3815 99.3917 19.8482 0.0000 0.0000 -6.2007
# 3 19.8482 19.8482 67.7121 0.0000 0.0000 0.0000
# 4 0.0000 0.0000 0.0000 21.2589 0.0000 0.0000
# 5 0.0000 0.0000 0.0000 0.0000 21.2589 0.0000
# 6 6.2007 -6.2007 0.0000 0.0000 0.0000 4.8416
#
#
#
# Elastic Compliance Matrix: (Units=1/GPa)
#
#
# Indices 1 2 3 4 5 6 
#
# 1 0.019157 -0.011969 -0.002107 0.000000 0.000000 -0.039863
# 2 -0.011969 0.019157 -0.002107 0.000000 0.000000 0.039863
# 3 -0.002107 -0.002107 0.016004 0.000000 0.000000 0.000000
# 4 0.000000 0.000000 0.000000 0.047039 0.000000 0.000000
# 5 0.000000 0.000000 0.000000 0.000000 0.047039 0.000000
# 6 -0.039863 0.039863 0.000000 0.000000 0.000000 0.308649
#
#
# Mechanical properties :
#
#
# Convention : Reuss Voigt Hill
#
# Bulk Modulus (GPa) = 45.55639 49.85015 47.70327
# Shear Modulus (GPa) = 10.06590 21.16636 15.61613
#
# Velocity S-wave (km/s) = 2.23868 3.24630 2.78838
# Velocity P-wave (km/s) = 5.41887 6.23467 5.84103
#
# Compressibility (1/GPa) = 0.02195082
#
# Stress axis : x y z
#
# Youngs Moduli (GPa) = 52.20140 52.20140 62.48633
#
# Poissons Ratio (x) = 0.62482 0.13164
# Poissons Ratio (y) = 0.62482 0.13164
# Poissons Ratio (z) = 0.10998 0.10998
#
# Static dielectric constant tensor:
#      x y z
#    x 1.743740 0.000000 0.000000 
#    y 0.000000 1.743740 0.000000 
#    z 0.000000 0.000000 1.733380 
# 
# From -- ./inp_files/1208.got.cif
#   From: 2010.05.17/outbox.cif.g08.bks.cpg/sg85_cif.got.tgz:1208.got - 2010.06.03 19:01:16.
