data_PCOD9544172
_publ_section_title
;
Structure prediction by ZEFSAII (Michael W. Deem and Ramdas Pophale) SiO2 
 PCOD9544172
Probable space group: P 42/M
;
_chemical_formula_sum "Si O2"
_cell_formula_units_Z 40
_cell_length_a 15.621585
_cell_length_b 15.621585
_cell_length_c 9.066352
_cell_angle_alpha 90.000000
_cell_angle_beta 90.000000
_cell_angle_gamma 90.000000
_cell_volume 2212.497400
_symmetry_space_group_name_H-M "P 42/M"
_symmetry_group_IT_number 84
_symmetry_cell_setting 'tetragonal'
loop_
_space_group_symop_operation_xyz
x,y,z
-y,x,1/2+z
-x,-y,z
y,-x,1/2+z
-x,-y,-z
y,-x,1/2-z
x,y,-z
-y,x,1/2-z
loop_
_atom_site_type_symbol
_atom_site_label
_atom_site_fract_x
_atom_site_fract_y
_atom_site_fract_z
Si Si1 0.802409 0.840339 0.822145
Si Si2 0.689436 0.330460 0.677854
Si Si3 0.436161 0.920536 0.328911
Si Si4 0.521908 0.253616 0.175855
Si Si5 0.019946 0.244869 0.822909
O O1 0.736238 0.764688 0.777800
O O2 0.899127 0.813868 0.780606
O O3 0.778091 0.931147 0.753580
O O4 0.798586 0.845639 0.000000
O O5 0.682572 0.325440 0.500000
O O6 0.714105 0.427397 0.718688
O O7 0.599635 0.304223 0.748830
O O8 0.432320 0.890397 0.500000
O O9 0.467521 0.843891 0.227853
O O10 0.341734 0.952028 0.287643
O O11 0.500000 0.000000 0.321287
O O12 0.529261 0.260119 0.000000
O O13 0.009124 0.239539 0.000000
#
# Coordination Sequence:
#
# PCOD9544172 Si02
#       5
#     8   8   8   8   8
#     4  10  21  39  60  82 117 159 193 242 301 348
#     4  10  22  42  61  83 123 161 194 244 304 358
#     4  10  20  37  61  87 119 157 195 244 302 355
#     4  11  23  37  61  91 117 156 203 248 295 350
#     4  10  21  37  58  85 116 155 198 239 294 353
#
# _framework density 18.079118000000001
#
# number of rings (size 3 to 8) (size 9 to 14) (size 15 to 20)
#    0.000    1.800    2.000    1.800    0.000    5.200 
#    0.000    4.000    0.000    0.000    0.000    0.000 
#    0.000    0.000    0.000    0.000    0.000    0.000 
#
# Total GULP energy -223421.726026 kJ/mol
# GULP energy per Si atom -5585.543151 kJ/mol
# Density = 1.803797 g / cm^3
# Si number density = 18.079118 Si / 1000 Ang^3
#
#
#
# Elastic Constant Matrix: (Units=GPa)
#
#
# Indices 1 2 3 4 5 6 
#
# 1 143.4826 66.1266 39.5452 0.0000 0.0000 3.4591
# 2 66.1266 143.4826 39.5452 0.0000 0.0000 -3.4591
# 3 39.5452 39.5452 20.5721 0.0000 0.0000 0.0000
# 4 0.0000 0.0000 0.0000 31.6654 0.0000 0.0000
# 5 0.0000 0.0000 0.0000 0.0000 31.6654 0.0000
# 6 3.4591 -3.4591 0.0000 0.0000 0.0000 29.6514
#
#
#
# Elastic Compliance Matrix: (Units=1/GPa)
#
#
# Indices 1 2 3 4 5 6 
#
# 1 0.015216 0.002152 -0.033387 0.000000 0.000000 -0.001524
# 2 0.002152 0.015216 -0.033387 0.000000 0.000000 0.001524
# 3 -0.033387 -0.033387 0.176965 0.000000 0.000000 0.000000
# 4 0.000000 0.000000 0.000000 0.031580 0.000000 0.000000
# 5 0.000000 0.000000 0.000000 0.000000 0.031580 0.000000
# 6 -0.001524 0.001524 0.000000 0.000000 0.000000 0.034081
#
#
# Mechanical properties :
#
#
# Convention : Reuss Voigt Hill
#
# Bulk Modulus (GPa) = 12.79495 66.44126 39.61811
# Shear Modulus (GPa) = 10.87118 29.41781 20.14450
#
# Velocity S-wave (km/s) = 2.45483 4.03820 3.34165
# Velocity P-wave (km/s) = 3.88940 7.65328 6.07043
#
# Compressibility (1/GPa) = 0.07815582
#
# Stress axis : x y z
#
# Youngs Moduli (GPa) = 65.72072 65.72072 5.65082
#
# Poissons Ratio (x) = -0.14145 0.18866
# Poissons Ratio (y) = -0.14145 0.18866
# Poissons Ratio (z) = 2.19419 2.19419
#
# Static dielectric constant tensor:
#      x y z
#    x 1.599610 0.000000 0.000000 
#    y 0.000000 1.599610 0.000000 
#    z 0.000000 0.000000 1.610980 
# 
# From -- ./inp_files/747.got.cif
#   From: 2010.05.17/outbox.cif.g08.bks.cpg/sg84_1_cif.got.tgz:747.got - 2010.06.03 18:57:40.
