data_PCOD9544980
_publ_section_title
;
Structure prediction by ZEFSAII (Michael W. Deem and Ramdas Pophale) SiO2 
 PCOD9544980
Probable space group: P 42/N
;
_chemical_formula_sum "Si O2"
_cell_formula_units_Z 64
_cell_length_a 28.131190
_cell_length_b 28.131190
_cell_length_c 5.415100
_cell_angle_alpha 90.000000
_cell_angle_beta 90.000000
_cell_angle_gamma 90.000000
_cell_volume 4285.314389
_symmetry_space_group_name_H-M "P 42/N"
_symmetry_group_IT_number 86
_space_group.IT_coordinate_system_code '2'
_symmetry_cell_setting 'tetragonal'
loop_
_space_group_symop_operation_xyz
x,y,z
-y,1/2+x,1/2+z
1/2-x,1/2-y,z
1/2+y,-x,1/2+z
-x,-y,-z
y,1/2-x,1/2-z
1/2+x,1/2+y,-z
1/2-y,x,1/2-z
loop_
_atom_site_type_symbol
_atom_site_label
_atom_site_fract_x
_atom_site_fract_y
_atom_site_fract_z
Si Si1 0.570290 0.628024 0.190108
Si Si2 0.662475 0.851994 0.697145
Si Si3 0.758984 0.678375 0.321038
Si Si4 0.720232 0.913119 0.067200
Si Si5 0.691597 0.563558 0.804534
Si Si6 0.969621 0.446079 0.771944
Si Si7 0.559147 0.016912 0.275190
Si Si8 0.456028 0.136910 0.818736
O O1 0.557711 0.680757 0.286305
O O2 0.522168 0.598698 0.157065
O O3 0.603544 0.591261 0.348598
O O4 0.604590 0.639362 0.959859
O O5 0.704806 0.827688 0.545465
O O6 0.686052 0.876971 0.926005
O O7 0.620034 0.815672 0.739019
O O8 0.711847 0.709169 0.361718
O O9 0.749114 0.624407 0.230857
O O10 0.753764 0.941765 0.883972
O O11 0.672418 0.541099 0.551515
O O12 0.662144 0.548540 0.050707
O O13 0.944921 0.447252 0.504757
O O14 0.009807 0.487348 0.748820
O O15 0.999074 0.398155 0.817528
O O16 0.936699 0.458820 0.006386
#
# Coordination Sequence:
#
# PCOD9544980 Si02
#       8
#     8   8   8   8   8   8   8   8
#     4   9  20  31  45  63  88 108 135 173 224 274
#     4  10  21  31  44  57  81 108 146 179 230 272
#     4  10  21  33  43  56  75 101 144 197 242 272
#     4  11  22  31  45  59  81 114 146 186 225 279
#     4  11  22  34  48  61  83 111 146 180 221 269
#     4   9  17  29  48  68  87 103 128 159 208 272
#     4   9  17  28  47  69  88 104 125 159 211 273
#     4  10  20  35  49  65  84 110 136 175 219 269
#
# _framework density 14.934728
#
# number of rings (size 3 to 8) (size 9 to 14) (size 15 to 20)
#    0.000    2.125    2.500    0.750    7.000    3.000 
#    0.000    1.250    0.000    0.000    0.000    0.000 
#    0.000    0.000    0.000    0.000    0.000    0.000 
#
# Total GULP energy -356445.732843 kJ/mol
# GULP energy per Si atom -5569.464576 kJ/mol
# Density = 1.490074 g / cm^3
# Si number density = 14.934728 Si / 1000 Ang^3
#
#
#
# Elastic Constant Matrix: (Units=GPa)
#
#
# Indices 1 2 3 4 5 6 
#
# 1 33.0253 23.0549 17.8277 0.0000 0.0000 -2.3941
# 2 23.0549 33.0253 17.8277 0.0000 0.0000 2.3941
# 3 17.8277 17.8277 67.2577 0.0000 0.0000 0.0000
# 4 0.0000 0.0000 0.0000 11.2713 0.0000 0.0000
# 5 0.0000 0.0000 0.0000 0.0000 11.2713 0.0000
# 6 -2.3941 2.3941 0.0000 0.0000 0.0000 17.8044
#
#
#
# Elastic Compliance Matrix: (Units=1/GPa)
#
#
# Indices 1 2 3 4 5 6 
#
# 1 0.064333 -0.042887 -0.005685 0.000000 0.000000 0.014418
# 2 -0.042887 0.064333 -0.005685 0.000000 0.000000 -0.014418
# 3 -0.005685 -0.005685 0.017882 0.000000 0.000000 0.000000
# 4 0.000000 0.000000 0.000000 0.088721 0.000000 0.000000
# 5 0.000000 0.000000 0.000000 0.000000 0.088721 0.000000
# 6 0.014418 -0.014418 0.000000 0.000000 0.000000 0.060043
#
#
# Mechanical properties :
#
#
# Convention : Reuss Voigt Hill
#
# Bulk Modulus (GPa) = 26.29144 27.85875 27.07510
# Shear Modulus (GPa) = 9.89660 13.04262 11.46961
#
# Velocity S-wave (km/s) = 2.57700 2.95838 2.77426
# Velocity P-wave (km/s) = 5.14753 5.51031 5.33201
#
# Compressibility (1/GPa) = 0.03803519
#
# Stress axis : x y z
#
# Youngs Moduli (GPa) = 15.54408 15.54408 55.92303
#
# Poissons Ratio (x) = 0.66664 0.31790
# Poissons Ratio (y) = 0.66664 0.31790
# Poissons Ratio (z) = 0.08836 0.08836
#
# Static dielectric constant tensor:
#      x y z
#    x 1.514200 0.000000 0.000000 
#    y 0.000000 1.514200 0.000000 
#    z 0.000000 0.000000 1.601320 
# 
# From -- ./inp_files/556.got.cif
#   From: 2010.05.17/outbox.cif.g08.bks.cpg/sg86_1_cif.got.tgz:556.got - 2010.06.03 19:03:11.
