data_PCOD9544568
_publ_section_title
;
Structure prediction by ZEFSAII (Michael W. Deem and Ramdas Pophale) SiO2 
 PCOD9544568
Probable space group: P 4/N
;
_chemical_formula_sum "Si O2"
_cell_formula_units_Z 48
_cell_length_a 10.628827
_cell_length_b 10.628827
_cell_length_c 20.350195
_cell_angle_alpha 90.000000
_cell_angle_beta 90.000000
_cell_angle_gamma 90.000000
_cell_volume 2299.001485
_symmetry_space_group_name_H-M "P 4/N"
_symmetry_group_IT_number 85
_symmetry_cell_setting 'tetragonal'
loop_
_space_group_symop_operation_xyz
x,y,z
1/2-y,x,z
1/2-x,1/2-y,z
y,1/2-x,z
-x,-y,-z
1/2+y,-x,-z
1/2+x,1/2+y,-z
-y,1/2+x,-z
loop_
_atom_site_type_symbol
_atom_site_label
_atom_site_fract_x
_atom_site_fract_y
_atom_site_fract_z
Si Si1 0.107645 0.707165 0.335961
Si Si2 0.703744 0.956196 0.455399
Si Si3 0.265804 0.903160 0.811868
Si Si4 0.851970 0.569576 0.983453
Si Si5 0.971734 0.983940 0.117440
Si Si6 0.950335 0.825568 0.602127
O O1 0.250000 0.750000 0.335249
O O2 0.059172 0.733995 0.263046
O O3 0.116152 0.558698 0.352755
O O4 0.043177 0.791633 0.392263
O O5 0.606927 0.841296 0.452431
O O6 0.675791 0.008769 0.527920
O O7 0.250000 0.750000 0.819907
O O8 0.167374 0.985659 0.855511
O O9 0.406920 0.946757 0.830240
O O10 0.915220 0.705031 0.987920
O O11 0.883256 0.514978 0.912186
O O12 0.902596 0.507772 0.050220
O O13 0.820523 0.905262 0.609764
#
# Coordination Sequence:
#
# PCOD9544568 Si02
#       6
#     8   8   8   8   8   8
#     4  11  26  37  61  91 125 165 218 265 317 400
#     4   9  21  39  60  90 122 158 207 266 332 390
#     4  11  26  44  60  94 134 176 223 255 328 398
#     4  10  20  38  65 101 126 159 224 264 314 377
#     4  11  22  41  66  91 134 178 203 273 322 377
#     4   9  21  41  64  89 122 163 215 277 332 380
#
# _framework density 20.878630999999999
#
# number of rings (size 3 to 8) (size 9 to 14) (size 15 to 20)
#    0.000    1.833    1.667    2.000    7.000    3.000 
#    0.000    0.000    0.000    2.000    0.000    0.000 
#    0.000    0.000    0.000    0.000    0.000    0.000 
#
# Total GULP energy -267433.165739 kJ/mol
# GULP energy per Si atom -5571.524286 kJ/mol
# Density = 2.083111 g / cm^3
# Si number density = 20.878631 Si / 1000 Ang^3
#
#
#
# Elastic Constant Matrix: (Units=GPa)
#
#
# Indices 1 2 3 4 5 6 
#
# 1 32.9296 18.4109 31.8509 0.0000 0.0000 -1.6896
# 2 18.4109 32.9296 31.8509 0.0000 0.0000 1.6896
# 3 31.8509 31.8509 125.5269 0.0000 0.0000 0.0000
# 4 0.0000 0.0000 0.0000 20.6040 0.0000 0.0000
# 5 0.0000 0.0000 0.0000 0.0000 20.6040 0.0000
# 6 -1.6896 1.6896 0.0000 0.0000 0.0000 29.4313
#
#
#
# Elastic Compliance Matrix: (Units=1/GPa)
#
#
# Indices 1 2 3 4 5 6 
#
# 1 0.049119 -0.020691 -0.007213 0.000000 0.000000 0.004008
# 2 -0.020691 0.049119 -0.007213 0.000000 0.000000 -0.004008
# 3 -0.007213 -0.007213 0.011627 0.000000 0.000000 0.000000
# 4 0.000000 0.000000 0.000000 0.048534 0.000000 0.000000
# 5 0.000000 0.000000 0.000000 0.000000 0.048534 0.000000
# 6 0.004008 -0.004008 0.000000 0.000000 0.000000 0.034438
#
#
# Mechanical properties :
#
#
# Convention : Reuss Voigt Hill
#
# Bulk Modulus (GPa) = 25.23365 39.51242 32.37304
# Shear Modulus (GPa) = 15.39338 21.41274 18.40306
#
# Velocity S-wave (km/s) = 2.71823 3.20594 2.97211
# Velocity P-wave (km/s) = 4.68656 5.71577 5.22656
#
# Compressibility (1/GPa) = 0.03962962
#
# Stress axis : x y z
#
# Youngs Moduli (GPa) = 20.35886 20.35886 86.00717
#
# Poissons Ratio (x) = 0.42124 0.62039
# Poissons Ratio (y) = 0.42124 0.62039
# Poissons Ratio (z) = 0.14685 0.14685
#
# Static dielectric constant tensor:
#      x y z
#    x 1.787350 0.000000 0.000000 
#    y 0.000000 1.787350 0.000000 
#    z 0.000000 0.000000 1.844590 
# 
# From -- ./inp_files/2076.got.cif
#   From: 2010.05.17/outbox.cif.g08.bks.cpg/sg85_cif.got.tgz:2076.got - 2010.06.03 19:01:16.
