data_PCOD9544826
_publ_section_title
;
Structure prediction by ZEFSAII (Michael W. Deem and Ramdas Pophale) SiO2 
 PCOD9544826
Probable space group: P 4/N
;
_chemical_formula_sum "Si O2"
_cell_formula_units_Z 50
_cell_length_a 8.617055
_cell_length_b 8.617055
_cell_length_c 31.346538
_cell_angle_alpha 90.000000
_cell_angle_beta 90.000000
_cell_angle_gamma 90.000000
_cell_volume 2327.594450
_symmetry_space_group_name_H-M "P 4/N"
_symmetry_group_IT_number 85
_symmetry_cell_setting 'tetragonal'
loop_
_space_group_symop_operation_xyz
x,y,z
1/2-y,x,z
1/2-x,1/2-y,z
y,1/2-x,z
-x,-y,-z
1/2+y,-x,-z
1/2+x,1/2+y,-z
-y,1/2+x,-z
loop_
_atom_site_type_symbol
_atom_site_label
_atom_site_fract_x
_atom_site_fract_y
_atom_site_fract_z
Si Si1 0.474778 0.388922 0.864090
Si Si2 0.750000 0.750000 0.640647
Si Si3 0.080628 0.448980 0.543814
Si Si4 0.841576 0.088938 0.623461
Si Si5 0.989697 0.841423 0.289736
Si Si6 0.491099 0.153559 0.216147
Si Si7 0.078390 0.445634 0.956754
O O1 0.298002 0.453738 0.860139
O O2 0.595613 0.435520 0.827979
O O3 0.522442 0.455703 0.910785
O O4 0.557265 0.740303 0.639413
O O5 0.041162 0.267268 0.546383
O O6 0.031702 0.561669 0.582165
O O7 0.000000 0.500000 0.500000
O O8 0.750000 0.250000 0.613092
O O9 0.953035 0.136070 0.662296
O O10 0.835549 0.942492 0.282684
O O11 0.113169 0.899230 0.255587
O O12 0.443684 0.331736 0.218771
O O13 0.040669 0.263681 0.956777
O O14 0.000000 0.500000 0.000000
#
# Coordination Sequence:
#
# PCOD9544826 Si02
#       7
#     8   2   8   8   8   8   8
#     4   9  19  39  62  84 118 165 219 273 336 410
#     4  12  28  44  80 108 144 188 244 288 352 432
#     4  11  27  47  73 107 147 190 243 297 353 429
#     4  12  28  49  77 112 149 192 239 296 362 420
#     4  11  25  45  71 101 137 179 230 283 346 415
#     4  11  26  41  60  93 133 173 220 277 343 415
#     4   9  19  35  56  84 118 160 210 271 336 406
#
# _framework density 21.481406
#
# number of rings (size 3 to 8) (size 9 to 14) (size 15 to 20)
#    0.000    1.440    0.000    4.800    8.960    6.080 
#    0.000    4.800    0.000    0.000    0.000    0.000 
#    0.000    0.000    0.000    0.000    0.000    0.000 
#
# Total GULP energy -278820.691519 kJ/mol
# GULP energy per Si atom -5576.413830 kJ/mol
# Density = 2.143251 g / cm^3
# Si number density = 21.481406 Si / 1000 Ang^3
#
#
#
# Elastic Constant Matrix: (Units=GPa)
#
#
# Indices 1 2 3 4 5 6 
#
# 1 29.3503 24.7419 -0.0012 0.0000 0.0000 -4.8476
# 2 24.7419 29.3503 -0.0012 0.0000 0.0000 4.8476
# 3 -0.0012 -0.0012 102.0245 0.0000 0.0000 0.0000
# 4 0.0000 0.0000 0.0000 31.8969 0.0000 0.0000
# 5 0.0000 0.0000 0.0000 0.0000 31.8969 0.0000
# 6 -4.8476 4.8476 0.0000 0.0000 0.0000 18.5651
#
#
#
# Elastic Compliance Matrix: (Units=1/GPa)
#
#
# Indices 1 2 3 4 5 6 
#
# 1 0.249995 -0.231508 0.000000 0.000000 0.000000 0.125728
# 2 -0.231508 0.249995 0.000000 0.000000 0.000000 -0.125728
# 3 0.000000 0.000000 0.009802 0.000000 0.000000 0.000000
# 4 0.000000 0.000000 0.000000 0.031351 0.000000 0.000000
# 5 0.000000 0.000000 0.000000 0.000000 0.031351 0.000000
# 6 0.125728 -0.125728 0.000000 0.000000 0.000000 0.119524
#
#
# Mechanical properties :
#
#
# Convention : Reuss Voigt Hill
#
# Bulk Modulus (GPa) = 21.37835 23.35602 22.36718
# Shear Modulus (GPa) = 4.27123 25.53747 14.90435
#
# Velocity S-wave (km/s) = 1.41161 3.45166 2.63691
# Velocity P-wave (km/s) = 3.55394 5.17509 4.43915
#
# Compressibility (1/GPa) = 0.04677631
#
# Stress axis : x y z
#
# Youngs Moduli (GPa) = 4.00008 4.00008 102.02445
#
# Poissons Ratio (x) = 0.92605 -0.00002
# Poissons Ratio (y) = 0.92605 -0.00002
# Poissons Ratio (z) = 0.00000 0.00000
#
# Static dielectric constant tensor:
#      x y z
#    x 1.810550 0.000000 0.000000 
#    y 0.000000 1.810550 0.000000 
#    z 0.000000 0.000000 1.767870 
# 
# From -- ./inp_files/2462.got.cif
#   From: 2010.05.17/outbox.cif.g08.bks.cpg/sg85_cif.got.tgz:2462.got - 2010.06.03 19:01:16.
