data_PCOD9544824
_publ_section_title
;
Structure prediction by ZEFSAII (Michael W. Deem and Ramdas Pophale) SiO2 
 PCOD9544824
Probable space group: P 4/N
;
_chemical_formula_sum "Si O2"
_cell_formula_units_Z 36
_cell_length_a 13.672602
_cell_length_b 13.672602
_cell_length_c 8.223285
_cell_angle_alpha 90.000000
_cell_angle_beta 90.000000
_cell_angle_gamma 90.000000
_cell_volume 1537.261272
_symmetry_space_group_name_H-M "P 4/N"
_symmetry_group_IT_number 85
_symmetry_cell_setting 'tetragonal'
loop_
_space_group_symop_operation_xyz
x,y,z
1/2-y,x,z
1/2-x,1/2-y,z
y,1/2-x,z
-x,-y,-z
1/2+y,-x,-z
1/2+x,1/2+y,-z
-y,1/2+x,-z
loop_
_atom_site_type_symbol
_atom_site_label
_atom_site_fract_x
_atom_site_fract_y
_atom_site_fract_z
Si Si1 0.750000 0.250000 0.298535
Si Si2 0.429473 0.086564 0.622012
Si Si3 0.727820 0.457267 0.884364
Si Si4 0.085890 0.439514 0.266675
Si Si5 0.744436 0.039593 0.262116
O O1 0.853256 0.265995 0.205982
O O2 0.762961 0.138479 0.367870
O O3 0.400630 0.114801 0.438675
O O4 0.445427 0.187007 0.712788
O O5 0.534488 0.036491 0.659386
O O6 0.358966 0.004632 0.691509
O O7 0.816969 0.526053 0.824079
O O8 0.627585 0.515685 0.844550
O O9 0.741366 0.434762 0.073996
#
# Coordination Sequence:
#
# PCOD9544824 Si02
#       5
#     4   8   8   8   8
#     4  12  25  40  69 106 137 168 221 282 333 388
#     4  11  25  44  65  98 139 178 218 272 335 396
#     4  12  24  44  71 101 133 176 225 275 330 393
#     4  11  25  44  65  98 139 178 218 272 335 396
#     4  12  24  44  71 101 133 176 225 275 330 393
#
# _framework density 23.418271000000001
#
# number of rings (size 3 to 8) (size 9 to 14) (size 15 to 20)
#    0.000    0.444    4.444    4.667    0.000    2.667 
#    0.000    8.889    0.000    0.000    0.000    0.000 
#    0.000    0.000    0.000    0.000    0.000    0.000 
#
# Total GULP energy -200880.021544 kJ/mol
# GULP energy per Si atom -5580.000598 kJ/mol
# Density = 2.336497 g / cm^3
# Si number density = 23.418271 Si / 1000 Ang^3
#
#
#
# Elastic Constant Matrix: (Units=GPa)
#
#
# Indices 1 2 3 4 5 6 
#
# 1 89.3057 39.2209 7.1330 0.0000 0.0000 -6.1253
# 2 39.2209 89.3057 7.1330 0.0000 0.0000 6.1253
# 3 7.1330 7.1330 68.7842 0.0000 0.0000 0.0000
# 4 0.0000 0.0000 0.0000 22.2063 0.0000 0.0000
# 5 0.0000 0.0000 0.0000 0.0000 22.2063 0.0000
# 6 -6.1253 6.1253 0.0000 0.0000 0.0000 50.8492
#
#
#
# Elastic Compliance Matrix: (Units=1/GPa)
#
#
# Indices 1 2 3 4 5 6 
#
# 1 0.014222 -0.006351 -0.000816 0.000000 0.000000 0.002478
# 2 -0.006351 0.014222 -0.000816 0.000000 0.000000 -0.002478
# 3 -0.000816 -0.000816 0.014708 0.000000 0.000000 0.000000
# 4 0.000000 0.000000 0.000000 0.045032 0.000000 0.000000
# 5 0.000000 0.000000 0.000000 0.000000 0.045032 0.000000
# 6 0.002478 -0.002478 0.000000 0.000000 0.000000 0.020263
#
#
# Mechanical properties :
#
#
# Convention : Reuss Voigt Hill
#
# Bulk Modulus (GPa) = 36.78538 39.37439 38.07988
# Shear Modulus (GPa) = 28.01025 31.97961 29.99493
#
# Velocity S-wave (km/s) = 3.46220 3.69939 3.58276
# Velocity P-wave (km/s) = 5.63245 5.92430 5.78022
#
# Compressibility (1/GPa) = 0.02718472
#
# Stress axis : x y z
#
# Youngs Moduli (GPa) = 70.31507 70.31507 67.99247
#
# Poissons Ratio (x) = 0.44654 0.05550
# Poissons Ratio (y) = 0.44654 0.05550
# Poissons Ratio (z) = 0.05739 0.05739
#
# Static dielectric constant tensor:
#      x y z
#    x 1.976710 0.000000 0.000000 
#    y 0.000000 1.976710 0.000000 
#    z 0.000000 0.000000 1.990360 
# 
# From -- ./inp_files/831.got.cif
#   From: 2010.05.17/outbox.cif.g08.bks.cpg/sg85_cif.got.tgz:831.got - 2010.06.03 19:01:16.
