data_PCOD9544548
_publ_section_title
;
Structure prediction by ZEFSAII (Michael W. Deem and Ramdas Pophale) SiO2 
 PCOD9544548
Probable space group: P 4/N
;
_chemical_formula_sum "Si O2"
_cell_formula_units_Z 40
_cell_length_a 14.692320
_cell_length_b 14.692320
_cell_length_c 8.874648
_cell_angle_alpha 90.000000
_cell_angle_beta 90.000000
_cell_angle_gamma 90.000000
_cell_volume 1915.719385
_symmetry_space_group_name_H-M "P 4/N"
_symmetry_group_IT_number 85
_symmetry_cell_setting 'tetragonal'
loop_
_space_group_symop_operation_xyz
x,y,z
1/2-y,x,z
1/2-x,1/2-y,z
y,1/2-x,z
-x,-y,-z
1/2+y,-x,-z
1/2+x,1/2+y,-z
-y,1/2+x,-z
loop_
_atom_site_type_symbol
_atom_site_label
_atom_site_fract_x
_atom_site_fract_y
_atom_site_fract_z
Si Si1 0.848111 0.441178 0.631605
Si Si2 0.542278 0.243374 0.655091
Si Si3 0.844387 0.302087 0.169110
Si Si4 0.282998 0.493324 0.970306
Si Si5 0.583863 0.955733 0.908828
O O1 0.902197 0.346350 0.599170
O O2 0.803966 0.488775 0.485761
O O3 0.761208 0.407432 0.727614
O O4 0.908323 0.505389 0.739535
O O5 0.607631 0.314100 0.745095
O O6 0.479169 0.207105 0.791073
O O7 0.750000 0.250000 0.152470
O O8 0.903610 0.313290 0.017605
O O9 0.348398 0.431383 0.071074
O O10 0.178913 0.479751 0.013250
O O11 0.500000 0.000000 0.000000
#
# Coordination Sequence:
#
# PCOD9544548 Si02
#       5
#     8   8   8   8   8
#     4  10  20  35  59  92 142 168 217 275 358 425
#     4  11  19  34  57  97 132 175 215 283 354 419
#     4   9  20  31  55  92 125 165 206 267 353 417
#     4  11  24  40  64  88 131 176 233 277 335 407
#     4  11  23  45  64  95 131 177 230 287 335 428
#
# _framework density 20.879884000000001
#
# number of rings (size 3 to 8) (size 9 to 14) (size 15 to 20)
#    0.000    1.600    4.000    1.200    5.600    0.400 
#    0.000    8.000    0.000    0.000    0.000    5.600 
#    0.000    0.000    0.000    0.000    0.000    0.000 
#
# Total GULP energy -223157.737148 kJ/mol
# GULP energy per Si atom -5578.943429 kJ/mol
# Density = 2.083236 g / cm^3
# Si number density = 20.879884 Si / 1000 Ang^3
#
#
#
# Elastic Constant Matrix: (Units=GPa)
#
#
# Indices 1 2 3 4 5 6 
#
# 1 85.3635 28.5111 34.6971 0.0000 0.0000 -5.2879
# 2 28.5111 85.3635 34.6971 0.0000 0.0000 5.2879
# 3 34.6971 34.6971 137.6585 0.0000 0.0000 0.0000
# 4 0.0000 0.0000 0.0000 27.0995 0.0000 0.0000
# 5 0.0000 0.0000 0.0000 0.0000 27.0995 0.0000
# 6 -5.2879 5.2879 0.0000 0.0000 0.0000 18.1632
#
#
#
# Elastic Compliance Matrix: (Units=1/GPa)
#
#
# Indices 1 2 3 4 5 6 
#
# 1 0.014486 -0.004111 -0.002615 0.000000 0.000000 0.005414
# 2 -0.004111 0.014486 -0.002615 0.000000 0.000000 -0.005414
# 3 -0.002615 -0.002615 0.008583 0.000000 0.000000 0.000000
# 4 0.000000 0.000000 0.000000 0.036901 0.000000 0.000000
# 5 0.000000 0.000000 0.000000 0.000000 0.036901 0.000000
# 6 0.005414 -0.005414 0.000000 0.000000 0.000000 0.058209
#
#
# Mechanical properties :
#
#
# Convention : Reuss Voigt Hill
#
# Bulk Modulus (GPa) = 52.98664 56.02177 54.50420
# Shear Modulus (GPa) = 25.70190 28.50443 27.10316
#
# Velocity S-wave (km/s) = 3.51228 3.69882 3.60676
# Velocity P-wave (km/s) = 6.47149 6.71792 6.59585
#
# Compressibility (1/GPa) = 0.01887268
#
# Stress axis : x y z
#
# Youngs Moduli (GPa) = 69.03271 69.03271 116.51434
#
# Poissons Ratio (x) = 0.28377 0.30470
# Poissons Ratio (y) = 0.28377 0.30470
# Poissons Ratio (z) = 0.18053 0.18053
#
# Static dielectric constant tensor:
#      x y z
#    x 1.789260 0.000000 0.000000 
#    y 0.000000 1.789260 0.000000 
#    z 0.000000 0.000000 1.847420 
# 
# From -- ./inp_files/896.got.cif
#   From: 2010.05.17/outbox.cif.g08.bks.cpg/sg85_cif.got.tgz:896.got - 2010.06.03 19:01:16.
