data_PCOD9544078
_publ_section_title
;
Structure prediction by ZEFSAII (Michael W. Deem and Ramdas Pophale) SiO2 
 PCOD9544078
Probable space group: P 42/M
;
_chemical_formula_sum "Si O2"
_cell_formula_units_Z 58
_cell_length_a 18.397216
_cell_length_b 18.397216
_cell_length_c 7.996272
_cell_angle_alpha 90.000000
_cell_angle_beta 90.000000
_cell_angle_gamma 90.000000
_cell_volume 2706.398683
_symmetry_space_group_name_H-M "P 42/M"
_symmetry_group_IT_number 84
_symmetry_cell_setting 'tetragonal'
loop_
_space_group_symop_operation_xyz
x,y,z
-y,x,1/2+z
-x,-y,z
y,-x,1/2+z
-x,-y,-z
y,-x,1/2-z
x,y,-z
-y,x,1/2-z
loop_
_atom_site_type_symbol
_atom_site_label
_atom_site_fract_x
_atom_site_fract_y
_atom_site_fract_z
Si Si1 0.740251 0.628590 0.801739
Si Si2 0.637572 0.424354 0.198200
Si Si3 0.272549 0.110064 0.807139
Si Si4 0.957628 0.672393 0.805218
Si Si5 0.463314 0.876839 0.811827
Si Si6 0.197377 0.596059 0.809369
Si Si7 0.500000 0.500000 0.750000
Si Si8 0.170085 0.227448 0.800669
O O1 0.660480 0.621346 0.727707
O O2 0.802469 0.582123 0.713048
O O3 0.768230 0.710968 0.783163
O O4 0.739230 0.610330 0.000000
O O5 0.722868 0.433230 0.242179
O O6 0.580409 0.471598 0.304612
O O7 0.627788 0.443527 0.000000
O O8 0.338168 0.167843 0.799238
O O9 0.202426 0.152088 0.734311
O O10 0.299818 0.038809 0.713977
O O11 0.259419 0.090084 0.000000
O O12 0.940356 0.594137 0.725607
O O13 0.902627 0.733989 0.734523
O O14 0.938351 0.662992 0.000000
O O15 0.532966 0.863040 0.697911
O O16 0.490072 0.883714 0.000000
O O17 0.206127 0.621756 0.000000
O O18 0.159678 0.215793 0.000000
#
# Coordination Sequence:
#
# PCOD9544078 Si02
#       8
#     8   8   8   8   8   8   2   8
#     4  10  19  36  61  84 111 152 195 246 303 355
#     4  11  24  40  57  81 110 151 205 255 304 360
#     4  11  21  38  62  92 120 153 195 241 291 351
#     4  10  21  39  61  90 122 158 193 237 293 350
#     4  11  22  37  57  85 118 156 198 246 295 354
#     4  11  23  39  59  85 116 155 199 251 303 361
#     4  12  26  40  56  78 118 160 200 262 318 356
#     4   8  17  35  60  86 117 152 188 230 286 344
#
# _framework density 21.430693999999999
#
# number of rings (size 3 to 8) (size 9 to 14) (size 15 to 20)
#    0.000    1.655    1.379    4.759    0.000    3.310 
#    0.000    4.828    0.000    0.414    0.000    2.897 
#    0.000    0.000    0.000    0.000    0.000    0.000 
#
# Total GULP energy -323661.986863 kJ/mol
# GULP energy per Si atom -5580.379084 kJ/mol
# Density = 2.138192 g / cm^3
# Si number density = 21.430694 Si / 1000 Ang^3
#
#
#
# Elastic Constant Matrix: (Units=GPa)
#
#
# Indices 1 2 3 4 5 6 
#
# 1 74.9214 7.8139 2.2136 0.0000 0.0000 6.7018
# 2 7.8139 74.9214 2.2136 0.0000 0.0000 -6.7018
# 3 2.2136 2.2136 45.7626 0.0000 0.0000 0.0000
# 4 0.0000 0.0000 0.0000 9.0386 0.0000 0.0000
# 5 0.0000 0.0000 0.0000 0.0000 9.0386 0.0000
# 6 6.7018 -6.7018 0.0000 0.0000 0.0000 2.3613
#
#
#
# Elastic Compliance Matrix: (Units=1/GPa)
#
#
# Indices 1 2 3 4 5 6 
#
# 1 0.023262 -0.011144 -0.000586 0.000000 0.000000 -0.097651
# 2 -0.011144 0.023262 -0.000586 0.000000 0.000000 0.097651
# 3 -0.000586 -0.000586 0.021909 0.000000 0.000000 0.000000
# 4 0.000000 0.000000 0.000000 0.110637 0.000000 0.000000
# 5 0.000000 0.000000 0.000000 0.000000 0.110637 0.000000
# 6 -0.097651 0.097651 0.000000 0.000000 0.000000 0.977807
#
#
# Mechanical properties :
#
#
# Convention : Reuss Voigt Hill
#
# Bulk Modulus (GPa) = 22.83094 24.45414 23.64254
# Shear Modulus (GPa) = 3.82630 16.31198 10.06914
#
# Velocity S-wave (km/s) = 1.33765 2.76189 2.16995
# Velocity P-wave (km/s) = 3.61417 4.64826 4.16344
#
# Compressibility (1/GPa) = 0.04380021
#
# Stress axis : x y z
#
# Youngs Moduli (GPa) = 42.98870 42.98870 45.64414
#
# Poissons Ratio (x) = 0.47906 0.02675
# Poissons Ratio (y) = 0.47906 0.02675
# Poissons Ratio (z) = 0.02520 0.02520
#
# Static dielectric constant tensor:
#      x y z
#    x 1.787710 0.000000 0.000000 
#    y 0.000000 1.787710 0.000000 
#    z 0.000000 0.000000 1.783830 
# 
# From -- ./inp_files/1138.got.cif
#   From: 2010.05.17/outbox.cif.g08.bks.cpg/sg84_1_cif.got.tgz:1138.got - 2010.06.03 18:57:40.
