data_PCOD9544275
_publ_section_title
;
Structure prediction by ZEFSAII (Michael W. Deem and Ramdas Pophale) SiO2 
 PCOD9544275
Probable space group: P 42/M
;
_chemical_formula_sum "Si O2"
_cell_formula_units_Z 48
_cell_length_a 7.980475
_cell_length_b 7.980475
_cell_length_c 29.759483
_cell_angle_alpha 90.000000
_cell_angle_beta 90.000000
_cell_angle_gamma 90.000000
_cell_volume 1895.321395
_symmetry_space_group_name_H-M "P 42/M"
_symmetry_group_IT_number 84
_symmetry_cell_setting 'tetragonal'
loop_
_space_group_symop_operation_xyz
x,y,z
-y,x,1/2+z
-x,-y,z
y,-x,1/2+z
-x,-y,-z
y,-x,1/2-z
x,y,-z
-y,x,1/2-z
loop_
_atom_site_type_symbol
_atom_site_label
_atom_site_fract_x
_atom_site_fract_y
_atom_site_fract_z
Si Si1 0.187341 0.233553 0.706536
Si Si2 0.945676 0.802377 0.949732
Si Si3 0.694250 0.802257 0.198173
Si Si4 0.694596 0.000001 0.650689
Si Si5 0.450711 0.298598 0.952001
Si Si6 0.575147 0.316344 0.139416
O O1 0.274606 0.275261 0.753047
O O2 0.292237 0.236778 0.657315
O O3 0.998540 0.284249 0.701709
O O4 0.194857 0.031617 0.698110
O O5 0.019173 0.725862 0.903914
O O6 0.746230 0.750887 0.949424
O O7 0.004829 0.744402 0.000000
O O8 0.000000 0.000000 0.947574
O O9 0.793011 0.733632 0.155111
O O10 0.501964 0.767088 0.183776
O O11 0.500000 0.000000 0.662781
O O12 0.500000 0.500000 0.952045
O O13 0.541607 0.230926 0.907620
O O14 0.513466 0.233144 0.000000
O O15 0.500000 0.500000 0.138441
#
# Coordination Sequence:
#
# PCOD9544275 Si02
#       6
#     8   8   8   8   8   8
#     4  12  27  42  69  96 135 187 236 290 356 423
#     4  10  21  42  73 105 139 184 235 296 362 433
#     4  12  25  45  67  94 137 184 236 285 354 427
#     4  12  26  43  68 101 137 181 235 294 352 428
#     4   9  19  39  70 101 139 186 230 286 362 435
#     4  11  25  43  68 103 139 181 229 295 350 426
#
# _framework density 25.325517999999999
#
# number of rings (size 3 to 8) (size 9 to 14) (size 15 to 20)
#    0.000    1.000    3.333    3.000    7.000    0.333 
#    0.000    0.833    0.000    3.000    0.000    0.000 
#    0.000    0.000    0.000    0.000    0.000    0.000 
#
# Total GULP energy -267282.530986 kJ/mol
# GULP energy per Si atom -5568.386062 kJ/mol
# Density = 2.526788 g / cm^3
# Si number density = 25.325518 Si / 1000 Ang^3
#
#
#
# Elastic Constant Matrix: (Units=GPa)
#
#
# Indices 1 2 3 4 5 6 
#
# 1 77.6072 36.2455 64.0569 0.0000 0.0000 -0.3640
# 2 36.2455 77.6072 64.0569 0.0000 0.0000 0.3640
# 3 64.0569 64.0569 248.7766 0.0000 0.0000 0.0000
# 4 0.0000 0.0000 0.0000 36.4232 0.0000 0.0000
# 5 0.0000 0.0000 0.0000 0.0000 36.4232 0.0000
# 6 -0.3640 0.3640 0.0000 0.0000 0.0000 54.7976
#
#
#
# Elastic Compliance Matrix: (Units=1/GPa)
#
#
# Indices 1 2 3 4 5 6 
#
# 1 0.018273 -0.005907 -0.003184 0.000000 0.000000 0.000161
# 2 -0.005907 0.018273 -0.003184 0.000000 0.000000 -0.000161
# 3 -0.003184 -0.003184 0.005659 0.000000 0.000000 0.000000
# 4 0.000000 0.000000 0.000000 0.027455 0.000000 0.000000
# 5 0.000000 0.000000 0.000000 0.000000 0.027455 0.000000
# 6 0.000161 -0.000161 0.000000 0.000000 0.000000 0.018251
#
#
# Mechanical properties :
#
#
# Convention : Reuss Voigt Hill
#
# Bulk Modulus (GPa) = 56.64008 81.41222 69.02615
# Shear Modulus (GPa) = 34.29309 41.50425 37.89867
#
# Velocity S-wave (km/s) = 3.68379 4.05264 3.87261
# Velocity P-wave (km/s) = 6.36452 7.35626 6.87829
#
# Compressibility (1/GPa) = 0.01765534
#
# Stress axis : x y z
#
# Youngs Moduli (GPa) = 54.72542 54.72542 176.69594
#
# Poissons Ratio (x) = 0.32325 0.56263
# Poissons Ratio (y) = 0.32325 0.56263
# Poissons Ratio (z) = 0.17425 0.17425
#
# Static dielectric constant tensor:
#      x y z
#    x 2.433470 0.000000 0.000000 
#    y 0.000000 2.433470 0.000000 
#    z 0.000000 0.000000 2.201670 
# 
# From -- ./inp_files/5773.got.cif
#   From: 2010.05.17/outbox.cif.g08.bks.cpg/sg84_3_cif.got.tgz:5773.got - 2010.06.03 18:57:40.
