data_PCOD9544961
_publ_section_title
;
Structure prediction by ZEFSAII (Michael W. Deem and Ramdas Pophale) SiO2 
 PCOD9544961
Probable space group: P 42/N
;
_chemical_formula_sum "Si O2"
_cell_formula_units_Z 34
_cell_length_a 9.149056
_cell_length_b 9.149056
_cell_length_c 18.065827
_cell_angle_alpha 90.000000
_cell_angle_beta 90.000000
_cell_angle_gamma 90.000000
_cell_volume 1512.204126
_symmetry_space_group_name_H-M "P 42/N"
_symmetry_group_IT_number 86
_space_group.IT_coordinate_system_code '2'
_symmetry_cell_setting 'tetragonal'
loop_
_space_group_symop_operation_xyz
x,y,z
-y,1/2+x,1/2+z
1/2-x,1/2-y,z
1/2+y,-x,1/2+z
-x,-y,-z
y,1/2-x,1/2-z
1/2+x,1/2+y,-z
1/2-y,x,1/2-z
loop_
_atom_site_type_symbol
_atom_site_label
_atom_site_fract_x
_atom_site_fract_y
_atom_site_fract_z
Si Si1 0.250000 0.250000 0.250000
Si Si2 0.487933 0.999933 0.229327
Si Si3 0.844821 0.108548 0.408043
Si Si4 0.425559 0.219930 0.653787
Si Si5 0.339028 0.126946 0.999777
O O1 0.114820 0.358474 0.224351
O O2 0.417693 0.871809 0.178270
O O3 0.647517 0.014296 0.191880
O O4 0.520915 0.931372 0.310362
O O5 0.750000 0.250000 0.421347
O O6 0.005892 0.117857 0.442829
O O7 0.792181 0.968739 0.454628
O O8 0.250000 0.250000 0.668322
O O9 0.444284 0.243800 0.566261
O O10 0.250000 0.250000 0.041406
#
# Coordination Sequence:
#
# PCOD9544961 Si02
#       5
#     2   8   8   8   8
#     4  12  32  36  52 100 144 172 192 274 360 384
#     4  11  23  42  62  95 127 169 220 270 330 388
#     4  10  23  41  63  94 132 170 211 268 326 386
#     4  10  19  42  76  94 113 169 239 274 307 385
#     4   9  21  41  65  95 124 165 221 266 321 392
#
# _framework density 22.483737000000001
#
# number of rings (size 3 to 8) (size 9 to 14) (size 15 to 20)
#    0.000    1.882    2.353    0.000    4.941    0.941 
#   12.706    0.000    0.000    0.000    0.000    0.000 
#    0.000    0.000    0.000    0.000    0.000    0.000 
#
# Total GULP energy -189334.969835 kJ/mol
# GULP energy per Si atom -5568.675583 kJ/mol
# Density = 2.243256 g / cm^3
# Si number density = 22.483737 Si / 1000 Ang^3
#
#
#
# Elastic Constant Matrix: (Units=GPa)
#
#
# Indices 1 2 3 4 5 6 
#
# 1 59.5229 40.1147 6.1221 0.0000 0.0000 6.1210
# 2 40.1147 59.5229 6.1221 0.0000 0.0000 -6.1210
# 3 6.1221 6.1221 44.7885 0.0000 0.0000 0.0000
# 4 0.0000 0.0000 0.0000 31.7049 0.0000 0.0000
# 5 0.0000 0.0000 0.0000 0.0000 31.7049 0.0000
# 6 6.1210 -6.1210 0.0000 0.0000 0.0000 60.3284
#
#
#
# Elastic Compliance Matrix: (Units=1/GPa)
#
#
# Indices 1 2 3 4 5 6 
#
# 1 0.032628 -0.022420 -0.001395 0.000000 0.000000 -0.005585
# 2 -0.022420 0.032628 -0.001395 0.000000 0.000000 0.005585
# 3 -0.001395 -0.001395 0.022709 0.000000 0.000000 0.000000
# 4 0.000000 0.000000 0.000000 0.031541 0.000000 0.000000
# 5 0.000000 0.000000 0.000000 0.000000 0.031541 0.000000
# 6 -0.005585 0.005585 0.000000 0.000000 0.000000 0.017709
#
#
# Mechanical properties :
#
#
# Convention : Reuss Voigt Hill
#
# Bulk Modulus (GPa) = 26.63605 29.83909 28.23757
# Shear Modulus (GPa) = 21.58054 32.17935 26.87994
#
# Velocity S-wave (km/s) = 3.10147 3.78726 3.46139
# Velocity P-wave (km/s) = 4.96971 5.69427 5.34428
#
# Compressibility (1/GPa) = 0.03754311
#
# Stress axis : x y z
#
# Youngs Moduli (GPa) = 30.64881 30.64881 44.03619
#
# Poissons Ratio (x) = 0.68714 0.06144
# Poissons Ratio (y) = 0.68714 0.06144
# Poissons Ratio (z) = 0.04276 0.04276
#
# Static dielectric constant tensor:
#      x y z
#    x 1.880330 0.000000 0.000000 
#    y 0.000000 1.880330 0.000000 
#    z 0.000000 0.000000 1.843160 
# 
# From -- ./inp_files/3990.got.cif
#   From: 2010.05.17/outbox.cif.g08.bks.cpg/sg86_2_cif.got.tgz:3990.got - 2010.06.03 19:03:11.
