data_PCOD9544400
_publ_section_title
;
Structure prediction by ZEFSAII (Michael W. Deem and Ramdas Pophale) SiO2 
 PCOD9544400
Probable space group: P 42/M
;
_chemical_formula_sum "Si O2"
_cell_formula_units_Z 24
_cell_length_a 7.855859
_cell_length_b 7.855859
_cell_length_c 17.130308
_cell_angle_alpha 90.000000
_cell_angle_beta 90.000000
_cell_angle_gamma 90.000000
_cell_volume 1057.188746
_symmetry_space_group_name_H-M "P 42/M"
_symmetry_group_IT_number 84
_symmetry_cell_setting 'tetragonal'
loop_
_space_group_symop_operation_xyz
x,y,z
-y,x,1/2+z
-x,-y,z
y,-x,1/2+z
-x,-y,-z
y,-x,1/2-z
x,y,-z
-y,x,1/2-z
loop_
_atom_site_type_symbol
_atom_site_label
_atom_site_fract_x
_atom_site_fract_y
_atom_site_fract_z
Si Si1 0.576758 0.818887 0.167217
Si Si2 0.643669 0.760228 0.343433
Si Si3 0.719214 0.106246 0.408369
O O1 0.635957 0.742402 0.249926
O O2 0.422989 0.711100 0.129200
O O3 0.740399 0.843725 0.113168
O O4 0.500000 0.000000 0.188592
O O5 0.460908 0.812792 0.378969
O O6 0.752406 0.927744 0.365333
O O7 0.711654 0.073891 0.500000
#
# Coordination Sequence:
#
# PCOD9544400 Si02
#       3
#     8   8   8
#     4  12  23  40  69  99 130 178 229 274 333 410
#     4  11  21  42  68  95 134 174 225 278 331 406
#     4  11  25  43  67 100 136 174 222 281 343 398
#
# _framework density 22.701715
#
# number of rings (size 3 to 8) (size 9 to 14) (size 15 to 20)
#    0.000    0.667    6.667    3.000    0.000    6.000 
#    0.000    5.000    0.000    0.000    0.000    0.000 
#    0.000    0.000    0.000    0.000    0.000    0.000 
#
# Total GULP energy -134140.563070 kJ/mol
# GULP energy per Si atom -5589.190128 kJ/mol
# Density = 2.265004 g / cm^3
# Si number density = 22.701715 Si / 1000 Ang^3
#
#
#
# Elastic Constant Matrix: (Units=GPa)
#
#
# Indices 1 2 3 4 5 6 
#
# 1 65.5589 53.1740 23.2051 0.0000 0.0000 -17.5797
# 2 53.1740 65.5589 23.2051 0.0000 0.0000 17.5797
# 3 23.2051 23.2051 84.8469 0.0000 0.0000 0.0000
# 4 0.0000 0.0000 0.0000 9.6636 0.0000 0.0000
# 5 0.0000 0.0000 0.0000 0.0000 9.6636 0.0000
# 6 -17.5797 17.5797 0.0000 0.0000 0.0000 19.1404
#
#
#
# Elastic Compliance Matrix: (Units=1/GPa)
#
#
# Indices 1 2 3 4 5 6 
#
# 1 -0.020401 0.029831 -0.002579 0.000000 0.000000 -0.046136
# 2 0.029831 -0.020401 -0.002579 0.000000 0.000000 0.046136
# 3 -0.002579 -0.002579 0.013197 0.000000 0.000000 0.000000
# 4 0.000000 0.000000 0.000000 0.103481 0.000000 0.000000
# 5 0.000000 0.000000 0.000000 0.000000 0.103481 0.000000
# 6 -0.046136 0.046136 0.000000 0.000000 0.000000 -0.032503
#
#
# Mechanical properties :
#
#
# Convention : Reuss Voigt Hill
#
# Bulk Modulus (GPa) = 45.99632 46.12592 46.06112
# Shear Modulus (GPa) = 47.73022 15.45224 31.59123
#
# Velocity S-wave (km/s) = 4.59027 2.61178 3.73443
# Velocity P-wave (km/s) = 6.95696 5.42748 6.23926
#
# Compressibility (1/GPa) = 0.02174087
#
# Stress axis : x y z
#
# Youngs Moduli (GPa) = -49.01803 -49.01803 75.77655
#
# Poissons Ratio (x) = 1.46226 0.19544
# Poissons Ratio (y) = 1.46226 0.19544
# Poissons Ratio (z) = -0.12643 -0.12643
#
# Static dielectric constant tensor:
#      x y z
#    x 1.924630 0.000000 0.000000 
#    y 0.000000 1.924630 0.000000 
#    z 0.000000 0.000000 1.772850 
# 
# From -- ./inp_files/2520.got.cif
#   From: 2010.05.17/outbox.cif.g08.bks.cpg/sg84_2_cif.got.tgz:2520.got - 2010.06.03 18:57:40.
