data_PCOD9544676
_publ_section_title
;
Structure prediction by ZEFSAII (Michael W. Deem and Ramdas Pophale) SiO2 
 PCOD9544676
Probable space group: P 4/N
;
_chemical_formula_sum "Si O2"
_cell_formula_units_Z 52
_cell_length_a 17.084070
_cell_length_b 17.084070
_cell_length_c 7.693889
_cell_angle_alpha 90.000000
_cell_angle_beta 90.000000
_cell_angle_gamma 90.000000
_cell_volume 2245.580358
_symmetry_space_group_name_H-M "P 4/N"
_symmetry_group_IT_number 85
_symmetry_cell_setting 'tetragonal'
loop_
_space_group_symop_operation_xyz
x,y,z
1/2-y,x,z
1/2-x,1/2-y,z
y,1/2-x,z
-x,-y,-z
1/2+y,-x,-z
1/2+x,1/2+y,-z
-y,1/2+x,-z
loop_
_atom_site_type_symbol
_atom_site_label
_atom_site_fract_x
_atom_site_fract_y
_atom_site_fract_z
Si Si1 0.083334 0.744496 0.020964
Si Si2 0.054015 0.678938 0.400357
Si Si3 0.005830 0.894736 0.122337
Si Si4 0.461412 0.121545 0.114203
Si Si5 0.134456 0.109624 0.461746
Si Si6 0.250000 0.250000 0.536971
Si Si7 0.250000 0.750000 0.000000
Si Si8 0.342265 0.968005 0.496741
O O1 0.090332 0.714629 0.222284
O O2 0.057806 0.834993 0.008786
O O3 0.164967 0.732389 0.918829
O O4 0.013923 0.690125 0.960738
O O5 0.105810 0.607085 0.462410
O O6 0.052628 0.752294 0.531222
O O7 0.963940 0.647404 0.407606
O O8 0.000763 0.850998 0.305199
O O9 0.052745 0.975113 0.160250
O O10 0.923799 0.909268 0.027693
O O11 0.416820 0.162975 0.271938
O O12 0.176195 0.187015 0.528593
O O13 0.044415 0.125382 0.404800
#
# Coordination Sequence:
#
# PCOD9544676 Si02
#       8
#     8   8   8   8   8   2   2   8
#     4  11  25  43  67  97 143 174 229 274 354 403
#     4  11  25  42  69 101 137 183 223 286 344 424
#     4  10  23  42  65  98 130 174 225 273 338 412
#     4  11  24  41  69  96 131 178 222 281 336 415
#     4  12  25  46  74  95 141 174 241 287 352 418
#     4  12  28  48  68 110 128 184 232 302 352 400
#     4  12  24  44  68 102 140 184 220 298 336 428
#     4  11  24  44  67 100 138 180 228 282 348 421
#
# _framework density 23.156596
#
# number of rings (size 3 to 8) (size 9 to 14) (size 15 to 20)
#    0.000    0.923    4.615    1.385    6.462    4.000 
#    0.000    0.000    0.000    1.846    0.000    0.000 
#    0.000    0.000    0.000    0.000    0.000    0.000 
#
# Total GULP energy -289709.727035 kJ/mol
# GULP energy per Si atom -5571.340905 kJ/mol
# Density = 2.310389 g / cm^3
# Si number density = 23.156596 Si / 1000 Ang^3
#
#
#
# Elastic Constant Matrix: (Units=GPa)
#
#
# Indices 1 2 3 4 5 6 
#
# 1 126.6016 34.9101 2.2623 0.0000 0.0000 -2.4910
# 2 34.9101 126.6016 2.2623 0.0000 0.0000 2.4910
# 3 2.2623 2.2623 38.3948 0.0000 0.0000 0.0000
# 4 0.0000 0.0000 0.0000 5.7066 0.0000 0.0000
# 5 0.0000 0.0000 0.0000 0.0000 5.7066 0.0000
# 6 -2.4910 2.4910 0.0000 0.0000 0.0000 59.6876
#
#
#
# Elastic Compliance Matrix: (Units=1/GPa)
#
#
# Indices 1 2 3 4 5 6 
#
# 1 0.008566 -0.002365 -0.000365 0.000000 0.000000 0.000456
# 2 -0.002365 0.008566 -0.000365 0.000000 0.000000 -0.000456
# 3 -0.000365 -0.000365 0.026088 0.000000 0.000000 0.000000
# 4 0.000000 0.000000 0.000000 0.175237 0.000000 0.000000
# 5 0.000000 0.000000 0.000000 0.000000 0.175237 0.000000
# 6 0.000456 -0.000456 0.000000 0.000000 0.000000 0.016792
#
#
# Mechanical properties :
#
#
# Convention : Reuss Voigt Hill
#
# Bulk Modulus (GPa) = 27.00507 41.16301 34.08404
# Shear Modulus (GPa) = 11.65446 31.03104 21.34275
#
# Velocity S-wave (km/s) = 2.24584 3.66464 3.03920
# Velocity P-wave (km/s) = 4.29096 5.97668 5.20255
#
# Compressibility (1/GPa) = 0.03703008
#
# Stress axis : x y z
#
# Youngs Moduli (GPa) = 116.73608 116.73608 38.33142
#
# Poissons Ratio (x) = 0.27603 0.01401
# Poissons Ratio (y) = 0.27603 0.01401
# Poissons Ratio (z) = 0.04266 0.04266
#
# Static dielectric constant tensor:
#      x y z
#    x 1.917970 0.000000 0.000000 
#    y 0.000000 1.917970 0.000000 
#    z 0.000000 0.000000 1.986720 
# 
# From -- ./inp_files/1166.got.cif
#   From: 2010.05.17/outbox.cif.g08.bks.cpg/sg85_cif.got.tgz:1166.got - 2010.06.03 19:01:16.
