data_PCOD9544191
_publ_section_title
;
Structure prediction by ZEFSAII (Michael W. Deem and Ramdas Pophale) SiO2 
 PCOD9544191
Probable space group: P 42/M
;
_chemical_formula_sum "Si O2"
_cell_formula_units_Z 40
_cell_length_a 15.211370
_cell_length_b 15.211370
_cell_length_c 8.805375
_cell_angle_alpha 90.000000
_cell_angle_beta 90.000000
_cell_angle_gamma 90.000000
_cell_volume 2037.438539
_symmetry_space_group_name_H-M "P 42/M"
_symmetry_group_IT_number 84
_symmetry_cell_setting 'tetragonal'
loop_
_space_group_symop_operation_xyz
x,y,z
-y,x,1/2+z
-x,-y,z
y,-x,1/2+z
-x,-y,-z
y,-x,1/2-z
x,y,-z
-y,x,1/2-z
loop_
_atom_site_type_symbol
_atom_site_label
_atom_site_fract_x
_atom_site_fract_y
_atom_site_fract_z
Si Si1 0.442727 0.913393 0.817965
Si Si2 0.082293 0.248021 0.181809
Si Si3 0.802235 0.393575 0.681149
Si Si4 0.223907 0.115582 0.680756
Si Si5 0.577774 0.605273 0.178699
O O1 0.347914 0.908911 0.741282
O O2 0.507735 0.832779 0.780224
O O3 0.500000 0.000000 0.777162
O O4 0.429311 0.915809 0.000000
O O5 0.156876 0.183622 0.244143
O O6 0.985900 0.212163 0.227765
O O7 0.086731 0.249975 0.000000
O O8 0.817534 0.382787 0.500000
O O9 0.857689 0.322013 0.770107
O O10 0.699293 0.380112 0.710863
O O11 0.215135 0.121239 0.500000
O O12 0.612276 0.525478 0.279997
O O13 0.587609 0.584970 0.000000
#
# Coordination Sequence:
#
# PCOD9544191 Si02
#       5
#     8   8   8   8   8
#     4  10  20  38  65  92 124 163 199 243 304 367
#     4  11  25  43  65  95 127 163 208 260 314 373
#     4  10  22  39  60  90 124 160 203 253 306 366
#     4  11  25  43  65  92 124 163 209 260 315 375
#     4  10  21  37  56  81 117 159 204 249 298 358
#
# _framework density 19.632494999999999
#
# number of rings (size 3 to 8) (size 9 to 14) (size 15 to 20)
#    0.000    1.600    2.000    2.400    2.800    5.600 
#    0.000    2.000    0.000    0.000    0.000    0.000 
#    0.000    0.000    0.000    0.000    0.000    0.000 
#
# Total GULP energy -223503.263094 kJ/mol
# GULP energy per Si atom -5587.581577 kJ/mol
# Density = 1.958781 g / cm^3
# Si number density = 19.632495 Si / 1000 Ang^3
#
#
#
# Elastic Constant Matrix: (Units=GPa)
#
#
# Indices 1 2 3 4 5 6 
#
# 1 89.8814 44.3759 26.6355 0.0000 0.0000 -8.6673
# 2 44.3759 89.8814 26.6355 0.0000 0.0000 8.6673
# 3 26.6355 26.6355 25.0318 0.0000 0.0000 0.0000
# 4 0.0000 0.0000 0.0000 21.8686 0.0000 0.0000
# 5 0.0000 0.0000 0.0000 0.0000 21.8686 0.0000
# 6 -8.6673 8.6673 0.0000 0.0000 0.0000 28.7560
#
#
#
# Elastic Compliance Matrix: (Units=1/GPa)
#
#
# Indices 1 2 3 4 5 6 
#
# 1 0.018858 -0.005967 -0.013717 0.000000 0.000000 0.007483
# 2 -0.005967 0.018858 -0.013717 0.000000 0.000000 -0.007483
# 3 -0.013717 -0.013717 0.069141 0.000000 0.000000 0.000000
# 4 0.000000 0.000000 0.000000 0.045728 0.000000 0.000000
# 5 0.000000 0.000000 0.000000 0.000000 0.045728 0.000000
# 6 0.007483 -0.007483 0.000000 0.000000 0.000000 0.039286
#
#
# Mechanical properties :
#
#
# Convention : Reuss Voigt Hill
#
# Bulk Modulus (GPa) = 24.96562 44.45425 34.70994
# Shear Modulus (GPa) = 15.73549 21.64182 18.68865
#
# Velocity S-wave (km/s) = 2.83415 3.32376 3.08867
# Velocity P-wave (km/s) = 4.84293 6.11737 5.51707
#
# Compressibility (1/GPa) = 0.04005509
#
# Stress axis : x y z
#
# Youngs Moduli (GPa) = 53.02677 53.02677 14.46325
#
# Poissons Ratio (x) = 0.31643 0.19839
# Poissons Ratio (y) = 0.31643 0.19839
# Poissons Ratio (z) = 0.72736 0.72736
#
# Static dielectric constant tensor:
#      x y z
#    x 1.685790 0.000000 0.000000 
#    y 0.000000 1.685790 0.000000 
#    z 0.000000 0.000000 1.653750 
# 
# From -- ./inp_files/740.got.cif
#   From: 2010.05.17/outbox.cif.g08.bks.cpg/sg84_1_cif.got.tgz:740.got - 2010.06.03 18:57:40.
