data_PCOD9544714
_publ_section_title
;
Structure prediction by ZEFSAII (Michael W. Deem and Ramdas Pophale) SiO2 
 PCOD9544714
Probable space group: P 4/N
;
_chemical_formula_sum "Si O2"
_cell_formula_units_Z 42
_cell_length_a 14.411313
_cell_length_b 14.411313
_cell_length_c 8.918721
_cell_angle_alpha 90.000000
_cell_angle_beta 90.000000
_cell_angle_gamma 90.000000
_cell_volume 1852.292976
_symmetry_space_group_name_H-M "P 4/N"
_symmetry_group_IT_number 85
_symmetry_cell_setting 'tetragonal'
loop_
_space_group_symop_operation_xyz
x,y,z
1/2-y,x,z
1/2-x,1/2-y,z
y,1/2-x,z
-x,-y,-z
1/2+y,-x,-z
1/2+x,1/2+y,-z
-y,1/2+x,-z
loop_
_atom_site_type_symbol
_atom_site_label
_atom_site_fract_x
_atom_site_fract_y
_atom_site_fract_z
Si Si1 0.775899 0.035569 0.366923
Si Si2 0.711288 0.108733 0.049671
Si Si3 0.932041 0.866871 0.876919
Si Si4 0.598334 0.029830 0.566755
Si Si5 0.750000 0.750000 0.810768
Si Si6 0.326501 0.387087 0.850751
O O1 0.730144 0.084755 0.222641
O O2 0.693459 0.004330 0.477623
O O3 0.857491 0.099525 0.431227
O O4 0.834562 0.949431 0.295381
O O5 0.641672 0.193536 0.027021
O O6 0.673940 0.018755 0.967299
O O7 0.856129 0.792202 0.821833
O O8 0.980189 0.904825 0.728259
O O9 0.928730 0.624090 0.001131
O O10 0.500000 0.000000 0.500000
O O11 0.216213 0.368124 0.852361
#
# Coordination Sequence:
#
# PCOD9544714 Si02
#       6
#     8   8   8   8   2   8
#     4  12  27  50  76 112 160 208 254 325 395 479
#     4  11  25  46  78 115 148 202 270 322 376 462
#     4  12  24  49  78 114 152 201 259 326 387 464
#     4  12  32  50  76 115 160 208 253 321 405 485
#     4  12  24  44  72 110 152 184 248 322 380 440
#     4  11  21  42  75 113 147 195 256 319 385 456
#
# _framework density 22.674598
#
# number of rings (size 3 to 8) (size 9 to 14) (size 15 to 20)
#    0.000    0.381    5.714    1.143    5.333    2.667 
#    0.000    0.000    0.000    0.000    0.000    0.000 
#    0.000    0.000    0.000    0.000    0.000    0.000 
#
# Total GULP energy -233962.996644 kJ/mol
# GULP energy per Si atom -5570.547539 kJ/mol
# Density = 2.262299 g / cm^3
# Si number density = 22.674598 Si / 1000 Ang^3
#
#
#
# Elastic Constant Matrix: (Units=GPa)
#
#
# Indices 1 2 3 4 5 6 
#
# 1 116.5413 11.6086 53.3358 0.0000 0.0000 13.2098
# 2 11.6086 116.5413 53.3358 0.0000 0.0000 -13.2098
# 3 53.3358 53.3358 110.2181 0.0000 0.0000 0.0000
# 4 0.0000 0.0000 0.0000 43.3493 0.0000 0.0000
# 5 0.0000 0.0000 0.0000 0.0000 43.3493 0.0000
# 6 13.2098 -13.2098 0.0000 0.0000 0.0000 41.6050
#
#
#
# Elastic Compliance Matrix: (Units=1/GPa)
#
#
# Indices 1 2 3 4 5 6 
#
# 1 0.011712 0.001354 -0.006323 0.000000 0.000000 -0.003289
# 2 0.001354 0.011712 -0.006323 0.000000 0.000000 0.003289
# 3 -0.006323 -0.006323 0.015193 0.000000 0.000000 0.000000
# 4 0.000000 0.000000 0.000000 0.023068 0.000000 0.000000
# 5 0.000000 0.000000 0.000000 0.000000 0.023068 0.000000
# 6 -0.003289 0.003289 0.000000 0.000000 0.000000 0.026124
#
#
# Mechanical properties :
#
#
# Convention : Reuss Voigt Hill
#
# Bulk Modulus (GPa) = 62.36944 64.42902 63.39923
# Shear Modulus (GPa) = 36.02142 40.66208 38.34175
#
# Velocity S-wave (km/s) = 3.99008 4.23932 4.11658
# Velocity P-wave (km/s) = 6.98525 7.24146 7.11451
#
# Compressibility (1/GPa) = 0.01603349
#
# Stress axis : x y z
#
# Youngs Moduli (GPa) = 85.38012 85.38012 65.82151
#
# Poissons Ratio (x) = -0.11564 0.41620
# Poissons Ratio (y) = -0.11564 0.41620
# Poissons Ratio (z) = 0.53987 0.53987
#
# Static dielectric constant tensor:
#      x y z
#    x 1.874570 0.000000 0.000000 
#    y 0.000000 1.874570 0.000000 
#    z 0.000000 0.000000 1.919480 
# 
# From -- ./inp_files/978.got.cif
#   From: 2010.05.17/outbox.cif.g08.bks.cpg/sg85_cif.got.tgz:978.got - 2010.06.03 19:01:16.
