data_PCOD9544159
_publ_section_title
;
Structure prediction by ZEFSAII (Michael W. Deem and Ramdas Pophale) SiO2 
 PCOD9544159
Probable space group: P 42/M
;
_chemical_formula_sum "Si O2"
_cell_formula_units_Z 40
_cell_length_a 9.868429
_cell_length_b 9.868429
_cell_length_c 19.967853
_cell_angle_alpha 90.000000
_cell_angle_beta 90.000000
_cell_angle_gamma 90.000000
_cell_volume 1944.587154
_symmetry_space_group_name_H-M "P 42/M"
_symmetry_group_IT_number 84
_symmetry_cell_setting 'tetragonal'
loop_
_space_group_symop_operation_xyz
x,y,z
-y,x,1/2+z
-x,-y,z
y,-x,1/2+z
-x,-y,-z
y,-x,1/2-z
x,y,-z
-y,x,1/2-z
loop_
_atom_site_type_symbol
_atom_site_label
_atom_site_fract_x
_atom_site_fract_y
_atom_site_fract_z
Si Si1 0.459686 0.853056 0.123885
Si Si2 0.651811 0.994921 0.578320
Si Si3 0.327183 0.366705 0.745230
Si Si4 0.182306 0.906001 0.075882
Si Si5 0.195504 0.754933 0.628277
O O1 0.392365 0.763739 0.181092
O O2 0.340985 0.871516 0.071761
O O3 0.603103 0.799264 0.098648
O O4 0.500000 0.000000 0.153134
O O5 0.638071 0.957839 0.500000
O O6 0.774340 0.897653 0.603573
O O7 0.500000 0.000000 0.608361
O O8 0.709490 0.144418 0.588167
O O9 0.332530 0.518784 0.776481
O O10 0.267943 0.256360 0.796946
O O11 0.183477 0.043426 0.120368
O O12 0.134031 0.935101 0.000000
#
# Coordination Sequence:
#
# PCOD9544159 Si02
#       5
#     8   8   8   8   8
#     4   9  20  37  59  88 119 151 197 243 302 358
#     4  10  22  38  57  87 122 157 199 248 300 349
#     4   9  19  36  57  83 119 155 194 248 306 364
#     4  10  21  39  61  87 123 159 198 250 299 354
#     4  10  20  36  61  87 109 163 201 240 297 364
#
# _framework density 20.569917
#
# number of rings (size 3 to 8) (size 9 to 14) (size 15 to 20)
#    0.000    2.400    0.000    1.200    2.800    6.800 
#    7.200    0.000    0.000    3.600    0.000    0.000 
#    0.000    0.000    0.000    0.000    0.000    0.000 
#
# Total GULP energy -222672.655300 kJ/mol
# GULP energy per Si atom -5566.816383 kJ/mol
# Density = 2.052310 g / cm^3
# Si number density = 20.569917 Si / 1000 Ang^3
#
#
#
# Elastic Constant Matrix: (Units=GPa)
#
#
# Indices 1 2 3 4 5 6 
#
# 1 121.3823 76.5085 34.2664 0.0000 0.0000 -7.5432
# 2 76.5085 121.3823 34.2664 0.0000 0.0000 7.5432
# 3 34.2664 34.2664 34.6852 0.0000 0.0000 0.0000
# 4 0.0000 0.0000 0.0000 34.7459 0.0000 0.0000
# 5 0.0000 0.0000 0.0000 0.0000 34.7459 0.0000
# 6 -7.5432 7.5432 0.0000 0.0000 0.0000 33.1751
#
#
#
# Elastic Compliance Matrix: (Units=1/GPa)
#
#
# Indices 1 2 3 4 5 6 
#
# 1 0.015905 -0.008224 -0.007589 0.000000 0.000000 0.005486
# 2 -0.008224 0.015905 -0.007589 0.000000 0.000000 -0.005486
# 3 -0.007589 -0.007589 0.043825 0.000000 0.000000 0.000000
# 4 0.000000 0.000000 0.000000 0.028780 0.000000 0.000000
# 5 0.000000 0.000000 0.000000 0.000000 0.028780 0.000000
# 6 0.005486 -0.005486 0.000000 0.000000 0.000000 0.032638
#
#
# Mechanical properties :
#
#
# Convention : Reuss Voigt Hill
#
# Bulk Modulus (GPa) = 34.68247 63.05915 48.87081
# Shear Modulus (GPa) = 22.49745 29.36062 25.92903
#
# Velocity S-wave (km/s) = 3.31071 3.78214 3.55425
# Velocity P-wave (km/s) = 5.61354 7.05658 6.37601
#
# Compressibility (1/GPa) = 0.02883301
#
# Stress axis : x y z
#
# Youngs Moduli (GPa) = 62.87223 62.87223 22.81814
#
# Poissons Ratio (x) = 0.51706 0.17316
# Poissons Ratio (y) = 0.51706 0.17316
# Poissons Ratio (z) = 0.47711 0.47711
#
# Static dielectric constant tensor:
#      x y z
#    x 1.779060 0.000000 0.000000 
#    y 0.000000 1.779060 0.000000 
#    z 0.000000 0.000000 1.715250 
# 
# From -- ./inp_files/4870.got.cif
#   From: 2010.05.17/outbox.cif.g08.bks.cpg/sg84_3_cif.got.tgz:4870.got - 2010.06.03 18:57:40.
