data_PCOD9544938
_publ_section_title
;
Structure prediction by ZEFSAII (Michael W. Deem and Ramdas Pophale) SiO2 
 PCOD9544938
Probable space group: P 42/N
;
_chemical_formula_sum "Si O2"
_cell_formula_units_Z 40
_cell_length_a 10.294025
_cell_length_b 10.294025
_cell_length_c 14.999397
_cell_angle_alpha 90.000000
_cell_angle_beta 90.000000
_cell_angle_gamma 90.000000
_cell_volume 1589.440362
_symmetry_space_group_name_H-M "P 42/N"
_symmetry_group_IT_number 86
_space_group.IT_coordinate_system_code '2'
_symmetry_cell_setting 'tetragonal'
loop_
_space_group_symop_operation_xyz
x,y,z
-y,1/2+x,1/2+z
1/2-x,1/2-y,z
1/2+y,-x,1/2+z
-x,-y,-z
y,1/2-x,1/2-z
1/2+x,1/2+y,-z
1/2-y,x,1/2-z
loop_
_atom_site_type_symbol
_atom_site_label
_atom_site_fract_x
_atom_site_fract_y
_atom_site_fract_z
Si Si1 0.322141 0.969020 0.424253
Si Si2 0.058164 0.152823 0.263207
Si Si3 0.432394 0.175996 0.535166
Si Si4 0.828639 0.566313 0.281793
Si Si5 0.074454 0.536164 0.881509
O O1 0.420952 0.876436 0.476371
O O2 0.173328 0.930625 0.431832
O O3 0.361431 0.962085 0.320180
O O4 0.347600 0.117806 0.455339
O O5 0.088656 0.304862 0.266733
O O6 0.011766 0.075882 0.351389
O O7 0.374802 0.093613 0.619118
O O8 0.444006 0.327006 0.562527
O O9 0.678466 0.599520 0.275588
O O10 0.858341 0.446842 0.217071
#
# Coordination Sequence:
#
# PCOD9544938 Si02
#       5
#     8   8   8   8   8
#     4  10  20  36  60  88 125 165 208 274 331 380
#     4   9  18  35  57  85 118 162 212 266 322 386
#     4  10  20  36  60  88 125 165 208 274 331 380
#     4   9  18  35  57  85 118 162 212 266 322 386
#     4  10  19  36  62  83 118 170 215 254 324 405
#
# _framework density 25.166090000000001
#
# number of rings (size 3 to 8) (size 9 to 14) (size 15 to 20)
#    0.000    2.400    2.000    0.600    0.000    0.000 
#    0.000   20.000    0.000    0.000    0.000    0.000 
#    0.000    0.000    0.000    0.800    0.000    0.000 
#
# Total GULP energy -223021.661332 kJ/mol
# GULP energy per Si atom -5575.541533 kJ/mol
# Density = 2.510881 g / cm^3
# Si number density = 25.166090 Si / 1000 Ang^3
#
#
#
# Elastic Constant Matrix: (Units=GPa)
#
#
# Indices 1 2 3 4 5 6 
#
# 1 73.6805 38.9770 20.8073 0.0000 0.0000 -7.7362
# 2 38.9770 73.6805 20.8073 0.0000 0.0000 7.7362
# 3 20.8073 20.8073 87.7070 0.0000 0.0000 0.0000
# 4 0.0000 0.0000 0.0000 31.1943 0.0000 0.0000
# 5 0.0000 0.0000 0.0000 0.0000 31.1943 0.0000
# 6 -7.7362 7.7362 0.0000 0.0000 0.0000 35.8555
#
#
#
# Elastic Compliance Matrix: (Units=1/GPa)
#
#
# Indices 1 2 3 4 5 6 
#
# 1 0.020806 -0.011077 -0.002308 0.000000 0.000000 0.006879
# 2 -0.011077 0.020806 -0.002308 0.000000 0.000000 -0.006879
# 3 -0.002308 -0.002308 0.012497 0.000000 0.000000 0.000000
# 4 0.000000 0.000000 0.000000 0.032057 0.000000 0.000000
# 5 0.000000 0.000000 0.000000 0.000000 0.032057 0.000000
# 6 0.006879 -0.006879 0.000000 0.000000 0.000000 0.030858
#
#
# Mechanical properties :
#
#
# Convention : Reuss Voigt Hill
#
# Bulk Modulus (GPa) = 44.00929 44.02791 44.01860
# Shear Modulus (GPa) = 26.59004 29.94726 28.26865
#
# Velocity S-wave (km/s) = 3.25404 3.45336 3.35518
# Velocity P-wave (km/s) = 5.62529 5.78220 5.70428
#
# Compressibility (1/GPa) = 0.02272248
#
# Stress axis : x y z
#
# Youngs Moduli (GPa) = 48.06370 48.06370 80.02105
#
# Poissons Ratio (x) = 0.53239 0.18469
# Poissons Ratio (y) = 0.53239 0.18469
# Poissons Ratio (z) = 0.11093 0.11093
#
# Static dielectric constant tensor:
#      x y z
#    x 2.071060 0.000000 0.000000 
#    y 0.000000 2.071060 0.000000 
#    z 0.000000 0.000000 2.115100 
# 
# From -- ./inp_files/2867.got.cif
#   From: 2010.05.17/outbox.cif.g08.bks.cpg/sg86_2_cif.got.tgz:2867.got - 2010.06.03 19:03:11.
