data_PCOD9544322
_publ_section_title
;
Structure prediction by ZEFSAII (Michael W. Deem and Ramdas Pophale) SiO2 
 PCOD9544322
Probable space group: P 42/M
;
_chemical_formula_sum "Si O2"
_cell_formula_units_Z 38
_cell_length_a 8.190245
_cell_length_b 8.190245
_cell_length_c 24.584351
_cell_angle_alpha 90.000000
_cell_angle_beta 90.000000
_cell_angle_gamma 90.000000
_cell_volume 1649.121047
_symmetry_space_group_name_H-M "P 42/M"
_symmetry_group_IT_number 84
_symmetry_cell_setting 'tetragonal'
loop_
_space_group_symop_operation_xyz
x,y,z
-y,x,1/2+z
-x,-y,z
y,-x,1/2+z
-x,-y,-z
y,-x,1/2-z
x,y,-z
-y,x,1/2-z
loop_
_atom_site_type_symbol
_atom_site_label
_atom_site_fract_x
_atom_site_fract_y
_atom_site_fract_z
Si Si1 0.005983 0.194999 0.436264
Si Si2 0.500000 0.500000 0.500000
Si Si3 0.921335 0.763713 0.245960
Si Si4 0.500000 0.000000 0.658965
Si Si5 0.174061 0.408711 0.347464
Si Si6 0.307507 0.356340 0.099703
O O1 0.036790 0.239411 0.500000
O O2 0.825032 0.250634 0.418753
O O3 0.139194 0.280937 0.396818
O O4 0.000000 0.000000 0.431396
O O5 0.554765 0.371826 0.547125
O O6 0.995465 0.653871 0.199205
O O7 0.806949 0.672356 0.288503
O O8 0.078851 0.831583 0.278486
O O9 0.535200 0.162922 0.624907
O O10 0.312547 0.539872 0.361043
O O11 0.000000 0.500000 0.342972
#
# Coordination Sequence:
#
# PCOD9544322 Si02
#       6
#     8   2   8   4   8   8
#     4  10  22  42  74 108 137 180 246 311 367 438
#     4  12  28  50  68 102 158 198 236 308 380 460
#     4  11  25  45  74 108 145 193 247 308 367 441
#     4  12  28  49  74 108 147 198 254 304 378 462
#     4  10  22  43  72 104 145 189 241 309 374 444
#     4  11  27  47  71 106 146 195 242 301 381 450
#
# _framework density 23.042577999999999
#
# number of rings (size 3 to 8) (size 9 to 14) (size 15 to 20)
#    0.000    1.263    2.105    2.526   10.316    1.684 
#    3.789    0.000    0.000    0.000    0.000    0.000 
#    0.000    0.000    0.000    0.000    0.000    0.000 
#
# Total GULP energy -211992.527124 kJ/mol
# GULP energy per Si atom -5578.750714 kJ/mol
# Density = 2.299013 g / cm^3
# Si number density = 23.042578 Si / 1000 Ang^3
#
#
#
# Elastic Constant Matrix: (Units=GPa)
#
#
# Indices 1 2 3 4 5 6 
#
# 1 102.0592 56.6421 65.0259 0.0000 0.0000 -1.9712
# 2 56.6421 102.0592 65.0259 0.0000 0.0000 1.9712
# 3 65.0259 65.0259 127.4538 0.0000 0.0000 0.0000
# 4 0.0000 0.0000 0.0000 -7.4047 0.0000 0.0000
# 5 0.0000 0.0000 0.0000 0.0000 -7.4047 0.0000
# 6 -1.9712 1.9712 0.0000 0.0000 0.0000 46.0575
#
#
#
# Elastic Compliance Matrix: (Units=1/GPa)
#
#
# Indices 1 2 3 4 5 6 
#
# 1 0.016464 -0.005636 -0.005525 0.000000 0.000000 0.000946
# 2 -0.005636 0.016464 -0.005525 0.000000 0.000000 -0.000946
# 3 -0.005525 -0.005525 0.013483 0.000000 0.000000 0.000000
# 4 0.000000 0.000000 0.000000 -0.135049 0.000000 0.000000
# 5 0.000000 0.000000 0.000000 0.000000 -0.135049 0.000000
# 6 0.000946 -0.000946 0.000000 0.000000 0.000000 0.021793
#
#
# Mechanical properties :
#
#
# Convention : Reuss Voigt Hill
#
# Bulk Modulus (GPa) = 76.67711 78.32885 77.50298
# Shear Modulus (GPa) = -30.45502 15.90818 -7.27342
#
# Velocity S-wave (km/s) = -3.63944 2.63036 -1.77859
# Velocity P-wave (km/s) = 3.96078 6.57966 5.43046
#
# Compressibility (1/GPa) = 0.01304170
#
# Stress axis : x y z
#
# Youngs Moduli (GPa) = 60.73745 60.73745 74.16673
#
# Poissons Ratio (x) = 0.34231 0.40974
# Poissons Ratio (y) = 0.34231 0.40974
# Poissons Ratio (z) = 0.33555 0.33555
#
# Static dielectric constant tensor:
#      x y z
#    x 1.907980 0.000000 0.000000 
#    y 0.000000 1.907980 0.000000 
#    z 0.000000 0.000000 1.837780 
# 
# From -- ./inp_files/4885.got.cif
#   From: 2010.05.17/outbox.cif.g08.bks.cpg/sg84_3_cif.got.tgz:4885.got - 2010.06.03 18:57:40.
