data_PCOD9544755
_publ_section_title
;
Structure prediction by ZEFSAII (Michael W. Deem and Ramdas Pophale) SiO2 
 PCOD9544755
Probable space group: P 4/N
;
_chemical_formula_sum "Si O2"
_cell_formula_units_Z 34
_cell_length_a 11.930972
_cell_length_b 11.930972
_cell_length_c 10.930612
_cell_angle_alpha 90.000000
_cell_angle_beta 90.000000
_cell_angle_gamma 90.000000
_cell_volume 1555.951772
_symmetry_space_group_name_H-M "P 4/N"
_symmetry_group_IT_number 85
_symmetry_cell_setting 'tetragonal'
loop_
_space_group_symop_operation_xyz
x,y,z
1/2-y,x,z
1/2-x,1/2-y,z
y,1/2-x,z
-x,-y,-z
1/2+y,-x,-z
1/2+x,1/2+y,-z
-y,1/2+x,-z
loop_
_atom_site_type_symbol
_atom_site_label
_atom_site_fract_x
_atom_site_fract_y
_atom_site_fract_z
Si Si1 0.950670 0.008124 0.363291
Si Si2 0.590615 0.332733 0.964706
Si Si3 0.750000 0.250000 0.500000
Si Si4 0.146386 0.408677 0.163015
Si Si5 0.696127 0.071596 0.316376
O O1 0.961076 0.877403 0.331113
O O2 0.825667 0.048866 0.340507
O O3 0.000000 0.000000 0.500000
O O4 0.026001 0.087084 0.275128
O O5 0.603429 0.339593 0.819512
O O6 0.699583 0.395032 0.015267
O O7 0.480564 0.373528 0.038017
O O8 0.673744 0.173108 0.411431
O O9 0.101239 0.281588 0.168484
#
# Coordination Sequence:
#
# PCOD9544755 Si02
#       5
#     8   8   2   8   8
#     4  12  28  48  74 107 145 197 246 308 370 447
#     4  11  23  43  75 110 144 191 250 311 376 451
#     4  12  24  48  70 112 148 200 252 318 368 456
#     4  11  27  48  73 108 153 195 241 307 386 456
#     4  12  27  45  76 106 150 193 252 307 378 446
#
# _framework density 21.851578
#
# number of rings (size 3 to 8) (size 9 to 14) (size 15 to 20)
#    0.000    0.471    4.706    2.824    9.882    2.353 
#    0.000    0.000    0.000    0.000    0.000    0.000 
#    0.000    0.000    0.000    0.000    0.000    0.000 
#
# Total GULP energy -189720.090411 kJ/mol
# GULP energy per Si atom -5580.002659 kJ/mol
# Density = 2.180184 g / cm^3
# Si number density = 21.851578 Si / 1000 Ang^3
#
#
#
# Elastic Constant Matrix: (Units=GPa)
#
#
# Indices 1 2 3 4 5 6 
#
# 1 100.9903 27.5529 23.0233 0.0000 0.0000 -7.0135
# 2 27.5529 100.9903 23.0233 0.0000 0.0000 7.0135
# 3 23.0233 23.0233 138.0786 0.0000 0.0000 0.0000
# 4 0.0000 0.0000 0.0000 28.5672 0.0000 0.0000
# 5 0.0000 0.0000 0.0000 0.0000 28.5672 0.0000
# 6 -7.0135 7.0135 0.0000 0.0000 0.0000 35.2730
#
#
#
# Elastic Compliance Matrix: (Units=1/GPa)
#
#
# Indices 1 2 3 4 5 6 
#
# 1 0.011214 -0.002940 -0.001380 0.000000 0.000000 0.002814
# 2 -0.002940 0.011214 -0.001380 0.000000 0.000000 -0.002814
# 3 -0.001380 -0.001380 0.007702 0.000000 0.000000 0.000000
# 4 0.000000 0.000000 0.000000 0.035005 0.000000 0.000000
# 5 0.000000 0.000000 0.000000 0.000000 0.035005 0.000000
# 6 0.002814 -0.002814 0.000000 0.000000 0.000000 0.029470
#
#
# Mechanical properties :
#
#
# Convention : Reuss Voigt Hill
#
# Bulk Modulus (GPa) = 53.38624 54.13980 53.76302
# Shear Modulus (GPa) = 33.95508 36.24547 35.10027
#
# Velocity S-wave (km/s) = 3.94623 4.07715 4.01222
# Velocity P-wave (km/s) = 6.72666 6.85522 6.79125
#
# Compressibility (1/GPa) = 0.01873142
#
# Stress axis : x y z
#
# Youngs Moduli (GPa) = 89.17317 89.17317 129.83124
#
# Poissons Ratio (x) = 0.26221 0.17911
# Poissons Ratio (y) = 0.26221 0.17911
# Poissons Ratio (z) = 0.12302 0.12302
#
# Static dielectric constant tensor:
#      x y z
#    x 1.913170 0.000000 0.000000 
#    y 0.000000 1.913170 0.000000 
#    z 0.000000 0.000000 2.606180 
# 
# From -- ./inp_files/1426.got.cif
#   From: 2010.05.17/outbox.cif.g08.bks.cpg/sg85_cif.got.tgz:1426.got - 2010.06.03 19:01:16.
