data_PCOD9544800
_publ_section_title
;
Structure prediction by ZEFSAII (Michael W. Deem and Ramdas Pophale) SiO2 
 PCOD9544800
Probable space group: P 4/N
;
_chemical_formula_sum "Si O2"
_cell_formula_units_Z 34
_cell_length_a 11.416750
_cell_length_b 11.416750
_cell_length_c 12.140190
_cell_angle_alpha 90.000000
_cell_angle_beta 90.000000
_cell_angle_gamma 90.000000
_cell_volume 1582.378837
_symmetry_space_group_name_H-M "P 4/N"
_symmetry_group_IT_number 85
_symmetry_cell_setting 'tetragonal'
loop_
_space_group_symop_operation_xyz
x,y,z
1/2-y,x,z
1/2-x,1/2-y,z
y,1/2-x,z
-x,-y,-z
1/2+y,-x,-z
1/2+x,1/2+y,-z
-y,1/2+x,-z
loop_
_atom_site_type_symbol
_atom_site_label
_atom_site_fract_x
_atom_site_fract_y
_atom_site_fract_z
Si Si1 0.850238 0.404166 0.208139
Si Si2 0.845267 0.576868 0.012054
Si Si3 0.418958 0.645550 0.800666
Si Si4 0.949359 0.552307 0.387780
Si Si5 0.750000 0.750000 0.406429
O O1 0.717676 0.374475 0.173876
O O2 0.925227 0.285850 0.216095
O O3 0.862358 0.462047 0.326826
O O4 0.881908 0.501713 0.117830
O O5 0.902167 0.705040 0.015399
O O6 0.874560 0.504909 0.902794
O O7 0.440476 0.560302 0.697094
O O8 0.872651 0.669719 0.403512
O O9 0.000000 0.500000 0.500000
#
# Coordination Sequence:
#
# PCOD9544800 Si02
#       5
#     8   8   8   8   2
#     4  11  24  43  71 103 146 195 245 308 383 453
#     4  11  24  42  70 108 153 204 256 309 377 461
#     4  11  24  44  69 106 147 190 246 313 378 452
#     4  12  28  49  78 110 146 195 259 321 385 474
#     4  12  28  56  80 112 142 208 260 320 404 466
#
# _framework density 21.486636000000001
#
# number of rings (size 3 to 8) (size 9 to 14) (size 15 to 20)
#    0.000    0.706    2.353    4.235    3.294    4.706 
#    0.000    2.353    0.000    0.000    0.000    0.000 
#    0.000    0.000    0.000    0.000    0.000    0.000 
#
# Total GULP energy -189390.471436 kJ/mol
# GULP energy per Si atom -5570.307983 kJ/mol
# Density = 2.143773 g / cm^3
# Si number density = 21.486636 Si / 1000 Ang^3
#
#
#
# Elastic Constant Matrix: (Units=GPa)
#
#
# Indices 1 2 3 4 5 6 
#
# 1 122.6062 15.3791 60.9363 0.0000 0.0000 -10.7984
# 2 15.3791 122.6062 60.9363 0.0000 0.0000 10.7984
# 3 60.9363 60.9363 147.5532 0.0000 0.0000 0.0000
# 4 0.0000 0.0000 0.0000 12.9630 0.0000 0.0000
# 5 0.0000 0.0000 0.0000 0.0000 12.9630 0.0000
# 6 -10.7984 10.7984 0.0000 0.0000 0.0000 47.7796
#
#
#
# Elastic Compliance Matrix: (Units=1/GPa)
#
#
# Indices 1 2 3 4 5 6 
#
# 1 0.010590 0.000819 -0.004711 0.000000 0.000000 0.002208
# 2 0.000819 0.010590 -0.004711 0.000000 0.000000 -0.002208
# 3 -0.004711 -0.004711 0.010669 0.000000 0.000000 0.000000
# 4 0.000000 0.000000 0.000000 0.077142 0.000000 0.000000
# 5 0.000000 0.000000 0.000000 0.000000 0.077142 0.000000
# 6 0.002208 -0.002208 0.000000 0.000000 0.000000 0.021928
#
#
# Mechanical properties :
#
#
# Convention : Reuss Voigt Hill
#
# Bulk Modulus (GPa) = 68.30708 74.14100 71.22404
# Shear Modulus (GPa) = 21.72514 31.77541 26.75027
#
# Velocity S-wave (km/s) = 3.18323 3.84975 3.53224
# Velocity P-wave (km/s) = 6.73573 7.37165 7.06086
#
# Compressibility (1/GPa) = 0.01463977
#
# Stress axis : x y z
#
# Youngs Moduli (GPa) = 94.43230 94.43230 93.73246
#
# Poissons Ratio (x) = -0.07732 0.44161
# Poissons Ratio (y) = -0.07732 0.44161
# Poissons Ratio (z) = 0.44491 0.44491
#
# Static dielectric constant tensor:
#      x y z
#    x 1.310390 0.000000 0.000000 
#    y 0.000000 1.310390 0.000000 
#    z 0.000000 0.000000 1.745930 
# 
# From -- ./inp_files/1434.got.cif
#   From: 2010.05.17/outbox.cif.g08.bks.cpg/sg85_cif.got.tgz:1434.got - 2010.06.03 19:01:16.
