data_PCOD9544346
_publ_section_title
;
Structure prediction by ZEFSAII (Michael W. Deem and Ramdas Pophale) SiO2 
 PCOD9544346
Probable space group: P 42/M
;
_chemical_formula_sum "Si O2"
_cell_formula_units_Z 48
_cell_length_a 9.097460
_cell_length_b 9.097460
_cell_length_c 28.567539
_cell_angle_alpha 90.000000
_cell_angle_beta 90.000000
_cell_angle_gamma 90.000000
_cell_volume 2364.357469
_symmetry_space_group_name_H-M "P 42/M"
_symmetry_group_IT_number 84
_symmetry_cell_setting 'tetragonal'
loop_
_space_group_symop_operation_xyz
x,y,z
-y,x,1/2+z
-x,-y,z
y,-x,1/2+z
-x,-y,-z
y,-x,1/2-z
x,y,-z
-y,x,1/2-z
loop_
_atom_site_type_symbol
_atom_site_label
_atom_site_fract_x
_atom_site_fract_y
_atom_site_fract_z
Si Si1 0.429971 0.341605 0.908869
Si Si2 0.659669 0.076382 0.405797
Si Si3 0.552567 0.328358 0.191343
Si Si4 0.331912 0.167046 0.252410
Si Si5 0.168557 0.940039 0.311076
Si Si6 0.154302 0.578214 0.500000
Si Si7 0.837784 0.069792 0.500000
O O1 0.500000 0.500000 0.917428
O O2 0.253776 0.357997 0.904474
O O3 0.501675 0.285797 0.860476
O O4 0.463113 0.240571 0.953028
O O5 0.741764 0.033121 0.453938
O O6 0.500000 0.000000 0.401795
O O7 0.766793 0.039588 0.362582
O O8 0.500000 0.500000 0.197160
O O9 0.482703 0.220079 0.229781
O O10 0.722857 0.316095 0.203409
O O11 0.282730 0.016585 0.275506
O O12 0.225689 0.175699 0.207292
O O13 0.000000 0.000000 0.306974
O O14 0.140554 0.754394 0.500000
O O15 0.000000 0.500000 0.500000
O O16 0.000000 0.000000 0.500000
#
# Coordination Sequence:
#
# PCOD9544346 Si02
#       7
#     8   8   8   8   8   4   4
#     4  10  23  43  66  97 130 162 209 275 320 380
#     4  11  25  42  72  99 128 172 226 266 330 395
#     4  11  23  41  64  95 130 161 220 268 318 379
#     4  12  22  43  63  88 132 175 212 272 317 384
#     4  12  26  45  59  93 135 173 217 268 327 386
#     4  10  23  46  68  96 132 168 211 258 332 392
#     4  10  23  48  70  98 138 172 213 282 322 390
#
# _framework density 20.301497000000001
#
# number of rings (size 3 to 8) (size 9 to 14) (size 15 to 20)
#    0.000    1.000    5.000    1.000    7.000    1.333 
#    9.000    0.000    0.000    0.000    0.000    0.000 
#    0.000    0.000    0.000    0.000    0.000    0.000 
#
# Total GULP energy -267905.077276 kJ/mol
# GULP energy per Si atom -5581.355777 kJ/mol
# Density = 2.025529 g / cm^3
# Si number density = 20.301497 Si / 1000 Ang^3
#
#
#
# Elastic Constant Matrix: (Units=GPa)
#
#
# Indices 1 2 3 4 5 6 
#
# 1 52.4613 32.2129 34.0100 0.0000 0.0000 0.3936
# 2 32.2129 52.4613 34.0100 0.0000 0.0000 -0.3936
# 3 34.0100 34.0100 170.2339 0.0000 0.0000 0.0000
# 4 0.0000 0.0000 0.0000 3.9379 0.0000 0.0000
# 5 0.0000 0.0000 0.0000 0.0000 3.9379 0.0000
# 6 0.3936 -0.3936 0.0000 0.0000 0.0000 31.1778
#
#
#
# Elastic Compliance Matrix: (Units=1/GPa)
#
#
# Indices 1 2 3 4 5 6 
#
# 1 0.031739 -0.017672 -0.002810 0.000000 0.000000 -0.000624
# 2 -0.017672 0.031739 -0.002810 0.000000 0.000000 0.000624
# 3 -0.002810 -0.002810 0.006997 0.000000 0.000000 0.000000
# 4 0.000000 0.000000 0.000000 0.253945 0.000000 0.000000
# 5 0.000000 0.000000 0.000000 0.000000 0.253945 0.000000
# 6 -0.000624 0.000624 0.000000 0.000000 0.000000 0.032090
#
#
# Mechanical properties :
#
#
# Convention : Reuss Voigt Hill
#
# Bulk Modulus (GPa) = 41.85743 52.84693 47.35218
# Shear Modulus (GPa) = 7.51876 19.47229 13.49552
#
# Velocity S-wave (km/s) = 1.92655 3.10038 2.58108
# Velocity P-wave (km/s) = 5.06078 6.23731 5.67959
#
# Compressibility (1/GPa) = 0.02389062
#
# Stress axis : x y z
#
# Youngs Moduli (GPa) = 31.50670 31.50670 142.91323
#
# Poissons Ratio (x) = 0.55677 0.40166
# Poissons Ratio (y) = 0.55677 0.40166
# Poissons Ratio (z) = 0.08855 0.08855
#
# Static dielectric constant tensor:
#      x y z
#    x 1.608940 0.000000 0.000000 
#    y 0.000000 1.608940 0.000000 
#    z 0.000000 0.000000 1.725310 
# 
# From -- ./inp_files/5853.got.cif
#   From: 2010.05.17/outbox.cif.g08.bks.cpg/sg84_3_cif.got.tgz:5853.got - 2010.06.03 18:57:40.
