data_PCOD9544986
_publ_section_title
;
Structure prediction by ZEFSAII (Michael W. Deem and Ramdas Pophale) SiO2 
 PCOD9544986
Probable space group: P 42/N
;
_chemical_formula_sum "Si O2"
_cell_formula_units_Z 24
_cell_length_a 11.132488
_cell_length_b 11.132488
_cell_length_c 7.098871
_cell_angle_alpha 90.000000
_cell_angle_beta 90.000000
_cell_angle_gamma 90.000000
_cell_volume 879.779333
_symmetry_space_group_name_H-M "P 42/N"
_symmetry_group_IT_number 86
_space_group.IT_coordinate_system_code '2'
_symmetry_cell_setting 'tetragonal'
loop_
_space_group_symop_operation_xyz
x,y,z
-y,1/2+x,1/2+z
1/2-x,1/2-y,z
1/2+y,-x,1/2+z
-x,-y,-z
y,1/2-x,1/2-z
1/2+x,1/2+y,-z
1/2-y,x,1/2-z
loop_
_atom_site_type_symbol
_atom_site_label
_atom_site_fract_x
_atom_site_fract_y
_atom_site_fract_z
Si Si1 0.565692 0.875562 0.455562
Si Si2 0.118534 0.809363 0.365012
Si Si3 0.468128 0.200005 0.952422
O O1 0.477924 0.762942 0.496199
O O2 0.588582 0.867092 0.226932
O O3 0.500000 0.000000 0.500000
O O4 0.699060 0.883053 0.540172
O O5 0.250000 0.750000 0.375845
O O6 0.123478 0.950697 0.408134
O O7 0.071228 0.774609 0.159512
#
# Coordination Sequence:
#
# PCOD9544986 Si02
#       3
#     8   8   8
#     4  10  22  36  64  94 127 175 223 272 343 395
#     4  10  20  35  65  90 127 167 223 269 338 401
#     4  10  21  39  62  95 131 170 224 278 332 408
#
# _framework density 27.279568999999999
#
# number of rings (size 3 to 8) (size 9 to 14) (size 15 to 20)
#    2.000    0.000    3.333    1.000    0.000    2.000 
#    0.000    0.000    0.000    0.000    0.000    0.000 
#    0.000    0.000    0.000    0.000    0.000    0.000 
#
# Total GULP energy -134000.823341 kJ/mol
# GULP energy per Si atom -5583.367639 kJ/mol
# Density = 2.721748 g / cm^3
# Si number density = 27.279569 Si / 1000 Ang^3
#
#
#
# Elastic Constant Matrix: (Units=GPa)
#
#
# Indices 1 2 3 4 5 6 
#
# 1 136.6166 55.5452 6.2723 0.0000 0.0000 17.7658
# 2 55.5452 136.6166 6.2723 0.0000 0.0000 -17.7658
# 3 6.2723 6.2723 41.9727 0.0000 0.0000 0.0000
# 4 0.0000 0.0000 0.0000 42.0458 0.0000 0.0000
# 5 0.0000 0.0000 0.0000 0.0000 42.0458 0.0000
# 6 17.7658 -17.7658 0.0000 0.0000 0.0000 58.2928
#
#
#
# Elastic Compliance Matrix: (Units=1/GPa)
#
#
# Indices 1 2 3 4 5 6 
#
# 1 0.009746 -0.004491 -0.000785 0.000000 0.000000 -0.004339
# 2 -0.004491 0.009746 -0.000785 0.000000 0.000000 0.004339
# 3 -0.000785 -0.000785 0.024060 0.000000 0.000000 0.000000
# 4 0.000000 0.000000 0.000000 0.023784 0.000000 0.000000
# 5 0.000000 0.000000 0.000000 0.000000 0.023784 0.000000
# 6 -0.004339 0.004339 0.000000 0.000000 0.000000 0.019799
#
#
# Mechanical properties :
#
#
# Convention : Reuss Voigt Hill
#
# Bulk Modulus (GPa) = 31.81790 50.15393 40.98591
# Shear Modulus (GPa) = 37.44852 44.95132 41.19992
#
# Velocity S-wave (km/s) = 3.70911 4.06372 3.89045
# Velocity P-wave (km/s) = 5.48017 6.35952 5.93615
#
# Compressibility (1/GPa) = 0.03142885
#
# Stress axis : x y z
#
# Youngs Moduli (GPa) = 102.60829 102.60829 41.56325
#
# Poissons Ratio (x) = 0.46077 0.03264
# Poissons Ratio (y) = 0.46077 0.03264
# Poissons Ratio (z) = 0.08058 0.08058
#
# Static dielectric constant tensor:
#      x y z
#    x 2.260570 0.000000 0.000000 
#    y 0.000000 2.260570 0.000000 
#    z 0.000000 0.000000 2.143500 
# 
# From -- ./inp_files/728.got.cif
#   From: 2010.05.17/outbox.cif.g08.bks.cpg/sg86_1_cif.got.tgz:728.got - 2010.06.03 19:03:11.
