data_PCOD9544998
_publ_section_title
;
Structure prediction by ZEFSAII (Michael W. Deem and Ramdas Pophale) SiO2 
 PCOD9544998
Probable space group: P 42/N
;
_chemical_formula_sum "Si O2"
_cell_formula_units_Z 52
_cell_length_a 14.938429
_cell_length_b 14.938429
_cell_length_c 10.012271
_cell_angle_alpha 90.000000
_cell_angle_beta 90.000000
_cell_angle_gamma 90.000000
_cell_volume 2234.304965
_symmetry_space_group_name_H-M "P 42/N"
_symmetry_group_IT_number 86
_space_group.IT_coordinate_system_code '2'
_symmetry_cell_setting 'tetragonal'
loop_
_space_group_symop_operation_xyz
x,y,z
-y,1/2+x,1/2+z
1/2-x,1/2-y,z
1/2+y,-x,1/2+z
-x,-y,-z
y,1/2-x,1/2-z
1/2+x,1/2+y,-z
1/2-y,x,1/2-z
loop_
_atom_site_type_symbol
_atom_site_label
_atom_site_fract_x
_atom_site_fract_y
_atom_site_fract_z
Si Si1 0.137545 0.749775 0.391364
Si Si2 0.049187 0.043486 0.655430
Si Si3 0.750000 0.250000 0.358969
Si Si4 0.038265 0.644016 0.930006
Si Si5 0.730154 0.951517 0.008027
Si Si6 0.756414 0.900619 0.731182
Si Si7 0.343110 0.162340 0.681100
O O1 0.177716 0.714632 0.532547
O O2 0.176522 0.718122 0.249899
O O3 0.159522 0.857152 0.398589
O O4 0.032536 0.735654 0.401697
O O5 0.057617 0.128016 0.552557
O O6 0.083200 0.088217 0.790823
O O7 0.946103 0.015831 0.655476
O O8 0.111442 0.971293 0.583278
O O9 0.965624 0.719349 0.892308
O O10 0.786456 0.863477 0.045530
O O11 0.744059 0.968609 0.854300
O O12 0.838533 0.831947 0.759295
O O13 0.241034 0.137365 0.708830
#
# Coordination Sequence:
#
# PCOD9544998 Si02
#       7
#     8   8   4   8   8   8   8
#     4  10  22  39  65  83 122 150 205 249 301 358
#     4   9  19  36  56  80 110 148 195 230 291 350
#     4  10  22  42  58  94 108 158 198 252 304 352
#     4  10  20  37  57  82 111 156 192 239 288 358
#     4  10  20  37  56  88 115 153 192 244 293 360
#     4  11  23  36  57  87 125 160 199 244 300 360
#     4   9  19  32  56  83 117 151 191 244 293 350
#
# _framework density 23.273455999999999
#
# number of rings (size 3 to 8) (size 9 to 14) (size 15 to 20)
#    0.000    2.154    1.538    0.923    4.308    1.231 
#    0.000    0.769    0.000    0.000    0.000    0.000 
#    0.000    0.000    0.000    0.000    0.000    0.000 
#
# Total GULP energy -289718.155723 kJ/mol
# GULP energy per Si atom -5571.502995 kJ/mol
# Density = 2.322048 g / cm^3
# Si number density = 23.273456 Si / 1000 Ang^3
#
#
#
# Elastic Constant Matrix: (Units=GPa)
#
#
# Indices 1 2 3 4 5 6 
#
# 1 48.5038 -6.8167 7.6903 0.0000 0.0000 2.2472
# 2 -6.8167 48.5038 7.6903 0.0000 0.0000 -2.2472
# 3 7.6903 7.6903 81.9243 0.0000 0.0000 0.0000
# 4 0.0000 0.0000 0.0000 22.5165 0.0000 0.0000
# 5 0.0000 0.0000 0.0000 0.0000 22.5165 0.0000
# 6 2.2472 -2.2472 0.0000 0.0000 0.0000 25.6120
#
#
#
# Elastic Compliance Matrix: (Units=1/GPa)
#
#
# Indices 1 2 3 4 5 6 
#
# 1 0.021528 0.003321 -0.002333 0.000000 0.000000 -0.001597
# 2 0.003321 0.021528 -0.002333 0.000000 0.000000 0.001597
# 3 -0.002333 -0.002333 0.012644 0.000000 0.000000 0.000000
# 4 0.000000 0.000000 0.000000 0.044412 0.000000 0.000000
# 5 0.000000 0.000000 0.000000 0.000000 0.044412 0.000000
# 6 -0.001597 0.001597 0.000000 0.000000 0.000000 0.039325
#
#
# Mechanical properties :
#
#
# Convention : Reuss Voigt Hill
#
# Bulk Modulus (GPa) = 18.86377 21.78441 20.32409
# Shear Modulus (GPa) = 24.48506 25.48685 24.98596
#
# Velocity S-wave (km/s) = 3.24707 3.31283 3.28011
# Velocity P-wave (km/s) = 4.70965 4.90037 4.80595
#
# Compressibility (1/GPa) = 0.05301168
#
# Stress axis : x y z
#
# Youngs Moduli (GPa) = 46.45214 46.45214 79.08701
#
# Poissons Ratio (x) = -0.15428 0.18448
# Poissons Ratio (y) = -0.15428 0.18448
# Poissons Ratio (z) = 0.10835 0.10835
#
# Static dielectric constant tensor:
#      x y z
#    x 1.903170 0.000000 0.000000 
#    y 0.000000 1.903170 0.000000 
#    z 0.000000 0.000000 1.864910 
# 
# From -- ./inp_files/1406.got.cif
#   From: 2010.05.17/outbox.cif.g08.bks.cpg/sg86_1_cif.got.tgz:1406.got - 2010.06.03 19:03:11.
