data_PCOD9544569
_publ_section_title
;
Structure prediction by ZEFSAII (Michael W. Deem and Ramdas Pophale) SiO2 
 PCOD9544569
Probable space group: P 4/N
;
_chemical_formula_sum "Si O2"
_cell_formula_units_Z 40
_cell_length_a 14.342237
_cell_length_b 14.342237
_cell_length_c 9.417187
_cell_angle_alpha 90.000000
_cell_angle_beta 90.000000
_cell_angle_gamma 90.000000
_cell_volume 1937.113126
_symmetry_space_group_name_H-M "P 4/N"
_symmetry_group_IT_number 85
_symmetry_cell_setting 'tetragonal'
loop_
_space_group_symop_operation_xyz
x,y,z
1/2-y,x,z
1/2-x,1/2-y,z
y,1/2-x,z
-x,-y,-z
1/2+y,-x,-z
1/2+x,1/2+y,-z
-y,1/2+x,-z
loop_
_atom_site_type_symbol
_atom_site_label
_atom_site_fract_x
_atom_site_fract_y
_atom_site_fract_z
Si Si1 0.964577 0.284900 0.862967
Si Si2 0.406867 0.544924 0.443804
Si Si3 0.786550 0.900899 0.393151
Si Si4 0.914041 0.365637 0.150865
Si Si5 0.848432 0.196491 0.341629
O O1 0.915298 0.183892 0.889552
O O2 0.890089 0.335190 0.762441
O O3 0.056511 0.283843 0.766280
O O4 0.970212 0.339334 0.011016
O O5 0.500000 0.500000 0.500000
O O6 0.321142 0.481207 0.499259
O O7 0.426837 0.543661 0.275625
O O8 0.388710 0.647595 0.514970
O O9 0.683917 0.858783 0.414724
O O10 0.902735 0.272031 0.247010
O O11 0.750000 0.250000 0.359254
#
# Coordination Sequence:
#
# PCOD9544569 Si02
#       5
#     8   8   8   8   8
#     4  10  20  39  60  95 125 167 208 260 330 388
#     4  11  25  40  63  98 132 164 218 274 329 386
#     4  10  23  46  67  84 124 178 222 261 320 401
#     4  11  21  36  62  92 133 161 209 271 326 390
#     4   9  21  35  60  93 128 167 206 258 330 393
#
# _framework density 20.649284999999999
#
# number of rings (size 3 to 8) (size 9 to 14) (size 15 to 20)
#    0.000    1.800    2.000    1.200   11.200    0.000 
#    3.600    3.000    0.000    2.400    0.000    0.000 
#    0.000    0.000    0.000    0.000    0.000    0.000 
#
# Total GULP energy -222947.784958 kJ/mol
# GULP energy per Si atom -5573.694624 kJ/mol
# Density = 2.060229 g / cm^3
# Si number density = 20.649285 Si / 1000 Ang^3
#
#
#
# Elastic Constant Matrix: (Units=GPa)
#
#
# Indices 1 2 3 4 5 6 
#
# 1 54.4120 20.5991 8.3381 0.0000 0.0000 2.5916
# 2 20.5991 54.4120 8.3381 0.0000 0.0000 -2.5916
# 3 8.3381 8.3381 131.4039 0.0000 0.0000 0.0000
# 4 0.0000 0.0000 0.0000 22.3934 0.0000 0.0000
# 5 0.0000 0.0000 0.0000 0.0000 22.3934 0.0000
# 6 2.5916 -2.5916 0.0000 0.0000 0.0000 24.0114
#
#
#
# Elastic Compliance Matrix: (Units=1/GPa)
#
#
# Indices 1 2 3 4 5 6 
#
# 1 0.021797 -0.008275 -0.000858 0.000000 0.000000 -0.003246
# 2 -0.008275 0.021797 -0.000858 0.000000 0.000000 0.003246
# 3 -0.000858 -0.000858 0.007719 0.000000 0.000000 0.000000
# 4 0.000000 0.000000 0.000000 0.044656 0.000000 0.000000
# 5 0.000000 0.000000 0.000000 0.000000 0.044656 0.000000
# 6 -0.003246 0.003246 0.000000 0.000000 0.000000 0.042348
#
#
# Mechanical properties :
#
#
# Convention : Reuss Voigt Hill
#
# Bulk Modulus (GPa) = 31.91715 34.97538 33.44626
# Shear Modulus (GPa) = 23.43033 27.28981 25.36007
#
# Velocity S-wave (km/s) = 3.37216 3.63931 3.50828
# Velocity P-wave (km/s) = 5.53645 5.88507 5.71342
#
# Compressibility (1/GPa) = 0.03133112
#
# Stress axis : x y z
#
# Youngs Moduli (GPa) = 45.87773 45.87773 129.55026
#
# Poissons Ratio (x) = 0.37964 0.11116
# Poissons Ratio (y) = 0.37964 0.11116
# Poissons Ratio (z) = 0.03936 0.03936
#
# Static dielectric constant tensor:
#      x y z
#    x 1.797150 0.000000 0.000000 
#    y 0.000000 1.797150 0.000000 
#    z 0.000000 0.000000 1.783360 
# 
# From -- ./inp_files/938.got.cif
#   From: 2010.05.17/outbox.cif.g08.bks.cpg/sg85_cif.got.tgz:938.got - 2010.06.03 19:01:16.
