data_PCOD9544195
_publ_section_title
;
Structure prediction by ZEFSAII (Michael W. Deem and Ramdas Pophale) SiO2 
 PCOD9544195
Probable space group: P 42/M
;
_chemical_formula_sum "Si O2"
_cell_formula_units_Z 56
_cell_length_a 14.322552
_cell_length_b 14.322552
_cell_length_c 13.108500
_cell_angle_alpha 90.000000
_cell_angle_beta 90.000000
_cell_angle_gamma 90.000000
_cell_volume 2689.018647
_symmetry_space_group_name_H-M "P 42/M"
_symmetry_group_IT_number 84
_symmetry_cell_setting 'tetragonal'
loop_
_space_group_symop_operation_xyz
x,y,z
-y,x,1/2+z
-x,-y,z
y,-x,1/2+z
-x,-y,-z
y,-x,1/2-z
x,y,-z
-y,x,1/2-z
loop_
_atom_site_type_symbol
_atom_site_label
_atom_site_fract_x
_atom_site_fract_y
_atom_site_fract_z
Si Si1 0.015922 0.112532 0.382296
Si Si2 0.101456 0.265503 0.239834
Si Si3 0.790566 0.361042 0.816454
Si Si4 0.603222 0.983588 0.613446
Si Si5 0.633591 0.222255 0.116250
Si Si6 0.500789 0.352201 0.239084
Si Si7 0.833777 0.248990 0.617551
O O1 0.051403 0.116782 0.500000
O O2 0.080845 0.169711 0.302529
O O3 0.923039 0.178193 0.379474
O O4 0.000000 0.000000 0.362546
O O5 0.131834 0.348804 0.315222
O O6 0.182437 0.249034 0.157088
O O7 0.016869 0.307317 0.176637
O O8 0.873935 0.385433 0.888728
O O9 0.729843 0.277561 0.862631
O O10 0.722964 0.449241 0.807583
O O11 0.829736 0.329955 0.703906
O O12 0.604438 0.025520 0.500000
O O13 0.500000 0.000000 0.658882
O O14 0.553542 0.292696 0.153632
O O15 0.621290 0.197500 0.000000
O O16 0.417816 0.422553 0.206243
O O17 0.824374 0.280619 0.500000
#
# Coordination Sequence:
#
# PCOD9544195 Si02
#       7
#     8   8   8   8   8   8   8
#     4  10  22  38  59  88 123 166 221 276 328 391
#     4  11  22  38  61  86 124 169 212 271 324 381
#     4  10  20  39  60  85 123 161 200 254 319 380
#     4  11  23  39  61  88 119 162 215 265 322 391
#     4  10  21  37  61  91 122 160 203 251 315 383
#     4   9  19  38  63  90 122 156 195 247 311 381
#     4  10  22  37  57  85 118 163 212 260 322 386
#
# _framework density 20.825441000000001
#
# number of rings (size 3 to 8) (size 9 to 14) (size 15 to 20)
#    0.000    1.857    1.429    2.143    2.000    0.571 
#    0.000    9.286    0.000   11.143    0.000    0.000 
#    0.000    0.000    0.000    0.000    0.000    0.000 
#
# Total GULP energy -311966.430003 kJ/mol
# GULP energy per Si atom -5570.829107 kJ/mol
# Density = 2.077804 g / cm^3
# Si number density = 20.825441 Si / 1000 Ang^3
#
#
#
# Elastic Constant Matrix: (Units=GPa)
#
#
# Indices 1 2 3 4 5 6 
#
# 1 48.8684 25.8085 21.7038 0.0000 0.0000 9.0769
# 2 25.8085 48.8684 21.7038 0.0000 0.0000 -9.0769
# 3 21.7038 21.7038 86.3917 0.0000 0.0000 0.0000
# 4 0.0000 0.0000 0.0000 25.8053 0.0000 0.0000
# 5 0.0000 0.0000 0.0000 0.0000 25.8053 0.0000
# 6 9.0769 -9.0769 0.0000 0.0000 0.0000 12.0300
#
#
#
# Elastic Compliance Matrix: (Units=1/GPa)
#
#
# Indices 1 2 3 4 5 6 
#
# 1 0.061244 -0.045563 -0.003939 0.000000 0.000000 -0.080588
# 2 -0.045563 0.061244 -0.003939 0.000000 0.000000 0.080588
# 3 -0.003939 -0.003939 0.013555 0.000000 0.000000 0.000000
# 4 0.000000 0.000000 0.000000 0.038752 0.000000 0.000000
# 5 0.000000 0.000000 0.000000 0.000000 0.038752 0.000000
# 6 -0.080588 0.080588 0.000000 0.000000 0.000000 0.204735
#
#
# Mechanical properties :
#
#
# Convention : Reuss Voigt Hill
#
# Bulk Modulus (GPa) = 34.29520 35.84008 35.06764
# Shear Modulus (GPa) = 9.34782 20.38897 14.86840
#
# Velocity S-wave (km/s) = 2.12094 3.13236 2.67489
# Velocity P-wave (km/s) = 4.74358 5.50721 5.13960
#
# Compressibility (1/GPa) = 0.02915860
#
# Stress axis : x y z
#
# Youngs Moduli (GPa) = 16.32814 16.32814 73.77591
#
# Poissons Ratio (x) = 0.74396 0.29064
# Poissons Ratio (y) = 0.74396 0.29064
# Poissons Ratio (z) = 0.06432 0.06432
#
# Static dielectric constant tensor:
#      x y z
#    x 1.804820 0.000000 0.000000 
#    y 0.000000 1.804820 0.000000 
#    z 0.000000 0.000000 1.757960 
# 
# From -- ./inp_files/2254.got.cif
#   From: 2010.05.17/outbox.cif.g08.bks.cpg/sg84_2_cif.got.tgz:2254.got - 2010.06.03 18:57:40.
