data_PCOD9544362
_publ_section_title
;
Structure prediction by ZEFSAII (Michael W. Deem and Ramdas Pophale) SiO2 
 PCOD9544362
Probable space group: P 42/M
;
_chemical_formula_sum "Si O2"
_cell_formula_units_Z 40
_cell_length_a 15.090305
_cell_length_b 15.090305
_cell_length_c 8.723961
_cell_angle_alpha 90.000000
_cell_angle_beta 90.000000
_cell_angle_gamma 90.000000
_cell_volume 1986.596888
_symmetry_space_group_name_H-M "P 42/M"
_symmetry_group_IT_number 84
_symmetry_cell_setting 'tetragonal'
loop_
_space_group_symop_operation_xyz
x,y,z
-y,x,1/2+z
-x,-y,z
y,-x,1/2+z
-x,-y,-z
y,-x,1/2-z
x,y,-z
-y,x,1/2-z
loop_
_atom_site_type_symbol
_atom_site_label
_atom_site_fract_x
_atom_site_fract_y
_atom_site_fract_z
Si Si1 0.894248 0.080942 0.679060
Si Si2 0.950383 0.407264 0.816647
Si Si3 0.384086 0.718899 0.819017
Si Si4 0.713436 0.098768 0.179457
Si Si5 0.581393 0.753092 0.183226
O O1 0.913078 0.092806 0.500000
O O2 0.886239 0.976741 0.720577
O O3 0.801994 0.122783 0.728597
O O4 0.849829 0.406686 0.757683
O O5 0.000000 0.500000 0.778461
O O6 0.009074 0.330212 0.741241
O O7 0.951236 0.397212 0.000000
O O8 0.355266 0.821144 0.801709
O O9 0.315354 0.657203 0.731044
O O10 0.485940 0.713327 0.768616
O O11 0.378299 0.697248 0.000000
O O12 0.735170 0.089595 0.000000
O O13 0.579524 0.764610 0.000000
#
# Coordination Sequence:
#
# PCOD9544362 Si02
#       5
#     8   8   8   8   8
#     4  11  23  41  62  88 124 166 213 258 313 376
#     4  11  23  40  65  95 128 163 204 256 314 374
#     4  10  24  44  65  93 129 167 214 269 322 380
#     4  11  23  41  64  90 126 167 212 263 316 378
#     4  11  24  43  68  96 128 170 214 263 322 383
#
# _framework density 20.134934000000001
#
# number of rings (size 3 to 8) (size 9 to 14) (size 15 to 20)
#    0.000    1.200    2.000    4.200    2.800    4.400 
#    0.000    2.000    0.000    0.000    0.000    0.000 
#    0.000    0.000    0.000    0.000    0.000    0.000 
#
# Total GULP energy -223728.641524 kJ/mol
# GULP energy per Si atom -5593.216038 kJ/mol
# Density = 2.008911 g / cm^3
# Si number density = 20.134934 Si / 1000 Ang^3
#
#
#
# Elastic Constant Matrix: (Units=GPa)
#
#
# Indices 1 2 3 4 5 6 
#
# 1 66.9587 28.3942 24.5734 0.0000 0.0000 -10.8993
# 2 28.3942 66.9587 24.5734 0.0000 0.0000 10.8993
# 3 24.5734 24.5734 52.3150 0.0000 0.0000 0.0000
# 4 0.0000 0.0000 0.0000 29.9736 0.0000 0.0000
# 5 0.0000 0.0000 0.0000 0.0000 29.9736 0.0000
# 6 -10.8993 10.8993 0.0000 0.0000 0.0000 29.2288
#
#
#
# Elastic Compliance Matrix: (Units=1/GPa)
#
#
# Indices 1 2 3 4 5 6 
#
# 1 0.023347 -0.009509 -0.006500 0.000000 0.000000 0.012252
# 2 -0.009509 0.023347 -0.006500 0.000000 0.000000 -0.012252
# 3 -0.006500 -0.006500 0.025221 0.000000 0.000000 0.000000
# 4 0.000000 0.000000 0.000000 0.033363 0.000000 0.000000
# 5 0.000000 0.000000 0.000000 0.000000 0.033363 0.000000
# 6 0.012252 -0.012252 0.000000 0.000000 0.000000 0.043350
#
#
# Mechanical properties :
#
#
# Convention : Reuss Voigt Hill
#
# Bulk Modulus (GPa) = 37.17877 37.92383 37.55130
# Shear Modulus (GPa) = 21.18882 25.08128 23.13505
#
# Velocity S-wave (km/s) = 3.24750 3.53322 3.39337
# Velocity P-wave (km/s) = 5.70671 5.95991 5.83469
#
# Compressibility (1/GPa) = 0.02689707
#
# Stress axis : x y z
#
# Youngs Moduli (GPa) = 42.83257 42.83257 39.64935
#
# Poissons Ratio (x) = 0.40731 0.25771
# Poissons Ratio (y) = 0.40731 0.25771
# Poissons Ratio (z) = 0.27840 0.27840
#
# Static dielectric constant tensor:
#      x y z
#    x 1.705340 0.000000 0.000000 
#    y 0.000000 1.705340 0.000000 
#    z 0.000000 0.000000 1.679730 
# 
# From -- ./inp_files/801.got.cif
#   From: 2010.05.17/outbox.cif.g08.bks.cpg/sg84_1_cif.got.tgz:801.got - 2010.06.03 18:57:40.
