data_PCOD9544386
_publ_section_title
;
Structure prediction by ZEFSAII (Michael W. Deem and Ramdas Pophale) SiO2 
 PCOD9544386
Probable space group: P 42/M
;
_chemical_formula_sum "Si O2"
_cell_formula_units_Z 40
_cell_length_a 8.575941
_cell_length_b 8.575941
_cell_length_c 24.094571
_cell_angle_alpha 90.000000
_cell_angle_beta 90.000000
_cell_angle_gamma 90.000000
_cell_volume 1772.077728
_symmetry_space_group_name_H-M "P 42/M"
_symmetry_group_IT_number 84
_symmetry_cell_setting 'tetragonal'
loop_
_space_group_symop_operation_xyz
x,y,z
-y,x,1/2+z
-x,-y,z
y,-x,1/2+z
-x,-y,-z
y,-x,1/2-z
x,y,-z
-y,x,1/2-z
loop_
_atom_site_type_symbol
_atom_site_label
_atom_site_fract_x
_atom_site_fract_y
_atom_site_fract_z
Si Si1 0.319806 0.651224 0.564392
Si Si2 0.416143 0.272794 0.267800
Si Si3 0.657070 0.693084 0.604785
Si Si4 0.819348 0.009108 0.908596
Si Si5 0.779288 0.959023 0.220997
O O1 0.330252 0.605434 0.500000
O O2 0.485930 0.734606 0.579103
O O3 0.322987 0.493797 0.600545
O O4 0.152537 0.736657 0.572069
O O5 0.327103 0.407640 0.234129
O O6 0.355083 0.261339 0.330511
O O7 0.383861 0.116525 0.234919
O O8 0.816253 0.758256 0.576777
O O9 0.800913 0.004328 0.842009
O O10 0.000000 0.000000 0.924337
O O11 0.904288 0.826170 0.237476
#
# Coordination Sequence:
#
# PCOD9544386 Si02
#       5
#     8   8   8   8   8
#     4  11  26  46  70  95 127 175 234 295 345 399
#     4  11  21  34  57  92 127 160 206 266 324 394
#     4  11  22  44  68  96 131 175 229 281 344 410
#     4  12  24  42  68  99 138 178 222 275 341 417
#     4  11  20  39  59  87 130 169 207 243 312 403
#
# _framework density 22.572375000000001
#
# number of rings (size 3 to 8) (size 9 to 14) (size 15 to 20)
#    0.000    0.800    4.000    6.600    0.000    4.400 
#    0.000    5.000    0.000    0.000    0.000    0.000 
#    0.000    0.000    0.000    0.000    0.000    0.000 
#
# Total GULP energy -223344.143308 kJ/mol
# GULP energy per Si atom -5583.603583 kJ/mol
# Density = 2.252100 g / cm^3
# Si number density = 22.572375 Si / 1000 Ang^3
#
#
#
# Elastic Constant Matrix: (Units=GPa)
#
#
# Indices 1 2 3 4 5 6 
#
# 1 40.7009 166.4783 -12.0688 0.0000 0.0000 4.2019
# 2 166.4783 40.7009 -12.0688 0.0000 0.0000 -4.2019
# 3 -12.0688 -12.0688 37.1605 0.0000 0.0000 0.0000
# 4 0.0000 0.0000 0.0000 11.7399 0.0000 0.0000
# 5 0.0000 0.0000 0.0000 0.0000 11.7399 0.0000
# 6 4.2019 -4.2019 0.0000 0.0000 0.0000 47.3531
#
#
#
# Elastic Compliance Matrix: (Units=1/GPa)
#
#
# Indices 1 2 3 4 5 6 
#
# 1 -0.001444 0.006460 0.001629 0.000000 0.000000 0.000701
# 2 0.006460 -0.001444 0.001629 0.000000 0.000000 -0.000701
# 3 0.001629 0.001629 0.027969 0.000000 0.000000 0.000000
# 4 0.000000 0.000000 0.000000 0.085179 0.000000 0.000000
# 5 0.000000 0.000000 0.000000 0.000000 0.085179 0.000000
# 6 0.000701 -0.000701 0.000000 0.000000 0.000000 0.020993
#
#
# Mechanical properties :
#
#
# Convention : Reuss Voigt Hill
#
# Bulk Modulus (GPa) = 22.46249 44.80488 33.63368
# Shear Modulus (GPa) = 23.60319 12.58136 18.09228
#
# Velocity S-wave (km/s) = 3.23719 2.36345 2.83419
# Velocity P-wave (km/s) = 4.89341 5.22880 5.06388
#
# Compressibility (1/GPa) = 0.04451866
#
# Stress axis : x y z
#
# Youngs Moduli (GPa) = -692.72698 -692.72698 35.75442
#
# Poissons Ratio (x) = 4.47510 -0.05825
# Poissons Ratio (y) = 4.47510 -0.05825
# Poissons Ratio (z) = 1.12862 1.12862
#
# Static dielectric constant tensor:
#      x y z
#    x 1.924620 0.000000 0.000000 
#    y 0.000000 1.924620 0.000000 
#    z 0.000000 0.000000 1.792840 
# 
# From -- ./inp_files/4804.got.cif
#   From: 2010.05.17/outbox.cif.g08.bks.cpg/sg84_3_cif.got.tgz:4804.got - 2010.06.03 18:57:40.
