data_PCOD9544084
_publ_section_title
;
Structure prediction by ZEFSAII (Michael W. Deem and Ramdas Pophale) SiO2 
 PCOD9544084
Probable space group: P 42/M
;
_chemical_formula_sum "Si O2"
_cell_formula_units_Z 40
_cell_length_a 14.455017
_cell_length_b 14.455017
_cell_length_c 10.266742
_cell_angle_alpha 90.000000
_cell_angle_beta 90.000000
_cell_angle_gamma 90.000000
_cell_volume 2145.210243
_symmetry_space_group_name_H-M "P 42/M"
_symmetry_group_IT_number 84
_symmetry_cell_setting 'tetragonal'
loop_
_space_group_symop_operation_xyz
x,y,z
-y,x,1/2+z
-x,-y,z
y,-x,1/2+z
-x,-y,-z
y,-x,1/2-z
x,y,-z
-y,x,1/2-z
loop_
_atom_site_type_symbol
_atom_site_label
_atom_site_fract_x
_atom_site_fract_y
_atom_site_fract_z
Si Si1 0.282406 0.635930 0.153124
Si Si2 0.399166 0.957588 0.345840
Si Si3 0.101959 0.742037 0.242267
Si Si4 0.071667 0.871349 0.000000
Si Si5 0.262135 0.415808 0.850210
Si Si6 0.858069 0.918608 0.000000
O O1 0.186609 0.674067 0.211678
O O2 0.361549 0.679791 0.242720
O O3 0.281413 0.525035 0.158906
O O4 0.289770 0.662104 0.000000
O O5 0.383056 0.977663 0.500000
O O6 0.399763 0.847493 0.328830
O O7 0.500000 0.000000 0.314170
O O8 0.319652 0.009315 0.266349
O O9 0.108483 0.798160 0.375200
O O10 0.101038 0.816701 0.127551
O O11 0.959962 0.874547 0.000000
O O12 0.117385 0.972313 0.000000
O O13 0.283099 0.386413 0.000000
#
# Coordination Sequence:
#
# PCOD9544084 Si02
#       6
#     8   8   8   4   8   4
#     4  11  24  44  65  98 127 167 214 265 328 382
#     4  10  19  38  65  94 123 164 210 258 316 376
#     4  12  23  40  68  94 127 171 219 264 315 381
#     4  11  24  46  61  86 134 181 216 257 309 384
#     4  10  24  42  69  94 128 167 214 267 319 389
#     4  11  28  40  59  96 136 171 216 259 319 376
#
# _framework density 18.646191999999999
#
# number of rings (size 3 to 8) (size 9 to 14) (size 15 to 20)
#    0.000    1.200    4.000    1.200    7.000    2.800 
#    0.000    2.500    0.000    0.000    0.000    0.000 
#    0.000    0.000    0.000    0.000    0.000    0.000 
#
# Total GULP energy -223614.087473 kJ/mol
# GULP energy per Si atom -5590.352187 kJ/mol
# Density = 1.860375 g / cm^3
# Si number density = 18.646192 Si / 1000 Ang^3
#
#
#
# Elastic Constant Matrix: (Units=GPa)
#
#
# Indices 1 2 3 4 5 6 
#
# 1 70.3818 30.9536 53.0837 0.0000 0.0000 9.8120
# 2 30.9536 70.3818 53.0837 0.0000 0.0000 -9.8120
# 3 53.0837 53.0837 144.0973 0.0000 0.0000 0.0000
# 4 0.0000 0.0000 0.0000 22.8192 0.0000 0.0000
# 5 0.0000 0.0000 0.0000 0.0000 22.8192 0.0000
# 6 9.8120 -9.8120 0.0000 0.0000 0.0000 32.3126
#
#
#
# Elastic Compliance Matrix: (Units=1/GPa)
#
#
# Indices 1 2 3 4 5 6 
#
# 1 0.022974 -0.006904 -0.005920 0.000000 0.000000 -0.009073
# 2 -0.006904 0.022974 -0.005920 0.000000 0.000000 0.009073
# 3 -0.005920 -0.005920 0.011302 0.000000 0.000000 0.000000
# 4 0.000000 0.000000 0.000000 0.043823 0.000000 0.000000
# 5 0.000000 0.000000 0.000000 0.000000 0.043823 0.000000
# 6 -0.009073 0.009073 0.000000 0.000000 0.000000 0.036458
#
#
# Mechanical properties :
#
#
# Convention : Reuss Voigt Hill
#
# Bulk Modulus (GPa) = 50.60183 62.12253 56.36218
# Shear Modulus (GPa) = 22.17987 25.43954 23.80970
#
# Velocity S-wave (km/s) = 3.45267 3.69769 3.57728
# Velocity P-wave (km/s) = 6.56440 7.18466 6.88152
#
# Compressibility (1/GPa) = 0.01976213
#
# Stress axis : x y z
#
# Youngs Moduli (GPa) = 43.52654 43.52654 88.48242
#
# Poissons Ratio (x) = 0.30049 0.52384
# Poissons Ratio (y) = 0.30049 0.52384
# Poissons Ratio (z) = 0.25769 0.25769
#
# Static dielectric constant tensor:
#      x y z
#    x 1.634140 0.000000 0.000000 
#    y 0.000000 1.634140 0.000000 
#    z 0.000000 0.000000 1.605260 
# 
# From -- ./inp_files/838.got.cif
#   From: 2010.05.17/outbox.cif.g08.bks.cpg/sg84_1_cif.got.tgz:838.got - 2010.06.03 18:57:40.
