data_PCOD9544813
_publ_section_title
;
Structure prediction by ZEFSAII (Michael W. Deem and Ramdas Pophale) SiO2 
 PCOD9544813
Probable space group: P 4/N
;
_chemical_formula_sum "Si O2"
_cell_formula_units_Z 36
_cell_length_a 8.460207
_cell_length_b 8.460207
_cell_length_c 23.004982
_cell_angle_alpha 90.000000
_cell_angle_beta 90.000000
_cell_angle_gamma 90.000000
_cell_volume 1646.583944
_symmetry_space_group_name_H-M "P 4/N"
_symmetry_group_IT_number 85
_symmetry_cell_setting 'tetragonal'
loop_
_space_group_symop_operation_xyz
x,y,z
1/2-y,x,z
1/2-x,1/2-y,z
y,1/2-x,z
-x,-y,-z
1/2+y,-x,-z
1/2+x,1/2+y,-z
-y,1/2+x,-z
loop_
_atom_site_type_symbol
_atom_site_label
_atom_site_fract_x
_atom_site_fract_y
_atom_site_fract_z
Si Si1 0.750000 0.250000 0.000000
Si Si2 0.750000 0.750000 0.175410
Si Si3 0.664302 0.504469 0.916446
Si Si4 0.082881 0.039878 0.313415
Si Si5 0.068846 0.056776 0.439444
Si Si6 0.343393 0.911548 0.797789
O O1 0.646255 0.139706 0.042473
O O2 0.554747 0.762211 0.177832
O O3 0.844759 0.556179 0.927888
O O4 0.641019 0.459185 0.849529
O O5 0.274884 0.037952 0.309908
O O6 0.019931 0.985780 0.376883
O O7 0.029614 0.933628 0.260039
O O8 0.256911 0.035428 0.438835
O O9 0.000000 0.000000 0.500000
O O10 0.250000 0.750000 0.783025
#
# Coordination Sequence:
#
# PCOD9544813 Si02
#       6
#     2   2   8   8   8   8
#     4  12  24  44  68 104 140 192 244 314 360 444
#     4  12  28  44  72 112 144 184 236 300 366 432
#     4  11  24  44  69 101 139 189 246 297 374 446
#     4   9  18  37  65  89 125 175 223 275 345 424
#     4   9  19  38  58  85 121 166 216 267 332 403
#     4  12  24  45  68 103 142 181 232 299 369 430
#
# _framework density 21.863448000000002
#
# number of rings (size 3 to 8) (size 9 to 14) (size 15 to 20)
#    0.000    1.556    1.111    6.000    0.000    2.222 
#   12.000    0.000    0.000    0.000    0.000    0.000 
#    0.000    0.000    0.000    0.000    0.000    0.000 
#
# Total GULP energy -200522.564884 kJ/mol
# GULP energy per Si atom -5570.071247 kJ/mol
# Density = 2.181369 g / cm^3
# Si number density = 21.863448 Si / 1000 Ang^3
#
#
#
# Elastic Constant Matrix: (Units=GPa)
#
#
# Indices 1 2 3 4 5 6 
#
# 1 74.4490 -19.7752 15.6938 0.0000 0.0000 -10.5776
# 2 -19.7752 74.4490 15.6938 0.0000 0.0000 10.5776
# 3 15.6938 15.6938 140.3903 0.0000 0.0000 0.0000
# 4 0.0000 0.0000 0.0000 32.8391 0.0000 0.0000
# 5 0.0000 0.0000 0.0000 0.0000 32.8391 0.0000
# 6 -10.5776 10.5776 0.0000 0.0000 0.0000 -22.8756
#
#
#
# Elastic Compliance Matrix: (Units=1/GPa)
#
#
# Indices 1 2 3 4 5 6 
#
# 1 0.014580 0.004965 -0.002185 0.000000 0.000000 -0.004446
# 2 0.004965 0.014580 -0.002185 0.000000 0.000000 0.004446
# 3 -0.002185 -0.002185 0.007611 0.000000 0.000000 0.000000
# 4 0.000000 0.000000 0.000000 0.030451 0.000000 0.000000
# 5 0.000000 0.000000 0.000000 0.000000 0.030451 0.000000
# 6 -0.004446 0.004446 0.000000 0.000000 0.000000 -0.039603
#
#
# Mechanical properties :
#
#
# Convention : Reuss Voigt Hill
#
# Bulk Modulus (GPa) = 26.34260 34.72369 30.53314
# Shear Modulus (GPa) = 71.90735 27.07226 49.48981
#
# Velocity S-wave (km/s) = 5.74114 3.52269 4.76288
# Velocity P-wave (km/s) = 7.48481 5.69757 6.65149
#
# Compressibility (1/GPa) = 0.03796133
#
# Stress axis : x y z
#
# Youngs Moduli (GPa) = 68.58852 68.58852 131.38061
#
# Poissons Ratio (x) = -0.34054 0.28705
# Poissons Ratio (y) = -0.34054 0.28705
# Poissons Ratio (z) = 0.14985 0.14985
#
# Static dielectric constant tensor:
#      x y z
#    x 1.828620 0.000000 0.000000 
#    y 0.000000 1.828620 0.000000 
#    z 0.000000 0.000000 1.829900 
# 
# From -- ./inp_files/2197.got.cif
#   From: 2010.05.17/outbox.cif.g08.bks.cpg/sg85_cif.got.tgz:2197.got - 2010.06.03 19:01:16.
