data_PCOD9544369
_publ_section_title
;
Structure prediction by ZEFSAII (Michael W. Deem and Ramdas Pophale) SiO2 
 PCOD9544369
Probable space group: P 42/M
;
_chemical_formula_sum "Si O2"
_cell_formula_units_Z 16
_cell_length_a 5.031485
_cell_length_b 5.031485
_cell_length_c 26.447631
_cell_angle_alpha 90.000000
_cell_angle_beta 90.000000
_cell_angle_gamma 90.000000
_cell_volume 669.544029
_symmetry_space_group_name_H-M "P 42/M"
_symmetry_group_IT_number 84
_symmetry_cell_setting 'tetragonal'
loop_
_space_group_symop_operation_xyz
x,y,z
-y,x,1/2+z
-x,-y,z
y,-x,1/2+z
-x,-y,-z
y,-x,1/2-z
x,y,-z
-y,x,1/2-z
loop_
_atom_site_type_symbol
_atom_site_label
_atom_site_fract_x
_atom_site_fract_y
_atom_site_fract_z
Si Si1 0.000000 0.000000 0.750000
Si Si2 0.310135 0.246148 0.161102
Si Si3 0.500000 0.500000 0.000000
Si Si4 0.000000 0.500000 0.923011
O O1 0.801980 0.155538 0.713148
O O2 0.500000 0.500000 0.163909
O O3 0.100039 0.277565 0.115922
O O4 0.500000 0.000000 0.151376
O O5 0.736317 0.448101 0.043376
#
# Coordination Sequence:
#
# PCOD9544369 Si02
#       4
#     2   8   2   4
#     4  12  32  44  84 122 168 224 276 340 424 506
#     4  12  29  52  83 121 168 222 275 349 414 515
#     4  10  24  50  90 118 166 220 282 364 414 502
#     4  11  24  54  82 124 164 218 290 343 432 490
#
# _framework density 23.896864000000001
#
# number of rings (size 3 to 8) (size 9 to 14) (size 15 to 20)
#    0.000    0.500    2.500    3.000   10.500    0.000 
#    0.000    7.500    0.000    0.000    0.000    0.000 
#    0.000    0.000    0.000    0.000    0.000    0.000 
#
# Total GULP energy -89090.344944 kJ/mol
# GULP energy per Si atom -5568.146559 kJ/mol
# Density = 2.384247 g / cm^3
# Si number density = 23.896864 Si / 1000 Ang^3
#
#
#
# Elastic Constant Matrix: (Units=GPa)
#
#
# Indices 1 2 3 4 5 6 
#
# 1 202.1289 84.9369 96.8586 0.0000 0.0000 -7.8620
# 2 84.9369 202.1289 96.8586 0.0000 0.0000 7.8620
# 3 96.8586 96.8586 242.7612 0.0000 0.0000 0.0000
# 4 0.0000 0.0000 0.0000 138.4787 0.0000 0.0000
# 5 0.0000 0.0000 0.0000 0.0000 138.4787 0.0000
# 6 -7.8620 7.8620 0.0000 0.0000 0.0000 58.4607
#
#
#
# Elastic Compliance Matrix: (Units=1/GPa)
#
#
# Indices 1 2 3 4 5 6 
#
# 1 0.006728 -0.001961 -0.001902 0.000000 0.000000 0.001169
# 2 -0.001961 0.006728 -0.001902 0.000000 0.000000 -0.001169
# 3 -0.001902 -0.001902 0.005637 0.000000 0.000000 0.000000
# 4 0.000000 0.000000 0.000000 0.007221 0.000000 0.000000
# 5 0.000000 0.000000 0.000000 0.000000 0.007221 0.000000
# 6 0.001169 -0.001169 0.000000 0.000000 0.000000 0.017420
#
#
# Mechanical properties :
#
#
# Convention : Reuss Voigt Hill
#
# Bulk Modulus (GPa) = 132.22059 133.81414 133.01737
# Shear Modulus (GPa) = 76.91356 91.64129 84.27743
#
# Velocity S-wave (km/s) = 5.67939 6.19935 5.94506
# Velocity P-wave (km/s) = 9.92256 10.36150 10.14440
#
# Compressibility (1/GPa) = 0.00756312
#
# Stress axis : x y z
#
# Youngs Moduli (GPa) = 148.62359 148.62359 177.39922
#
# Poissons Ratio (x) = 0.29151 0.33741
# Poissons Ratio (y) = 0.29151 0.33741
# Poissons Ratio (z) = 0.28268 0.28268
#
# Static dielectric constant tensor:
#      x y z
#    x 1.944200 0.000000 0.000000 
#    y 0.000000 1.944200 0.000000 
#    z 0.000000 0.000000 1.909330 
# 
# From -- ./inp_files/4591.got.cif
#   From: 2010.05.17/outbox.cif.g08.bks.cpg/sg84_3_cif.got.tgz:4591.got - 2010.06.03 18:57:40.
