data_PCOD9544703
_publ_section_title
;
Structure prediction by ZEFSAII (Michael W. Deem and Ramdas Pophale) SiO2 
 PCOD9544703
Probable space group: P 4/N
;
_chemical_formula_sum "Si O2"
_cell_formula_units_Z 48
_cell_length_a 14.782128
_cell_length_b 14.782128
_cell_length_c 11.762393
_cell_angle_alpha 90.000000
_cell_angle_beta 90.000000
_cell_angle_gamma 90.000000
_cell_volume 2570.215882
_symmetry_space_group_name_H-M "P 4/N"
_symmetry_group_IT_number 85
_symmetry_cell_setting 'tetragonal'
loop_
_space_group_symop_operation_xyz
x,y,z
1/2-y,x,z
1/2-x,1/2-y,z
y,1/2-x,z
-x,-y,-z
1/2+y,-x,-z
1/2+x,1/2+y,-z
-y,1/2+x,-z
loop_
_atom_site_type_symbol
_atom_site_label
_atom_site_fract_x
_atom_site_fract_y
_atom_site_fract_z
Si Si1 0.384725 0.721126 0.522096
Si Si2 0.240342 0.097611 0.095051
Si Si3 0.155920 0.130636 0.508756
Si Si4 0.597468 0.736046 0.160317
Si Si5 0.378171 0.003120 0.661053
Si Si6 0.500044 0.838864 0.695693
O O1 0.300257 0.658666 0.556245
O O2 0.451058 0.660426 0.448588
O O3 0.435563 0.773610 0.621350
O O4 0.330408 0.158113 0.106634
O O5 0.216756 0.027694 0.193146
O O6 0.252039 0.059887 0.967396
O O7 0.264022 0.129523 0.521619
O O8 0.095780 0.082438 0.605467
O O9 0.139605 0.086195 0.385917
O O10 0.672824 0.656273 0.172863
O O11 0.525441 0.703112 0.252200
O O12 0.449705 0.934220 0.716469
#
# Coordination Sequence:
#
# PCOD9544703 Si02
#       6
#     8   8   8   8   8   8
#     4   9  20  38  55  74 110 156 187 218 278 349
#     4   9  19  38  59  77 106 149 190 228 285 349
#     4  11  21  34  52  80 117 153 186 228 298 367
#     4   9  19  38  59  77 106 149 190 228 285 349
#     4  11  21  35  55  84 115 144 190 242 286 339
#     4  11  21  35  55  84 115 144 190 242 286 339
#
# _framework density 18.675474999999999
#
# number of rings (size 3 to 8) (size 9 to 14) (size 15 to 20)
#    0.000    2.000    1.667    3.500    0.000    2.667 
#    0.000    5.000    0.000    0.000    0.000    0.000 
#    0.000    0.000    0.000    0.000    0.000    0.000 
#
# Total GULP energy -267344.419302 kJ/mol
# GULP energy per Si atom -5569.675402 kJ/mol
# Density = 1.863297 g / cm^3
# Si number density = 18.675475 Si / 1000 Ang^3
#
#
#
# Elastic Constant Matrix: (Units=GPa)
#
#
# Indices 1 2 3 4 5 6 
#
# 1 37.9767 -4.1885 1.0615 0.0000 0.0000 0.9603
# 2 -4.1885 37.9767 1.0615 0.0000 0.0000 -0.9603
# 3 1.0615 1.0615 62.9300 0.0000 0.0000 0.0000
# 4 0.0000 0.0000 0.0000 15.0145 0.0000 0.0000
# 5 0.0000 0.0000 0.0000 0.0000 15.0145 0.0000
# 6 0.9603 -0.9603 0.0000 0.0000 0.0000 17.4919
#
#
#
# Elastic Compliance Matrix: (Units=1/GPa)
#
#
# Indices 1 2 3 4 5 6 
#
# 1 0.026702 0.002926 -0.000500 0.000000 0.000000 -0.001305
# 2 0.002926 0.026702 -0.000500 0.000000 0.000000 0.001305
# 3 -0.000500 -0.000500 0.015908 0.000000 0.000000 0.000000
# 4 0.000000 0.000000 0.000000 0.066602 0.000000 0.000000
# 5 0.000000 0.000000 0.000000 0.000000 0.066602 0.000000
# 6 -0.001305 0.001305 0.000000 0.000000 0.000000 0.057313
#
#
# Mechanical properties :
#
#
# Convention : Reuss Voigt Hill
#
# Bulk Modulus (GPa) = 13.66802 14.97251 14.32026
# Shear Modulus (GPa) = 17.83403 18.90078 18.36740
#
# Velocity S-wave (km/s) = 3.09357 3.18475 3.13949
# Velocity P-wave (km/s) = 4.48272 4.64307 4.56360
#
# Compressibility (1/GPa) = 0.07316351
#
# Stress axis : x y z
#
# Youngs Moduli (GPa) = 37.45092 37.45092 62.86332
#
# Poissons Ratio (x) = -0.10958 0.03142
# Poissons Ratio (y) = -0.10958 0.03142
# Poissons Ratio (z) = 0.01872 0.01872
#
# Static dielectric constant tensor:
#      x y z
#    x 1.683720 0.000000 0.000000 
#    y 0.000000 1.683720 0.000000 
#    z 0.000000 0.000000 1.663230 
# 
# From -- ./inp_files/1643.got.cif
#   From: 2010.05.17/outbox.cif.g08.bks.cpg/sg85_cif.got.tgz:1643.got - 2010.06.03 19:01:16.
