data_PCOD9544223
_publ_section_title
;
Structure prediction by ZEFSAII (Michael W. Deem and Ramdas Pophale) SiO2 
 PCOD9544223
Probable space group: P 42/M
;
_chemical_formula_sum "Si O2"
_cell_formula_units_Z 32
_cell_length_a 12.738297
_cell_length_b 12.738297
_cell_length_c 8.206555
_cell_angle_alpha 90.000000
_cell_angle_beta 90.000000
_cell_angle_gamma 90.000000
_cell_volume 1331.630168
_symmetry_space_group_name_H-M "P 42/M"
_symmetry_group_IT_number 84
_symmetry_cell_setting 'tetragonal'
loop_
_space_group_symop_operation_xyz
x,y,z
-y,x,1/2+z
-x,-y,z
y,-x,1/2+z
-x,-y,-z
y,-x,1/2-z
x,y,-z
-y,x,1/2-z
loop_
_atom_site_type_symbol
_atom_site_label
_atom_site_fract_x
_atom_site_fract_y
_atom_site_fract_z
Si Si1 0.139395 0.589064 0.812068
Si Si2 0.634404 0.410573 0.687087
Si Si3 0.088418 0.366885 0.691088
Si Si4 0.864516 0.088712 0.810208
O O1 0.251506 0.624402 0.745789
O O2 0.134119 0.462501 0.793726
O O3 0.037773 0.627533 0.714007
O O4 0.127196 0.618773 0.000000
O O5 0.537467 0.370149 0.794273
O O6 0.615482 0.382043 0.500000
O O7 0.112716 0.382998 0.500000
O O8 0.123711 0.251017 0.741447
O O9 0.962408 0.130677 0.709160
O O10 0.879921 0.115248 0.000000
#
# Coordination Sequence:
#
# PCOD9544223 Si02
#       4
#     8   8   8   8
#     4  11  22  37  58  84 112 147 186 229 278 332
#     4  11  22  39  60  84 114 147 184 229 276 330
#     4  10  21  38  57  81 112 148 187 233 280 327
#     4  10  21  36  57  81 110 144 181 225 274 325
#
# _framework density 24.030695000000001
#
# number of rings (size 3 to 8) (size 9 to 14) (size 15 to 20)
#    0.000    1.500    0.000    9.000    0.000    6.000 
#    0.000    5.000    0.000    0.000    0.000    0.000 
#    0.000    0.000    0.000    0.000    0.000    0.000 
#
# Total GULP energy -179225.603315 kJ/mol
# GULP energy per Si atom -5600.800104 kJ/mol
# Density = 2.397600 g / cm^3
# Si number density = 24.030695 Si / 1000 Ang^3
#
#
#
# Elastic Constant Matrix: (Units=GPa)
#
#
# Indices 1 2 3 4 5 6 
#
# 1 120.8624 -10.2577 0.1548 0.0000 0.0000 0.0890
# 2 -10.2577 120.8624 0.1548 0.0000 0.0000 -0.0890
# 3 0.1548 0.1548 76.4726 0.0000 0.0000 0.0000
# 4 0.0000 0.0000 0.0000 48.0434 0.0000 0.0000
# 5 0.0000 0.0000 0.0000 0.0000 48.0434 0.0000
# 6 0.0890 -0.0890 0.0000 0.0000 0.0000 -20.2804
#
#
#
# Elastic Compliance Matrix: (Units=1/GPa)
#
#
# Indices 1 2 3 4 5 6 
#
# 1 0.008334 0.000707 -0.000018 0.000000 0.000000 0.000033
# 2 0.000707 0.008334 -0.000018 0.000000 0.000000 -0.000033
# 3 -0.000018 -0.000018 0.013077 0.000000 0.000000 0.000000
# 4 0.000000 0.000000 0.000000 0.020815 0.000000 0.000000
# 5 0.000000 0.000000 0.000000 0.000000 0.020815 0.000000
# 6 0.000033 -0.000033 0.000000 0.000000 0.000000 -0.049308
#
#
# Mechanical properties :
#
#
# Convention : Reuss Voigt Hill
#
# Bulk Modulus (GPa) = 32.16883 33.14455 32.65669
# Shear Modulus (GPa) = 160.84592 37.03763 98.94177
#
# Velocity S-wave (km/s) = 8.19017 3.93015 6.42359
# Velocity P-wave (km/s) = 10.14170 5.86663 8.28467
#
# Compressibility (1/GPa) = 0.03108599
#
# Stress axis : x y z
#
# Youngs Moduli (GPa) = 119.99175 119.99175 76.47212
#
# Poissons Ratio (x) = -0.08488 0.00140
# Poissons Ratio (y) = -0.08488 0.00140
# Poissons Ratio (z) = 0.00220 0.00220
#
# Static dielectric constant tensor:
#      x y z
#    x 1.941800 0.000000 0.000000 
#    y 0.000000 1.941800 0.000000 
#    z 0.000000 0.000000 1.786450 
# 
# From -- ./inp_files/604.got.cif
#   From: 2010.05.17/outbox.cif.g08.bks.cpg/sg84_1_cif.got.tgz:604.got - 2010.06.03 18:57:40.
