data_PCOD9544920
_publ_section_title
;
Structure prediction by ZEFSAII (Michael W. Deem and Ramdas Pophale) SiO2 
 PCOD9544920
Probable space group: P 42/N
;
_chemical_formula_sum "Si O2"
_cell_formula_units_Z 56
_cell_length_a 11.059163
_cell_length_b 11.059163
_cell_length_c 19.559933
_cell_angle_alpha 90.000000
_cell_angle_beta 90.000000
_cell_angle_gamma 90.000000
_cell_volume 2392.279293
_symmetry_space_group_name_H-M "P 42/N"
_symmetry_group_IT_number 86
_space_group.IT_coordinate_system_code '2'
_symmetry_cell_setting 'tetragonal'
loop_
_space_group_symop_operation_xyz
x,y,z
-y,1/2+x,1/2+z
1/2-x,1/2-y,z
1/2+y,-x,1/2+z
-x,-y,-z
y,1/2-x,1/2-z
1/2+x,1/2+y,-z
1/2-y,x,1/2-z
loop_
_atom_site_type_symbol
_atom_site_label
_atom_site_fract_x
_atom_site_fract_y
_atom_site_fract_z
Si Si1 0.110997 0.385030 0.237270
Si Si2 0.500907 0.490341 0.137744
Si Si3 0.622430 0.255842 0.092202
Si Si4 0.405214 0.799256 0.538897
Si Si5 0.894230 0.512320 0.053988
Si Si6 0.580228 0.107169 0.856194
Si Si7 0.192086 0.063010 0.764701
O O1 0.243029 0.402188 0.270874
O O2 0.011624 0.428247 0.291287
O O3 0.105530 0.471778 0.172170
O O4 0.528497 0.352643 0.117870
O O5 0.415934 0.550157 0.081182
O O6 0.632546 0.540474 0.160726
O O7 0.750000 0.250000 0.131777
O O8 0.594425 0.115878 0.091750
O O9 0.650327 0.308199 0.015871
O O10 0.504661 0.731099 0.489110
O O11 0.367927 0.693777 0.593644
O O12 0.952524 0.614226 0.102375
O O13 0.000000 0.500000 0.000000
O O14 0.552252 0.180811 0.786328
O O15 0.111634 0.172570 0.734004
#
# Coordination Sequence:
#
# PCOD9544920 Si02
#       7
#     8   8   8   8   8   8   8
#     4  10  19  34  60  92 125 163 206 273 316 375
#     4  11  22  40  66  93 127 167 220 273 329 384
#     4  10  22  38  60  93 130 163 211 268 321 384
#     4  10  21  39  63  98 128 164 213 264 327 387
#     4   9  20  37  60  87 127 167 202 256 321 393
#     4  10  20  40  65  87 129 172 214 259 332 390
#     4  10  25  44  64  90 126 174 221 277 321 391
#
# _framework density 23.408639000000001
#
# number of rings (size 3 to 8) (size 9 to 14) (size 15 to 20)
#    0.000    2.000    1.429    1.286    4.000    4.571 
#    0.000    0.000    0.000    0.000    0.000    0.000 
#    0.000    0.000    0.000    0.000    0.000    0.000 
#
# Total GULP energy -311824.001029 kJ/mol
# GULP energy per Si atom -5568.285733 kJ/mol
# Density = 2.335536 g / cm^3
# Si number density = 23.408639 Si / 1000 Ang^3
#
#
#
# Elastic Constant Matrix: (Units=GPa)
#
#
# Indices 1 2 3 4 5 6 
#
# 1 26.1288 37.6212 24.9422 0.0000 0.0000 -2.0172
# 2 37.6212 26.1288 24.9422 0.0000 0.0000 2.0172
# 3 24.9422 24.9422 94.8933 0.0000 0.0000 0.0000
# 4 0.0000 0.0000 0.0000 26.3789 0.0000 0.0000
# 5 0.0000 0.0000 0.0000 0.0000 26.3789 0.0000
# 6 -2.0172 2.0172 0.0000 0.0000 0.0000 33.7646
#
#
#
# Elastic Compliance Matrix: (Units=1/GPa)
#
#
# Indices 1 2 3 4 5 6 
#
# 1 -0.032739 0.052487 -0.005191 0.000000 0.000000 -0.005092
# 2 0.052487 -0.032739 -0.005191 0.000000 0.000000 0.005092
# 3 -0.005191 -0.005191 0.013267 0.000000 0.000000 0.000000
# 4 0.000000 0.000000 0.000000 0.037909 0.000000 0.000000
# 5 0.000000 0.000000 0.000000 0.000000 0.037909 0.000000
# 6 -0.005092 0.005092 0.000000 0.000000 0.000000 0.029008
#
#
# Mechanical properties :
#
#
# Convention : Reuss Voigt Hill
#
# Bulk Modulus (GPa) = 31.24984 35.79578 33.52281
# Shear Modulus (GPa) = -238.87950 21.28084 -108.79933
#
# Velocity S-wave (km/s) = -10.11282 3.01840 -6.82489
# Velocity P-wave (km/s) = 11.08964 5.24143 6.91041
#
# Compressibility (1/GPa) = 0.03200016
#
# Stress axis : x y z
#
# Youngs Moduli (GPa) = -30.54419 -30.54419 75.37599
#
# Poissons Ratio (x) = 1.60319 0.39125
# Poissons Ratio (y) = 1.60319 0.39125
# Poissons Ratio (z) = -0.15854 -0.15854
#
# Static dielectric constant tensor:
#      x y z
#    x 1.943600 0.000000 0.000000 
#    y 0.000000 1.943600 0.000000 
#    z 0.000000 0.000000 1.713930 
# 
# From -- ./inp_files/4192.got.cif
#   From: 2010.05.17/outbox.cif.g08.bks.cpg/sg86_3_cif.got.tgz:4192.got - 2010.06.03 19:03:11.
