data_PCOD9544890
_publ_section_title
;
Structure prediction by ZEFSAII (Michael W. Deem and Ramdas Pophale) SiO2 
 PCOD9544890
Probable space group: P 42/N
;
_chemical_formula_sum "Si O2"
_cell_formula_units_Z 48
_cell_length_a 8.956582
_cell_length_b 8.956582
_cell_length_c 30.308450
_cell_angle_alpha 90.000000
_cell_angle_beta 90.000000
_cell_angle_gamma 90.000000
_cell_volume 2431.354804
_symmetry_space_group_name_H-M "P 42/N"
_symmetry_group_IT_number 86
_space_group.IT_coordinate_system_code '2'
_symmetry_cell_setting 'tetragonal'
loop_
_space_group_symop_operation_xyz
x,y,z
-y,1/2+x,1/2+z
1/2-x,1/2-y,z
1/2+y,-x,1/2+z
-x,-y,-z
y,1/2-x,1/2-z
1/2+x,1/2+y,-z
1/2-y,x,1/2-z
loop_
_atom_site_type_symbol
_atom_site_label
_atom_site_fract_x
_atom_site_fract_y
_atom_site_fract_z
Si Si1 0.978270 0.797843 0.266254
Si Si2 0.679812 0.412901 0.957299
Si Si3 0.584232 0.821661 0.358982
Si Si4 0.318107 0.583913 0.140063
Si Si5 0.679356 0.587030 0.043924
Si Si6 0.528593 0.799188 0.731908
O O1 0.917695 0.657586 0.237964
O O2 0.997048 0.744538 0.316366
O O3 0.123540 0.876279 0.247150
O O4 0.750000 0.250000 0.958687
O O5 0.717171 0.477750 0.908844
O O6 0.500154 0.401011 0.958617
O O7 0.731181 0.500297 0.000572
O O8 0.750000 0.750000 0.357601
O O9 0.520045 0.785635 0.407608
O O10 0.592797 0.001530 0.354978
O O11 0.250000 0.750000 0.142665
O O12 0.257755 0.488222 0.180771
O O13 0.750000 0.750000 0.043084
O O14 0.659252 0.920595 0.739161
#
# Coordination Sequence:
#
# PCOD9544890 Si02
#       6
#     8   8   8   8   8   8
#     4  11  20  35  61  86 110 148 191 241 272 338
#     4   9  19  38  58  83 111 149 191 226 282 345
#     4  10  18  33  55  92 112 138 193 239 281 327
#     4  10  21  36  62  81 109 154 192 231 281 345
#     4   9  19  35  57  82 119 144 179 244 282 322
#     4  11  26  41  53  81 120 152 184 233 289 345
#
# _framework density 19.742082
#
# number of rings (size 3 to 8) (size 9 to 14) (size 15 to 20)
#    0.000    2.000    3.333    0.000    4.667    0.667 
#    3.000    5.000    0.000    0.000    0.000    0.000 
#    0.000    0.000    0.000    0.000    0.000    0.000 
#
# Total GULP energy -267862.268597 kJ/mol
# GULP energy per Si atom -5580.463929 kJ/mol
# Density = 1.969715 g / cm^3
# Si number density = 19.742082 Si / 1000 Ang^3
#
#
#
# Elastic Constant Matrix: (Units=GPa)
#
#
# Indices 1 2 3 4 5 6 
#
# 1 26.9657 16.5010 35.1298 0.0000 0.0000 5.5925
# 2 16.5010 26.9657 35.1298 0.0000 0.0000 -5.5925
# 3 35.1298 35.1298 212.7268 0.0000 0.0000 0.0000
# 4 0.0000 0.0000 0.0000 36.5323 0.0000 0.0000
# 5 0.0000 0.0000 0.0000 0.0000 36.5323 0.0000
# 6 5.5925 -5.5925 0.0000 0.0000 0.0000 33.7413
#
#
#
# Elastic Compliance Matrix: (Units=1/GPa)
#
#
# Indices 1 2 3 4 5 6 
#
# 1 0.073758 -0.042375 -0.005183 0.000000 0.000000 -0.019249
# 2 -0.042375 0.073758 -0.005183 0.000000 0.000000 0.019249
# 3 -0.005183 -0.005183 0.006413 0.000000 0.000000 0.000000
# 4 0.000000 0.000000 0.000000 0.027373 0.000000 0.000000
# 5 0.000000 0.000000 0.000000 0.000000 0.027373 0.000000
# 6 -0.019249 0.019249 0.000000 0.000000 0.000000 0.036018
#
#
# Mechanical properties :
#
#
# Convention : Reuss Voigt Hill
#
# Bulk Modulus (GPa) = 20.64040 48.90883 34.77461
# Shear Modulus (GPa) = 13.64918 33.35437 23.50177
#
# Velocity S-wave (km/s) = 2.63225 4.11482 3.45402
# Velocity P-wave (km/s) = 4.44028 6.88501 5.79307
#
# Compressibility (1/GPa) = 0.04844868
#
# Stress axis : x y z
#
# Youngs Moduli (GPa) = 13.55784 13.55784 155.94299
#
# Poissons Ratio (x) = 0.57451 0.80820
# Poissons Ratio (y) = 0.57451 0.80820
# Poissons Ratio (z) = 0.07027 0.07027
#
# Static dielectric constant tensor:
#      x y z
#    x 1.686950 0.000000 0.000000 
#    y 0.000000 1.686950 0.000000 
#    z 0.000000 0.000000 1.746960 
# 
# From -- ./inp_files/5216.got.cif
#   From: 2010.05.17/outbox.cif.g08.bks.cpg/sg86_3_cif.got.tgz:5216.got - 2010.06.03 19:03:11.
