data_PCOD9544273
_publ_section_title
;
Structure prediction by ZEFSAII (Michael W. Deem and Ramdas Pophale) SiO2 
 PCOD9544273
Probable space group: P 42/M
;
_chemical_formula_sum "Si O2"
_cell_formula_units_Z 48
_cell_length_a 9.664480
_cell_length_b 9.664480
_cell_length_c 26.594410
_cell_angle_alpha 90.000000
_cell_angle_beta 90.000000
_cell_angle_gamma 90.000000
_cell_volume 2483.975701
_symmetry_space_group_name_H-M "P 42/M"
_symmetry_group_IT_number 84
_symmetry_cell_setting 'tetragonal'
loop_
_space_group_symop_operation_xyz
x,y,z
-y,x,1/2+z
-x,-y,z
y,-x,1/2+z
-x,-y,-z
y,-x,1/2-z
x,y,-z
-y,x,1/2-z
loop_
_atom_site_type_symbol
_atom_site_label
_atom_site_fract_x
_atom_site_fract_y
_atom_site_fract_z
Si Si1 0.850028 0.464996 0.411401
Si Si2 0.871211 0.223559 0.666275
Si Si3 0.643546 0.085429 0.500000
Si Si4 0.357866 0.314611 0.253016
Si Si5 0.990719 0.161650 0.091212
Si Si6 0.181747 0.267248 0.653950
Si Si7 0.640376 0.415376 0.500000
O O1 0.860548 0.320096 0.382946
O O2 0.824186 0.579080 0.368526
O O3 0.730588 0.457292 0.451764
O O4 0.000000 0.500000 0.434394
O O5 0.773919 0.285429 0.709111
O O6 0.830374 0.075136 0.643945
O O7 0.033964 0.231150 0.679900
O O8 0.735891 0.046527 0.548826
O O9 0.617386 0.250106 0.500000
O O10 0.500000 0.000000 0.500000
O O11 0.312391 0.475855 0.250088
O O12 0.303118 0.256951 0.305925
O O13 0.834485 0.195961 0.106668
O O14 0.000000 0.000000 0.075014
O O15 0.500000 0.500000 0.500000
#
# Coordination Sequence:
#
# PCOD9544273 Si02
#       7
#     8   8   4   8   8   8   4
#     4  10  21  43  69  92 126 165 215 262 314 380
#     4  10  21  42  63  90 124 164 212 263 313 377
#     4  12  27  44  64  96 134 168 213 262 322 380
#     4  11  24  39  59  89 127 170 206 255 321 380
#     4  10  23  45  68  92 125 169 210 267 320 376
#     4  10  23  40  65  94 122 160 214 261 317 380
#     4  12  27  42  66  98 130 172 211 260 316 380
#
# _framework density 19.323858999999999
#
# number of rings (size 3 to 8) (size 9 to 14) (size 15 to 20)
#    0.000    1.500    3.333    0.500    4.667    2.667 
#    0.000    0.000    0.000    0.000    0.000    0.000 
#    0.000    0.000    0.000    0.000    0.000    0.000 
#
# Total GULP energy -268056.269457 kJ/mol
# GULP energy per Si atom -5584.505614 kJ/mol
# Density = 1.927988 g / cm^3
# Si number density = 19.323859 Si / 1000 Ang^3
#
#
#
# Elastic Constant Matrix: (Units=GPa)
#
#
# Indices 1 2 3 4 5 6 
#
# 1 77.9063 45.2743 31.2506 0.0000 0.0000 0.1325
# 2 45.2743 77.9063 31.2506 0.0000 0.0000 -0.1325
# 3 31.2506 31.2506 58.7887 0.0000 0.0000 0.0000
# 4 0.0000 0.0000 0.0000 14.1265 0.0000 0.0000
# 5 0.0000 0.0000 0.0000 0.0000 14.1265 0.0000
# 6 0.1325 -0.1325 0.0000 0.0000 0.0000 28.2709
#
#
#
# Elastic Compliance Matrix: (Units=1/GPa)
#
#
# Indices 1 2 3 4 5 6 
#
# 1 0.020881 -0.009765 -0.005909 0.000000 0.000000 -0.000144
# 2 -0.009765 0.020881 -0.005909 0.000000 0.000000 0.000144
# 3 -0.005909 -0.005909 0.023292 0.000000 0.000000 0.000000
# 4 0.000000 0.000000 0.000000 0.070789 0.000000 0.000000
# 5 0.000000 0.000000 0.000000 0.000000 0.070789 0.000000
# 6 -0.000144 0.000144 0.000000 0.000000 0.000000 0.035373
#
#
# Mechanical properties :
#
#
# Convention : Reuss Voigt Hill
#
# Bulk Modulus (GPa) = 45.68615 47.79471 46.74043
# Shear Modulus (GPa) = 17.09583 18.42648 17.76115
#
# Velocity S-wave (km/s) = 2.97762 3.09133 3.03501
# Velocity P-wave (km/s) = 5.95947 6.12609 6.04335
#
# Compressibility (1/GPa) = 0.02188847
#
# Stress axis : x y z
#
# Youngs Moduli (GPa) = 47.89001 47.89001 42.93231
#
# Poissons Ratio (x) = 0.46763 0.25370
# Poissons Ratio (y) = 0.46763 0.25370
# Poissons Ratio (z) = 0.28299 0.28299
#
# Static dielectric constant tensor:
#      x y z
#    x 1.663820 0.000000 0.000000 
#    y 0.000000 1.663820 0.000000 
#    z 0.000000 0.000000 1.628330 
# 
# From -- ./inp_files/5870.got.cif
#   From: 2010.05.17/outbox.cif.g08.bks.cpg/sg84_3_cif.got.tgz:5870.got - 2010.06.03 18:57:40.
