data_PCOD9544459
_publ_section_title
;
Structure prediction by ZEFSAII (Michael W. Deem and Ramdas Pophale) SiO2 
 PCOD9544459
Probable space group: P 42/M
;
_chemical_formula_sum "Si O2"
_cell_formula_units_Z 40
_cell_length_a 14.172610
_cell_length_b 14.172610
_cell_length_c 10.104580
_cell_angle_alpha 90.000000
_cell_angle_beta 90.000000
_cell_angle_gamma 90.000000
_cell_volume 2029.634982
_symmetry_space_group_name_H-M "P 42/M"
_symmetry_group_IT_number 84
_symmetry_cell_setting 'tetragonal'
loop_
_space_group_symop_operation_xyz
x,y,z
-y,x,1/2+z
-x,-y,z
y,-x,1/2+z
-x,-y,-z
y,-x,1/2-z
x,y,-z
-y,x,1/2-z
loop_
_atom_site_type_symbol
_atom_site_label
_atom_site_fract_x
_atom_site_fract_y
_atom_site_fract_z
Si Si1 0.330216 0.725951 0.750431
Si Si2 0.541440 0.748721 0.658783
Si Si3 0.246735 0.007245 0.500000
Si Si4 0.795821 0.789794 0.000000
Si Si5 0.319660 0.017500 0.000000
Si Si6 0.400124 0.041142 0.714730
Si Si7 0.180722 0.224666 0.500000
O O1 0.438971 0.752142 0.725720
O O2 0.325112 0.613401 0.775598
O O3 0.271061 0.762255 0.625368
O O4 0.278170 0.773286 0.875087
O O5 0.532711 0.735131 0.500000
O O6 0.592438 0.848066 0.687045
O O7 0.314596 0.002941 0.627593
O O8 0.198980 0.111420 0.500000
O O9 0.191203 0.908495 0.500000
O O10 0.740238 0.887210 0.000000
O O11 0.381600 0.017317 0.867173
O O12 0.249617 0.929146 0.000000
O O13 0.500000 0.000000 0.670549
#
# Coordination Sequence:
#
# PCOD9544459 Si02
#       7
#     8   8   4   4   4   8   4
#     4  12  25  45  71 100 137 182 234 286 341 413
#     4  12  24  46  70  99 141 183 222 288 351 405
#     4  12  23  43  72  93 136 185 226 281 343 415
#     4  12  24  43  68 106 135 180 239 282 331 423
#     4  12  25  41  64 101 144 175 222 291 347 401
#     4  12  23  40  67 101 131 175 236 285 340 400
#     4  12  24  47  66 100 145 182 221 290 355 405
#
# _framework density 19.707977
#
# number of rings (size 3 to 8) (size 9 to 14) (size 15 to 20)
#    0.000    0.000    7.000    4.200    0.000    2.400 
#    0.000    1.000    0.000    4.800    0.000    0.000 
#    0.000    0.000    0.000    0.000    0.000    0.000 
#
# Total GULP energy -223680.584418 kJ/mol
# GULP energy per Si atom -5592.014610 kJ/mol
# Density = 1.966312 g / cm^3
# Si number density = 19.707977 Si / 1000 Ang^3
#
#
#
# Elastic Constant Matrix: (Units=GPa)
#
#
# Indices 1 2 3 4 5 6 
#
# 1 86.6450 3.4772 17.3955 0.0000 0.0000 17.2698
# 2 3.4772 86.6450 17.3955 0.0000 0.0000 -17.2698
# 3 17.3955 17.3955 139.1513 0.0000 0.0000 0.0000
# 4 0.0000 0.0000 0.0000 48.0908 0.0000 0.0000
# 5 0.0000 0.0000 0.0000 0.0000 48.0908 0.0000
# 6 17.2698 -17.2698 0.0000 0.0000 0.0000 -5.1154
#
#
#
# Elastic Compliance Matrix: (Units=1/GPa)
#
#
# Indices 1 2 3 4 5 6 
#
# 1 0.008332 0.003327 -0.001457 0.000000 0.000000 0.016899
# 2 0.003327 0.008332 -0.001457 0.000000 0.000000 -0.016899
# 3 -0.001457 -0.001457 0.007551 0.000000 0.000000 0.000000
# 4 0.000000 0.000000 0.000000 0.020794 0.000000 0.000000
# 5 0.000000 0.000000 0.000000 0.000000 0.020794 0.000000
# 6 0.016899 -0.016899 0.000000 0.000000 0.000000 -0.081383
#
#
# Mechanical properties :
#
#
# Convention : Reuss Voigt Hill
#
# Bulk Modulus (GPa) = 39.93878 43.21976 41.57927
# Shear Modulus (GPa) = -620.55284 36.49144 -292.03070
#
# Velocity S-wave (km/s) = -17.76394 4.30770 -12.18608
# Velocity P-wave (km/s) = 20.01085 6.83516 13.29877
#
# Compressibility (1/GPa) = 0.02503832
#
# Stress axis : x y z
#
# Youngs Moduli (GPa) = 120.01707 120.01707 132.43587
#
# Poissons Ratio (x) = -0.39924 0.19302
# Poissons Ratio (y) = -0.39924 0.19302
# Poissons Ratio (z) = 0.17492 0.17492
#
# Static dielectric constant tensor:
#      x y z
#    x 1.722660 0.000000 0.000000 
#    y 0.000000 1.722660 0.000000 
#    z 0.000000 0.000000 1.716670 
# 
# From -- ./inp_files/857.got.cif
#   From: 2010.05.17/outbox.cif.g08.bks.cpg/sg84_1_cif.got.tgz:857.got - 2010.06.03 18:57:40.
