data_PCOD9544182
_publ_section_title
;
Structure prediction by ZEFSAII (Michael W. Deem and Ramdas Pophale) SiO2 
 PCOD9544182
Probable space group: P 42/M
;
_chemical_formula_sum "Si O2"
_cell_formula_units_Z 52
_cell_length_a 17.140626
_cell_length_b 17.140626
_cell_length_c 9.847076
_cell_angle_alpha 90.000000
_cell_angle_beta 90.000000
_cell_angle_gamma 90.000000
_cell_volume 2893.081363
_symmetry_space_group_name_H-M "P 42/M"
_symmetry_group_IT_number 84
_symmetry_cell_setting 'tetragonal'
loop_
_space_group_symop_operation_xyz
x,y,z
-y,x,1/2+z
-x,-y,z
y,-x,1/2+z
-x,-y,-z
y,-x,1/2-z
x,y,-z
-y,x,1/2-z
loop_
_atom_site_type_symbol
_atom_site_label
_atom_site_fract_x
_atom_site_fract_y
_atom_site_fract_z
Si Si1 0.209677 0.629992 0.340151
Si Si2 0.545992 0.167963 0.154848
Si Si3 0.785063 0.001745 0.844809
Si Si4 0.316333 0.769287 0.657858
Si Si5 0.125686 0.161588 0.152942
Si Si6 0.660733 0.938093 0.653874
Si Si7 0.500000 0.000000 0.261618
O O1 0.187413 0.644840 0.500000
O O2 0.212629 0.536638 0.323685
O O3 0.286910 0.680869 0.314422
O O4 0.142529 0.658378 0.237749
O O5 0.613576 0.198886 0.252054
O O6 0.526639 0.076274 0.177702
O O7 0.570504 0.179286 0.000000
O O8 0.841539 0.062943 0.772318
O O9 0.822946 0.916201 0.845193
O O10 0.711513 0.996597 0.744724
O O11 0.765546 0.022774 0.000000
O O12 0.339142 0.774571 0.500000
O O13 0.238118 0.821255 0.674813
O O14 0.091244 0.167829 0.000000
O O15 0.689759 0.929242 0.500000
O O16 0.573507 0.971258 0.653121
#
# Coordination Sequence:
#
# PCOD9544182 Si02
#       7
#     8   8   8   8   8   8   4
#     4   9  19  38  58  78 112 154 187 224 281 340
#     4  10  21  35  57  87 115 147 193 240 282 341
#     4  11  23  39  57  78 108 145 188 237 289 337
#     4  10  20  38  60  81 114 153 188 228 288 348
#     4  10  22  39  57  78 106 146 190 234 283 340
#     4  11  21  34  55  81 111 147 188 232 278 340
#     4  10  22  36  52  82 122 156 180 226 298 350
#
# _framework density 17.973915000000002
#
# number of rings (size 3 to 8) (size 9 to 14) (size 15 to 20)
#    0.000    1.846    1.538    2.308    0.000   10.154 
#    0.000    1.538    0.000    0.462    0.000    3.231 
#    0.000    0.000    0.000    0.000    0.000    0.000 
#
# Total GULP energy -290143.373488 kJ/mol
# GULP energy per Si atom -5579.680259 kJ/mol
# Density = 1.793301 g / cm^3
# Si number density = 17.973915 Si / 1000 Ang^3
#
#
#
# Elastic Constant Matrix: (Units=GPa)
#
#
# Indices 1 2 3 4 5 6 
#
# 1 81.8380 35.2246 50.4423 0.0000 0.0000 0.3879
# 2 35.2246 81.8380 50.4423 0.0000 0.0000 -0.3879
# 3 50.4423 50.4423 122.0761 0.0000 0.0000 0.0000
# 4 0.0000 0.0000 0.0000 20.0788 0.0000 0.0000
# 5 0.0000 0.0000 0.0000 0.0000 20.0788 0.0000
# 6 0.3879 -0.3879 0.0000 0.0000 0.0000 27.5964
#
#
#
# Elastic Compliance Matrix: (Units=1/GPa)
#
#
# Indices 1 2 3 4 5 6 
#
# 1 0.017362 -0.004096 -0.005482 0.000000 0.000000 -0.000302
# 2 -0.004096 0.017362 -0.005482 0.000000 0.000000 0.000302
# 3 -0.005482 -0.005482 0.012722 0.000000 0.000000 0.000000
# 4 0.000000 0.000000 0.000000 0.049804 0.000000 0.000000
# 5 0.000000 0.000000 0.000000 0.000000 0.049804 0.000000
# 6 -0.000302 0.000302 0.000000 0.000000 0.000000 0.036245
#
#
# Mechanical properties :
#
#
# Convention : Reuss Voigt Hill
#
# Bulk Modulus (GPa) = 57.71053 61.99671 59.85362
# Shear Modulus (GPa) = 22.81084 23.52699 23.16891
#
# Velocity S-wave (km/s) = 3.56632 3.62187 3.59420
# Velocity P-wave (km/s) = 7.00969 7.21513 7.11315
#
# Compressibility (1/GPa) = 0.01732786
#
# Stress axis : x y z
#
# Youngs Moduli (GPa) = 57.59572 57.59572 78.60497
#
# Poissons Ratio (x) = 0.23589 0.43090
# Poissons Ratio (y) = 0.23589 0.43090
# Poissons Ratio (z) = 0.31573 0.31573
#
# Static dielectric constant tensor:
#      x y z
#    x 1.629940 0.000000 0.000000 
#    y 0.000000 1.629940 0.000000 
#    z 0.000000 0.000000 1.622960 
# 
# From -- ./inp_files/1097.got.cif
#   From: 2010.05.17/outbox.cif.g08.bks.cpg/sg84_1_cif.got.tgz:1097.got - 2010.06.03 18:57:40.
