data_PCOD9544278
_publ_section_title
;
Structure prediction by ZEFSAII (Michael W. Deem and Ramdas Pophale) SiO2 
 PCOD9544278
Probable space group: P 42/M
;
_chemical_formula_sum "Si O2"
_cell_formula_units_Z 22
_cell_length_a 5.439616
_cell_length_b 5.439616
_cell_length_c 31.643337
_cell_angle_alpha 90.000000
_cell_angle_beta 90.000000
_cell_angle_gamma 90.000000
_cell_volume 936.308059
_symmetry_space_group_name_H-M "P 42/M"
_symmetry_group_IT_number 84
_symmetry_cell_setting 'tetragonal'
loop_
_space_group_symop_operation_xyz
x,y,z
-y,x,1/2+z
-x,-y,z
y,-x,1/2+z
-x,-y,-z
y,-x,1/2-z
x,y,-z
-y,x,1/2-z
loop_
_atom_site_type_symbol
_atom_site_label
_atom_site_fract_x
_atom_site_fract_y
_atom_site_fract_z
Si Si1 0.500000 0.500000 0.750000
Si Si2 0.249041 0.166250 0.314240
Si Si3 0.750015 0.645829 0.500000
Si Si4 0.149393 0.750277 0.905403
O O1 0.629044 0.294104 0.778986
O O2 0.244244 0.296101 0.360980
O O3 0.500000 0.000000 0.312684
O O4 0.000000 0.000000 0.308822
O O5 0.500000 0.500000 0.500000
O O6 0.750061 0.765257 0.453771
O O7 0.000000 0.500000 0.500000
O O8 0.000000 0.500000 0.902270
O O9 0.000000 0.000000 0.902148
#
# Coordination Sequence:
#
# PCOD9544278 Si02
#       4
#     2   8   4   8
#     4  12  28  44  80 102 152 192 252 320 388 466
#     4  10  26  47  73 108 146 194 254 313 387 462
#     4  12  24  36  64 102 138 176 232 292 364 454
#     4  10  21  44  67  94 136 186 235 294 366 452
#
# _framework density 23.496537
#
# number of rings (size 3 to 8) (size 9 to 14) (size 15 to 20)
#    0.000    1.455    0.000    3.273    7.636    0.000 
#    0.000    0.000    0.000    0.000    0.000    0.000 
#    0.000    0.000    0.000    0.000    0.000    0.000 
#
# Total GULP energy -122650.151237 kJ/mol
# GULP energy per Si atom -5575.006874 kJ/mol
# Density = 2.344306 g / cm^3
# Si number density = 23.496537 Si / 1000 Ang^3
#
#
#
# Elastic Constant Matrix: (Units=GPa)
#
#
# Indices 1 2 3 4 5 6 
#
# 1 123.9965 44.1007 61.6118 0.0000 0.0000 2.9834
# 2 44.1007 123.9965 61.6118 0.0000 0.0000 -2.9834
# 3 61.6118 61.6118 293.1337 0.0000 0.0000 0.0000
# 4 0.0000 0.0000 0.0000 170.4952 0.0000 0.0000
# 5 0.0000 0.0000 0.0000 0.0000 170.4952 0.0000
# 6 2.9834 -2.9834 0.0000 0.0000 0.0000 41.0655
#
#
#
# Elastic Compliance Matrix: (Units=1/GPa)
#
#
# Indices 1 2 3 4 5 6 
#
# 1 0.009809 -0.002776 -0.001478 0.000000 0.000000 -0.000914
# 2 -0.002776 0.009809 -0.001478 0.000000 0.000000 0.000914
# 3 -0.001478 -0.001478 0.004033 0.000000 0.000000 0.000000
# 4 0.000000 0.000000 0.000000 0.005865 0.000000 0.000000
# 5 0.000000 0.000000 0.000000 0.000000 0.005865 0.000000
# 6 -0.000914 0.000914 0.000000 0.000000 0.000000 0.024484
#
#
# Mechanical properties :
#
#
# Convention : Reuss Voigt Hill
#
# Bulk Modulus (GPa) = 82.06635 97.30838 89.68736
# Shear Modulus (GPa) = 66.32107 101.33132 83.82620
#
# Velocity S-wave (km/s) = 5.31857 6.57417 5.97942
# Velocity P-wave (km/s) = 8.52755 9.95641 9.26955
#
# Compressibility (1/GPa) = 0.01218526
#
# Stress axis : x y z
#
# Youngs Moduli (GPa) = 101.95220 101.95220 247.96912
#
# Poissons Ratio (x) = 0.28302 0.36653
# Poissons Ratio (y) = 0.28302 0.36653
# Poissons Ratio (z) = 0.15070 0.15070
#
# Static dielectric constant tensor:
#      x y z
#    x 1.888680 0.000000 0.000000 
#    y 0.000000 1.888680 0.000000 
#    z 0.000000 0.000000 3.115920 
# 
# From -- ./inp_files/5521.got.cif
#   From: 2010.05.17/outbox.cif.g08.bks.cpg/sg84_3_cif.got.tgz:5521.got - 2010.06.03 18:57:40.
