data_PCOD9544919
_publ_section_title
;
Structure prediction by ZEFSAII (Michael W. Deem and Ramdas Pophale) SiO2 
 PCOD9544919
Probable space group: P 42/N
;
_chemical_formula_sum "Si O2"
_cell_formula_units_Z 48
_cell_length_a 15.006534
_cell_length_b 15.006534
_cell_length_c 7.989649
_cell_angle_alpha 90.000000
_cell_angle_beta 90.000000
_cell_angle_gamma 90.000000
_cell_volume 1799.237497
_symmetry_space_group_name_H-M "P 42/N"
_symmetry_group_IT_number 86
_space_group.IT_coordinate_system_code '2'
_symmetry_cell_setting 'tetragonal'
loop_
_space_group_symop_operation_xyz
x,y,z
-y,1/2+x,1/2+z
1/2-x,1/2-y,z
1/2+y,-x,1/2+z
-x,-y,-z
y,1/2-x,1/2-z
1/2+x,1/2+y,-z
1/2-y,x,1/2-z
loop_
_atom_site_type_symbol
_atom_site_label
_atom_site_fract_x
_atom_site_fract_y
_atom_site_fract_z
Si Si1 0.337643 0.801841 0.491441
Si Si2 0.587967 0.373616 0.343085
Si Si3 0.915897 0.579462 0.668180
Si Si4 0.114841 0.537051 0.673911
Si Si5 0.807642 0.664965 0.461310
Si Si6 0.577060 0.866164 0.139471
O O1 0.250000 0.750000 0.438037
O O2 0.393083 0.718365 0.562142
O O3 0.371784 0.857645 0.333545
O O4 0.320722 0.880434 0.630746
O O5 0.483045 0.378056 0.308655
O O6 0.612627 0.473876 0.400845
O O7 0.896394 0.525088 0.492577
O O8 0.860972 0.666558 0.634558
O O9 0.020219 0.586784 0.689187
O O10 0.120782 0.466708 0.827043
O O11 0.750000 0.750000 0.433042
O O12 0.885504 0.670404 0.318874
O O13 0.724769 0.594322 0.464967
#
# Coordination Sequence:
#
# PCOD9544919 Si02
#       6
#     8   8   8   8   8   8
#     4  11  22  37  57  90 119 165 216 260 312 380
#     4  10  23  39  62  86 123 171 211 259 319 382
#     4   8  17  35  58  80 110 161 205 244 312 381
#     4   8  17  35  56  78 113 160 207 244 304 379
#     4  11  18  30  57  95 119 149 207 266 325 369
#     4  10  19  34  58  89 118 159 203 256 317 378
#
# _framework density 26.677966000000001
#
# number of rings (size 3 to 8) (size 9 to 14) (size 15 to 20)
#    0.000    2.333    1.667    3.500    7.000    0.000 
#    0.000    0.000   14.667    2.000    0.000    0.000 
#    0.000    0.000    0.000    0.000    0.000    0.000 
#
# Total GULP energy -267282.883962 kJ/mol
# GULP energy per Si atom -5568.393416 kJ/mol
# Density = 2.661725 g / cm^3
# Si number density = 26.677966 Si / 1000 Ang^3
#
#
#
# Elastic Constant Matrix: (Units=GPa)
#
#
# Indices 1 2 3 4 5 6 
#
# 1 37.2085 11.1431 8.7529 0.0000 0.0000 3.7371
# 2 11.1431 37.2085 8.7529 0.0000 0.0000 -3.7371
# 3 8.7529 8.7529 93.8780 0.0000 0.0000 0.0000
# 4 0.0000 0.0000 0.0000 -38.1076 0.0000 0.0000
# 5 0.0000 0.0000 0.0000 0.0000 -38.1076 0.0000
# 6 3.7371 -3.7371 0.0000 0.0000 0.0000 17.8803
#
#
#
# Elastic Compliance Matrix: (Units=1/GPa)
#
#
# Indices 1 2 3 4 5 6 
#
# 1 0.031108 -0.009703 -0.001996 0.000000 0.000000 -0.008530
# 2 -0.009703 0.031108 -0.001996 0.000000 0.000000 0.008530
# 3 -0.001996 -0.001996 0.011024 0.000000 0.000000 0.000000
# 4 0.000000 0.000000 0.000000 -0.026241 0.000000 0.000000
# 5 0.000000 0.000000 0.000000 0.000000 -0.026241 0.000000
# 6 -0.008530 0.008530 0.000000 0.000000 0.000000 0.059493
#
#
# Mechanical properties :
#
#
# Convention : Reuss Voigt Hill
#
# Bulk Modulus (GPa) = 21.81008 25.06585 23.43796
# Shear Modulus (GPa) = 40.67604 -2.35724 19.15940
#
# Velocity S-wave (km/s) = 3.90898 -0.94102 2.68278
# Velocity P-wave (km/s) = 5.34477 2.86974 4.28964
#
# Compressibility (1/GPa) = 0.04585035
#
# Stress axis : x y z
#
# Youngs Moduli (GPa) = 32.14640 32.14640 90.70906
#
# Poissons Ratio (x) = 0.31193 0.18103
# Poissons Ratio (y) = 0.31193 0.18103
# Poissons Ratio (z) = 0.06415 0.06415
#
# Static dielectric constant tensor:
#      x y z
#    x 2.285580 0.000000 0.000000 
#    y 0.000000 2.285580 0.000000 
#    z 0.000000 0.000000 2.248280 
# 
# From -- ./inp_files/2275.got.cif
#   From: 2010.05.17/outbox.cif.g08.bks.cpg/sg86_2_cif.got.tgz:2275.got - 2010.06.03 19:03:11.
