data_PCOD9544688
_publ_section_title
;
Structure prediction by ZEFSAII (Michael W. Deem and Ramdas Pophale) SiO2 
 PCOD9544688
Probable space group: P 4/N
;
_chemical_formula_sum "Si O2"
_cell_formula_units_Z 34
_cell_length_a 11.940241
_cell_length_b 11.940241
_cell_length_c 10.931650
_cell_angle_alpha 90.000000
_cell_angle_beta 90.000000
_cell_angle_gamma 90.000000
_cell_volume 1558.518291
_symmetry_space_group_name_H-M "P 4/N"
_symmetry_group_IT_number 85
_symmetry_cell_setting 'tetragonal'
loop_
_space_group_symop_operation_xyz
x,y,z
1/2-y,x,z
1/2-x,1/2-y,z
y,1/2-x,z
-x,-y,-z
1/2+y,-x,-z
1/2+x,1/2+y,-z
-y,1/2+x,-z
loop_
_atom_site_type_symbol
_atom_site_label
_atom_site_fract_x
_atom_site_fract_y
_atom_site_fract_z
Si Si1 0.853194 0.905383 0.003519
Si Si2 0.004141 0.158934 0.414473
Si Si3 0.026940 0.507713 0.794261
Si Si4 0.651492 0.158951 0.351767
Si Si5 0.750000 0.750000 0.530132
O O1 0.720693 0.899481 0.993177
O O2 0.893327 0.953190 0.133494
O O3 0.909774 0.973136 0.894124
O O4 0.128752 0.180729 0.463175
O O5 0.961547 0.267976 0.341309
O O6 0.912068 0.151455 0.522720
O O7 0.995602 0.053299 0.323552
O O8 0.142595 0.564531 0.751131
O O9 0.750000 0.250000 0.342431
#
# Coordination Sequence:
#
# PCOD9544688 Si02
#       5
#     8   8   8   8   2
#     4  10  24  47  69 100 141 182 243 309 352 416
#     4  12  24  45  68 105 142 186 235 291 355 434
#     4  11  25  43  74 101 138 191 243 288 366 430
#     4  12  25  45  72 103 147 186 232 300 357 432
#     4  12  28  40  68 104 134 196 228 280 344 434
#
# _framework density 21.815594000000001
#
# number of rings (size 3 to 8) (size 9 to 14) (size 15 to 20)
#    0.000    0.706    4.706    2.118    3.294    0.000 
#    0.000    0.000    0.000    0.000    0.000    0.000 
#    0.000    0.000    0.000    0.000    0.000    0.000 
#
# Total GULP energy -189465.772482 kJ/mol
# GULP energy per Si atom -5572.522720 kJ/mol
# Density = 2.176594 g / cm^3
# Si number density = 21.815594 Si / 1000 Ang^3
#
#
#
# Elastic Constant Matrix: (Units=GPa)
#
#
# Indices 1 2 3 4 5 6 
#
# 1 67.4211 8.3478 36.6510 0.0000 0.0000 -2.7999
# 2 8.3478 67.4211 36.6510 0.0000 0.0000 2.7999
# 3 36.6510 36.6510 91.2805 0.0000 0.0000 0.0000
# 4 0.0000 0.0000 0.0000 13.5495 0.0000 0.0000
# 5 0.0000 0.0000 0.0000 0.0000 13.5495 0.0000
# 6 -2.7999 2.7999 0.0000 0.0000 0.0000 34.5745
#
#
#
# Elastic Compliance Matrix: (Units=1/GPa)
#
#
# Indices 1 2 3 4 5 6 
#
# 1 0.019320 0.002261 -0.008665 0.000000 0.000000 0.001381
# 2 0.002261 0.019320 -0.008665 0.000000 0.000000 -0.001381
# 3 -0.008665 -0.008665 0.017914 0.000000 0.000000 0.000000
# 4 0.000000 0.000000 0.000000 0.073803 0.000000 0.000000
# 5 0.000000 0.000000 0.000000 0.000000 0.073803 0.000000
# 6 0.001381 -0.001381 0.000000 0.000000 0.000000 0.029147
#
#
# Mechanical properties :
#
#
# Convention : Reuss Voigt Hill
#
# Bulk Modulus (GPa) = 37.85720 43.26915 40.56318
# Shear Modulus (GPa) = 18.36534 21.96622 20.16578
#
# Velocity S-wave (km/s) = 2.90460 3.17662 3.04365
# Velocity P-wave (km/s) = 5.35163 5.77336 5.56649
#
# Compressibility (1/GPa) = 0.02641505
#
# Stress axis : x y z
#
# Youngs Moduli (GPa) = 51.75942 51.75942 55.82268
#
# Poissons Ratio (x) = -0.11703 0.48372
# Poissons Ratio (y) = -0.11703 0.48372
# Poissons Ratio (z) = 0.44851 0.44851
#
# Static dielectric constant tensor:
#      x y z
#    x 1.807660 0.000000 0.000000 
#    y 0.000000 1.807660 0.000000 
#    z 0.000000 0.000000 1.815740 
# 
# From -- ./inp_files/1442.got.cif
#   From: 2010.05.17/outbox.cif.g08.bks.cpg/sg85_cif.got.tgz:1442.got - 2010.06.03 19:01:16.
