data_PCOD9544497
_publ_section_title
;
Structure prediction by ZEFSAII (Michael W. Deem and Ramdas Pophale) SiO2 
 PCOD9544497
Probable space group: P 4/N
;
_chemical_formula_sum "Si O2"
_cell_formula_units_Z 48
_cell_length_a 17.312844
_cell_length_b 17.312844
_cell_length_c 8.893387
_cell_angle_alpha 90.000000
_cell_angle_beta 90.000000
_cell_angle_gamma 90.000000
_cell_volume 2665.655505
_symmetry_space_group_name_H-M "P 4/N"
_symmetry_group_IT_number 85
_symmetry_cell_setting 'tetragonal'
loop_
_space_group_symop_operation_xyz
x,y,z
1/2-y,x,z
1/2-x,1/2-y,z
y,1/2-x,z
-x,-y,-z
1/2+y,-x,-z
1/2+x,1/2+y,-z
-y,1/2+x,-z
loop_
_atom_site_type_symbol
_atom_site_label
_atom_site_fract_x
_atom_site_fract_y
_atom_site_fract_z
Si Si1 0.558131 0.031966 0.807046
Si Si2 0.666520 0.040252 0.523391
Si Si3 0.050228 0.659615 0.615291
Si Si4 0.797054 0.870089 0.142372
Si Si5 0.923037 0.598093 0.397360
Si Si6 0.002914 0.372509 0.061665
O O1 0.626524 0.038631 0.687962
O O2 0.479410 0.050017 0.713887
O O3 0.549457 0.948169 0.880598
O O4 0.558048 0.094728 0.940217
O O5 0.756389 0.055990 0.541562
O O6 0.622225 0.105956 0.428852
O O7 0.645814 0.958079 0.446963
O O8 0.974998 0.619437 0.540461
O O9 0.036606 0.664088 0.793036
O O10 0.708317 0.846693 0.123864
O O11 0.825586 0.898958 0.306255
O O12 0.818767 0.936262 0.024022
#
# Coordination Sequence:
#
# PCOD9544497 Si02
#       6
#     8   8   8   8   8   8
#     4   9  18  35  56  77 111 136 190 241 271 335
#     4  11  21  37  58  85 116 147 196 243 288 348
#     4  11  22  36  60  87 111 150 194 245 292 339
#     4  10  22  35  50  81 123 154 180 226 294 351
#     4  10  18  38  58  81 106 150 195 233 277 339
#     4  10  19  34  56  82 107 149 188 234 285 329
#
# _framework density 18.006826
#
# number of rings (size 3 to 8) (size 9 to 14) (size 15 to 20)
#    0.000    1.833    3.333    2.000    2.333    0.333 
#    0.000    1.667    0.000    2.000    0.000    0.000 
#    0.000    0.000    0.000    0.000    0.000    0.000 
#
# Total GULP energy -267856.244517 kJ/mol
# GULP energy per Si atom -5580.338427 kJ/mol
# Density = 1.796584 g / cm^3
# Si number density = 18.006826 Si / 1000 Ang^3
#
#
#
# Elastic Constant Matrix: (Units=GPa)
#
#
# Indices 1 2 3 4 5 6 
#
# 1 61.7074 12.4821 16.9666 0.0000 0.0000 -2.1264
# 2 12.4821 61.7074 16.9666 0.0000 0.0000 2.1264
# 3 16.9666 16.9666 98.8528 0.0000 0.0000 0.0000
# 4 0.0000 0.0000 0.0000 16.3731 0.0000 0.0000
# 5 0.0000 0.0000 0.0000 0.0000 16.3731 0.0000
# 6 -2.1264 2.1264 0.0000 0.0000 0.0000 13.3590
#
#
#
# Elastic Compliance Matrix: (Units=1/GPa)
#
#
# Indices 1 2 3 4 5 6 
#
# 1 0.017613 -0.002985 -0.002511 0.000000 0.000000 0.003279
# 2 -0.002985 0.017613 -0.002511 0.000000 0.000000 -0.003279
# 3 -0.002511 -0.002511 0.010978 0.000000 0.000000 0.000000
# 4 0.000000 0.000000 0.000000 0.061076 0.000000 0.000000
# 5 0.000000 0.000000 0.000000 0.000000 0.061076 0.000000
# 6 0.003279 -0.003279 0.000000 0.000000 0.000000 0.075899
#
#
# Mechanical properties :
#
#
# Convention : Reuss Voigt Hill
#
# Bulk Modulus (GPa) = 33.12330 35.01088 34.06709
# Shear Modulus (GPa) = 18.49589 20.94454 19.72022
#
# Velocity S-wave (km/s) = 3.20841 3.41419 3.31290
# Velocity P-wave (km/s) = 5.67098 5.91841 5.79601
#
# Compressibility (1/GPa) = 0.03019023
#
# Stress axis : x y z
#
# Youngs Moduli (GPa) = 56.77738 56.77738 91.09252
#
# Poissons Ratio (x) = 0.16950 0.22869
# Poissons Ratio (y) = 0.16950 0.22869
# Poissons Ratio (z) = 0.14254 0.14254
#
# Static dielectric constant tensor:
#      x y z
#    x 1.597930 0.000000 0.000000 
#    y 0.000000 1.597930 0.000000 
#    z 0.000000 0.000000 1.631750 
# 
# From -- ./inp_files/1098.got.cif
#   From: 2010.05.17/outbox.cif.g08.bks.cpg/sg85_cif.got.tgz:1098.got - 2010.06.03 19:01:16.
