data_PCOD9544083
_publ_section_title
;
Structure prediction by ZEFSAII (Michael W. Deem and Ramdas Pophale) SiO2 
 PCOD9544083
Probable space group: P 42/M
;
_chemical_formula_sum "Si O2"
_cell_formula_units_Z 40
_cell_length_a 8.527384
_cell_length_b 8.527384
_cell_length_c 26.967388
_cell_angle_alpha 90.000000
_cell_angle_beta 90.000000
_cell_angle_gamma 90.000000
_cell_volume 1960.968080
_symmetry_space_group_name_H-M "P 42/M"
_symmetry_group_IT_number 84
_symmetry_cell_setting 'tetragonal'
loop_
_space_group_symop_operation_xyz
x,y,z
-y,x,1/2+z
-x,-y,z
y,-x,1/2+z
-x,-y,-z
y,-x,1/2-z
x,y,-z
-y,x,1/2-z
loop_
_atom_site_type_symbol
_atom_site_label
_atom_site_fract_x
_atom_site_fract_y
_atom_site_fract_z
Si Si1 0.801072 0.221516 0.169718
Si Si2 0.205977 0.271775 0.058272
Si Si3 0.317017 0.677528 0.735106
Si Si4 0.500000 0.000000 0.376677
Si Si5 0.000000 0.000000 0.603407
Si Si6 0.460800 0.314798 0.132044
O O1 0.781080 0.210655 0.229073
O O2 0.909001 0.371455 0.155867
O O3 0.625531 0.241471 0.148167
O O4 0.878101 0.081805 0.140120
O O5 0.377664 0.254003 0.082743
O O6 0.125857 0.415448 0.087837
O O7 0.214401 0.300063 0.000000
O O8 0.094144 0.124782 0.070413
O O9 0.501600 0.708760 0.743231
O O10 0.285773 0.662674 0.677054
O O11 0.500000 0.500000 0.128951
#
# Coordination Sequence:
#
# PCOD9544083 Si02
#       6
#     8   8   8   4   4   8
#     4  10  20  38  64  92 128 165 207 256 318 383
#     4  11  23  41  63  89 126 171 217 270 325 374
#     4   9  14  30  60  92 118 148 188 248 312 363
#     4  10  19  38  62  94 126 166 211 262 308 392
#     4  10  25  44  59  86 132 174 214 254 322 398
#     4  11  19  37  65 100 123 152 216 271 312 369
#
# _framework density 20.398085999999999
#
# number of rings (size 3 to 8) (size 9 to 14) (size 15 to 20)
#    0.000    1.800    6.000    0.600    0.000    1.200 
#    0.000   12.000    0.000    0.000    0.000    0.000 
#    0.000    0.000    0.000    0.000    0.000    0.000 
#
# Total GULP energy -223443.258623 kJ/mol
# GULP energy per Si atom -5586.081466 kJ/mol
# Density = 2.035166 g / cm^3
# Si number density = 20.398086 Si / 1000 Ang^3
#
#
#
# Elastic Constant Matrix: (Units=GPa)
#
#
# Indices 1 2 3 4 5 6 
#
# 1 35.9211 -2.8349 8.5683 0.0000 0.0000 -4.0188
# 2 -2.8349 35.9211 8.5683 0.0000 0.0000 4.0188
# 3 8.5683 8.5683 100.9279 0.0000 0.0000 0.0000
# 4 0.0000 0.0000 0.0000 15.3957 0.0000 0.0000
# 5 0.0000 0.0000 0.0000 0.0000 15.3957 0.0000
# 6 -4.0188 4.0188 0.0000 0.0000 0.0000 15.2644
#
#
#
# Elastic Compliance Matrix: (Units=1/GPa)
#
#
# Indices 1 2 3 4 5 6 
#
# 1 0.029453 0.002161 -0.002684 0.000000 0.000000 0.007186
# 2 0.002161 0.029453 -0.002684 0.000000 0.000000 -0.007186
# 3 -0.002684 -0.002684 0.010364 0.000000 0.000000 0.000000
# 4 0.000000 0.000000 0.000000 0.064953 0.000000 0.000000
# 5 0.000000 0.000000 0.000000 0.000000 0.064953 0.000000
# 6 0.007186 -0.007186 0.000000 0.000000 0.000000 0.069296
#
#
# Mechanical properties :
#
#
# Convention : Reuss Voigt Hill
#
# Bulk Modulus (GPa) = 15.90928 22.37484 19.14206
# Shear Modulus (GPa) = 16.90109 19.77572 18.33841
#
# Velocity S-wave (km/s) = 2.88160 3.11704 3.00163
# Velocity P-wave (km/s) = 4.34601 4.89362 4.62792
#
# Compressibility (1/GPa) = 0.06285642
#
# Stress axis : x y z
#
# Youngs Moduli (GPa) = 33.95195 33.95195 96.49011
#
# Poissons Ratio (x) = -0.07336 0.25897
# Poissons Ratio (y) = -0.07336 0.25897
# Poissons Ratio (z) = 0.09112 0.09112
#
# Static dielectric constant tensor:
#      x y z
#    x 1.744160 0.000000 0.000000 
#    y 0.000000 1.744160 0.000000 
#    z 0.000000 0.000000 1.700090 
# 
# From -- ./inp_files/5389.got.cif
#   From: 2010.05.17/outbox.cif.g08.bks.cpg/sg84_3_cif.got.tgz:5389.got - 2010.06.03 18:57:40.
