data_PCOD9544940
_publ_section_title
;
Structure prediction by ZEFSAII (Michael W. Deem and Ramdas Pophale) SiO2 
 PCOD9544940
Probable space group: P 42/N
;
_chemical_formula_sum "Si O2"
_cell_formula_units_Z 40
_cell_length_a 11.077644
_cell_length_b 11.077644
_cell_length_c 13.534443
_cell_angle_alpha 90.000000
_cell_angle_beta 90.000000
_cell_angle_gamma 90.000000
_cell_volume 1660.868299
_symmetry_space_group_name_H-M "P 42/N"
_symmetry_group_IT_number 86
_space_group.IT_coordinate_system_code '2'
_symmetry_cell_setting 'tetragonal'
loop_
_space_group_symop_operation_xyz
x,y,z
-y,1/2+x,1/2+z
1/2-x,1/2-y,z
1/2+y,-x,1/2+z
-x,-y,-z
y,1/2-x,1/2-z
1/2+x,1/2+y,-z
1/2-y,x,1/2-z
loop_
_atom_site_type_symbol
_atom_site_label
_atom_site_fract_x
_atom_site_fract_y
_atom_site_fract_z
Si Si1 0.960677 0.189623 0.946701
Si Si2 0.295993 0.369328 0.416021
Si Si3 0.518721 0.146166 0.605865
Si Si4 0.183392 0.626779 0.766158
Si Si5 0.435885 0.407371 0.244890
O O1 0.905964 0.227792 0.843663
O O2 0.871457 0.108345 0.013264
O O3 0.076012 0.102423 0.924024
O O4 0.014848 0.293597 0.014925
O O5 0.250000 0.250000 0.470468
O O6 0.419180 0.357635 0.355156
O O7 0.190231 0.382932 0.332257
O O8 0.526298 0.278641 0.652469
O O9 0.565250 0.064667 0.698027
O O10 0.250000 0.750000 0.797627
O O11 0.038607 0.629621 0.752860
#
# Coordination Sequence:
#
# PCOD9544940 Si02
#       5
#     8   8   8   8   8
#     4   9  21  39  58  84 121 163 198 243 315 362
#     4  11  19  36  62  88 115 156 205 253 303 371
#     4   9  20  41  59  82 123 164 195 243 312 370
#     4  11  22  36  63  90 121 158 203 254 302 367
#     4  10  19  36  64  87 114 157 205 252 295 360
#
# _framework density 24.083788999999999
#
# number of rings (size 3 to 8) (size 9 to 14) (size 15 to 20)
#    0.000    2.000    2.000    3.600    0.000    2.400 
#    7.200    1.000    0.000    0.000    0.000    0.000 
#    0.000    0.000    0.000    0.000    0.000    0.000 
#
# Total GULP energy -223217.972333 kJ/mol
# GULP energy per Si atom -5580.449308 kJ/mol
# Density = 2.402897 g / cm^3
# Si number density = 24.083789 Si / 1000 Ang^3
#
#
#
# Elastic Constant Matrix: (Units=GPa)
#
#
# Indices 1 2 3 4 5 6 
#
# 1 50.9648 7.8483 17.4973 0.0000 0.0000 -0.7026
# 2 7.8483 50.9648 17.4973 0.0000 0.0000 0.7026
# 3 17.4973 17.4973 92.5718 0.0000 0.0000 0.0000
# 4 0.0000 0.0000 0.0000 29.4713 0.0000 0.0000
# 5 0.0000 0.0000 0.0000 0.0000 29.4713 0.0000
# 6 -0.7026 0.7026 0.0000 0.0000 0.0000 18.9709
#
#
#
# Elastic Compliance Matrix: (Units=1/GPa)
#
#
# Indices 1 2 3 4 5 6 
#
# 1 0.021189 -0.002032 -0.003621 0.000000 0.000000 0.000860
# 2 -0.002032 0.021189 -0.003621 0.000000 0.000000 -0.000860
# 3 -0.003621 -0.003621 0.012171 0.000000 0.000000 0.000000
# 4 0.000000 0.000000 0.000000 0.033931 0.000000 0.000000
# 5 0.000000 0.000000 0.000000 0.000000 0.033931 0.000000
# 6 0.000860 -0.000860 0.000000 0.000000 0.000000 0.052776
#
#
# Mechanical properties :
#
#
# Convention : Reuss Voigt Hill
#
# Bulk Modulus (GPa) = 27.77603 31.13192 29.45397
# Shear Modulus (GPa) = 24.30288 25.69326 24.99807
#
# Velocity S-wave (km/s) = 3.18008 3.26978 3.22524
# Velocity P-wave (km/s) = 5.00419 5.21630 5.11135
#
# Compressibility (1/GPa) = 0.03600227
#
# Stress axis : x y z
#
# Youngs Moduli (GPa) = 47.19364 47.19364 82.16069
#
# Poissons Ratio (x) = 0.09588 0.29751
# Poissons Ratio (y) = 0.09588 0.29751
# Poissons Ratio (z) = 0.17089 0.17089
#
# Static dielectric constant tensor:
#      x y z
#    x 1.975850 0.000000 0.000000 
#    y 0.000000 1.975850 0.000000 
#    z 0.000000 0.000000 1.889780 
# 
# From -- ./inp_files/2861.got.cif
#   From: 2010.05.17/outbox.cif.g08.bks.cpg/sg86_2_cif.got.tgz:2861.got - 2010.06.03 19:03:11.
