data_PCOD9544750
_publ_section_title
;
Structure prediction by ZEFSAII (Michael W. Deem and Ramdas Pophale) SiO2 
 PCOD9544750
Probable space group: P 4/N
;
_chemical_formula_sum "Si O2"
_cell_formula_units_Z 40
_cell_length_a 13.994441
_cell_length_b 13.994441
_cell_length_c 8.947402
_cell_angle_alpha 90.000000
_cell_angle_beta 90.000000
_cell_angle_gamma 90.000000
_cell_volume 1752.298387
_symmetry_space_group_name_H-M "P 4/N"
_symmetry_group_IT_number 85
_symmetry_cell_setting 'tetragonal'
loop_
_space_group_symop_operation_xyz
x,y,z
1/2-y,x,z
1/2-x,1/2-y,z
y,1/2-x,z
-x,-y,-z
1/2+y,-x,-z
1/2+x,1/2+y,-z
-y,1/2+x,-z
loop_
_atom_site_type_symbol
_atom_site_label
_atom_site_fract_x
_atom_site_fract_y
_atom_site_fract_z
Si Si1 0.752896 0.391696 0.059552
Si Si2 0.443835 0.632473 0.348433
Si Si3 0.027864 0.290652 0.426466
Si Si4 0.643132 0.640662 0.301186
Si Si5 0.407125 0.239485 0.090752
O O1 0.804102 0.395412 0.219291
O O2 0.826191 0.340711 0.944991
O O3 0.729632 0.495710 0.999785
O O4 0.373325 0.551284 0.404784
O O5 0.478860 0.704836 0.478751
O O6 0.542251 0.589099 0.276715
O O7 0.114729 0.334247 0.524654
O O8 0.064944 0.260360 0.265455
O O9 0.750981 0.622406 0.248568
O O10 0.348774 0.336337 0.060476
#
# Coordination Sequence:
#
# PCOD9544750 Si02
#       5
#     8   8   8   8   8
#     4  11  26  49  71 100 146 196 241 298 362 433
#     4  11  24  40  69 102 135 185 236 292 353 431
#     4  11  23  42  68 106 139 179 232 297 361 427
#     4   9  19  38  63  95 137 173 217 283 349 413
#     4  11  25  47  74 105 141 188 239 295 363 435
#
# _framework density 22.827162000000001
#
# number of rings (size 3 to 8) (size 9 to 14) (size 15 to 20)
#    0.000    1.400    2.000    3.000    2.800    7.600 
#    3.600    4.000    0.000    0.000    0.000    0.000 
#    0.000    0.000    0.000    0.000    0.000    0.000 
#
# Total GULP energy -223425.098875 kJ/mol
# GULP energy per Si atom -5585.627472 kJ/mol
# Density = 2.277521 g / cm^3
# Si number density = 22.827162 Si / 1000 Ang^3
#
#
#
# Elastic Constant Matrix: (Units=GPa)
#
#
# Indices 1 2 3 4 5 6 
#
# 1 122.2853 54.9644 17.7192 0.0000 0.0000 -3.9616
# 2 54.9644 122.2853 17.7192 0.0000 0.0000 3.9616
# 3 17.7192 17.7192 60.2945 0.0000 0.0000 0.0000
# 4 0.0000 0.0000 0.0000 35.8567 0.0000 0.0000
# 5 0.0000 0.0000 0.0000 0.0000 35.8567 0.0000
# 6 -3.9616 3.9616 0.0000 0.0000 0.0000 28.8443
#
#
#
# Elastic Compliance Matrix: (Units=1/GPa)
#
#
# Indices 1 2 3 4 5 6 
#
# 1 0.010546 -0.004552 -0.001761 0.000000 0.000000 0.002074
# 2 -0.004552 0.010546 -0.001761 0.000000 0.000000 -0.002074
# 3 -0.001761 -0.001761 0.017621 0.000000 0.000000 0.000000
# 4 0.000000 0.000000 0.000000 0.027889 0.000000 0.000000
# 5 0.000000 0.000000 0.000000 0.000000 0.027889 0.000000
# 6 0.002074 -0.002074 0.000000 0.000000 0.000000 0.035239
#
#
# Mechanical properties :
#
#
# Convention : Reuss Voigt Hill
#
# Bulk Modulus (GPa) = 44.32128 53.96341 49.14235
# Shear Modulus (GPa) = 32.59452 34.40902 33.50177
#
# Velocity S-wave (km/s) = 3.78283 3.88670 3.83512
# Velocity P-wave (km/s) = 6.20789 6.62067 6.41760
#
# Compressibility (1/GPa) = 0.02256252
#
# Stress axis : x y z
#
# Youngs Moduli (GPa) = 94.82165 94.82165 56.75183
#
# Poissons Ratio (x) = 0.43164 0.09997
# Poissons Ratio (y) = 0.43164 0.09997
# Poissons Ratio (z) = 0.16703 0.16703
#
# Static dielectric constant tensor:
#      x y z
#    x 1.843280 0.000000 0.000000 
#    y 0.000000 1.843280 0.000000 
#    z 0.000000 0.000000 1.919100 
# 
# From -- ./inp_files/915.got.cif
#   From: 2010.05.17/outbox.cif.g08.bks.cpg/sg85_cif.got.tgz:915.got - 2010.06.03 19:01:16.
