data_PCOD9544786
_publ_section_title
;
Structure prediction by ZEFSAII (Michael W. Deem and Ramdas Pophale) SiO2 
 PCOD9544786
Probable space group: P 4/N
;
_chemical_formula_sum "Si O2"
_cell_formula_units_Z 44
_cell_length_a 8.203930
_cell_length_b 8.203930
_cell_length_c 29.658358
_cell_angle_alpha 90.000000
_cell_angle_beta 90.000000
_cell_angle_gamma 90.000000
_cell_volume 1996.139990
_symmetry_space_group_name_H-M "P 4/N"
_symmetry_group_IT_number 85
_symmetry_cell_setting 'tetragonal'
loop_
_space_group_symop_operation_xyz
x,y,z
1/2-y,x,z
1/2-x,1/2-y,z
y,1/2-x,z
-x,-y,-z
1/2+y,-x,-z
1/2+x,1/2+y,-z
-y,1/2+x,-z
loop_
_atom_site_type_symbol
_atom_site_label
_atom_site_fract_x
_atom_site_fract_y
_atom_site_fract_z
Si Si1 0.250000 0.750000 0.208690
Si Si2 0.074263 0.041296 0.951815
Si Si3 0.005121 0.662207 0.722294
Si Si4 0.876812 0.998688 0.143470
Si Si5 0.075859 0.039311 0.451390
Si Si6 0.013692 0.125543 0.639190
O O1 0.367864 0.648586 0.242140
O O2 0.351959 0.878334 0.178269
O O3 0.268966 0.030789 0.949846
O O4 0.042098 0.948301 0.904777
O O5 0.000000 0.000000 0.000000
O O6 0.949367 0.847551 0.728914
O O7 0.060695 0.628029 0.671284
O O8 0.681149 0.957296 0.147351
O O9 0.270946 0.030089 0.445953
O O10 0.000000 0.000000 0.500000
O O11 0.012623 0.917364 0.413037
O O12 0.185029 0.038319 0.649576
#
# Coordination Sequence:
#
# PCOD9544786 Si02
#       6
#     4   8   8   8   8   8
#     4  12  22  38  64  91 120 165 212 258 314 378
#     4   9  19  35  55  82 115 150 192 242 298 364
#     4  11  24  41  61  89 125 164 208 260 316 375
#     4   9  20  38  58  84 119 156 199 253 309 369
#     4  11  24  41  63  94 130 168 212 265 325 387
#     4  11  24  42  65  93 124 163 215 267 319 385
#
# _framework density 22.042542000000001
#
# number of rings (size 3 to 8) (size 9 to 14) (size 15 to 20)
#    0.000    1.636    0.000    5.455    0.000   10.182 
#    0.000    1.818    0.000    2.182    0.000    0.000 
#    0.000    0.000    0.000    0.000    0.000    0.000 
#
# Total GULP energy -245184.794298 kJ/mol
# GULP energy per Si atom -5572.381689 kJ/mol
# Density = 2.199237 g / cm^3
# Si number density = 22.042542 Si / 1000 Ang^3
#
#
#
# Elastic Constant Matrix: (Units=GPa)
#
#
# Indices 1 2 3 4 5 6 
#
# 1 50.0749 18.6838 31.8747 0.0000 0.0000 0.5496
# 2 18.6838 50.0749 31.8747 0.0000 0.0000 -0.5496
# 3 31.8747 31.8747 166.1236 0.0000 0.0000 0.0000
# 4 0.0000 0.0000 0.0000 41.6104 0.0000 0.0000
# 5 0.0000 0.0000 0.0000 0.0000 41.6104 0.0000
# 6 0.5496 -0.5496 0.0000 0.0000 0.0000 24.1205
#
#
#
# Elastic Compliance Matrix: (Units=1/GPa)
#
#
# Indices 1 2 3 4 5 6 
#
# 1 0.024786 -0.007095 -0.003394 0.000000 0.000000 -0.000726
# 2 -0.007095 0.024786 -0.003394 0.000000 0.000000 0.000726
# 3 -0.003394 -0.003394 0.007322 0.000000 0.000000 0.000000
# 4 0.000000 0.000000 0.000000 0.024032 0.000000 0.000000
# 5 0.000000 0.000000 0.000000 0.000000 0.024032 0.000000
# 6 -0.000726 0.000726 0.000000 0.000000 0.000000 0.041492
#
#
# Mechanical properties :
#
#
# Convention : Reuss Voigt Hill
#
# Bulk Modulus (GPa) = 34.33345 47.90440 41.11893
# Shear Modulus (GPa) = 27.18454 33.72428 30.45441
#
# Velocity S-wave (km/s) = 3.51561 3.91572 3.72105
# Velocity P-wave (km/s) = 5.66473 6.49797 6.09561
#
# Compressibility (1/GPa) = 0.02912612
#
# Stress axis : x y z
#
# Youngs Moduli (GPa) = 40.34512 40.34512 136.57102
#
# Poissons Ratio (x) = 0.28627 0.46357
# Poissons Ratio (y) = 0.28627 0.46357
# Poissons Ratio (z) = 0.13695 0.13695
#
# Static dielectric constant tensor:
#      x y z
#    x 1.855840 0.000000 0.000000 
#    y 0.000000 1.855840 0.000000 
#    z 0.000000 0.000000 1.893450 
# 
# From -- ./inp_files/2397.got.cif
#   From: 2010.05.17/outbox.cif.g08.bks.cpg/sg85_cif.got.tgz:2397.got - 2010.06.03 19:01:16.
