data_PCOD9544805
_publ_section_title
;
Structure prediction by ZEFSAII (Michael W. Deem and Ramdas Pophale) SiO2 
 PCOD9544805
Probable space group: P 4/N
;
_chemical_formula_sum "Si O2"
_cell_formula_units_Z 50
_cell_length_a 8.816473
_cell_length_b 8.816473
_cell_length_c 32.271607
_cell_angle_alpha 90.000000
_cell_angle_beta 90.000000
_cell_angle_gamma 90.000000
_cell_volume 2508.478342
_symmetry_space_group_name_H-M "P 4/N"
_symmetry_group_IT_number 85
_symmetry_cell_setting 'tetragonal'
loop_
_space_group_symop_operation_xyz
x,y,z
1/2-y,x,z
1/2-x,1/2-y,z
y,1/2-x,z
-x,-y,-z
1/2+y,-x,-z
1/2+x,1/2+y,-z
-y,1/2+x,-z
loop_
_atom_site_type_symbol
_atom_site_label
_atom_site_fract_x
_atom_site_fract_y
_atom_site_fract_z
Si Si1 0.397969 0.042704 0.376457
Si Si2 0.970419 0.617285 0.296310
Si Si3 0.750000 0.750000 0.204850
Si Si4 0.962431 0.892438 0.870055
Si Si5 0.059043 0.080326 0.040858
Si Si6 0.334797 0.586048 0.789704
Si Si7 0.579928 0.559153 0.458463
O O1 0.453822 0.216309 0.374586
O O2 0.454523 0.944314 0.337764
O O3 0.466211 0.979217 0.419036
O O4 0.949332 0.799710 0.295887
O O5 0.066622 0.582450 0.254929
O O6 0.770506 0.563707 0.206819
O O7 0.790145 0.950950 0.869312
O O8 0.017923 0.957197 0.914654
O O9 0.059530 0.925684 0.829982
O O10 0.238036 0.045204 0.040181
O O11 0.000000 0.000000 0.000000
O O12 0.250000 0.750000 0.790312
O O13 0.761755 0.544187 0.457366
O O14 0.500000 0.500000 0.500000
#
# Coordination Sequence:
#
# PCOD9544805 Si02
#       7
#     8   8   2   8   8   8   8
#     4  11  26  43  64  98 135 178 233 287 342 424
#     4  11  24  44  65  93 132 174 224 283 344 414
#     4  12  24  48  60 104 144 164 236 296 320 436
#     4   9  20  40  64  89 128 175 226 278 343 426
#     4   9  19  40  61  87 125 165 212 272 336 406
#     4  12  24  42  69  97 136 185 228 289 364 410
#     4  11  24  43  68  99 134 174 225 286 352 425
#
# _framework density 19.932404999999999
#
# number of rings (size 3 to 8) (size 9 to 14) (size 15 to 20)
#    0.000    1.440    1.600    3.840    2.240    6.400 
#    8.640    1.600    0.000    0.000    0.000    0.000 
#    0.000    0.000    0.000    0.000    0.000    0.000 
#
# Total GULP energy -278437.289898 kJ/mol
# GULP energy per Si atom -5568.745798 kJ/mol
# Density = 1.988704 g / cm^3
# Si number density = 19.932405 Si / 1000 Ang^3
#
#
#
# Elastic Constant Matrix: (Units=GPa)
#
#
# Indices 1 2 3 4 5 6 
#
# 1 75.8202 62.7308 76.6605 0.0000 0.0000 1.1384
# 2 62.7308 75.8202 76.6605 0.0000 0.0000 -1.1384
# 3 76.6605 76.6605 241.3333 0.0000 0.0000 0.0000
# 4 0.0000 0.0000 0.0000 37.9399 0.0000 0.0000
# 5 0.0000 0.0000 0.0000 0.0000 37.9399 0.0000
# 6 1.1384 -1.1384 0.0000 0.0000 0.0000 27.6022
#
#
#
# Elastic Compliance Matrix: (Units=1/GPa)
#
#
# Indices 1 2 3 4 5 6 
#
# 1 0.044040 -0.032910 -0.003535 0.000000 0.000000 -0.003174
# 2 -0.032910 0.044040 -0.003535 0.000000 0.000000 0.003174
# 3 -0.003535 -0.003535 0.006390 0.000000 0.000000 0.000000
# 4 0.000000 0.000000 0.000000 0.026357 0.000000 0.000000
# 5 0.000000 0.000000 0.000000 0.000000 0.026357 0.000000
# 6 -0.003174 0.003174 0.000000 0.000000 0.000000 0.036491
#
#
# Mechanical properties :
#
#
# Convention : Reuss Voigt Hill
#
# Bulk Modulus (GPa) = 68.92876 91.67525 80.30200
# Shear Modulus (GPa) = 18.62383 32.49119 25.55751
#
# Velocity S-wave (km/s) = 3.06003 4.04179 3.58468
# Velocity P-wave (km/s) = 6.86596 8.23859 7.58339
#
# Compressibility (1/GPa) = 0.01450773
#
# Stress axis : x y z
#
# Youngs Moduli (GPa) = 22.70665 22.70665 156.50065
#
# Poissons Ratio (x) = 0.74728 0.55330
# Poissons Ratio (y) = 0.74728 0.55330
# Poissons Ratio (z) = 0.08028 0.08028
#
# Static dielectric constant tensor:
#      x y z
#    x 1.606830 0.000000 0.000000 
#    y 0.000000 1.606830 0.000000 
#    z 0.000000 0.000000 1.741100 
# 
# From -- ./inp_files/2485.got.cif
#   From: 2010.05.17/outbox.cif.g08.bks.cpg/sg85_cif.got.tgz:2485.got - 2010.06.03 19:01:16.
