data_PCOD9544068
_publ_section_title
;
Structure prediction by ZEFSAII (Michael W. Deem and Ramdas Pophale) SiO2 
 PCOD9544068
Probable space group: P 42/M
;
_chemical_formula_sum "Si O2"
_cell_formula_units_Z 64
_cell_length_a 20.318114
_cell_length_b 20.318114
_cell_length_c 8.841874
_cell_angle_alpha 90.000000
_cell_angle_beta 90.000000
_cell_angle_gamma 90.000000
_cell_volume 3650.153323
_symmetry_space_group_name_H-M "P 42/M"
_symmetry_group_IT_number 84
_symmetry_cell_setting 'tetragonal'
loop_
_space_group_symop_operation_xyz
x,y,z
-y,x,1/2+z
-x,-y,z
y,-x,1/2+z
-x,-y,-z
y,-x,1/2-z
x,y,-z
-y,x,1/2-z
loop_
_atom_site_type_symbol
_atom_site_label
_atom_site_fract_x
_atom_site_fract_y
_atom_site_fract_z
Si Si1 0.613146 0.345198 0.319848
Si Si2 0.657089 0.479936 0.670199
Si Si3 0.705602 0.232552 0.818195
Si Si4 0.725781 0.839159 0.826057
Si Si5 0.038108 0.657810 0.818389
Si Si6 0.513786 0.905608 0.674245
Si Si7 0.574739 0.799280 0.161761
Si Si8 0.903483 0.630210 0.318949
O O1 0.623145 0.343810 0.500000
O O2 0.540525 0.323911 0.273264
O O3 0.610674 0.422287 0.269310
O O4 0.665328 0.296015 0.243218
O O5 0.637688 0.501731 0.500000
O O6 0.723470 0.438444 0.655608
O O7 0.780420 0.233434 0.753458
O O8 0.664294 0.166355 0.777056
O O9 0.708543 0.236449 0.000000
O O10 0.710866 0.908989 0.744100
O O11 0.651581 0.811099 0.828547
O O12 0.747362 0.848821 0.000000
O O13 0.057619 0.581441 0.773826
O O14 0.965383 0.668151 0.753614
O O15 0.039463 0.659175 0.000000
O O16 0.502011 0.922399 0.500000
O O17 0.536988 0.831093 0.699581
O O18 0.445235 0.910667 0.761935
O O19 0.550880 0.828931 0.000000
O O20 0.908276 0.631161 0.500000
#
# Coordination Sequence:
#
# PCOD9544068 Si02
#       8
#     8   8   8   8   8   8   8   8
#     4  11  23  38  55  75  97 128 172 220 276 336
#     4  10  21  37  51  69  97 125 165 220 275 332
#     4  11  23  38  56  80 110 141 179 226 273 319
#     4  10  19  35  58  80 103 137 178 217 260 317
#     4  10  21  36  54  79 110 144 182 225 269 320
#     4  10  20  32  49  76 106 138 178 221 265 319
#     4   9  17  32  51  70  96 129 167 212 260 316
#     4  11  23  36  51  76 110 147 181 220 271 322
#
# _framework density 17.53351
#
# number of rings (size 3 to 8) (size 9 to 14) (size 15 to 20)
#    0.000    1.750    1.250    3.375    0.000   10.250 
#    0.000    1.250    0.000    0.000    0.000    0.000 
#    0.000    0.500    0.000    5.250    0.000    2.250 
#
# Total GULP energy -356408.186060 kJ/mol
# GULP energy per Si atom -5568.877907 kJ/mol
# Density = 1.749360 g / cm^3
# Si number density = 17.533510 Si / 1000 Ang^3
#
#
#
# Elastic Constant Matrix: (Units=GPa)
#
#
# Indices 1 2 3 4 5 6 
#
# 1 47.2503 11.4209 27.2057 0.0000 0.0000 2.1479
# 2 11.4209 47.2503 27.2057 0.0000 0.0000 -2.1479
# 3 27.2057 27.2057 68.1517 0.0000 0.0000 0.0000
# 4 0.0000 0.0000 0.0000 22.0889 0.0000 0.0000
# 5 0.0000 0.0000 0.0000 0.0000 22.0889 0.0000
# 6 2.1479 -2.1479 0.0000 0.0000 0.0000 9.9188
#
#
#
# Elastic Compliance Matrix: (Units=1/GPa)
#
#
# Indices 1 2 3 4 5 6 
#
# 1 0.027859 -0.000795 -0.010803 0.000000 0.000000 -0.006205
# 2 -0.000795 0.027859 -0.010803 0.000000 0.000000 0.006205
# 3 -0.010803 -0.010803 0.023299 0.000000 0.000000 0.000000
# 4 0.000000 0.000000 0.000000 0.045272 0.000000 0.000000
# 5 0.000000 0.000000 0.000000 0.000000 0.045272 0.000000
# 6 -0.006205 0.006205 0.000000 0.000000 0.000000 0.103506
#
#
# Mechanical properties :
#
#
# Convention : Reuss Voigt Hill
#
# Bulk Modulus (GPa) = 29.23027 32.70189 30.96608
# Shear Modulus (GPa) = 15.18493 17.27396 16.22945
#
# Velocity S-wave (km/s) = 2.94607 3.14219 3.04571
# Velocity P-wave (km/s) = 5.31787 5.64412 5.48342
#
# Compressibility (1/GPa) = 0.03421111
#
# Stress axis : x y z
#
# Youngs Moduli (GPa) = 35.89550 35.89550 42.92121
#
# Poissons Ratio (x) = 0.02855 0.46370
# Poissons Ratio (y) = 0.02855 0.46370
# Poissons Ratio (z) = 0.38780 0.38780
#
# Static dielectric constant tensor:
#      x y z
#    x 1.639320 0.000000 0.000000 
#    y 0.000000 1.639320 0.000000 
#    z 0.000000 0.000000 1.665720 
# 
# From -- ./inp_files/1397.got.cif
#   From: 2010.05.17/outbox.cif.g08.bks.cpg/sg84_1_cif.got.tgz:1397.got - 2010.06.03 18:57:40.
