data_PCOD9544508
_publ_section_title
;
Structure prediction by ZEFSAII (Michael W. Deem and Ramdas Pophale) SiO2 
 PCOD9544508
Probable space group: P 4/N
;
_chemical_formula_sum "Si O2"
_cell_formula_units_Z 40
_cell_length_a 14.524792
_cell_length_b 14.524792
_cell_length_c 8.999633
_cell_angle_alpha 90.000000
_cell_angle_beta 90.000000
_cell_angle_gamma 90.000000
_cell_volume 1898.648818
_symmetry_space_group_name_H-M "P 4/N"
_symmetry_group_IT_number 85
_symmetry_cell_setting 'tetragonal'
loop_
_space_group_symop_operation_xyz
x,y,z
1/2-y,x,z
1/2-x,1/2-y,z
y,1/2-x,z
-x,-y,-z
1/2+y,-x,-z
1/2+x,1/2+y,-z
-y,1/2+x,-z
loop_
_atom_site_type_symbol
_atom_site_label
_atom_site_fract_x
_atom_site_fract_y
_atom_site_fract_z
Si Si1 0.676023 0.617451 0.580229
Si Si2 0.704299 0.343703 0.243444
Si Si3 0.542919 0.930824 0.857975
Si Si4 0.928951 0.151636 0.975897
Si Si5 0.580317 0.488867 0.377556
O O1 0.784025 0.628509 0.585055
O O2 0.639219 0.568516 0.728320
O O3 0.648698 0.568001 0.427901
O O4 0.750000 0.250000 0.299527
O O5 0.780788 0.410354 0.163782
O O6 0.642494 0.397444 0.363929
O O7 0.634395 0.314357 0.111314
O O8 0.452023 0.894363 0.937785
O O9 0.507983 0.023983 0.774454
O O10 0.627597 0.968273 0.959567
O O11 0.500000 0.500000 0.500000
#
# Coordination Sequence:
#
# PCOD9544508 Si02
#       5
#     8   8   8   8   8
#     4  10  22  39  61  82 114 165 217 262 301 380
#     4  11  20  35  63  94 129 162 213 272 334 397
#     4   9  21  36  59  86 122 161 204 255 334 396
#     4  10  19  34  57  94 122 159 196 261 335 393
#     4   9  21  40  60  86 127 171 212 262 325 393
#
# _framework density 21.067613999999999
#
# number of rings (size 3 to 8) (size 9 to 14) (size 15 to 20)
#    0.000    2.200    2.000    0.000    5.600    1.600 
#    0.000    0.000    0.000    4.800    0.000    0.000 
#    0.000    0.000    0.000    0.000    0.000    0.000 
#
# Total GULP energy -222848.195653 kJ/mol
# GULP energy per Si atom -5571.204891 kJ/mol
# Density = 2.101966 g / cm^3
# Si number density = 21.067614 Si / 1000 Ang^3
#
#
#
# Elastic Constant Matrix: (Units=GPa)
#
#
# Indices 1 2 3 4 5 6 
#
# 1 90.6909 20.4831 37.3044 0.0000 0.0000 12.9670
# 2 20.4831 90.6909 37.3044 0.0000 0.0000 -12.9670
# 3 37.3044 37.3044 61.5533 0.0000 0.0000 0.0000
# 4 0.0000 0.0000 0.0000 29.0598 0.0000 0.0000
# 5 0.0000 0.0000 0.0000 0.0000 29.0598 0.0000
# 6 12.9670 -12.9670 0.0000 0.0000 0.0000 43.0342
#
#
#
# Elastic Compliance Matrix: (Units=1/GPa)
#
#
# Indices 1 2 3 4 5 6 
#
# 1 0.015594 -0.000433 -0.009189 0.000000 0.000000 -0.004829
# 2 -0.000433 0.015594 -0.009189 0.000000 0.000000 0.004829
# 3 -0.009189 -0.009189 0.027384 0.000000 0.000000 0.000000
# 4 0.000000 0.000000 0.000000 0.034412 0.000000 0.000000
# 5 0.000000 0.000000 0.000000 0.000000 0.034412 0.000000
# 6 -0.004829 0.004829 0.000000 0.000000 0.000000 0.026148
#
#
# Mechanical properties :
#
#
# Convention : Reuss Voigt Hill
#
# Bulk Modulus (GPa) = 47.72803 48.12432 47.92618
# Shear Modulus (GPa) = 25.23371 30.08697 27.66034
#
# Velocity S-wave (km/s) = 3.46461 3.78314 3.62737
# Velocity P-wave (km/s) = 6.22162 6.47883 6.35153
#
# Compressibility (1/GPa) = 0.02095205
#
# Stress axis : x y z
#
# Youngs Moduli (GPa) = 64.12582 64.12582 36.51830
#
# Poissons Ratio (x) = 0.02777 0.33555
# Poissons Ratio (y) = 0.02777 0.33555
# Poissons Ratio (z) = 0.58922 0.58922
#
# Static dielectric constant tensor:
#      x y z
#    x 1.962820 0.000000 0.000000 
#    y 0.000000 1.962820 0.000000 
#    z 0.000000 0.000000 1.812840 
# 
# From -- ./inp_files/931.got.cif
#   From: 2010.05.17/outbox.cif.g08.bks.cpg/sg85_cif.got.tgz:931.got - 2010.06.03 19:01:16.
