data_PCOD9544425
_publ_section_title
;
Structure prediction by ZEFSAII (Michael W. Deem and Ramdas Pophale) SiO2 
 PCOD9544425
Probable space group: P 42/M
;
_chemical_formula_sum "Si O2"
_cell_formula_units_Z 48
_cell_length_a 8.680955
_cell_length_b 8.680955
_cell_length_c 29.133247
_cell_angle_alpha 90.000000
_cell_angle_beta 90.000000
_cell_angle_gamma 90.000000
_cell_volume 2195.451770
_symmetry_space_group_name_H-M "P 42/M"
_symmetry_group_IT_number 84
_symmetry_cell_setting 'tetragonal'
loop_
_space_group_symop_operation_xyz
x,y,z
-y,x,1/2+z
-x,-y,z
y,-x,1/2+z
-x,-y,-z
y,-x,1/2-z
x,y,-z
-y,x,1/2-z
loop_
_atom_site_type_symbol
_atom_site_label
_atom_site_fract_x
_atom_site_fract_y
_atom_site_fract_z
Si Si1 0.679810 0.455645 0.147638
Si Si2 0.823135 0.212702 0.199547
Si Si3 0.325476 0.435296 0.950222
Si Si4 0.818068 0.705706 0.200053
Si Si5 0.962769 0.318174 0.350131
Si Si6 0.935849 0.325764 0.549456
O O1 0.500000 0.500000 0.151149
O O2 0.712016 0.279065 0.159460
O O3 0.740990 0.497733 0.097004
O O4 0.782149 0.529365 0.188371
O O5 0.753934 0.238980 0.249801
O O6 0.001117 0.257735 0.195603
O O7 0.794228 0.033653 0.188355
O O8 0.500000 0.500000 0.950834
O O9 0.330426 0.249948 0.948125
O O10 0.255216 0.478397 0.000000
O O11 0.711510 0.783926 0.161040
O O12 0.993316 0.261804 0.402033
O O13 0.000000 0.500000 0.344908
O O14 0.979420 0.254284 0.500000
O O15 0.000000 0.500000 0.548728
#
# Coordination Sequence:
#
# PCOD9544425 Si02
#       6
#     8   8   8   8   8   8
#     4  11  25  42  65  99 125 161 211 273 315 370
#     4  12  27  41  65  88 129 172 214 257 322 385
#     4   9  18  35  60  91 126 160 200 260 324 374
#     4  12  25  44  63  89 127 173 212 256 320 386
#     4  11  23  40  65  94 123 165 210 264 308 372
#     4   9  18  34  60  93 124 159 207 263 314 367
#
# _framework density 21.863379999999999
#
# number of rings (size 3 to 8) (size 9 to 14) (size 15 to 20)
#    0.000    1.333    3.333    2.000   11.667    0.000 
#    0.000    0.000    0.000    6.000    0.000    0.000 
#    0.000    0.000    0.000    0.000    0.000    0.000 
#
# Total GULP energy -267539.892408 kJ/mol
# GULP energy per Si atom -5573.747758 kJ/mol
# Density = 2.181362 g / cm^3
# Si number density = 21.863380 Si / 1000 Ang^3
#
#
#
# Elastic Constant Matrix: (Units=GPa)
#
#
# Indices 1 2 3 4 5 6 
#
# 1 41.3668 8.6208 22.2925 0.0000 0.0000 2.2388
# 2 8.6208 41.3668 22.2925 0.0000 0.0000 -2.2388
# 3 22.2925 22.2925 184.9887 0.0000 0.0000 0.0000
# 4 0.0000 0.0000 0.0000 3.1924 0.0000 0.0000
# 5 0.0000 0.0000 0.0000 0.0000 3.1924 0.0000
# 6 2.2388 -2.2388 0.0000 0.0000 0.0000 39.4591
#
#
#
# Elastic Compliance Matrix: (Units=1/GPa)
#
#
# Indices 1 2 3 4 5 6 
#
# 1 0.026595 -0.004181 -0.002701 0.000000 0.000000 -0.001746
# 2 -0.004181 0.026595 -0.002701 0.000000 0.000000 0.001746
# 3 -0.002701 -0.002701 0.006057 0.000000 0.000000 0.000000
# 4 0.000000 0.000000 0.000000 0.313246 0.000000 0.000000
# 5 0.000000 0.000000 0.000000 0.000000 0.313246 0.000000
# 6 -0.001746 0.001746 0.000000 0.000000 0.000000 0.025541
#
#
# Mechanical properties :
#
#
# Convention : Reuss Voigt Hill
#
# Bulk Modulus (GPa) = 24.94968 41.57043 33.26005
# Shear Modulus (GPa) = 6.72216 23.46988 15.09602
#
# Velocity S-wave (km/s) = 1.75536 3.27995 2.63053
# Velocity P-wave (km/s) = 3.94269 5.77920 4.94691
#
# Compressibility (1/GPa) = 0.04008067
#
# Stress axis : x y z
#
# Youngs Moduli (GPa) = 37.60036 37.60036 165.10559
#
# Poissons Ratio (x) = 0.15722 0.44596
# Poissons Ratio (y) = 0.15722 0.44596
# Poissons Ratio (z) = 0.10156 0.10156
#
# Static dielectric constant tensor:
#      x y z
#    x 1.757210 0.000000 0.000000 
#    y 0.000000 1.757210 0.000000 
#    z 0.000000 0.000000 1.817640 
# 
# From -- ./inp_files/5734.got.cif
#   From: 2010.05.17/outbox.cif.g08.bks.cpg/sg84_3_cif.got.tgz:5734.got - 2010.06.03 18:57:40.
