data_PCOD9544456
_publ_section_title
;
Structure prediction by ZEFSAII (Michael W. Deem and Ramdas Pophale) SiO2 
 PCOD9544456
Probable space group: P 42/M
;
_chemical_formula_sum "Si O2"
_cell_formula_units_Z 20
_cell_length_a 5.356453
_cell_length_b 5.356453
_cell_length_c 25.340074
_cell_angle_alpha 90.000000
_cell_angle_beta 90.000000
_cell_angle_gamma 90.000000
_cell_volume 727.046982
_symmetry_space_group_name_H-M "P 42/M"
_symmetry_group_IT_number 84
_symmetry_cell_setting 'tetragonal'
loop_
_space_group_symop_operation_xyz
x,y,z
-y,x,1/2+z
-x,-y,z
y,-x,1/2+z
-x,-y,-z
y,-x,1/2-z
x,y,-z
-y,x,1/2-z
loop_
_atom_site_type_symbol
_atom_site_label
_atom_site_fract_x
_atom_site_fract_y
_atom_site_fract_z
Si Si1 0.000000 0.500000 0.584597
Si Si2 0.000000 0.000000 0.750000
Si Si3 0.278608 0.858386 0.336905
Si Si4 0.826292 0.251101 0.000000
Si Si5 0.500000 0.500000 0.750000
O O1 0.114207 0.718715 0.620516
O O2 0.209613 0.363482 0.549167
O O3 0.193168 0.078204 0.704376
O O4 0.333875 0.654629 0.291878
O O5 0.500000 0.000000 0.365874
O O6 0.000000 0.500000 0.000000
O O7 0.000000 0.000000 0.000000
#
# Coordination Sequence:
#
# PCOD9544456 Si02
#       5
#     4   2   8   4   2
#     4  11  30  54  88 128 156 224 298 355 454 532
#     4  12  24  48  68 122 168 220 272 328 408 506
#     4  12  26  47  77 116 174 224 278 346 415 514
#     4  11  30  63  91 122 171 219 292 393 465 542
#     4  12  24  44  72 114 172 224 276 328 416 510
#
# _framework density 27.508538000000001
#
# number of rings (size 3 to 8) (size 9 to 14) (size 15 to 20)
#    0.000    0.400    4.000    2.400    2.800    8.000 
#    0.000    3.000    0.000    0.000    0.000    0.000 
#    0.000    0.000    0.000    0.000    0.000    0.000 
#
# Total GULP energy -111576.644314 kJ/mol
# GULP energy per Si atom -5578.832216 kJ/mol
# Density = 2.744593 g / cm^3
# Si number density = 27.508538 Si / 1000 Ang^3
#
#
#
# Elastic Constant Matrix: (Units=GPa)
#
#
# Indices 1 2 3 4 5 6 
#
# 1 128.8751 75.9433 94.8283 0.0000 0.0000 -4.5960
# 2 75.9433 128.8751 94.8283 0.0000 0.0000 4.5960
# 3 94.8283 94.8283 225.7339 0.0000 0.0000 0.0000
# 4 0.0000 0.0000 0.0000 28.8143 0.0000 0.0000
# 5 0.0000 0.0000 0.0000 0.0000 28.8143 0.0000
# 6 -4.5960 4.5960 0.0000 0.0000 0.0000 65.9454
#
#
#
# Elastic Compliance Matrix: (Units=1/GPa)
#
#
# Indices 1 2 3 4 5 6 
#
# 1 0.013557 -0.005566 -0.003357 0.000000 0.000000 0.001333
# 2 -0.005566 0.013557 -0.003357 0.000000 0.000000 -0.001333
# 3 -0.003357 -0.003357 0.007250 0.000000 0.000000 0.000000
# 4 0.000000 0.000000 0.000000 0.034705 0.000000 0.000000
# 5 0.000000 0.000000 0.000000 0.000000 0.034705 0.000000
# 6 0.001333 -0.001333 0.000000 0.000000 0.000000 0.015350
#
#
# Mechanical properties :
#
#
# Convention : Reuss Voigt Hill
#
# Bulk Modulus (GPa) = 101.99421 112.74266 107.36844
# Shear Modulus (GPa) = 34.02454 39.24043 36.63249
#
# Velocity S-wave (km/s) = 3.52073 3.78098 3.65317
# Velocity P-wave (km/s) = 7.32702 7.75465 7.54387
#
# Compressibility (1/GPa) = 0.00980448
#
# Stress axis : x y z
#
# Youngs Moduli (GPa) = 73.76166 73.76166 137.92521
#
# Poissons Ratio (x) = 0.41059 0.46299
# Poissons Ratio (y) = 0.41059 0.46299
# Poissons Ratio (z) = 0.24760 0.24760
#
# Static dielectric constant tensor:
#      x y z
#    x 3.533250 0.000000 0.000000 
#    y 0.000000 3.533250 0.000000 
#    z 0.000000 0.000000 1.968720 
# 
# From -- ./inp_files/5205.got.cif
#   From: 2010.05.17/outbox.cif.g08.bks.cpg/sg84_3_cif.got.tgz:5205.got - 2010.06.03 18:57:40.
