data_PCOD9544550
_publ_section_title
;
Structure prediction by ZEFSAII (Michael W. Deem and Ramdas Pophale) SiO2 
 PCOD9544550
Probable space group: P 4/N
;
_chemical_formula_sum "Si O2"
_cell_formula_units_Z 34
_cell_length_a 11.225345
_cell_length_b 11.225345
_cell_length_c 11.429583
_cell_angle_alpha 90.000000
_cell_angle_beta 90.000000
_cell_angle_gamma 90.000000
_cell_volume 1440.223128
_symmetry_space_group_name_H-M "P 4/N"
_symmetry_group_IT_number 85
_symmetry_cell_setting 'tetragonal'
loop_
_space_group_symop_operation_xyz
x,y,z
1/2-y,x,z
1/2-x,1/2-y,z
y,1/2-x,z
-x,-y,-z
1/2+y,-x,-z
1/2+x,1/2+y,-z
-y,1/2+x,-z
loop_
_atom_site_type_symbol
_atom_site_label
_atom_site_fract_x
_atom_site_fract_y
_atom_site_fract_z
Si Si1 0.483947 0.874549 0.569062
Si Si2 0.250000 0.750000 0.500000
Si Si3 0.691941 0.567293 0.334972
Si Si4 0.492644 0.466092 0.199107
Si Si5 0.841710 0.424489 0.006990
O O1 0.349306 0.823661 0.572429
O O2 0.549848 0.793719 0.474345
O O3 0.532462 0.895509 0.697982
O O4 0.500000 0.000000 0.500000
O O5 0.822872 0.606244 0.301738
O O6 0.619964 0.463749 0.269495
O O7 0.492296 0.360101 0.105940
O O8 0.473816 0.581715 0.115368
O O9 0.900660 0.296868 0.973889
#
# Coordination Sequence:
#
# PCOD9544550 Si02
#       5
#     8   2   8   8   8
#     4  10  22  38  59  93 130 166 214 263 320 392
#     4  12  24  40  68 100 138 180 212 264 332 386
#     4  10  20  36  58  85 122 165 207 258 321 390
#     4  10  21  38  58  84 121 159 210 268 319 389
#     4  10  22  38  59  86 117 159 211 269 329 387
#
# _framework density 23.607454000000001
#
# number of rings (size 3 to 8) (size 9 to 14) (size 15 to 20)
#    0.000    1.882    0.000    4.235    0.000    9.412 
#    0.000    0.000    0.000    6.353    0.000    0.000 
#    0.000    0.000    0.000    0.000    0.000    0.000 
#
# Total GULP energy -189619.002288 kJ/mol
# GULP energy per Si atom -5577.029479 kJ/mol
# Density = 2.355372 g / cm^3
# Si number density = 23.607454 Si / 1000 Ang^3
#
#
#
# Elastic Constant Matrix: (Units=GPa)
#
#
# Indices 1 2 3 4 5 6 
#
# 1 29.7448 34.7129 15.1061 0.0000 0.0000 -6.6396
# 2 34.7129 29.7448 15.1061 0.0000 0.0000 6.6396
# 3 15.1061 15.1061 138.0388 0.0000 0.0000 0.0000
# 4 0.0000 0.0000 0.0000 26.2017 0.0000 0.0000
# 5 0.0000 0.0000 0.0000 0.0000 26.2017 0.0000
# 6 -6.6396 6.6396 0.0000 0.0000 0.0000 30.4702
#
#
#
# Elastic Compliance Matrix: (Units=1/GPa)
#
#
# Indices 1 2 3 4 5 6 
#
# 1 -0.055422 0.071775 -0.001790 0.000000 0.000000 -0.027717
# 2 0.071775 -0.055422 -0.001790 0.000000 0.000000 0.027717
# 3 -0.001790 -0.001790 0.007636 0.000000 0.000000 0.000000
# 4 0.000000 0.000000 0.000000 0.038166 0.000000 0.000000
# 5 0.000000 0.000000 0.000000 0.000000 0.038166 0.000000
# 6 -0.027717 0.027717 0.000000 0.000000 0.000000 0.020740
#
#
# Mechanical properties :
#
#
# Convention : Reuss Voigt Hill
#
# Bulk Modulus (GPa) = 30.13548 36.37539 33.25543
# Shear Modulus (GPa) = -38.03178 25.41492 -6.30843
#
# Velocity S-wave (km/s) = -4.01809 3.28466 -1.63647
# Velocity P-wave (km/s) = 2.95530 5.46143 3.24757
#
# Compressibility (1/GPa) = 0.03318348
#
# Stress axis : x y z
#
# Youngs Moduli (GPa) = -18.04327 -18.04327 130.95843
#
# Poissons Ratio (x) = 1.29506 0.23436
# Poissons Ratio (y) = 1.29506 0.23436
# Poissons Ratio (z) = -0.03229 -0.03229
#
# Static dielectric constant tensor:
#      x y z
#    x 1.939330 0.000000 0.000000 
#    y 0.000000 1.939330 0.000000 
#    z 0.000000 0.000000 1.919980 
# 
# From -- ./inp_files/1466.got.cif
#   From: 2010.05.17/outbox.cif.g08.bks.cpg/sg85_cif.got.tgz:1466.got - 2010.06.03 19:01:16.
