data_PCOD9544374
_publ_section_title
;
Structure prediction by ZEFSAII (Michael W. Deem and Ramdas Pophale) SiO2 
 PCOD9544374
Probable space group: P 42/M
;
_chemical_formula_sum "Si O2"
_cell_formula_units_Z 40
_cell_length_a 8.649243
_cell_length_b 8.649243
_cell_length_c 24.704105
_cell_angle_alpha 90.000000
_cell_angle_beta 90.000000
_cell_angle_gamma 90.000000
_cell_volume 1848.099383
_symmetry_space_group_name_H-M "P 42/M"
_symmetry_group_IT_number 84
_symmetry_cell_setting 'tetragonal'
loop_
_space_group_symop_operation_xyz
x,y,z
-y,x,1/2+z
-x,-y,z
y,-x,1/2+z
-x,-y,-z
y,-x,1/2-z
x,y,-z
-y,x,1/2-z
loop_
_atom_site_type_symbol
_atom_site_label
_atom_site_fract_x
_atom_site_fract_y
_atom_site_fract_z
Si Si1 0.259658 0.100092 0.437734
Si Si2 0.591781 0.160370 0.243937
Si Si3 0.399209 0.759256 0.438618
Si Si4 0.723168 0.347867 0.335973
Si Si5 0.172889 0.953047 0.163402
O O1 0.203511 0.116896 0.500000
O O2 0.422938 0.188841 0.433376
O O3 0.143965 0.160787 0.392077
O O4 0.300060 0.917872 0.429414
O O5 0.620874 0.225109 0.303078
O O6 0.493136 0.267213 0.203635
O O7 0.753899 0.140450 0.213127
O O8 0.500000 0.000000 0.247942
O O9 0.372368 0.708268 0.500000
O O10 0.348957 0.634611 0.394725
O O11 0.896075 0.280250 0.343035
O O12 0.000000 0.000000 0.177235
#
# Coordination Sequence:
#
# PCOD9544374 Si02
#       5
#     8   8   8   8   8
#     4   9  19  36  62  98 130 162 214 268 316 377
#     4  10  27  43  60  95 130 166 221 266 327 391
#     4   9  19  37  64  94 128 167 209 262 319 380
#     4  11  24  42  64  88 130 171 207 270 321 383
#     4  11  23  38  64  92 122 165 214 270 318 378
#
# _framework density 21.643857000000001
#
# number of rings (size 3 to 8) (size 9 to 14) (size 15 to 20)
#    0.000    2.000    2.000    1.200   11.200    1.600 
#    0.000    1.000    0.000    6.000    0.000    0.000 
#    0.000    0.000    0.000    0.000    0.000    0.000 
#
# Total GULP energy -223747.448574 kJ/mol
# GULP energy per Si atom -5593.686214 kJ/mol
# Density = 2.159460 g / cm^3
# Si number density = 21.643857 Si / 1000 Ang^3
#
#
#
# Elastic Constant Matrix: (Units=GPa)
#
#
# Indices 1 2 3 4 5 6 
#
# 1 43.8156 9.1788 34.2128 0.0000 0.0000 -4.4395
# 2 9.1788 43.8156 34.2128 0.0000 0.0000 4.4395
# 3 34.2128 34.2128 137.2087 0.0000 0.0000 0.0000
# 4 0.0000 0.0000 0.0000 8.9013 0.0000 0.0000
# 5 0.0000 0.0000 0.0000 0.0000 8.9013 0.0000
# 6 -4.4395 4.4395 0.0000 0.0000 0.0000 18.6201
#
#
#
# Elastic Compliance Matrix: (Units=1/GPa)
#
#
# Indices 1 2 3 4 5 6 
#
# 1 0.029290 -0.001460 -0.006939 0.000000 0.000000 0.007332
# 2 -0.001460 0.029290 -0.006939 0.000000 0.000000 -0.007332
# 3 -0.006939 -0.006939 0.010749 0.000000 0.000000 0.000000
# 4 0.000000 0.000000 0.000000 0.112343 0.000000 0.000000
# 5 0.000000 0.000000 0.000000 0.000000 0.112343 0.000000
# 6 0.007332 -0.007332 0.000000 0.000000 0.000000 0.057201
#
#
# Mechanical properties :
#
#
# Convention : Reuss Voigt Hill
#
# Bulk Modulus (GPa) = 25.87240 42.22761 34.05001
# Shear Modulus (GPa) = 12.66536 17.10025 14.88280
#
# Velocity S-wave (km/s) = 2.42165 2.81388 2.62510
# Velocity P-wave (km/s) = 4.44959 5.48724 4.99543
#
# Compressibility (1/GPa) = 0.03865122
#
# Stress axis : x y z
#
# Youngs Moduli (GPa) = 34.14115 34.14115 93.03365
#
# Poissons Ratio (x) = 0.04986 0.64559
# Poissons Ratio (y) = 0.04986 0.64559
# Poissons Ratio (z) = 0.23692 0.23692
#
# Static dielectric constant tensor:
#      x y z
#    x 1.801560 0.000000 0.000000 
#    y 0.000000 1.801560 0.000000 
#    z 0.000000 0.000000 1.753970 
# 
# From -- ./inp_files/4816.got.cif
#   From: 2010.05.17/outbox.cif.g08.bks.cpg/sg84_3_cif.got.tgz:4816.got - 2010.06.03 18:57:40.
