data_PCOD9544010
_publ_section_title
;
Structure prediction by ZEFSAII (Michael W. Deem and Ramdas Pophale) SiO2 
 PCOD9544010
Probable space group: P 42/M
;
_chemical_formula_sum "Si O2"
_cell_formula_units_Z 64
_cell_length_a 21.537051
_cell_length_b 21.537051
_cell_length_c 8.232355
_cell_angle_alpha 90.000000
_cell_angle_beta 90.000000
_cell_angle_gamma 90.000000
_cell_volume 3818.533130
_symmetry_space_group_name_H-M "P 42/M"
_symmetry_group_IT_number 84
_symmetry_cell_setting 'tetragonal'
loop_
_space_group_symop_operation_xyz
x,y,z
-y,x,1/2+z
-x,-y,z
y,-x,1/2+z
-x,-y,-z
y,-x,1/2-z
x,y,-z
-y,x,1/2-z
loop_
_atom_site_type_symbol
_atom_site_label
_atom_site_fract_x
_atom_site_fract_y
_atom_site_fract_z
Si Si1 0.880206 0.784401 0.192690
Si Si2 0.210744 0.323050 0.307685
Si Si3 0.562936 0.126874 0.306939
Si Si4 0.385324 0.001407 0.191265
Si Si5 0.252735 0.007861 0.687322
Si Si6 0.236069 0.681077 0.186149
Si Si7 0.858942 0.421966 0.196561
Si Si8 0.230048 0.138748 0.183495
O O1 0.839924 0.730708 0.274885
O O2 0.841731 0.846933 0.211580
O O3 0.950205 0.786818 0.249460
O O4 0.882920 0.769132 0.000000
O O5 0.218110 0.331356 0.500000
O O6 0.177863 0.384869 0.239112
O O7 0.277280 0.294057 0.245128
O O8 0.566040 0.116950 0.500000
O O9 0.571547 0.058473 0.226774
O O10 0.494213 0.151253 0.265987
O O11 0.324003 0.987592 0.295704
O O12 0.405686 0.071748 0.237739
O O13 0.371301 0.001133 0.000000
O O14 0.238402 0.022692 0.500000
O O15 0.245329 0.068107 0.794038
O O16 0.198960 0.620977 0.256255
O O17 0.179904 0.730540 0.193771
O O18 0.252588 0.665874 0.000000
O O19 0.861998 0.413641 0.000000
O O20 0.245545 0.159947 0.000000
#
# Coordination Sequence:
#
# PCOD9544010 Si02
#       8
#     8   8   8   8   8   8   8   8
#     4   9  19  33  49  67  92 122 155 195 244 295
#     4  10  19  31  50  73  95 121 159 203 243 277
#     4  11  22  35  50  69  98 137 169 194 234 288
#     4  12  23  33  47  71  98 129 167 206 239 272
#     4  11  20  32  50  69  93 125 157 194 239 294
#     4   9  18  33  51  70  93 124 160 200 240 283
#     4  10  21  36  52  69  96 135 170 195 233 291
#     4  10  19  31  48  72  93 116 153 201 247 287
#
# _framework density 16.760362000000001
#
# number of rings (size 3 to 8) (size 9 to 14) (size 15 to 20)
#    0.000    1.750    2.500    3.000    0.000    4.000 
#    0.000    0.000    0.000    0.375    0.000    2.625 
#    0.000    0.500    0.000    6.250    0.000    0.000 
#
# Total GULP energy -356310.618215 kJ/mol
# GULP energy per Si atom -5567.353410 kJ/mol
# Density = 1.672222 g / cm^3
# Si number density = 16.760362 Si / 1000 Ang^3
#
#
#
# Elastic Constant Matrix: (Units=GPa)
#
#
# Indices 1 2 3 4 5 6 
#
# 1 56.0396 34.9744 5.0667 0.0000 0.0000 3.5210
# 2 34.9744 56.0396 5.0667 0.0000 0.0000 -3.5210
# 3 5.0667 5.0667 23.9177 0.0000 0.0000 0.0000
# 4 0.0000 0.0000 0.0000 54.0020 0.0000 0.0000
# 5 0.0000 0.0000 0.0000 0.0000 54.0020 0.0000
# 6 3.5210 -3.5210 0.0000 0.0000 0.0000 20.1746
#
#
#
# Elastic Compliance Matrix: (Units=1/GPa)
#
#
# Indices 1 2 3 4 5 6 
#
# 1 0.030833 -0.019580 -0.002384 0.000000 0.000000 -0.008798
# 2 -0.019580 0.030833 -0.002384 0.000000 0.000000 0.008798
# 3 -0.002384 -0.002384 0.042820 0.000000 0.000000 0.000000
# 4 0.000000 0.000000 0.000000 0.018518 0.000000 0.000000
# 5 0.000000 0.000000 0.000000 0.000000 0.018518 0.000000
# 6 -0.008798 0.008798 0.000000 0.000000 0.000000 0.052638
#
#
# Mechanical properties :
#
#
# Convention : Reuss Voigt Hill
#
# Bulk Modulus (GPa) = 17.92424 25.13473 21.52948
# Shear Modulus (GPa) = 19.12395 31.69499 25.40947
#
# Velocity S-wave (km/s) = 3.38157 4.35336 3.89787
# Velocity P-wave (km/s) = 5.09552 6.34808 5.75597
#
# Compressibility (1/GPa) = 0.05579038
#
# Stress axis : x y z
#
# Youngs Moduli (GPa) = 32.43287 32.43287 23.35356
#
# Poissons Ratio (x) = 0.63504 0.05567
# Poissons Ratio (y) = 0.63504 0.05567
# Poissons Ratio (z) = 0.07731 0.07731
#
# Static dielectric constant tensor:
#      x y z
#    x 1.583650 0.000000 0.000000 
#    y 0.000000 1.583650 0.000000 
#    z 0.000000 0.000000 1.591210 
# 
# From -- ./inp_files/1351.got.cif
#   From: 2010.05.17/outbox.cif.g08.bks.cpg/sg84_1_cif.got.tgz:1351.got - 2010.06.03 18:57:40.
