data_PCOD9544745
_publ_section_title
;
Structure prediction by ZEFSAII (Michael W. Deem and Ramdas Pophale) SiO2 
 PCOD9544745
Probable space group: P 4/N
;
_chemical_formula_sum "Si O2"
_cell_formula_units_Z 56
_cell_length_a 14.109823
_cell_length_b 14.109823
_cell_length_c 12.971438
_cell_angle_alpha 90.000000
_cell_angle_beta 90.000000
_cell_angle_gamma 90.000000
_cell_volume 2582.446040
_symmetry_space_group_name_H-M "P 4/N"
_symmetry_group_IT_number 85
_symmetry_cell_setting 'tetragonal'
loop_
_space_group_symop_operation_xyz
x,y,z
1/2-y,x,z
1/2-x,1/2-y,z
y,1/2-x,z
-x,-y,-z
1/2+y,-x,-z
1/2+x,1/2+y,-z
-y,1/2+x,-z
loop_
_atom_site_type_symbol
_atom_site_label
_atom_site_fract_x
_atom_site_fract_y
_atom_site_fract_z
Si Si1 0.983188 0.350556 0.208469
Si Si2 0.169162 0.001710 0.791165
Si Si3 0.507102 0.630988 0.273700
Si Si4 0.111767 0.517054 0.496826
Si Si5 0.195711 0.650131 0.318775
Si Si6 0.901792 0.695592 0.996398
Si Si7 0.133275 0.147610 0.342330
O O1 0.901868 0.428632 0.191464
O O2 0.927072 0.267156 0.268182
O O3 0.039609 0.317987 0.108664
O O4 0.061285 0.409125 0.277232
O O5 0.088434 0.053820 0.727140
O O6 0.268389 0.046333 0.757101
O O7 0.168620 0.891444 0.759906
O O8 0.162826 0.030146 0.910565
O O9 0.462013 0.641675 0.386799
O O10 0.151135 0.597990 0.419880
O O11 0.146008 0.414853 0.454049
O O12 0.000000 0.500000 0.500000
O O13 0.250000 0.750000 0.338644
O O14 0.866802 0.805182 0.000386
O O15 0.242535 0.124902 0.317890
#
# Coordination Sequence:
#
# PCOD9544745 Si02
#       7
#     8   8   8   8   8   8   8
#     4  12  25  48  70 111 151 190 252 316 383 449
#     4  12  26  51  74 109 149 197 255 311 384 459
#     4  12  28  46  75 108 151 202 250 319 376 457
#     4  12  25  46  73 107 151 206 255 298 381 455
#     4  12  27  50  75 111 159 200 251 318 381 471
#     4  11  26  47  80 110 143 201 255 317 387 455
#     4  11  23  41  68 105 146 186 243 311 368 435
#
# _framework density 21.684867000000001
#
# number of rings (size 3 to 8) (size 9 to 14) (size 15 to 20)
#    0.000    0.286    7.143    0.857    4.000    4.286 
#    2.571    0.000    0.000    0.000    0.000    0.000 
#    0.000    0.000    0.000    0.000    0.000    0.000 
#
# Total GULP energy -312545.276439 kJ/mol
# GULP energy per Si atom -5581.165651 kJ/mol
# Density = 2.163551 g / cm^3
# Si number density = 21.684867 Si / 1000 Ang^3
#
#
#
# Elastic Constant Matrix: (Units=GPa)
#
#
# Indices 1 2 3 4 5 6 
#
# 1 121.3348 47.3320 41.8119 0.0000 0.0000 -1.3231
# 2 47.3320 121.3348 41.8119 0.0000 0.0000 1.3231
# 3 41.8119 41.8119 123.8754 0.0000 0.0000 0.0000
# 4 0.0000 0.0000 0.0000 28.7380 0.0000 0.0000
# 5 0.0000 0.0000 0.0000 0.0000 28.7380 0.0000
# 6 -1.3231 1.3231 0.0000 0.0000 0.0000 25.0046
#
#
#
# Elastic Compliance Matrix: (Units=1/GPa)
#
#
# Indices 1 2 3 4 5 6 
#
# 1 0.010330 -0.003209 -0.002403 0.000000 0.000000 0.000716
# 2 -0.003209 0.010330 -0.002403 0.000000 0.000000 -0.000716
# 3 -0.002403 -0.002403 0.009695 0.000000 0.000000 0.000000
# 4 0.000000 0.000000 0.000000 0.034797 0.000000 0.000000
# 5 0.000000 0.000000 0.000000 0.000000 0.034797 0.000000
# 6 0.000716 -0.000716 0.000000 0.000000 0.000000 0.040069
#
#
# Mechanical properties :
#
#
# Convention : Reuss Voigt Hill
#
# Bulk Modulus (GPa) = 69.82060 69.82852 69.82456
# Shear Modulus (GPa) = 31.09012 32.20205 31.64608
#
# Velocity S-wave (km/s) = 3.79056 3.85775 3.82430
# Velocity P-wave (km/s) = 7.17116 7.21903 7.19514
#
# Compressibility (1/GPa) = 0.01432242
#
# Stress axis : x y z
#
# Youngs Moduli (GPa) = 96.80997 96.80997 103.14539
#
# Poissons Ratio (x) = 0.31067 0.24790
# Poissons Ratio (y) = 0.31067 0.24790
# Poissons Ratio (z) = 0.23267 0.23267
#
# Static dielectric constant tensor:
#      x y z
#    x 1.976110 0.000000 0.000000 
#    y 0.000000 1.976110 0.000000 
#    z 0.000000 0.000000 1.836920 
# 
# From -- ./inp_files/1736.got.cif
#   From: 2010.05.17/outbox.cif.g08.bks.cpg/sg85_cif.got.tgz:1736.got - 2010.06.03 19:01:16.
