data_PCOD9544318
_publ_section_title
;
Structure prediction by ZEFSAII (Michael W. Deem and Ramdas Pophale) SiO2 
 PCOD9544318
Probable space group: P 42/M
;
_chemical_formula_sum "Si O2"
_cell_formula_units_Z 48
_cell_length_a 8.817681
_cell_length_b 8.817681
_cell_length_c 31.696452
_cell_angle_alpha 90.000000
_cell_angle_beta 90.000000
_cell_angle_gamma 90.000000
_cell_volume 2464.446631
_symmetry_space_group_name_H-M "P 42/M"
_symmetry_group_IT_number 84
_symmetry_cell_setting 'tetragonal'
loop_
_space_group_symop_operation_xyz
x,y,z
-y,x,1/2+z
-x,-y,z
y,-x,1/2+z
-x,-y,-z
y,-x,1/2-z
x,y,-z
-y,x,1/2-z
loop_
_atom_site_type_symbol
_atom_site_label
_atom_site_fract_x
_atom_site_fract_y
_atom_site_fract_z
Si Si1 0.637454 0.615010 0.111718
Si Si2 0.370223 0.888497 0.319325
Si Si3 0.410670 0.848092 0.847009
Si Si4 0.339028 0.913749 0.451043
Si Si5 0.291807 0.359285 0.257142
Si Si6 0.920802 0.159257 0.117986
O O1 0.500000 0.500000 0.101664
O O2 0.752213 0.569336 0.150102
O O3 0.541730 0.755132 0.129281
O O4 0.753167 0.649329 0.073654
O O5 0.288135 0.811385 0.279583
O O6 0.500000 0.000000 0.303097
O O7 0.269232 0.997315 0.348412
O O8 0.353013 0.771003 0.804011
O O9 0.259171 0.856912 0.875466
O O10 0.500000 0.000000 0.835456
O O11 0.302039 0.891143 0.500000
O O12 0.500000 0.000000 0.447853
O O13 0.223402 0.024900 0.427045
O O14 0.299504 0.537910 0.245623
O O15 0.000000 0.000000 0.124413
#
# Coordination Sequence:
#
# PCOD9544318 Si02
#       6
#     8   8   8   8   8   8
#     4  11  20  37  63  90 126 161 204 257 319 373
#     4  11  21  38  59  86 120 167 213 258 312 375
#     4  12  24  39  61  89 122 166 215 266 313 375
#     4  10  22  42  68  96 125 161 207 256 317 394
#     4  11  22  37  59  88 120 161 214 265 309 364
#     4  11  24  43  63  89 126 168 206 257 326 387
#
# _framework density 19.476987000000001
#
# number of rings (size 3 to 8) (size 9 to 14) (size 15 to 20)
#    0.000    1.000    1.667    8.500    0.000    0.667 
#    0.000    0.833    0.000    2.000    0.000    0.000 
#    0.000    0.000    0.000    0.000    0.000    0.000 
#
# Total GULP energy -268014.733793 kJ/mol
# GULP energy per Si atom -5583.640287 kJ/mol
# Density = 1.943266 g / cm^3
# Si number density = 19.476987 Si / 1000 Ang^3
#
#
#
# Elastic Constant Matrix: (Units=GPa)
#
#
# Indices 1 2 3 4 5 6 
#
# 1 72.1111 -3.5515 31.8094 0.0000 0.0000 -1.5034
# 2 -3.5515 72.1111 31.8094 0.0000 0.0000 1.5034
# 3 31.8094 31.8094 105.7174 0.0000 0.0000 0.0000
# 4 0.0000 0.0000 0.0000 -10.1756 0.0000 0.0000
# 5 0.0000 0.0000 0.0000 0.0000 -10.1756 0.0000
# 6 -1.5034 1.5034 0.0000 0.0000 0.0000 30.8836
#
#
#
# Elastic Compliance Matrix: (Units=1/GPa)
#
#
# Indices 1 2 3 4 5 6 
#
# 1 0.016739 0.003497 -0.006089 0.000000 0.000000 0.000645
# 2 0.003497 0.016739 -0.006089 0.000000 0.000000 -0.000645
# 3 -0.006089 -0.006089 0.013123 0.000000 0.000000 0.000000
# 4 0.000000 0.000000 0.000000 -0.098274 0.000000 0.000000
# 5 0.000000 0.000000 0.000000 0.000000 -0.098274 0.000000
# 6 0.000645 -0.000645 0.000000 0.000000 0.000000 0.032442
#
#
# Mechanical properties :
#
#
# Convention : Reuss Voigt Hill
#
# Bulk Modulus (GPa) = 34.19988 41.11935 37.65962
# Shear Modulus (GPa) = -55.31152 14.76465 -20.27344
#
# Velocity S-wave (km/s) = -5.33480 2.75627 -3.22979
# Velocity P-wave (km/s) = 4.51104 5.59347 2.33853
#
# Compressibility (1/GPa) = 0.02923987
#
# Stress axis : x y z
#
# Youngs Moduli (GPa) = 59.74066 59.74066 76.20033
#
# Poissons Ratio (x) = -0.20890 0.46397
# Poissons Ratio (y) = -0.20890 0.46397
# Poissons Ratio (z) = 0.36375 0.36375
#
# Static dielectric constant tensor:
#      x y z
#    x 1.767900 0.000000 0.000000 
#    y 0.000000 1.767900 0.000000 
#    z 0.000000 0.000000 1.684880 
# 
# From -- ./inp_files/5755.got.cif
#   From: 2010.05.17/outbox.cif.g08.bks.cpg/sg84_3_cif.got.tgz:5755.got - 2010.06.03 18:57:40.
