data_PCOD9544332
_publ_section_title
;
Structure prediction by ZEFSAII (Michael W. Deem and Ramdas Pophale) SiO2 
 PCOD9544332
Probable space group: P 42/M
;
_chemical_formula_sum "Si O2"
_cell_formula_units_Z 56
_cell_length_a 11.367035
_cell_length_b 11.367035
_cell_length_c 21.929302
_cell_angle_alpha 90.000000
_cell_angle_beta 90.000000
_cell_angle_gamma 90.000000
_cell_volume 2833.473811
_symmetry_space_group_name_H-M "P 42/M"
_symmetry_group_IT_number 84
_symmetry_cell_setting 'tetragonal'
loop_
_space_group_symop_operation_xyz
x,y,z
-y,x,1/2+z
-x,-y,z
y,-x,1/2+z
-x,-y,-z
y,-x,1/2-z
x,y,-z
-y,x,1/2-z
loop_
_atom_site_type_symbol
_atom_site_label
_atom_site_fract_x
_atom_site_fract_y
_atom_site_fract_z
Si Si1 0.599762 0.602241 0.337687
Si Si2 0.327182 0.173056 0.848353
Si Si3 0.016984 0.228056 0.570920
Si Si4 0.438822 0.800698 0.927824
Si Si5 0.696446 0.016250 0.251753
Si Si6 0.414630 0.753622 0.714819
Si Si7 0.088123 0.891792 0.170612
O O1 0.500000 0.500000 0.343176
O O2 0.683502 0.611659 0.395972
O O3 0.680423 0.577279 0.278188
O O4 0.528331 0.719990 0.323662
O O5 0.441490 0.180128 0.890624
O O6 0.287019 0.298628 0.822730
O O7 0.233048 0.102601 0.889768
O O8 0.346933 0.089356 0.790353
O O9 0.994792 0.212282 0.500000
O O10 0.089584 0.349972 0.579732
O O11 0.097549 0.128301 0.601055
O O12 0.459720 0.786678 0.000000
O O13 0.601071 0.110702 0.270275
O O14 0.795011 0.086162 0.211323
O O15 0.770364 0.967565 0.308491
O O16 0.000000 0.000000 0.182882
#
# Coordination Sequence:
#
# PCOD9544332 Si02
#       7
#     8   8   8   8   8   8   8
#     4  12  22  41  61  85 123 160 203 259 315 382
#     4  11  21  35  63  94 125 160 205 260 315 378
#     4  10  23  40  61  89 127 167 210 261 314 376
#     4  11  24  42  63  87 121 167 214 266 320 375
#     4  11  20  35  60  92 128 161 200 251 323 384
#     4  12  22  38  61  93 128 164 201 255 327 382
#     4  11  18  35  60  85 123 163 202 246 311 377
#
# _framework density 19.763724
#
# number of rings (size 3 to 8) (size 9 to 14) (size 15 to 20)
#    0.000    0.857    5.714    3.429    0.000    2.857 
#    0.000    0.000    0.000    0.857    0.000    2.000 
#    0.000    0.000    0.000    0.000    0.000    0.000 
#
# Total GULP energy -313259.000054 kJ/mol
# GULP energy per Si atom -5593.910715 kJ/mol
# Density = 1.971874 g / cm^3
# Si number density = 19.763724 Si / 1000 Ang^3
#
#
#
# Elastic Constant Matrix: (Units=GPa)
#
#
# Indices 1 2 3 4 5 6 
#
# 1 68.1965 10.0889 31.2606 0.0000 0.0000 5.6941
# 2 10.0889 68.1965 31.2606 0.0000 0.0000 -5.6941
# 3 31.2606 31.2606 101.6848 0.0000 0.0000 0.0000
# 4 0.0000 0.0000 0.0000 25.7257 0.0000 0.0000
# 5 0.0000 0.0000 0.0000 0.0000 25.7257 0.0000
# 6 5.6941 -5.6941 0.0000 0.0000 0.0000 33.2177
#
#
#
# Elastic Compliance Matrix: (Units=1/GPa)
#
#
# Indices 1 2 3 4 5 6 
#
# 1 0.017369 -0.000439 -0.005205 0.000000 0.000000 -0.003053
# 2 -0.000439 0.017369 -0.005205 0.000000 0.000000 0.003053
# 3 -0.005205 -0.005205 0.013035 0.000000 0.000000 0.000000
# 4 0.000000 0.000000 0.000000 0.038872 0.000000 0.000000
# 5 0.000000 0.000000 0.000000 0.000000 0.038872 0.000000
# 6 -0.003053 0.003053 0.000000 0.000000 0.000000 0.031151
#
#
# Mechanical properties :
#
#
# Convention : Reuss Voigt Hill
#
# Bulk Modulus (GPa) = 38.34932 42.58869 40.46901
# Shear Modulus (GPa) = 26.72999 27.96500 27.34750
#
# Velocity S-wave (km/s) = 3.68159 3.76568 3.72388
# Velocity P-wave (km/s) = 6.12521 6.36419 6.24584
#
# Compressibility (1/GPa) = 0.02607608
#
# Stress axis : x y z
#
# Youngs Moduli (GPa) = 57.57338 57.57338 76.71905
#
# Poissons Ratio (x) = 0.02525 0.39932
# Poissons Ratio (y) = 0.02525 0.39932
# Poissons Ratio (z) = 0.29966 0.29966
#
# Static dielectric constant tensor:
#      x y z
#    x 1.734020 0.000000 0.000000 
#    y 0.000000 1.734020 0.000000 
#    z 0.000000 0.000000 1.677250 
# 
# From -- ./inp_files/4469.got.cif
#   From: 2010.05.17/outbox.cif.g08.bks.cpg/sg84_3_cif.got.tgz:4469.got - 2010.06.03 18:57:40.
