data_PCOD9544779
_publ_section_title
;
Structure prediction by ZEFSAII (Michael W. Deem and Ramdas Pophale) SiO2 
 PCOD9544779
Probable space group: P 4/N
;
_chemical_formula_sum "Si O2"
_cell_formula_units_Z 30
_cell_length_a 7.267177
_cell_length_b 7.267177
_cell_length_c 21.344857
_cell_angle_alpha 90.000000
_cell_angle_beta 90.000000
_cell_angle_gamma 90.000000
_cell_volume 1127.261633
_symmetry_space_group_name_H-M "P 4/N"
_symmetry_group_IT_number 85
_symmetry_cell_setting 'tetragonal'
loop_
_space_group_symop_operation_xyz
x,y,z
1/2-y,x,z
1/2-x,1/2-y,z
y,1/2-x,z
-x,-y,-z
1/2+y,-x,-z
1/2+x,1/2+y,-z
-y,1/2+x,-z
loop_
_atom_site_type_symbol
_atom_site_label
_atom_site_fract_x
_atom_site_fract_y
_atom_site_fract_z
Si Si1 0.750000 0.250000 0.000000
Si Si2 0.533766 0.376490 0.241750
Si Si3 0.750000 0.250000 0.648969
Si Si4 0.494218 0.434076 0.572083
Si Si5 0.530743 0.382455 0.104627
O O1 0.904200 0.338550 0.954684
O O2 0.339553 0.479494 0.244406
O O3 0.666758 0.399994 0.300604
O O4 0.615088 0.420010 0.173190
O O5 0.683387 0.441630 0.611569
O O6 0.286553 0.492951 0.583788
O O7 0.500000 0.500000 0.500000
O O8 0.335360 0.481965 0.102016
#
# Coordination Sequence:
#
# PCOD9544779 Si02
#       5
#     2   8   4   8   8
#     4  12  18  28  52  80 106 156 208 246 288 340
#     4   9  19  36  57  83 115 150 189 241 300 356
#     4  12  21  37  64  93 111 140 194 248 292 346
#     4  11  24  41  60  84 117 152 185 227 284 354
#     4   9  19  34  50  75 114 153 194 243 295 351
#
# _framework density 26.613164000000001
#
# number of rings (size 3 to 8) (size 9 to 14) (size 15 to 20)
#    0.000    1.867    0.000    6.400    0.000    0.000 
#    0.000    2.667    0.000    0.000    0.000   22.400 
#    0.000    0.000    0.000    0.000    0.000    0.000 
#
# Total GULP energy -167096.687301 kJ/mol
# GULP energy per Si atom -5569.889577 kJ/mol
# Density = 2.655259 g / cm^3
# Si number density = 26.613164 Si / 1000 Ang^3
#
#
#
# Elastic Constant Matrix: (Units=GPa)
#
#
# Indices 1 2 3 4 5 6 
#
# 1 57.0075 -15.3965 15.8169 0.0000 0.0000 -19.9007
# 2 -15.3965 57.0075 15.8169 0.0000 0.0000 19.9007
# 3 15.8169 15.8169 239.9506 0.0000 0.0000 0.0000
# 4 0.0000 0.0000 0.0000 32.8380 0.0000 0.0000
# 5 0.0000 0.0000 0.0000 0.0000 32.8380 0.0000
# 6 -19.9007 19.9007 0.0000 0.0000 0.0000 45.7821
#
#
#
# Elastic Compliance Matrix: (Units=1/GPa)
#
#
# Indices 1 2 3 4 5 6 
#
# 1 0.021724 0.003576 -0.001668 0.000000 0.000000 0.007889
# 2 0.003576 0.021724 -0.001668 0.000000 0.000000 -0.007889
# 3 -0.001668 -0.001668 0.004387 0.000000 0.000000 0.000000
# 4 0.000000 0.000000 0.000000 0.030453 0.000000 0.000000
# 5 0.000000 0.000000 0.000000 0.000000 0.030453 0.000000
# 6 0.007889 -0.007889 0.000000 0.000000 0.000000 0.028701
#
#
# Mechanical properties :
#
#
# Convention : Reuss Voigt Hill
#
# Bulk Modulus (GPa) = 20.69693 42.93782 31.81737
# Shear Modulus (GPa) = 32.66584 44.80683 38.73633
#
# Velocity S-wave (km/s) = 3.50727 4.10766 3.81928
# Velocity P-wave (km/s) = 4.91885 6.21822 5.60631
#
# Compressibility (1/GPa) = 0.04831635
#
# Stress axis : x y z
#
# Youngs Moduli (GPa) = 46.03232 46.03232 227.92616
#
# Poissons Ratio (x) = -0.16461 0.38011
# Poissons Ratio (y) = -0.16461 0.38011
# Poissons Ratio (z) = 0.07677 0.07677
#
# Static dielectric constant tensor:
#      x y z
#    x 1.591070 0.000000 0.000000 
#    y 0.000000 1.591070 0.000000 
#    z 0.000000 0.000000 2.247400 
# 
# From -- ./inp_files/2161.got.cif
#   From: 2010.05.17/outbox.cif.g08.bks.cpg/sg85_cif.got.tgz:2161.got - 2010.06.03 19:01:16.
