data_PCOD9544559
_publ_section_title
;
Structure prediction by ZEFSAII (Michael W. Deem and Ramdas Pophale) SiO2 
 PCOD9544559
Probable space group: P 4/N
;
_chemical_formula_sum "Si O2"
_cell_formula_units_Z 32
_cell_length_a 18.890830
_cell_length_b 18.890830
_cell_length_c 4.832119
_cell_angle_alpha 90.000000
_cell_angle_beta 90.000000
_cell_angle_gamma 90.000000
_cell_volume 1724.406696
_symmetry_space_group_name_H-M "P 4/N"
_symmetry_group_IT_number 85
_symmetry_cell_setting 'tetragonal'
loop_
_space_group_symop_operation_xyz
x,y,z
1/2-y,x,z
1/2-x,1/2-y,z
y,1/2-x,z
-x,-y,-z
1/2+y,-x,-z
1/2+x,1/2+y,-z
-y,1/2+x,-z
loop_
_atom_site_type_symbol
_atom_site_label
_atom_site_fract_x
_atom_site_fract_y
_atom_site_fract_z
Si Si1 0.550646 0.601526 0.514068
Si Si2 0.544327 0.399847 0.958272
Si Si3 0.262952 0.006499 0.705163
Si Si4 0.996229 0.665782 0.793562
O O1 0.517493 0.566059 0.238623
O O2 0.564437 0.682463 0.420543
O O3 0.615709 0.562059 0.650178
O O4 0.486889 0.603344 0.735855
O O5 0.547676 0.319803 0.839244
O O6 0.615269 0.442759 0.913099
O O7 0.216915 0.977897 0.452366
O O8 0.212560 0.031735 0.951630
#
# Coordination Sequence:
#
# PCOD9544559 Si02
#       4
#     8   8   8   8
#     4  10  20  37  53  90 114 133 197 241 277 345
#     4  10  20  37  55  86 117 135 196 240 281 341
#     4  10  22  34  52  92 110 144 191 233 279 357
#     4  12  20  35  64  79 115 158 172 242 309 308
#
# _framework density 18.557106000000001
#
# number of rings (size 3 to 8) (size 9 to 14) (size 15 to 20)
#    1.500    0.000    2.500    4.500    0.000    0.000 
#    0.000    0.000    0.000    5.250    6.500    0.000 
#    0.000    0.000    0.000    0.000    0.000    0.000 
#
# Total GULP energy -178251.892858 kJ/mol
# GULP energy per Si atom -5570.371652 kJ/mol
# Density = 1.851487 g / cm^3
# Si number density = 18.557106 Si / 1000 Ang^3
#
#
#
# Elastic Constant Matrix: (Units=GPa)
#
#
# Indices 1 2 3 4 5 6 
#
# 1 73.8821 21.5494 10.2470 0.0000 0.0000 -1.9779
# 2 21.5494 73.8821 10.2470 0.0000 0.0000 1.9779
# 3 10.2470 10.2470 92.8053 0.0000 0.0000 0.0000
# 4 0.0000 0.0000 0.0000 24.1127 0.0000 0.0000
# 5 0.0000 0.0000 0.0000 0.0000 24.1127 0.0000
# 6 -1.9779 1.9779 0.0000 0.0000 0.0000 -4.2371
#
#
#
# Elastic Compliance Matrix: (Units=1/GPa)
#
#
# Indices 1 2 3 4 5 6 
#
# 1 0.014595 -0.003862 -0.001185 0.000000 0.000000 -0.008616
# 2 -0.003862 0.014595 -0.001185 0.000000 0.000000 0.008616
# 3 -0.001185 -0.001185 0.011037 0.000000 0.000000 0.000000
# 4 0.000000 0.000000 0.000000 0.041472 0.000000 0.000000
# 5 0.000000 0.000000 0.000000 0.000000 0.041472 0.000000
# 6 -0.008616 0.008616 0.000000 0.000000 0.000000 -0.227968
#
#
# Mechanical properties :
#
#
# Convention : Reuss Voigt Hill
#
# Bulk Modulus (GPa) = 36.01918 36.07294 36.04606
# Shear Modulus (GPa) = -60.18448 22.03274 -19.07587
#
# Velocity S-wave (km/s) = -5.70109 3.44945 -3.20965
# Velocity P-wave (km/s) = 4.88718 5.94525 2.39390
#
# Compressibility (1/GPa) = 0.02776299
#
# Stress axis : x y z
#
# Youngs Moduli (GPa) = 68.51551 68.51551 90.60476
#
# Poissons Ratio (x) = 0.26461 0.10738
# Poissons Ratio (y) = 0.26461 0.10738
# Poissons Ratio (z) = 0.08120 0.08120
#
# Static dielectric constant tensor:
#      x y z
#    x 1.666680 0.000000 0.000000 
#    y 0.000000 1.666680 0.000000 
#    z 0.000000 0.000000 1.683710 
# 
# From -- ./inp_files/287.got.cif
#   From: 2010.05.17/outbox.cif.g08.bks.cpg/sg85_cif.got.tgz:287.got - 2010.06.03 19:01:16.
