data_PCOD9544596
_publ_section_title
;
Structure prediction by ZEFSAII (Michael W. Deem and Ramdas Pophale) SiO2 
 PCOD9544596
Probable space group: P 4/N
;
_chemical_formula_sum "Si O2"
_cell_formula_units_Z 64
_cell_length_a 11.058343
_cell_length_b 11.058343
_cell_length_c 22.937800
_cell_angle_alpha 90.000000
_cell_angle_beta 90.000000
_cell_angle_gamma 90.000000
_cell_volume 2804.993600
_symmetry_space_group_name_H-M "P 4/N"
_symmetry_group_IT_number 85
_symmetry_cell_setting 'tetragonal'
loop_
_space_group_symop_operation_xyz
x,y,z
1/2-y,x,z
1/2-x,1/2-y,z
y,1/2-x,z
-x,-y,-z
1/2+y,-x,-z
1/2+x,1/2+y,-z
-y,1/2+x,-z
loop_
_atom_site_type_symbol
_atom_site_label
_atom_site_fract_x
_atom_site_fract_y
_atom_site_fract_z
Si Si1 0.421891 0.348720 0.458805
Si Si2 0.207618 0.065752 0.698723
Si Si3 0.048943 0.213736 0.111003
Si Si4 0.381479 0.807005 0.793767
Si Si5 0.672247 0.148339 0.328201
Si Si6 0.444101 0.323212 0.855813
Si Si7 0.563385 0.944804 0.410977
Si Si8 0.803487 0.552342 0.013576
O O1 0.292202 0.410315 0.444717
O O2 0.526473 0.424299 0.427464
O O3 0.438319 0.366154 0.528284
O O4 0.336222 0.114742 0.721073
O O5 0.173306 0.075783 0.629511
O O6 0.220054 0.925357 0.706256
O O7 0.156169 0.116185 0.112447
O O8 0.984473 0.188364 0.048378
O O9 0.965960 0.221696 0.167179
O O10 0.250000 0.750000 0.800036
O O11 0.412815 0.811347 0.724766
O O12 0.372759 0.944528 0.817983
O O13 0.750000 0.250000 0.359634
O O14 0.607479 0.056750 0.371333
O O15 0.318477 0.400813 0.848640
O O16 0.497039 0.328016 0.922306
O O17 0.891829 0.668746 0.012245
#
# Coordination Sequence:
#
# PCOD9544596 Si02
#       8
#     8   8   8   8   8   8   8   8
#     4  10  21  38  61  94 131 158 193 249 309 363
#     4   9  18  36  63  90 113 150 206 248 289 357
#     4   9  19  40  66  85 114 166 217 261 318 390
#     4  11  25  41  56  90 129 163 208 277 323 360
#     4  10  23  41  59  86 124 167 206 256 306 360
#     4   9  19  37  61  88 123 160 201 260 331 395
#     4  10  21  38  65  93 120 168 202 250 299 362
#     4   7  12  30  58  85 112 152 203 253 316 389
#
# _framework density 22.816452000000002
#
# number of rings (size 3 to 8) (size 9 to 14) (size 15 to 20)
#    0.000    2.625    0.000    3.000    3.500    4.000 
#    6.750    4.375    0.000    1.500    0.000    0.000 
#    0.000    0.000    0.000    0.000    0.000    0.000 
#
# Total GULP energy -356506.930515 kJ/mol
# GULP energy per Si atom -5570.420789 kJ/mol
# Density = 2.276452 g / cm^3
# Si number density = 22.816452 Si / 1000 Ang^3
#
#
#
# Elastic Constant Matrix: (Units=GPa)
#
#
# Indices 1 2 3 4 5 6 
#
# 1 35.2128 -0.8550 10.1292 0.0000 0.0000 -8.1422
# 2 -0.8550 35.2128 10.1292 0.0000 0.0000 8.1422
# 3 10.1292 10.1292 86.4631 0.0000 0.0000 0.0000
# 4 0.0000 0.0000 0.0000 16.6104 0.0000 0.0000
# 5 0.0000 0.0000 0.0000 0.0000 16.6104 0.0000
# 6 -8.1422 8.1422 0.0000 0.0000 0.0000 23.4547
#
#
#
# Elastic Compliance Matrix: (Units=1/GPa)
#
#
# Indices 1 2 3 4 5 6 
#
# 1 0.032072 -0.000807 -0.003663 0.000000 0.000000 0.011414
# 2 -0.000807 0.032072 -0.003663 0.000000 0.000000 -0.011414
# 3 -0.003663 -0.003663 0.012424 0.000000 0.000000 0.000000
# 4 0.000000 0.000000 0.000000 0.060203 0.000000 0.000000
# 5 0.000000 0.000000 0.000000 0.000000 0.060203 0.000000
# 6 0.011414 -0.011414 0.000000 0.000000 0.000000 0.050560
#
#
# Mechanical properties :
#
#
# Convention : Reuss Voigt Hill
#
# Bulk Modulus (GPa) = 16.58289 21.74395 19.16342
# Shear Modulus (GPa) = 17.61184 20.50077 19.05631
#
# Velocity S-wave (km/s) = 2.78131 3.00076 2.89312
# Velocity P-wave (km/s) = 4.19499 4.64292 4.42463
#
# Compressibility (1/GPa) = 0.06030312
#
# Stress axis : x y z
#
# Youngs Moduli (GPa) = 31.17991 31.17991 80.49061
#
# Poissons Ratio (x) = 0.02516 0.29482
# Poissons Ratio (y) = 0.02516 0.29482
# Poissons Ratio (z) = 0.11420 0.11420
#
# Static dielectric constant tensor:
#      x y z
#    x 1.860710 0.000000 0.000000 
#    y 0.000000 1.860710 0.000000 
#    z 0.000000 0.000000 1.964480 
# 
# From -- ./inp_files/2355.got.cif
#   From: 2010.05.17/outbox.cif.g08.bks.cpg/sg85_cif.got.tgz:2355.got - 2010.06.03 19:01:16.
