data_PCOD9544709
_publ_section_title
;
Structure prediction by ZEFSAII (Michael W. Deem and Ramdas Pophale) SiO2 
 PCOD9544709
Probable space group: P 4/N
;
_chemical_formula_sum "Si O2"
_cell_formula_units_Z 50
_cell_length_a 14.135657
_cell_length_b 14.135657
_cell_length_c 12.213085
_cell_angle_alpha 90.000000
_cell_angle_beta 90.000000
_cell_angle_gamma 90.000000
_cell_volume 2440.379548
_symmetry_space_group_name_H-M "P 4/N"
_symmetry_group_IT_number 85
_symmetry_cell_setting 'tetragonal'
loop_
_space_group_symop_operation_xyz
x,y,z
1/2-y,x,z
1/2-x,1/2-y,z
y,1/2-x,z
-x,-y,-z
1/2+y,-x,-z
1/2+x,1/2+y,-z
-y,1/2+x,-z
loop_
_atom_site_type_symbol
_atom_site_label
_atom_site_fract_x
_atom_site_fract_y
_atom_site_fract_z
Si Si1 0.072100 0.596399 0.786816
Si Si2 0.278510 0.906466 0.348124
Si Si3 0.809513 0.896282 0.426259
Si Si4 0.166939 0.885779 0.987859
Si Si5 0.951037 0.940373 0.596092
Si Si6 0.750000 0.250000 0.500000
Si Si7 0.290588 0.553594 0.751131
O O1 0.067514 0.704062 0.743652
O O2 0.064409 0.606033 0.917240
O O3 0.176700 0.556063 0.760478
O O4 0.994193 0.546322 0.711842
O O5 0.223175 0.848037 0.440496
O O6 0.349066 0.826161 0.301966
O O7 0.343767 0.991344 0.389199
O O8 0.700207 0.868598 0.415058
O O9 0.845460 0.930085 0.545875
O O10 0.825479 0.971464 0.329722
O O11 0.277721 0.871675 0.022145
O O12 0.168191 0.942464 0.874032
O O13 0.000000 0.000000 0.500000
#
# Coordination Sequence:
#
# PCOD9544709 Si02
#       7
#     8   8   8   8   8   2   8
#     4  11  22  39  62  92 126 167 204 261 325 380
#     4  12  23  37  60  94 125 166 207 260 319 378
#     4  11  25  43  62  86 126 176 213 257 325 389
#     4   9  18  36  61  91 126 163 206 258 322 383
#     4  12  24  38  59  89 128 161 208 259 307 380
#     4  12  24  36  60  98 132 160 200 256 338 372
#     4  11  21  38  63  92 122 160 211 264 314 382
#
# _framework density 20.488617000000001
#
# number of rings (size 3 to 8) (size 9 to 14) (size 15 to 20)
#    0.000    0.960    4.800    2.880    2.240    0.000 
#    0.000    2.400    0.000    0.000    0.000    2.240 
#    0.000    0.000    0.000    0.000    0.000    0.000 
#
# Total GULP energy -279222.372894 kJ/mol
# GULP energy per Si atom -5584.447458 kJ/mol
# Density = 2.044198 g / cm^3
# Si number density = 20.488617 Si / 1000 Ang^3
#
#
#
# Elastic Constant Matrix: (Units=GPa)
#
#
# Indices 1 2 3 4 5 6 
#
# 1 73.5745 4.6639 27.0573 0.0000 0.0000 2.9590
# 2 4.6639 73.5745 27.0573 0.0000 0.0000 -2.9590
# 3 27.0573 27.0573 118.4346 0.0000 0.0000 0.0000
# 4 0.0000 0.0000 0.0000 28.2763 0.0000 0.0000
# 5 0.0000 0.0000 0.0000 0.0000 28.2763 0.0000
# 6 2.9590 -2.9590 0.0000 0.0000 0.0000 17.2201
#
#
#
# Elastic Compliance Matrix: (Units=1/GPa)
#
#
# Indices 1 2 3 4 5 6 
#
# 1 0.014955 0.000226 -0.003468 0.000000 0.000000 -0.002531
# 2 0.000226 0.014955 -0.003468 0.000000 0.000000 0.002531
# 3 -0.003468 -0.003468 0.010028 0.000000 0.000000 0.000000
# 4 0.000000 0.000000 0.000000 0.035365 0.000000 0.000000
# 5 0.000000 0.000000 0.000000 0.000000 0.035365 0.000000
# 6 -0.002531 0.002531 0.000000 0.000000 0.000000 0.058941
#
#
# Mechanical properties :
#
#
# Convention : Reuss Voigt Hill
#
# Bulk Modulus (GPa) = 37.71270 42.57118 40.14194
# Shear Modulus (GPa) = 26.05951 28.54158 27.30055
#
# Velocity S-wave (km/s) = 3.57024 3.73640 3.65427
# Velocity P-wave (km/s) = 5.95333 6.27992 6.11880
#
# Compressibility (1/GPa) = 0.02651627
#
# Stress axis : x y z
#
# Youngs Moduli (GPa) = 66.86942 66.86942 99.72016
#
# Poissons Ratio (x) = -0.01509 0.34583
# Poissons Ratio (y) = -0.01509 0.34583
# Poissons Ratio (z) = 0.23190 0.23190
#
# Static dielectric constant tensor:
#      x y z
#    x 1.763280 0.000000 0.000000 
#    y 0.000000 1.763280 0.000000 
#    z 0.000000 0.000000 1.774780 
# 
# From -- ./inp_files/1712.got.cif
#   From: 2010.05.17/outbox.cif.g08.bks.cpg/sg85_cif.got.tgz:1712.got - 2010.06.03 19:01:16.
