data_PCOD9544233
_publ_section_title
;
Structure prediction by ZEFSAII (Michael W. Deem and Ramdas Pophale) SiO2 
 PCOD9544233
Probable space group: P 42/M
;
_chemical_formula_sum "Si O2"
_cell_formula_units_Z 48
_cell_length_a 8.799255
_cell_length_b 8.799255
_cell_length_c 29.636267
_cell_angle_alpha 90.000000
_cell_angle_beta 90.000000
_cell_angle_gamma 90.000000
_cell_volume 2294.643942
_symmetry_space_group_name_H-M "P 42/M"
_symmetry_group_IT_number 84
_symmetry_cell_setting 'tetragonal'
loop_
_space_group_symop_operation_xyz
x,y,z
-y,x,1/2+z
-x,-y,z
y,-x,1/2+z
-x,-y,-z
y,-x,1/2-z
x,y,-z
-y,x,1/2-z
loop_
_atom_site_type_symbol
_atom_site_label
_atom_site_fract_x
_atom_site_fract_y
_atom_site_fract_z
Si Si1 0.549022 0.825036 0.734133
Si Si2 0.171382 0.051577 0.860666
Si Si3 0.346373 0.792406 0.186126
Si Si4 0.839790 0.587153 0.855455
Si Si5 0.613662 0.636336 0.408636
Si Si6 0.067810 0.331034 0.551025
O O1 0.717541 0.788657 0.716615
O O2 0.491170 0.767793 0.782011
O O3 0.453993 0.758387 0.691854
O O4 0.500000 0.000000 0.737465
O O5 0.167184 0.233004 0.859054
O O6 0.289349 0.961087 0.827968
O O7 0.220609 0.997751 0.910704
O O8 0.000000 0.000000 0.850370
O O9 0.377244 0.705609 0.139099
O O10 0.770065 0.503959 0.898521
O O11 0.000000 0.500000 0.851283
O O12 0.500000 0.500000 0.418936
O O13 0.749640 0.661404 0.443342
O O14 0.027605 0.286849 0.500000
O O15 0.000000 0.500000 0.559417
#
# Coordination Sequence:
#
# PCOD9544233 Si02
#       6
#     8   8   8   8   8   8
#     4  10  22  37  53  82 120 159 215 262 311 361
#     4  11  22  42  67  91 124 168 217 265 331 391
#     4  10  24  36  58  86 121 168 212 270 314 375
#     4  10  21  40  61  84 124 166 206 266 319 380
#     4  10  21  37  59  88 120 165 213 256 326 381
#     4  10  22  41  65  95 128 163 211 266 328 404
#
# _framework density 20.918277
#
# number of rings (size 3 to 8) (size 9 to 14) (size 15 to 20)
#    0.000    1.833    0.000    5.000    7.000    3.333 
#    0.000    0.833    0.000    2.000    0.000    0.000 
#    0.000    0.000    0.000    0.000    0.000    0.000 
#
# Total GULP energy -267544.567666 kJ/mol
# GULP energy per Si atom -5573.845160 kJ/mol
# Density = 2.087067 g / cm^3
# Si number density = 20.918277 Si / 1000 Ang^3
#
#
#
# Elastic Constant Matrix: (Units=GPa)
#
#
# Indices 1 2 3 4 5 6 
#
# 1 106.4652 19.7967 21.4742 0.0000 0.0000 -0.0260
# 2 19.7967 106.4652 21.4742 0.0000 0.0000 0.0260
# 3 21.4742 21.4742 74.1763 0.0000 0.0000 0.0000
# 4 0.0000 0.0000 0.0000 17.7408 0.0000 0.0000
# 5 0.0000 0.0000 0.0000 0.0000 17.7408 0.0000
# 6 -0.0260 0.0260 0.0000 0.0000 0.0000 33.4707
#
#
#
# Elastic Compliance Matrix: (Units=1/GPa)
#
#
# Indices 1 2 3 4 5 6 
#
# 1 0.010162 -0.001377 -0.002543 0.000000 0.000000 0.000009
# 2 -0.001377 0.010162 -0.002543 0.000000 0.000000 -0.000009
# 3 -0.002543 -0.002543 0.014954 0.000000 0.000000 0.000000
# 4 0.000000 0.000000 0.000000 0.056367 0.000000 0.000000
# 5 0.000000 0.000000 0.000000 0.000000 0.056367 0.000000
# 6 0.000009 -0.000009 0.000000 0.000000 0.000000 0.029877
#
#
# Mechanical properties :
#
#
# Convention : Reuss Voigt Hill
#
# Bulk Modulus (GPa) = 44.74065 45.84408 45.29237
# Shear Modulus (GPa) = 25.21873 28.74791 26.98332
#
# Velocity S-wave (km/s) = 3.47592 3.71117 3.59547
# Velocity P-wave (km/s) = 6.12732 6.35036 6.23984
#
# Compressibility (1/GPa) = 0.02235104
#
# Stress axis : x y z
#
# Youngs Moduli (GPa) = 98.40883 98.40883 66.87176
#
# Poissons Ratio (x) = 0.13546 0.17008
# Poissons Ratio (y) = 0.13546 0.17008
# Poissons Ratio (z) = 0.25029 0.25029
#
# Static dielectric constant tensor:
#      x y z
#    x 1.771910 0.000000 0.000000 
#    y 0.000000 1.771910 0.000000 
#    z 0.000000 0.000000 1.771150 
# 
# From -- ./inp_files/5745.got.cif
#   From: 2010.05.17/outbox.cif.g08.bks.cpg/sg84_3_cif.got.tgz:5745.got - 2010.06.03 18:57:40.
