data_PCOD9544746
_publ_section_title
;
Structure prediction by ZEFSAII (Michael W. Deem and Ramdas Pophale) SiO2 
 PCOD9544746
Probable space group: P 4/N
;
_chemical_formula_sum "Si O2"
_cell_formula_units_Z 48
_cell_length_a 10.863555
_cell_length_b 10.863555
_cell_length_c 16.048212
_cell_angle_alpha 90.000000
_cell_angle_beta 90.000000
_cell_angle_gamma 90.000000
_cell_volume 1893.959063
_symmetry_space_group_name_H-M "P 4/N"
_symmetry_group_IT_number 85
_symmetry_cell_setting 'tetragonal'
loop_
_space_group_symop_operation_xyz
x,y,z
1/2-y,x,z
1/2-x,1/2-y,z
y,1/2-x,z
-x,-y,-z
1/2+y,-x,-z
1/2+x,1/2+y,-z
-y,1/2+x,-z
loop_
_atom_site_type_symbol
_atom_site_label
_atom_site_fract_x
_atom_site_fract_y
_atom_site_fract_z
Si Si1 0.063506 0.794543 0.975299
Si Si2 0.348603 0.075099 0.871254
Si Si3 0.454390 0.853696 0.382915
Si Si4 0.108421 0.567912 0.711626
Si Si5 0.544983 0.766623 0.796343
Si Si6 0.049669 0.226440 0.451817
O O1 0.019089 0.750114 0.886063
O O2 0.179066 0.885449 0.971733
O O3 0.959391 0.857204 0.031709
O O4 0.408547 0.204903 0.852836
O O5 0.398346 0.976014 0.807727
O O6 0.421093 0.748794 0.316548
O O7 0.526476 0.772559 0.452732
O O8 0.538868 0.961518 0.341477
O O9 0.339208 0.921314 0.427179
O O10 0.045851 0.701958 0.720442
O O11 0.623506 0.643100 0.789526
O O12 0.148279 0.120805 0.425629
#
# Coordination Sequence:
#
# PCOD9544746 Si02
#       6
#     8   8   8   8   8   8
#     4  11  24  42  73 112 158 210 273 343 400 483
#     4  11  23  41  71 111 149 202 267 328 405 473
#     4  12  27  52  86 122 162 216 266 349 420 506
#     4  12  26  49  82 118 165 205 271 353 411 486
#     4  11  27  52  77 111 165 225 274 338 424 495
#     4  11  26  53  85 120 168 215 266 331 421 520
#
# _framework density 25.343737000000001
#
# number of rings (size 3 to 8) (size 9 to 14) (size 15 to 20)
#    0.000    0.667    5.000    1.500    2.333    4.667 
#    3.000    3.333    0.000    0.000    0.000    0.000 
#    0.000    0.000    0.000    0.000    0.000    0.000 
#
# Total GULP energy -268361.842422 kJ/mol
# GULP energy per Si atom -5590.871717 kJ/mol
# Density = 2.528605 g / cm^3
# Si number density = 25.343737 Si / 1000 Ang^3
#
#
#
# Elastic Constant Matrix: (Units=GPa)
#
#
# Indices 1 2 3 4 5 6 
#
# 1 114.1997 64.5301 47.5280 0.0000 0.0000 17.1283
# 2 64.5301 114.1997 47.5280 0.0000 0.0000 -17.1283
# 3 47.5280 47.5280 99.7571 0.0000 0.0000 0.0000
# 4 0.0000 0.0000 0.0000 45.4373 0.0000 0.0000
# 5 0.0000 0.0000 0.0000 0.0000 45.4373 0.0000
# 6 17.1283 -17.1283 0.0000 0.0000 0.0000 49.8086
#
#
#
# Elastic Compliance Matrix: (Units=1/GPa)
#
#
# Indices 1 2 3 4 5 6 
#
# 1 0.016943 -0.009449 -0.003570 0.000000 0.000000 -0.009076
# 2 -0.009449 0.016943 -0.003570 0.000000 0.000000 0.009076
# 3 -0.003570 -0.003570 0.013426 0.000000 0.000000 0.000000
# 4 0.000000 0.000000 0.000000 0.022008 0.000000 0.000000
# 5 0.000000 0.000000 0.000000 0.000000 0.022008 0.000000
# 6 -0.009076 0.009076 0.000000 0.000000 0.000000 0.026319
#
#
# Mechanical properties :
#
#
# Convention : Reuss Voigt Hill
#
# Bulk Modulus (GPa) = 70.75746 71.92540 71.34143
# Shear Modulus (GPa) = 32.14611 39.37466 35.76039
#
# Velocity S-wave (km/s) = 3.56533 3.94588 3.76042
# Velocity P-wave (km/s) = 6.70287 7.01438 6.86039
#
# Compressibility (1/GPa) = 0.01413279
#
# Stress axis : x y z
#
# Youngs Moduli (GPa) = 59.02052 59.02052 74.47971
#
# Poissons Ratio (x) = 0.55771 0.26592
# Poissons Ratio (y) = 0.55771 0.26592
# Poissons Ratio (z) = 0.21073 0.21073
#
# Static dielectric constant tensor:
#      x y z
#    x 1.988470 0.000000 0.000000 
#    y 0.000000 1.988470 0.000000 
#    z 0.000000 0.000000 2.010880 
# 
# From -- ./inp_files/2101.got.cif
#   From: 2010.05.17/outbox.cif.g08.bks.cpg/sg85_cif.got.tgz:2101.got - 2010.06.03 19:01:16.
