data_PCOD9544255
_publ_section_title
;
Structure prediction by ZEFSAII (Michael W. Deem and Ramdas Pophale) SiO2 
 PCOD9544255
Probable space group: P 42/M
;
_chemical_formula_sum "Si O2"
_cell_formula_units_Z 32
_cell_length_a 9.558935
_cell_length_b 9.558935
_cell_length_c 18.366575
_cell_angle_alpha 90.000000
_cell_angle_beta 90.000000
_cell_angle_gamma 90.000000
_cell_volume 1678.213435
_symmetry_space_group_name_H-M "P 42/M"
_symmetry_group_IT_number 84
_symmetry_cell_setting 'tetragonal'
loop_
_space_group_symop_operation_xyz
x,y,z
-y,x,1/2+z
-x,-y,z
y,-x,1/2+z
-x,-y,-z
y,-x,1/2-z
x,y,-z
-y,x,1/2-z
loop_
_atom_site_type_symbol
_atom_site_label
_atom_site_fract_x
_atom_site_fract_y
_atom_site_fract_z
Si Si1 0.346237 0.241249 0.681418
Si Si2 0.505556 0.836195 0.169202
Si Si3 0.329984 0.993121 0.419152
Si Si4 0.684059 0.618897 0.085980
O O1 0.225941 0.354694 0.688929
O O2 0.402651 0.188160 0.758420
O O3 0.287804 0.109153 0.637492
O O4 0.478855 0.307775 0.635935
O O5 0.567267 0.729894 0.108965
O O6 0.500000 0.000000 0.149763
O O7 0.278936 0.027019 0.500000
O O8 0.500000 0.000000 0.420451
O O9 0.302433 0.832244 0.402153
O O10 0.675260 0.580966 0.000000
#
# Coordination Sequence:
#
# PCOD9544255 Si02
#       4
#     8   8   8   8
#     4  11  21  38  62  87 117 155 201 244 290 348
#     4  12  25  38  58  89 123 154 193 250 302 345
#     4   8  16  34  62  88 112 150 198 239 278 340
#     4  10  21  39  64  91 119 155 198 241 289 348
#
# _framework density 19.067895
#
# number of rings (size 3 to 8) (size 9 to 14) (size 15 to 20)
#    0.000    1.750    2.500    5.250    0.000    3.500 
#    0.000    1.250    0.000    3.000    0.000    0.000 
#    0.000    0.000    0.000    0.000    0.000    0.000 
#
# Total GULP energy -178531.377624 kJ/mol
# GULP energy per Si atom -5579.105551 kJ/mol
# Density = 1.902450 g / cm^3
# Si number density = 19.067895 Si / 1000 Ang^3
#
#
#
# Elastic Constant Matrix: (Units=GPa)
#
#
# Indices 1 2 3 4 5 6 
#
# 1 48.1261 10.8326 -1.5808 0.0000 0.0000 -9.5054
# 2 10.8326 48.1261 -1.5808 0.0000 0.0000 9.5054
# 3 -1.5808 -1.5808 41.5227 0.0000 0.0000 0.0000
# 4 0.0000 0.0000 0.0000 -274.2770 0.0000 0.0000
# 5 0.0000 0.0000 0.0000 0.0000 -274.2770 0.0000
# 6 -9.5054 9.5054 0.0000 0.0000 0.0000 5.0860
#
#
#
# Elastic Compliance Matrix: (Units=1/GPa)
#
#
# Indices 1 2 3 4 5 6 
#
# 1 0.292072 -0.275077 0.000647 0.000000 0.000000 1.059974
# 2 -0.275077 0.292072 0.000647 0.000000 0.000000 -1.059974
# 3 0.000647 0.000647 0.024132 0.000000 0.000000 0.000000
# 4 0.000000 0.000000 0.000000 -0.003646 0.000000 0.000000
# 5 0.000000 0.000000 0.000000 0.000000 -0.003646 0.000000
# 6 1.059974 -1.059974 0.000000 0.000000 0.000000 4.158698
#
#
# Mechanical properties :
#
#
# Convention : Reuss Voigt Hill
#
# Bulk Modulus (GPa) = 16.47117 17.01298 16.74208
# Shear Modulus (GPa) = 0.93853 -100.02001 -49.54074
#
# Velocity S-wave (km/s) = 0.70233 -7.25042 -5.10271
# Velocity P-wave (km/s) = 3.05199 7.81983 5.09093
#
# Compressibility (1/GPa) = 0.06071213
#
# Stress axis : x y z
#
# Youngs Moduli (GPa) = 3.42381 3.42381 41.43792
#
# Poissons Ratio (x) = 0.94181 -0.02681
# Poissons Ratio (y) = 0.94181 -0.02681
# Poissons Ratio (z) = -0.00222 -0.00222
#
# Static dielectric constant tensor:
#      x y z
#    x 1.674870 0.000000 0.000000 
#    y 0.000000 1.674870 0.000000 
#    z 0.000000 0.000000 1.689570 
# 
# From -- ./inp_files/4119.got.cif
#   From: 2010.05.17/outbox.cif.g08.bks.cpg/sg84_3_cif.got.tgz:4119.got - 2010.06.03 18:57:40.
