data_PCOD9544758
_publ_section_title
;
Structure prediction by ZEFSAII (Michael W. Deem and Ramdas Pophale) SiO2 
 PCOD9544758
Probable space group: P 4/N
;
_chemical_formula_sum "Si O2"
_cell_formula_units_Z 34
_cell_length_a 11.708019
_cell_length_b 11.708019
_cell_length_c 10.400747
_cell_angle_alpha 90.000000
_cell_angle_beta 90.000000
_cell_angle_gamma 90.000000
_cell_volume 1425.710570
_symmetry_space_group_name_H-M "P 4/N"
_symmetry_group_IT_number 85
_symmetry_cell_setting 'tetragonal'
loop_
_space_group_symop_operation_xyz
x,y,z
1/2-y,x,z
1/2-x,1/2-y,z
y,1/2-x,z
-x,-y,-z
1/2+y,-x,-z
1/2+x,1/2+y,-z
-y,1/2+x,-z
loop_
_atom_site_type_symbol
_atom_site_label
_atom_site_fract_x
_atom_site_fract_y
_atom_site_fract_z
Si Si1 0.524925 0.089341 0.114009
Si Si2 0.997276 0.260268 0.768084
Si Si3 0.969866 0.178807 0.208261
Si Si4 0.441365 0.753305 0.511088
Si Si5 0.750000 0.750000 0.151964
O O1 0.538410 0.225361 0.097353
O O2 0.637706 0.050224 0.189175
O O3 0.407908 0.072812 0.191266
O O4 0.500000 0.000000 0.000000
O O5 0.114499 0.288686 0.839082
O O6 0.897995 0.354637 0.789039
O O7 0.021055 0.261235 0.613742
O O8 0.985540 0.238769 0.345632
O O9 0.361807 0.642412 0.488885
#
# Coordination Sequence:
#
# PCOD9544758 Si02
#       5
#     8   8   8   8   2
#     4  12  28  46  72 108 149 203 253 317 379 469
#     4  11  23  46  73 109 153 194 254 318 399 467
#     4  11  25  47  74 106 147 199 258 317 392 458
#     4   9  18  38  73 107 145 194 252 317 387 475
#     4  12  24  40  72 116 146 188 244 324 384 458
#
# _framework density 23.847756
#
# number of rings (size 3 to 8) (size 9 to 14) (size 15 to 20)
#    0.000    1.176    4.706    0.706    3.294    3.294 
#    0.000    0.000    0.000    0.000    0.000    0.000 
#    0.000    0.000    0.000    0.000    0.000    0.000 
#
# Total GULP energy -189617.846414 kJ/mol
# GULP energy per Si atom -5576.995483 kJ/mol
# Density = 2.379348 g / cm^3
# Si number density = 23.847756 Si / 1000 Ang^3
#
#
#
# Elastic Constant Matrix: (Units=GPa)
#
#
# Indices 1 2 3 4 5 6 
#
# 1 260.1627 -102.4031 31.7221 0.0000 0.0000 128.0743
# 2 -102.4031 260.1627 31.7221 0.0000 0.0000 -128.0743
# 3 31.7221 31.7221 100.9089 0.0000 0.0000 0.0000
# 4 0.0000 0.0000 0.0000 24.0423 0.0000 0.0000
# 5 0.0000 0.0000 0.0000 0.0000 24.0423 0.0000
# 6 128.0743 -128.0743 0.0000 0.0000 0.0000 172.5124
#
#
#
# Elastic Compliance Matrix: (Units=1/GPa)
#
#
# Indices 1 2 3 4 5 6 
#
# 1 0.006528 0.000728 -0.002281 0.000000 0.000000 -0.004306
# 2 0.000728 0.006528 -0.002281 0.000000 0.000000 0.004306
# 3 -0.002281 -0.002281 0.011344 0.000000 0.000000 0.000000
# 4 0.000000 0.000000 0.000000 0.041593 0.000000 0.000000
# 5 0.000000 0.000000 0.000000 0.000000 0.041593 0.000000
# 6 -0.004306 0.004306 0.000000 0.000000 0.000000 0.012191
#
#
# Mechanical properties :
#
#
# Convention : Reuss Voigt Hill
#
# Bulk Modulus (GPa) = 59.76544 60.36848 60.06696
# Shear Modulus (GPa) = 37.58720 88.13230 62.85975
#
# Velocity S-wave (km/s) = 3.97436 6.08576 5.13965
# Velocity P-wave (km/s) = 6.79532 8.64587 7.77584
#
# Compressibility (1/GPa) = 0.01673208
#
# Stress axis : x y z
#
# Youngs Moduli (GPa) = 153.17943 153.17943 88.15165
#
# Poissons Ratio (x) = -0.11149 0.20108
# Poissons Ratio (y) = -0.11149 0.20108
# Poissons Ratio (z) = 0.34941 0.34941
#
# Static dielectric constant tensor:
#      x y z
#    x 1.901680 0.000000 0.000000 
#    y 0.000000 1.901680 0.000000 
#    z 0.000000 0.000000 2.039460 
# 
# From -- ./inp_files/1439.got.cif
#   From: 2010.05.17/outbox.cif.g08.bks.cpg/sg85_cif.got.tgz:1439.got - 2010.06.03 19:01:16.
