data_PCOD9544506
_publ_section_title
;
Structure prediction by ZEFSAII (Michael W. Deem and Ramdas Pophale) SiO2 
 PCOD9544506
Probable space group: P 4/N
;
_chemical_formula_sum "Si O2"
_cell_formula_units_Z 52
_cell_length_a 17.754586
_cell_length_b 17.754586
_cell_length_c 9.702066
_cell_angle_alpha 90.000000
_cell_angle_beta 90.000000
_cell_angle_gamma 90.000000
_cell_volume 3058.336899
_symmetry_space_group_name_H-M "P 4/N"
_symmetry_group_IT_number 85
_symmetry_cell_setting 'tetragonal'
loop_
_space_group_symop_operation_xyz
x,y,z
1/2-y,x,z
1/2-x,1/2-y,z
y,1/2-x,z
-x,-y,-z
1/2+y,-x,-z
1/2+x,1/2+y,-z
-y,1/2+x,-z
loop_
_atom_site_type_symbol
_atom_site_label
_atom_site_fract_x
_atom_site_fract_y
_atom_site_fract_z
Si Si1 0.486155 0.593844 0.916860
Si Si2 0.092490 0.975764 0.661356
Si Si3 0.025444 0.908173 0.400692
Si Si4 0.250000 0.750000 0.215093
Si Si5 0.916426 0.246697 0.724187
Si Si6 0.249878 0.912396 0.059260
Si Si7 0.483155 0.904566 0.843038
O O1 0.435748 0.543871 0.814032
O O2 0.459954 0.678104 0.893991
O O3 0.570745 0.567306 0.884459
O O4 0.462138 0.569546 0.069632
O O5 0.051207 0.917660 0.557601
O O6 0.180792 0.959211 0.664087
O O7 0.058162 0.057342 0.621163
O O8 0.044070 0.827369 0.336796
O O9 0.078645 0.966256 0.315234
O O10 0.173423 0.752379 0.304280
O O11 0.252207 0.827773 0.123869
O O12 0.914334 0.249238 0.892386
O O13 0.176005 0.954019 0.112799
#
# Coordination Sequence:
#
# PCOD9544506 Si02
#       7
#     8   8   8   4   8   8   8
#     4  10  19  33  53  75 101 141 185 217 263 329
#     4  10  22  38  53  76 110 147 184 223 269 328
#     4  10  22  38  53  76 110 147 184 223 269 328
#     4  12  21  30  47  88 119 140 169 226 283 324
#     4  12  21  32  54  79 110 143 175 228 276 324
#     4  12  19  31  53  80 111 137 179 232 271 324
#     4  10  19  33  53  75 101 141 185 217 263 329
#
# _framework density 17.002704000000001
#
# number of rings (size 3 to 8) (size 9 to 14) (size 15 to 20)
#    0.000    1.231    6.154    1.385    0.000    2.462 
#    0.000    0.000    0.000    0.923    0.000    2.154 
#    0.000    7.385    0.000    0.000    0.000    0.000 
#
# Total GULP energy -289777.663777 kJ/mol
# GULP energy per Si atom -5572.647380 kJ/mol
# Density = 1.696400 g / cm^3
# Si number density = 17.002704 Si / 1000 Ang^3
#
#
#
# Elastic Constant Matrix: (Units=GPa)
#
#
# Indices 1 2 3 4 5 6 
#
# 1 122.0730 78.3446 15.3687 0.0000 0.0000 -0.7316
# 2 78.3446 122.0730 15.3687 0.0000 0.0000 0.7316
# 3 15.3687 15.3687 37.4639 0.0000 0.0000 0.0000
# 4 0.0000 0.0000 0.0000 14.6948 0.0000 0.0000
# 5 0.0000 0.0000 0.0000 0.0000 14.6948 0.0000
# 6 -0.7316 0.7316 0.0000 0.0000 0.0000 30.1871
#
#
#
# Elastic Compliance Matrix: (Units=1/GPa)
#
#
# Indices 1 2 3 4 5 6 
#
# 1 0.014106 -0.008781 -0.002184 0.000000 0.000000 0.000555
# 2 -0.008781 0.014106 -0.002184 0.000000 0.000000 -0.000555
# 3 -0.002184 -0.002184 0.028484 0.000000 0.000000 0.000000
# 4 0.000000 0.000000 0.000000 0.068051 0.000000 0.000000
# 5 0.000000 0.000000 0.000000 0.000000 0.068051 0.000000
# 6 0.000555 -0.000555 0.000000 0.000000 0.000000 0.033154
#
#
# Mechanical properties :
#
#
# Convention : Reuss Voigt Hill
#
# Bulk Modulus (GPa) = 32.89858 55.53045 44.21452
# Shear Modulus (GPa) = 19.05606 23.41721 21.23664
#
# Velocity S-wave (km/s) = 3.35142 3.71518 3.53798
# Velocity P-wave (km/s) = 5.86234 7.15081 6.53839
#
# Compressibility (1/GPa) = 0.03039645
#
# Stress axis : x y z
#
# Youngs Moduli (GPa) = 70.89294 70.89294 35.10688
#
# Poissons Ratio (x) = 0.62252 0.07668
# Poissons Ratio (y) = 0.62252 0.07668
# Poissons Ratio (z) = 0.15485 0.15485
#
# Static dielectric constant tensor:
#      x y z
#    x 1.603840 0.000000 0.000000 
#    y 0.000000 1.603840 0.000000 
#    z 0.000000 0.000000 1.586150 
# 
# From -- ./inp_files/1148.got.cif
#   From: 2010.05.17/outbox.cif.g08.bks.cpg/sg85_cif.got.tgz:1148.got - 2010.06.03 19:01:16.
