data_PCOD9544751
_publ_section_title
;
Structure prediction by ZEFSAII (Michael W. Deem and Ramdas Pophale) SiO2 
 PCOD9544751
Probable space group: P 4/N
;
_chemical_formula_sum "Si O2"
_cell_formula_units_Z 50
_cell_length_a 9.263399
_cell_length_b 9.263399
_cell_length_c 29.586482
_cell_angle_alpha 90.000000
_cell_angle_beta 90.000000
_cell_angle_gamma 90.000000
_cell_volume 2538.832619
_symmetry_space_group_name_H-M "P 4/N"
_symmetry_group_IT_number 85
_symmetry_cell_setting 'tetragonal'
loop_
_space_group_symop_operation_xyz
x,y,z
1/2-y,x,z
1/2-x,1/2-y,z
y,1/2-x,z
-x,-y,-z
1/2+y,-x,-z
1/2+x,1/2+y,-z
-y,1/2+x,-z
loop_
_atom_site_type_symbol
_atom_site_label
_atom_site_fract_x
_atom_site_fract_y
_atom_site_fract_z
Si Si1 0.383537 0.048215 0.726025
Si Si2 0.597932 0.939130 0.378290
Si Si3 0.175905 0.476982 0.880217
Si Si4 0.585029 0.571796 0.541441
Si Si5 0.250000 0.250000 0.193584
Si Si6 0.630578 0.084849 0.019431
Si Si7 0.183136 0.912402 0.198534
O O1 0.441190 0.210558 0.732572
O O2 0.421546 0.014887 0.673883
O O3 0.437267 0.932226 0.761290
O O4 0.555079 0.771001 0.385215
O O5 0.505365 0.030961 0.413025
O O6 0.074793 0.338663 0.870818
O O7 0.174919 0.522412 0.932710
O O8 0.120456 0.603919 0.848827
O O9 0.757467 0.553702 0.539292
O O10 0.500000 0.500000 0.500000
O O11 0.432868 0.265071 0.193776
O O12 0.583121 0.250085 0.019995
O O13 0.500000 0.000000 0.000000
O O14 0.250000 0.750000 0.209105
#
# Coordination Sequence:
#
# PCOD9544751 Si02
#       7
#     8   8   8   8   2   8   8
#     4   9  18  39  67  96 133 178 229 277 341 413
#     4   9  19  38  64  93 127 171 220 271 325 396
#     4  11  23  42  71 100 133 180 232 283 349 431
#     4  11  24  41  60  91 129 169 218 274 334 397
#     4  12  28  48  68 108 144 180 236 288 352 420
#     4  11  24  41  64  93 132 171 216 275 342 412
#     4  12  26  45  70 101 143 184 230 292 358 419
#
# _framework density 19.694089000000002
#
# number of rings (size 3 to 8) (size 9 to 14) (size 15 to 20)
#    0.000    1.440    1.600    4.800    2.240    6.400 
#    8.640    0.000    0.000    0.000    0.000    0.000 
#    0.000    0.000    0.000    0.000    0.000    0.000 
#
# Total GULP energy -278357.802889 kJ/mol
# GULP energy per Si atom -5567.156058 kJ/mol
# Density = 1.964926 g / cm^3
# Si number density = 19.694089 Si / 1000 Ang^3
#
#
#
# Elastic Constant Matrix: (Units=GPa)
#
#
# Indices 1 2 3 4 5 6 
#
# 1 62.6425 68.9228 34.8328 0.0000 0.0000 1.0803
# 2 68.9228 62.6425 34.8328 0.0000 0.0000 -1.0803
# 3 34.8328 34.8328 72.6050 0.0000 0.0000 0.0000
# 4 0.0000 0.0000 0.0000 35.4833 0.0000 0.0000
# 5 0.0000 0.0000 0.0000 0.0000 35.4833 0.0000
# 6 1.0803 -1.0803 0.0000 0.0000 0.0000 32.6058
#
#
#
# Elastic Compliance Matrix: (Units=1/GPa)
#
#
# Indices 1 2 3 4 5 6 
#
# 1 -0.073622 0.083811 -0.004888 0.000000 0.000000 0.005216
# 2 0.083811 -0.073622 -0.004888 0.000000 0.000000 -0.005216
# 3 -0.004888 -0.004888 0.018464 0.000000 0.000000 0.000000
# 4 0.000000 0.000000 0.000000 0.028182 0.000000 0.000000
# 5 0.000000 0.000000 0.000000 0.000000 0.028182 0.000000
# 6 0.005216 -0.005216 0.000000 0.000000 0.000000 0.030324
#
#
# Mechanical properties :
#
#
# Convention : Reuss Voigt Hill
#
# Bulk Modulus (GPa) = 51.84401 52.78521 52.31461
# Shear Modulus (GPa) = -27.21373 24.66791 -1.27291
#
# Velocity S-wave (km/s) = -3.72132 3.54298 -0.80482
# Velocity P-wave (km/s) = 2.81381 6.60286 5.07520
#
# Compressibility (1/GPa) = 0.01928863
#
# Stress axis : x y z
#
# Youngs Moduli (GPa) = -13.58293 -13.58293 54.16054
#
# Poissons Ratio (x) = 1.13840 0.26476
# Poissons Ratio (y) = 1.13840 0.26476
# Poissons Ratio (z) = -0.06640 -0.06640
#
# Static dielectric constant tensor:
#      x y z
#    x 1.639710 0.000000 0.000000 
#    y 0.000000 1.639710 0.000000 
#    z 0.000000 0.000000 1.667900 
# 
# From -- ./inp_files/2446.got.cif
#   From: 2010.05.17/outbox.cif.g08.bks.cpg/sg85_cif.got.tgz:2446.got - 2010.06.03 19:01:16.
