data_PCOD9544937
_publ_section_title
;
Structure prediction by ZEFSAII (Michael W. Deem and Ramdas Pophale) SiO2 
 PCOD9544937
Probable space group: P 42/N
;
_chemical_formula_sum "Si O2"
_cell_formula_units_Z 54
_cell_length_a 15.285219
_cell_length_b 15.285219
_cell_length_c 9.373746
_cell_angle_alpha 90.000000
_cell_angle_beta 90.000000
_cell_angle_gamma 90.000000
_cell_volume 2190.062517
_symmetry_space_group_name_H-M "P 42/N"
_symmetry_group_IT_number 86
_space_group.IT_coordinate_system_code '2'
_symmetry_cell_setting 'tetragonal'
loop_
_space_group_symop_operation_xyz
x,y,z
-y,1/2+x,1/2+z
1/2-x,1/2-y,z
1/2+y,-x,1/2+z
-x,-y,-z
y,1/2-x,1/2-z
1/2+x,1/2+y,-z
1/2-y,x,1/2-z
loop_
_atom_site_type_symbol
_atom_site_label
_atom_site_fract_x
_atom_site_fract_y
_atom_site_fract_z
Si Si1 0.450680 0.091575 0.496777
Si Si2 0.448107 0.736430 0.505132
Si Si3 0.750000 0.250000 0.914670
Si Si4 0.560969 0.513968 0.296416
Si Si5 0.740844 0.437454 0.307712
Si Si6 0.738414 0.896738 0.497565
Si Si7 0.900747 0.579632 0.891494
Si Si8 0.250000 0.250000 0.750000
O O1 0.520931 0.165430 0.464634
O O2 0.426283 0.092533 0.667344
O O3 0.356611 0.110939 0.429536
O O4 0.500000 0.000000 0.500000
O O5 0.343070 0.728489 0.511064
O O6 0.472024 0.718899 0.339470
O O7 0.510157 0.677760 0.603778
O O8 0.661016 0.270476 0.831447
O O9 0.635264 0.438410 0.290542
O O10 0.463688 0.473276 0.288140
O O11 0.570110 0.557859 0.449170
O O12 0.759068 0.503700 0.436641
O O13 0.817819 0.881298 0.608075
O O14 0.751990 0.831350 0.362391
#
# Coordination Sequence:
#
# PCOD9544937 Si02
#       8
#     8   8   4   8   8   8   8   2
#     4  11  23  40  57  86 125 165 206 261 315 379
#     4  11  22  36  59  85 120 158 204 258 308 376
#     4  12  22  36  54  84 122 168 206 240 314 376
#     4   9  19  37  59  83 120 156 198 254 317 378
#     4  10  20  36  54  83 119 155 201 251 301 377
#     4  11  21  36  62  90 119 153 206 262 327 377
#     4  10  19  36  61  91 117 156 202 258 324 382
#     4  12  20  36  64 100 118 152 200 280 336 362
#
# _framework density 24.656831
#
# number of rings (size 3 to 8) (size 9 to 14) (size 15 to 20)
#    0.000    1.481    1.481    6.667    0.000    0.000 
#    0.000    1.481    0.000    0.000    0.000    2.074 
#    0.000    0.000    0.000    0.000    0.000    0.000 
#
# Total GULP energy -301434.287308 kJ/mol
# GULP energy per Si atom -5582.116432 kJ/mol
# Density = 2.460071 g / cm^3
# Si number density = 24.656831 Si / 1000 Ang^3
#
#
#
# Elastic Constant Matrix: (Units=GPa)
#
#
# Indices 1 2 3 4 5 6 
#
# 1 125.0736 17.2566 15.3375 0.0000 0.0000 9.8418
# 2 17.2566 125.0736 15.3375 0.0000 0.0000 -9.8418
# 3 15.3375 15.3375 24.4979 0.0000 0.0000 0.0000
# 4 0.0000 0.0000 0.0000 31.5929 0.0000 0.0000
# 5 0.0000 0.0000 0.0000 0.0000 31.5929 0.0000
# 6 9.8418 -9.8418 0.0000 0.0000 0.0000 33.8559
#
#
#
# Elastic Compliance Matrix: (Units=1/GPa)
#
#
# Indices 1 2 3 4 5 6 
#
# 1 0.008958 -0.000836 -0.005085 0.000000 0.000000 -0.002847
# 2 -0.000836 0.008958 -0.005085 0.000000 0.000000 0.002847
# 3 -0.005085 -0.005085 0.047187 0.000000 0.000000 0.000000
# 4 0.000000 0.000000 0.000000 0.031653 0.000000 0.000000
# 5 0.000000 0.000000 0.000000 0.000000 0.031653 0.000000
# 6 -0.002847 0.002847 0.000000 0.000000 0.000000 0.031192
#
#
# Mechanical properties :
#
#
# Convention : Reuss Voigt Hill
#
# Bulk Modulus (GPa) = 23.20671 41.16757 32.18714
# Shear Modulus (GPa) = 25.51319 34.52255 30.01787
#
# Velocity S-wave (km/s) = 3.22021 3.74588 3.49295
# Velocity P-wave (km/s) = 4.82273 5.95326 5.41756
#
# Compressibility (1/GPa) = 0.04309098
#
# Stress axis : x y z
#
# Youngs Moduli (GPa) = 111.62840 111.62840 21.19242
#
# Poissons Ratio (x) = 0.09338 0.10776
# Poissons Ratio (y) = 0.09338 0.10776
# Poissons Ratio (z) = 0.56761 0.56761
#
# Static dielectric constant tensor:
#      x y z
#    x 2.016000 0.000000 0.000000 
#    y 0.000000 2.016000 0.000000 
#    z 0.000000 0.000000 2.062490 
# 
# From -- ./inp_files/2410.got.cif
#   From: 2010.05.17/outbox.cif.g08.bks.cpg/sg86_2_cif.got.tgz:2410.got - 2010.06.03 19:03:11.
