data_PCOD9544670
_publ_section_title
;
Structure prediction by ZEFSAII (Michael W. Deem and Ramdas Pophale) SiO2 
 PCOD9544670
Probable space group: P 4/N
;
_chemical_formula_sum "Si O2"
_cell_formula_units_Z 48
_cell_length_a 11.506954
_cell_length_b 11.506954
_cell_length_c 16.989489
_cell_angle_alpha 90.000000
_cell_angle_beta 90.000000
_cell_angle_gamma 90.000000
_cell_volume 2249.578075
_symmetry_space_group_name_H-M "P 4/N"
_symmetry_group_IT_number 85
_symmetry_cell_setting 'tetragonal'
loop_
_space_group_symop_operation_xyz
x,y,z
1/2-y,x,z
1/2-x,1/2-y,z
y,1/2-x,z
-x,-y,-z
1/2+y,-x,-z
1/2+x,1/2+y,-z
-y,1/2+x,-z
loop_
_atom_site_type_symbol
_atom_site_label
_atom_site_fract_x
_atom_site_fract_y
_atom_site_fract_z
Si Si1 0.123897 0.630641 0.813800
Si Si2 0.093244 0.141734 0.719065
Si Si3 0.610607 0.254920 0.350627
Si Si4 0.207219 0.904050 0.950846
Si Si5 0.318364 0.426374 0.062329
Si Si6 0.002935 0.485500 0.406826
O O1 0.095626 0.507162 0.774555
O O2 0.118495 0.723766 0.742864
O O3 0.243147 0.620260 0.864939
O O4 0.025705 0.649321 0.877634
O O5 0.221033 0.094644 0.731955
O O6 0.056490 0.103194 0.632120
O O7 0.750000 0.250000 0.376412
O O8 0.531392 0.148937 0.385803
O O9 0.545153 0.377272 0.371792
O O10 0.311919 0.883134 0.014312
O O11 0.163633 0.031137 0.972076
O O12 0.186932 0.391414 0.076565
O O13 0.000000 0.500000 0.500000
#
# Coordination Sequence:
#
# PCOD9544670 Si02
#       6
#     8   8   8   8   8   8
#     4  10  23  40  66  98 134 186 229 300 363 440
#     4  10  23  44  67 100 138 179 240 301 371 442
#     4  11  27  46  74 109 149 197 248 309 379 455
#     4   9  20  38  60  92 124 168 233 285 349 423
#     4  10  23  39  59  90 133 181 228 294 356 423
#     4  11  26  45  74 108 144 193 245 303 379 457
#
# _framework density 21.337334999999999
#
# number of rings (size 3 to 8) (size 9 to 14) (size 15 to 20)
#    0.000    1.833    0.000    2.000   14.000    5.667 
#    0.000    1.667    0.000    0.000    0.000    0.000 
#    0.000    0.000    0.000    0.000    0.000    0.000 
#
# Total GULP energy -267594.071552 kJ/mol
# GULP energy per Si atom -5574.876491 kJ/mol
# Density = 2.128877 g / cm^3
# Si number density = 21.337335 Si / 1000 Ang^3
#
#
#
# Elastic Constant Matrix: (Units=GPa)
#
#
# Indices 1 2 3 4 5 6 
#
# 1 65.2923 105.8233 52.2492 0.0000 0.0000 18.8892
# 2 105.8233 65.2923 52.2492 0.0000 0.0000 -18.8892
# 3 52.2492 52.2492 152.8943 0.0000 0.0000 0.0000
# 4 0.0000 0.0000 0.0000 22.2781 0.0000 0.0000
# 5 0.0000 0.0000 0.0000 0.0000 22.2781 0.0000
# 6 18.8892 -18.8892 0.0000 0.0000 0.0000 33.7025
#
#
#
# Elastic Compliance Matrix: (Units=1/GPa)
#
#
# Indices 1 2 3 4 5 6 
#
# 1 -0.004410 0.011796 -0.002524 0.000000 0.000000 0.009083
# 2 0.011796 -0.004410 -0.002524 0.000000 0.000000 -0.009083
# 3 -0.002524 -0.002524 0.008265 0.000000 0.000000 0.000000
# 4 0.000000 0.000000 0.000000 0.044887 0.000000 0.000000
# 5 0.000000 0.000000 0.000000 0.000000 0.044887 0.000000
# 6 0.009083 -0.009083 0.000000 0.000000 0.000000 0.019490
#
#
# Mechanical properties :
#
#
# Convention : Reuss Voigt Hill
#
# Bulk Modulus (GPa) = 77.27537 78.23582 77.75560
# Shear Modulus (GPa) = 50.23815 20.52886 35.38351
#
# Velocity S-wave (km/s) = 4.85755 3.10515 4.07663
# Velocity P-wave (km/s) = 8.23139 7.04285 7.66021
#
# Compressibility (1/GPa) = 0.01294073
#
# Stress axis : x y z
#
# Youngs Moduli (GPa) = -226.73251 -226.73251 120.98626
#
# Poissons Ratio (x) = 2.67448 0.30534
# Poissons Ratio (y) = 2.67448 0.30534
# Poissons Ratio (z) = -0.57223 -0.57223
#
# Static dielectric constant tensor:
#      x y z
#    x 1.842810 0.000000 0.000000 
#    y 0.000000 1.842810 0.000000 
#    z 0.000000 0.000000 1.774820 
# 
# From -- ./inp_files/2080.got.cif
#   From: 2010.05.17/outbox.cif.g08.bks.cpg/sg85_cif.got.tgz:2080.got - 2010.06.03 19:01:16.
