data_PCOD9544521
_publ_section_title
;
Structure prediction by ZEFSAII (Michael W. Deem and Ramdas Pophale) SiO2 
 PCOD9544521
Probable space group: P 4/N
;
_chemical_formula_sum "Si O2"
_cell_formula_units_Z 56
_cell_length_a 15.242637
_cell_length_b 15.242637
_cell_length_c 13.187719
_cell_angle_alpha 90.000000
_cell_angle_beta 90.000000
_cell_angle_gamma 90.000000
_cell_volume 3064.008029
_symmetry_space_group_name_H-M "P 4/N"
_symmetry_group_IT_number 85
_symmetry_cell_setting 'tetragonal'
loop_
_space_group_symop_operation_xyz
x,y,z
1/2-y,x,z
1/2-x,1/2-y,z
y,1/2-x,z
-x,-y,-z
1/2+y,-x,-z
1/2+x,1/2+y,-z
-y,1/2+x,-z
loop_
_atom_site_type_symbol
_atom_site_label
_atom_site_fract_x
_atom_site_fract_y
_atom_site_fract_z
Si Si1 0.580182 0.977742 0.251952
Si Si2 0.111972 0.898723 0.727122
Si Si3 0.171728 0.376212 0.929870
Si Si4 0.856803 0.967806 0.767351
Si Si5 0.730027 0.430703 0.594727
Si Si6 0.971906 0.829542 0.861466
Si Si7 0.916122 0.212391 0.629337
O O1 0.495948 0.924825 0.291969
O O2 0.632723 0.924245 0.167867
O O3 0.539337 0.068313 0.207706
O O4 0.645351 0.008160 0.339610
O O5 0.081009 0.825452 0.645985
O O6 0.216202 0.902413 0.717287
O O7 0.067112 0.868208 0.832430
O O8 0.133871 0.277334 0.931076
O O9 0.148103 0.432841 0.029347
O O10 0.905075 0.875296 0.781370
O O11 0.773800 0.973091 0.841103
O O12 0.820358 0.992889 0.656168
O O13 0.672527 0.343208 0.613377
O O14 0.739815 0.440519 0.475089
#
# Coordination Sequence:
#
# PCOD9544521 Si02
#       7
#     8   8   8   8   8   8   8
#     4  10  23  39  55  89 123 157 195 254 304 355
#     4  10  21  35  58  89 117 156 192 254 295 347
#     4  11  22  39  66  89 112 161 208 243 299 371
#     4   9  20  36  56  88 118 152 193 252 298 351
#     4  10  20  35  60  88 117 157 203 243 295 358
#     4  10  19  38  59  89 120 149 201 250 301 355
#     4  11  20  38  60  87 122 158 205 244 297 363
#
# _framework density 18.276714999999999
#
# number of rings (size 3 to 8) (size 9 to 14) (size 15 to 20)
#    0.000    1.857    2.857    1.286    0.000    3.143 
#    7.714    0.000    0.000    0.000    0.000    0.000 
#    0.000    0.000    0.000    0.000    0.000    0.000 
#
# Total GULP energy -312239.472025 kJ/mol
# GULP energy per Si atom -5575.704858 kJ/mol
# Density = 1.823512 g / cm^3
# Si number density = 18.276715 Si / 1000 Ang^3
#
#
#
# Elastic Constant Matrix: (Units=GPa)
#
#
# Indices 1 2 3 4 5 6 
#
# 1 75.2275 46.3258 49.2842 0.0000 0.0000 9.1259
# 2 46.3258 75.2275 49.2842 0.0000 0.0000 -9.1259
# 3 49.2842 49.2842 80.8462 0.0000 0.0000 0.0000
# 4 0.0000 0.0000 0.0000 24.6374 0.0000 0.0000
# 5 0.0000 0.0000 0.0000 0.0000 24.6374 0.0000
# 6 9.1259 -9.1259 0.0000 0.0000 0.0000 18.5047
#
#
#
# Elastic Compliance Matrix: (Units=1/GPa)
#
#
# Indices 1 2 3 4 5 6 
#
# 1 0.033260 -0.016990 -0.009918 0.000000 0.000000 -0.024782
# 2 -0.016990 0.033260 -0.009918 0.000000 0.000000 0.024782
# 3 -0.009918 -0.009918 0.024461 0.000000 0.000000 0.000000
# 4 0.000000 0.000000 0.000000 0.040589 0.000000 0.000000
# 5 0.000000 0.000000 0.000000 0.000000 0.040589 0.000000
# 6 -0.024782 0.024782 0.000000 0.000000 0.000000 0.078483
#
#
# Mechanical properties :
#
#
# Convention : Reuss Voigt Hill
#
# Bulk Modulus (GPa) = 57.70899 57.89885 57.80392
# Shear Modulus (GPa) = 15.14834 19.31637 17.23236
#
# Velocity S-wave (km/s) = 2.88207 3.25450 3.07393
# Velocity P-wave (km/s) = 6.53596 6.77275 6.65541
#
# Compressibility (1/GPa) = 0.01732832
#
# Stress axis : x y z
#
# Youngs Moduli (GPa) = 30.06645 30.06645 40.88122
#
# Poissons Ratio (x) = 0.51084 0.40545
# Poissons Ratio (y) = 0.51084 0.40545
# Poissons Ratio (z) = 0.29819 0.29819
#
# Static dielectric constant tensor:
#      x y z
#    x 1.641940 0.000000 0.000000 
#    y 0.000000 1.641940 0.000000 
#    z 0.000000 0.000000 1.612250 
# 
# From -- ./inp_files/2003.got.cif
#   From: 2010.05.17/outbox.cif.g08.bks.cpg/sg85_cif.got.tgz:2003.got - 2010.06.03 19:01:16.
