data_PCOD9544484
_publ_section_title
;
Structure prediction by ZEFSAII (Michael W. Deem and Ramdas Pophale) SiO2 
 PCOD9544484
Probable space group: P 4/N
;
_chemical_formula_sum "Si O2"
_cell_formula_units_Z 64
_cell_length_a 18.460017
_cell_length_b 18.460017
_cell_length_c 11.487123
_cell_angle_alpha 90.000000
_cell_angle_beta 90.000000
_cell_angle_gamma 90.000000
_cell_volume 3914.492494
_symmetry_space_group_name_H-M "P 4/N"
_symmetry_group_IT_number 85
_symmetry_cell_setting 'tetragonal'
loop_
_space_group_symop_operation_xyz
x,y,z
1/2-y,x,z
1/2-x,1/2-y,z
y,1/2-x,z
-x,-y,-z
1/2+y,-x,-z
1/2+x,1/2+y,-z
-y,1/2+x,-z
loop_
_atom_site_type_symbol
_atom_site_label
_atom_site_fract_x
_atom_site_fract_y
_atom_site_fract_z
Si Si1 0.463992 0.610390 0.295259
Si Si2 0.874567 0.574432 0.661124
Si Si3 0.690617 0.857037 0.890519
Si Si4 0.320988 0.433794 0.745401
Si Si5 0.727610 0.970962 0.464849
Si Si6 0.356641 0.525029 0.409314
Si Si7 0.562176 0.470593 0.345851
Si Si8 0.568105 0.670626 0.131330
O O1 0.483610 0.678136 0.376447
O O2 0.382687 0.583554 0.315228
O O3 0.512116 0.542483 0.340353
O O4 0.493703 0.630772 0.167923
O O5 0.832193 0.604131 0.771788
O O6 0.824443 0.575327 0.546875
O O7 0.905002 0.492429 0.679759
O O8 0.945592 0.622746 0.637735
O O9 0.655244 0.777086 0.896279
O O10 0.664728 0.904085 0.000674
O O11 0.284255 0.427677 0.617412
O O12 0.371282 0.505770 0.737423
O O13 0.371833 0.367457 0.784604
O O14 0.254537 0.438473 0.834027
O O15 0.774430 0.022045 0.549286
O O16 0.403698 0.538820 0.526527
#
# Coordination Sequence:
#
# PCOD9544484 Si02
#       8
#     8   8   8   8   8   8   8   8
#     4   9  16  30  49  75  92 127 169 215 246 294
#     4  11  19  33  51  72 101 141 166 202 254 310
#     4  11  23  37  49  68 108 150 169 194 250 315
#     4   9  19  29  52  78  93 129 173 214 246 299
#     4  10  18  28  51  76 101 128 164 205 258 313
#     4  10  17  30  50  74 105 130 160 206 267 304
#     4   9  16  31  51  73 101 127 167 213 261 287
#     4  10  18  34  52  68  99 135 176 207 248 294
#
# _framework density 16.349499999999999
#
# number of rings (size 3 to 8) (size 9 to 14) (size 15 to 20)
#    0.000    2.125    3.750    1.500    1.750    0.250 
#    0.000    5.625    0.000    0.375    0.000    0.000 
#    0.000    0.000    0.000    0.000    0.000    0.000 
#
# Total GULP energy -356384.783317 kJ/mol
# GULP energy per Si atom -5568.512239 kJ/mol
# Density = 1.631229 g / cm^3
# Si number density = 16.349500 Si / 1000 Ang^3
#
#
#
# Elastic Constant Matrix: (Units=GPa)
#
#
# Indices 1 2 3 4 5 6 
#
# 1 31.2840 8.8996 20.6274 0.0000 0.0000 -0.3251
# 2 8.8996 31.2840 20.6274 0.0000 0.0000 0.3251
# 3 20.6274 20.6274 72.6162 0.0000 0.0000 0.0000
# 4 0.0000 0.0000 0.0000 18.8448 0.0000 0.0000
# 5 0.0000 0.0000 0.0000 0.0000 18.8448 0.0000
# 6 -0.3251 0.3251 0.0000 0.0000 0.0000 10.7382
#
#
#
# Elastic Compliance Matrix: (Units=1/GPa)
#
#
# Indices 1 2 3 4 5 6 
#
# 1 0.039922 -0.004791 -0.009979 0.000000 0.000000 0.001354
# 2 -0.004791 0.039922 -0.009979 0.000000 0.000000 -0.001354
# 3 -0.009979 -0.009979 0.019441 0.000000 0.000000 0.000000
# 4 0.000000 0.000000 0.000000 0.053065 0.000000 0.000000
# 5 0.000000 0.000000 0.000000 0.000000 0.053065 0.000000
# 6 0.001354 -0.001354 0.000000 0.000000 0.000000 0.093207
#
#
# Mechanical properties :
#
#
# Convention : Reuss Voigt Hill
#
# Bulk Modulus (GPa) = 20.08620 26.16589 23.12605
# Shear Modulus (GPa) = 13.70924 15.35421 14.53173
#
# Velocity S-wave (km/s) = 2.89885 3.06784 2.98454
# Velocity P-wave (km/s) = 4.84939 5.34674 5.10413
#
# Compressibility (1/GPa) = 0.04978542
#
# Stress axis : x y z
#
# Youngs Moduli (GPa) = 25.04868 25.04868 51.43880
#
# Poissons Ratio (x) = 0.12001 0.51333
# Poissons Ratio (y) = 0.12001 0.51333
# Poissons Ratio (z) = 0.24997 0.24997
#
# Static dielectric constant tensor:
#      x y z
#    x 1.574120 0.000000 0.000000 
#    y 0.000000 1.574120 0.000000 
#    z 0.000000 0.000000 1.560590 
# 
# From -- ./inp_files/1866.got.cif
#   From: 2010.05.17/outbox.cif.g08.bks.cpg/sg85_cif.got.tgz:1866.got - 2010.06.03 19:01:16.
