data_PCOD9544803
_publ_section_title
;
Structure prediction by ZEFSAII (Michael W. Deem and Ramdas Pophale) SiO2 
 PCOD9544803
Probable space group: P 4/N
;
_chemical_formula_sum "Si O2"
_cell_formula_units_Z 26
_cell_length_a 11.587075
_cell_length_b 11.587075
_cell_length_c 6.988181
_cell_angle_alpha 90.000000
_cell_angle_beta 90.000000
_cell_angle_gamma 90.000000
_cell_volume 938.235327
_symmetry_space_group_name_H-M "P 4/N"
_symmetry_group_IT_number 85
_symmetry_cell_setting 'tetragonal'
loop_
_space_group_symop_operation_xyz
x,y,z
1/2-y,x,z
1/2-x,1/2-y,z
y,1/2-x,z
-x,-y,-z
1/2+y,-x,-z
1/2+x,1/2+y,-z
-y,1/2+x,-z
loop_
_atom_site_type_symbol
_atom_site_label
_atom_site_fract_x
_atom_site_fract_y
_atom_site_fract_z
Si Si1 0.445315 0.698998 0.752723
Si Si2 0.105497 0.130902 0.960974
Si Si3 0.750000 0.250000 0.000000
Si Si4 0.131108 0.011723 0.568273
O O1 0.348974 0.615772 0.654190
O O2 0.520188 0.771592 0.597506
O O3 0.509020 0.599757 0.883949
O O4 0.363543 0.780963 0.878997
O O5 0.233498 0.093985 0.013311
O O6 0.114669 0.107486 0.734801
O O7 0.000000 0.000000 0.500000
#
# Coordination Sequence:
#
# PCOD9544803 Si02
#       4
#     8   8   2   8
#     4  12  24  43  68 101 140 187 237 299 359 427
#     4  11  24  43  66  95 134 181 233 292 357 423
#     4  12  24  42  68 100 140 186 240 296 364 430
#     4  12  24  42  67  99 137 182 238 295 358 429
#
# _framework density 27.711599
#
# number of rings (size 3 to 8) (size 9 to 14) (size 15 to 20)
#    0.000    0.308    0.000   10.154    0.000    0.000 
#    0.000    3.077    0.000    0.000    0.000    0.000 
#    0.000    0.000    0.000    0.000    0.000    0.000 
#
# Total GULP energy -144891.218670 kJ/mol
# GULP energy per Si atom -5572.739180 kJ/mol
# Density = 2.764853 g / cm^3
# Si number density = 27.711599 Si / 1000 Ang^3
#
#
#
# Elastic Constant Matrix: (Units=GPa)
#
#
# Indices 1 2 3 4 5 6 
#
# 1 92.8089 1.8779 67.7187 0.0000 0.0000 -1.3487
# 2 1.8779 92.8089 67.7187 0.0000 0.0000 1.3487
# 3 67.7187 67.7187 213.2457 0.0000 0.0000 0.0000
# 4 0.0000 0.0000 0.0000 64.5627 0.0000 0.0000
# 5 0.0000 0.0000 0.0000 0.0000 64.5627 0.0000
# 6 -1.3487 1.3487 0.0000 0.0000 0.0000 20.0481
#
#
#
# Elastic Compliance Matrix: (Units=1/GPa)
#
#
# Indices 1 2 3 4 5 6 
#
# 1 0.015185 0.004166 -0.006145 0.000000 0.000000 0.000741
# 2 0.004166 0.015185 -0.006145 0.000000 0.000000 -0.000741
# 3 -0.006145 -0.006145 0.008592 0.000000 0.000000 0.000000
# 4 0.000000 0.000000 0.000000 0.015489 0.000000 0.000000
# 5 0.000000 0.000000 0.000000 0.000000 0.015489 0.000000
# 6 0.000741 -0.000741 0.000000 0.000000 0.000000 0.049980
#
#
# Mechanical properties :
#
#
# Convention : Reuss Voigt Hill
#
# Bulk Modulus (GPa) = 44.02618 74.83269 59.42944
# Shear Modulus (GPa) = 34.78496 47.27122 41.02809
#
# Velocity S-wave (km/s) = 3.54679 4.13465 3.85195
# Velocity P-wave (km/s) = 5.71793 7.06091 6.42461
#
# Compressibility (1/GPa) = 0.02271376
#
# Stress axis : x y z
#
# Youngs Moduli (GPa) = 65.85376 65.85376 116.38259
#
# Poissons Ratio (x) = -0.27433 0.71519
# Poissons Ratio (y) = -0.27433 0.71519
# Poissons Ratio (z) = 0.40468 0.40468
#
# Static dielectric constant tensor:
#      x y z
#    x 2.679970 0.000000 0.000000 
#    y 0.000000 2.679970 0.000000 
#    z 0.000000 0.000000 2.670130 
# 
# From -- ./inp_files/207.got.cif
#   From: 2010.05.17/outbox.cif.g08.bks.cpg/sg85_cif.got.tgz:207.got - 2010.06.03 19:01:16.
