data_PCOD9544828
_publ_section_title
;
Structure prediction by ZEFSAII (Michael W. Deem and Ramdas Pophale) SiO2 
 PCOD9544828
Probable space group: P 4/N
;
_chemical_formula_sum "Si O2"
_cell_formula_units_Z 32
_cell_length_a 16.324482
_cell_length_b 16.324482
_cell_length_c 5.003395
_cell_angle_alpha 90.000000
_cell_angle_beta 90.000000
_cell_angle_gamma 90.000000
_cell_volume 1333.348292
_symmetry_space_group_name_H-M "P 4/N"
_symmetry_group_IT_number 85
_symmetry_cell_setting 'tetragonal'
loop_
_space_group_symop_operation_xyz
x,y,z
1/2-y,x,z
1/2-x,1/2-y,z
y,1/2-x,z
-x,-y,-z
1/2+y,-x,-z
1/2+x,1/2+y,-z
-y,1/2+x,-z
loop_
_atom_site_type_symbol
_atom_site_label
_atom_site_fract_x
_atom_site_fract_y
_atom_site_fract_z
Si Si1 0.349628 0.800652 0.141582
Si Si2 0.181448 0.017812 0.124173
Si Si3 0.630905 0.965722 0.951446
Si Si4 0.399289 0.923229 0.526307
O O1 0.444207 0.812579 0.086561
O O2 0.332148 0.862368 0.382733
O O3 0.330985 0.705025 0.109942
O O4 0.276105 0.042232 0.158115
O O5 0.122714 0.089678 0.025411
O O6 0.135054 0.972199 0.368035
O O7 0.625826 0.017012 0.227973
O O8 0.581863 0.017068 0.724807
#
# Coordination Sequence:
#
# PCOD9544828 Si02
#       4
#     8   8   8   8
#     4  11  25  46  76 113 152 199 246 320 382 462
#     4  12  27  49  76 112 153 201 259 314 380 461
#     4  12  30  47  81 109 151 206 253 319 384 454
#     4  12  26  49  74 110 147 201 249 310 388 456
#
# _framework density 23.99973
#
# number of rings (size 3 to 8) (size 9 to 14) (size 15 to 20)
#    0.000    0.250    5.000    1.500   10.500    0.500 
#    0.000    5.000    0.000    3.000    0.000    0.000 
#    0.000    0.000    0.000    0.000    0.000    0.000 
#
# Total GULP energy -178707.099763 kJ/mol
# GULP energy per Si atom -5584.596868 kJ/mol
# Density = 2.394511 g / cm^3
# Si number density = 23.999730 Si / 1000 Ang^3
#
#
#
# Elastic Constant Matrix: (Units=GPa)
#
#
# Indices 1 2 3 4 5 6 
#
# 1 127.6246 79.5320 10.3393 0.0000 0.0000 -1.3042
# 2 79.5320 127.6246 10.3393 0.0000 0.0000 1.3042
# 3 10.3393 10.3393 124.2326 0.0000 0.0000 0.0000
# 4 0.0000 0.0000 0.0000 15.5894 0.0000 0.0000
# 5 0.0000 0.0000 0.0000 0.0000 15.5894 0.0000
# 6 -1.3042 1.3042 0.0000 0.0000 0.0000 61.8536
#
#
#
# Elastic Compliance Matrix: (Units=1/GPa)
#
#
# Indices 1 2 3 4 5 6 
#
# 1 0.012842 -0.007975 -0.000405 0.000000 0.000000 0.000439
# 2 -0.007975 0.012842 -0.000405 0.000000 0.000000 -0.000439
# 3 -0.000405 -0.000405 0.008117 0.000000 0.000000 0.000000
# 4 0.000000 0.000000 0.000000 0.064146 0.000000 0.000000
# 5 0.000000 0.000000 0.000000 0.000000 0.064146 0.000000
# 6 0.000439 -0.000439 0.000000 0.000000 0.000000 0.016186
#
#
# Mechanical properties :
#
#
# Convention : Reuss Voigt Hill
#
# Bulk Modulus (GPa) = 61.60747 64.43364 63.02056
# Shear Modulus (GPa) = 24.84353 37.22459 31.03406
#
# Velocity S-wave (km/s) = 3.22088 3.94260 3.59987
# Velocity P-wave (km/s) = 6.28951 6.90155 6.60262
#
# Compressibility (1/GPa) = 0.01623180
#
# Stress axis : x y z
#
# Youngs Moduli (GPa) = 77.86730 77.86730 123.20053
#
# Poissons Ratio (x) = 0.62096 0.04991
# Poissons Ratio (y) = 0.62096 0.04991
# Poissons Ratio (z) = 0.03155 0.03155
#
# Static dielectric constant tensor:
#      x y z
#    x 2.018220 0.000000 0.000000 
#    y 0.000000 2.018220 0.000000 
#    z 0.000000 0.000000 1.997970 
# 
# From -- ./inp_files/292.got.cif
#   From: 2010.05.17/outbox.cif.g08.bks.cpg/sg85_cif.got.tgz:292.got - 2010.06.03 19:01:16.
