data_PCOD9544773
_publ_section_title
;
Structure prediction by ZEFSAII (Michael W. Deem and Ramdas Pophale) SiO2 
 PCOD9544773
Probable space group: P 4/N
;
_chemical_formula_sum "Si O2"
_cell_formula_units_Z 38
_cell_length_a 8.058438
_cell_length_b 8.058438
_cell_length_c 26.587735
_cell_angle_alpha 90.000000
_cell_angle_beta 90.000000
_cell_angle_gamma 90.000000
_cell_volume 1726.565582
_symmetry_space_group_name_H-M "P 4/N"
_symmetry_group_IT_number 85
_symmetry_cell_setting 'tetragonal'
loop_
_space_group_symop_operation_xyz
x,y,z
1/2-y,x,z
1/2-x,1/2-y,z
y,1/2-x,z
-x,-y,-z
1/2+y,-x,-z
1/2+x,1/2+y,-z
-y,1/2+x,-z
loop_
_atom_site_type_symbol
_atom_site_label
_atom_site_fract_x
_atom_site_fract_y
_atom_site_fract_z
Si Si1 0.031501 0.079117 0.945401
Si Si2 0.250000 0.750000 0.773946
Si Si3 0.346578 0.512533 0.580009
Si Si4 0.654366 0.486572 0.306493
Si Si5 0.750000 0.250000 0.500000
Si Si6 0.998661 0.642507 0.845322
O O1 0.222654 0.027850 0.938191
O O2 0.898604 0.022887 0.904004
O O3 0.000000 0.000000 0.000000
O O4 0.370393 0.650847 0.735849
O O5 0.342503 0.882595 0.810213
O O6 0.154306 0.454108 0.575439
O O7 0.371174 0.577886 0.636724
O O8 0.370381 0.647263 0.536896
O O9 0.846470 0.546305 0.301579
O O10 0.959572 0.834010 0.834455
#
# Coordination Sequence:
#
# PCOD9544773 Si02
#       6
#     8   4   8   8   2   8
#     4  11  24  42  65  92 121 156 196 235 278 333
#     4  12  21  36  60  88 114 148 195 250 294 348
#     4   9  19  34  50  74 109 146 190 243 300 363
#     4   9  19  36  56  78 109 152 196 240 298 365
#     4  12  18  28  52  80 104 144 194 248 304 358
#     4  11  24  40  58  85 120 154 188 233 292 350
#
# _framework density 22.009011000000001
#
# number of rings (size 3 to 8) (size 9 to 14) (size 15 to 20)
#    0.000    1.684    0.000    6.316    0.000    3.789 
#    0.000    2.105    0.000    0.000    0.000   17.684 
#    0.000    0.000    0.000    0.000    0.000    0.000 
#
# Total GULP energy -212066.812773 kJ/mol
# GULP energy per Si atom -5580.705599 kJ/mol
# Density = 2.195892 g / cm^3
# Si number density = 22.009011 Si / 1000 Ang^3
#
#
#
# Elastic Constant Matrix: (Units=GPa)
#
#
# Indices 1 2 3 4 5 6 
#
# 1 47.8335 5.1611 32.1536 0.0000 0.0000 8.0738
# 2 5.1611 47.8335 32.1536 0.0000 0.0000 -8.0738
# 3 32.1536 32.1536 179.6216 0.0000 0.0000 0.0000
# 4 0.0000 0.0000 0.0000 31.5737 0.0000 0.0000
# 5 0.0000 0.0000 0.0000 0.0000 31.5737 0.0000
# 6 8.0738 -8.0738 0.0000 0.0000 0.0000 3.3368
#
#
#
# Elastic Compliance Matrix: (Units=1/GPa)
#
#
# Indices 1 2 3 4 5 6 
#
# 1 0.150867 -0.126761 -0.004315 0.000000 0.000000 -0.671747
# 2 -0.126761 0.150867 -0.004315 0.000000 0.000000 0.671747
# 3 -0.004315 -0.004315 0.007112 0.000000 0.000000 0.000000
# 4 0.000000 0.000000 0.000000 0.031672 0.000000 0.000000
# 5 0.000000 0.000000 0.000000 0.000000 0.031672 0.000000
# 6 -0.671747 0.671747 0.000000 0.000000 0.000000 3.550386
#
#
# Mechanical properties :
#
#
# Convention : Reuss Voigt Hill
#
# Bulk Modulus (GPa) = 26.27166 46.02500 36.14833
# Shear Modulus (GPa) = 1.18876 27.01821 14.10348
#
# Velocity S-wave (km/s) = 0.73573 3.50751 2.53416
# Velocity P-wave (km/s) = 3.56152 6.11235 5.00226
#
# Compressibility (1/GPa) = 0.03806383
#
# Stress axis : x y z
#
# Youngs Moduli (GPa) = 6.62833 6.62833 140.60425
#
# Poissons Ratio (x) = 0.84022 0.60673
# Poissons Ratio (y) = 0.84022 0.60673
# Poissons Ratio (z) = 0.02860 0.02860
#
# Static dielectric constant tensor:
#      x y z
#    x 1.911200 0.000000 0.000000 
#    y 0.000000 1.911200 0.000000 
#    z 0.000000 0.000000 1.816910 
# 
# From -- ./inp_files/2323.got.cif
#   From: 2010.05.17/outbox.cif.g08.bks.cpg/sg85_cif.got.tgz:2323.got - 2010.06.03 19:01:16.
