data_PCOD9544046
_publ_section_title
;
Structure prediction by ZEFSAII (Michael W. Deem and Ramdas Pophale) SiO2 
 PCOD9544046
Probable space group: P 42/M
;
_chemical_formula_sum "Si O2"
_cell_formula_units_Z 56
_cell_length_a 14.983365
_cell_length_b 14.983365
_cell_length_c 13.875281
_cell_angle_alpha 90.000000
_cell_angle_beta 90.000000
_cell_angle_gamma 90.000000
_cell_volume 3115.017606
_symmetry_space_group_name_H-M "P 42/M"
_symmetry_group_IT_number 84
_symmetry_cell_setting 'tetragonal'
loop_
_space_group_symop_operation_xyz
x,y,z
-y,x,1/2+z
-x,-y,z
y,-x,1/2+z
-x,-y,-z
y,-x,1/2-z
x,y,-z
-y,x,1/2-z
loop_
_atom_site_type_symbol
_atom_site_label
_atom_site_fract_x
_atom_site_fract_y
_atom_site_fract_z
Si Si1 0.115237 0.276116 0.722391
Si Si2 0.586269 0.618649 0.736585
Si Si3 0.055525 0.112759 0.613952
Si Si4 0.376037 0.742459 0.892165
Si Si5 0.231013 0.588115 0.608481
Si Si6 0.921199 0.860827 0.115245
Si Si7 0.605148 0.975806 0.887540
O O1 0.114100 0.192339 0.650917
O O2 0.202744 0.330721 0.693997
O O3 0.104650 0.227187 0.825286
O O4 0.033875 0.339090 0.688042
O O5 0.615308 0.520602 0.774173
O O6 0.639120 0.631290 0.637117
O O7 0.611738 0.695863 0.811990
O O8 0.052191 0.106754 0.500000
O O9 0.951886 0.132078 0.641123
O O10 0.102002 0.019863 0.643040
O O11 0.480026 0.769428 0.893677
O O12 0.340663 0.760756 0.000000
O O13 0.255113 0.618489 0.500000
O O14 0.129823 0.618059 0.628482
O O15 0.916553 0.845926 0.000000
O O16 0.500000 0.000000 0.879651
O O17 0.630781 0.995925 0.000000
#
# Coordination Sequence:
#
# PCOD9544046 Si02
#       7
#     8   8   8   8   8   8   8
#     4  12  20  30  54  81 105 138 178 221 263 315
#     4   9  19  35  54  78 107 139 175 215 264 321
#     4   9  18  34  53  75 105 140 176 216 268 314
#     4  10  20  34  52  77 106 137 172 218 267 316
#     4   9  18  34  55  77 103 134 172 216 267 317
#     4   9  20  36  51  72 109 146 174 214 263 317
#     4  10  19  33  52  77 104 132 170 217 267 313
#
# _framework density 17.977426999999999
#
# number of rings (size 3 to 8) (size 9 to 14) (size 15 to 20)
#    0.000    2.286    1.429    3.000    0.000    4.000 
#    0.000    5.000    0.000    1.286    0.000    0.000 
#    0.000    0.000    0.000    0.000    0.000    0.000 
#
# Total GULP energy -311916.738849 kJ/mol
# GULP energy per Si atom -5569.941765 kJ/mol
# Density = 1.793651 g / cm^3
# Si number density = 17.977427 Si / 1000 Ang^3
#
#
#
# Elastic Constant Matrix: (Units=GPa)
#
#
# Indices 1 2 3 4 5 6 
#
# 1 46.5291 8.3052 29.0247 0.0000 0.0000 -4.6889
# 2 8.3052 46.5291 29.0247 0.0000 0.0000 4.6889
# 3 29.0247 29.0247 97.3371 0.0000 0.0000 0.0000
# 4 0.0000 0.0000 0.0000 35.6801 0.0000 0.0000
# 5 0.0000 0.0000 0.0000 0.0000 35.6801 0.0000
# 6 -4.6889 4.6889 0.0000 0.0000 0.0000 17.0040
#
#
#
# Elastic Compliance Matrix: (Units=1/GPa)
#
#
# Indices 1 2 3 4 5 6 
#
# 1 0.027355 -0.000705 -0.007946 0.000000 0.000000 0.007738
# 2 -0.000705 0.027355 -0.007946 0.000000 0.000000 -0.007738
# 3 -0.007946 -0.007946 0.015013 0.000000 0.000000 0.000000
# 4 0.000000 0.000000 0.000000 0.028027 0.000000 0.000000
# 5 0.000000 0.000000 0.000000 0.000000 0.028027 0.000000
# 6 0.007738 -0.007738 0.000000 0.000000 0.000000 0.063077
#
#
# Mechanical properties :
#
#
# Convention : Reuss Voigt Hill
#
# Bulk Modulus (GPa) = 27.37838 35.90049 31.63943
# Shear Modulus (GPa) = 21.34711 25.94224 23.64467
#
# Velocity S-wave (km/s) = 3.44966 3.80286 3.63056
# Velocity P-wave (km/s) = 5.57936 6.26861 5.93400
#
# Compressibility (1/GPa) = 0.03652518
#
# Stress axis : x y z
#
# Youngs Moduli (GPa) = 36.55698 36.55698 66.61058
#
# Poissons Ratio (x) = 0.02579 0.52932
# Poissons Ratio (y) = 0.02579 0.52932
# Poissons Ratio (z) = 0.29050 0.29050
#
# Static dielectric constant tensor:
#      x y z
#    x 1.571990 0.000000 0.000000 
#    y 0.000000 1.571990 0.000000 
#    z 0.000000 0.000000 1.632380 
# 
# From -- ./inp_files/3102.got.cif
#   From: 2010.05.17/outbox.cif.g08.bks.cpg/sg84_2_cif.got.tgz:3102.got - 2010.06.03 18:57:40.
