data_PCOD9544907
_publ_section_title
;
Structure prediction by ZEFSAII (Michael W. Deem and Ramdas Pophale) SiO2 
 PCOD9544907
Probable space group: P 42/N
;
_chemical_formula_sum "Si O2"
_cell_formula_units_Z 32
_cell_length_a 7.118489
_cell_length_b 7.118489
_cell_length_c 22.336916
_cell_angle_alpha 90.000000
_cell_angle_beta 90.000000
_cell_angle_gamma 90.000000
_cell_volume 1131.875990
_symmetry_space_group_name_H-M "P 42/N"
_symmetry_group_IT_number 86
_space_group.IT_coordinate_system_code '2'
_symmetry_cell_setting 'tetragonal'
loop_
_space_group_symop_operation_xyz
x,y,z
-y,1/2+x,1/2+z
1/2-x,1/2-y,z
1/2+y,-x,1/2+z
-x,-y,-z
y,1/2-x,1/2-z
1/2+x,1/2+y,-z
1/2-y,x,1/2-z
loop_
_atom_site_type_symbol
_atom_site_label
_atom_site_fract_x
_atom_site_fract_y
_atom_site_fract_z
Si Si1 0.234839 0.478592 0.384348
Si Si2 0.515260 0.420809 0.237989
Si Si3 0.328821 0.539410 0.643131
Si Si4 0.036011 0.280734 0.989659
O O1 0.250000 0.250000 0.378104
O O2 0.093721 0.553683 0.333087
O O3 0.454491 0.518127 0.371587
O O4 0.182171 0.549893 0.451045
O O5 0.495969 0.197167 0.253643
O O6 0.661559 0.508904 0.285559
O O7 0.250000 0.750000 0.646229
O O8 0.231907 0.491194 0.579435
O O9 0.250000 0.250000 0.001339
O O10 0.000000 0.500000 0.000000
#
# Coordination Sequence:
#
# PCOD9544907 Si02
#       4
#     8   8   8   8
#     4   9  15  32  58  79 102 151 208 244 291 379
#     4   9  14  28  57  78  98 144 205 250 290 361
#     4  10  19  31  53  84 118 147 186 261 328 363
#     4   9  19  35  58  84 121 167 205 251 329 409
#
# _framework density 28.271643999999998
#
# number of rings (size 3 to 8) (size 9 to 14) (size 15 to 20)
#    0.000    2.750    5.000    0.000    0.000    0.000 
#    0.000   12.500   33.000    0.000    0.000    0.000 
#    0.000    0.000    0.000    0.000    0.000    0.000 
#
# Total GULP energy -178174.271984 kJ/mol
# GULP energy per Si atom -5567.945999 kJ/mol
# Density = 2.820730 g / cm^3
# Si number density = 28.271644 Si / 1000 Ang^3
#
#
#
# Elastic Constant Matrix: (Units=GPa)
#
#
# Indices 1 2 3 4 5 6 
#
# 1 77.8361 8.0416 45.6752 0.0000 0.0000 1.3629
# 2 8.0416 77.8361 45.6752 0.0000 0.0000 -1.3629
# 3 45.6752 45.6752 367.0331 0.0000 0.0000 0.0000
# 4 0.0000 0.0000 0.0000 39.6030 0.0000 0.0000
# 5 0.0000 0.0000 0.0000 0.0000 39.6030 0.0000
# 6 1.3629 -1.3629 0.0000 0.0000 0.0000 24.5200
#
#
#
# Elastic Compliance Matrix: (Units=1/GPa)
#
#
# Indices 1 2 3 4 5 6 
#
# 1 0.013890 -0.000469 -0.001670 0.000000 0.000000 -0.000798
# 2 -0.000469 0.013890 -0.001670 0.000000 0.000000 0.000798
# 3 -0.001670 -0.001670 0.003140 0.000000 0.000000 0.000000
# 4 0.000000 0.000000 0.000000 0.025251 0.000000 0.000000
# 5 0.000000 0.000000 0.000000 0.000000 0.025251 0.000000
# 6 -0.000798 0.000798 0.000000 0.000000 0.000000 0.040872
#
#
# Mechanical properties :
#
#
# Convention : Reuss Voigt Hill
#
# Bulk Modulus (GPa) = 42.91535 80.16546 61.54040
# Shear Modulus (GPa) = 36.31633 48.96607 42.64120
#
# Velocity S-wave (km/s) = 3.58795 4.16623 3.88786
# Velocity P-wave (km/s) = 5.69009 7.18055 6.47832
#
# Compressibility (1/GPa) = 0.02330169
#
# Stress axis : x y z
#
# Youngs Moduli (GPa) = 71.99418 71.99418 318.44728
#
# Poissons Ratio (x) = 0.03376 0.53186
# Poissons Ratio (y) = 0.03376 0.53186
# Poissons Ratio (z) = 0.12024 0.12024
#
# Static dielectric constant tensor:
#      x y z
#    x 2.309920 0.000000 0.000000 
#    y 0.000000 2.309920 0.000000 
#    z 0.000000 0.000000 2.461530 
# 
# From -- ./inp_files/3859.got.cif
#   From: 2010.05.17/outbox.cif.g08.bks.cpg/sg86_2_cif.got.tgz:3859.got - 2010.06.03 19:03:11.
