data_PCOD9544372
_publ_section_title
;
Structure prediction by ZEFSAII (Michael W. Deem and Ramdas Pophale) SiO2 
 PCOD9544372
Probable space group: P 42/M
;
_chemical_formula_sum "Si O2"
_cell_formula_units_Z 48
_cell_length_a 8.480832
_cell_length_b 8.480832
_cell_length_c 29.356568
_cell_angle_alpha 90.000000
_cell_angle_beta 90.000000
_cell_angle_gamma 90.000000
_cell_volume 2111.456810
_symmetry_space_group_name_H-M "P 42/M"
_symmetry_group_IT_number 84
_symmetry_cell_setting 'tetragonal'
loop_
_space_group_symop_operation_xyz
x,y,z
-y,x,1/2+z
-x,-y,z
y,-x,1/2+z
-x,-y,-z
y,-x,1/2-z
x,y,-z
-y,x,1/2-z
loop_
_atom_site_type_symbol
_atom_site_label
_atom_site_fract_x
_atom_site_fract_y
_atom_site_fract_z
Si Si1 0.454450 0.832009 0.862818
Si Si2 0.081504 0.252676 0.050474
Si Si3 0.681039 0.213015 0.643150
Si Si4 0.149940 0.807905 0.731111
Si Si5 0.253283 0.914747 0.950063
Si Si6 0.585905 0.672690 0.296233
O O1 0.608554 0.725837 0.870749
O O2 0.368199 0.871828 0.909618
O O3 0.346911 0.734492 0.829051
O O4 0.500000 0.000000 0.841545
O O5 0.120160 0.344059 0.096630
O O6 0.901541 0.194607 0.051948
O O7 0.187350 0.093042 0.053533
O O8 0.110743 0.324010 0.000000
O O9 0.823424 0.165607 0.677158
O O10 0.533789 0.214337 0.677228
O O11 0.249091 0.657900 0.750469
O O12 0.968086 0.791178 0.744672
O O13 0.326944 0.895455 0.000000
O O14 0.500000 0.500000 0.294049
#
# Coordination Sequence:
#
# PCOD9544372 Si02
#       6
#     8   8   8   8   8   8
#     4  11  21  38  65  93 128 173 225 272 328 407
#     4   9  19  38  63  98 136 173 223 284 342 400
#     4  11  24  41  66  97 134 186 212 276 350 401
#     4  11  27  47  72 104 133 178 236 294 338 411
#     4   9  19  35  63  97 132 170 223 291 335 387
#     4  10  26  45  65  98 144 178 222 274 345 417
#
# _framework density 22.733118000000001
#
# number of rings (size 3 to 8) (size 9 to 14) (size 15 to 20)
#    0.000    1.833    1.667    2.000    7.000    3.000 
#    0.000    0.833    0.000    5.000    0.000    0.000 
#    0.000    0.000    0.000    0.000    0.000    0.000 
#
# Total GULP energy -268332.044044 kJ/mol
# GULP energy per Si atom -5590.250918 kJ/mol
# Density = 2.268138 g / cm^3
# Si number density = 22.733118 Si / 1000 Ang^3
#
#
#
# Elastic Constant Matrix: (Units=GPa)
#
#
# Indices 1 2 3 4 5 6 
#
# 1 68.9834 12.7104 35.2168 0.0000 0.0000 -4.8571
# 2 12.7104 68.9834 35.2168 0.0000 0.0000 4.8571
# 3 35.2168 35.2168 156.4694 0.0000 0.0000 0.0000
# 4 0.0000 0.0000 0.0000 26.1984 0.0000 0.0000
# 5 0.0000 0.0000 0.0000 0.0000 26.1984 0.0000
# 6 -4.8571 4.8571 0.0000 0.0000 0.0000 29.0484
#
#
#
# Elastic Compliance Matrix: (Units=1/GPa)
#
#
# Indices 1 2 3 4 5 6 
#
# 1 0.016743 -0.001555 -0.003418 0.000000 0.000000 0.003060
# 2 -0.001555 0.016743 -0.003418 0.000000 0.000000 -0.003060
# 3 -0.003418 -0.003418 0.007930 0.000000 0.000000 0.000000
# 4 0.000000 0.000000 0.000000 0.038170 0.000000 0.000000
# 5 0.000000 0.000000 0.000000 0.000000 0.038170 0.000000
# 6 0.003060 -0.003060 0.000000 0.000000 0.000000 0.035448
#
#
# Mechanical properties :
#
#
# Convention : Reuss Voigt Hill
#
# Bulk Modulus (GPa) = 40.59708 51.19160 45.89434
# Shear Modulus (GPa) = 28.05828 30.37520 29.21674
#
# Velocity S-wave (km/s) = 3.51700 3.65932 3.58887
# Velocity P-wave (km/s) = 5.86423 6.35780 6.11600
#
# Compressibility (1/GPa) = 0.02463231
#
# Stress axis : x y z
#
# Youngs Moduli (GPa) = 59.72516 59.72516 126.10657
#
# Poissons Ratio (x) = 0.09289 0.43108
# Poissons Ratio (y) = 0.09289 0.43108
# Poissons Ratio (z) = 0.20416 0.20416
#
# Static dielectric constant tensor:
#      x y z
#    x 1.873020 0.000000 0.000000 
#    y 0.000000 1.873020 0.000000 
#    z 0.000000 0.000000 1.858130 
# 
# From -- ./inp_files/5799.got.cif
#   From: 2010.05.17/outbox.cif.g08.bks.cpg/sg84_3_cif.got.tgz:5799.got - 2010.06.03 18:57:40.
