data_PCOD9544546
_publ_section_title
;
Structure prediction by ZEFSAII (Michael W. Deem and Ramdas Pophale) SiO2 
 PCOD9544546
Probable space group: P 4/N
;
_chemical_formula_sum "Si O2"
_cell_formula_units_Z 48
_cell_length_a 12.046157
_cell_length_b 12.046157
_cell_length_c 15.177439
_cell_angle_alpha 90.000000
_cell_angle_beta 90.000000
_cell_angle_gamma 90.000000
_cell_volume 2202.396632
_symmetry_space_group_name_H-M "P 4/N"
_symmetry_group_IT_number 85
_symmetry_cell_setting 'tetragonal'
loop_
_space_group_symop_operation_xyz
x,y,z
1/2-y,x,z
1/2-x,1/2-y,z
y,1/2-x,z
-x,-y,-z
1/2+y,-x,-z
1/2+x,1/2+y,-z
-y,1/2+x,-z
loop_
_atom_site_type_symbol
_atom_site_label
_atom_site_fract_x
_atom_site_fract_y
_atom_site_fract_z
Si Si1 0.194171 0.871167 0.294090
Si Si2 0.687708 0.088324 0.469668
Si Si3 0.321514 0.862961 0.891279
Si Si4 0.890920 0.866796 0.918017
Si Si5 0.885744 0.024102 0.065500
Si Si6 0.928762 0.792317 0.620783
O O1 0.250000 0.750000 0.292916
O O2 0.104316 0.863948 0.373340
O O3 0.143455 0.889947 0.198493
O O4 0.285965 0.963069 0.318092
O O5 0.625769 0.183569 0.527165
O O6 0.684054 0.973984 0.522178
O O7 0.250000 0.750000 0.897705
O O8 0.226959 0.956288 0.883063
O O9 0.397614 0.871415 0.977591
O O10 0.763664 0.899343 0.895661
O O11 0.894582 0.902559 0.022328
O O12 0.003605 0.929432 0.887573
O O13 0.829813 0.877079 0.635848
#
# Coordination Sequence:
#
# PCOD9544546 Si02
#       6
#     8   8   8   8   8   8
#     4  10  20  36  59  90 126 156 210 261 310 368
#     4   9  15  33  59  88 115 150 200 245 296 371
#     4  11  19  34  59  87 116 152 209 267 303 354
#     4  10  20  34  59  84 114 149 203 257 310 369
#     4  11  19  36  59  85 113 156 215 252 304 374
#     4  10  21  38  64  93 127 166 203 252 321 390
#
# _framework density 21.794438
#
# number of rings (size 3 to 8) (size 9 to 14) (size 15 to 20)
#    0.000    1.833    6.667    0.000    0.000    2.667 
#    0.000    8.333    0.000    6.000    4.333    0.000 
#    0.000    0.000    0.000    0.000    0.000    0.000 
#
# Total GULP energy -267528.028627 kJ/mol
# GULP energy per Si atom -5573.500596 kJ/mol
# Density = 2.174483 g / cm^3
# Si number density = 21.794438 Si / 1000 Ang^3
#
#
#
# Elastic Constant Matrix: (Units=GPa)
#
#
# Indices 1 2 3 4 5 6 
#
# 1 79.2740 1.3458 11.2471 0.0000 0.0000 -7.9547
# 2 1.3458 79.2740 11.2471 0.0000 0.0000 7.9547
# 3 11.2471 11.2471 88.1197 0.0000 0.0000 0.0000
# 4 0.0000 0.0000 0.0000 11.9050 0.0000 0.0000
# 5 0.0000 0.0000 0.0000 0.0000 11.9050 0.0000
# 6 -7.9547 7.9547 0.0000 0.0000 0.0000 28.6068
#
#
#
# Elastic Compliance Matrix: (Units=1/GPa)
#
#
# Indices 1 2 3 4 5 6 
#
# 1 0.013233 -0.000371 -0.001642 0.000000 0.000000 0.003783
# 2 -0.000371 0.013233 -0.001642 0.000000 0.000000 -0.003783
# 3 -0.001642 -0.001642 0.011767 0.000000 0.000000 0.000000
# 4 0.000000 0.000000 0.000000 0.083998 0.000000 0.000000
# 5 0.000000 0.000000 0.000000 0.000000 0.083998 0.000000
# 6 0.003783 -0.003783 0.000000 0.000000 0.000000 0.037061
#
#
# Mechanical properties :
#
#
# Convention : Reuss Voigt Hill
#
# Bulk Modulus (GPa) = 32.33670 32.70532 32.52101
# Shear Modulus (GPa) = 19.16384 25.33855 22.25120
#
# Velocity S-wave (km/s) = 2.96852 3.41341 3.19871
# Velocity P-wave (km/s) = 5.15934 5.52938 5.34756
#
# Compressibility (1/GPa) = 0.03092462
#
# Stress axis : x y z
#
# Youngs Moduli (GPa) = 75.56695 75.56695 84.98163
#
# Poissons Ratio (x) = 0.02806 0.13951
# Poissons Ratio (y) = 0.02806 0.13951
# Poissons Ratio (z) = 0.12405 0.12405
#
# Static dielectric constant tensor:
#      x y z
#    x 1.876100 0.000000 0.000000 
#    y 0.000000 1.876100 0.000000 
#    z 0.000000 0.000000 1.840920 
# 
# From -- ./inp_files/2097.got.cif
#   From: 2010.05.17/outbox.cif.g08.bks.cpg/sg85_cif.got.tgz:2097.got - 2010.06.03 19:01:16.
