data_PCOD9544347
_publ_section_title
;
Structure prediction by ZEFSAII (Michael W. Deem and Ramdas Pophale) SiO2 
 PCOD9544347
Probable space group: P 42/M
;
_chemical_formula_sum "Si O2"
_cell_formula_units_Z 40
_cell_length_a 9.170180
_cell_length_b 9.170180
_cell_length_c 23.635475
_cell_angle_alpha 90.000000
_cell_angle_beta 90.000000
_cell_angle_gamma 90.000000
_cell_volume 1987.559120
_symmetry_space_group_name_H-M "P 42/M"
_symmetry_group_IT_number 84
_symmetry_cell_setting 'tetragonal'
loop_
_space_group_symop_operation_xyz
x,y,z
-y,x,1/2+z
-x,-y,z
y,-x,1/2+z
-x,-y,-z
y,-x,1/2-z
x,y,-z
-y,x,1/2-z
loop_
_atom_site_type_symbol
_atom_site_label
_atom_site_fract_x
_atom_site_fract_y
_atom_site_fract_z
Si Si1 0.194361 0.202081 0.389635
Si Si2 0.989170 0.674203 0.705860
Si Si3 0.115190 0.371216 0.500000
Si Si4 0.164541 0.473213 0.910949
Si Si5 0.772314 0.097502 0.670727
Si Si6 0.367457 0.609346 0.500000
O O1 0.146107 0.291781 0.334922
O O2 0.114082 0.266534 0.444879
O O3 0.365123 0.223269 0.401810
O O4 0.173332 0.031744 0.371582
O O5 0.968700 0.746397 0.767275
O O6 0.000000 0.500000 0.710725
O O7 0.121420 0.764107 0.676470
O O8 0.248463 0.483898 0.500000
O O9 0.000000 0.500000 0.500000
O O10 0.143338 0.384138 0.853515
O O11 0.000000 0.500000 0.934909
O O12 0.277064 0.380112 0.948073
O O13 0.500000 0.500000 0.500000
#
# Coordination Sequence:
#
# PCOD9544347 Si02
#       6
#     8   8   4   8   8   4
#     4  11  23  45  72  99 140 180 230 288 339 428
#     4  12  25  44  69 100 142 183 231 297 351 409
#     4  12  28  46  67 111 149 184 232 287 359 420
#     4  10  23  43  70 101 133 178 238 282 342 422
#     4  11  25  44  72 101 133 185 238 284 357 417
#     4  12  23  44  73  95 141 189 221 292 355 409
#
# _framework density 20.125188000000001
#
# number of rings (size 3 to 8) (size 9 to 14) (size 15 to 20)
#    0.000    0.800    4.000    3.300    5.600    2.400 
#    0.000    2.000    0.000    0.000    0.000    0.000 
#    0.000    0.000    0.000    0.000    0.000    0.000 
#
# Total GULP energy -223029.709412 kJ/mol
# GULP energy per Si atom -5575.742735 kJ/mol
# Density = 2.007938 g / cm^3
# Si number density = 20.125188 Si / 1000 Ang^3
#
#
#
# Elastic Constant Matrix: (Units=GPa)
#
#
# Indices 1 2 3 4 5 6 
#
# 1 95.0809 28.5639 30.0560 0.0000 0.0000 -8.6829
# 2 28.5639 95.0809 30.0560 0.0000 0.0000 8.6829
# 3 30.0560 30.0560 120.6964 0.0000 0.0000 0.0000
# 4 0.0000 0.0000 0.0000 35.6638 0.0000 0.0000
# 5 0.0000 0.0000 0.0000 0.0000 35.6638 0.0000
# 6 -8.6829 8.6829 0.0000 0.0000 0.0000 42.7761
#
#
#
# Elastic Compliance Matrix: (Units=1/GPa)
#
#
# Indices 1 2 3 4 5 6 
#
# 1 0.012538 -0.003337 -0.002291 0.000000 0.000000 0.003222
# 2 -0.003337 0.012538 -0.002291 0.000000 0.000000 -0.003222
# 3 -0.002291 -0.002291 0.009426 0.000000 0.000000 0.000000
# 4 0.000000 0.000000 0.000000 0.028040 0.000000 0.000000
# 5 0.000000 0.000000 0.000000 0.000000 0.028040 0.000000
# 6 0.003222 -0.003222 0.000000 0.000000 0.000000 0.024686
#
#
# Mechanical properties :
#
#
# Convention : Reuss Voigt Hill
#
# Bulk Modulus (GPa) = 53.57856 54.24558 53.91207
# Shear Modulus (GPa) = 36.40900 37.63287 37.02094
#
# Velocity S-wave (km/s) = 4.25800 4.32897 4.29363
# Velocity P-wave (km/s) = 7.13123 7.21105 7.17125
#
# Compressibility (1/GPa) = 0.01866418
#
# Stress axis : x y z
#
# Youngs Moduli (GPa) = 79.75520 79.75520 106.08413
#
# Poissons Ratio (x) = 0.26612 0.24308
# Poissons Ratio (y) = 0.26612 0.24308
# Poissons Ratio (z) = 0.18275 0.18275
#
# Static dielectric constant tensor:
#      x y z
#    x 1.702480 0.000000 0.000000 
#    y 0.000000 1.702480 0.000000 
#    z 0.000000 0.000000 1.737310 
# 
# From -- ./inp_files/4911.got.cif
#   From: 2010.05.17/outbox.cif.g08.bks.cpg/sg84_3_cif.got.tgz:4911.got - 2010.06.03 18:57:40.
