data_PCOD9544449
_publ_section_title
;
Structure prediction by ZEFSAII (Michael W. Deem and Ramdas Pophale) SiO2 
 PCOD9544449
Probable space group: P 42/M
;
_chemical_formula_sum "Si O2"
_cell_formula_units_Z 18
_cell_length_a 5.021213
_cell_length_b 5.021213
_cell_length_c 31.202684
_cell_angle_alpha 90.000000
_cell_angle_beta 90.000000
_cell_angle_gamma 90.000000
_cell_volume 786.700166
_symmetry_space_group_name_H-M "P 42/M"
_symmetry_group_IT_number 84
_symmetry_cell_setting 'tetragonal'
loop_
_space_group_symop_operation_xyz
x,y,z
-y,x,1/2+z
-x,-y,z
y,-x,1/2+z
-x,-y,-z
y,-x,1/2-z
x,y,-z
-y,x,1/2-z
loop_
_atom_site_type_symbol
_atom_site_label
_atom_site_fract_x
_atom_site_fract_y
_atom_site_fract_z
Si Si1 0.000000 0.000000 0.131796
Si Si2 0.000000 0.500000 0.426516
Si Si3 0.500000 0.000000 0.309295
Si Si4 0.500000 0.500000 0.250000
Si Si5 0.746316 0.804113 0.500000
O O1 0.251511 0.082323 0.102741
O O2 0.075486 0.750208 0.161220
O O3 0.222418 0.381518 0.458441
O O4 0.572867 0.249897 0.279633
O O5 0.500000 0.000000 0.500000
O O6 0.000000 0.000000 0.500000
#
# Coordination Sequence:
#
# PCOD9544449 Si02
#       5
#     4   4   4   2   4
#     4  12  26  44  70 106 142 180 232 298 356 418
#     4  11  26  47  70 103 148 186 244 297 354 425
#     4  12  26  45  74 104 138 184 228 286 362 421
#     4  12  24  48  72 100 140 178 232 280 344 456
#     4  11  26  46  71 101 137 202 240 294 355 421
#
# _framework density 22.880382000000001
#
# number of rings (size 3 to 8) (size 9 to 14) (size 15 to 20)
#    0.000    0.444    2.222    5.333    3.111    7.111 
#    0.000    0.000    0.000    0.000    0.000    0.000 
#    0.000    0.000    0.000    0.000    0.000    0.000 
#
# Total GULP energy -100912.033992 kJ/mol
# GULP energy per Si atom -5606.224111 kJ/mol
# Density = 2.282831 g / cm^3
# Si number density = 22.880382 Si / 1000 Ang^3
#
#
#
# Elastic Constant Matrix: (Units=GPa)
#
#
# Indices 1 2 3 4 5 6 
#
# 1 146.8037 16.3872 42.2505 0.0000 0.0000 -1.0922
# 2 16.3872 146.8037 42.2505 0.0000 0.0000 1.0922
# 3 42.2505 42.2505 120.4525 0.0000 0.0000 0.0000
# 4 0.0000 0.0000 0.0000 52.5707 0.0000 0.0000
# 5 0.0000 0.0000 0.0000 0.0000 52.5707 0.0000
# 6 -1.0922 1.0922 0.0000 0.0000 0.0000 43.8517
#
#
#
# Elastic Compliance Matrix: (Units=1/GPa)
#
#
# Indices 1 2 3 4 5 6 
#
# 1 0.007579 -0.000092 -0.002626 0.000000 0.000000 0.000191
# 2 -0.000092 0.007579 -0.002626 0.000000 0.000000 -0.000191
# 3 -0.002626 -0.002626 0.010145 0.000000 0.000000 0.000000
# 4 0.000000 0.000000 0.000000 0.019022 0.000000 0.000000
# 5 0.000000 0.000000 0.000000 0.000000 0.019022 0.000000
# 6 0.000191 -0.000191 0.000000 0.000000 0.000000 0.022814
#
#
# Mechanical properties :
#
#
# Convention : Reuss Voigt Hill
#
# Bulk Modulus (GPa) = 68.42603 68.42625 68.42614
# Shear Modulus (GPa) = 49.15389 50.67672 49.91531
#
# Velocity S-wave (km/s) = 4.64000 4.71133 4.67580
# Velocity P-wave (km/s) = 7.66010 7.71793 7.68907
#
# Compressibility (1/GPa) = 0.01461432
#
# Stress axis : x y z
#
# Youngs Moduli (GPa) = 131.93728 131.93728 98.57507
#
# Poissons Ratio (x) = 0.01208 0.25890
# Poissons Ratio (y) = 0.01208 0.25890
# Poissons Ratio (z) = 0.34653 0.34653
#
# Static dielectric constant tensor:
#      x y z
#    x 1.481130 0.000000 0.000000 
#    y 0.000000 1.481130 0.000000 
#    z 0.000000 0.000000 1.837140 
# 
# From -- ./inp_files/4644.got.cif
#   From: 2010.05.17/outbox.cif.g08.bks.cpg/sg84_3_cif.got.tgz:4644.got - 2010.06.03 18:57:40.
