data_PCOD9544333
_publ_section_title
;
Structure prediction by ZEFSAII (Michael W. Deem and Ramdas Pophale) SiO2 
 PCOD9544333
Probable space group: P 42/M
;
_chemical_formula_sum "Si O2"
_cell_formula_units_Z 40
_cell_length_a 8.736207
_cell_length_b 8.736207
_cell_length_c 24.716670
_cell_angle_alpha 90.000000
_cell_angle_beta 90.000000
_cell_angle_gamma 90.000000
_cell_volume 1886.408701
_symmetry_space_group_name_H-M "P 42/M"
_symmetry_group_IT_number 84
_symmetry_cell_setting 'tetragonal'
loop_
_space_group_symop_operation_xyz
x,y,z
-y,x,1/2+z
-x,-y,z
y,-x,1/2+z
-x,-y,-z
y,-x,1/2-z
x,y,-z
-y,x,1/2-z
loop_
_atom_site_type_symbol
_atom_site_label
_atom_site_fract_x
_atom_site_fract_y
_atom_site_fract_z
Si Si1 0.338793 0.670772 0.170035
Si Si2 0.150907 0.596973 0.632024
Si Si3 0.644333 0.224686 0.289575
Si Si4 0.974182 0.181702 0.168265
Si Si5 0.884599 0.853392 0.939555
O O1 0.473050 0.710840 0.128238
O O2 0.393942 0.710851 0.230784
O O3 0.268264 0.501123 0.173307
O O4 0.203190 0.789924 0.162049
O O5 0.206358 0.698550 0.682792
O O6 0.119496 0.711620 0.581994
O O7 0.000000 0.500000 0.643359
O O8 0.702345 0.049228 0.288486
O O9 0.045357 0.237042 0.110957
O O10 0.000000 0.000000 0.177998
O O11 0.883135 0.788747 0.000000
O O12 0.000000 0.000000 0.941110
#
# Coordination Sequence:
#
# PCOD9544333 Si02
#       5
#     8   8   8   8   8
#     4  12  23  38  59  87 133 174 212 257 317 392
#     4  11  23  38  61  93 125 161 220 270 309 386
#     4  11  24  37  59  85 128 182 208 249 318 388
#     4  10  23  40  61  94 123 162 217 272 316 384
#     4   9  19  41  67  92 123 160 209 279 345 384
#
# _framework density 21.204312999999999
#
# number of rings (size 3 to 8) (size 9 to 14) (size 15 to 20)
#    0.000    1.400    2.000    4.800    5.600    0.400 
#    0.000    1.000    0.000   19.200    0.000    2.800 
#    0.000    0.000    0.000    0.000    0.000    0.000 
#
# Total GULP energy -222862.547902 kJ/mol
# GULP energy per Si atom -5571.563698 kJ/mol
# Density = 2.115605 g / cm^3
# Si number density = 21.204313 Si / 1000 Ang^3
#
#
#
# Elastic Constant Matrix: (Units=GPa)
#
#
# Indices 1 2 3 4 5 6 
#
# 1 108.3082 28.5992 20.4932 0.0000 0.0000 0.7261
# 2 28.5992 108.3082 20.4932 0.0000 0.0000 -0.7261
# 3 20.4932 20.4932 72.6618 0.0000 0.0000 0.0000
# 4 0.0000 0.0000 0.0000 12.2468 0.0000 0.0000
# 5 0.0000 0.0000 0.0000 0.0000 12.2468 0.0000
# 6 0.7261 -0.7261 0.0000 0.0000 0.0000 38.0079
#
#
#
# Elastic Compliance Matrix: (Units=1/GPa)
#
#
# Indices 1 2 3 4 5 6 
#
# 1 0.010264 -0.002286 -0.002250 0.000000 0.000000 -0.000240
# 2 -0.002286 0.010264 -0.002250 0.000000 0.000000 0.000240
# 3 -0.002250 -0.002250 0.015032 0.000000 0.000000 0.000000
# 4 0.000000 0.000000 0.000000 0.081654 0.000000 0.000000
# 5 0.000000 0.000000 0.000000 0.000000 0.081654 0.000000
# 6 -0.000240 0.000240 0.000000 0.000000 0.000000 0.026320
#
#
# Mechanical properties :
#
#
# Convention : Reuss Voigt Hill
#
# Bulk Modulus (GPa) = 45.48129 47.60552 46.54340
# Shear Modulus (GPa) = 20.31791 27.14647 23.73219
#
# Velocity S-wave (km/s) = 3.09883 3.58192 3.34910
# Velocity P-wave (km/s) = 5.85656 6.29336 6.07889
#
# Compressibility (1/GPa) = 0.02198706
#
# Stress axis : x y z
#
# Youngs Moduli (GPa) = 97.42884 97.42884 66.52673
#
# Poissons Ratio (x) = 0.22273 0.14969
# Poissons Ratio (y) = 0.22273 0.14969
# Poissons Ratio (z) = 0.21922 0.21922
#
# Static dielectric constant tensor:
#      x y z
#    x 1.880250 0.000000 0.000000 
#    y 0.000000 1.880250 0.000000 
#    z 0.000000 0.000000 1.767000 
# 
# From -- ./inp_files/5318.got.cif
#   From: 2010.05.17/outbox.cif.g08.bks.cpg/sg84_3_cif.got.tgz:5318.got - 2010.06.03 18:57:40.
