data_PCOD9544286
_publ_section_title
;
Structure prediction by ZEFSAII (Michael W. Deem and Ramdas Pophale) SiO2 
 PCOD9544286
Probable space group: P 42/M
;
_chemical_formula_sum "Si O2"
_cell_formula_units_Z 48
_cell_length_a 17.044092
_cell_length_b 17.044092
_cell_length_c 9.035411
_cell_angle_alpha 90.000000
_cell_angle_beta 90.000000
_cell_angle_gamma 90.000000
_cell_volume 2624.796582
_symmetry_space_group_name_H-M "P 42/M"
_symmetry_group_IT_number 84
_symmetry_cell_setting 'tetragonal'
loop_
_space_group_symop_operation_xyz
x,y,z
-y,x,1/2+z
-x,-y,z
y,-x,1/2+z
-x,-y,-z
y,-x,1/2-z
x,y,-z
-y,x,1/2-z
loop_
_atom_site_type_symbol
_atom_site_label
_atom_site_fract_x
_atom_site_fract_y
_atom_site_fract_z
Si Si1 0.605609 0.831919 0.323645
Si Si2 0.835333 0.573644 0.175568
Si Si3 0.996915 0.618455 0.328881
Si Si4 0.989859 0.802458 0.338025
Si Si5 0.147148 0.166165 0.834981
Si Si6 0.254000 0.283747 0.324901
O O1 0.618648 0.844139 0.500000
O O2 0.515505 0.806652 0.301577
O O3 0.667322 0.764120 0.275774
O O4 0.613419 0.916943 0.245120
O O5 0.923321 0.578876 0.245474
O O6 0.775397 0.636674 0.245982
O O7 0.842207 0.588230 0.000000
O O8 0.001267 0.592425 0.500000
O O9 0.975221 0.710122 0.329132
O O10 0.964581 0.832226 0.500000
O O11 0.082173 0.813488 0.328203
O O12 0.943261 0.842819 0.207002
O O13 0.185998 0.222035 0.715083
O O14 0.157115 0.199244 0.000000
O O15 0.259418 0.297852 0.500000
#
# Coordination Sequence:
#
# PCOD9544286 Si02
#       6
#     8   8   8   8   8   8
#     4  10  23  40  59  85 118 153 188 231 282 339
#     4  11  23  39  59  86 118 151 189 230 281 340
#     4  11  21  35  57  87 120 152 188 232 281 334
#     4  10  22  37  53  79 113 147 192 240 280 328
#     4  11  22  37  57  79 107 150 195 235 282 332
#     4  11  22  38  60  84 112 147 186 230 281 334
#
# _framework density 18.287132
#
# number of rings (size 3 to 8) (size 9 to 14) (size 15 to 20)
#    0.000    1.333    3.333    2.500    0.000    6.333 
#    0.000    1.667    0.000    0.500    0.000    3.500 
#    0.000    0.000    0.000    0.000    0.000    0.000 
#
# Total GULP energy -267736.580866 kJ/mol
# GULP energy per Si atom -5577.845435 kJ/mol
# Density = 1.824551 g / cm^3
# Si number density = 18.287132 Si / 1000 Ang^3
#
#
#
# Elastic Constant Matrix: (Units=GPa)
#
#
# Indices 1 2 3 4 5 6 
#
# 1 137.7930 5.6573 44.2894 0.0000 0.0000 -85.4201
# 2 5.6573 137.7930 44.2894 0.0000 0.0000 85.4201
# 3 44.2894 44.2894 70.3833 0.0000 0.0000 0.0000
# 4 0.0000 0.0000 0.0000 16.7702 0.0000 0.0000
# 5 0.0000 0.0000 0.0000 0.0000 16.7702 0.0000
# 6 -85.4201 85.4201 0.0000 0.0000 0.0000 178.0861
#
#
#
# Elastic Compliance Matrix: (Units=1/GPa)
#
#
# Indices 1 2 3 4 5 6 
#
# 1 0.015662 -0.004261 -0.007174 0.000000 0.000000 0.009557
# 2 -0.004261 0.015662 -0.007174 0.000000 0.000000 -0.009557
# 3 -0.007174 -0.007174 0.023237 0.000000 0.000000 0.000000
# 4 0.000000 0.000000 0.000000 0.059630 0.000000 0.000000
# 5 0.000000 0.000000 0.000000 0.000000 0.059630 0.000000
# 6 0.009557 -0.009557 0.000000 0.000000 0.000000 0.014783
#
#
# Mechanical properties :
#
#
# Convention : Reuss Voigt Hill
#
# Bulk Modulus (GPa) = 57.66340 59.38238 58.52289
# Shear Modulus (GPa) = 21.58854 59.10751 40.34803
#
# Velocity S-wave (km/s) = 3.43961 5.69140 4.70229
# Velocity P-wave (km/s) = 6.88297 8.70242 7.84562
#
# Compressibility (1/GPa) = 0.01734202
#
# Stress axis : x y z
#
# Youngs Moduli (GPa) = 63.84693 63.84693 43.03516
#
# Poissons Ratio (x) = 0.27208 0.30874
# Poissons Ratio (y) = 0.27208 0.30874
# Poissons Ratio (z) = 0.45805 0.45805
#
# Static dielectric constant tensor:
#      x y z
#    x 1.637040 0.000000 0.000000 
#    y 0.000000 1.637040 0.000000 
#    z 0.000000 0.000000 1.664060 
# 
# From -- ./inp_files/1011.got.cif
#   From: 2010.05.17/outbox.cif.g08.bks.cpg/sg84_1_cif.got.tgz:1011.got - 2010.06.03 18:57:40.
