data_PCOD9544768
_publ_section_title
;
Structure prediction by ZEFSAII (Michael W. Deem and Ramdas Pophale) SiO2 
 PCOD9544768
Probable space group: P 4/N
;
_chemical_formula_sum "Si O2"
_cell_formula_units_Z 50
_cell_length_a 8.956275
_cell_length_b 8.956275
_cell_length_c 31.621006
_cell_angle_alpha 90.000000
_cell_angle_beta 90.000000
_cell_angle_gamma 90.000000
_cell_volume 2536.474629
_symmetry_space_group_name_H-M "P 4/N"
_symmetry_group_IT_number 85
_symmetry_cell_setting 'tetragonal'
loop_
_space_group_symop_operation_xyz
x,y,z
1/2-y,x,z
1/2-x,1/2-y,z
y,1/2-x,z
-x,-y,-z
1/2+y,-x,-z
1/2+x,1/2+y,-z
-y,1/2+x,-z
loop_
_atom_site_type_symbol
_atom_site_label
_atom_site_fract_x
_atom_site_fract_y
_atom_site_fract_z
Si Si1 0.964170 0.883861 0.283262
Si Si2 0.565193 0.917610 0.540797
Si Si3 0.440797 0.409063 0.960096
Si Si4 0.911644 0.335794 0.116701
Si Si5 0.402815 0.050575 0.621341
Si Si6 0.250000 0.250000 0.108880
Si Si7 0.523256 0.862801 0.793302
O O1 0.795376 0.947688 0.278627
O O2 0.008128 0.929512 0.331089
O O3 0.077639 0.943732 0.248504
O O4 0.547262 0.740246 0.539542
O O5 0.500000 0.000000 0.500000
O O6 0.485439 0.968653 0.583715
O O7 0.268374 0.449952 0.962686
O O8 0.532475 0.431261 0.917255
O O9 0.500000 0.500000 0.000000
O O10 0.750000 0.250000 0.111160
O O11 0.064288 0.239991 0.110354
O O12 0.925256 0.393931 0.164992
O O13 0.450565 0.223655 0.617620
O O14 0.558217 0.685740 0.794425
#
# Coordination Sequence:
#
# PCOD9544768 Si02
#       7
#     8   8   8   8   8   2   8
#     4   9  21  39  62  94 132 178 226 281 342 411
#     4  11  24  39  58  87 121 160 211 274 341 408
#     4  11  29  48  72 107 141 182 237 290 350 429
#     4  12  26  46  75 106 142 194 236 288 366 418
#     4   9  19  39  62  87 124 168 219 274 336 405
#     4  12  24  48  72 104 148 180 236 300 340 416
#     4  11  24  42  64  98 135 176 229 283 343 403
#
# _framework density 19.712396999999999
#
# number of rings (size 3 to 8) (size 9 to 14) (size 15 to 20)
#    0.000    1.440    1.600    2.880    6.720    4.800 
#    0.000    6.400    0.000    0.000    0.000    0.000 
#    0.000    0.000    0.000    0.000    0.000    0.000 
#
# Total GULP energy -278433.723173 kJ/mol
# GULP energy per Si atom -5568.674463 kJ/mol
# Density = 1.966753 g / cm^3
# Si number density = 19.712397 Si / 1000 Ang^3
#
#
#
# Elastic Constant Matrix: (Units=GPa)
#
#
# Indices 1 2 3 4 5 6 
#
# 1 -97.8318 266.6224 90.6544 0.0000 0.0000 76.6253
# 2 266.6224 -97.8318 90.6544 0.0000 0.0000 -76.6253
# 3 90.6544 90.6544 179.3337 0.0000 0.0000 0.0000
# 4 0.0000 0.0000 0.0000 38.9962 0.0000 0.0000
# 5 0.0000 0.0000 0.0000 0.0000 38.9962 0.0000
# 6 76.6253 -76.6253 0.0000 0.0000 0.0000 7.5035
#
#
#
# Elastic Compliance Matrix: (Units=1/GPa)
#
#
# Indices 1 2 3 4 5 6 
#
# 1 0.006223 0.006741 -0.006553 0.000000 0.000000 0.005293
# 2 0.006741 0.006223 -0.006553 0.000000 0.000000 -0.005293
# 3 -0.006553 -0.006553 0.012202 0.000000 0.000000 0.000000
# 4 0.000000 0.000000 0.000000 0.025644 0.000000 0.000000
# 5 0.000000 0.000000 0.000000 0.000000 0.025644 0.000000
# 6 0.005293 -0.005293 0.000000 0.000000 0.000000 0.025174
#
#
# Mechanical properties :
#
#
# Convention : Reuss Voigt Hill
#
# Bulk Modulus (GPa) = 83.91998 97.72585 90.82292
# Shear Modulus (GPa) = 42.44079 -13.85157 14.29461
#
# Velocity S-wave (km/s) = 4.64508 -2.65369 2.69580
# Velocity P-wave (km/s) = 8.45184 6.34776 7.47421
#
# Compressibility (1/GPa) = 0.01191611
#
# Stress axis : x y z
#
# Youngs Moduli (GPa) = 160.70012 160.70012 81.95595
#
# Poissons Ratio (x) = -1.08329 0.53708
# Poissons Ratio (y) = -1.08329 0.53708
# Poissons Ratio (z) = 1.05312 1.05312
#
# Static dielectric constant tensor:
#      x y z
#    x 1.433320 0.000000 0.000000 
#    y 0.000000 1.433320 0.000000 
#    z 0.000000 0.000000 1.704090 
# 
# From -- ./inp_files/2447.got.cif
#   From: 2010.05.17/outbox.cif.g08.bks.cpg/sg85_cif.got.tgz:2447.got - 2010.06.03 19:01:16.
