data_PCOD9544871
_publ_section_title
;
Structure prediction by ZEFSAII (Michael W. Deem and Ramdas Pophale) SiO2 
 PCOD9544871
Probable space group: P 42/N
;
_chemical_formula_sum "Si O2"
_cell_formula_units_Z 56
_cell_length_a 13.179085
_cell_length_b 13.179085
_cell_length_c 14.362664
_cell_angle_alpha 90.000000
_cell_angle_beta 90.000000
_cell_angle_gamma 90.000000
_cell_volume 2494.626427
_symmetry_space_group_name_H-M "P 42/N"
_symmetry_group_IT_number 86
_space_group.IT_coordinate_system_code '2'
_symmetry_cell_setting 'tetragonal'
loop_
_space_group_symop_operation_xyz
x,y,z
-y,1/2+x,1/2+z
1/2-x,1/2-y,z
1/2+y,-x,1/2+z
-x,-y,-z
y,1/2-x,1/2-z
1/2+x,1/2+y,-z
1/2-y,x,1/2-z
loop_
_atom_site_type_symbol
_atom_site_label
_atom_site_fract_x
_atom_site_fract_y
_atom_site_fract_z
Si Si1 0.683902 0.153994 0.405624
Si Si2 0.425631 0.999599 0.909450
Si Si3 0.338680 0.830263 0.379866
Si Si4 0.777549 0.989756 0.834441
Si Si5 0.923868 0.366738 0.813338
Si Si6 0.206368 0.353236 0.006770
Si Si7 0.704183 0.514298 0.629826
O O1 0.750000 0.250000 0.369959
O O2 0.646417 0.183542 0.509303
O O3 0.580094 0.141748 0.350291
O O4 0.772052 0.072097 0.386874
O O5 0.478341 0.065774 0.830514
O O6 0.428491 0.883252 0.881010
O O7 0.323377 0.055078 0.938753
O O8 0.500000 0.000000 0.000000
O O9 0.250000 0.750000 0.356347
O O10 0.413013 0.824923 0.291409
O O11 0.304678 0.948611 0.380191
O O12 0.670392 0.054147 0.834449
O O13 0.796868 0.943119 0.733978
O O14 0.774934 0.905115 0.913487
O O15 0.250000 0.250000 0.964930
O O16 0.103491 0.317560 0.058840
#
# Coordination Sequence:
#
# PCOD9544871 Si02
#       7
#     8   8   8   8   8   8   8
#     4   9  18  31  53  85 120 148 191 259 312 362
#     4  10  19  36  59  82 116 166 212 246 305 394
#     4  10  20  32  59  94 120 153 205 268 326 362
#     4  10  20  33  55  91 123 152 203 258 320 373
#     4  10  17  34  56  87 118 156 206 252 311 386
#     4  11  24  36  58  91 129 170 206 254 316 393
#     4  10  21  35  59  89 123 161 208 251 328 383
#
# _framework density 22.448250999999999
#
# number of rings (size 3 to 8) (size 9 to 14) (size 15 to 20)
#    0.000    2.000    2.857    3.857    6.000    0.000 
#    0.000    0.000    0.000    9.429    0.000    0.000 
#    0.000    0.000    0.000    0.000    0.000    0.000 
#
# Total GULP energy -312151.630857 kJ/mol
# GULP energy per Si atom -5574.136265 kJ/mol
# Density = 2.239716 g / cm^3
# Si number density = 22.448251 Si / 1000 Ang^3
#
#
#
# Elastic Constant Matrix: (Units=GPa)
#
#
# Indices 1 2 3 4 5 6 
#
# 1 43.7840 6.4500 3.5068 0.0000 0.0000 5.0121
# 2 6.4500 43.7840 3.5068 0.0000 0.0000 -5.0121
# 3 3.5068 3.5068 73.4838 0.0000 0.0000 0.0000
# 4 0.0000 0.0000 0.0000 15.3376 0.0000 0.0000
# 5 0.0000 0.0000 0.0000 0.0000 15.3376 0.0000
# 6 5.0121 -5.0121 0.0000 0.0000 0.0000 21.1929
#
#
#
# Elastic Compliance Matrix: (Units=1/GPa)
#
#
# Indices 1 2 3 4 5 6 
#
# 1 0.024321 -0.004281 -0.000956 0.000000 0.000000 -0.006764
# 2 -0.004281 0.024321 -0.000956 0.000000 0.000000 0.006764
# 3 -0.000956 -0.000956 0.013700 0.000000 0.000000 0.000000
# 4 0.000000 0.000000 0.000000 0.065199 0.000000 0.000000
# 5 0.000000 0.000000 0.000000 0.000000 0.065199 0.000000
# 6 -0.006764 0.006764 0.000000 0.000000 0.000000 0.050385
#
#
# Mechanical properties :
#
#
# Convention : Reuss Voigt Hill
#
# Bulk Modulus (GPa) = 20.01803 20.88655 20.45229
# Shear Modulus (GPa) = 18.37134 20.21284 19.29209
#
# Velocity S-wave (km/s) = 2.86385 3.00395 2.93474
# Velocity P-wave (km/s) = 4.45783 4.62127 4.54029
#
# Compressibility (1/GPa) = 0.04995498
#
# Stress axis : x y z
#
# Youngs Moduli (GPa) = 41.11687 41.11687 72.99417
#
# Poissons Ratio (x) = 0.17600 0.06981
# Poissons Ratio (y) = 0.17600 0.06981
# Poissons Ratio (z) = 0.03932 0.03932
#
# Static dielectric constant tensor:
#      x y z
#    x 1.888250 0.000000 0.000000 
#    y 0.000000 1.888250 0.000000 
#    z 0.000000 0.000000 1.876390 
# 
# From -- ./inp_files/3045.got.cif
#   From: 2010.05.17/outbox.cif.g08.bks.cpg/sg86_2_cif.got.tgz:3045.got - 2010.06.03 19:03:11.
