data_PCOD9544331
_publ_section_title
;
Structure prediction by ZEFSAII (Michael W. Deem and Ramdas Pophale) SiO2 
 PCOD9544331
Probable space group: P 42/M
;
_chemical_formula_sum "Si O2"
_cell_formula_units_Z 32
_cell_length_a 8.234660
_cell_length_b 8.234660
_cell_length_c 22.433349
_cell_angle_alpha 90.000000
_cell_angle_beta 90.000000
_cell_angle_gamma 90.000000
_cell_volume 1521.196990
_symmetry_space_group_name_H-M "P 42/M"
_symmetry_group_IT_number 84
_symmetry_cell_setting 'tetragonal'
loop_
_space_group_symop_operation_xyz
x,y,z
-y,x,1/2+z
-x,-y,z
y,-x,1/2+z
-x,-y,-z
y,-x,1/2-z
x,y,-z
-y,x,1/2-z
loop_
_atom_site_type_symbol
_atom_site_label
_atom_site_fract_x
_atom_site_fract_y
_atom_site_fract_z
Si Si1 0.861317 0.123890 0.674571
Si Si2 0.108454 0.359976 0.610222
Si Si3 0.946679 0.309141 0.934021
Si Si4 0.721016 0.622527 0.732933
O O1 0.747137 0.172354 0.729121
O O2 0.963112 0.263761 0.642643
O O3 0.758909 0.041526 0.622270
O O4 0.000000 0.000000 0.691447
O O5 0.232600 0.236935 0.575840
O O6 0.213185 0.418966 0.667612
O O7 0.000000 0.500000 0.578093
O O8 0.000000 0.500000 0.934333
O O9 0.996136 0.248063 0.000000
O O10 0.701655 0.457221 0.770249
#
# Coordination Sequence:
#
# PCOD9544331 Si02
#       4
#     8   8   8   8
#     4  10  23  37  62  90 124 166 208 266 318 392
#     4  11  23  38  62  96 130 164 216 271 331 394
#     4  10  23  44  67  90 123 172 220 269 329 399
#     4  11  23  39  61  90 131 171 209 260 328 398
#
# _framework density 21.036066999999999
#
# number of rings (size 3 to 8) (size 9 to 14) (size 15 to 20)
#    0.000    1.500    2.500    1.500    7.000    6.000 
#    0.000    0.000    0.000    3.000    0.000    0.000 
#    0.000    0.000    0.000    0.000    0.000    0.000 
#
# Total GULP energy -178175.912361 kJ/mol
# GULP energy per Si atom -5567.997261 kJ/mol
# Density = 2.098819 g / cm^3
# Si number density = 21.036067 Si / 1000 Ang^3
#
#
#
# Elastic Constant Matrix: (Units=GPa)
#
#
# Indices 1 2 3 4 5 6 
#
# 1 79.7549 51.2796 23.9996 0.0000 0.0000 -5.9356
# 2 51.2796 79.7549 23.9996 0.0000 0.0000 5.9356
# 3 23.9996 23.9996 72.8217 0.0000 0.0000 0.0000
# 4 0.0000 0.0000 0.0000 23.1387 0.0000 0.0000
# 5 0.0000 0.0000 0.0000 0.0000 23.1387 0.0000
# 6 -5.9356 5.9356 0.0000 0.0000 0.0000 40.9054
#
#
#
# Elastic Compliance Matrix: (Units=1/GPa)
#
#
# Indices 1 2 3 4 5 6 
#
# 1 0.023029 -0.014350 -0.002860 0.000000 0.000000 0.005424
# 2 -0.014350 0.023029 -0.002860 0.000000 0.000000 -0.005424
# 3 -0.002860 -0.002860 0.015618 0.000000 0.000000 0.000000
# 4 0.000000 0.000000 0.000000 0.043218 0.000000 0.000000
# 5 0.000000 0.000000 0.000000 0.000000 0.043218 0.000000
# 6 0.005424 -0.005424 0.000000 0.000000 0.000000 0.026021
#
#
# Mechanical properties :
#
#
# Convention : Reuss Voigt Hill
#
# Bulk Modulus (GPa) = 46.43690 47.87657 47.15674
# Shear Modulus (GPa) = 22.57827 26.30677 24.44252
#
# Velocity S-wave (km/s) = 3.27970 3.54016 3.41241
# Velocity P-wave (km/s) = 6.03860 6.28641 6.16375
#
# Compressibility (1/GPa) = 0.02153460
#
# Stress axis : x y z
#
# Youngs Moduli (GPa) = 43.42289 43.42289 64.03046
#
# Poissons Ratio (x) = 0.62312 0.18315
# Poissons Ratio (y) = 0.62312 0.18315
# Poissons Ratio (z) = 0.12421 0.12421
#
# Static dielectric constant tensor:
#      x y z
#    x 1.948160 0.000000 0.000000 
#    y 0.000000 1.948160 0.000000 
#    z 0.000000 0.000000 1.774810 
# 
# From -- ./inp_files/4087.got.cif
#   From: 2010.05.17/outbox.cif.g08.bks.cpg/sg84_3_cif.got.tgz:4087.got - 2010.06.03 18:57:40.
