data_PCOD9544984
_publ_section_title
;
Structure prediction by ZEFSAII (Michael W. Deem and Ramdas Pophale) SiO2 
 PCOD9544984
Probable space group: P 42/N
;
_chemical_formula_sum "Si O2"
_cell_formula_units_Z 46
_cell_length_a 13.220471
_cell_length_b 13.220471
_cell_length_c 12.066300
_cell_angle_alpha 90.000000
_cell_angle_beta 90.000000
_cell_angle_gamma 90.000000
_cell_volume 2108.958212
_symmetry_space_group_name_H-M "P 42/N"
_symmetry_group_IT_number 86
_space_group.IT_coordinate_system_code '2'
_symmetry_cell_setting 'tetragonal'
loop_
_space_group_symop_operation_xyz
x,y,z
-y,1/2+x,1/2+z
1/2-x,1/2-y,z
1/2+y,-x,1/2+z
-x,-y,-z
y,1/2-x,1/2-z
1/2+x,1/2+y,-z
1/2-y,x,1/2-z
loop_
_atom_site_type_symbol
_atom_site_label
_atom_site_fract_x
_atom_site_fract_y
_atom_site_fract_z
Si Si1 0.402121 0.064557 0.476753
Si Si2 0.750000 0.250000 0.191644
Si Si3 0.173744 0.099059 0.243103
Si Si4 0.920333 0.871190 0.221378
Si Si5 0.057195 0.676883 0.189190
Si Si6 0.302490 0.553941 0.432021
Si Si7 0.250000 0.250000 0.750000
O O1 0.431392 0.139024 0.378707
O O2 0.369585 0.115413 0.592702
O O3 0.500000 0.000000 0.500000
O O4 0.311605 0.989893 0.442381
O O5 0.686770 0.329436 0.265579
O O6 0.667056 0.196429 0.114502
O O7 0.120569 0.206763 0.263046
O O8 0.149022 0.020118 0.340265
O O9 0.835358 0.821798 0.301805
O O10 0.011231 0.790106 0.219005
O O11 0.911030 0.988744 0.254300
O O12 0.052138 0.658677 0.057757
#
# Coordination Sequence:
#
# PCOD9544984 Si02
#       7
#     8   4   8   8   8   8   2
#     4  10  20  35  62  87 123 161 209 252 319 378
#     4  12  24  42  62  86 128 172 210 254 324 382
#     4   9  20  38  62  93 124 160 206 264 323 380
#     4   9  19  36  62  91 117 153 202 256 309 370
#     4  10  22  41  65  91 125 161 210 260 317 376
#     4  10  23  40  60  90 124 164 210 260 313 385
#     4   8  16  32  56  88 118 140 188 248 312 350
#
# _framework density 21.811717999999999
#
# number of rings (size 3 to 8) (size 9 to 14) (size 15 to 20)
#    0.000    2.261    0.000    1.565    4.870    6.957 
#    3.130    0.870    0.000    0.000    0.000    0.000 
#    0.000    0.000    0.000    0.000    0.000    0.000 
#
# Total GULP energy -256235.748372 kJ/mol
# GULP energy per Si atom -5570.342356 kJ/mol
# Density = 2.176207 g / cm^3
# Si number density = 21.811718 Si / 1000 Ang^3
#
#
#
# Elastic Constant Matrix: (Units=GPa)
#
#
# Indices 1 2 3 4 5 6 
#
# 1 54.0563 0.2531 36.2093 0.0000 0.0000 -6.2093
# 2 0.2531 54.0563 36.2093 0.0000 0.0000 6.2093
# 3 36.2093 36.2093 147.1763 0.0000 0.0000 0.0000
# 4 0.0000 0.0000 0.0000 29.4274 0.0000 0.0000
# 5 0.0000 0.0000 0.0000 0.0000 29.4274 0.0000
# 6 -6.2093 6.2093 0.0000 0.0000 0.0000 20.0868
#
#
#
# Elastic Compliance Matrix: (Units=1/GPa)
#
#
# Indices 1 2 3 4 5 6 
#
# 1 0.023709 0.003694 -0.006742 0.000000 0.000000 0.006187
# 2 0.003694 0.023709 -0.006742 0.000000 0.000000 -0.006187
# 3 -0.006742 -0.006742 0.010112 0.000000 0.000000 0.000000
# 4 0.000000 0.000000 0.000000 0.033982 0.000000 0.000000
# 5 0.000000 0.000000 0.000000 0.000000 0.033982 0.000000
# 6 0.006187 -0.006187 0.000000 0.000000 0.000000 0.053609
#
#
# Mechanical properties :
#
#
# Convention : Reuss Voigt Hill
#
# Bulk Modulus (GPa) = 26.35025 44.51471 35.43248
# Shear Modulus (GPa) = 23.65958 27.96281 25.81120
#
# Velocity S-wave (km/s) = 3.29708 3.58440 3.44374
# Velocity P-wave (km/s) = 5.15765 6.13054 5.66502
#
# Compressibility (1/GPa) = 0.03795031
#
# Stress axis : x y z
#
# Youngs Moduli (GPa) = 42.17882 42.17882 98.89322
#
# Poissons Ratio (x) = -0.15582 0.66672
# Poissons Ratio (y) = -0.15582 0.66672
# Poissons Ratio (z) = 0.28436 0.28436
#
# Static dielectric constant tensor:
#      x y z
#    x 1.840870 0.000000 0.000000 
#    y 0.000000 1.840870 0.000000 
#    z 0.000000 0.000000 1.799480 
# 
# From -- ./inp_files/2251.got.cif
#   From: 2010.05.17/outbox.cif.g08.bks.cpg/sg86_2_cif.got.tgz:2251.got - 2010.06.03 19:03:11.
