data_PCOD9544061
_publ_section_title
;
Structure prediction by ZEFSAII (Michael W. Deem and Ramdas Pophale) SiO2 
 PCOD9544061
Probable space group: P 42/M
;
_chemical_formula_sum "Si O2"
_cell_formula_units_Z 48
_cell_length_a 13.405541
_cell_length_b 13.405541
_cell_length_c 12.988014
_cell_angle_alpha 90.000000
_cell_angle_beta 90.000000
_cell_angle_gamma 90.000000
_cell_volume 2334.056897
_symmetry_space_group_name_H-M "P 42/M"
_symmetry_group_IT_number 84
_symmetry_cell_setting 'tetragonal'
loop_
_space_group_symop_operation_xyz
x,y,z
-y,x,1/2+z
-x,-y,z
y,-x,1/2+z
-x,-y,-z
y,-x,1/2-z
x,y,-z
-y,x,1/2-z
loop_
_atom_site_type_symbol
_atom_site_label
_atom_site_fract_x
_atom_site_fract_y
_atom_site_fract_z
Si Si1 0.310981 0.523988 0.609408
Si Si2 0.453822 0.122414 0.616486
Si Si3 0.359647 0.318961 0.693327
Si Si4 0.097953 0.446550 0.668003
Si Si5 0.142168 0.229882 0.291219
Si Si6 0.232016 0.028128 0.379739
O O1 0.333672 0.569732 0.500000
O O2 0.348495 0.411937 0.619808
O O3 0.351675 0.586806 0.702985
O O4 0.192711 0.506011 0.624807
O O5 0.491121 0.107680 0.500000
O O6 0.421944 0.235735 0.635038
O O7 0.531660 0.101701 0.708152
O O8 0.348029 0.064174 0.629290
O O9 0.253990 0.271750 0.729246
O O10 0.099478 0.327788 0.648325
O O11 0.000000 0.500000 0.628548
O O12 0.163845 0.124112 0.347097
O O13 0.066147 0.215178 0.195868
O O14 0.214378 0.004681 0.500000
#
# Coordination Sequence:
#
# PCOD9544061 Si02
#       6
#     8   8   8   8   8   8
#     4  10  21  38  59  84 118 158 195 235 296 354
#     4   9  17  32  58  89 118 152 189 228 285 347
#     4   9  20  37  58  85 120 154 193 246 285 342
#     4  10  19  34  59  91 120 147 188 247 295 341
#     4  10  21  38  59  84 121 150 195 249 289 344
#     4  10  21  38  61  83 111 157 198 236 293 355
#
# _framework density 20.565052000000001
#
# number of rings (size 3 to 8) (size 9 to 14) (size 15 to 20)
#    0.000    2.333    1.667    0.500    0.000    6.667 
#    0.000   10.000    0.000    0.000    0.000    0.000 
#    0.000    0.000    0.000    0.000    0.000    0.000 
#
# Total GULP energy -267629.163543 kJ/mol
# GULP energy per Si atom -5575.607574 kJ/mol
# Density = 2.051824 g / cm^3
# Si number density = 20.565052 Si / 1000 Ang^3
#
#
#
# Elastic Constant Matrix: (Units=GPa)
#
#
# Indices 1 2 3 4 5 6 
#
# 1 42.3981 13.4121 5.5185 0.0000 0.0000 -2.9716
# 2 13.4121 42.3981 5.5185 0.0000 0.0000 2.9716
# 3 5.5185 5.5185 98.6888 0.0000 0.0000 0.0000
# 4 0.0000 0.0000 0.0000 -10.2095 0.0000 0.0000
# 5 0.0000 0.0000 0.0000 0.0000 -10.2095 0.0000
# 6 -2.9716 2.9716 0.0000 0.0000 0.0000 30.6186
#
#
#
# Elastic Compliance Matrix: (Units=1/GPa)
#
#
# Indices 1 2 3 4 5 6 
#
# 1 0.026659 -0.008541 -0.001013 0.000000 0.000000 0.003416
# 2 -0.008541 0.026659 -0.001013 0.000000 0.000000 -0.003416
# 3 -0.001013 -0.001013 0.010246 0.000000 0.000000 0.000000
# 4 0.000000 0.000000 0.000000 -0.097948 0.000000 0.000000
# 5 0.000000 0.000000 0.000000 0.000000 -0.097948 0.000000
# 6 0.003416 -0.003416 0.000000 0.000000 0.000000 0.033323
#
#
# Mechanical properties :
#
#
# Convention : Reuss Voigt Hill
#
# Bulk Modulus (GPa) = 23.56818 25.82035 24.69427
# Shear Modulus (GPa) = -78.45459 12.64232 -32.90614
#
# Velocity S-wave (km/s) = -6.18323 2.48210 -4.00446
# Velocity P-wave (km/s) = 6.28420 4.56039 3.05729
#
# Compressibility (1/GPa) = 0.04243009
#
# Stress axis : x y z
#
# Youngs Moduli (GPa) = 37.51072 37.51072 97.59747
#
# Poissons Ratio (x) = 0.32037 0.09888
# Poissons Ratio (y) = 0.32037 0.09888
# Poissons Ratio (z) = 0.03800 0.03800
#
# Static dielectric constant tensor:
#      x y z
#    x 1.742780 0.000000 0.000000 
#    y 0.000000 1.742780 0.000000 
#    z 0.000000 0.000000 1.739860 
# 
# From -- ./inp_files/2153.got.cif
#   From: 2010.05.17/outbox.cif.g08.bks.cpg/sg84_2_cif.got.tgz:2153.got - 2010.06.03 18:57:40.
