data_PCOD9544808
_publ_section_title
;
Structure prediction by ZEFSAII (Michael W. Deem and Ramdas Pophale) SiO2 
 PCOD9544808
Probable space group: P 4/N
;
_chemical_formula_sum "Si O2"
_cell_formula_units_Z 50
_cell_length_a 8.802532
_cell_length_b 8.802532
_cell_length_c 31.447797
_cell_angle_alpha 90.000000
_cell_angle_beta 90.000000
_cell_angle_gamma 90.000000
_cell_volume 2436.719016
_symmetry_space_group_name_H-M "P 4/N"
_symmetry_group_IT_number 85
_symmetry_cell_setting 'tetragonal'
loop_
_space_group_symop_operation_xyz
x,y,z
1/2-y,x,z
1/2-x,1/2-y,z
y,1/2-x,z
-x,-y,-z
1/2+y,-x,-z
1/2+x,1/2+y,-z
-y,1/2+x,-z
loop_
_atom_site_type_symbol
_atom_site_label
_atom_site_fract_x
_atom_site_fract_y
_atom_site_fract_z
Si Si1 0.629353 0.973993 0.206774
Si Si2 0.666446 0.414886 0.708348
Si Si3 0.538702 0.606763 0.373335
Si Si4 0.750000 0.750000 0.714121
Si Si5 0.110703 0.036311 0.126361
Si Si6 0.442525 0.080978 0.457289
Si Si7 0.056190 0.082153 0.957293
O O1 0.551839 0.809263 0.205746
O O2 0.594830 0.062699 0.249786
O O3 0.567153 0.058996 0.165475
O O4 0.750000 0.250000 0.704836
O O5 0.568135 0.438226 0.665624
O O6 0.771689 0.562953 0.713736
O O7 0.710944 0.547475 0.370931
O O8 0.477023 0.538866 0.417278
O O9 0.292124 0.048101 0.128940
O O10 0.042899 0.974608 0.082386
O O11 0.455909 0.263293 0.455900
O O12 0.500000 0.000000 0.500000
O O13 0.235341 0.044365 0.955737
O O14 0.000000 0.000000 0.000000
#
# Coordination Sequence:
#
# PCOD9544808 Si02
#       7
#     8   8   8   2   8   8   8
#     4  11  25  45  69 100 141 187 241 300 371 445
#     4  12  28  47  74 109 147 194 245 311 381 438
#     4  11  25  45  71 104 144 187 241 301 367 443
#     4  12  28  44  76 104 144 184 256 292 360 464
#     4  11  26  43  66 100 138 183 240 300 366 444
#     4  11  26  45  70 103 142 187 241 299 364 445
#     4  11  24  43  68  99 137 179 232 294 362 440
#
# _framework density 20.519394999999999
#
# number of rings (size 3 to 8) (size 9 to 14) (size 15 to 20)
#    0.000    0.800    0.000    5.760    8.960   10.240 
#    0.000    0.000    0.000    0.000    0.000    0.000 
#    0.000    0.000    0.000    0.000    0.000    0.000 
#
# Total GULP energy -279208.038659 kJ/mol
# GULP energy per Si atom -5584.160773 kJ/mol
# Density = 2.047269 g / cm^3
# Si number density = 20.519395 Si / 1000 Ang^3
#
#
#
# Elastic Constant Matrix: (Units=GPa)
#
#
# Indices 1 2 3 4 5 6 
#
# 1 61.4613 67.4118 32.5415 0.0000 0.0000 16.1774
# 2 67.4118 61.4613 32.5415 0.0000 0.0000 -16.1774
# 3 32.5415 32.5415 154.6213 0.0000 0.0000 0.0000
# 4 0.0000 0.0000 0.0000 40.1712 0.0000 0.0000
# 5 0.0000 0.0000 0.0000 0.0000 40.1712 0.0000
# 6 16.1774 -16.1774 0.0000 0.0000 0.0000 22.5890
#
#
#
# Elastic Compliance Matrix: (Units=1/GPa)
#
#
# Indices 1 2 3 4 5 6 
#
# 1 -0.012828 0.021510 -0.001827 0.000000 0.000000 0.024592
# 2 0.021510 -0.012828 -0.001827 0.000000 0.000000 -0.024592
# 3 -0.001827 -0.001827 0.007237 0.000000 0.000000 0.000000
# 4 0.000000 0.000000 0.000000 0.024893 0.000000 0.000000
# 5 0.000000 0.000000 0.000000 0.000000 0.024893 0.000000
# 6 0.024592 -0.024592 0.000000 0.000000 0.000000 0.009046
#
#
# Mechanical properties :
#
#
# Convention : Reuss Voigt Hill
#
# Bulk Modulus (GPa) = 57.82970 60.28153 59.05561
# Shear Modulus (GPa) = 477.76187 30.25621 254.00904
#
# Velocity S-wave (km/s) = 15.27546 3.84411 11.13815
# Velocity P-wave (km/s) = 18.42183 7.01032 13.93751
#
# Compressibility (1/GPa) = 0.01729215
#
# Stress axis : x y z
#
# Youngs Moduli (GPa) = -77.95443 -77.95443 138.18725
#
# Poissons Ratio (x) = 1.67683 0.25251
# Poissons Ratio (y) = 1.67683 0.25251
# Poissons Ratio (z) = -0.14245 -0.14245
#
# Static dielectric constant tensor:
#      x y z
#    x 1.870310 0.000000 0.000000 
#    y 0.000000 1.870310 0.000000 
#    z 0.000000 0.000000 1.679100 
# 
# From -- ./inp_files/2455.got.cif
#   From: 2010.05.17/outbox.cif.g08.bks.cpg/sg85_cif.got.tgz:2455.got - 2010.06.03 19:01:16.
