data_PCOD9544005
_publ_section_title
;
Structure prediction by ZEFSAII (Michael W. Deem and Ramdas Pophale) SiO2 
 PCOD9544005
Probable space group: P 42/M
;
_chemical_formula_sum "Si O2"
_cell_formula_units_Z 60
_cell_length_a 12.263976
_cell_length_b 12.263976
_cell_length_c 22.364996
_cell_angle_alpha 90.000000
_cell_angle_beta 90.000000
_cell_angle_gamma 90.000000
_cell_volume 3363.809624
_symmetry_space_group_name_H-M "P 42/M"
_symmetry_group_IT_number 84
_symmetry_cell_setting 'tetragonal'
loop_
_space_group_symop_operation_xyz
x,y,z
-y,x,1/2+z
-x,-y,z
y,-x,1/2+z
-x,-y,-z
y,-x,1/2-z
x,y,-z
-y,x,1/2-z
loop_
_atom_site_type_symbol
_atom_site_label
_atom_site_fract_x
_atom_site_fract_y
_atom_site_fract_z
Si Si1 0.735109 0.171413 0.567482
Si Si2 0.514640 0.764227 0.566636
Si Si3 0.277437 0.090800 0.566684
Si Si4 0.569786 0.610653 0.672528
Si Si5 0.767465 0.562810 0.257805
Si Si6 0.500000 0.000000 0.269245
Si Si7 0.737566 0.941425 0.304514
Si Si8 0.189325 0.207736 0.196109
O O1 0.766194 0.207779 0.500000
O O2 0.608988 0.201492 0.578717
O O3 0.801841 0.213732 0.625138
O O4 0.735145 0.039749 0.566973
O O5 0.518445 0.720056 0.500000
O O6 0.598566 0.865190 0.568807
O O7 0.551570 0.671891 0.611349
O O8 0.235638 0.127296 0.500000
O O9 0.231795 0.119754 0.633261
O O10 0.500000 0.500000 0.676787
O O11 0.526130 0.696259 0.722040
O O12 0.695889 0.587240 0.684483
O O13 0.890710 0.525400 0.267392
O O14 0.774852 0.671716 0.217646
O O15 0.608393 0.971166 0.306754
O O16 0.759688 0.874016 0.244326
O O17 0.797371 0.057727 0.299544
#
# Coordination Sequence:
#
# PCOD9544005 Si02
#       8
#     8   8   8   8   8   4   8   8
#     4   9  17  29  50  78 106 138 179 223 276 325
#     4  10  19  30  46  72 108 144 176 216 267 327
#     4   9  17  29  49  77 107 137 171 219 275 326
#     4  12  22  33  51  74 107 147 180 215 268 329
#     4  11  19  34  49  77 101 137 177 219 272 319
#     4  10  22  32  53  76 105 132 176 230 270 322
#     4  10  21  33  51  78 106 141 175 222 270 332
#     4  10  20  33  53  75 108 140 176 222 274 320
#
# _framework density 17.836918000000001
#
# number of rings (size 3 to 8) (size 9 to 14) (size 15 to 20)
#    0.000    1.867    2.667    2.800    3.733    2.133 
#    0.000    0.000    0.000    0.800    0.000    7.467 
#    0.000    0.000    0.000    0.000    0.000    0.000 
#
# Total GULP energy -334154.686805 kJ/mol
# GULP energy per Si atom -5569.244780 kJ/mol
# Density = 1.779632 g / cm^3
# Si number density = 17.836918 Si / 1000 Ang^3
#
#
#
# Elastic Constant Matrix: (Units=GPa)
#
#
# Indices 1 2 3 4 5 6 
#
# 1 43.7065 4.6809 18.9165 0.0000 0.0000 -1.6433
# 2 4.6809 43.7065 18.9165 0.0000 0.0000 1.6433
# 3 18.9165 18.9165 126.5580 0.0000 0.0000 0.0000
# 4 0.0000 0.0000 0.0000 22.4046 0.0000 0.0000
# 5 0.0000 0.0000 0.0000 0.0000 22.4046 0.0000
# 6 -1.6433 1.6433 0.0000 0.0000 0.0000 17.5527
#
#
#
# Elastic Compliance Matrix: (Units=1/GPa)
#
#
# Indices 1 2 3 4 5 6 
#
# 1 0.024615 -0.001213 -0.003498 0.000000 0.000000 0.002418
# 2 -0.001213 0.024615 -0.003498 0.000000 0.000000 -0.002418
# 3 -0.003498 -0.003498 0.008947 0.000000 0.000000 0.000000
# 4 0.000000 0.000000 0.000000 0.044634 0.000000 0.000000
# 5 0.000000 0.000000 0.000000 0.000000 0.044634 0.000000
# 6 0.002418 -0.002418 0.000000 0.000000 0.000000 0.057424
#
#
# Mechanical properties :
#
#
# Convention : Reuss Voigt Hill
#
# Bulk Modulus (GPa) = 23.94706 33.22207 28.58456
# Shear Modulus (GPa) = 21.25805 23.90285 22.58045
#
# Velocity S-wave (km/s) = 3.45599 3.66468 3.56186
# Velocity P-wave (km/s) = 5.42032 6.04751 5.74248
#
# Compressibility (1/GPa) = 0.04175879
#
# Stress axis : x y z
#
# Youngs Moduli (GPa) = 40.62628 40.62628 111.76768
#
# Poissons Ratio (x) = 0.04929 0.39094
# Poissons Ratio (y) = 0.04929 0.39094
# Poissons Ratio (z) = 0.14210 0.14210
#
# Static dielectric constant tensor:
#      x y z
#    x 1.617390 0.000000 0.000000 
#    y 0.000000 1.617390 0.000000 
#    z 0.000000 0.000000 1.673030 
# 
# From -- ./inp_files/4559.got.cif
#   From: 2010.05.17/outbox.cif.g08.bks.cpg/sg84_3_cif.got.tgz:4559.got - 2010.06.03 18:57:40.
