data_PCOD9544896
_publ_section_title
;
Structure prediction by ZEFSAII (Michael W. Deem and Ramdas Pophale) SiO2 
 PCOD9544896
Probable space group: P 42/N
;
_chemical_formula_sum "Si O2"
_cell_formula_units_Z 38
_cell_length_a 12.925625
_cell_length_b 12.925625
_cell_length_c 9.566899
_cell_angle_alpha 90.000000
_cell_angle_beta 90.000000
_cell_angle_gamma 90.000000
_cell_volume 1598.358861
_symmetry_space_group_name_H-M "P 42/N"
_symmetry_group_IT_number 86
_space_group.IT_coordinate_system_code '2'
_symmetry_cell_setting 'tetragonal'
loop_
_space_group_symop_operation_xyz
x,y,z
-y,1/2+x,1/2+z
1/2-x,1/2-y,z
1/2+y,-x,1/2+z
-x,-y,-z
y,1/2-x,1/2-z
1/2+x,1/2+y,-z
1/2-y,x,1/2-z
loop_
_atom_site_type_symbol
_atom_site_label
_atom_site_fract_x
_atom_site_fract_y
_atom_site_fract_z
Si Si1 0.059065 0.915200 0.092704
Si Si2 0.459102 0.440288 0.338922
Si Si3 0.750000 0.750000 0.750000
Si Si4 0.882384 0.193024 0.457363
Si Si5 0.250000 0.750000 0.788906
Si Si6 0.217740 0.438122 0.400772
O O1 0.183264 0.913681 0.059891
O O2 0.997930 0.813970 0.040091
O O3 0.033665 0.956455 0.246693
O O4 0.000000 0.000000 0.000000
O O5 0.465868 0.601558 0.541125
O O6 0.340256 0.433756 0.385299
O O7 0.487284 0.346235 0.227317
O O8 0.680443 0.686121 0.861107
O O9 0.809948 0.178204 0.320949
O O10 0.818110 0.186183 0.601380
#
# Coordination Sequence:
#
# PCOD9544896 Si02
#       6
#     8   8   2   8   4   8
#     4  10  20  33  60  92 134 175 234 288 352 426
#     4  10  18  34  59  94 134 174 235 286 355 423
#     4   8  16  28  48  84 136 182 240 272 358 444
#     4  11  22  42  65  96 135 184 240 296 358 424
#     4  10  24  42  68  88 132 184 238 302 344 424
#     4   9  17  30  52  91 131 181 224 290 343 431
#
# _framework density 23.774384999999999
#
# number of rings (size 3 to 8) (size 9 to 14) (size 15 to 20)
#    0.000    2.105    2.105    2.526    2.947    0.000 
#    0.000    1.053    4.632    0.000    0.000    0.000 
#    0.000    0.000    0.000    0.000    0.000    0.000 
#
# Total GULP energy -211574.103292 kJ/mol
# GULP energy per Si atom -5567.739560 kJ/mol
# Density = 2.372027 g / cm^3
# Si number density = 23.774385 Si / 1000 Ang^3
#
#
#
# Elastic Constant Matrix: (Units=GPa)
#
#
# Indices 1 2 3 4 5 6 
#
# 1 119.0468 43.3109 60.7939 0.0000 0.0000 -12.9439
# 2 43.3109 119.0468 60.7939 0.0000 0.0000 12.9439
# 3 60.7939 60.7939 159.1196 0.0000 0.0000 0.0000
# 4 0.0000 0.0000 0.0000 28.9513 0.0000 0.0000
# 5 0.0000 0.0000 0.0000 0.0000 28.9513 0.0000
# 6 -12.9439 12.9439 0.0000 0.0000 0.0000 49.1917
#
#
#
# Elastic Compliance Matrix: (Units=1/GPa)
#
#
# Indices 1 2 3 4 5 6 
#
# 1 0.011568 -0.002940 -0.003296 0.000000 0.000000 0.003818
# 2 -0.002940 0.011568 -0.003296 0.000000 0.000000 -0.003818
# 3 -0.003296 -0.003296 0.008803 0.000000 0.000000 0.000000
# 4 0.000000 0.000000 0.000000 0.034541 0.000000 0.000000
# 5 0.000000 0.000000 0.000000 0.000000 0.034541 0.000000
# 6 0.003818 -0.003818 0.000000 0.000000 0.000000 0.022338
#
#
# Mechanical properties :
#
#
# Convention : Reuss Voigt Hill
#
# Bulk Modulus (GPa) = 77.67836 80.77897 79.22867
# Shear Modulus (GPa) = 34.07922 36.90651 35.49287
#
# Velocity S-wave (km/s) = 3.79019 3.94428 3.86800
# Velocity P-wave (km/s) = 7.20404 7.40231 7.30385
#
# Compressibility (1/GPa) = 0.01287360
#
# Stress axis : x y z
#
# Youngs Moduli (GPa) = 86.44311 86.44311 113.59178
#
# Poissons Ratio (x) = 0.25418 0.37444
# Poissons Ratio (y) = 0.25418 0.37444
# Poissons Ratio (z) = 0.28495 0.28495
#
# Static dielectric constant tensor:
#      x y z
#    x 2.074170 0.000000 0.000000 
#    y 0.000000 2.074170 0.000000 
#    z 0.000000 0.000000 2.055730 
# 
# From -- ./inp_files/1058.got.cif
#   From: 2010.05.17/outbox.cif.g08.bks.cpg/sg86_1_cif.got.tgz:1058.got - 2010.06.03 19:03:11.
