data_PCOD9544491
_publ_section_title
;
Structure prediction by ZEFSAII (Michael W. Deem and Ramdas Pophale) SiO2 
 PCOD9544491
Probable space group: P 4/N
;
_chemical_formula_sum "Si O2"
_cell_formula_units_Z 58
_cell_length_a 17.689670
_cell_length_b 17.689670
_cell_length_c 7.481423
_cell_angle_alpha 90.000000
_cell_angle_beta 90.000000
_cell_angle_gamma 90.000000
_cell_volume 2341.119988
_symmetry_space_group_name_H-M "P 4/N"
_symmetry_group_IT_number 85
_symmetry_cell_setting 'tetragonal'
loop_
_space_group_symop_operation_xyz
x,y,z
1/2-y,x,z
1/2-x,1/2-y,z
y,1/2-x,z
-x,-y,-z
1/2+y,-x,-z
1/2+x,1/2+y,-z
-y,1/2+x,-z
loop_
_atom_site_type_symbol
_atom_site_label
_atom_site_fract_x
_atom_site_fract_y
_atom_site_fract_z
Si Si1 0.630337 0.400324 0.650242
Si Si2 0.341708 0.114037 0.644176
Si Si3 0.145633 0.507109 0.134746
Si Si4 0.013982 0.015761 0.708617
Si Si5 0.349044 0.327427 0.221230
Si Si6 0.025939 0.768004 0.497851
Si Si7 0.154434 0.802982 0.048016
Si Si8 0.250000 0.250000 0.785541
O O1 0.569094 0.451597 0.753894
O O2 0.682843 0.445719 0.514726
O O3 0.586718 0.330044 0.563281
O O4 0.681197 0.359520 0.796508
O O5 0.418554 0.075651 0.711593
O O6 0.347140 0.140252 0.433726
O O7 0.312857 0.182463 0.760474
O O8 0.280675 0.046035 0.627650
O O9 0.138087 0.416982 0.105097
O O10 0.202511 0.506344 0.303675
O O11 0.179697 0.567888 0.998643
O O12 0.061562 0.532555 0.192415
O O13 0.000000 0.000000 0.500000
O O14 0.262800 0.350705 0.185941
O O15 0.216407 0.828501 0.900713
#
# Coordination Sequence:
#
# PCOD9544491 Si02
#       8
#     8   8   8   8   8   8   8   2
#     4  11  24  41  65  94 130 171 216 277 333 400
#     4  10  20  33  54  96 126 166 207 271 336 393
#     4  11  23  40  63  95 128 179 213 275 339 403
#     4  11  22  38  61  95 133 167 217 277 335 395
#     4  10  18  32  58  97 130 167 219 276 331 398
#     4  10  23  36  64  95 125 164 215 270 330 388
#     4  11  26  46  64  89 131 175 225 274 338 411
#     4  12  20  32  60  88 136 174 204 264 352 402
#
# _framework density 24.774467999999999
#
# number of rings (size 3 to 8) (size 9 to 14) (size 15 to 20)
#    0.000    1.379    6.897    0.000    7.724    0.828 
#    2.483    0.000    0.000    0.000    0.000    0.000 
#    0.000    0.000    0.000    0.000    0.000    0.000 
#
# Total GULP energy -323691.706789 kJ/mol
# GULP energy per Si atom -5580.891496 kJ/mol
# Density = 2.471808 g / cm^3
# Si number density = 24.774468 Si / 1000 Ang^3
#
#
#
# Elastic Constant Matrix: (Units=GPa)
#
#
# Indices 1 2 3 4 5 6 
#
# 1 137.5151 56.2046 12.3534 0.0000 0.0000 20.0456
# 2 56.2046 137.5151 12.3534 0.0000 0.0000 -20.0456
# 3 12.3534 12.3534 38.4996 0.0000 0.0000 0.0000
# 4 0.0000 0.0000 0.0000 11.4888 0.0000 0.0000
# 5 0.0000 0.0000 0.0000 0.0000 11.4888 0.0000
# 6 20.0456 -20.0456 0.0000 0.0000 0.0000 46.6856
#
#
#
# Elastic Compliance Matrix: (Units=1/GPa)
#
#
# Indices 1 2 3 4 5 6 
#
# 1 0.010492 -0.005110 -0.001727 0.000000 0.000000 -0.006699
# 2 -0.005110 0.010492 -0.001727 0.000000 0.000000 0.006699
# 3 -0.001727 -0.001727 0.027083 0.000000 0.000000 0.000000
# 4 0.000000 0.000000 0.000000 0.087041 0.000000 0.000000
# 5 0.000000 0.000000 0.000000 0.000000 0.087041 0.000000
# 6 -0.006699 0.006699 0.000000 0.000000 0.000000 0.027173
#
#
# Mechanical properties :
#
#
# Convention : Reuss Voigt Hill
#
# Bulk Modulus (GPa) = 32.32152 52.81697 42.56925
# Shear Modulus (GPa) = 18.06606 29.44052 23.75329
#
# Velocity S-wave (km/s) = 2.70334 3.45097 3.09978
# Velocity P-wave (km/s) = 4.77689 6.10281 5.48010
#
# Compressibility (1/GPa) = 0.03093913
#
# Stress axis : x y z
#
# Youngs Moduli (GPa) = 95.31112 95.31112 36.92410
#
# Poissons Ratio (x) = 0.48700 0.06377
# Poissons Ratio (y) = 0.48700 0.06377
# Poissons Ratio (z) = 0.16461 0.16461
#
# Static dielectric constant tensor:
#      x y z
#    x 2.066350 0.000000 0.000000 
#    y 0.000000 2.066350 0.000000 
#    z 0.000000 0.000000 2.086630 
# 
# From -- ./inp_files/1210.got.cif
#   From: 2010.05.17/outbox.cif.g08.bks.cpg/sg85_cif.got.tgz:1210.got - 2010.06.03 19:01:16.
