data_PCOD9544382
_publ_section_title
;
Structure prediction by ZEFSAII (Michael W. Deem and Ramdas Pophale) SiO2 
 PCOD9544382
Probable space group: P 42/M
;
_chemical_formula_sum "Si O2"
_cell_formula_units_Z 48
_cell_length_a 17.476042
_cell_length_b 17.476042
_cell_length_c 8.474530
_cell_angle_alpha 90.000000
_cell_angle_beta 90.000000
_cell_angle_gamma 90.000000
_cell_volume 2588.223529
_symmetry_space_group_name_H-M "P 42/M"
_symmetry_group_IT_number 84
_symmetry_cell_setting 'tetragonal'
loop_
_space_group_symop_operation_xyz
x,y,z
-y,x,1/2+z
-x,-y,z
y,-x,1/2+z
-x,-y,-z
y,-x,1/2-z
x,y,-z
-y,x,1/2-z
loop_
_atom_site_type_symbol
_atom_site_label
_atom_site_fract_x
_atom_site_fract_y
_atom_site_fract_z
Si Si1 0.889123 0.005482 0.822171
Si Si2 0.726769 0.821286 0.308290
Si Si3 0.000988 0.727277 0.188705
Si Si4 0.575023 0.288919 0.810198
Si Si5 0.692292 0.154421 0.190647
Si Si6 0.596422 0.703098 0.690244
O O1 0.942661 0.078497 0.797655
O O2 0.804311 0.023801 0.776728
O O3 0.895967 0.976981 0.000000
O O4 0.729560 0.821219 0.500000
O O5 0.717196 0.910129 0.260446
O O6 0.801913 0.771807 0.258322
O O7 0.652927 0.771851 0.259034
O O8 0.928977 0.675056 0.236779
O O9 0.001263 0.735283 0.000000
O O10 0.625224 0.214382 0.767696
O O11 0.489575 0.288284 0.747105
O O12 0.624539 0.362481 0.756930
O O13 0.572183 0.290803 0.000000
O O14 0.695480 0.147473 0.000000
O O15 0.596812 0.703400 0.500000
#
# Coordination Sequence:
#
# PCOD9544382 Si02
#       6
#     8   8   8   8   8   8
#     4  11  21  33  47  67  96 129 168 216 270 319
#     4   8  17  34  53  71  97 136 175 210 251 304
#     4  11  20  31  50  75  99 129 175 221 260 306
#     4   9  19  35  55  80 107 135 168 207 254 308
#     4   9  18  35  54  71 100 140 175 211 259 309
#     4   9  18  35  57  78 103 136 169 202 249 307
#
# _framework density 18.545538000000001
#
# number of rings (size 3 to 8) (size 9 to 14) (size 15 to 20)
#    0.000    2.500    0.000    5.500    0.000    3.000 
#    0.000    7.500    0.000    5.000    0.000    0.000 
#    0.000    0.000    0.000    0.000    0.000    0.000 
#
# Total GULP energy -267419.333107 kJ/mol
# GULP energy per Si atom -5571.236106 kJ/mol
# Density = 1.850333 g / cm^3
# Si number density = 18.545538 Si / 1000 Ang^3
#
#
#
# Elastic Constant Matrix: (Units=GPa)
#
#
# Indices 1 2 3 4 5 6 
#
# 1 123.6484 44.7734 16.2702 0.0000 0.0000 -1.0835
# 2 44.7734 123.6484 16.2702 0.0000 0.0000 1.0835
# 3 16.2702 16.2702 24.9461 0.0000 0.0000 0.0000
# 4 0.0000 0.0000 0.0000 2.1471 0.0000 0.0000
# 5 0.0000 0.0000 0.0000 0.0000 2.1471 0.0000
# 6 -1.0835 1.0835 0.0000 0.0000 0.0000 27.3503
#
#
#
# Elastic Compliance Matrix: (Units=1/GPa)
#
#
# Indices 1 2 3 4 5 6 
#
# 1 0.009743 -0.002949 -0.004431 0.000000 0.000000 0.000503
# 2 -0.002949 0.009743 -0.004431 0.000000 0.000000 -0.000503
# 3 -0.004431 -0.004431 0.045866 0.000000 0.000000 0.000000
# 4 0.000000 0.000000 0.000000 0.465740 0.000000 0.000000
# 5 0.000000 0.000000 0.000000 0.000000 0.465740 0.000000
# 6 0.000503 -0.000503 0.000000 0.000000 0.000000 0.036603
#
#
# Mechanical properties :
#
#
# Convention : Reuss Voigt Hill
#
# Bulk Modulus (GPa) = 23.96369 47.43007 35.69688
# Shear Modulus (GPa) = 4.66868 19.32417 11.99643
#
# Velocity S-wave (km/s) = 1.58836 3.23148 2.54611
# Velocity P-wave (km/s) = 4.03899 6.28918 5.28522
#
# Compressibility (1/GPa) = 0.04172980
#
# Stress axis : x y z
#
# Youngs Moduli (GPa) = 102.63961 102.63961 21.80258
#
# Poissons Ratio (x) = 0.30271 0.09660
# Poissons Ratio (y) = 0.30271 0.09660
# Poissons Ratio (z) = 0.45478 0.45478
#
# Static dielectric constant tensor:
#      x y z
#    x 1.655830 0.000000 0.000000 
#    y 0.000000 1.655830 0.000000 
#    z 0.000000 0.000000 1.698220 
# 
# From -- ./inp_files/990.got.cif
#   From: 2010.05.17/outbox.cif.g08.bks.cpg/sg84_1_cif.got.tgz:990.got - 2010.06.03 18:57:40.
