data_PCOD9544007
_publ_section_title
;
Structure prediction by ZEFSAII (Michael W. Deem and Ramdas Pophale) SiO2 
 PCOD9544007
Probable space group: P 42/M
;
_chemical_formula_sum "Si O2"
_cell_formula_units_Z 64
_cell_length_a 20.599118
_cell_length_b 20.599118
_cell_length_c 8.447581
_cell_angle_alpha 90.000000
_cell_angle_beta 90.000000
_cell_angle_gamma 90.000000
_cell_volume 3584.508508
_symmetry_space_group_name_H-M "P 42/M"
_symmetry_group_IT_number 84
_symmetry_cell_setting 'tetragonal'
loop_
_space_group_symop_operation_xyz
x,y,z
-y,x,1/2+z
-x,-y,z
y,-x,1/2+z
-x,-y,-z
y,-x,1/2-z
x,y,-z
-y,x,1/2-z
loop_
_atom_site_type_symbol
_atom_site_label
_atom_site_fract_x
_atom_site_fract_y
_atom_site_fract_z
Si Si1 0.717017 0.797036 0.810715
Si Si2 0.942829 0.626018 0.807012
Si Si3 0.907071 0.368881 0.811891
Si Si4 0.413287 0.541062 0.320766
Si Si5 0.857230 0.504979 0.311930
Si Si6 0.395674 0.754610 0.187668
Si Si7 0.318457 0.627882 0.184922
Si Si8 0.279885 0.836678 0.316307
O O1 0.689911 0.866878 0.763884
O O2 0.664866 0.745277 0.744231
O O3 0.789045 0.776151 0.749817
O O4 0.717969 0.790524 0.000000
O O5 0.907157 0.561952 0.740267
O O6 0.904383 0.691184 0.752034
O O7 0.017922 0.627762 0.760392
O O8 0.938806 0.622925 0.000000
O O9 0.873541 0.437405 0.769899
O O10 0.905832 0.360535 0.000000
O O11 0.465273 0.574183 0.204382
O O12 0.428829 0.559325 0.500000
O O13 0.341726 0.565036 0.278739
O O14 0.862206 0.495327 0.500000
O O15 0.786009 0.534889 0.275876
O O16 0.376937 0.680194 0.208237
O O17 0.343769 0.791953 0.295963
O O18 0.383004 0.769422 0.000000
O O19 0.311713 0.613741 0.000000
O O20 0.264202 0.848031 0.500000
#
# Coordination Sequence:
#
# PCOD9544007 Si02
#       8
#     8   8   8   8   8   8   8   8
#     4  10  20  34  51  72  97 123 154 195 240 282
#     4   9  18  33  51  70  94 128 168 201 235 285
#     4  11  22  33  46  68 101 135 162 193 237 289
#     4  11  22  37  53  69  88 112 148 196 249 300
#     4  10  19  31  47  69  98 131 167 205 241 278
#     4   8  16  29  46  67  90 118 154 194 233 276
#     4  10  19  34  53  71  92 120 155 195 244 298
#     4   8  15  30  51  69  87 117 157 197 232 270
#
# _framework density 17.854610999999998
#
# number of rings (size 3 to 8) (size 9 to 14) (size 15 to 20)
#    0.000    2.375    0.000    3.375    0.000    5.000 
#    0.000    3.750    0.000    0.000    0.000    0.000 
#    0.000    0.500    0.000    6.250    0.000    0.000 
#
# Total GULP energy -356690.682397 kJ/mol
# GULP energy per Si atom -5573.291912 kJ/mol
# Density = 1.781397 g / cm^3
# Si number density = 17.854611 Si / 1000 Ang^3
#
#
#
# Elastic Constant Matrix: (Units=GPa)
#
#
# Indices 1 2 3 4 5 6 
#
# 1 37.1726 41.2677 5.3603 0.0000 0.0000 5.2639
# 2 41.2677 37.1726 5.3603 0.0000 0.0000 -5.2639
# 3 5.3603 5.3603 21.5359 0.0000 0.0000 0.0000
# 4 0.0000 0.0000 0.0000 19.1128 0.0000 0.0000
# 5 0.0000 0.0000 0.0000 0.0000 19.1128 0.0000
# 6 5.2639 -5.2639 0.0000 0.0000 0.0000 22.2521
#
#
#
# Elastic Compliance Matrix: (Units=1/GPa)
#
#
# Indices 1 2 3 4 5 6 
#
# 1 -0.069325 0.082523 -0.003285 0.000000 0.000000 0.035921
# 2 0.082523 -0.069325 -0.003285 0.000000 0.000000 -0.035921
# 3 -0.003285 -0.003285 0.048069 0.000000 0.000000 0.000000
# 4 0.000000 0.000000 0.000000 0.052321 0.000000 0.000000
# 5 0.000000 0.000000 0.000000 0.000000 0.052321 0.000000
# 6 0.035921 -0.035921 0.000000 0.000000 0.000000 0.027945
#
#
# Mechanical properties :
#
#
# Convention : Reuss Voigt Hill
#
# Bulk Modulus (GPa) = 16.30663 22.20641 19.25652
# Shear Modulus (GPa) = -55.89168 15.02171 -20.43498
#
# Velocity S-wave (km/s) = -5.60105 2.90372 -3.38675
# Velocity P-wave (km/s) = 5.71631 4.86893 2.11774
#
# Compressibility (1/GPa) = 0.06132475
#
# Stress axis : x y z
#
# Youngs Moduli (GPa) = -14.42475 -14.42475 20.80334
#
# Poissons Ratio (x) = 1.19037 0.06834
# Poissons Ratio (y) = 1.19037 0.06834
# Poissons Ratio (z) = -0.04738 -0.04738
#
# Static dielectric constant tensor:
#      x y z
#    x 1.632360 0.000000 0.000000 
#    y 0.000000 1.632360 0.000000 
#    z 0.000000 0.000000 1.616910 
# 
# From -- ./inp_files/1376.got.cif
#   From: 2010.05.17/outbox.cif.g08.bks.cpg/sg84_1_cif.got.tgz:1376.got - 2010.06.03 18:57:40.
