data_PCOD9544370
_publ_section_title
;
Structure prediction by ZEFSAII (Michael W. Deem and Ramdas Pophale) SiO2 
 PCOD9544370
Probable space group: P 42/M
;
_chemical_formula_sum "Si O2"
_cell_formula_units_Z 18
_cell_length_a 5.220310
_cell_length_b 5.220310
_cell_length_c 27.045938
_cell_angle_alpha 90.000000
_cell_angle_beta 90.000000
_cell_angle_gamma 90.000000
_cell_volume 737.046071
_symmetry_space_group_name_H-M "P 42/M"
_symmetry_group_IT_number 84
_symmetry_cell_setting 'tetragonal'
loop_
_space_group_symop_operation_xyz
x,y,z
-y,x,1/2+z
-x,-y,z
y,-x,1/2+z
-x,-y,-z
y,-x,1/2-z
x,y,-z
-y,x,1/2-z
loop_
_atom_site_type_symbol
_atom_site_label
_atom_site_fract_x
_atom_site_fract_y
_atom_site_fract_z
Si Si1 0.500000 0.500000 0.250000
Si Si2 0.257306 0.670278 0.390211
Si Si3 0.500000 0.000000 0.684585
Si Si4 0.173737 0.752608 0.500000
O O1 0.755859 0.438824 0.218675
O O2 0.500000 0.500000 0.376249
O O3 0.275310 0.906776 0.352655
O O4 0.309564 0.751101 0.447111
O O5 0.000000 0.500000 0.387482
O O6 0.000000 0.500000 0.500000
O O7 0.000000 0.000000 0.500000
#
# Coordination Sequence:
#
# PCOD9544370 Si02
#       4
#     2   8   4   4
#     4  12  32  52  80 114 152 204 272 348 392 466
#     4  11  27  50  81 118 159 207 255 318 390 478
#     4  12  30  55  82 114 156 207 272 332 408 464
#     4  10  25  45  75 117 162 200 252 309 383 471
#
# _framework density 24.421807000000001
#
# number of rings (size 3 to 8) (size 9 to 14) (size 15 to 20)
#    0.000    0.889    2.222    0.667   15.556    5.333 
#    0.000    0.000    0.000    0.000    0.000    0.000 
#    0.000    0.000    0.000    0.000    0.000    0.000 
#
# Total GULP energy -100724.399667 kJ/mol
# GULP energy per Si atom -5595.799982 kJ/mol
# Density = 2.436622 g / cm^3
# Si number density = 24.421807 Si / 1000 Ang^3
#
#
#
# Elastic Constant Matrix: (Units=GPa)
#
#
# Indices 1 2 3 4 5 6 
#
# 1 164.4062 58.8300 70.5659 0.0000 0.0000 2.8734
# 2 58.8300 164.4062 70.5659 0.0000 0.0000 -2.8734
# 3 70.5659 70.5659 200.5261 0.0000 0.0000 0.0000
# 4 0.0000 0.0000 0.0000 77.4881 0.0000 0.0000
# 5 0.0000 0.0000 0.0000 0.0000 77.4881 0.0000
# 6 2.8734 -2.8734 0.0000 0.0000 0.0000 45.6897
#
#
#
# Elastic Compliance Matrix: (Units=1/GPa)
#
#
# Indices 1 2 3 4 5 6 
#
# 1 0.007633 -0.001872 -0.002027 0.000000 0.000000 -0.000598
# 2 -0.001872 0.007633 -0.002027 0.000000 0.000000 0.000598
# 3 -0.002027 -0.002027 0.006414 0.000000 0.000000 0.000000
# 4 0.000000 0.000000 0.000000 0.012905 0.000000 0.000000
# 5 0.000000 0.000000 0.000000 0.000000 0.012905 0.000000
# 6 -0.000598 0.000598 0.000000 0.000000 0.000000 0.021962
#
#
# Mechanical properties :
#
#
# Convention : Reuss Voigt Hill
#
# Bulk Modulus (GPa) = 101.76336 103.25135 102.50736
# Shear Modulus (GPa) = 59.11549 62.09163 60.60356
#
# Velocity S-wave (km/s) = 4.92530 5.04776 4.98690
# Velocity P-wave (km/s) = 8.60838 8.73746 8.67316
#
# Compressibility (1/GPa) = 0.00982672
#
# Stress axis : x y z
#
# Youngs Moduli (GPa) = 131.01279 131.01279 155.91378
#
# Poissons Ratio (x) = 0.24519 0.31610
# Poissons Ratio (y) = 0.24519 0.31610
# Poissons Ratio (z) = 0.26562 0.26562
#
# Static dielectric constant tensor:
#      x y z
#    x 1.372860 0.000000 0.000000 
#    y 0.000000 1.372860 0.000000 
#    z 0.000000 0.000000 2.081430 
# 
# From -- ./inp_files/5142.got.cif
#   From: 2010.05.17/outbox.cif.g08.bks.cpg/sg84_3_cif.got.tgz:5142.got - 2010.06.03 18:57:40.
