data_PCOD9544562
_publ_section_title
;
Structure prediction by ZEFSAII (Michael W. Deem and Ramdas Pophale) SiO2 
 PCOD9544562
Probable space group: P 4/N
;
_chemical_formula_sum "Si O2"
_cell_formula_units_Z 34
_cell_length_a 14.431485
_cell_length_b 14.431485
_cell_length_c 8.189383
_cell_angle_alpha 90.000000
_cell_angle_beta 90.000000
_cell_angle_gamma 90.000000
_cell_volume 1705.584448
_symmetry_space_group_name_H-M "P 4/N"
_symmetry_group_IT_number 85
_symmetry_cell_setting 'tetragonal'
loop_
_space_group_symop_operation_xyz
x,y,z
1/2-y,x,z
1/2-x,1/2-y,z
y,1/2-x,z
-x,-y,-z
1/2+y,-x,-z
1/2+x,1/2+y,-z
-y,1/2+x,-z
loop_
_atom_site_type_symbol
_atom_site_label
_atom_site_fract_x
_atom_site_fract_y
_atom_site_fract_z
Si Si1 0.154352 0.506359 0.931841
Si Si2 0.545827 0.725749 0.392183
Si Si3 0.908036 0.954719 0.572002
Si Si4 0.750000 0.750000 0.274593
Si Si5 0.637629 0.508205 0.948974
O O1 0.177607 0.519633 0.740254
O O2 0.090130 0.590439 0.994266
O O3 0.252581 0.494270 0.021835
O O4 0.088903 0.416093 0.952792
O O5 0.509082 0.818847 0.473301
O O6 0.579691 0.654524 0.531395
O O7 0.636768 0.753168 0.290151
O O8 0.889573 0.971665 0.761447
O O9 0.000000 0.000000 0.500000
#
# Coordination Sequence:
#
# PCOD9544562 Si02
#       5
#     8   8   8   2   8
#     4  11  24  41  67  95 134 172 220 266 330 386
#     4  10  20  37  61  94 127 164 207 267 324 381
#     4  11  21  39  65  95 128 163 216 264 320 381
#     4   8  16  28  56  86 116 152 200 250 316 364
#     4  11  24  42  65  99 129 175 218 274 320 395
#
# _framework density 19.934515000000001
#
# number of rings (size 3 to 8) (size 9 to 14) (size 15 to 20)
#    0.000    1.412    2.353    4.235    3.294    0.941 
#    0.000    2.353    0.000    0.706    0.000    0.000 
#    0.000    0.000    0.000    0.000    0.000    0.000 
#
# Total GULP energy -189278.748959 kJ/mol
# GULP energy per Si atom -5567.022028 kJ/mol
# Density = 1.988914 g / cm^3
# Si number density = 19.934515 Si / 1000 Ang^3
#
#
#
# Elastic Constant Matrix: (Units=GPa)
#
#
# Indices 1 2 3 4 5 6 
#
# 1 122.8273 43.8210 28.3782 0.0000 0.0000 0.7383
# 2 43.8210 122.8273 28.3782 0.0000 0.0000 -0.7383
# 3 28.3782 28.3782 84.8777 0.0000 0.0000 0.0000
# 4 0.0000 0.0000 0.0000 27.6025 0.0000 0.0000
# 5 0.0000 0.0000 0.0000 0.0000 27.6025 0.0000
# 6 0.7383 -0.7383 0.0000 0.0000 0.0000 26.7638
#
#
#
# Elastic Compliance Matrix: (Units=1/GPa)
#
#
# Indices 1 2 3 4 5 6 
#
# 1 0.009718 -0.002946 -0.002264 0.000000 0.000000 -0.000349
# 2 -0.002946 0.009718 -0.002264 0.000000 0.000000 0.000349
# 3 -0.002264 -0.002264 0.013296 0.000000 0.000000 0.000000
# 4 0.000000 0.000000 0.000000 0.036229 0.000000 0.000000
# 5 0.000000 0.000000 0.000000 0.000000 0.036229 0.000000
# 6 -0.000349 0.000349 0.000000 0.000000 0.000000 0.037383
#
#
# Mechanical properties :
#
#
# Convention : Reuss Voigt Hill
#
# Bulk Modulus (GPa) = 56.23418 59.07637 57.65528
# Shear Modulus (GPa) = 30.59085 31.72406 31.15745
#
# Velocity S-wave (km/s) = 3.92160 3.99358 3.95776
# Velocity P-wave (km/s) = 6.98398 7.13894 7.06189
#
# Compressibility (1/GPa) = 0.01778278
#
# Stress axis : x y z
#
# Youngs Moduli (GPa) = 102.90440 102.90440 75.21277
#
# Poissons Ratio (x) = 0.30316 0.17029
# Poissons Ratio (y) = 0.30316 0.17029
# Poissons Ratio (z) = 0.23298 0.23298
#
# Static dielectric constant tensor:
#      x y z
#    x 1.719700 0.000000 0.000000 
#    y 0.000000 1.719700 0.000000 
#    z 0.000000 0.000000 1.759780 
# 
# From -- ./inp_files/762.got.cif
#   From: 2010.05.17/outbox.cif.g08.bks.cpg/sg85_cif.got.tgz:762.got - 2010.06.03 19:01:16.
