data_PCOD9544672
_publ_section_title
;
Structure prediction by ZEFSAII (Michael W. Deem and Ramdas Pophale) SiO2 
 PCOD9544672
Probable space group: P 4/N
;
_chemical_formula_sum "Si O2"
_cell_formula_units_Z 48
_cell_length_a 13.696177
_cell_length_b 13.696177
_cell_length_c 10.665031
_cell_angle_alpha 90.000000
_cell_angle_beta 90.000000
_cell_angle_gamma 90.000000
_cell_volume 2000.602660
_symmetry_space_group_name_H-M "P 4/N"
_symmetry_group_IT_number 85
_symmetry_cell_setting 'tetragonal'
loop_
_space_group_symop_operation_xyz
x,y,z
1/2-y,x,z
1/2-x,1/2-y,z
y,1/2-x,z
-x,-y,-z
1/2+y,-x,-z
1/2+x,1/2+y,-z
-y,1/2+x,-z
loop_
_atom_site_type_symbol
_atom_site_label
_atom_site_fract_x
_atom_site_fract_y
_atom_site_fract_z
Si Si1 0.650569 0.871046 0.320745
Si Si2 0.587502 0.381084 0.724840
Si Si3 0.551401 0.909820 0.572286
Si Si4 0.971052 0.850196 0.832058
Si Si5 0.501548 0.842720 0.948465
Si Si6 0.644008 0.203039 0.835094
O O1 0.619108 0.763408 0.280549
O O2 0.624393 0.866842 0.469406
O O3 0.601196 0.970908 0.276051
O O4 0.640916 0.453055 0.626818
O O5 0.622698 0.413053 0.860765
O O6 0.611161 0.267111 0.714809
O O7 0.611117 0.933802 0.698239
O O8 0.500000 0.000000 0.500000
O O9 0.940917 0.743235 0.876454
O O10 0.932856 0.923416 0.940962
O O11 0.087826 0.845229 0.817734
O O12 0.447105 0.796163 0.067386
O O13 0.750000 0.250000 0.868506
#
# Coordination Sequence:
#
# PCOD9544672 Si02
#       6
#     8   8   8   8   8   8
#     4  10  23  42  70  99 133 187 242 302 380 452
#     4  10  23  40  66  96 143 177 240 304 353 439
#     4   9  22  44  65  96 137 178 236 296 367 427
#     4  11  25  42  71 105 143 188 240 299 369 429
#     4  11  25  45  68 104 142 193 244 296 369 432
#     4  12  25  43  72 102 145 192 248 300 370 449
#
# _framework density 23.99277
#
# number of rings (size 3 to 8) (size 9 to 14) (size 15 to 20)
#    0.000    1.500    1.667    1.500   14.000    1.667 
#    0.000    0.000    0.000    0.000    0.000    0.000 
#    0.000    0.000    0.000    0.000    0.000    0.000 
#
# Total GULP energy -267489.833162 kJ/mol
# GULP energy per Si atom -5572.704858 kJ/mol
# Density = 2.393816 g / cm^3
# Si number density = 23.992770 Si / 1000 Ang^3
#
#
#
# Elastic Constant Matrix: (Units=GPa)
#
#
# Indices 1 2 3 4 5 6 
#
# 1 113.2763 22.2935 16.5603 0.0000 0.0000 14.9622
# 2 22.2935 113.2763 16.5603 0.0000 0.0000 -14.9622
# 3 16.5603 16.5603 60.4497 0.0000 0.0000 0.0000
# 4 0.0000 0.0000 0.0000 29.8014 0.0000 0.0000
# 5 0.0000 0.0000 0.0000 0.0000 29.8014 0.0000
# 6 14.9622 -14.9622 0.0000 0.0000 0.0000 25.0590
#
#
#
# Elastic Compliance Matrix: (Units=1/GPa)
#
#
# Indices 1 2 3 4 5 6 
#
# 1 0.010791 -0.002886 -0.002166 0.000000 0.000000 -0.008166
# 2 -0.002886 0.010791 -0.002166 0.000000 0.000000 0.008166
# 3 -0.002166 -0.002166 0.017729 0.000000 0.000000 0.000000
# 4 0.000000 0.000000 0.000000 0.033555 0.000000 0.000000
# 5 0.000000 0.000000 0.000000 0.000000 0.033555 0.000000
# 6 -0.008166 0.008166 0.000000 0.000000 0.000000 0.049658
#
#
# Mechanical properties :
#
#
# Convention : Reuss Voigt Hill
#
# Bulk Modulus (GPa) = 40.19740 44.20340 42.20040
# Shear Modulus (GPa) = 27.96312 32.37157 30.16734
#
# Velocity S-wave (km/s) = 3.41762 3.67716 3.54976
# Velocity P-wave (km/s) = 5.68892 6.04089 5.86754
#
# Compressibility (1/GPa) = 0.02487723
#
# Stress axis : x y z
#
# Youngs Moduli (GPa) = 92.66827 92.66827 56.40389
#
# Poissons Ratio (x) = 0.26742 0.12215
# Poissons Ratio (y) = 0.26742 0.12215
# Poissons Ratio (z) = 0.20069 0.20069
#
# Static dielectric constant tensor:
#      x y z
#    x 1.988050 0.000000 0.000000 
#    y 0.000000 1.988050 0.000000 
#    z 0.000000 0.000000 1.960820 
# 
# From -- ./inp_files/1667.got.cif
#   From: 2010.05.17/outbox.cif.g08.bks.cpg/sg85_cif.got.tgz:1667.got - 2010.06.03 19:01:16.
