data_PCOD9544876
_publ_section_title
;
Structure prediction by ZEFSAII (Michael W. Deem and Ramdas Pophale) SiO2 
 PCOD9544876
Probable space group: P 42/N
;
_chemical_formula_sum "Si O2"
_cell_formula_units_Z 26
_cell_length_a 8.512492
_cell_length_b 8.512492
_cell_length_c 15.362972
_cell_angle_alpha 90.000000
_cell_angle_beta 90.000000
_cell_angle_gamma 90.000000
_cell_volume 1113.239667
_symmetry_space_group_name_H-M "P 42/N"
_symmetry_group_IT_number 86
_space_group.IT_coordinate_system_code '2'
_symmetry_cell_setting 'tetragonal'
loop_
_space_group_symop_operation_xyz
x,y,z
-y,1/2+x,1/2+z
1/2-x,1/2-y,z
1/2+y,-x,1/2+z
-x,-y,-z
y,1/2-x,1/2-z
1/2+x,1/2+y,-z
1/2-y,x,1/2-z
loop_
_atom_site_type_symbol
_atom_site_label
_atom_site_fract_x
_atom_site_fract_y
_atom_site_fract_z
Si Si1 0.177718 0.001656 0.727535
Si Si2 0.938944 0.776045 0.050290
Si Si3 0.250000 0.250000 0.250000
Si Si4 0.998258 0.880021 0.870476
O O1 0.063499 0.150480 0.745507
O O2 0.173306 0.975338 0.624159
O O3 0.124119 0.868484 0.793490
O O4 0.750000 0.750000 0.054298
O O5 0.995805 0.759702 0.951138
O O6 0.972310 0.952719 0.083828
O O7 0.133311 0.337985 0.315860
#
# Coordination Sequence:
#
# PCOD9544876 Si02
#       4
#     8   8   2   8
#     4   9  15  32  60  90 121 164 220 266 310 383
#     4  10  17  36  67  95 121 174 226 272 320 390
#     4  12  24  40  52  92 150 168 196 280 340 380
#     4  10  21  34  62  94 132 171 214 269 333 391
#
# _framework density 23.355260999999999
#
# number of rings (size 3 to 8) (size 9 to 14) (size 15 to 20)
#    0.000    2.154    7.692    0.000    0.000    0.000 
#    0.000    7.692    0.000    7.385    0.000    0.000 
#    0.000    0.000    0.000    0.000    0.000    0.000 
#
# Total GULP energy -144898.956717 kJ/mol
# GULP energy per Si atom -5573.036797 kJ/mol
# Density = 2.330210 g / cm^3
# Si number density = 23.355261 Si / 1000 Ang^3
#
#
#
# Elastic Constant Matrix: (Units=GPa)
#
#
# Indices 1 2 3 4 5 6 
#
# 1 45.3137 45.3533 40.4744 0.0000 0.0000 4.5917
# 2 45.3533 45.3137 40.4744 0.0000 0.0000 -4.5917
# 3 40.4744 40.4744 271.9990 0.0000 0.0000 0.0000
# 4 0.0000 0.0000 0.0000 -15.8919 0.0000 0.0000
# 5 0.0000 0.0000 0.0000 0.0000 -15.8919 0.0000
# 6 4.5917 -4.5917 0.0000 0.0000 0.0000 31.5367
#
#
#
# Elastic Compliance Matrix: (Units=1/GPa)
#
#
# Indices 1 2 3 4 5 6 
#
# 1 -0.356834 0.369553 -0.001893 0.000000 0.000000 0.105761
# 2 0.369553 -0.356834 -0.001893 0.000000 0.000000 -0.105761
# 3 -0.001893 -0.001893 0.004240 0.000000 0.000000 0.000000
# 4 0.000000 0.000000 0.000000 -0.062925 0.000000 0.000000
# 5 0.000000 0.000000 0.000000 0.000000 -0.062925 0.000000
# 6 0.105761 -0.105761 0.000000 0.000000 0.000000 0.000912
#
#
# Mechanical properties :
#
#
# Convention : Reuss Voigt Hill
#
# Bulk Modulus (GPa) = 45.23363 68.35897 56.79630
# Shear Modulus (GPa) = -3.20815 15.70555 6.24870
#
# Velocity S-wave (km/s) = -1.17329 2.59600 1.63747
# Velocity P-wave (km/s) = 4.19216 6.19018 5.28643
#
# Compressibility (1/GPa) = 0.02210744
#
# Stress axis : x y z
#
# Youngs Moduli (GPa) = -2.80243 -2.80243 235.86282
#
# Poissons Ratio (x) = 1.03564 0.44641
# Poissons Ratio (y) = 1.03564 0.44641
# Poissons Ratio (z) = -0.00530 -0.00530
#
# Static dielectric constant tensor:
#      x y z
#    x 1.927250 0.000000 0.000000 
#    y 0.000000 1.927250 0.000000 
#    z 0.000000 0.000000 1.958460 
# 
# From -- ./inp_files/3302.got.cif
#   From: 2010.05.17/outbox.cif.g08.bks.cpg/sg86_2_cif.got.tgz:3302.got - 2010.06.03 19:03:11.
