data_PCOD9544038
_publ_section_title
;
Structure prediction by ZEFSAII (Michael W. Deem and Ramdas Pophale) SiO2 
 PCOD9544038
Probable space group: P 42/M
;
_chemical_formula_sum "Si O2"
_cell_formula_units_Z 56
_cell_length_a 14.274778
_cell_length_b 14.274778
_cell_length_c 15.009183
_cell_angle_alpha 90.000000
_cell_angle_beta 90.000000
_cell_angle_gamma 90.000000
_cell_volume 3058.410518
_symmetry_space_group_name_H-M "P 42/M"
_symmetry_group_IT_number 84
_symmetry_cell_setting 'tetragonal'
loop_
_space_group_symop_operation_xyz
x,y,z
-y,x,1/2+z
-x,-y,z
y,-x,1/2+z
-x,-y,-z
y,-x,1/2-z
x,y,-z
-y,x,1/2-z
loop_
_atom_site_type_symbol
_atom_site_label
_atom_site_fract_x
_atom_site_fract_y
_atom_site_fract_z
Si Si1 0.475083 0.608041 0.099521
Si Si2 0.558412 0.904577 0.101341
Si Si3 0.258410 0.991265 0.104565
Si Si4 0.084405 0.894381 0.288252
Si Si5 0.527119 0.239431 0.759531
Si Si6 0.260209 0.798299 0.207031
Si Si7 0.250457 0.613481 0.898810
O O1 0.500000 0.500000 0.110697
O O2 0.503516 0.666969 0.186350
O O3 0.363217 0.617986 0.095437
O O4 0.511200 0.637188 0.000000
O O5 0.508050 0.838886 0.171496
O O6 0.500000 0.000000 0.096805
O O7 0.662183 0.934071 0.132059
O O8 0.561488 0.865771 0.000000
O O9 0.278350 0.890536 0.147431
O O10 0.157020 0.029849 0.132572
O O11 0.266787 0.981180 0.000000
O O12 0.177511 0.834894 0.270424
O O13 0.890095 0.995418 0.290354
O O14 0.639948 0.232191 0.750810
O O15 0.472804 0.228794 0.666797
O O16 0.223569 0.711098 0.148501
O O17 0.214225 0.604492 0.000000
#
# Coordination Sequence:
#
# PCOD9544038 Si02
#       7
#     8   8   8   8   8   8   8
#     4   9  20  35  52  75 106 142 183 232 277 330
#     4  10  19  32  53  86 115 138 179 237 290 337
#     4  10  19  34  58  85 114 140 175 231 293 341
#     4   9  19  37  58  83 112 141 179 228 281 343
#     4  11  21  33  58  79 109 152 190 226 284 339
#     4  10  20  36  57  81 105 148 187 228 280 341
#     4  10  22  36  51  76 109 146 194 233 266 326
#
# _framework density 18.310165999999999
#
# number of rings (size 3 to 8) (size 9 to 14) (size 15 to 20)
#    0.000    2.143    1.429    1.714    4.000    1.143 
#    0.000    7.143    0.000    0.429    0.000    0.000 
#    0.000    0.000    0.000    0.000    0.000    0.000 
#
# Total GULP energy -311955.157442 kJ/mol
# GULP energy per Si atom -5570.627811 kJ/mol
# Density = 1.826849 g / cm^3
# Si number density = 18.310166 Si / 1000 Ang^3
#
#
#
# Elastic Constant Matrix: (Units=GPa)
#
#
# Indices 1 2 3 4 5 6 
#
# 1 64.5366 15.3435 25.8415 0.0000 0.0000 -1.9049
# 2 15.3435 64.5366 25.8415 0.0000 0.0000 1.9049
# 3 25.8415 25.8415 67.4485 0.0000 0.0000 0.0000
# 4 0.0000 0.0000 0.0000 -4.6951 0.0000 0.0000
# 5 0.0000 0.0000 0.0000 0.0000 -4.6951 0.0000
# 6 -1.9049 1.9049 0.0000 0.0000 0.0000 26.3911
#
#
#
# Elastic Compliance Matrix: (Units=1/GPa)
#
#
# Indices 1 2 3 4 5 6 
#
# 1 0.018544 -0.001899 -0.006377 0.000000 0.000000 0.001476
# 2 -0.001899 0.018544 -0.006377 0.000000 0.000000 -0.001476
# 3 -0.006377 -0.006377 0.019713 0.000000 0.000000 0.000000
# 4 0.000000 0.000000 0.000000 -0.212988 0.000000 0.000000
# 5 0.000000 0.000000 0.000000 0.000000 -0.212988 0.000000
# 6 0.001476 -0.001476 0.000000 0.000000 0.000000 0.038105
#
#
# Mechanical properties :
#
#
# Convention : Reuss Voigt Hill
#
# Bulk Modulus (GPa) = 36.37187 36.73056 36.55121
# Shear Modulus (GPa) = -17.08812 12.03319 -2.52747
#
# Velocity S-wave (km/s) = -3.05824 2.56635 -1.17616
# Velocity P-wave (km/s) = 2.72708 5.37450 4.26159
#
# Compressibility (1/GPa) = 0.02749377
#
# Stress axis : x y z
#
# Youngs Moduli (GPa) = 53.92707 53.92707 50.72884
#
# Poissons Ratio (x) = 0.10239 0.32350
# Poissons Ratio (y) = 0.10239 0.32350
# Poissons Ratio (z) = 0.34390 0.34390
#
# Static dielectric constant tensor:
#      x y z
#    x 1.667120 0.000000 0.000000 
#    y 0.000000 1.667120 0.000000 
#    z 0.000000 0.000000 1.636190 
# 
# From -- ./inp_files/3093.got.cif
#   From: 2010.05.17/outbox.cif.g08.bks.cpg/sg84_2_cif.got.tgz:3093.got - 2010.06.03 18:57:40.
