data_PCOD9544482
_publ_section_title
;
Structure prediction by ZEFSAII (Michael W. Deem and Ramdas Pophale) SiO2 
 PCOD9544482
Probable space group: P 4/N
;
_chemical_formula_sum "Si O2"
_cell_formula_units_Z 38
_cell_length_a 14.895936
_cell_length_b 14.895936
_cell_length_c 7.862588
_cell_angle_alpha 90.000000
_cell_angle_beta 90.000000
_cell_angle_gamma 90.000000
_cell_volume 1744.621076
_symmetry_space_group_name_H-M "P 4/N"
_symmetry_group_IT_number 85
_symmetry_cell_setting 'tetragonal'
loop_
_space_group_symop_operation_xyz
x,y,z
1/2-y,x,z
1/2-x,1/2-y,z
y,1/2-x,z
-x,-y,-z
1/2+y,-x,-z
1/2+x,1/2+y,-z
-y,1/2+x,-z
loop_
_atom_site_type_symbol
_atom_site_label
_atom_site_fract_x
_atom_site_fract_y
_atom_site_fract_z
Si Si1 0.842398 0.577870 0.737521
Si Si2 0.250000 0.750000 0.000000
Si Si3 0.659921 0.866667 0.137374
Si Si4 0.595095 0.219315 0.242053
Si Si5 0.250000 0.250000 0.401947
Si Si6 0.250000 0.750000 0.500000
Si Si7 0.520520 0.469172 0.807502
O O1 0.769911 0.498424 0.739342
O O2 0.813548 0.659142 0.617840
O O3 0.939294 0.533401 0.701820
O O4 0.846115 0.618621 0.931561
O O5 0.234194 0.658997 0.103055
O O6 0.628611 0.765666 0.178262
O O7 0.599772 0.940518 0.230768
O O8 0.659732 0.224515 0.402216
O O9 0.578566 0.116324 0.196239
O O10 0.500000 0.500000 0.000000
#
# Coordination Sequence:
#
# PCOD9544482 Si02
#       7
#     8   2   8   8   2   2   8
#     4  11  18  31  55  83 117 153 202 252 310 371
#     4  10  20  34  60  86 120 162 204 262 304 366
#     4  10  17  29  48  84 128 162 188 245 321 381
#     4  11  22  40  59  89 123 164 211 257 318 385
#     4  12  16  32  56  84 116 158 192 268 312 374
#     4  10  28  46  60  78 128 178 204 254 324 402
#     4  10  20  30  56  92 121 153 202 265 322 378
#
# _framework density 21.781236
#
# number of rings (size 3 to 8) (size 9 to 14) (size 15 to 20)
#    0.000    1.474    4.211    3.789    0.000    3.368 
#    0.000    1.053    0.000    0.000    0.000    0.000 
#    0.000    1.684    0.000    0.000    0.000    0.000 
#
# Total GULP energy -211795.900672 kJ/mol
# GULP energy per Si atom -5573.576333 kJ/mol
# Density = 2.173166 g / cm^3
# Si number density = 21.781236 Si / 1000 Ang^3
#
#
#
# Elastic Constant Matrix: (Units=GPa)
#
#
# Indices 1 2 3 4 5 6 
#
# 1 146.6859 98.5268 22.0230 0.0000 0.0000 -17.6477
# 2 98.5268 146.6859 22.0230 0.0000 0.0000 17.6477
# 3 22.0230 22.0230 23.5457 0.0000 0.0000 0.0000
# 4 0.0000 0.0000 0.0000 8.4936 0.0000 0.0000
# 5 0.0000 0.0000 0.0000 0.0000 8.4936 0.0000
# 6 -17.6477 17.6477 0.0000 0.0000 0.0000 31.3355
#
#
#
# Elastic Compliance Matrix: (Units=1/GPa)
#
#
# Indices 1 2 3 4 5 6 
#
# 1 0.020130 -0.015229 -0.004585 0.000000 0.000000 0.019914
# 2 -0.015229 0.020130 -0.004585 0.000000 0.000000 -0.019914
# 3 -0.004585 -0.004585 0.051047 0.000000 0.000000 0.000000
# 4 0.000000 0.000000 0.000000 0.117736 0.000000 0.000000
# 5 0.000000 0.000000 0.000000 0.000000 0.117736 0.000000
# 6 0.019914 -0.019914 0.000000 0.000000 0.000000 0.054343
#
#
# Mechanical properties :
#
#
# Convention : Reuss Voigt Hill
#
# Bulk Modulus (GPa) = 23.52299 66.89591 45.20945
# Shear Modulus (GPa) = 11.25902 21.28753 16.27328
#
# Velocity S-wave (km/s) = 2.27604 3.12962 2.73632
# Velocity P-wave (km/s) = 4.21073 6.62108 5.54838
#
# Compressibility (1/GPa) = 0.04251160
#
# Stress axis : x y z
#
# Youngs Moduli (GPa) = 49.67620 49.67620 19.58983
#
# Poissons Ratio (x) = 0.75651 0.08981
# Poissons Ratio (y) = 0.75651 0.08981
# Poissons Ratio (z) = 0.22775 0.22775
#
# Static dielectric constant tensor:
#      x y z
#    x 1.743770 0.000000 0.000000 
#    y 0.000000 1.743770 0.000000 
#    z 0.000000 0.000000 1.866530 
# 
# From -- ./inp_files/882.got.cif
#   From: 2010.05.17/outbox.cif.g08.bks.cpg/sg85_cif.got.tgz:882.got - 2010.06.03 19:01:16.
