data_PCOD9544407
_publ_section_title
;
Structure prediction by ZEFSAII (Michael W. Deem and Ramdas Pophale) SiO2 
 PCOD9544407
Probable space group: P 42/M
;
_chemical_formula_sum "Si O2"
_cell_formula_units_Z 24
_cell_length_a 9.195222
_cell_length_b 9.195222
_cell_length_c 13.288003
_cell_angle_alpha 90.000000
_cell_angle_beta 90.000000
_cell_angle_gamma 90.000000
_cell_volume 1123.528660
_symmetry_space_group_name_H-M "P 42/M"
_symmetry_group_IT_number 84
_symmetry_cell_setting 'tetragonal'
loop_
_space_group_symop_operation_xyz
x,y,z
-y,x,1/2+z
-x,-y,z
y,-x,1/2+z
-x,-y,-z
y,-x,1/2-z
x,y,-z
-y,x,1/2-z
loop_
_atom_site_type_symbol
_atom_site_label
_atom_site_fract_x
_atom_site_fract_y
_atom_site_fract_z
Si Si1 0.835780 0.431629 0.000000
Si Si2 0.216006 0.911366 0.719701
Si Si3 0.976256 0.828499 0.000000
Si Si4 0.538163 0.280608 0.286325
O O1 0.755365 0.477201 0.897332
O O2 0.000000 0.500000 0.000000
O O3 0.872592 0.260073 0.000000
O O4 0.213843 0.891165 0.599903
O O5 0.372556 0.857706 0.754701
O O6 0.080199 0.821570 0.763151
O O7 0.000000 0.000000 0.000000
O O8 0.341376 0.590862 0.283176
#
# Coordination Sequence:
#
# PCOD9544407 Si02
#       4
#     4   8   4   8
#     4  12  24  47  73  98 145 199 235 297 384 424
#     4  11  22  38  67 102 138 181 241 299 357 418
#     4  12  22  40  67 107 133 181 233 296 365 422
#     4  11  26  44  67 105 142 195 245 291 367 445
#
# _framework density 21.361270000000001
#
# number of rings (size 3 to 8) (size 9 to 14) (size 15 to 20)
#    0.000    0.667    6.667    2.000    0.000    2.667 
#    0.000    3.333    0.000    4.000    0.000    0.000 
#    0.000    0.000    0.000    0.000    0.000    0.000 
#
# Total GULP energy -134048.730146 kJ/mol
# GULP energy per Si atom -5585.363756 kJ/mol
# Density = 2.131265 g / cm^3
# Si number density = 21.361270 Si / 1000 Ang^3
#
#
#
# Elastic Constant Matrix: (Units=GPa)
#
#
# Indices 1 2 3 4 5 6 
#
# 1 101.3646 62.8895 43.2663 0.0000 0.0000 -6.6663
# 2 62.8895 101.3646 43.2663 0.0000 0.0000 6.6663
# 3 43.2663 43.2663 115.2686 0.0000 0.0000 0.0000
# 4 0.0000 0.0000 0.0000 31.0644 0.0000 0.0000
# 5 0.0000 0.0000 0.0000 0.0000 31.0644 0.0000
# 6 -6.6663 6.6663 0.0000 0.0000 0.0000 66.6011
#
#
#
# Elastic Compliance Matrix: (Units=1/GPa)
#
#
# Indices 1 2 3 4 5 6 
#
# 1 0.017257 -0.009668 -0.002848 0.000000 0.000000 0.002695
# 2 -0.009668 0.017257 -0.002848 0.000000 0.000000 -0.002695
# 3 -0.002848 -0.002848 0.010814 0.000000 0.000000 0.000000
# 4 0.000000 0.000000 0.000000 0.032191 0.000000 0.000000
# 5 0.000000 0.000000 0.000000 0.000000 0.032191 0.000000
# 6 0.002695 -0.002695 0.000000 0.000000 0.000000 0.015554
#
#
# Mechanical properties :
#
#
# Convention : Reuss Voigt Hill
#
# Bulk Modulus (GPa) = 68.50522 68.53800 68.52161
# Shear Modulus (GPa) = 31.08308 36.98439 34.03373
#
# Velocity S-wave (km/s) = 3.81873 4.16549 3.99588
# Velocity P-wave (km/s) = 7.18214 7.43572 7.31003
#
# Compressibility (1/GPa) = 0.01459743
#
# Stress axis : x y z
#
# Youngs Moduli (GPa) = 57.94851 57.94851 92.47500
#
# Poissons Ratio (x) = 0.56024 0.26341
# Poissons Ratio (y) = 0.56024 0.26341
# Poissons Ratio (z) = 0.16506 0.16506
#
# Static dielectric constant tensor:
#      x y z
#    x 1.852160 0.000000 0.000000 
#    y 0.000000 1.852160 0.000000 
#    z 0.000000 0.000000 1.743560 
# 
# From -- ./inp_files/2630.got.cif
#   From: 2010.05.17/outbox.cif.g08.bks.cpg/sg84_2_cif.got.tgz:2630.got - 2010.06.03 18:57:40.
