data_PCOD9544443
_publ_section_title
;
Structure prediction by ZEFSAII (Michael W. Deem and Ramdas Pophale) SiO2 
 PCOD9544443
Probable space group: P 42/M
;
_chemical_formula_sum "Si O2"
_cell_formula_units_Z 32
_cell_length_a 11.283548
_cell_length_b 11.283548
_cell_length_c 10.984046
_cell_angle_alpha 90.000000
_cell_angle_beta 90.000000
_cell_angle_gamma 90.000000
_cell_volume 1398.471772
_symmetry_space_group_name_H-M "P 42/M"
_symmetry_group_IT_number 84
_symmetry_cell_setting 'tetragonal'
loop_
_space_group_symop_operation_xyz
x,y,z
-y,x,1/2+z
-x,-y,z
y,-x,1/2+z
-x,-y,-z
y,-x,1/2-z
x,y,-z
-y,x,1/2-z
loop_
_atom_site_type_symbol
_atom_site_label
_atom_site_fract_x
_atom_site_fract_y
_atom_site_fract_z
Si Si1 0.863330 0.904824 0.203679
Si Si2 0.541067 0.688663 0.256170
Si Si3 0.911207 0.402706 0.359978
Si Si4 0.171643 0.558938 0.000000
Si Si5 0.931913 0.709170 0.000000
O O1 0.721950 0.900145 0.208060
O O2 0.901152 0.798794 0.111932
O O3 0.952746 0.884654 0.318331
O O4 0.631341 0.585909 0.223982
O O5 0.538112 0.783591 0.149163
O O6 0.578206 0.753107 0.379216
O O7 0.945618 0.378753 0.500000
O O8 0.000000 0.500000 0.304695
O O9 0.138442 0.417042 0.000000
O O10 0.063504 0.652917 0.000000
#
# Coordination Sequence:
#
# PCOD9544443 Si02
#       5
#     8   8   8   4   4
#     4  11  25  45  74 108 154 199 251 320 386 462
#     4  11  27  45  75 108 147 198 256 319 389 468
#     4  11  26  48  75 108 151 200 256 322 391 461
#     4  11  26  45  78 110 156 208 257 326 391 472
#     4  11  24  47  73 114 152 205 259 313 395 469
#
# _framework density 22.882121000000001
#
# number of rings (size 3 to 8) (size 9 to 14) (size 15 to 20)
#    0.000    1.000    1.250    3.000   14.000    3.000 
#    0.000    1.250    0.000    0.000    0.000    0.000 
#    0.000    0.000    0.000    0.000    0.000    0.000 
#
# Total GULP energy -178453.915407 kJ/mol
# GULP energy per Si atom -5576.684856 kJ/mol
# Density = 2.283004 g / cm^3
# Si number density = 22.882121 Si / 1000 Ang^3
#
#
#
# Elastic Constant Matrix: (Units=GPa)
#
#
# Indices 1 2 3 4 5 6 
#
# 1 193.5743 50.1013 30.5880 0.0000 0.0000 72.6325
# 2 50.1013 193.5743 30.5880 0.0000 0.0000 -72.6325
# 3 30.5880 30.5880 75.8277 0.0000 0.0000 0.0000
# 4 0.0000 0.0000 0.0000 20.0279 0.0000 0.0000
# 5 0.0000 0.0000 0.0000 0.0000 20.0279 0.0000
# 6 72.6325 -72.6325 0.0000 0.0000 0.0000 317.8822
#
#
#
# Elastic Compliance Matrix: (Units=1/GPa)
#
#
# Indices 1 2 3 4 5 6 
#
# 1 0.006817 -0.002251 -0.001842 0.000000 0.000000 -0.002072
# 2 -0.002251 0.006817 -0.001842 0.000000 0.000000 0.002072
# 3 -0.001842 -0.001842 0.014674 0.000000 0.000000 0.000000
# 4 0.000000 0.000000 0.000000 0.049930 0.000000 0.000000
# 5 0.000000 0.000000 0.000000 0.000000 0.049930 0.000000
# 6 -0.002072 0.002072 0.000000 0.000000 0.000000 0.004093
#
#
# Mechanical properties :
#
#
# Convention : Reuss Voigt Hill
#
# Bulk Modulus (GPa) = 60.83289 76.17007 68.50148
# Shear Modulus (GPa) = 33.42023 95.03419 64.22721
#
# Velocity S-wave (km/s) = 3.82585 6.45153 5.30374
# Velocity P-wave (km/s) = 6.79405 9.42638 8.21632
#
# Compressibility (1/GPa) = 0.01643848
#
# Stress axis : x y z
#
# Youngs Moduli (GPa) = 146.69264 146.69264 68.14839
#
# Poissons Ratio (x) = 0.33016 0.12553
# Poissons Ratio (y) = 0.33016 0.12553
# Poissons Ratio (z) = 0.27020 0.27020
#
# Static dielectric constant tensor:
#      x y z
#    x 1.874300 0.000000 0.000000 
#    y 0.000000 1.874300 0.000000 
#    z 0.000000 0.000000 1.781200 
# 
# From -- ./inp_files/1880.got.cif
#   From: 2010.05.17/outbox.cif.g08.bks.cpg/sg84_1_cif.got.tgz:1880.got - 2010.06.03 18:57:40.
