data_PCOD9544455
_publ_section_title
;
Structure prediction by ZEFSAII (Michael W. Deem and Ramdas Pophale) SiO2 
 PCOD9544455
Probable space group: P 42/M
;
_chemical_formula_sum "Si O2"
_cell_formula_units_Z 18
_cell_length_a 5.178432
_cell_length_b 5.178432
_cell_length_c 26.803745
_cell_angle_alpha 90.000000
_cell_angle_beta 90.000000
_cell_angle_gamma 90.000000
_cell_volume 718.773460
_symmetry_space_group_name_H-M "P 42/M"
_symmetry_group_IT_number 84
_symmetry_cell_setting 'tetragonal'
loop_
_space_group_symop_operation_xyz
x,y,z
-y,x,1/2+z
-x,-y,z
y,-x,1/2+z
-x,-y,-z
y,-x,1/2-z
x,y,-z
-y,x,1/2-z
loop_
_atom_site_type_symbol
_atom_site_label
_atom_site_fract_x
_atom_site_fract_y
_atom_site_fract_z
Si Si1 0.323189 0.249119 0.334122
Si Si2 0.000000 0.500000 0.582868
Si Si3 0.748942 0.181088 0.500000
Si Si4 0.000000 0.000000 0.750000
O O1 0.500000 0.500000 0.327777
O O2 0.149490 0.196636 0.285761
O O3 0.139095 0.297314 0.381166
O O4 0.500000 0.000000 0.341867
O O5 0.212177 0.636308 0.547940
O O6 0.500000 0.000000 0.500000
O O7 0.000000 0.000000 0.500000
#
# Coordination Sequence:
#
# PCOD9544455 Si02
#       4
#     8   4   4   2
#     4  12  31  52  88 122 177 230 295 360 438 519
#     4  11  30  54  82 132 172 226 294 361 436 530
#     4  11  30  53  91 128 174 226 288 362 442 524
#     4  12  32  52  76 134 164 236 296 368 436 518
#
# _framework density 25.042663999999998
#
# number of rings (size 3 to 8) (size 9 to 14) (size 15 to 20)
#    0.000    0.444    0.000    2.667   24.889    1.778 
#    0.000    3.333    0.000    0.000    0.000    0.000 
#    0.000    0.000    0.000    0.000    0.000    0.000 
#
# Total GULP energy -101262.061558 kJ/mol
# GULP energy per Si atom -5625.670087 kJ/mol
# Density = 2.498567 g / cm^3
# Si number density = 25.042664 Si / 1000 Ang^3
#
#
#
# Elastic Constant Matrix: (Units=GPa)
#
#
# Indices 1 2 3 4 5 6 
#
# 1 180.8431 94.2035 94.4328 0.0000 0.0000 3.8860
# 2 94.2035 180.8431 94.4328 0.0000 0.0000 -3.8860
# 3 94.4328 94.4328 220.4971 0.0000 0.0000 0.0000
# 4 0.0000 0.0000 0.0000 2.7265 0.0000 0.0000
# 5 0.0000 0.0000 0.0000 0.0000 2.7265 0.0000
# 6 3.8860 -3.8860 0.0000 0.0000 0.0000 83.5375
#
#
#
# Elastic Compliance Matrix: (Units=1/GPa)
#
#
# Indices 1 2 3 4 5 6 
#
# 1 0.008370 -0.003220 -0.002206 0.000000 0.000000 -0.000539
# 2 -0.003220 0.008370 -0.002206 0.000000 0.000000 0.000539
# 3 -0.002206 -0.002206 0.006425 0.000000 0.000000 0.000000
# 4 0.000000 0.000000 0.000000 0.366776 0.000000 0.000000
# 5 0.000000 0.000000 0.000000 0.000000 0.366776 0.000000
# 6 -0.000539 0.000539 0.000000 0.000000 0.000000 0.012021
#
#
# Mechanical properties :
#
#
# Convention : Reuss Voigt Hill
#
# Bulk Modulus (GPa) = 126.54643 127.59129 127.06886
# Shear Modulus (GPa) = 6.35619 37.73903 22.04761
#
# Velocity S-wave (km/s) = 1.59488 3.88621 2.97038
# Velocity P-wave (km/s) = 7.35075 8.43783 7.91298
#
# Compressibility (1/GPa) = 0.00790224
#
# Stress axis : x y z
#
# Youngs Moduli (GPa) = 119.46857 119.46857 155.65315
#
# Poissons Ratio (x) = 0.38469 0.34333
# Poissons Ratio (y) = 0.38469 0.34333
# Poissons Ratio (z) = 0.26352 0.26352
#
# Static dielectric constant tensor:
#      x y z
#    x 1.578170 0.000000 0.000000 
#    y 0.000000 1.578170 0.000000 
#    z 0.000000 0.000000 1.943070 
# 
# From -- ./inp_files/4620.got.cif
#   From: 2010.05.17/outbox.cif.g08.bks.cpg/sg84_3_cif.got.tgz:4620.got - 2010.06.03 18:57:40.
