data_PCOD9544602
_publ_section_title
;
Structure prediction by ZEFSAII (Michael W. Deem and Ramdas Pophale) SiO2 
 PCOD9544602
Probable space group: P 4/N
;
_chemical_formula_sum "Si O2"
_cell_formula_units_Z 40
_cell_length_a 13.885989
_cell_length_b 13.885989
_cell_length_c 9.538705
_cell_angle_alpha 90.000000
_cell_angle_beta 90.000000
_cell_angle_gamma 90.000000
_cell_volume 1839.259685
_symmetry_space_group_name_H-M "P 4/N"
_symmetry_group_IT_number 85
_symmetry_cell_setting 'tetragonal'
loop_
_space_group_symop_operation_xyz
x,y,z
1/2-y,x,z
1/2-x,1/2-y,z
y,1/2-x,z
-x,-y,-z
1/2+y,-x,-z
1/2+x,1/2+y,-z
-y,1/2+x,-z
loop_
_atom_site_type_symbol
_atom_site_label
_atom_site_fract_x
_atom_site_fract_y
_atom_site_fract_z
Si Si1 0.025410 0.850177 0.461569
Si Si2 0.133450 0.137700 0.332498
Si Si3 0.036645 0.967509 0.196223
Si Si4 0.155483 0.862991 0.969866
Si Si5 0.547213 0.152789 0.683731
O O1 0.071668 0.905632 0.329917
O O2 0.094718 0.874399 0.591654
O O3 0.012062 0.741537 0.409417
O O4 0.922955 0.888676 0.522866
O O5 0.247215 0.119107 0.323255
O O6 0.081954 0.073687 0.213919
O O7 0.070841 0.918558 0.052439
O O8 0.924587 0.975718 0.241570
O O9 0.191987 0.904146 0.823420
O O10 0.252437 0.869839 0.060643
#
# Coordination Sequence:
#
# PCOD9544602 Si02
#       5
#     8   8   8   8   8
#     4  11  22  40  65 100 129 163 218 275 330 396
#     4  10  21  38  63  94 128 166 212 267 328 391
#     4  11  23  42  66  94 130 171 219 270 329 400
#     4  11  25  43  64  93 134 176 221 276 336 398
#     4  11  24  40  66  97 132 173 217 274 337 398
#
# _framework density 21.747881
#
# number of rings (size 3 to 8) (size 9 to 14) (size 15 to 20)
#    0.000    1.200    2.000    5.400    8.400    0.400 
#    0.000    0.000    0.000    0.000    0.000    0.000 
#    0.000    0.000    0.000    0.000    0.000    0.000 
#
# Total GULP energy -222912.722379 kJ/mol
# GULP energy per Si atom -5572.818059 kJ/mol
# Density = 2.169838 g / cm^3
# Si number density = 21.747881 Si / 1000 Ang^3
#
#
#
# Elastic Constant Matrix: (Units=GPa)
#
#
# Indices 1 2 3 4 5 6 
#
# 1 88.3186 24.3680 26.7808 0.0000 0.0000 0.1661
# 2 24.3680 88.3186 26.7808 0.0000 0.0000 -0.1661
# 3 26.7808 26.7808 76.5788 0.0000 0.0000 0.0000
# 4 0.0000 0.0000 0.0000 28.1823 0.0000 0.0000
# 5 0.0000 0.0000 0.0000 0.0000 28.1823 0.0000
# 6 0.1661 -0.1661 0.0000 0.0000 0.0000 24.1466
#
#
#
# Elastic Compliance Matrix: (Units=1/GPa)
#
#
# Indices 1 2 3 4 5 6 
#
# 1 0.013140 -0.002497 -0.003722 0.000000 0.000000 -0.000108
# 2 -0.002497 0.013140 -0.003722 0.000000 0.000000 0.000108
# 3 -0.003722 -0.003722 0.015662 0.000000 0.000000 0.000000
# 4 0.000000 0.000000 0.000000 0.035483 0.000000 0.000000
# 5 0.000000 0.000000 0.000000 0.000000 0.035483 0.000000
# 6 -0.000108 0.000108 0.000000 0.000000 0.000000 0.041415
#
#
# Mechanical properties :
#
#
# Convention : Reuss Voigt Hill
#
# Bulk Modulus (GPa) = 45.33100 45.45280 45.39190
# Shear Modulus (GPa) = 27.53899 27.78799 27.66349
#
# Velocity S-wave (km/s) = 3.56235 3.57842 3.57039
# Velocity P-wave (km/s) = 6.14895 6.16593 6.15744
#
# Compressibility (1/GPa) = 0.02205996
#
# Stress axis : x y z
#
# Youngs Moduli (GPa) = 76.10066 76.10066 63.84948
#
# Poissons Ratio (x) = 0.19003 0.23766
# Poissons Ratio (y) = 0.19003 0.23766
# Poissons Ratio (z) = 0.28326 0.28326
#
# Static dielectric constant tensor:
#      x y z
#    x 1.863220 0.000000 0.000000 
#    y 0.000000 1.863220 0.000000 
#    z 0.000000 0.000000 1.820960 
# 
# From -- ./inp_files/898.got.cif
#   From: 2010.05.17/outbox.cif.g08.bks.cpg/sg85_cif.got.tgz:898.got - 2010.06.03 19:01:16.
