data_PCOD9544587
_publ_section_title
;
Structure prediction by ZEFSAII (Michael W. Deem and Ramdas Pophale) SiO2 
 PCOD9544587
Probable space group: P 4/N
;
_chemical_formula_sum "Si O2"
_cell_formula_units_Z 60
_cell_length_a 10.434627
_cell_length_b 10.434627
_cell_length_c 20.805902
_cell_angle_alpha 90.000000
_cell_angle_beta 90.000000
_cell_angle_gamma 90.000000
_cell_volume 2265.376583
_symmetry_space_group_name_H-M "P 4/N"
_symmetry_group_IT_number 85
_symmetry_cell_setting 'tetragonal'
loop_
_space_group_symop_operation_xyz
x,y,z
1/2-y,x,z
1/2-x,1/2-y,z
y,1/2-x,z
-x,-y,-z
1/2+y,-x,-z
1/2+x,1/2+y,-z
-y,1/2+x,-z
loop_
_atom_site_type_symbol
_atom_site_label
_atom_site_fract_x
_atom_site_fract_y
_atom_site_fract_z
Si Si1 0.347509 0.058581 0.603053
Si Si2 0.007534 0.360104 0.856520
Si Si3 0.584146 0.015901 0.253676
Si Si4 0.250000 0.750000 0.800184
Si Si5 0.144149 0.440442 0.464829
Si Si6 0.641398 0.934737 0.675193
Si Si7 0.286473 0.957851 0.981798
Si Si8 0.898972 0.883296 0.900516
O O1 0.413467 0.196687 0.601031
O O2 0.381381 0.993613 0.533888
O O3 0.370196 0.000934 0.672964
O O4 0.859973 0.323683 0.838989
O O5 0.023263 0.262440 0.915740
O O6 0.991570 0.502902 0.883053
O O7 0.101171 0.396058 0.796096
O O8 0.649078 0.151183 0.234307
O O9 0.430104 0.005390 0.264636
O O10 0.085722 0.297344 0.464072
O O11 0.113579 0.498154 0.394549
O O12 0.582805 0.792001 0.677174
O O13 0.388403 0.838465 0.984224
O O14 0.347818 0.068632 0.025566
O O15 0.760486 0.919862 0.874588
#
# Coordination Sequence:
#
# PCOD9544587 Si02
#       8
#     8   8   8   4   8   8   8   8
#     4   9  18  35  57  81 112 152 204 257 303 360
#     4  11  23  40  62  85 118 161 200 246 313 376
#     4  12  24  37  57  85 122 169 206 246 309 375
#     4  12  26  42  57  86 125 160 214 258 290 366
#     4   7  12  27  53  81 107 141 193 255 303 349
#     4   9  18  34  56  83 114 150 200 255 307 367
#     4   9  19  37  62  87 111 143 188 243 303 367
#     4  10  21  37  59  88 116 143 186 244 303 368
#
# _framework density 26.485662000000001
#
# number of rings (size 3 to 8) (size 9 to 14) (size 15 to 20)
#    0.000    2.267    0.000    5.600    0.000    3.733 
#    0.000    1.333    0.000    3.200    0.000    1.867 
#    0.000    0.000    0.000    0.000    0.000    0.000 
#
# Total GULP energy -334552.562920 kJ/mol
# GULP energy per Si atom -5575.876049 kJ/mol
# Density = 2.642538 g / cm^3
# Si number density = 26.485662 Si / 1000 Ang^3
#
#
#
# Elastic Constant Matrix: (Units=GPa)
#
#
# Indices 1 2 3 4 5 6 
#
# 1 79.0645 33.0091 26.1783 0.0000 0.0000 -5.5713
# 2 33.0091 79.0645 26.1783 0.0000 0.0000 5.5713
# 3 26.1783 26.1783 109.6467 0.0000 0.0000 0.0000
# 4 0.0000 0.0000 0.0000 37.2665 0.0000 0.0000
# 5 0.0000 0.0000 0.0000 0.0000 37.2665 0.0000
# 6 -5.5713 5.5713 0.0000 0.0000 0.0000 28.6243
#
#
#
# Elastic Compliance Matrix: (Units=1/GPa)
#
#
# Indices 1 2 3 4 5 6 
#
# 1 0.016414 -0.006372 -0.002398 0.000000 0.000000 0.004435
# 2 -0.006372 0.016414 -0.002398 0.000000 0.000000 -0.004435
# 3 -0.002398 -0.002398 0.010265 0.000000 0.000000 0.000000
# 4 0.000000 0.000000 0.000000 0.026834 0.000000 0.000000
# 5 0.000000 0.000000 0.000000 0.000000 0.026834 0.000000
# 6 0.004435 -0.004435 0.000000 0.000000 0.000000 0.036662
#
#
# Mechanical properties :
#
#
# Convention : Reuss Voigt Hill
#
# Bulk Modulus (GPa) = 48.16993 48.72303 48.44648
# Shear Modulus (GPa) = 30.73570 32.79212 31.76391
#
# Velocity S-wave (km/s) = 3.41026 3.52249 3.46683
# Velocity P-wave (km/s) = 5.80802 5.91438 5.86144
#
# Compressibility (1/GPa) = 0.02075984
#
# Stress axis : x y z
#
# Youngs Moduli (GPa) = 60.92212 60.92212 97.41711
#
# Poissons Ratio (x) = 0.38817 0.23358
# Poissons Ratio (y) = 0.38817 0.23358
# Poissons Ratio (z) = 0.14608 0.14608
#
# Static dielectric constant tensor:
#      x y z
#    x 2.113550 0.000000 0.000000 
#    y 0.000000 2.113550 0.000000 
#    z 0.000000 0.000000 2.243280 
# 
# From -- ./inp_files/2283.got.cif
#   From: 2010.05.17/outbox.cif.g08.bks.cpg/sg85_cif.got.tgz:2283.got - 2010.06.03 19:01:16.
