data_PCOD9544613
_publ_section_title
;
Structure prediction by ZEFSAII (Michael W. Deem and Ramdas Pophale) SiO2 
 PCOD9544613
Probable space group: P 4/N
;
_chemical_formula_sum "Si O2"
_cell_formula_units_Z 64
_cell_length_a 16.482286
_cell_length_b 16.482286
_cell_length_c 10.931954
_cell_angle_alpha 90.000000
_cell_angle_beta 90.000000
_cell_angle_gamma 90.000000
_cell_volume 2969.837502
_symmetry_space_group_name_H-M "P 4/N"
_symmetry_group_IT_number 85
_symmetry_cell_setting 'tetragonal'
loop_
_space_group_symop_operation_xyz
x,y,z
1/2-y,x,z
1/2-x,1/2-y,z
y,1/2-x,z
-x,-y,-z
1/2+y,-x,-z
1/2+x,1/2+y,-z
-y,1/2+x,-z
loop_
_atom_site_type_symbol
_atom_site_label
_atom_site_fract_x
_atom_site_fract_y
_atom_site_fract_z
Si Si1 0.636567 0.965114 0.953729
Si Si2 0.431102 0.388990 0.486293
Si Si3 0.062092 0.002008 0.862944
Si Si4 0.027503 0.307840 0.649602
Si Si5 0.703615 0.373095 0.524138
Si Si6 0.885148 0.773250 0.158723
Si Si7 0.552225 0.066981 0.333025
Si Si8 0.207323 0.378966 0.282462
O O1 0.589554 0.044918 0.906978
O O2 0.678575 0.927473 0.835422
O O3 0.704527 0.952472 0.057896
O O4 0.558592 0.921857 0.019309
O O5 0.353133 0.405391 0.568975
O O6 0.429216 0.460884 0.385219
O O7 0.509046 0.403149 0.569058
O O8 0.427494 0.308462 0.407139
O O9 0.982159 0.041709 0.794214
O O10 0.131500 0.005059 0.761257
O O11 0.230380 0.432113 0.713059
O O12 0.948189 0.296881 0.569083
O O13 0.796163 0.343181 0.536476
O O14 0.653656 0.403644 0.645004
O O15 0.812559 0.838348 0.148536
O O16 0.151772 0.298616 0.280304
#
# Coordination Sequence:
#
# PCOD9544613 Si02
#       8
#     8   8   8   8   8   8   8   8
#     4  11  22  39  62  89 129 173 226 266 313 386
#     4   9  19  37  61  89 118 160 212 258 320 394
#     4  10  21  40  64  92 125 168 230 275 308 394
#     4  10  22  41  67  94 128 172 218 275 332 397
#     4  10  23  39  60  93 126 158 208 274 345 405
#     4  11  23  40  63  96 134 174 219 271 332 393
#     4   9  18  38  63  88 118 157 205 271 323 382
#     4  11  24  39  56  87 137 176 204 260 332 401
#
# _framework density 21.550000000000001
#
# number of rings (size 3 to 8) (size 9 to 14) (size 15 to 20)
#    0.000    1.875    2.500    1.500    1.750    4.000 
#    0.000    1.250    0.000    0.000    0.000    0.000 
#    0.000    0.000    0.000    0.000    0.000    0.000 
#
# Total GULP energy -357141.754260 kJ/mol
# GULP energy per Si atom -5580.339910 kJ/mol
# Density = 2.150095 g / cm^3
# Si number density = 21.550000 Si / 1000 Ang^3
#
#
#
# Elastic Constant Matrix: (Units=GPa)
#
#
# Indices 1 2 3 4 5 6 
#
# 1 72.4836 29.4363 26.1886 0.0000 0.0000 -5.7759
# 2 29.4363 72.4836 26.1886 0.0000 0.0000 5.7759
# 3 26.1886 26.1886 77.1766 0.0000 0.0000 0.0000
# 4 0.0000 0.0000 0.0000 29.2118 0.0000 0.0000
# 5 0.0000 0.0000 0.0000 0.0000 29.2118 0.0000
# 6 -5.7759 5.7759 0.0000 0.0000 0.0000 44.9736
#
#
#
# Elastic Compliance Matrix: (Units=1/GPa)
#
#
# Indices 1 2 3 4 5 6 
#
# 1 0.017972 -0.006088 -0.004033 0.000000 0.000000 0.003090
# 2 -0.006088 0.017972 -0.004033 0.000000 0.000000 -0.003090
# 3 -0.004033 -0.004033 0.015694 0.000000 0.000000 0.000000
# 4 0.000000 0.000000 0.000000 0.034233 0.000000 0.000000
# 5 0.000000 0.000000 0.000000 0.000000 0.034233 0.000000
# 6 0.003090 -0.003090 0.000000 0.000000 0.000000 0.023029
#
#
# Mechanical properties :
#
#
# Convention : Reuss Voigt Hill
#
# Bulk Modulus (GPa) = 42.86034 42.86340 42.86187
# Shear Modulus (GPa) = 27.89940 30.03477 28.96708
#
# Velocity S-wave (km/s) = 3.60201 3.73731 3.67028
# Velocity P-wave (km/s) = 6.10174 6.20941 6.15581
#
# Compressibility (1/GPa) = 0.02333159
#
# Stress axis : x y z
#
# Youngs Moduli (GPa) = 55.64288 55.64288 63.71818
#
# Poissons Ratio (x) = 0.33874 0.25695
# Poissons Ratio (y) = 0.33874 0.25695
# Poissons Ratio (z) = 0.22439 0.22439
#
# Static dielectric constant tensor:
#      x y z
#    x 1.832180 0.000000 0.000000 
#    y 0.000000 1.832180 0.000000 
#    z 0.000000 0.000000 1.803140 
# 
# From -- ./inp_files/1850.got.cif
#   From: 2010.05.17/outbox.cif.g08.bks.cpg/sg85_cif.got.tgz:1850.got - 2010.06.03 19:01:16.
