data_PCOD9544518
_publ_section_title
;
Structure prediction by ZEFSAII (Michael W. Deem and Ramdas Pophale) SiO2 
 PCOD9544518
Probable space group: P 4/N
;
_chemical_formula_sum "Si O2"
_cell_formula_units_Z 42
_cell_length_a 15.415361
_cell_length_b 15.415361
_cell_length_c 8.563562
_cell_angle_alpha 90.000000
_cell_angle_beta 90.000000
_cell_angle_gamma 90.000000
_cell_volume 2034.987967
_symmetry_space_group_name_H-M "P 4/N"
_symmetry_group_IT_number 85
_symmetry_cell_setting 'tetragonal'
loop_
_space_group_symop_operation_xyz
x,y,z
1/2-y,x,z
1/2-x,1/2-y,z
y,1/2-x,z
-x,-y,-z
1/2+y,-x,-z
1/2+x,1/2+y,-z
-y,1/2+x,-z
loop_
_atom_site_type_symbol
_atom_site_label
_atom_site_fract_x
_atom_site_fract_y
_atom_site_fract_z
Si Si1 0.641217 0.848490 0.686850
Si Si2 0.923672 0.912378 0.354701
Si Si3 0.553375 0.757304 0.159331
Si Si4 0.750000 0.750000 0.049539
Si Si5 0.992208 0.436763 0.151271
Si Si6 0.716815 0.380551 0.977712
O O1 0.633011 0.744047 0.692776
O O2 0.601554 0.886567 0.526903
O O3 0.585377 0.893241 0.821312
O O4 0.940301 0.816523 0.288971
O O5 0.847962 0.951554 0.248402
O O6 0.007954 0.966222 0.304416
O O7 0.643020 0.752609 0.064738
O O8 0.465559 0.748425 0.064286
O O9 0.921988 0.359217 0.128912
O O10 0.000000 0.500000 0.000000
O O11 0.804904 0.331834 0.921113
#
# Coordination Sequence:
#
# PCOD9544518 Si02
#       6
#     8   8   8   2   8   8
#     4  11  26  45  68 102 141 175 222 292 360 423
#     4  11  20  41  70  97 132 181 223 278 348 415
#     4  10  19  36  67  99 124 177 230 275 339 427
#     4   8  20  32  56  96 130 160 224 276 338 408
#     4  12  26  42  68 100 137 182 235 286 350 420
#     4  11  24  42  64  94 140 188 236 291 350 405
#
# _framework density 20.638943000000001
#
# number of rings (size 3 to 8) (size 9 to 14) (size 15 to 20)
#    0.000    1.143    5.714    0.571    2.667    0.000 
#    0.000    0.000    0.000    0.000    0.000    0.000 
#    0.000    0.000    0.000    0.000    0.000    0.000 
#
# Total GULP energy -233804.125015 kJ/mol
# GULP energy per Si atom -5566.764881 kJ/mol
# Density = 2.059197 g / cm^3
# Si number density = 20.638943 Si / 1000 Ang^3
#
#
#
# Elastic Constant Matrix: (Units=GPa)
#
#
# Indices 1 2 3 4 5 6 
#
# 1 114.4376 41.8780 44.4880 0.0000 0.0000 -15.1327
# 2 41.8780 114.4376 44.4880 0.0000 0.0000 15.1327
# 3 44.4880 44.4880 65.4834 0.0000 0.0000 0.0000
# 4 0.0000 0.0000 0.0000 33.3861 0.0000 0.0000
# 5 0.0000 0.0000 0.0000 0.0000 33.3861 0.0000
# 6 -15.1327 15.1327 0.0000 0.0000 0.0000 59.4496
#
#
#
# Elastic Compliance Matrix: (Units=1/GPa)
#
#
# Indices 1 2 3 4 5 6 
#
# 1 0.012925 -0.002494 -0.007087 0.000000 0.000000 0.003925
# 2 -0.002494 0.012925 -0.007087 0.000000 0.000000 -0.003925
# 3 -0.007087 -0.007087 0.024900 0.000000 0.000000 0.000000
# 4 0.000000 0.000000 0.000000 0.029953 0.000000 0.000000
# 5 0.000000 0.000000 0.000000 0.000000 0.029953 0.000000
# 6 0.003925 -0.003925 0.000000 0.000000 0.000000 0.018819
#
#
# Mechanical properties :
#
#
# Convention : Reuss Voigt Hill
#
# Bulk Modulus (GPa) = 57.41968 61.78520 59.60244
# Shear Modulus (GPa) = 29.65356 36.14469 32.89912
#
# Velocity S-wave (km/s) = 3.79460 4.18938 3.99686
# Velocity P-wave (km/s) = 6.86149 7.30769 7.08810
#
# Compressibility (1/GPa) = 0.01741563
#
# Stress axis : x y z
#
# Youngs Moduli (GPa) = 77.36960 77.36960 40.16050
#
# Poissons Ratio (x) = 0.19295 0.28460
# Poissons Ratio (y) = 0.19295 0.28460
# Poissons Ratio (z) = 0.54829 0.54829
#
# Static dielectric constant tensor:
#      x y z
#    x 1.751580 0.000000 0.000000 
#    y 0.000000 1.751580 0.000000 
#    z 0.000000 0.000000 1.775630 
# 
# From -- ./inp_files/952.got.cif
#   From: 2010.05.17/outbox.cif.g08.bks.cpg/sg85_cif.got.tgz:952.got - 2010.06.03 19:01:16.
