data_PCOD9544669
_publ_section_title
;
Structure prediction by ZEFSAII (Michael W. Deem and Ramdas Pophale) SiO2 
 PCOD9544669
Probable space group: P 4/N
;
_chemical_formula_sum "Si O2"
_cell_formula_units_Z 34
_cell_length_a 10.581815
_cell_length_b 10.581815
_cell_length_c 12.093215
_cell_angle_alpha 90.000000
_cell_angle_beta 90.000000
_cell_angle_gamma 90.000000
_cell_volume 1354.135436
_symmetry_space_group_name_H-M "P 4/N"
_symmetry_group_IT_number 85
_symmetry_cell_setting 'tetragonal'
loop_
_space_group_symop_operation_xyz
x,y,z
1/2-y,x,z
1/2-x,1/2-y,z
y,1/2-x,z
-x,-y,-z
1/2+y,-x,-z
1/2+x,1/2+y,-z
-y,1/2+x,-z
loop_
_atom_site_type_symbol
_atom_site_label
_atom_site_fract_x
_atom_site_fract_y
_atom_site_fract_z
Si Si1 0.396620 0.715290 0.644597
Si Si2 0.520837 0.360465 0.901704
Si Si3 0.250000 0.250000 0.955283
Si Si4 0.448836 0.176042 0.550264
Si Si5 0.103234 0.599361 0.144260
O O1 0.250000 0.750000 0.625322
O O2 0.392158 0.566488 0.610136
O O3 0.492353 0.798941 0.572655
O O4 0.430083 0.717142 0.774296
O O5 0.381002 0.330885 0.947362
O O6 0.600319 0.373648 0.013376
O O7 0.562306 0.242709 0.828611
O O8 0.500762 0.491575 0.839723
O O9 0.404725 0.321753 0.574348
#
# Coordination Sequence:
#
# PCOD9544669 Si02
#       5
#     8   8   2   8   8
#     4  12  25  43  69 101 130 178 218 276 338 398
#     4   9  20  41  57  91 128 166 211 268 306 390
#     4   8  16  40  60  76 128 170 208 256 320 364
#     4  11  25  48  70  96 132 172 221 284 333 398
#     4  10  23  37  64  90 125 169 212 259 323 385
#
# _framework density 25.108273000000001
#
# number of rings (size 3 to 8) (size 9 to 14) (size 15 to 20)
#    0.000    1.647    2.353    0.706    6.588    0.000 
#    8.471    0.000    0.000    0.000    0.000    0.000 
#    0.000    0.000    0.000    0.000    0.000    0.000 
#
# Total GULP energy -189385.809739 kJ/mol
# GULP energy per Si atom -5570.170875 kJ/mol
# Density = 2.505113 g / cm^3
# Si number density = 25.108273 Si / 1000 Ang^3
#
#
#
# Elastic Constant Matrix: (Units=GPa)
#
#
# Indices 1 2 3 4 5 6 
#
# 1 109.6309 6.5039 5.7669 0.0000 0.0000 10.2892
# 2 6.5039 109.6309 5.7669 0.0000 0.0000 -10.2892
# 3 5.7669 5.7669 83.9898 0.0000 0.0000 0.0000
# 4 0.0000 0.0000 0.0000 23.3507 0.0000 0.0000
# 5 0.0000 0.0000 0.0000 0.0000 23.3507 0.0000
# 6 10.2892 -10.2892 0.0000 0.0000 0.0000 48.2376
#
#
#
# Elastic Compliance Matrix: (Units=1/GPa)
#
#
# Indices 1 2 3 4 5 6 
#
# 1 0.009399 -0.000729 -0.000595 0.000000 0.000000 -0.002160
# 2 -0.000729 0.009399 -0.000595 0.000000 0.000000 0.002160
# 3 -0.000595 -0.000595 0.011988 0.000000 0.000000 0.000000
# 4 0.000000 0.000000 0.000000 0.042825 0.000000 0.000000
# 5 0.000000 0.000000 0.000000 0.000000 0.042825 0.000000
# 6 -0.002160 0.002160 0.000000 0.000000 0.000000 0.021652
#
#
# Mechanical properties :
#
#
# Convention : Reuss Voigt Hill
#
# Bulk Modulus (GPa) = 37.11068 37.70300 37.40684
# Shear Modulus (GPa) = 33.13240 38.00207 35.56723
#
# Velocity S-wave (km/s) = 3.63654 3.89463 3.76780
# Velocity P-wave (km/s) = 5.69605 5.93910 5.81884
#
# Compressibility (1/GPa) = 0.02694642
#
# Stress axis : x y z
#
# Youngs Moduli (GPa) = 106.39617 106.39617 83.41705
#
# Poissons Ratio (x) = 0.07757 0.04966
# Poissons Ratio (y) = 0.07757 0.04966
# Poissons Ratio (z) = 0.06334 0.06334
#
# Static dielectric constant tensor:
#      x y z
#    x 2.048190 0.000000 0.000000 
#    y 0.000000 2.048190 0.000000 
#    z 0.000000 0.000000 2.033500 
# 
# From -- ./inp_files/1419.got.cif
#   From: 2010.05.17/outbox.cif.g08.bks.cpg/sg85_cif.got.tgz:1419.got - 2010.06.03 19:01:16.
