data_PCOD9544771
_publ_section_title
;
Structure prediction by ZEFSAII (Michael W. Deem and Ramdas Pophale) SiO2 
 PCOD9544771
Probable space group: P 4/N
;
_chemical_formula_sum "Si O2"
_cell_formula_units_Z 48
_cell_length_a 9.321210
_cell_length_b 9.321210
_cell_length_c 28.136449
_cell_angle_alpha 90.000000
_cell_angle_beta 90.000000
_cell_angle_gamma 90.000000
_cell_volume 2444.634130
_symmetry_space_group_name_H-M "P 4/N"
_symmetry_group_IT_number 85
_symmetry_cell_setting 'tetragonal'
loop_
_space_group_symop_operation_xyz
x,y,z
1/2-y,x,z
1/2-x,1/2-y,z
y,1/2-x,z
-x,-y,-z
1/2+y,-x,-z
1/2+x,1/2+y,-z
-y,1/2+x,-z
loop_
_atom_site_type_symbol
_atom_site_label
_atom_site_fract_x
_atom_site_fract_y
_atom_site_fract_z
Si Si1 0.930245 0.914445 0.455976
Si Si2 0.948584 0.877187 0.294445
Si Si3 0.369229 0.584739 0.019834
Si Si4 0.034008 0.155744 0.818963
Si Si5 0.679706 0.523453 0.874993
Si Si6 0.556852 0.896198 0.630183
O O1 0.758886 0.945228 0.456855
O O2 0.000000 0.000000 0.500000
O O3 0.015896 0.972108 0.410190
O O4 0.791402 0.940858 0.307492
O O5 0.973941 0.869282 0.237830
O O6 0.061648 0.975997 0.321207
O O7 0.322138 0.521855 0.069773
O O8 0.500000 0.500000 0.000000
O O9 0.249185 0.583567 0.978864
O O10 0.179165 0.068127 0.831770
O O11 0.891161 0.101692 0.844326
O O12 0.839694 0.577074 0.865304
O O13 0.556704 0.723525 0.626378
#
# Coordination Sequence:
#
# PCOD9544771 Si02
#       6
#     8   8   8   8   8   8
#     4  11  24  41  62  90 123 161 207 257 308 362
#     4   9  19  39  63  88 119 154 199 249 300 358
#     4  11  24  41  62  88 118 153 193 237 288 346
#     4   9  21  40  63  91 120 154 196 245 298 355
#     4  11  24  41  60  86 121 156 192 240 294 347
#     4  11  24  39  58  88 125 162 205 253 302 361
#
# _framework density 19.634841999999999
#
# number of rings (size 3 to 8) (size 9 to 14) (size 15 to 20)
#    0.000    1.667    1.667    3.000    2.333    9.333 
#    0.000    5.000    0.000    0.000    0.000    0.000 
#    0.000    0.000    0.000    0.000    0.000    0.000 
#
# Total GULP energy -267835.177711 kJ/mol
# GULP energy per Si atom -5579.899536 kJ/mol
# Density = 1.959015 g / cm^3
# Si number density = 19.634842 Si / 1000 Ang^3
#
#
#
# Elastic Constant Matrix: (Units=GPa)
#
#
# Indices 1 2 3 4 5 6 
#
# 1 71.2005 47.8846 12.5554 0.0000 0.0000 1.3224
# 2 47.8846 71.2005 12.5554 0.0000 0.0000 -1.3224
# 3 12.5554 12.5554 27.6796 0.0000 0.0000 0.0000
# 4 0.0000 0.0000 0.0000 33.3373 0.0000 0.0000
# 5 0.0000 0.0000 0.0000 0.0000 33.3373 0.0000
# 6 1.3224 -1.3224 0.0000 0.0000 0.0000 41.1664
#
#
#
# Elastic Compliance Matrix: (Units=1/GPa)
#
#
# Indices 1 2 3 4 5 6 
#
# 1 0.026166 -0.016880 -0.004212 0.000000 0.000000 -0.001383
# 2 -0.016880 0.026166 -0.004212 0.000000 0.000000 0.001383
# 3 -0.004212 -0.004212 0.039949 0.000000 0.000000 0.000000
# 4 0.000000 0.000000 0.000000 0.029996 0.000000 0.000000
# 5 0.000000 0.000000 0.000000 0.000000 0.029996 0.000000
# 6 -0.001383 0.001383 0.000000 0.000000 0.000000 0.024380
#
#
# Mechanical properties :
#
#
# Convention : Reuss Voigt Hill
#
# Bulk Modulus (GPa) = 23.99683 35.11905 29.55794
# Shear Modulus (GPa) = 20.73379 28.04055 24.38717
#
# Velocity S-wave (km/s) = 3.25309 3.78312 3.52808
# Velocity P-wave (km/s) = 5.13403 6.08339 5.62876
#
# Compressibility (1/GPa) = 0.04167217
#
# Stress axis : x y z
#
# Youngs Moduli (GPa) = 38.21794 38.21794 25.03210
#
# Poissons Ratio (x) = 0.64513 0.10543
# Poissons Ratio (y) = 0.64513 0.10543
# Poissons Ratio (z) = 0.16097 0.16097
#
# Static dielectric constant tensor:
#      x y z
#    x 1.590090 0.000000 0.000000 
#    y 0.000000 1.590090 0.000000 
#    z 0.000000 0.000000 1.686890 
# 
# From -- ./inp_files/2425.got.cif
#   From: 2010.05.17/outbox.cif.g08.bks.cpg/sg85_cif.got.tgz:2425.got - 2010.06.03 19:01:16.
