data_PCOD9544621
_publ_section_title
;
Structure prediction by ZEFSAII (Michael W. Deem and Ramdas Pophale) SiO2 
 PCOD9544621
Probable space group: P 4/N
;
_chemical_formula_sum "Si O2"
_cell_formula_units_Z 64
_cell_length_a 22.328640
_cell_length_b 22.328640
_cell_length_c 5.498098
_cell_angle_alpha 90.000000
_cell_angle_beta 90.000000
_cell_angle_gamma 90.000000
_cell_volume 2741.176627
_symmetry_space_group_name_H-M "P 4/N"
_symmetry_group_IT_number 85
_symmetry_cell_setting 'tetragonal'
loop_
_space_group_symop_operation_xyz
x,y,z
1/2-y,x,z
1/2-x,1/2-y,z
y,1/2-x,z
-x,-y,-z
1/2+y,-x,-z
1/2+x,1/2+y,-z
-y,1/2+x,-z
loop_
_atom_site_type_symbol
_atom_site_label
_atom_site_fract_x
_atom_site_fract_y
_atom_site_fract_z
Si Si1 0.828203 0.874717 0.975608
Si Si2 0.933763 0.856290 0.339454
Si Si3 0.666220 0.707930 0.571927
Si Si4 0.523536 0.759499 0.208522
Si Si5 0.772579 0.034866 0.718859
Si Si6 0.129742 0.547648 0.179293
Si Si7 0.555943 0.931360 0.716875
Si Si8 0.603151 0.417473 0.688299
O O1 0.876561 0.865943 0.179328
O O2 0.774387 0.912259 0.087836
O O3 0.819289 0.811184 0.849670
O O4 0.866438 0.915773 0.785313
O O5 0.902053 0.813047 0.541402
O O6 0.981350 0.812625 0.221224
O O7 0.948046 0.920447 0.447146
O O8 0.725134 0.673433 0.474201
O O9 0.507992 0.781089 0.479654
O O10 0.483089 0.787558 0.998193
O O11 0.700446 0.042866 0.746216
O O12 0.824343 0.083148 0.667268
O O13 0.091772 0.484639 0.143370
O O14 0.102653 0.577394 0.426238
O O15 0.118307 0.584652 0.932428
O O16 0.485488 0.922097 0.732500
#
# Coordination Sequence:
#
# PCOD9544621 Si02
#       8
#     8   8   8   8   8   8   8   8
#     4  11  23  36  63  91 132 188 246 301 357 421
#     4  11  23  36  63  91 132 188 246 301 357 421
#     4  10  22  37  50  78 122 176 246 312 360 403
#     4  12  24  42  70  97 140 193 250 300 356 438
#     4  12  26  50  74 107 147 192 242 294 368 444
#     4  12  27  47  76 110 150 194 240 302 366 446
#     4  11  24  43  66 107 150 188 232 293 362 441
#     4  12  27  47  76 110 150 194 240 302 366 446
#
# _framework density 23.347639000000001
#
# number of rings (size 3 to 8) (size 9 to 14) (size 15 to 20)
#    0.000    0.625    2.500    5.250    8.750    0.000 
#    0.000    1.250    0.000    2.250    0.000    0.000 
#    0.000    0.000    0.000    0.000    0.000    0.000 
#
# Total GULP energy -356310.275268 kJ/mol
# GULP energy per Si atom -5567.348051 kJ/mol
# Density = 2.329450 g / cm^3
# Si number density = 23.347639 Si / 1000 Ang^3
#
#
#
# Elastic Constant Matrix: (Units=GPa)
#
#
# Indices 1 2 3 4 5 6 
#
# 1 98.6879 30.5257 34.1770 0.0000 0.0000 1.0442
# 2 30.5257 98.6879 34.1770 0.0000 0.0000 -1.0442
# 3 34.1770 34.1770 120.1008 0.0000 0.0000 0.0000
# 4 0.0000 0.0000 0.0000 36.1048 0.0000 0.0000
# 5 0.0000 0.0000 0.0000 0.0000 36.1048 0.0000
# 6 1.0442 -1.0442 0.0000 0.0000 0.0000 28.3712
#
#
#
# Elastic Compliance Matrix: (Units=1/GPa)
#
#
# Indices 1 2 3 4 5 6 
#
# 1 0.011899 -0.002788 -0.002593 0.000000 0.000000 -0.000541
# 2 -0.002788 0.011899 -0.002593 0.000000 0.000000 0.000541
# 3 -0.002593 -0.002593 0.009802 0.000000 0.000000 0.000000
# 4 0.000000 0.000000 0.000000 0.027697 0.000000 0.000000
# 5 0.000000 0.000000 0.000000 0.000000 0.027697 0.000000
# 6 -0.000541 0.000541 0.000000 0.000000 0.000000 0.035287
#
#
# Mechanical properties :
#
#
# Convention : Reuss Voigt Hill
#
# Bulk Modulus (GPa) = 56.64854 57.24844 56.94849
# Shear Modulus (GPa) = 34.22020 34.68928 34.45474
#
# Velocity S-wave (km/s) = 3.83257 3.85875 3.84569
# Velocity P-wave (km/s) = 6.62575 6.66532 6.64557
#
# Compressibility (1/GPa) = 0.01765271
#
# Stress axis : x y z
#
# Youngs Moduli (GPa) = 84.04045 84.04045 102.02115
#
# Poissons Ratio (x) = 0.23434 0.26450
# Poissons Ratio (y) = 0.23434 0.26450
# Poissons Ratio (z) = 0.21788 0.21788
#
# Static dielectric constant tensor:
#      x y z
#    x 2.030890 0.000000 0.000000 
#    y 0.000000 2.030890 0.000000 
#    z 0.000000 0.000000 2.069070 
# 
# From -- ./inp_files/575.got.cif
#   From: 2010.05.17/outbox.cif.g08.bks.cpg/sg85_cif.got.tgz:575.got - 2010.06.03 19:01:16.
