data_PCOD9544510
_publ_section_title
;
Structure prediction by ZEFSAII (Michael W. Deem and Ramdas Pophale) SiO2 
 PCOD9544510
Probable space group: P 4/N
;
_chemical_formula_sum "Si O2"
_cell_formula_units_Z 58
_cell_length_a 17.427878
_cell_length_b 17.427878
_cell_length_c 9.733599
_cell_angle_alpha 90.000000
_cell_angle_beta 90.000000
_cell_angle_gamma 90.000000
_cell_volume 2956.395092
_symmetry_space_group_name_H-M "P 4/N"
_symmetry_group_IT_number 85
_symmetry_cell_setting 'tetragonal'
loop_
_space_group_symop_operation_xyz
x,y,z
1/2-y,x,z
1/2-x,1/2-y,z
y,1/2-x,z
-x,-y,-z
1/2+y,-x,-z
1/2+x,1/2+y,-z
-y,1/2+x,-z
loop_
_atom_site_type_symbol
_atom_site_label
_atom_site_fract_x
_atom_site_fract_y
_atom_site_fract_z
Si Si1 0.035861 0.837930 0.027649
Si Si2 0.470463 0.333849 0.664591
Si Si3 0.337892 0.534476 0.988121
Si Si4 0.913307 0.821196 0.787999
Si Si5 0.967939 0.663567 0.710464
Si Si6 0.750000 0.750000 0.866611
Si Si7 0.559902 0.070390 0.500286
Si Si8 0.153919 0.037918 0.702569
O O1 0.063216 0.749548 0.024712
O O2 0.004602 0.851342 0.182236
O O3 0.101562 0.897401 0.989052
O O4 0.970771 0.843624 0.910131
O O5 0.532101 0.361487 0.550448
O O6 0.455024 0.242903 0.659652
O O7 0.395232 0.388239 0.656064
O O8 0.349844 0.474195 0.865546
O O9 0.345863 0.491902 0.132137
O O10 0.948255 0.752854 0.696434
O O11 0.888155 0.892242 0.694447
O O12 0.836517 0.787722 0.856746
O O13 0.033323 0.631442 0.613852
O O14 0.539631 0.115040 0.640174
O O15 0.500000 0.000000 0.500000
#
# Coordination Sequence:
#
# PCOD9544510 Si02
#       8
#     8   8   8   8   8   2   8   8
#     4  10  20  35  58  87 116 155 198 249 293 356
#     4  10  21  41  60  86 124 152 200 241 298 359
#     4  10  21  37  58  86 117 154 201 245 300 351
#     4   9  19  30  56  85 112 155 190 236 298 353
#     4  10  19  35  55  84 116 149 193 241 291 347
#     4   8  16  36  44  80 136 142 180 244 296 362
#     4  10  22  38  58  84 116 157 197 246 286 344
#     4  10  23  39  61  91 119 160 194 245 301 362
#
# _framework density 19.618486999999998
#
# number of rings (size 3 to 8) (size 9 to 14) (size 15 to 20)
#    0.000    2.207    1.379    0.828    3.862    4.966 
#    2.483    0.000    0.000    3.724    0.000    0.000 
#    0.000    0.000    0.000    0.000    0.000    0.000 
#
# Total GULP energy -323167.780583 kJ/mol
# GULP energy per Si atom -5571.858286 kJ/mol
# Density = 1.957383 g / cm^3
# Si number density = 19.618487 Si / 1000 Ang^3
#
#
#
# Elastic Constant Matrix: (Units=GPa)
#
#
# Indices 1 2 3 4 5 6 
#
# 1 87.2074 49.2346 0.9653 0.0000 0.0000 10.1634
# 2 49.2346 87.2074 0.9653 0.0000 0.0000 -10.1634
# 3 0.9653 0.9653 56.6652 0.0000 0.0000 0.0000
# 4 0.0000 0.0000 0.0000 23.6979 0.0000 0.0000
# 5 0.0000 0.0000 0.0000 0.0000 23.6979 0.0000
# 6 10.1634 -10.1634 0.0000 0.0000 0.0000 39.5775
#
#
#
# Elastic Compliance Matrix: (Units=1/GPa)
#
#
# Indices 1 2 3 4 5 6 
#
# 1 0.018931 -0.011600 -0.000125 0.000000 0.000000 -0.007840
# 2 -0.011600 0.018931 -0.000125 0.000000 0.000000 0.007840
# 3 -0.000125 -0.000125 0.017652 0.000000 0.000000 0.000000
# 4 0.000000 0.000000 0.000000 0.042198 0.000000 0.000000
# 5 0.000000 0.000000 0.000000 0.000000 0.042198 0.000000
# 6 -0.007840 0.007840 0.000000 0.000000 0.000000 0.029294
#
#
# Mechanical properties :
#
#
# Convention : Reuss Voigt Hill
#
# Bulk Modulus (GPa) = 31.43268 37.04558 34.23913
# Shear Modulus (GPa) = 24.56902 29.38901 26.97902
#
# Velocity S-wave (km/s) = 3.54268 3.87463 3.71237
# Velocity P-wave (km/s) = 5.72633 6.24028 5.98882
#
# Compressibility (1/GPa) = 0.03181402
#
# Stress axis : x y z
#
# Youngs Moduli (GPa) = 52.82275 52.82275 56.65159
#
# Poissons Ratio (x) = 0.61276 0.00707
# Poissons Ratio (y) = 0.61276 0.00707
# Poissons Ratio (z) = 0.00660 0.00660
#
# Static dielectric constant tensor:
#      x y z
#    x 1.694990 0.000000 0.000000 
#    y 0.000000 1.694990 0.000000 
#    z 0.000000 0.000000 1.718770 
# 
# From -- ./inp_files/1185.got.cif
#   From: 2010.05.17/outbox.cif.g08.bks.cpg/sg85_cif.got.tgz:1185.got - 2010.06.03 19:01:16.
