data_PCOD9544531
_publ_section_title
;
Structure prediction by ZEFSAII (Michael W. Deem and Ramdas Pophale) SiO2 
 PCOD9544531
Probable space group: P 4/N
;
_chemical_formula_sum "Si O2"
_cell_formula_units_Z 48
_cell_length_a 9.717093
_cell_length_b 9.717093
_cell_length_c 29.220815
_cell_angle_alpha 90.000000
_cell_angle_beta 90.000000
_cell_angle_gamma 90.000000
_cell_volume 2759.084766
_symmetry_space_group_name_H-M "P 4/N"
_symmetry_group_IT_number 85
_symmetry_cell_setting 'tetragonal'
loop_
_space_group_symop_operation_xyz
x,y,z
1/2-y,x,z
1/2-x,1/2-y,z
y,1/2-x,z
-x,-y,-z
1/2+y,-x,-z
1/2+x,1/2+y,-z
-y,1/2+x,-z
loop_
_atom_site_type_symbol
_atom_site_label
_atom_site_fract_x
_atom_site_fract_y
_atom_site_fract_z
Si Si1 0.085333 0.868356 0.015968
Si Si2 0.750000 0.250000 0.399857
Si Si3 0.726365 0.978566 0.113898
Si Si4 0.975904 0.727618 0.655690
Si Si5 0.251135 0.023599 0.234896
Si Si6 0.250000 0.750000 0.824493
Si Si7 0.403320 0.882644 0.479828
O O1 0.024798 0.799306 0.061474
O O2 0.244742 0.912778 0.021117
O O3 0.000000 0.000000 0.000000
O O4 0.619304 0.207777 0.369693
O O5 0.690125 0.378446 0.430364
O O6 0.604187 0.868328 0.121996
O O7 0.728789 0.114432 0.144621
O O8 0.895043 0.869271 0.644028
O O9 0.997958 0.738894 0.710371
O O10 0.383401 0.117926 0.223865
O O11 0.260887 0.883730 0.207407
O O12 0.433872 0.751384 0.511357
O O13 0.500000 0.000000 0.500000
#
# Coordination Sequence:
#
# PCOD9544531 Si02
#       7
#     8   4   8   8   8   4   8
#     4  11  22  39  62  83 110 149 189 235 294 345
#     4  10  20  32  58  85 116 143 202 244 286 344
#     4  11  24  40  57  85 120 149 191 242 286 343
#     4   9  19  35  59  88 115 152 193 239 295 351
#     4   9  19  37  58  86 121 152 191 237 288 345
#     4  12  21  36  63  85 116 161 195 228 289 348
#     4   9  21  37  52  77 109 148 188 235 286 342
#
# _framework density 17.397074
#
# number of rings (size 3 to 8) (size 9 to 14) (size 15 to 20)
#    0.000    2.167    1.667    3.500    4.667    0.667 
#    0.000    0.000    0.000    0.500    0.000    4.667 
#    0.000    0.000    0.000    0.000    0.000    0.000 
#
# Total GULP energy -267221.745330 kJ/mol
# GULP energy per Si atom -5567.119694 kJ/mol
# Density = 1.735748 g / cm^3
# Si number density = 17.397074 Si / 1000 Ang^3
#
#
#
# Elastic Constant Matrix: (Units=GPa)
#
#
# Indices 1 2 3 4 5 6 
#
# 1 148.7428 82.7410 57.2843 0.0000 0.0000 -0.2935
# 2 82.7410 148.7428 57.2843 0.0000 0.0000 0.2935
# 3 57.2843 57.2843 63.7687 0.0000 0.0000 0.0000
# 4 0.0000 0.0000 0.0000 28.5023 0.0000 0.0000
# 5 0.0000 0.0000 0.0000 0.0000 28.5023 0.0000
# 6 -0.2935 0.2935 0.0000 0.0000 0.0000 24.8755
#
#
#
# Elastic Compliance Matrix: (Units=1/GPa)
#
#
# Indices 1 2 3 4 5 6 
#
# 1 0.011465 -0.003687 -0.006987 0.000000 0.000000 0.000179
# 2 -0.003687 0.011465 -0.006987 0.000000 0.000000 -0.000179
# 3 -0.006987 -0.006987 0.028235 0.000000 0.000000 0.000000
# 4 0.000000 0.000000 0.000000 0.035085 0.000000 0.000000
# 5 0.000000 0.000000 0.000000 0.000000 0.035085 0.000000
# 6 0.000179 -0.000179 0.000000 0.000000 0.000000 0.040204
#
#
# Mechanical properties :
#
#
# Convention : Reuss Voigt Hill
#
# Bulk Modulus (GPa) = 63.12123 83.98595 73.55359
# Shear Modulus (GPa) = 24.73479 27.30568 26.02024
#
# Velocity S-wave (km/s) = 3.77474 3.96606 3.87158
# Velocity P-wave (km/s) = 7.44041 8.32788 7.89662
#
# Compressibility (1/GPa) = 0.01584253
#
# Stress axis : x y z
#
# Youngs Moduli (GPa) = 87.21876 87.21876 35.41684
#
# Poissons Ratio (x) = 0.32160 0.24747
# Poissons Ratio (y) = 0.32160 0.24747
# Poissons Ratio (z) = 0.60942 0.60942
#
# Static dielectric constant tensor:
#      x y z
#    x 1.636250 0.000000 0.000000 
#    y 0.000000 1.636250 0.000000 
#    z 0.000000 0.000000 1.655900 
# 
# From -- ./inp_files/2477.got.cif
#   From: 2010.05.17/outbox.cif.g08.bks.cpg/sg85_cif.got.tgz:2477.got - 2010.06.03 19:01:16.
