data_PCOD9544203
_publ_section_title
;
Structure prediction by ZEFSAII (Michael W. Deem and Ramdas Pophale) SiO2 
 PCOD9544203
Probable space group: P 42/M
;
_chemical_formula_sum "Si O2"
_cell_formula_units_Z 48
_cell_length_a 8.449048
_cell_length_b 8.449048
_cell_length_c 30.420483
_cell_angle_alpha 90.000000
_cell_angle_beta 90.000000
_cell_angle_gamma 90.000000
_cell_volume 2171.609136
_symmetry_space_group_name_H-M "P 42/M"
_symmetry_group_IT_number 84
_symmetry_cell_setting 'tetragonal'
loop_
_space_group_symop_operation_xyz
x,y,z
-y,x,1/2+z
-x,-y,z
y,-x,1/2+z
-x,-y,-z
y,-x,1/2-z
x,y,-z
-y,x,1/2-z
loop_
_atom_site_type_symbol
_atom_site_label
_atom_site_fract_x
_atom_site_fract_y
_atom_site_fract_z
Si Si1 0.806598 0.144884 0.106795
Si Si2 0.670871 0.418714 0.858390
Si Si3 0.088808 0.666892 0.549908
Si Si4 0.624852 0.733576 0.259653
Si Si5 0.293510 0.850008 0.617527
Si Si6 0.925558 0.170614 0.306499
O O1 0.662263 0.265830 0.111419
O O2 0.977144 0.227877 0.106412
O O3 0.792222 0.046878 0.062552
O O4 0.787104 0.036051 0.150964
O O5 0.500000 0.500000 0.851255
O O6 0.747094 0.367245 0.812066
O O7 0.801208 0.526384 0.881720
O O8 0.145505 0.676762 0.500000
O O9 0.218150 0.717972 0.585528
O O10 0.000000 0.500000 0.556186
O O11 0.709172 0.561718 0.251326
O O12 0.709613 0.878940 0.233334
O O13 0.241556 0.834851 0.668430
O O14 0.000000 0.000000 0.294180
#
# Coordination Sequence:
#
# PCOD9544203 Si02
#       6
#     8   8   8   8   8   8
#     4  10  23  40  62  97 130 176 213 268 338 399
#     4  12  22  39  65  94 126 173 226 277 338 399
#     4  10  21  40  69 102 131 165 215 271 331 408
#     4  11  20  39  66  95 127 172 232 284 335 391
#     4  10  20  40  66  91 134 168 215 269 331 397
#     4   9  19  40  62  93 127 167 222 273 327 391
#
# _framework density 22.103422999999999
#
# number of rings (size 3 to 8) (size 9 to 14) (size 15 to 20)
#    0.000    1.667    3.333    3.000    0.000    2.667 
#    6.000    2.500    0.000    5.000    0.000    0.000 
#    0.000    0.000    0.000    0.000    0.000    0.000 
#
# Total GULP energy -267357.725604 kJ/mol
# GULP energy per Si atom -5569.952617 kJ/mol
# Density = 2.205312 g / cm^3
# Si number density = 22.103423 Si / 1000 Ang^3
#
#
#
# Elastic Constant Matrix: (Units=GPa)
#
#
# Indices 1 2 3 4 5 6 
#
# 1 75.4584 36.7745 24.7201 0.0000 0.0000 -0.5727
# 2 36.7745 75.4584 24.7201 0.0000 0.0000 0.5727
# 3 24.7201 24.7201 66.2169 0.0000 0.0000 0.0000
# 4 0.0000 0.0000 0.0000 9.4690 0.0000 0.0000
# 5 0.0000 0.0000 0.0000 0.0000 9.4690 0.0000
# 6 -0.5727 0.5727 0.0000 0.0000 0.0000 32.8705
#
#
#
# Elastic Compliance Matrix: (Units=1/GPa)
#
#
# Indices 1 2 3 4 5 6 
#
# 1 0.018264 -0.007600 -0.003981 0.000000 0.000000 0.000451
# 2 -0.007600 0.018264 -0.003981 0.000000 0.000000 -0.000451
# 3 -0.003981 -0.003981 0.018074 0.000000 0.000000 0.000000
# 4 0.000000 0.000000 0.000000 0.105608 0.000000 0.000000
# 5 0.000000 0.000000 0.000000 0.000000 0.105608 0.000000
# 6 0.000451 -0.000451 0.000000 0.000000 0.000000 0.030438
#
#
# Mechanical properties :
#
#
# Convention : Reuss Voigt Hill
#
# Bulk Modulus (GPa) = 42.59351 43.28480 42.93916
# Shear Modulus (GPa) = 14.91621 19.08963 17.00292
#
# Velocity S-wave (km/s) = 2.60058 2.94198 2.77653
# Velocity P-wave (km/s) = 5.32253 5.58262 5.45413
#
# Compressibility (1/GPa) = 0.02347775
#
# Stress axis : x y z
#
# Youngs Moduli (GPa) = 54.75314 54.75314 55.32728
#
# Poissons Ratio (x) = 0.41613 0.22026
# Poissons Ratio (y) = 0.41613 0.22026
# Poissons Ratio (z) = 0.21797 0.21797
#
# Static dielectric constant tensor:
#      x y z
#    x 1.902280 0.000000 0.000000 
#    y 0.000000 1.902280 0.000000 
#    z 0.000000 0.000000 1.767770 
# 
# From -- ./inp_files/5749.got.cif
#   From: 2010.05.17/outbox.cif.g08.bks.cpg/sg84_3_cif.got.tgz:5749.got - 2010.06.03 18:57:40.
