data_PCOD9544156
_publ_section_title
;
Structure prediction by ZEFSAII (Michael W. Deem and Ramdas Pophale) SiO2 
 PCOD9544156
Probable space group: P 42/M
;
_chemical_formula_sum "Si O2"
_cell_formula_units_Z 40
_cell_length_a 15.216676
_cell_length_b 15.216676
_cell_length_c 7.553990
_cell_angle_alpha 90.000000
_cell_angle_beta 90.000000
_cell_angle_gamma 90.000000
_cell_volume 1749.105449
_symmetry_space_group_name_H-M "P 42/M"
_symmetry_group_IT_number 84
_symmetry_cell_setting 'tetragonal'
loop_
_space_group_symop_operation_xyz
x,y,z
-y,x,1/2+z
-x,-y,z
y,-x,1/2+z
-x,-y,-z
y,-x,1/2-z
x,y,-z
-y,x,1/2-z
loop_
_atom_site_type_symbol
_atom_site_label
_atom_site_fract_x
_atom_site_fract_y
_atom_site_fract_z
Si Si1 0.418486 0.056757 0.208245
Si Si2 0.252518 0.595803 0.705689
Si Si3 0.269801 0.398663 0.785013
Si Si4 0.893966 0.089861 0.298913
Si Si5 0.702437 0.098052 0.286033
O O1 0.404769 0.154064 0.284476
O O2 0.500000 0.000000 0.284650
O O3 0.333126 0.995899 0.226123
O O4 0.438238 0.069185 0.000000
O O5 0.242840 0.622531 0.500000
O O6 0.285979 0.496103 0.716659
O O7 0.325401 0.661618 0.779090
O O8 0.172855 0.366026 0.731417
O O9 0.272407 0.402868 0.000000
O O10 0.904430 0.121980 0.500000
O O11 0.800822 0.120670 0.224560
O O12 0.983396 0.111968 0.199512
O O13 0.706469 0.097061 0.500000
#
# Coordination Sequence:
#
# PCOD9544156 Si02
#       5
#     8   8   8   8   8
#     4  10  20  36  60  86 112 146 185 230 283 334
#     4  10  22  40  61  87 116 150 192 236 287 345
#     4  10  22  40  60  83 116 153 190 238 292 342
#     4  10  21  37  56  80 113 153 194 234 281 339
#     4  10  22  37  56  84 115 149 189 234 287 344
#
# _framework density 22.868831
#
# number of rings (size 3 to 8) (size 9 to 14) (size 15 to 20)
#    0.000    2.000    2.000    1.200    2.800    4.000 
#    0.000    2.000    0.000    0.000    0.000    0.000 
#    0.000    0.000    0.000    0.000    0.000    0.000 
#
# Total GULP energy -223539.864371 kJ/mol
# GULP energy per Si atom -5588.496609 kJ/mol
# Density = 2.281678 g / cm^3
# Si number density = 22.868831 Si / 1000 Ang^3
#
#
#
# Elastic Constant Matrix: (Units=GPa)
#
#
# Indices 1 2 3 4 5 6 
#
# 1 92.8010 28.6763 -9.4314 0.0000 0.0000 -14.1885
# 2 28.6763 92.8010 -9.4314 0.0000 0.0000 14.1885
# 3 -9.4314 -9.4314 55.3112 0.0000 0.0000 0.0000
# 4 0.0000 0.0000 0.0000 15.0560 0.0000 0.0000
# 5 0.0000 0.0000 0.0000 0.0000 15.0560 0.0000
# 6 -14.1885 14.1885 0.0000 0.0000 0.0000 37.2906
#
#
#
# Elastic Compliance Matrix: (Units=1/GPa)
#
#
# Indices 1 2 3 4 5 6 
#
# 1 0.013604 -0.005148 0.001442 0.000000 0.000000 0.007135
# 2 -0.005148 0.013604 0.001442 0.000000 0.000000 -0.007135
# 3 0.001442 0.001442 0.018571 0.000000 0.000000 0.000000
# 4 0.000000 0.000000 0.000000 0.066419 0.000000 0.000000
# 5 0.000000 0.000000 0.000000 0.000000 0.066419 0.000000
# 6 0.007135 -0.007135 0.000000 0.000000 0.000000 0.032246
#
#
# Mechanical properties :
#
#
# Convention : Reuss Voigt Hill
#
# Bulk Modulus (GPa) = 24.24219 28.94892 26.59555
# Shear Modulus (GPa) = 21.82059 28.88715 25.35387
#
# Velocity S-wave (km/s) = 3.09230 3.55796 3.33327
# Velocity P-wave (km/s) = 4.83460 5.43737 5.14482
#
# Compressibility (1/GPa) = 0.04125040
#
# Stress axis : x y z
#
# Youngs Moduli (GPa) = 73.50812 73.50812 53.84672
#
# Poissons Ratio (x) = 0.37842 -0.07764
# Poissons Ratio (y) = 0.37842 -0.07764
# Poissons Ratio (z) = -0.10599 -0.10599
#
# Static dielectric constant tensor:
#      x y z
#    x 1.839620 0.000000 0.000000 
#    y 0.000000 1.839620 0.000000 
#    z 0.000000 0.000000 1.834590 
# 
# From -- ./inp_files/739.got.cif
#   From: 2010.05.17/outbox.cif.g08.bks.cpg/sg84_1_cif.got.tgz:739.got - 2010.06.03 18:57:40.
