data_PCOD9544186
_publ_section_title
;
Structure prediction by ZEFSAII (Michael W. Deem and Ramdas Pophale) SiO2 
 PCOD9544186
Probable space group: P 42/M
;
_chemical_formula_sum "Si O2"
_cell_formula_units_Z 48
_cell_length_a 9.548361
_cell_length_b 9.548361
_cell_length_c 27.511306
_cell_angle_alpha 90.000000
_cell_angle_beta 90.000000
_cell_angle_gamma 90.000000
_cell_volume 2508.238721
_symmetry_space_group_name_H-M "P 42/M"
_symmetry_group_IT_number 84
_symmetry_cell_setting 'tetragonal'
loop_
_space_group_symop_operation_xyz
x,y,z
-y,x,1/2+z
-x,-y,z
y,-x,1/2+z
-x,-y,-z
y,-x,1/2-z
x,y,-z
-y,x,1/2-z
loop_
_atom_site_type_symbol
_atom_site_label
_atom_site_fract_x
_atom_site_fract_y
_atom_site_fract_z
Si Si1 0.259657 0.345317 0.791910
Si Si2 0.339335 0.320040 0.317315
Si Si3 0.988060 0.339752 0.141628
Si Si4 0.339456 0.048533 0.053818
Si Si5 0.913999 0.143532 0.945574
Si Si6 0.555263 0.841569 0.146968
O O1 0.328704 0.492447 0.809798
O O2 0.262675 0.349536 0.733900
O O3 0.352503 0.214723 0.808888
O O4 0.111434 0.326104 0.818715
O O5 0.315434 0.160651 0.332671
O O6 0.268407 0.427226 0.355013
O O7 0.983236 0.239292 0.095166
O O8 0.000000 0.500000 0.124347
O O9 0.346929 0.154912 0.098806
O O10 0.500000 0.000000 0.050199
O O11 0.242163 0.914782 0.065367
O O12 0.295983 0.101057 0.000000
O O13 0.913858 0.205952 0.000000
O O14 0.000000 0.000000 0.946927
O O15 0.500000 0.000000 0.154165
#
# Coordination Sequence:
#
# PCOD9544186 Si02
#       6
#     8   8   8   8   8   8
#     4  11  23  39  59  81 117 157 201 245 294 361
#     4  11  23  39  59  82 115 161 198 244 301 357
#     4  10  23  39  57  87 121 150 199 254 295 346
#     4   9  18  34  57  87 117 149 192 244 292 345
#     4  10  20  38  62  86 119 159 194 237 302 364
#     4  11  22  35  63  88 114 155 202 242 289 358
#
# _framework density 19.136935000000001
#
# number of rings (size 3 to 8) (size 9 to 14) (size 15 to 20)
#    0.000    1.667    1.667    3.500    2.333    0.333 
#    0.000    0.000    0.000    4.000    0.000    0.000 
#    0.000    0.000    0.000    0.000    0.000    0.000 
#
# Total GULP energy -267575.789787 kJ/mol
# GULP energy per Si atom -5574.495621 kJ/mol
# Density = 1.909338 g / cm^3
# Si number density = 19.136935 Si / 1000 Ang^3
#
#
#
# Elastic Constant Matrix: (Units=GPa)
#
#
# Indices 1 2 3 4 5 6 
#
# 1 79.3924 25.7638 32.1691 0.0000 0.0000 7.7760
# 2 25.7638 79.3924 32.1691 0.0000 0.0000 -7.7760
# 3 32.1691 32.1691 115.8214 0.0000 0.0000 0.0000
# 4 0.0000 0.0000 0.0000 27.3115 0.0000 0.0000
# 5 0.0000 0.0000 0.0000 0.0000 27.3115 0.0000
# 6 7.7760 -7.7760 0.0000 0.0000 0.0000 25.9176
#
#
#
# Elastic Compliance Matrix: (Units=1/GPa)
#
#
# Indices 1 2 3 4 5 6 
#
# 1 0.015940 -0.004484 -0.003182 0.000000 0.000000 -0.006128
# 2 -0.004484 0.015940 -0.003182 0.000000 0.000000 0.006128
# 3 -0.003182 -0.003182 0.010402 0.000000 0.000000 0.000000
# 4 0.000000 0.000000 0.000000 0.036615 0.000000 0.000000
# 5 0.000000 0.000000 0.000000 0.000000 0.036615 0.000000
# 6 -0.006128 0.006128 0.000000 0.000000 0.000000 0.042261
#
#
# Mechanical properties :
#
#
# Convention : Reuss Voigt Hill
#
# Bulk Modulus (GPa) = 48.57540 50.53447 49.55493
# Shear Modulus (GPa) = 26.83424 28.40843 27.62133
#
# Velocity S-wave (km/s) = 3.74869 3.85708 3.80327
# Velocity P-wave (km/s) = 6.64643 6.80442 6.72589
#
# Compressibility (1/GPa) = 0.02058655
#
# Stress axis : x y z
#
# Youngs Moduli (GPa) = 62.73472 62.73472 96.13922
#
# Poissons Ratio (x) = 0.28128 0.30592
# Poissons Ratio (y) = 0.28128 0.30592
# Poissons Ratio (z) = 0.19962 0.19962
#
# Static dielectric constant tensor:
#      x y z
#    x 1.692660 0.000000 0.000000 
#    y 0.000000 1.692660 0.000000 
#    z 0.000000 0.000000 1.725210 
# 
# From -- ./inp_files/5767.got.cif
#   From: 2010.05.17/outbox.cif.g08.bks.cpg/sg84_3_cif.got.tgz:5767.got - 2010.06.03 18:57:40.
