data_PCOD9544229
_publ_section_title
;
Structure prediction by ZEFSAII (Michael W. Deem and Ramdas Pophale) SiO2 
 PCOD9544229
Probable space group: P 42/M
;
_chemical_formula_sum "Si O2"
_cell_formula_units_Z 40
_cell_length_a 16.103959
_cell_length_b 16.103959
_cell_length_c 8.719684
_cell_angle_alpha 90.000000
_cell_angle_beta 90.000000
_cell_angle_gamma 90.000000
_cell_volume 2261.341010
_symmetry_space_group_name_H-M "P 42/M"
_symmetry_group_IT_number 84
_symmetry_cell_setting 'tetragonal'
loop_
_space_group_symop_operation_xyz
x,y,z
-y,x,1/2+z
-x,-y,z
y,-x,1/2+z
-x,-y,-z
y,-x,1/2-z
x,y,-z
-y,x,1/2-z
loop_
_atom_site_type_symbol
_atom_site_label
_atom_site_fract_x
_atom_site_fract_y
_atom_site_fract_z
Si Si1 0.082592 0.549545 0.184279
Si Si2 0.859195 0.278653 0.682031
Si Si3 0.478599 0.737996 0.316982
Si Si4 0.312863 0.662935 0.182459
Si Si5 0.058992 0.885785 0.816672
O O1 0.093000 0.637949 0.265505
O O2 0.165223 0.496147 0.217854
O O3 0.000000 0.500000 0.227479
O O4 0.081436 0.563653 0.000000
O O5 0.863781 0.268903 0.500000
O O6 0.764052 0.292695 0.734066
O O7 0.898032 0.198678 0.763253
O O8 0.464961 0.730334 0.500000
O O9 0.399914 0.701925 0.230203
O O10 0.564958 0.691870 0.278183
O O11 0.299380 0.669419 0.000000
O O12 0.965682 0.893033 0.750866
O O13 0.056675 0.891424 0.000000
#
# Coordination Sequence:
#
# PCOD9544229 Si02
#       5
#     8   8   8   8   8
#     4   9  19  37  58  80 110 146 183 227 277 327
#     4  11  22  37  57  82 113 148 186 227 272 323
#     4   9  19  35  54  78 107 141 182 226 276 330
#     4  10  21  37  56  79 109 144 182 227 277 328
#     4  11  22  39  60  84 114 146 184 227 274 325
#
# _framework density 17.688618999999999
#
# number of rings (size 3 to 8) (size 9 to 14) (size 15 to 20)
#    0.000    2.000    0.000    6.000    0.000    6.400 
#    0.000    8.000    0.000    0.000    0.000    0.000 
#    0.000    0.000    0.000    0.000    0.000    0.000 
#
# Total GULP energy -223406.169306 kJ/mol
# GULP energy per Si atom -5585.154233 kJ/mol
# Density = 1.764836 g / cm^3
# Si number density = 17.688619 Si / 1000 Ang^3
#
#
#
# Elastic Constant Matrix: (Units=GPa)
#
#
# Indices 1 2 3 4 5 6 
#
# 1 117.6393 83.0000 62.0124 0.0000 0.0000 17.8481
# 2 83.0000 117.6393 62.0124 0.0000 0.0000 -17.8481
# 3 62.0124 62.0124 113.7418 0.0000 0.0000 0.0000
# 4 0.0000 0.0000 0.0000 31.2230 0.0000 0.0000
# 5 0.0000 0.0000 0.0000 0.0000 31.2230 0.0000
# 6 17.8481 -17.8481 0.0000 0.0000 0.0000 27.7493
#
#
#
# Elastic Compliance Matrix: (Units=1/GPa)
#
#
# Indices 1 2 3 4 5 6 
#
# 1 0.046568 -0.039050 -0.004099 0.000000 0.000000 -0.055069
# 2 -0.039050 0.046568 -0.004099 0.000000 0.000000 0.055069
# 3 -0.004099 -0.004099 0.013261 0.000000 0.000000 0.000000
# 4 0.000000 0.000000 0.000000 0.032028 0.000000 0.000000
# 5 0.000000 0.000000 0.000000 0.000000 0.032028 0.000000
# 6 -0.055069 0.055069 0.000000 0.000000 0.000000 0.106876
#
#
# Mechanical properties :
#
#
# Convention : Reuss Voigt Hill
#
# Bulk Modulus (GPa) = 84.02132 84.78554 84.40343
# Shear Modulus (GPa) = 13.30530 27.50543 20.40536
#
# Velocity S-wave (km/s) = 2.74559 3.94760 3.40013
# Velocity P-wave (km/s) = 7.59305 8.29544 7.95200
#
# Compressibility (1/GPa) = 0.01190174
#
# Stress axis : x y z
#
# Youngs Moduli (GPa) = 21.47410 21.47410 75.40896
#
# Poissons Ratio (x) = 0.83857 0.30907
# Poissons Ratio (y) = 0.83857 0.30907
# Poissons Ratio (z) = 0.08801 0.08801
#
# Static dielectric constant tensor:
#      x y z
#    x 1.577700 0.000000 0.000000 
#    y 0.000000 1.577700 0.000000 
#    z 0.000000 0.000000 1.594890 
# 
# From -- ./inp_files/755.got.cif
#   From: 2010.05.17/outbox.cif.g08.bks.cpg/sg84_1_cif.got.tgz:755.got - 2010.06.03 18:57:40.
