data_PCOD9544586
_publ_section_title
;
Structure prediction by ZEFSAII (Michael W. Deem and Ramdas Pophale) SiO2 
 PCOD9544586
Probable space group: P 4/N
;
_chemical_formula_sum "Si O2"
_cell_formula_units_Z 34
_cell_length_a 11.059023
_cell_length_b 11.059023
_cell_length_c 11.254264
_cell_angle_alpha 90.000000
_cell_angle_beta 90.000000
_cell_angle_gamma 90.000000
_cell_volume 1376.418880
_symmetry_space_group_name_H-M "P 4/N"
_symmetry_group_IT_number 85
_symmetry_cell_setting 'tetragonal'
loop_
_space_group_symop_operation_xyz
x,y,z
1/2-y,x,z
1/2-x,1/2-y,z
y,1/2-x,z
-x,-y,-z
1/2+y,-x,-z
1/2+x,1/2+y,-z
-y,1/2+x,-z
loop_
_atom_site_type_symbol
_atom_site_label
_atom_site_fract_x
_atom_site_fract_y
_atom_site_fract_z
Si Si1 0.554557 0.494444 0.800696
Si Si2 0.478610 0.747409 0.349913
Si Si3 0.488817 0.617731 0.584599
Si Si4 0.750000 0.750000 0.298928
Si Si5 0.842670 0.931465 0.040912
O O1 0.562274 0.367309 0.728798
O O2 0.570417 0.595793 0.699392
O O3 0.424042 0.509022 0.868316
O O4 0.643475 0.511600 0.910528
O O5 0.508467 0.719905 0.488829
O O6 0.381368 0.853657 0.362035
O O7 0.608198 0.793439 0.303476
O O8 0.500000 0.500000 0.500000
O O9 0.700993 0.904946 0.054965
#
# Coordination Sequence:
#
# PCOD9544586 Si02
#       5
#     8   8   8   2   8
#     4  10  21  38  62  89 123 158 205 259 306 363
#     4  11  22  38  62  93 121 161 199 252 300 370
#     4  10  21  37  58  90 125 151 198 247 304 360
#     4  12  20  36  68  96 110 160 212 248 300 350
#     4  10  22  39  62  91 120 160 212 263 311 361
#
# _framework density 24.701779999999999
#
# number of rings (size 3 to 8) (size 9 to 14) (size 15 to 20)
#    0.000    1.647    4.706    1.412    0.000    4.235 
#    0.000    0.000    0.000   22.588    0.000    0.000 
#    0.000    0.000    0.000    0.000    0.000    0.000 
#
# Total GULP energy -189381.828601 kJ/mol
# GULP energy per Si atom -5570.053782 kJ/mol
# Density = 2.464556 g / cm^3
# Si number density = 24.701780 Si / 1000 Ang^3
#
#
#
# Elastic Constant Matrix: (Units=GPa)
#
#
# Indices 1 2 3 4 5 6 
#
# 1 34.0712 12.0587 22.0423 0.0000 0.0000 -17.4291
# 2 12.0587 34.0712 22.0423 0.0000 0.0000 17.4291
# 3 22.0423 22.0423 177.5423 0.0000 0.0000 0.0000
# 4 0.0000 0.0000 0.0000 33.2699 0.0000 0.0000
# 5 0.0000 0.0000 0.0000 0.0000 33.2699 0.0000
# 6 -17.4291 17.4291 0.0000 0.0000 0.0000 -20.7562
#
#
#
# Elastic Compliance Matrix: (Units=1/GPa)
#
#
# Indices 1 2 3 4 5 6 
#
# 1 0.022048 0.002548 -0.003054 0.000000 0.000000 -0.016374
# 2 0.002548 0.022048 -0.003054 0.000000 0.000000 0.016374
# 3 -0.003054 -0.003054 0.006391 0.000000 0.000000 0.000000
# 4 0.000000 0.000000 0.000000 0.030057 0.000000 0.000000
# 5 0.000000 0.000000 0.000000 0.000000 0.030057 0.000000
# 6 -0.016374 0.016374 0.000000 0.000000 0.000000 -0.020680
#
#
# Mechanical properties :
#
#
# Convention : Reuss Voigt Hill
#
# Bulk Modulus (GPa) = 23.05825 39.77458 31.41642
# Shear Modulus (GPa) = 44.84499 21.79283 33.31891
#
# Velocity S-wave (km/s) = 4.26544 2.97347 3.67665
# Velocity P-wave (km/s) = 5.79772 5.28446 5.54703
#
# Compressibility (1/GPa) = 0.04336842
#
# Stress axis : x y z
#
# Youngs Moduli (GPa) = 45.35583 45.35583 156.47728
#
# Poissons Ratio (x) = -0.11558 0.47783
# Poissons Ratio (y) = -0.11558 0.47783
# Poissons Ratio (z) = 0.13850 0.13850
#
# Static dielectric constant tensor:
#      x y z
#    x 1.990820 0.000000 0.000000 
#    y 0.000000 1.990820 0.000000 
#    z 0.000000 0.000000 2.038820 
# 
# From -- ./inp_files/1506.got.cif
#   From: 2010.05.17/outbox.cif.g08.bks.cpg/sg85_cif.got.tgz:1506.got - 2010.06.03 19:01:16.
