data_PCOD9544468
_publ_section_title
;
Structure prediction by ZEFSAII (Michael W. Deem and Ramdas Pophale) SiO2 
 PCOD9544468
Probable space group: P 42/M
;
_chemical_formula_sum "Si O2"
_cell_formula_units_Z 40
_cell_length_a 11.425478
_cell_length_b 11.425478
_cell_length_c 14.237851
_cell_angle_alpha 90.000000
_cell_angle_beta 90.000000
_cell_angle_gamma 90.000000
_cell_volume 1858.631103
_symmetry_space_group_name_H-M "P 42/M"
_symmetry_group_IT_number 84
_symmetry_cell_setting 'tetragonal'
loop_
_space_group_symop_operation_xyz
x,y,z
-y,x,1/2+z
-x,-y,z
y,-x,1/2+z
-x,-y,-z
y,-x,1/2-z
x,y,-z
-y,x,1/2-z
loop_
_atom_site_type_symbol
_atom_site_label
_atom_site_fract_x
_atom_site_fract_y
_atom_site_fract_z
Si Si1 0.065897 0.384536 0.307886
Si Si2 0.327181 0.902786 0.397293
Si Si3 0.661701 0.521059 0.102701
Si Si4 0.721719 0.460886 0.306489
Si Si5 0.740525 0.877231 0.108618
O O1 0.035962 0.368328 0.197527
O O2 0.201127 0.421549 0.316877
O O3 0.000000 0.500000 0.345515
O O4 0.011874 0.273883 0.361301
O O5 0.341461 0.960524 0.500000
O O6 0.401957 0.782184 0.400695
O O7 0.192415 0.862018 0.383846
O O8 0.675558 0.451901 0.199969
O O9 0.558701 0.615145 0.122222
O O10 0.652183 0.465330 0.000000
O O11 0.807030 0.351612 0.327162
O O12 0.704441 0.864915 0.000000
#
# Coordination Sequence:
#
# PCOD9544468 Si02
#       5
#     8   8   8   8   8
#     4   9  17  27  46  74  94 114 153 197 227 268
#     4   8  15  29  47  66  91 122 150 182 231 282
#     4   9  17  30  45  61  89 126 159 194 233 275
#     4   9  17  29  44  65  91 120 157 193 230 276
#     4   9  17  30  49  70  93 123 155 189 234 282
#
# _framework density 21.521215000000002
#
# number of rings (size 3 to 8) (size 9 to 14) (size 15 to 20)
#    0.000    3.200    0.000    1.800    0.000    5.200 
#    0.000    6.000    0.000    9.000    0.000    2.800 
#    0.000    0.000    0.000    0.000    0.000    0.000 
#
# Total GULP energy -222738.178195 kJ/mol
# GULP energy per Si atom -5568.454455 kJ/mol
# Density = 2.147223 g / cm^3
# Si number density = 21.521215 Si / 1000 Ang^3
#
#
#
# Elastic Constant Matrix: (Units=GPa)
#
#
# Indices 1 2 3 4 5 6 
#
# 1 39.3719 -1.0779 10.0592 0.0000 0.0000 8.8835
# 2 -1.0779 39.3719 10.0592 0.0000 0.0000 -8.8835
# 3 10.0592 10.0592 102.4705 0.0000 0.0000 0.0000
# 4 0.0000 0.0000 0.0000 26.7204 0.0000 0.0000
# 5 0.0000 0.0000 0.0000 0.0000 26.7204 0.0000
# 6 8.8835 -8.8835 0.0000 0.0000 0.0000 10.0246
#
#
#
# Elastic Compliance Matrix: (Units=1/GPa)
#
#
# Indices 1 2 3 4 5 6 
#
# 1 0.034006 -0.006472 -0.002703 0.000000 0.000000 -0.035870
# 2 -0.006472 0.034006 -0.002703 0.000000 0.000000 0.035870
# 3 -0.002703 -0.002703 0.010290 0.000000 0.000000 0.000000
# 4 0.000000 0.000000 0.000000 0.037425 0.000000 0.000000
# 5 0.000000 0.000000 0.000000 0.000000 0.037425 0.000000
# 6 -0.035870 0.035870 0.000000 0.000000 0.000000 0.163328
#
#
# Mechanical properties :
#
#
# Convention : Reuss Voigt Hill
#
# Bulk Modulus (GPa) = 18.33335 24.36615 21.34975
# Shear Modulus (GPa) = 13.95029 23.50466 18.72748
#
# Velocity S-wave (km/s) = 2.54876 3.30837 2.95309
# Velocity P-wave (km/s) = 4.14714 5.09316 4.64430
#
# Compressibility (1/GPa) = 0.05454541
#
# Stress axis : x y z
#
# Youngs Moduli (GPa) = 29.40695 29.40695 97.18573
#
# Poissons Ratio (x) = 0.19032 0.26268
# Poissons Ratio (y) = 0.19032 0.26268
# Poissons Ratio (z) = 0.07948 0.07948
#
# Static dielectric constant tensor:
#      x y z
#    x 1.869040 0.000000 0.000000 
#    y 0.000000 1.869040 0.000000 
#    z 0.000000 0.000000 1.782970 
# 
# From -- ./inp_files/2024.got.cif
#   From: 2010.05.17/outbox.cif.g08.bks.cpg/sg84_2_cif.got.tgz:2024.got - 2010.06.03 18:57:40.
