data_PCOD9544176
_publ_section_title
;
Structure prediction by ZEFSAII (Michael W. Deem and Ramdas Pophale) SiO2 
 PCOD9544176
Probable space group: P 42/M
;
_chemical_formula_sum "Si O2"
_cell_formula_units_Z 40
_cell_length_a 11.974650
_cell_length_b 11.974650
_cell_length_c 14.250554
_cell_angle_alpha 90.000000
_cell_angle_beta 90.000000
_cell_angle_gamma 90.000000
_cell_volume 2043.418897
_symmetry_space_group_name_H-M "P 42/M"
_symmetry_group_IT_number 84
_symmetry_cell_setting 'tetragonal'
loop_
_space_group_symop_operation_xyz
x,y,z
-y,x,1/2+z
-x,-y,z
y,-x,1/2+z
-x,-y,-z
y,-x,1/2-z
x,y,-z
-y,x,1/2-z
loop_
_atom_site_type_symbol
_atom_site_label
_atom_site_fract_x
_atom_site_fract_y
_atom_site_fract_z
Si Si1 0.592768 0.338358 0.756540
Si Si2 0.917885 0.341682 0.311856
Si Si3 0.202141 0.269059 0.107002
Si Si4 0.854300 0.585869 0.389014
Si Si5 0.040204 0.629064 0.103687
O O1 0.460613 0.354367 0.743401
O O2 0.643009 0.266172 0.672093
O O3 0.615243 0.267199 0.850021
O O4 0.851731 0.238735 0.355479
O O5 0.875012 0.456461 0.359931
O O6 0.896186 0.347989 0.200382
O O7 0.049633 0.344290 0.335218
O O8 0.071194 0.295489 0.108365
O O9 0.240818 0.280501 0.000000
O O10 0.866307 0.598594 0.500000
O O11 0.000000 0.500000 0.108356
O O12 0.092869 0.645149 0.000000
#
# Coordination Sequence:
#
# PCOD9544176 Si02
#       5
#     8   8   8   8   8
#     4  11  23  37  54  84 130 173 209 255 304 377
#     4  11  19  36  62  88 116 155 208 262 303 369
#     4  11  22  38  62  91 122 164 210 258 317 372
#     4  11  21  36  58  85 118 164 210 260 311 362
#     4  10  20  37  62  89 121 162 206 254 315 377
#
# _framework density 19.575037999999999
#
# number of rings (size 3 to 8) (size 9 to 14) (size 15 to 20)
#    0.000    1.200    6.000    2.400    0.000    0.800 
#    0.000    3.000    0.000    0.600    0.000    2.800 
#    0.000    0.000    0.000    0.000    0.000    0.000 
#
# Total GULP energy -223417.462320 kJ/mol
# GULP energy per Si atom -5585.436558 kJ/mol
# Density = 1.953048 g / cm^3
# Si number density = 19.575038 Si / 1000 Ang^3
#
#
#
# Elastic Constant Matrix: (Units=GPa)
#
#
# Indices 1 2 3 4 5 6 
#
# 1 41.6167 14.7910 14.3374 0.0000 0.0000 4.7954
# 2 14.7910 41.6167 14.3374 0.0000 0.0000 -4.7954
# 3 14.3374 14.3374 151.2931 0.0000 0.0000 0.0000
# 4 0.0000 0.0000 0.0000 -20.6823 0.0000 0.0000
# 5 0.0000 0.0000 0.0000 0.0000 -20.6823 0.0000
# 6 4.7954 -4.7954 0.0000 0.0000 0.0000 33.1541
#
#
#
# Elastic Compliance Matrix: (Units=1/GPa)
#
#
# Indices 1 2 3 4 5 6 
#
# 1 0.028968 -0.010343 -0.001765 0.000000 0.000000 -0.005686
# 2 -0.010343 0.028968 -0.001765 0.000000 0.000000 0.005686
# 3 -0.001765 -0.001765 0.006944 0.000000 0.000000 0.000000
# 4 0.000000 0.000000 0.000000 -0.048350 0.000000 0.000000
# 5 0.000000 0.000000 0.000000 0.000000 -0.048350 0.000000
# 6 -0.005686 0.005686 0.000000 0.000000 0.000000 0.031807
#
#
# Mechanical properties :
#
#
# Convention : Reuss Voigt Hill
#
# Bulk Modulus (GPa) = 26.92901 35.71760 31.32330
# Shear Modulus (GPa) = 124.65787 11.09526 67.87657
#
# Velocity S-wave (km/s) = 7.98876 2.38335 5.89494
# Velocity P-wave (km/s) = 9.94386 5.08527 7.89748
#
# Compressibility (1/GPa) = 0.03713468
#
# Stress axis : x y z
#
# Youngs Moduli (GPa) = 34.52093 34.52093 144.00466
#
# Poissons Ratio (x) = 0.35704 0.25418
# Poissons Ratio (y) = 0.35704 0.25418
# Poissons Ratio (z) = 0.06093 0.06093
#
# Static dielectric constant tensor:
#      x y z
#    x 1.705790 0.000000 0.000000 
#    y 0.000000 1.705790 0.000000 
#    z 0.000000 0.000000 1.691210 
# 
# From -- ./inp_files/2913.got.cif
#   From: 2010.05.17/outbox.cif.g08.bks.cpg/sg84_2_cif.got.tgz:2913.got - 2010.06.03 18:57:40.
