data_PCOD9544954
_publ_section_title
;
Structure prediction by ZEFSAII (Michael W. Deem and Ramdas Pophale) SiO2 
 PCOD9544954
Probable space group: P 42/N
;
_chemical_formula_sum "Si O2"
_cell_formula_units_Z 40
_cell_length_a 16.784303
_cell_length_b 16.784303
_cell_length_c 5.516184
_cell_angle_alpha 90.000000
_cell_angle_beta 90.000000
_cell_angle_gamma 90.000000
_cell_volume 1553.979790
_symmetry_space_group_name_H-M "P 42/N"
_symmetry_group_IT_number 86
_space_group.IT_coordinate_system_code '2'
_symmetry_cell_setting 'tetragonal'
loop_
_space_group_symop_operation_xyz
x,y,z
-y,1/2+x,1/2+z
1/2-x,1/2-y,z
1/2+y,-x,1/2+z
-x,-y,-z
y,1/2-x,1/2-z
1/2+x,1/2+y,-z
1/2-y,x,1/2-z
loop_
_atom_site_type_symbol
_atom_site_label
_atom_site_fract_x
_atom_site_fract_y
_atom_site_fract_z
Si Si1 0.551697 0.688287 0.237202
Si Si2 0.951441 0.987392 0.258673
Si Si3 0.130442 0.279744 0.145104
Si Si4 0.720769 0.456005 0.836050
Si Si5 0.361247 0.905132 0.420786
O O1 0.584356 0.600063 0.291047
O O2 0.494401 0.730046 0.433974
O O3 0.618655 0.744244 0.123470
O O4 0.492730 0.663210 0.015809
O O5 0.895298 0.063813 0.257799
O O6 0.000000 0.000000 0.500000
O O7 0.000000 0.000000 0.000000
O O8 0.201180 0.342478 0.195139
O O9 0.041205 0.307064 0.221085
O O10 0.780907 0.391498 0.719097
O O11 0.645114 0.398939 0.866481
#
# Coordination Sequence:
#
# PCOD9544954 Si02
#       5
#     8   8   8   8   8
#     4  10  22  41  64  97 129 181 233 289 358 434
#     4  10  19  38  66  96 134 175 234 292 345 418
#     4  10  23  42  64  99 143 182 233 299 375 453
#     4  11  23  43  67  95 132 183 238 294 368 439
#     4  10  23  41  63  96 132 175 233 292 360 429
#
# _framework density 25.740364
#
# number of rings (size 3 to 8) (size 9 to 14) (size 15 to 20)
#    0.000    1.800    2.000    1.200    0.000    8.000 
#    0.000    5.000    0.000    0.000    0.000    0.000 
#    0.000    0.000    0.000    0.000    0.000    0.000 
#
# Total GULP energy -222766.802916 kJ/mol
# GULP energy per Si atom -5569.170073 kJ/mol
# Density = 2.568178 g / cm^3
# Si number density = 25.740364 Si / 1000 Ang^3
#
#
#
# Elastic Constant Matrix: (Units=GPa)
#
#
# Indices 1 2 3 4 5 6 
#
# 1 95.5861 52.5952 11.0213 0.0000 0.0000 -24.9132
# 2 52.5952 95.5861 11.0213 0.0000 0.0000 24.9132
# 3 11.0213 11.0213 64.7066 0.0000 0.0000 0.0000
# 4 0.0000 0.0000 0.0000 19.2452 0.0000 0.0000
# 5 0.0000 0.0000 0.0000 0.0000 19.2452 0.0000
# 6 -24.9132 24.9132 0.0000 0.0000 0.0000 11.1853
#
#
#
# Elastic Compliance Matrix: (Units=1/GPa)
#
#
# Indices 1 2 3 4 5 6 
#
# 1 -0.003892 0.010816 -0.001179 0.000000 0.000000 -0.032760
# 2 0.010816 -0.003892 -0.001179 0.000000 0.000000 0.032760
# 3 -0.001179 -0.001179 0.015856 0.000000 0.000000 0.000000
# 4 0.000000 0.000000 0.000000 0.051961 0.000000 0.000000
# 5 0.000000 0.000000 0.000000 0.000000 0.051961 0.000000
# 6 -0.032760 0.032760 0.000000 0.000000 0.000000 -0.056532
#
#
# Mechanical properties :
#
#
# Convention : Reuss Voigt Hill
#
# Bulk Modulus (GPa) = 40.02138 45.01713 42.51925
# Shear Modulus (GPa) = 106.66562 22.01789 64.34175
#
# Velocity S-wave (km/s) = 6.44430 2.92787 5.00507
# Velocity P-wave (km/s) = 8.42341 5.38115 7.06791
#
# Compressibility (1/GPa) = 0.02498665
#
# Stress axis : x y z
#
# Youngs Moduli (GPa) = -256.92037 -256.92037 63.06711
#
# Poissons Ratio (x) = 2.77890 0.07438
# Poissons Ratio (y) = 2.77890 0.07438
# Poissons Ratio (z) = -0.30299 -0.30299
#
# Static dielectric constant tensor:
#      x y z
#    x 2.148450 0.000000 0.000000 
#    y 0.000000 2.148450 0.000000 
#    z 0.000000 0.000000 2.468270 
# 
# From -- ./inp_files/287.got.cif
#   From: 2010.05.17/outbox.cif.g08.bks.cpg/sg86_1_cif.got.tgz:287.got - 2010.06.03 19:03:11.
