data_PCOD9544566
_publ_section_title
;
Structure prediction by ZEFSAII (Michael W. Deem and Ramdas Pophale) SiO2 
 PCOD9544566
Probable space group: P 4/N
;
_chemical_formula_sum "Si O2"
_cell_formula_units_Z 56
_cell_length_a 13.837223
_cell_length_b 13.837223
_cell_length_c 12.805807
_cell_angle_alpha 90.000000
_cell_angle_beta 90.000000
_cell_angle_gamma 90.000000
_cell_volume 2451.911735
_symmetry_space_group_name_H-M "P 4/N"
_symmetry_group_IT_number 85
_symmetry_cell_setting 'tetragonal'
loop_
_space_group_symop_operation_xyz
x,y,z
1/2-y,x,z
1/2-x,1/2-y,z
y,1/2-x,z
-x,-y,-z
1/2+y,-x,-z
1/2+x,1/2+y,-z
-y,1/2+x,-z
loop_
_atom_site_type_symbol
_atom_site_label
_atom_site_fract_x
_atom_site_fract_y
_atom_site_fract_z
Si Si1 0.071667 0.910204 0.000233
Si Si2 0.514948 0.271655 0.700002
Si Si3 0.200000 0.848121 0.183938
Si Si4 0.397285 0.915602 0.233844
Si Si5 0.338322 0.117828 0.274112
Si Si6 0.685204 0.893964 0.477290
Si Si7 0.286763 0.094383 0.913720
O O1 0.151255 0.906345 0.090200
O O2 0.999208 0.820065 0.021774
O O3 0.116908 0.911256 0.885714
O O4 0.000000 0.000000 0.000000
O O5 0.614065 0.316012 0.741578
O O6 0.538797 0.155945 0.696495
O O7 0.484686 0.329332 0.596422
O O8 0.436032 0.289156 0.791379
O O9 0.250000 0.750000 0.141809
O O10 0.282935 0.900326 0.250406
O O11 0.406362 0.031227 0.235296
O O12 0.378367 0.224066 0.244311
O O13 0.331440 0.099690 0.399302
O O14 0.628510 0.797006 0.450011
O O15 0.362230 0.181122 0.935360
#
# Coordination Sequence:
#
# PCOD9544566 Si02
#       7
#     8   8   8   8   8   8   8
#     4  11  25  37  60  90 123 158 219 263 299 365
#     4  10  20  38  59  92 118 151 206 256 311 365
#     4   9  23  40  60  84 120 171 201 247 314 385
#     4  11  24  38  62  85 124 162 206 250 316 365
#     4   9  21  43  63  86 121 165 208 248 310 385
#     4   9  18  38  67  91 120 159 200 252 317 374
#     4  10  21  37  57  86 123 158 201 258 316 363
#
# _framework density 22.839321999999999
#
# number of rings (size 3 to 8) (size 9 to 14) (size 15 to 20)
#    0.000    2.143    0.000    2.571   10.000    2.286 
#    2.571    2.857    0.000    0.000    0.000    0.000 
#    0.000    0.000    0.000    0.000    0.000    0.000 
#
# Total GULP energy -312706.898789 kJ/mol
# GULP energy per Si atom -5584.051764 kJ/mol
# Density = 2.278734 g / cm^3
# Si number density = 22.839322 Si / 1000 Ang^3
#
#
#
# Elastic Constant Matrix: (Units=GPa)
#
#
# Indices 1 2 3 4 5 6 
#
# 1 69.1158 7.5224 9.6399 0.0000 0.0000 0.6278
# 2 7.5224 69.1158 9.6399 0.0000 0.0000 -0.6278
# 3 9.6399 9.6399 20.8757 0.0000 0.0000 0.0000
# 4 0.0000 0.0000 0.0000 21.9829 0.0000 0.0000
# 5 0.0000 0.0000 0.0000 0.0000 21.9829 0.0000
# 6 0.6278 -0.6278 0.0000 0.0000 0.0000 39.0978
#
#
#
# Elastic Compliance Matrix: (Units=1/GPa)
#
#
# Indices 1 2 3 4 5 6 
#
# 1 0.015502 -0.000739 -0.006817 0.000000 0.000000 -0.000261
# 2 -0.000739 0.015502 -0.006817 0.000000 0.000000 0.000261
# 3 -0.006817 -0.006817 0.054199 0.000000 0.000000 0.000000
# 4 0.000000 0.000000 0.000000 0.045490 0.000000 0.000000
# 5 0.000000 0.000000 0.000000 0.000000 0.045490 0.000000
# 6 -0.000261 0.000261 0.000000 0.000000 0.000000 0.025585
#
#
# Mechanical properties :
#
#
# Convention : Reuss Voigt Hill
#
# Bulk Modulus (GPa) = 17.71293 23.63464 20.67378
# Shear Modulus (GPa) = 20.05344 25.43305 22.74324
#
# Velocity S-wave (km/s) = 2.96636 3.34063 3.15904
# Velocity P-wave (km/s) = 4.41641 5.02498 4.73049
#
# Compressibility (1/GPa) = 0.05645594
#
# Stress axis : x y z
#
# Youngs Moduli (GPa) = 64.50734 64.50734 18.45059
#
# Poissons Ratio (x) = 0.04765 0.12579
# Poissons Ratio (y) = 0.04765 0.12579
# Poissons Ratio (z) = 0.43977 0.43977
#
# Static dielectric constant tensor:
#      x y z
#    x 1.915130 0.000000 0.000000 
#    y 0.000000 1.915130 0.000000 
#    z 0.000000 0.000000 1.865140 
# 
# From -- ./inp_files/1745.got.cif
#   From: 2010.05.17/outbox.cif.g08.bks.cpg/sg85_cif.got.tgz:1745.got - 2010.06.03 19:01:16.
