data_PCOD9544528
_publ_section_title
;
Structure prediction by ZEFSAII (Michael W. Deem and Ramdas Pophale) SiO2 
 PCOD9544528
Probable space group: P 4/N
;
_chemical_formula_sum "Si O2"
_cell_formula_units_Z 56
_cell_length_a 14.825406
_cell_length_b 14.825406
_cell_length_c 11.041640
_cell_angle_alpha 90.000000
_cell_angle_beta 90.000000
_cell_angle_gamma 90.000000
_cell_volume 2426.871460
_symmetry_space_group_name_H-M "P 4/N"
_symmetry_group_IT_number 85
_symmetry_cell_setting 'tetragonal'
loop_
_space_group_symop_operation_xyz
x,y,z
1/2-y,x,z
1/2-x,1/2-y,z
y,1/2-x,z
-x,-y,-z
1/2+y,-x,-z
1/2+x,1/2+y,-z
-y,1/2+x,-z
loop_
_atom_site_type_symbol
_atom_site_label
_atom_site_fract_x
_atom_site_fract_y
_atom_site_fract_z
Si Si1 0.878628 0.561852 0.100863
Si Si2 0.654008 0.165347 0.442985
Si Si3 0.976000 0.809381 0.361292
Si Si4 0.039332 0.931500 0.784014
Si Si5 0.855837 0.849868 0.850601
Si Si6 0.974029 0.615452 0.450084
Si Si7 0.881229 0.186359 0.029742
O O1 0.834029 0.567699 0.232770
O O2 0.985196 0.558667 0.125374
O O3 0.859177 0.634032 0.996476
O O4 0.842533 0.468244 0.046094
O O5 0.653141 0.275247 0.442036
O O6 0.549052 0.137363 0.450343
O O7 0.691894 0.086300 0.354690
O O8 0.943525 0.712795 0.403504
O O9 0.945756 0.885531 0.458063
O O10 0.095827 0.847697 0.835558
O O11 0.933903 0.909208 0.791995
O O12 0.069555 0.966779 0.655341
O O13 0.754211 0.873464 0.817068
O O14 0.792148 0.137146 0.980621
#
# Coordination Sequence:
#
# PCOD9544528 Si02
#       7
#     8   8   8   8   8   8   8
#     4  10  22  33  53  77 110 142 187 228 287 323
#     4   9  19  38  62  87 115 149 190 237 289 353
#     4  10  21  36  59  83 122 147 194 237 288 350
#     4  10  22  35  54  77 111 146 189 236 280 338
#     4  10  22  37  57  79 108 154 196 235 283 342
#     4  10  21  38  57  89 113 155 189 240 292 340
#     4  10  20  31  48  72 103 140 178 225 276 328
#
# _framework density 23.074975999999999
#
# number of rings (size 3 to 8) (size 9 to 14) (size 15 to 20)
#    0.000    2.143    0.000    3.000   12.000    1.429 
#    2.571    2.857    0.000    0.000    0.000    0.000 
#    0.000    0.000    0.000    0.000    0.000    0.000 
#
# Total GULP energy -312524.933331 kJ/mol
# GULP energy per Si atom -5580.802381 kJ/mol
# Density = 2.302246 g / cm^3
# Si number density = 23.074976 Si / 1000 Ang^3
#
#
#
# Elastic Constant Matrix: (Units=GPa)
#
#
# Indices 1 2 3 4 5 6 
#
# 1 79.7981 20.9713 1.6435 0.0000 0.0000 0.9334
# 2 20.9713 79.7981 1.6435 0.0000 0.0000 -0.9334
# 3 1.6435 1.6435 9.3393 0.0000 0.0000 0.0000
# 4 0.0000 0.0000 0.0000 9.3044 0.0000 0.0000
# 5 0.0000 0.0000 0.0000 0.0000 9.3044 0.0000
# 6 0.9334 -0.9334 0.0000 0.0000 0.0000 23.9381
#
#
#
# Elastic Compliance Matrix: (Units=1/GPa)
#
#
# Indices 1 2 3 4 5 6 
#
# 1 0.013501 -0.003520 -0.001756 0.000000 0.000000 -0.000664
# 2 -0.003520 0.013501 -0.001756 0.000000 0.000000 0.000664
# 3 -0.001756 -0.001756 0.107693 0.000000 0.000000 0.000000
# 4 0.000000 0.000000 0.000000 0.107476 0.000000 0.000000
# 5 0.000000 0.000000 0.000000 0.000000 0.107476 0.000000
# 6 -0.000664 0.000664 0.000000 0.000000 0.000000 0.041826
#
#
# Mechanical properties :
#
#
# Convention : Reuss Voigt Hill
#
# Bulk Modulus (GPa) = 8.28986 24.16132 16.22559
# Shear Modulus (GPa) = 11.21712 18.15453 14.68583
#
# Velocity S-wave (km/s) = 2.20720 2.80797 2.52551
# Velocity P-wave (km/s) = 3.17742 4.58328 3.94350
#
# Compressibility (1/GPa) = 0.12062934
#
# Stress axis : x y z
#
# Youngs Moduli (GPa) = 74.07123 74.07123 9.28566
#
# Poissons Ratio (x) = 0.26070 0.01631
# Poissons Ratio (y) = 0.26070 0.01631
# Poissons Ratio (z) = 0.13010 0.13010
#
# Static dielectric constant tensor:
#      x y z
#    x 1.886220 0.000000 0.000000 
#    y 0.000000 1.886220 0.000000 
#    z 0.000000 0.000000 1.908970 
# 
# From -- ./inp_files/1739.got.cif
#   From: 2010.05.17/outbox.cif.g08.bks.cpg/sg85_cif.got.tgz:1739.got - 2010.06.03 19:01:16.
