data_PCOD9544947
_publ_section_title
;
Structure prediction by ZEFSAII (Michael W. Deem and Ramdas Pophale) SiO2 
 PCOD9544947
Probable space group: P 42/N
;
_chemical_formula_sum "Si O2"
_cell_formula_units_Z 36
_cell_length_a 10.683428
_cell_length_b 10.683428
_cell_length_c 16.639285
_cell_angle_alpha 90.000000
_cell_angle_beta 90.000000
_cell_angle_gamma 90.000000
_cell_volume 1899.135340
_symmetry_space_group_name_H-M "P 42/N"
_symmetry_group_IT_number 86
_space_group.IT_coordinate_system_code '2'
_symmetry_cell_setting 'tetragonal'
loop_
_space_group_symop_operation_xyz
x,y,z
-y,1/2+x,1/2+z
1/2-x,1/2-y,z
1/2+y,-x,1/2+z
-x,-y,-z
y,1/2-x,1/2-z
1/2+x,1/2+y,-z
1/2-y,x,1/2-z
loop_
_atom_site_type_symbol
_atom_site_label
_atom_site_fract_x
_atom_site_fract_y
_atom_site_fract_z
Si Si1 0.944790 0.408587 0.101656
Si Si2 0.613658 0.472876 0.939676
Si Si3 0.164101 0.365882 0.985748
Si Si4 0.142661 0.069984 0.237055
Si Si5 0.750000 0.250000 0.004423
O O1 0.827748 0.337272 0.064329
O O2 0.063781 0.343940 0.056785
O O3 0.971221 0.394913 0.194878
O O4 0.917956 0.553275 0.077320
O O5 0.733081 0.546586 0.973125
O O6 0.595817 0.522239 0.849486
O O7 0.500000 0.500000 0.000000
O O8 0.654773 0.328581 0.949027
O O9 0.250000 0.250000 0.956747
O O10 0.086843 0.206411 0.259864
#
# Coordination Sequence:
#
# PCOD9544947 Si02
#       5
#     8   8   8   8   4
#     4  10  21  36  61  91 116 158 204 248 306 366
#     4  11  22  37  60  88 121 160 201 249 313 369
#     4  10  19  37  62  85 119 158 199 245 305 371
#     4  11  21  36  60  92 119 151 205 262 306 361
#     4  10  22  38  58  86 122 164 198 248 304 374
#
# _framework density 18.955995000000001
#
# number of rings (size 3 to 8) (size 9 to 14) (size 15 to 20)
#    0.000    1.556    2.222    4.000    0.000    0.889 
#    0.000    0.000    0.000    0.000    0.000    0.000 
#    0.000    0.000    0.000    0.000    0.000    0.000 
#
# Total GULP energy -200664.582334 kJ/mol
# GULP energy per Si atom -5574.016176 kJ/mol
# Density = 1.891285 g / cm^3
# Si number density = 18.955995 Si / 1000 Ang^3
#
#
#
# Elastic Constant Matrix: (Units=GPa)
#
#
# Indices 1 2 3 4 5 6 
#
# 1 71.1456 13.9318 44.7622 0.0000 0.0000 5.6262
# 2 13.9318 71.1456 44.7622 0.0000 0.0000 -5.6262
# 3 44.7622 44.7622 146.6026 0.0000 0.0000 0.0000
# 4 0.0000 0.0000 0.0000 21.2392 0.0000 0.0000
# 5 0.0000 0.0000 0.0000 0.0000 21.2392 0.0000
# 6 5.6262 -5.6262 0.0000 0.0000 0.0000 37.8983
#
#
#
# Elastic Compliance Matrix: (Units=1/GPa)
#
#
# Indices 1 2 3 4 5 6 
#
# 1 0.017661 -0.000343 -0.005288 0.000000 0.000000 -0.002673
# 2 -0.000343 0.017661 -0.005288 0.000000 0.000000 0.002673
# 3 -0.005288 -0.005288 0.010050 0.000000 0.000000 0.000000
# 4 0.000000 0.000000 0.000000 0.047083 0.000000 0.000000
# 5 0.000000 0.000000 0.000000 0.000000 0.047083 0.000000
# 6 -0.002673 0.002673 0.000000 0.000000 0.000000 0.027180
#
#
# Mechanical properties :
#
#
# Convention : Reuss Voigt Hill
#
# Bulk Modulus (GPa) = 42.48910 55.08958 48.78934
# Shear Modulus (GPa) = 25.45828 28.43785 26.94806
#
# Velocity S-wave (km/s) = 3.66870 3.87745 3.77452
# Velocity P-wave (km/s) = 6.35681 7.01221 6.69254
#
# Compressibility (1/GPa) = 0.02353545
#
# Stress axis : x y z
#
# Youngs Moduli (GPa) = 56.62179 56.62179 99.50071
#
# Poissons Ratio (x) = 0.01942 0.52613
# Poissons Ratio (y) = 0.01942 0.52613
# Poissons Ratio (z) = 0.29940 0.29940
#
# Static dielectric constant tensor:
#      x y z
#    x 1.729010 0.000000 0.000000 
#    y 0.000000 1.729010 0.000000 
#    z 0.000000 0.000000 1.647090 
# 
# From -- ./inp_files/2808.got.cif
#   From: 2010.05.17/outbox.cif.g08.bks.cpg/sg86_2_cif.got.tgz:2808.got - 2010.06.03 19:03:11.
