data_PCOD9544930
_publ_section_title
;
Structure prediction by ZEFSAII (Michael W. Deem and Ramdas Pophale) SiO2 
 PCOD9544930
Probable space group: P 42/N
;
_chemical_formula_sum "Si O2"
_cell_formula_units_Z 38
_cell_length_a 11.032443
_cell_length_b 11.032443
_cell_length_c 15.260941
_cell_angle_alpha 90.000000
_cell_angle_beta 90.000000
_cell_angle_gamma 90.000000
_cell_volume 1857.482359
_symmetry_space_group_name_H-M "P 42/N"
_symmetry_group_IT_number 86
_space_group.IT_coordinate_system_code '2'
_symmetry_cell_setting 'tetragonal'
loop_
_space_group_symop_operation_xyz
x,y,z
-y,1/2+x,1/2+z
1/2-x,1/2-y,z
1/2+y,-x,1/2+z
-x,-y,-z
y,1/2-x,1/2-z
1/2+x,1/2+y,-z
1/2-y,x,1/2-z
loop_
_atom_site_type_symbol
_atom_site_label
_atom_site_fract_x
_atom_site_fract_y
_atom_site_fract_z
Si Si1 0.446432 0.081562 0.829803
Si Si2 0.750000 0.750000 0.750000
Si Si3 0.250000 0.750000 0.350317
Si Si4 0.894967 0.781166 0.032244
Si Si5 0.495953 0.175357 0.643657
Si Si6 0.509548 0.815141 0.854555
O O1 0.455152 0.195184 0.894184
O O2 0.503074 0.100053 0.733742
O O3 0.300661 0.065776 0.823572
O O4 0.500564 0.959131 0.870687
O O5 0.629249 0.784841 0.801801
O O6 0.375937 0.783307 0.396003
O O7 0.281831 0.618927 0.307711
O O8 0.750000 0.750000 0.018244
O O9 0.890916 0.914662 0.072575
O O10 0.970044 0.757468 0.944614
#
# Coordination Sequence:
#
# PCOD9544930 Si02
#       6
#     8   2   4   8   8   8
#     4  10  19  35  65  95 124 159 210 261 314 377
#     4  12  24  44  68  88 130 184 220 256 332 404
#     4  10  24  40  58  90 130 160 210 278 312 370
#     4  10  20  36  64  94 121 162 214 255 314 387
#     4  10  19  36  62  91 125 165 210 259 319 381
#     4  11  23  41  62  90 129 167 208 265 318 384
#
# _framework density 20.457796999999999
#
# number of rings (size 3 to 8) (size 9 to 14) (size 15 to 20)
#    0.000    1.684    3.158    1.895    0.000    0.842 
#    0.000    1.053    0.000    0.000    0.000    0.000 
#    0.000    0.000    0.000    0.000    0.000    0.000 
#
# Total GULP energy -211592.408199 kJ/mol
# GULP energy per Si atom -5568.221268 kJ/mol
# Density = 2.041123 g / cm^3
# Si number density = 20.457797 Si / 1000 Ang^3
#
#
#
# Elastic Constant Matrix: (Units=GPa)
#
#
# Indices 1 2 3 4 5 6 
#
# 1 129.2335 32.0235 29.8710 0.0000 0.0000 8.4021
# 2 32.0235 129.2335 29.8710 0.0000 0.0000 -8.4021
# 3 29.8710 29.8710 58.1826 0.0000 0.0000 0.0000
# 4 0.0000 0.0000 0.0000 -27.8814 0.0000 0.0000
# 5 0.0000 0.0000 0.0000 0.0000 -27.8814 0.0000
# 6 8.4021 -8.4021 0.0000 0.0000 0.0000 33.9507
#
#
#
# Elastic Compliance Matrix: (Units=1/GPa)
#
#
# Indices 1 2 3 4 5 6 
#
# 1 0.009202 -0.001544 -0.003932 0.000000 0.000000 -0.002660
# 2 -0.001544 0.009202 -0.003932 0.000000 0.000000 0.002660
# 3 -0.003932 -0.003932 0.021224 0.000000 0.000000 0.000000
# 4 0.000000 0.000000 0.000000 -0.035866 0.000000 0.000000
# 5 0.000000 0.000000 0.000000 0.000000 -0.035866 0.000000
# 6 -0.002660 0.002660 0.000000 0.000000 0.000000 0.030771
#
#
# Mechanical properties :
#
#
# Convention : Reuss Voigt Hill
#
# Bulk Modulus (GPa) = 48.04532 55.57565 51.81048
# Shear Modulus (GPa) = 204.74890 10.62985 107.68938
#
# Velocity S-wave (km/s) = 10.01503 2.28194 7.26320
# Velocity P-wave (km/s) = 12.54075 5.84534 9.78362
#
# Compressibility (1/GPa) = 0.02081368
#
# Stress axis : x y z
#
# Youngs Moduli (GPa) = 108.66861 108.66861 47.11608
#
# Poissons Ratio (x) = 0.16784 0.18524
# Poissons Ratio (y) = 0.16784 0.18524
# Poissons Ratio (z) = 0.42723 0.42723
#
# Static dielectric constant tensor:
#      x y z
#    x 1.786610 0.000000 0.000000 
#    y 0.000000 1.786610 0.000000 
#    z 0.000000 0.000000 1.710380 
# 
# From -- ./inp_files/2935.got.cif
#   From: 2010.05.17/outbox.cif.g08.bks.cpg/sg86_2_cif.got.tgz:2935.got - 2010.06.03 19:03:11.
