data_PCOD9544168
_publ_section_title
;
Structure prediction by ZEFSAII (Michael W. Deem and Ramdas Pophale) SiO2 
 PCOD9544168
Probable space group: P 42/M
;
_chemical_formula_sum "Si O2"
_cell_formula_units_Z 40
_cell_length_a 14.446069
_cell_length_b 14.446069
_cell_length_c 7.727403
_cell_angle_alpha 90.000000
_cell_angle_beta 90.000000
_cell_angle_gamma 90.000000
_cell_volume 1612.623306
_symmetry_space_group_name_H-M "P 42/M"
_symmetry_group_IT_number 84
_symmetry_cell_setting 'tetragonal'
loop_
_space_group_symop_operation_xyz
x,y,z
-y,x,1/2+z
-x,-y,z
y,-x,1/2+z
-x,-y,-z
y,-x,1/2-z
x,y,-z
-y,x,1/2-z
loop_
_atom_site_type_symbol
_atom_site_label
_atom_site_fract_x
_atom_site_fract_y
_atom_site_fract_z
Si Si1 0.603434 0.606009 0.798047
Si Si2 0.000389 0.144262 0.303605
Si Si3 0.677586 0.794427 0.307322
Si Si4 0.490538 0.896123 0.205730
Si Si5 0.140801 0.286627 0.712817
O O1 0.622108 0.506410 0.717612
O O2 0.650347 0.686420 0.691779
O O3 0.629608 0.608164 0.000000
O O4 0.967334 0.154211 0.500000
O O5 0.041340 0.242007 0.241361
O O6 0.924694 0.089191 0.195995
O O7 0.689079 0.832061 0.500000
O O8 0.587677 0.843918 0.230510
O O9 0.777993 0.781768 0.220717
O O10 0.393636 0.851936 0.270889
O O11 0.500000 0.000000 0.276229
O O12 0.476784 0.902686 0.000000
O O13 0.145936 0.283560 0.500000
#
# Coordination Sequence:
#
# PCOD9544168 Si02
#       5
#     8   8   8   8   8
#     4  11  21  35  56  84 116 152 196 247 302 359
#     4  10  20  37  60  88 120 155 197 250 311 370
#     4  11  22  38  59  84 119 161 204 253 309 373
#     4  10  22  41  64  89 121 163 211 263 321 385
#     4   9  21  39  60  87 123 163 202 254 319 372
#
# _framework density 24.804304999999999
#
# number of rings (size 3 to 8) (size 9 to 14) (size 15 to 20)
#    0.000    1.800    0.000    5.400    2.800    2.000 
#    0.000    6.000    0.000    0.000    0.000    0.000 
#    0.000    0.000    0.000    0.000    0.000    0.000 
#
# Total GULP energy -223459.327232 kJ/mol
# GULP energy per Si atom -5586.483181 kJ/mol
# Density = 2.474785 g / cm^3
# Si number density = 24.804305 Si / 1000 Ang^3
#
#
#
# Elastic Constant Matrix: (Units=GPa)
#
#
# Indices 1 2 3 4 5 6 
#
# 1 68.3097 57.2388 6.6449 0.0000 0.0000 -12.1357
# 2 57.2388 68.3097 6.6449 0.0000 0.0000 12.1357
# 3 6.6449 6.6449 75.8651 0.0000 0.0000 0.0000
# 4 0.0000 0.0000 0.0000 16.7723 0.0000 0.0000
# 5 0.0000 0.0000 0.0000 0.0000 16.7723 0.0000
# 6 -12.1357 12.1357 0.0000 0.0000 0.0000 42.5522
#
#
#
# Elastic Compliance Matrix: (Units=1/GPa)
#
#
# Indices 1 2 3 4 5 6 
#
# 1 0.124536 -0.116497 -0.000704 0.000000 0.000000 0.068741
# 2 -0.116497 0.124536 -0.000704 0.000000 0.000000 -0.068741
# 3 -0.000704 -0.000704 0.013305 0.000000 0.000000 0.000000
# 4 0.000000 0.000000 0.000000 0.059622 0.000000 0.000000
# 5 0.000000 0.000000 0.000000 0.000000 0.059622 0.000000
# 6 0.068741 -0.068741 0.000000 0.000000 0.000000 0.062710
#
#
# Mechanical properties :
#
#
# Convention : Reuss Voigt Hill
#
# Bulk Modulus (GPa) = 37.64051 39.28241 38.46146
# Shear Modulus (GPa) = 7.25692 24.68309 15.97001
#
# Velocity S-wave (km/s) = 1.71231 3.15796 2.54015
# Velocity P-wave (km/s) = 4.37233 5.40077 4.91353
#
# Compressibility (1/GPa) = 0.02656712
#
# Stress axis : x y z
#
# Youngs Moduli (GPa) = 8.02979 8.02979 75.16174
#
# Poissons Ratio (x) = 0.93544 0.05293
# Poissons Ratio (y) = 0.93544 0.05293
# Poissons Ratio (z) = 0.00565 0.00565
#
# Static dielectric constant tensor:
#      x y z
#    x 1.995340 0.000000 0.000000 
#    y 0.000000 1.995340 0.000000 
#    z 0.000000 0.000000 1.959250 
# 
# From -- ./inp_files/785.got.cif
#   From: 2010.05.17/outbox.cif.g08.bks.cpg/sg84_1_cif.got.tgz:785.got - 2010.06.03 18:57:40.
