data_PCOD9544514
_publ_section_title
;
Structure prediction by ZEFSAII (Michael W. Deem and Ramdas Pophale) SiO2 
 PCOD9544514
Probable space group: P 4/N
;
_chemical_formula_sum "Si O2"
_cell_formula_units_Z 64
_cell_length_a 25.099935
_cell_length_b 25.099935
_cell_length_c 5.286332
_cell_angle_alpha 90.000000
_cell_angle_beta 90.000000
_cell_angle_gamma 90.000000
_cell_volume 3330.424774
_symmetry_space_group_name_H-M "P 4/N"
_symmetry_group_IT_number 85
_symmetry_cell_setting 'tetragonal'
loop_
_space_group_symop_operation_xyz
x,y,z
1/2-y,x,z
1/2-x,1/2-y,z
y,1/2-x,z
-x,-y,-z
1/2+y,-x,-z
1/2+x,1/2+y,-z
-y,1/2+x,-z
loop_
_atom_site_type_symbol
_atom_site_label
_atom_site_fract_x
_atom_site_fract_y
_atom_site_fract_z
Si Si1 0.932605 0.065912 0.571112
Si Si2 0.515841 0.824927 0.048060
Si Si3 0.818222 0.294033 0.472766
Si Si4 0.365006 0.028047 0.378200
Si Si5 0.543343 0.889917 0.556173
Si Si6 0.096164 0.663485 0.246049
Si Si7 0.338594 0.895867 0.884997
Si Si8 0.703137 0.992213 0.121887
O O1 0.874052 0.069217 0.450243
O O2 0.926123 0.106358 0.803654
O O3 0.978240 0.093651 0.404891
O O4 0.935183 0.002728 0.606827
O O5 0.536601 0.862009 0.280673
O O6 0.450772 0.826762 0.049794
O O7 0.529014 0.763127 0.095365
O O8 0.535977 0.847513 0.782146
O O9 0.806769 0.235134 0.365080
O O10 0.873066 0.288349 0.626893
O O11 0.827011 0.343600 0.284161
O O12 0.400548 0.080396 0.416622
O O13 0.323460 0.022654 0.610362
O O14 0.333746 0.025813 0.113310
O O15 0.145755 0.628369 0.151429
O O16 0.296536 0.943056 0.888793
#
# Coordination Sequence:
#
# PCOD9544514 Si02
#       8
#     8   8   8   8   8   8   8   8
#     4   9  19  35  53  81 113 150 190 238 288 350
#     4  11  23  39  60  87 121 160 197 241 294 354
#     4  10  22  35  47  68  98 140 200 264 312 338
#     4  11  22  38  61  89 121 155 196 242 294 356
#     4  11  22  38  61  89 121 155 196 242 294 356
#     4  10  19  36  53  75 105 145 202 241 292 348
#     4  10  19  36  53  75 105 145 202 241 292 348
#     4  11  23  39  60  87 121 160 197 241 294 354
#
# _framework density 19.216767999999998
#
# number of rings (size 3 to 8) (size 9 to 14) (size 15 to 20)
#    0.000    1.625    2.500    2.625    0.000    2.000 
#    0.000    5.000    0.000    0.000    0.000    0.000 
#    0.000   35.000    0.000    0.000    0.000    0.000 
#
# Total GULP energy -356473.632911 kJ/mol
# GULP energy per Si atom -5569.900514 kJ/mol
# Density = 1.917303 g / cm^3
# Si number density = 19.216768 Si / 1000 Ang^3
#
#
#
# Elastic Constant Matrix: (Units=GPa)
#
#
# Indices 1 2 3 4 5 6 
#
# 1 64.9336 27.7605 10.2681 0.0000 0.0000 0.5836
# 2 27.7605 64.9336 10.2681 0.0000 0.0000 -0.5836
# 3 10.2681 10.2681 68.1853 0.0000 0.0000 0.0000
# 4 0.0000 0.0000 0.0000 15.6963 0.0000 0.0000
# 5 0.0000 0.0000 0.0000 0.0000 15.6963 0.0000
# 6 0.5836 -0.5836 0.0000 0.0000 0.0000 22.7794
#
#
#
# Elastic Compliance Matrix: (Units=1/GPa)
#
#
# Indices 1 2 3 4 5 6 
#
# 1 0.019042 -0.007881 -0.001681 0.000000 0.000000 -0.000690
# 2 -0.007881 0.019042 -0.001681 0.000000 0.000000 0.000690
# 3 -0.001681 -0.001681 0.015172 0.000000 0.000000 0.000000
# 4 0.000000 0.000000 0.000000 0.063709 0.000000 0.000000
# 5 0.000000 0.000000 0.000000 0.000000 0.063709 0.000000
# 6 -0.000690 0.000690 0.000000 0.000000 0.000000 0.043935
#
#
# Mechanical properties :
#
#
# Convention : Reuss Voigt Hill
#
# Bulk Modulus (GPa) = 32.49870 32.73842 32.61856
# Shear Modulus (GPa) = 19.42873 20.81810 20.12342
#
# Velocity S-wave (km/s) = 3.18312 3.29497 3.23953
# Velocity P-wave (km/s) = 5.51888 5.61686 5.56809
#
# Compressibility (1/GPa) = 0.03077046
#
# Stress axis : x y z
#
# Youngs Moduli (GPa) = 52.51642 52.51642 65.91045
#
# Poissons Ratio (x) = 0.41389 0.11077
# Poissons Ratio (y) = 0.41389 0.11077
# Poissons Ratio (z) = 0.08826 0.08826
#
# Static dielectric constant tensor:
#      x y z
#    x 1.714850 0.000000 0.000000 
#    y 0.000000 1.714850 0.000000 
#    z 0.000000 0.000000 1.701930 
# 
# From -- ./inp_files/578.got.cif
#   From: 2010.05.17/outbox.cif.g08.bks.cpg/sg85_cif.got.tgz:578.got - 2010.06.03 19:01:16.
