data_PCOD9544655
_publ_section_title
;
Structure prediction by ZEFSAII (Michael W. Deem and Ramdas Pophale) SiO2 
 PCOD9544655
Probable space group: P 4/N
;
_chemical_formula_sum "Si O2"
_cell_formula_units_Z 40
_cell_length_a 11.316870
_cell_length_b 11.316870
_cell_length_c 14.472719
_cell_angle_alpha 90.000000
_cell_angle_beta 90.000000
_cell_angle_gamma 90.000000
_cell_volume 1853.543506
_symmetry_space_group_name_H-M "P 4/N"
_symmetry_group_IT_number 85
_symmetry_cell_setting 'tetragonal'
loop_
_space_group_symop_operation_xyz
x,y,z
1/2-y,x,z
1/2-x,1/2-y,z
y,1/2-x,z
-x,-y,-z
1/2+y,-x,-z
1/2+x,1/2+y,-z
-y,1/2+x,-z
loop_
_atom_site_type_symbol
_atom_site_label
_atom_site_fract_x
_atom_site_fract_y
_atom_site_fract_z
Si Si1 0.927419 0.660089 0.500000
Si Si2 0.428995 0.336506 0.187125
Si Si3 0.334028 0.930536 1.000000
Si Si4 0.071004 0.163495 0.812874
Si Si5 0.999999 0.000000 0.658910
O O1 0.903225 0.798692 0.499999
O O2 0.991902 0.612030 0.409070
O O3 0.991901 0.612031 0.590930
O O4 0.302434 0.401724 0.191408
O O5 0.495202 0.361113 0.091558
O O6 0.500754 0.387441 0.273499
O O7 0.400847 0.805812 0.999999
O O8 0.361111 0.004798 0.908441
O O9 0.197564 0.098277 0.808590
O O10 0.999245 0.112560 0.726500
#
# Coordination Sequence:
#
# PCOD9544655 Si02
#       5
#     8   8   8   8   8
#     4  10  22  42  66  92 122 160 206 255 316 387
#     4  11  23  40  64  92 124 168 216 257 305 370
#     4  11  24  41  62  93 132 168 204 255 314 367
#     4  11  23  40  64  92 124 168 216 257 305 370
#     4  11  22  37  64  94 122 155 204 265 312 356
#
# _framework density 21.580285
#
# number of rings (size 3 to 8) (size 9 to 14) (size 15 to 20)
#    0.000    1.200    0.000    6.000    0.000    7.200 
#    0.000    0.000    0.000   40.800    0.000    0.000 
#    0.000    0.000    0.000    0.000    0.000    0.000 
#
# Total GULP energy -223982.327687 kJ/mol
# GULP energy per Si atom -5599.558192 kJ/mol
# Density = 2.153117 g / cm^3
# Si number density = 21.580285 Si / 1000 Ang^3
#
#
#
# Elastic Constant Matrix: (Units=GPa)
#
#
# Indices 1 2 3 4 5 6 
#
# 1 115.9394 60.9801 76.7189 0.0000 0.0000 -3.6137
# 2 60.9801 115.9394 76.7189 0.0000 0.0000 3.6137
# 3 76.7189 76.7189 217.5007 0.0000 0.0000 0.0000
# 4 0.0000 0.0000 0.0000 30.7707 0.0000 0.0000
# 5 0.0000 0.0000 0.0000 0.0000 30.7707 0.0000
# 6 -3.6137 3.6137 0.0000 0.0000 0.0000 36.3963
#
#
#
# Elastic Compliance Matrix: (Units=1/GPa)
#
#
# Indices 1 2 3 4 5 6 
#
# 1 0.013290 -0.005146 -0.002872 0.000000 0.000000 0.001830
# 2 -0.005146 0.013290 -0.002872 0.000000 0.000000 -0.001830
# 3 -0.002872 -0.002872 0.006624 0.000000 0.000000 0.000000
# 4 0.000000 0.000000 0.000000 0.032498 0.000000 0.000000
# 5 0.000000 0.000000 0.000000 0.000000 0.032498 0.000000
# 6 0.001830 -0.001830 0.000000 0.000000 0.000000 0.027839
#
#
# Mechanical properties :
#
#
# Convention : Reuss Voigt Hill
#
# Bulk Modulus (GPa) = 87.55596 97.57949 92.56772
# Shear Modulus (GPa) = 32.97528 35.25163 34.11346
#
# Velocity S-wave (km/s) = 3.91324 4.04606 3.98020
# Velocity P-wave (km/s) = 7.81526 8.19406 8.00690
#
# Compressibility (1/GPa) = 0.01142127
#
# Stress axis : x y z
#
# Youngs Moduli (GPa) = 75.24597 75.24597 150.96423
#
# Poissons Ratio (x) = 0.38723 0.43364
# Poissons Ratio (y) = 0.38723 0.43364
# Poissons Ratio (z) = 0.21614 0.21614
#
# Static dielectric constant tensor:
#      x y z
#    x 1.783460 0.000000 0.000000 
#    y 0.000000 1.783460 0.000000 
#    z 0.000000 0.000000 1.753880 
# 
# From -- ./inp_files/1908.got.cif
#   From: 2010.05.17/outbox.cif.g08.bks.cpg/sg85_cif.got.tgz:1908.got - 2010.06.03 19:01:16.
