data_PCOD9544618
_publ_section_title
;
Structure prediction by ZEFSAII (Michael W. Deem and Ramdas Pophale) SiO2 
 PCOD9544618
Probable space group: P 4/N
;
_chemical_formula_sum "Si O2"
_cell_formula_units_Z 58
_cell_length_a 17.551743
_cell_length_b 17.551743
_cell_length_c 7.725244
_cell_angle_alpha 90.000000
_cell_angle_beta 90.000000
_cell_angle_gamma 90.000000
_cell_volume 2379.867114
_symmetry_space_group_name_H-M "P 4/N"
_symmetry_group_IT_number 85
_symmetry_cell_setting 'tetragonal'
loop_
_space_group_symop_operation_xyz
x,y,z
1/2-y,x,z
1/2-x,1/2-y,z
y,1/2-x,z
-x,-y,-z
1/2+y,-x,-z
1/2+x,1/2+y,-z
-y,1/2+x,-z
loop_
_atom_site_type_symbol
_atom_site_label
_atom_site_fract_x
_atom_site_fract_y
_atom_site_fract_z
Si Si1 0.368351 0.269664 0.396054
Si Si2 0.899472 0.807724 0.222700
Si Si3 0.750000 0.750000 0.073026
Si Si4 0.933291 0.974552 0.368385
Si Si5 0.496388 0.809864 0.666489
Si Si6 0.380607 0.900056 0.172021
Si Si7 0.233358 0.968340 0.982355
Si Si8 0.675189 0.339058 0.511896
O O1 0.310594 0.333603 0.330522
O O2 0.364449 0.272654 0.602274
O O3 0.457173 0.269167 0.357776
O O4 0.829848 0.801873 0.088044
O O5 0.929875 0.891142 0.281203
O O6 0.970290 0.757162 0.160303
O O7 0.861391 0.977413 0.503444
O O8 0.935205 0.035940 0.211924
O O9 0.000000 0.000000 0.500000
O O10 0.507760 0.820111 0.870631
O O11 0.405741 0.816786 0.647888
O O12 0.313569 0.940246 0.065700
O O13 0.353820 0.887559 0.369499
O O14 0.400490 0.818114 0.089884
O O15 0.756144 0.337463 0.413440
#
# Coordination Sequence:
#
# PCOD9544618 Si02
#       8
#     8   8   2   8   8   8   8   8
#     4  11  21  43  72 102 135 191 253 305 366 441
#     4  12  23  46  78 107 150 202 250 320 387 470
#     4  12  20  48  76 110 140 208 260 290 388 460
#     4  11  27  49  80 108 147 204 259 311 388 472
#     4  11  24  46  67 107 142 187 254 307 371 448
#     4  11  27  48  68 109 148 202 239 312 396 459
#     4  12  29  45  72 106 161 193 247 315 394 463
#     4  10  21  41  75 101 131 184 255 306 359 454
#
# _framework density 24.371108
#
# number of rings (size 3 to 8) (size 9 to 14) (size 15 to 20)
#    0.000    0.828    4.138    2.483    5.793    1.931 
#    7.448    0.000    0.000    0.000    0.000    0.000 
#    0.000    0.000    0.000    0.000    0.000    0.000 
#
# Total GULP energy -322956.595644 kJ/mol
# GULP energy per Si atom -5568.217166 kJ/mol
# Density = 2.431564 g / cm^3
# Si number density = 24.371108 Si / 1000 Ang^3
#
#
#
# Elastic Constant Matrix: (Units=GPa)
#
#
# Indices 1 2 3 4 5 6 
#
# 1 95.4523 29.0263 18.6723 0.0000 0.0000 -8.3691
# 2 29.0263 95.4523 18.6723 0.0000 0.0000 8.3691
# 3 18.6723 18.6723 68.4630 0.0000 0.0000 0.0000
# 4 0.0000 0.0000 0.0000 18.9988 0.0000 0.0000
# 5 0.0000 0.0000 0.0000 0.0000 18.9988 0.0000
# 6 -8.3691 8.3691 0.0000 0.0000 0.0000 38.9536
#
#
#
# Elastic Compliance Matrix: (Units=1/GPa)
#
#
# Indices 1 2 3 4 5 6 
#
# 1 0.012333 -0.003583 -0.002386 0.000000 0.000000 0.003420
# 2 -0.003583 0.012333 -0.002386 0.000000 0.000000 -0.003420
# 3 -0.002386 -0.002386 0.015908 0.000000 0.000000 0.000000
# 4 0.000000 0.000000 0.000000 0.052635 0.000000 0.000000
# 5 0.000000 0.000000 0.000000 0.000000 0.052635 0.000000
# 6 0.003420 -0.003420 0.000000 0.000000 0.000000 0.027141
#
#
# Mechanical properties :
#
#
# Convention : Reuss Voigt Hill
#
# Bulk Modulus (GPa) = 41.90798 43.56769 42.73783
# Shear Modulus (GPa) = 25.29728 28.25670 26.77699
#
# Velocity S-wave (km/s) = 3.22530 3.40874 3.31829
# Velocity P-wave (km/s) = 5.57702 5.77999 5.67941
#
# Compressibility (1/GPa) = 0.02386181
#
# Stress axis : x y z
#
# Youngs Moduli (GPa) = 81.08522 81.08522 62.86119
#
# Poissons Ratio (x) = 0.29055 0.15000
# Poissons Ratio (y) = 0.29055 0.15000
# Poissons Ratio (z) = 0.19349 0.19349
#
# Static dielectric constant tensor:
#      x y z
#    x 2.009350 0.000000 0.000000 
#    y 0.000000 2.009350 0.000000 
#    z 0.000000 0.000000 1.949110 
# 
# From -- ./inp_files/1197.got.cif
#   From: 2010.05.17/outbox.cif.g08.bks.cpg/sg85_cif.got.tgz:1197.got - 2010.06.03 19:01:16.
