data_PCOD9544949
_publ_section_title
;
Structure prediction by ZEFSAII (Michael W. Deem and Ramdas Pophale) SiO2 
 PCOD9544949
Probable space group: P 42/N
;
_chemical_formula_sum "Si O2"
_cell_formula_units_Z 48
_cell_length_a 9.085113
_cell_length_b 9.085113
_cell_length_c 28.497533
_cell_angle_alpha 90.000000
_cell_angle_beta 90.000000
_cell_angle_gamma 90.000000
_cell_volume 2352.165805
_symmetry_space_group_name_H-M "P 42/N"
_symmetry_group_IT_number 86
_space_group.IT_coordinate_system_code '2'
_symmetry_cell_setting 'tetragonal'
loop_
_space_group_symop_operation_xyz
x,y,z
-y,1/2+x,1/2+z
1/2-x,1/2-y,z
1/2+y,-x,1/2+z
-x,-y,-z
y,1/2-x,1/2-z
1/2+x,1/2+y,-z
1/2-y,x,1/2-z
loop_
_atom_site_type_symbol
_atom_site_label
_atom_site_fract_x
_atom_site_fract_y
_atom_site_fract_z
Si Si1 0.250000 0.250000 0.250000
Si Si2 0.915158 0.305739 0.841436
Si Si3 0.973163 0.691894 0.431901
Si Si4 0.185166 0.010950 0.556686
Si Si5 0.419819 0.685949 0.750031
Si Si6 0.750000 0.250000 0.510926
Si Si7 0.639991 0.540526 0.176189
Si Si8 0.750000 0.750000 0.250000
O O1 0.280124 0.430926 0.244876
O O2 0.750000 0.250000 0.849418
O O3 0.912528 0.413947 0.797317
O O4 0.966755 0.366473 0.891198
O O5 0.016528 0.166151 0.829387
O O6 0.903457 0.840372 0.453607
O O7 0.856489 0.561321 0.440516
O O8 0.983693 0.705790 0.375325
O O9 0.129149 0.672297 0.456263
O O10 0.176775 0.874593 0.521799
O O11 0.250000 0.750000 0.749410
O O12 0.423821 0.603492 0.799785
O O13 0.747940 0.610912 0.215176
#
# Coordination Sequence:
#
# PCOD9544949 Si02
#       8
#     2   8   8   8   8   4   8   2
#     4  12  28  44  64 112 146 188 260 296 328 452
#     4  10  19  37  63  92 122 173 222 265 335 409
#     4  10  24  39  64  97 130 163 222 287 330 415
#     4  10  21  41  66  90 125 171 223 274 338 417
#     4  11  24  41  66  92 145 192 220 289 365 403
#     4  12  22  42  66  92 128 170 218 282 368 400
#     4  11  22  38  64 102 132 176 230 279 340 433
#     4  12  20  36  68  96 122 184 240 256 328 436
#
# _framework density 20.406725999999999
#
# number of rings (size 3 to 8) (size 9 to 14) (size 15 to 20)
#    0.000    1.333    2.500    5.000    1.167    0.000 
#    0.000    0.000    0.000    0.000    0.000    0.000 
#    0.000    0.000    0.000    0.000    0.000    0.000 
#
# Total GULP energy -267208.455000 kJ/mol
# GULP energy per Si atom -5566.842813 kJ/mol
# Density = 2.036028 g / cm^3
# Si number density = 20.406726 Si / 1000 Ang^3
#
#
#
# Elastic Constant Matrix: (Units=GPa)
#
#
# Indices 1 2 3 4 5 6 
#
# 1 73.2798 10.2621 32.0912 0.0000 0.0000 -0.8272
# 2 10.2621 73.2798 32.0912 0.0000 0.0000 0.8272
# 3 32.0912 32.0912 112.5241 0.0000 0.0000 0.0000
# 4 0.0000 0.0000 0.0000 22.1312 0.0000 0.0000
# 5 0.0000 0.0000 0.0000 0.0000 22.1312 0.0000
# 6 -0.8272 0.8272 0.0000 0.0000 0.0000 18.2834
#
#
#
# Elastic Compliance Matrix: (Units=1/GPa)
#
#
# Indices 1 2 3 4 5 6 
#
# 1 0.015608 -0.000279 -0.004372 0.000000 0.000000 0.000719
# 2 -0.000279 0.015608 -0.004372 0.000000 0.000000 -0.000719
# 3 -0.004372 -0.004372 0.011381 0.000000 0.000000 0.000000
# 4 0.000000 0.000000 0.000000 0.045185 0.000000 0.000000
# 5 0.000000 0.000000 0.000000 0.000000 0.045185 0.000000
# 6 0.000719 -0.000719 0.000000 0.000000 0.000000 0.054760
#
#
# Mechanical properties :
#
#
# Convention : Reuss Voigt Hill
#
# Bulk Modulus (GPa) = 40.73117 45.33030 43.03073
# Shear Modulus (GPa) = 23.36936 24.81843 24.09390
#
# Velocity S-wave (km/s) = 3.38772 3.49117 3.43984
# Velocity P-wave (km/s) = 5.94182 6.20586 6.07527
#
# Compressibility (1/GPa) = 0.02455123
#
# Stress axis : x y z
#
# Youngs Moduli (GPa) = 64.06962 64.06962 87.86949
#
# Poissons Ratio (x) = 0.01790 0.38413
# Poissons Ratio (y) = 0.01790 0.38413
# Poissons Ratio (z) = 0.28009 0.28009
#
# Static dielectric constant tensor:
#      x y z
#    x 1.770600 0.000000 0.000000 
#    y 0.000000 1.770600 0.000000 
#    z 0.000000 0.000000 1.727440 
# 
# From -- ./inp_files/5263.got.cif
#   From: 2010.05.17/outbox.cif.g08.bks.cpg/sg86_3_cif.got.tgz:5263.got - 2010.06.03 19:03:11.
