data_PCOD9544150
_publ_section_title
;
Structure prediction by ZEFSAII (Michael W. Deem and Ramdas Pophale) SiO2 
 PCOD9544150
Probable space group: P 42/M
;
_chemical_formula_sum "Si O2"
_cell_formula_units_Z 48
_cell_length_a 16.650593
_cell_length_b 16.650593
_cell_length_c 9.032906
_cell_angle_alpha 90.000000
_cell_angle_beta 90.000000
_cell_angle_gamma 90.000000
_cell_volume 2504.303159
_symmetry_space_group_name_H-M "P 42/M"
_symmetry_group_IT_number 84
_symmetry_cell_setting 'tetragonal'
loop_
_space_group_symop_operation_xyz
x,y,z
-y,x,1/2+z
-x,-y,z
y,-x,1/2+z
-x,-y,-z
y,-x,1/2-z
x,y,-z
-y,x,1/2-z
loop_
_atom_site_type_symbol
_atom_site_label
_atom_site_fract_x
_atom_site_fract_y
_atom_site_fract_z
Si Si1 0.796938 0.125207 0.161440
Si Si2 0.934703 0.095557 0.671033
Si Si3 0.684505 0.278205 0.167097
Si Si4 0.162845 0.429967 0.173158
Si Si5 0.990650 0.654108 0.674636
Si Si6 0.378218 0.162057 0.675012
O O1 0.860928 0.150406 0.284074
O O2 0.733426 0.195484 0.153125
O O3 0.744327 0.045277 0.186567
O O4 0.837302 0.119076 0.000000
O O5 0.954913 0.098190 0.500000
O O6 0.009027 0.101113 0.781219
O O7 0.609830 0.244526 0.261479
O O8 0.752991 0.339205 0.226630
O O9 0.660332 0.304015 0.000000
O O10 0.079700 0.399918 0.250480
O O11 0.167125 0.525726 0.187787
O O12 0.156810 0.408072 0.000000
O O13 0.995123 0.634750 0.500000
O O14 0.078661 0.646978 0.746362
O O15 0.356414 0.155545 0.500000
#
# Coordination Sequence:
#
# PCOD9544150 Si02
#       6
#     8   8   8   8   8   8
#     4   9  19  35  51  73 104 136 175 223 268 316
#     4  11  22  35  50  67  92 130 177 224 268 315
#     4   9  20  38  57  79 109 143 179 223 276 325
#     4  10  20  36  57  82 115 148 182 225 275 327
#     4  10  21  35  54  82 113 146 184 223 268 323
#     4  10  21  36  57  85 113 145 184 227 274 329
#
# _framework density 19.167007999999999
#
# number of rings (size 3 to 8) (size 9 to 14) (size 15 to 20)
#    0.000    2.167    0.000    4.500    2.333    7.333 
#    0.000    0.000    0.000    0.500    0.000    3.500 
#    0.000    0.000    0.000    0.000    0.000    0.000 
#
# Total GULP energy -267315.294759 kJ/mol
# GULP energy per Si atom -5569.068641 kJ/mol
# Density = 1.912338 g / cm^3
# Si number density = 19.167008 Si / 1000 Ang^3
#
#
#
# Elastic Constant Matrix: (Units=GPa)
#
#
# Indices 1 2 3 4 5 6 
#
# 1 56.6531 25.8943 25.0980 0.0000 0.0000 -7.8674
# 2 25.8943 56.6531 25.0980 0.0000 0.0000 7.8674
# 3 25.0980 25.0980 73.2872 0.0000 0.0000 0.0000
# 4 0.0000 0.0000 0.0000 -267.0148 0.0000 0.0000
# 5 0.0000 0.0000 0.0000 0.0000 -267.0148 0.0000
# 6 -7.8674 7.8674 0.0000 0.0000 0.0000 25.9117
#
#
#
# Elastic Compliance Matrix: (Units=1/GPa)
#
#
# Indices 1 2 3 4 5 6 
#
# 1 0.026895 -0.011594 -0.005240 0.000000 0.000000 0.011686
# 2 -0.011594 0.026895 -0.005240 0.000000 0.000000 -0.011686
# 3 -0.005240 -0.005240 0.017234 0.000000 0.000000 0.000000
# 4 0.000000 0.000000 0.000000 -0.003745 0.000000 0.000000
# 5 0.000000 0.000000 0.000000 0.000000 -0.003745 0.000000
# 6 0.011686 -0.011686 0.000000 0.000000 0.000000 0.045689
#
#
# Mechanical properties :
#
#
# Convention : Reuss Voigt Hill
#
# Bulk Modulus (GPa) = 37.20856 37.64157 37.42506
# Shear Modulus (GPa) = 30.80168 -94.25669 -31.72750
#
# Velocity S-wave (km/s) = 4.01311 -7.02021 -4.07297
# Velocity P-wave (km/s) = 6.39753 6.78452 1.59708
#
# Compressibility (1/GPa) = 0.02687554
#
# Stress axis : x y z
#
# Youngs Moduli (GPa) = 37.18185 37.18185 58.02544
#
# Poissons Ratio (x) = 0.43110 0.30404
# Poissons Ratio (y) = 0.43110 0.30404
# Poissons Ratio (z) = 0.19483 0.19483
#
# Static dielectric constant tensor:
#      x y z
#    x 1.731670 0.000000 0.000000 
#    y 0.000000 1.731670 0.000000 
#    z 0.000000 0.000000 1.734700 
# 
# From -- ./inp_files/1003.got.cif
#   From: 2010.05.17/outbox.cif.g08.bks.cpg/sg84_1_cif.got.tgz:1003.got - 2010.06.03 18:57:40.
