data_PCOD9544739
_publ_section_title
;
Structure prediction by ZEFSAII (Michael W. Deem and Ramdas Pophale) SiO2 
 PCOD9544739
Probable space group: P 4/N
;
_chemical_formula_sum "Si O2"
_cell_formula_units_Z 24
_cell_length_a 8.812660
_cell_length_b 8.812660
_cell_length_c 14.574079
_cell_angle_alpha 90.000000
_cell_angle_beta 90.000000
_cell_angle_gamma 90.000000
_cell_volume 1131.866352
_symmetry_space_group_name_H-M "P 4/N"
_symmetry_group_IT_number 85
_symmetry_cell_setting 'tetragonal'
loop_
_space_group_symop_operation_xyz
x,y,z
1/2-y,x,z
1/2-x,1/2-y,z
y,1/2-x,z
-x,-y,-z
1/2+y,-x,-z
1/2+x,1/2+y,-z
-y,1/2+x,-z
loop_
_atom_site_type_symbol
_atom_site_label
_atom_site_fract_x
_atom_site_fract_y
_atom_site_fract_z
Si Si1 0.079969 0.439958 0.725051
Si Si2 0.572835 0.566868 0.908037
Si Si3 0.358877 0.624666 0.431180
O O1 0.045391 0.262358 0.721242
O O2 0.030272 0.540642 0.637597
O O3 0.011922 0.504146 0.818416
O O4 0.753408 0.543072 0.907036
O O5 0.500000 0.500000 0.000000
O O6 0.250000 0.750000 0.381004
O O7 0.237945 0.546882 0.500533
#
# Coordination Sequence:
#
# PCOD9544739 Si02
#       3
#     8   8   8
#     4  11  23  37  63  98 131 171 223 273 334 399
#     4  11  26  45  67  95 127 165 215 269 332 404
#     4   6  17  36  57  88 124 179 219 274 313 386
#
# _framework density 21.203916
#
# number of rings (size 3 to 8) (size 9 to 14) (size 15 to 20)
#    2.000    0.667    0.000    2.000    4.667    7.333 
#    0.000    0.000    0.000    4.000    0.000    0.000 
#    0.000    0.000    0.000    0.000    0.000    0.000 
#
# Total GULP energy -133709.535685 kJ/mol
# GULP energy per Si atom -5571.230654 kJ/mol
# Density = 2.115565 g / cm^3
# Si number density = 21.203916 Si / 1000 Ang^3
#
#
#
# Elastic Constant Matrix: (Units=GPa)
#
#
# Indices 1 2 3 4 5 6 
#
# 1 52.0101 38.1776 52.1289 0.0000 0.0000 -5.9913
# 2 38.1776 52.0101 52.1289 0.0000 0.0000 5.9913
# 3 52.1289 52.1289 164.6125 0.0000 0.0000 0.0000
# 4 0.0000 0.0000 0.0000 45.5388 0.0000 0.0000
# 5 0.0000 0.0000 0.0000 0.0000 45.5388 0.0000
# 6 -5.9913 5.9913 0.0000 0.0000 0.0000 28.5270
#
#
#
# Elastic Compliance Matrix: (Units=1/GPa)
#
#
# Indices 1 2 3 4 5 6 
#
# 1 0.052931 -0.035440 -0.005539 0.000000 0.000000 0.018560
# 2 -0.035440 0.052931 -0.005539 0.000000 0.000000 -0.018560
# 3 -0.005539 -0.005539 0.009583 0.000000 0.000000 0.000000
# 4 0.000000 0.000000 0.000000 0.021959 0.000000 0.000000
# 5 0.000000 0.000000 0.000000 0.000000 0.021959 0.000000
# 6 0.018560 -0.018560 0.000000 0.000000 0.000000 0.042850
#
#
# Mechanical properties :
#
#
# Convention : Reuss Voigt Hill
#
# Bulk Modulus (GPa) = 44.62451 61.50038 53.06245
# Shear Modulus (GPa) = 16.51694 32.33409 24.42551
#
# Velocity S-wave (km/s) = 2.79401 3.90925 3.39770
# Velocity P-wave (km/s) = 5.61246 7.03161 6.36173
#
# Compressibility (1/GPa) = 0.02240921
#
# Stress axis : x y z
#
# Youngs Moduli (GPa) = 18.89252 18.89252 104.35109
#
# Poissons Ratio (x) = 0.66955 0.57800
# Poissons Ratio (y) = 0.66955 0.57800
# Poissons Ratio (z) = 0.10465 0.10465
#
# Static dielectric constant tensor:
#      x y z
#    x 1.804480 0.000000 0.000000 
#    y 0.000000 1.804480 0.000000 
#    z 0.000000 0.000000 1.786550 
# 
# From -- ./inp_files/1877.got.cif
#   From: 2010.05.17/outbox.cif.g08.bks.cpg/sg85_cif.got.tgz:1877.got - 2010.06.03 19:01:16.
