data_PCOD9544215
_publ_section_title
;
Structure prediction by ZEFSAII (Michael W. Deem and Ramdas Pophale) SiO2 
 PCOD9544215
Probable space group: P 42/M
;
_chemical_formula_sum "Si O2"
_cell_formula_units_Z 58
_cell_length_a 18.546700
_cell_length_b 18.546700
_cell_length_c 7.617163
_cell_angle_alpha 90.000000
_cell_angle_beta 90.000000
_cell_angle_gamma 90.000000
_cell_volume 2620.152345
_symmetry_space_group_name_H-M "P 42/M"
_symmetry_group_IT_number 84
_symmetry_cell_setting 'tetragonal'
loop_
_space_group_symop_operation_xyz
x,y,z
-y,x,1/2+z
-x,-y,z
y,-x,1/2+z
-x,-y,-z
y,-x,1/2-z
x,y,-z
-y,x,1/2-z
loop_
_atom_site_type_symbol
_atom_site_label
_atom_site_fract_x
_atom_site_fract_y
_atom_site_fract_z
Si Si1 0.666773 0.264957 0.786891
Si Si2 0.237773 0.868198 0.212743
Si Si3 0.695339 0.900701 0.213204
Si Si4 0.860439 0.925738 0.204449
Si Si5 0.385535 0.239294 0.297684
Si Si6 0.959887 0.626051 0.291285
Si Si7 0.471387 0.828833 0.296683
Si Si8 0.000000 0.000000 0.250000
O O1 0.729476 0.208840 0.736040
O O2 0.691483 0.343481 0.722877
O O3 0.592839 0.229076 0.725385
O O4 0.664075 0.265375 0.000000
O O5 0.158760 0.879903 0.285253
O O6 0.300702 0.921682 0.273059
O O7 0.232883 0.872018 0.000000
O O8 0.776249 0.927173 0.260427
O O9 0.672290 0.825395 0.294232
O O10 0.634137 0.958364 0.270097
O O11 0.695715 0.893197 0.000000
O O12 0.920295 0.971332 0.308627
O O13 0.864710 0.950419 0.000000
O O14 0.402591 0.257961 0.500000
O O15 0.457103 0.205576 0.212854
O O16 0.963963 0.632635 0.500000
O O17 0.906416 0.559522 0.261579
O O18 0.487157 0.839384 0.500000
#
# Coordination Sequence:
#
# PCOD9544215 Si02
#       8
#     8   8   8   8   8   8   8   2
#     4   9  18  36  59  81 110 147 178 211 266 331
#     4   9  17  33  58  78 101 140 182 224 275 329
#     4  10  21  36  56  80 107 142 187 236 274 323
#     4  11  23  38  54  76 102 137 188 241 280 320
#     4  10  21  38  58  83 114 146 178 218 273 327
#     4   9  19  36  53  75 112 151 182 218 277 335
#     4  10  21  35  56  86 114 140 179 227 266 312
#     4  12  26  40  52  70 110 152 184 230 294 340
#
# _framework density 22.136119000000001
#
# number of rings (size 3 to 8) (size 9 to 14) (size 15 to 20)
#    0.000    2.207    1.379    2.276    0.000    7.172 
#    0.000    4.138    0.000    0.414    0.000    2.897 
#    0.000    0.000    0.000    0.000    0.000    0.000 
#
# Total GULP energy -323330.051807 kJ/mol
# GULP energy per Si atom -5574.656066 kJ/mol
# Density = 2.208574 g / cm^3
# Si number density = 22.136119 Si / 1000 Ang^3
#
#
#
# Elastic Constant Matrix: (Units=GPa)
#
#
# Indices 1 2 3 4 5 6 
#
# 1 80.8531 1.4077 -7.3855 0.0000 0.0000 -9.7151
# 2 1.4077 80.8531 -7.3855 0.0000 0.0000 9.7151
# 3 -7.3855 -7.3855 47.9064 0.0000 0.0000 0.0000
# 4 0.0000 0.0000 0.0000 7.8117 0.0000 0.0000
# 5 0.0000 0.0000 0.0000 0.0000 7.8117 0.0000
# 6 -9.7151 9.7151 0.0000 0.0000 0.0000 -0.3422
#
#
#
# Elastic Compliance Matrix: (Units=1/GPa)
#
#
# Indices 1 2 3 4 5 6 
#
# 1 0.007044 0.005459 0.001927 0.000000 0.000000 -0.044987
# 2 0.005459 0.007044 0.001927 0.000000 0.000000 0.044987
# 3 0.001927 0.001927 0.021468 0.000000 0.000000 0.000000
# 4 0.000000 0.000000 0.000000 0.128014 0.000000 0.000000
# 5 0.000000 0.000000 0.000000 0.000000 0.128014 0.000000
# 6 -0.044987 0.044987 0.000000 0.000000 0.000000 -0.367881
#
#
# Mechanical properties :
#
#
# Convention : Reuss Voigt Hill
#
# Bulk Modulus (GPa) = 18.45591 20.32069 19.38830
# Shear Modulus (GPa) = -65.04908 17.92128 -23.56390
#
# Velocity S-wave (km/s) = -5.42676 2.84842 -3.26621
# Velocity P-wave (km/s) = 5.55974 4.47413 2.33377
#
# Compressibility (1/GPa) = 0.05418320
#
# Stress axis : x y z
#
# Youngs Moduli (GPa) = 141.97358 141.97358 46.58028
#
# Poissons Ratio (x) = -0.77503 -0.08978
# Poissons Ratio (y) = -0.77503 -0.08978
# Poissons Ratio (z) = -0.27365 -0.27365
#
# Static dielectric constant tensor:
#      x y z
#    x 1.843330 0.000000 0.000000 
#    y 0.000000 1.843330 0.000000 
#    z 0.000000 0.000000 1.862150 
# 
# From -- ./inp_files/1174.got.cif
#   From: 2010.05.17/outbox.cif.g08.bks.cpg/sg84_1_cif.got.tgz:1174.got - 2010.06.03 18:57:40.
