data_PCOD9544142
_publ_section_title
;
Structure prediction by ZEFSAII (Michael W. Deem and Ramdas Pophale) SiO2 
 PCOD9544142
Probable space group: P 42/M
;
_chemical_formula_sum "Si O2"
_cell_formula_units_Z 48
_cell_length_a 17.210095
_cell_length_b 17.210095
_cell_length_c 8.912985
_cell_angle_alpha 90.000000
_cell_angle_beta 90.000000
_cell_angle_gamma 90.000000
_cell_volume 2639.913585
_symmetry_space_group_name_H-M "P 42/M"
_symmetry_group_IT_number 84
_symmetry_cell_setting 'tetragonal'
loop_
_space_group_symop_operation_xyz
x,y,z
-y,x,1/2+z
-x,-y,z
y,-x,1/2+z
-x,-y,-z
y,-x,1/2-z
x,y,-z
-y,x,1/2-z
loop_
_atom_site_type_symbol
_atom_site_label
_atom_site_fract_x
_atom_site_fract_y
_atom_site_fract_z
Si Si1 0.212833 0.761281 0.818191
Si Si2 0.699905 0.511901 0.829300
Si Si3 0.925509 0.328498 0.322330
Si Si4 0.895063 0.663215 0.678263
Si Si5 0.657765 0.354378 0.821366
Si Si6 0.120421 0.508102 0.828094
O O1 0.129538 0.737739 0.750473
O O2 0.267692 0.835189 0.774345
O O3 0.265368 0.688154 0.768800
O O4 0.206071 0.763466 0.000000
O O5 0.648518 0.441969 0.766010
O O6 0.696484 0.585989 0.726695
O O7 0.786933 0.480146 0.833455
O O8 0.677567 0.532926 0.000000
O O9 0.909678 0.332201 0.500000
O O10 0.912867 0.415819 0.255164
O O11 0.016365 0.309581 0.300080
O O12 0.881061 0.650832 0.500000
O O13 0.889599 0.577914 0.755922
O O14 0.662755 0.359832 0.000000
O O15 0.092025 0.506554 0.000000
#
# Coordination Sequence:
#
# PCOD9544142 Si02
#       6
#     8   8   8   8   8   8
#     4  10  20  38  60  80 109 147 184 225 279 334
#     4  10  21  35  51  76 106 137 185 234 269 317
#     4  11  23  37  57  86 117 147 184 228 279 337
#     4  10  22  39  58  84 116 148 184 230 281 334
#     4  10  20  36  55  74 102 144 188 227 272 321
#     4  11  21  35  56  84 116 149 186 230 279 331
#
# _framework density 18.182413
#
# number of rings (size 3 to 8) (size 9 to 14) (size 15 to 20)
#    0.000    1.667    3.333    1.500    0.000    6.333 
#    0.000    1.667    0.000    0.500    0.000    3.500 
#    0.000    0.000    0.000    0.000    0.000    0.000 
#
# Total GULP energy -267376.880060 kJ/mol
# GULP energy per Si atom -5570.351668 kJ/mol
# Density = 1.814103 g / cm^3
# Si number density = 18.182413 Si / 1000 Ang^3
#
#
#
# Elastic Constant Matrix: (Units=GPa)
#
#
# Indices 1 2 3 4 5 6 
#
# 1 77.5457 57.4866 35.2571 0.0000 0.0000 9.3942
# 2 57.4866 77.5457 35.2571 0.0000 0.0000 -9.3942
# 3 35.2571 35.2571 40.1613 0.0000 0.0000 0.0000
# 4 0.0000 0.0000 0.0000 49.5657 0.0000 0.0000
# 5 0.0000 0.0000 0.0000 0.0000 49.5657 0.0000
# 6 9.3942 -9.3942 0.0000 0.0000 0.0000 17.5826
#
#
#
# Elastic Compliance Matrix: (Units=1/GPa)
#
#
# Indices 1 2 3 4 5 6 
#
# 1 0.056734 -0.043059 -0.012005 0.000000 0.000000 -0.053318
# 2 -0.043059 0.056734 -0.012005 0.000000 0.000000 0.053318
# 3 -0.012005 -0.012005 0.045977 0.000000 0.000000 0.000000
# 4 0.000000 0.000000 0.000000 0.020175 0.000000 0.000000
# 5 0.000000 0.000000 0.000000 0.000000 0.020175 0.000000
# 6 -0.053318 0.053318 0.000000 0.000000 0.000000 0.113849
#
#
# Mechanical properties :
#
#
# Convention : Reuss Voigt Hill
#
# Bulk Modulus (GPa) = 39.51411 50.13935 44.82673
# Shear Modulus (GPa) = 10.95971 27.82626 19.39299
#
# Velocity S-wave (km/s) = 2.45779 3.91627 3.26940
# Velocity P-wave (km/s) = 5.46201 6.93435 6.24174
#
# Compressibility (1/GPa) = 0.02530742
#
# Stress axis : x y z
#
# Youngs Moduli (GPa) = 17.62621 17.62621 21.75000
#
# Poissons Ratio (x) = 0.75897 0.26110
# Poissons Ratio (y) = 0.75897 0.26110
# Poissons Ratio (z) = 0.21160 0.21160
#
# Static dielectric constant tensor:
#      x y z
#    x 1.639260 0.000000 0.000000 
#    y 0.000000 1.639260 0.000000 
#    z 0.000000 0.000000 1.637410 
# 
# From -- ./inp_files/1013.got.cif
#   From: 2010.05.17/outbox.cif.g08.bks.cpg/sg84_1_cif.got.tgz:1013.got - 2010.06.03 18:57:40.
