data_PCOD9544185
_publ_section_title
;
Structure prediction by ZEFSAII (Michael W. Deem and Ramdas Pophale) SiO2 
 PCOD9544185
Probable space group: P 42/M
;
_chemical_formula_sum "Si O2"
_cell_formula_units_Z 56
_cell_length_a 11.745250
_cell_length_b 11.745250
_cell_length_c 17.141375
_cell_angle_alpha 90.000000
_cell_angle_beta 90.000000
_cell_angle_gamma 90.000000
_cell_volume 2364.668067
_symmetry_space_group_name_H-M "P 42/M"
_symmetry_group_IT_number 84
_symmetry_cell_setting 'tetragonal'
loop_
_space_group_symop_operation_xyz
x,y,z
-y,x,1/2+z
-x,-y,z
y,-x,1/2+z
-x,-y,-z
y,-x,1/2-z
x,y,-z
-y,x,1/2-z
loop_
_atom_site_type_symbol
_atom_site_label
_atom_site_fract_x
_atom_site_fract_y
_atom_site_fract_z
Si Si1 0.805384 0.658834 0.589711
Si Si2 0.852997 0.365115 0.092903
Si Si3 0.646579 0.417632 0.276983
Si Si4 0.396089 0.762739 0.411342
Si Si5 0.952530 0.797620 0.089701
Si Si6 0.114447 0.554417 0.307605
Si Si7 0.036663 0.771928 0.406834
O O1 0.814584 0.621143 0.500000
O O2 0.689799 0.728073 0.599241
O O3 0.835902 0.549962 0.641143
O O4 0.902159 0.755424 0.602842
O O5 0.841610 0.497565 0.112869
O O6 0.947491 0.278602 0.127654
O O7 0.882903 0.367695 0.000000
O O8 0.551741 0.378197 0.215525
O O9 0.622035 0.341512 0.352747
O O10 0.778901 0.404279 0.256733
O O11 0.415679 0.722291 0.500000
O O12 0.287126 0.844081 0.411476
O O13 0.891242 0.910894 0.122326
O O14 0.987365 0.826163 0.000000
O O15 0.085200 0.661547 0.362321
O O16 0.000000 0.500000 0.271818
O O17 0.060795 0.763474 0.500000
#
# Coordination Sequence:
#
# PCOD9544185 Si02
#       7
#     8   8   8   8   8   8   8
#     4   9  18  29  50  86 124 156 196 249 304 359
#     4   9  18  30  49  86 127 163 203 248 296 355
#     4  11  26  43  63  90 128 156 191 256 314 353
#     4  10  20  38  63  89 122 167 209 245 300 368
#     4   9  16  29  53  85 123 160 203 253 296 354
#     4  10  20  38  62  81 109 154 204 249 299 371
#     4   9  16  29  53  87 120 156 198 250 306 355
#
# _framework density 23.681971000000001
#
# number of rings (size 3 to 8) (size 9 to 14) (size 15 to 20)
#    0.000    2.429    1.429    0.857    4.000    4.571 
#    0.000    5.714    0.000    0.000    0.000    0.000 
#    0.000    0.571    0.000    0.000    0.000    0.000 
#
# Total GULP energy -312512.543169 kJ/mol
# GULP energy per Si atom -5580.581128 kJ/mol
# Density = 2.362807 g / cm^3
# Si number density = 23.681971 Si / 1000 Ang^3
#
#
#
# Elastic Constant Matrix: (Units=GPa)
#
#
# Indices 1 2 3 4 5 6 
#
# 1 99.7763 7.6975 20.8193 0.0000 0.0000 -4.8335
# 2 7.6975 99.7763 20.8193 0.0000 0.0000 4.8335
# 3 20.8193 20.8193 49.5381 0.0000 0.0000 0.0000
# 4 0.0000 0.0000 0.0000 27.5013 0.0000 0.0000
# 5 0.0000 0.0000 0.0000 0.0000 27.5013 0.0000
# 6 -4.8335 4.8335 0.0000 0.0000 0.0000 38.9674
#
#
#
# Elastic Compliance Matrix: (Units=1/GPa)
#
#
# Indices 1 2 3 4 5 6 
#
# 1 0.011059 0.000055 -0.004671 0.000000 0.000000 0.001365
# 2 0.000055 0.011059 -0.004671 0.000000 0.000000 -0.001365
# 3 -0.004671 -0.004671 0.024113 0.000000 0.000000 0.000000
# 4 0.000000 0.000000 0.000000 0.036362 0.000000 0.000000
# 5 0.000000 0.000000 0.000000 0.000000 0.036362 0.000000
# 6 0.001365 -0.001365 0.000000 0.000000 0.000000 0.026001
#
#
# Mechanical properties :
#
#
# Convention : Reuss Voigt Hill
#
# Bulk Modulus (GPa) = 36.15690 38.64032 37.39861
# Shear Modulus (GPa) = 28.94396 32.11098 30.52747
#
# Velocity S-wave (km/s) = 3.49978 3.68628 3.59424
# Velocity P-wave (km/s) = 5.62424 5.87112 5.74901
#
# Compressibility (1/GPa) = 0.02765724
#
# Stress axis : x y z
#
# Youngs Moduli (GPa) = 90.42475 90.42475 41.47207
#
# Poissons Ratio (x) = -0.00501 0.19372
# Poissons Ratio (y) = -0.00501 0.19372
# Poissons Ratio (z) = 0.42237 0.42237
#
# Static dielectric constant tensor:
#      x y z
#    x 1.912250 0.000000 0.000000 
#    y 0.000000 1.912250 0.000000 
#    z 0.000000 0.000000 1.906820 
# 
# From -- ./inp_files/4472.got.cif
#   From: 2010.05.17/outbox.cif.g08.bks.cpg/sg84_3_cif.got.tgz:4472.got - 2010.06.03 18:57:40.
