data_PCOD9544210
_publ_section_title
;
Structure prediction by ZEFSAII (Michael W. Deem and Ramdas Pophale) SiO2 
 PCOD9544210
Probable space group: P 42/M
;
_chemical_formula_sum "Si O2"
_cell_formula_units_Z 40
_cell_length_a 9.240920
_cell_length_b 9.240920
_cell_length_c 23.168132
_cell_angle_alpha 90.000000
_cell_angle_beta 90.000000
_cell_angle_gamma 90.000000
_cell_volume 1978.433422
_symmetry_space_group_name_H-M "P 42/M"
_symmetry_group_IT_number 84
_symmetry_cell_setting 'tetragonal'
loop_
_space_group_symop_operation_xyz
x,y,z
-y,x,1/2+z
-x,-y,z
y,-x,1/2+z
-x,-y,-z
y,-x,1/2-z
x,y,-z
-y,x,1/2-z
loop_
_atom_site_type_symbol
_atom_site_label
_atom_site_fract_x
_atom_site_fract_y
_atom_site_fract_z
Si Si1 0.326674 0.670545 0.838736
Si Si2 0.084493 0.139698 0.933546
Si Si3 0.639247 0.764270 0.209628
Si Si4 0.582091 0.142876 0.640480
Si Si5 0.010426 0.338123 0.621031
O O1 0.245895 0.640120 0.778123
O O2 0.495692 0.689383 0.819036
O O3 0.265533 0.537457 0.877168
O O4 0.290896 0.824949 0.867524
O O5 0.085838 0.297433 0.904822
O O6 0.244951 0.080502 0.923598
O O7 0.040914 0.152710 0.000000
O O8 0.000000 0.000000 0.907002
O O9 0.778229 0.675091 0.189153
O O10 0.657368 0.922480 0.181838
O O11 0.500000 0.000000 0.659769
O O12 0.000000 0.500000 0.599083
#
# Coordination Sequence:
#
# PCOD9544210 Si02
#       5
#     8   8   8   8   8
#     4  11  20  35  57  86 125 163 199 240 296 361
#     4  10  22  44  65  84 115 156 201 264 327 360
#     4  10  21  34  56  84 123 170 194 235 294 363
#     4  11  23  35  59  88 119 156 210 249 292 365
#     4   9  21  38  58  88 120 155 204 245 300 363
#
# _framework density 20.218017
#
# number of rings (size 3 to 8) (size 9 to 14) (size 15 to 20)
#    0.000    1.800    2.000    1.800    2.800    0.800 
#    0.000    1.000    0.000   15.600    0.000    0.000 
#    0.000    0.000    0.000    0.000    0.000    0.000 
#
# Total GULP energy -222734.579254 kJ/mol
# GULP energy per Si atom -5568.364481 kJ/mol
# Density = 2.017200 g / cm^3
# Si number density = 20.218017 Si / 1000 Ang^3
#
#
#
# Elastic Constant Matrix: (Units=GPa)
#
#
# Indices 1 2 3 4 5 6 
#
# 1 103.1958 35.4183 8.5789 0.0000 0.0000 -19.4948
# 2 35.4183 103.1958 8.5789 0.0000 0.0000 19.4948
# 3 8.5789 8.5789 18.5496 0.0000 0.0000 0.0000
# 4 0.0000 0.0000 0.0000 -7.0829 0.0000 0.0000
# 5 0.0000 0.0000 0.0000 0.0000 -7.0829 0.0000
# 6 -19.4948 19.4948 0.0000 0.0000 0.0000 30.9818
#
#
#
# Elastic Compliance Matrix: (Units=1/GPa)
#
#
# Indices 1 2 3 4 5 6 
#
# 1 0.015388 -0.007736 -0.003539 0.000000 0.000000 0.014551
# 2 -0.007736 0.015388 -0.003539 0.000000 0.000000 -0.014551
# 3 -0.003539 -0.003539 0.057183 0.000000 0.000000 0.000000
# 4 0.000000 0.000000 0.000000 -0.141185 0.000000 0.000000
# 5 0.000000 0.000000 0.000000 0.000000 -0.141185 0.000000
# 6 0.014551 -0.014551 0.000000 0.000000 0.000000 0.050589
#
#
# Mechanical properties :
#
#
# Convention : Reuss Voigt Hill
#
# Bulk Modulus (GPa) = 17.14340 36.67705 26.91023
# Shear Modulus (GPa) = -52.77075 14.85421 -18.95827
#
# Velocity S-wave (km/s) = -5.11444 2.71348 -3.06550
# Velocity P-wave (km/s) = 5.13605 5.29126 0.89956
#
# Compressibility (1/GPa) = 0.05833148
#
# Stress axis : x y z
#
# Youngs Moduli (GPa) = 64.98364 64.98364 17.48765
#
# Poissons Ratio (x) = 0.50272 0.06189
# Poissons Ratio (y) = 0.50272 0.06189
# Poissons Ratio (z) = 0.22998 0.22998
#
# Static dielectric constant tensor:
#      x y z
#    x 1.790240 0.000000 0.000000 
#    y 0.000000 1.790240 0.000000 
#    z 0.000000 0.000000 1.711540 
# 
# From -- ./inp_files/4827.got.cif
#   From: 2010.05.17/outbox.cif.g08.bks.cpg/sg84_3_cif.got.tgz:4827.got - 2010.06.03 18:57:40.
