data_PCOD9544926
_publ_section_title
;
Structure prediction by ZEFSAII (Michael W. Deem and Ramdas Pophale) SiO2 
 PCOD9544926
Probable space group: P 42/N
;
_chemical_formula_sum "Si O2"
_cell_formula_units_Z 48
_cell_length_a 8.339805
_cell_length_b 8.339805
_cell_length_c 30.753616
_cell_angle_alpha 90.000000
_cell_angle_beta 90.000000
_cell_angle_gamma 90.000000
_cell_volume 2138.986185
_symmetry_space_group_name_H-M "P 42/N"
_symmetry_group_IT_number 86
_space_group.IT_coordinate_system_code '2'
_symmetry_cell_setting 'tetragonal'
loop_
_space_group_symop_operation_xyz
x,y,z
-y,1/2+x,1/2+z
1/2-x,1/2-y,z
1/2+y,-x,1/2+z
-x,-y,-z
y,1/2-x,1/2-z
1/2+x,1/2+y,-z
1/2-y,x,1/2-z
loop_
_atom_site_type_symbol
_atom_site_label
_atom_site_fract_x
_atom_site_fract_y
_atom_site_fract_z
Si Si1 0.535315 0.913185 0.754200
Si Si2 0.079400 0.345556 0.583698
Si Si3 0.060193 0.745877 0.018277
Si Si4 0.098820 0.546243 0.664024
Si Si5 0.413171 0.533900 0.435517
Si Si6 0.976930 0.090257 0.346658
O O1 0.719590 0.966767 0.745773
O O2 0.425358 0.981648 0.715449
O O3 0.501522 0.969925 0.802825
O O4 0.250000 0.250000 0.588511
O O5 0.117665 0.478336 0.547240
O O6 0.032259 0.418683 0.630068
O O7 0.944204 0.223419 0.568494
O O8 0.250000 0.750000 0.017318
O O9 0.024753 0.578433 0.042508
O O10 0.993028 0.726203 0.969376
O O11 0.012688 0.717573 0.657460
O O12 0.285599 0.559733 0.650112
O O13 0.418427 0.464177 0.387360
#
# Coordination Sequence:
#
# PCOD9544926 Si02
#       6
#     8   8   8   8   8   8
#     4   9  20  38  59  85 121 152 189 236 291 356
#     4  10  19  35  59  84 115 147 196 247 289 347
#     4  10  20  37  58  79 114 158 193 244 300 354
#     4  10  19  35  61  85 108 160 195 234 303 355
#     4  10  21  36  58  83 116 155 194 253 296 345
#     4  10  19  36  60  82 116 152 197 239 293 361
#
# _framework density 22.440539999999999
#
# number of rings (size 3 to 8) (size 9 to 14) (size 15 to 20)
#    0.000    2.167    3.333    1.000    0.000    2.000 
#    3.000    3.333   22.000    0.000    0.000    0.000 
#    0.000    0.000    0.000    0.000    0.000    0.000 
#
# Total GULP energy -268145.409058 kJ/mol
# GULP energy per Si atom -5586.362689 kJ/mol
# Density = 2.238946 g / cm^3
# Si number density = 22.440540 Si / 1000 Ang^3
#
#
#
# Elastic Constant Matrix: (Units=GPa)
#
#
# Indices 1 2 3 4 5 6 
#
# 1 32.1013 5.7912 28.8677 0.0000 0.0000 -2.5064
# 2 5.7912 32.1013 28.8677 0.0000 0.0000 2.5064
# 3 28.8677 28.8677 177.9283 0.0000 0.0000 0.0000
# 4 0.0000 0.0000 0.0000 89.1451 0.0000 0.0000
# 5 0.0000 0.0000 0.0000 0.0000 89.1451 0.0000
# 6 -2.5064 2.5064 0.0000 0.0000 0.0000 10.0106
#
#
#
# Elastic Compliance Matrix: (Units=1/GPa)
#
#
# Indices 1 2 3 4 5 6 
#
# 1 0.037484 -0.002428 -0.005688 0.000000 0.000000 0.009993
# 2 -0.002428 0.037484 -0.005688 0.000000 0.000000 -0.009993
# 3 -0.005688 -0.005688 0.007466 0.000000 0.000000 0.000000
# 4 0.000000 0.000000 0.000000 0.011218 0.000000 0.000000
# 5 0.000000 0.000000 0.000000 0.000000 0.011218 0.000000
# 6 0.009993 -0.009993 0.000000 0.000000 0.000000 0.104899
#
#
# Mechanical properties :
#
#
# Convention : Reuss Voigt Hill
#
# Bulk Modulus (GPa) = 18.23880 41.02044 29.62962
# Shear Modulus (GPa) = 19.55789 49.56710 34.56250
#
# Velocity S-wave (km/s) = 2.95539 4.70491 3.92877
# Velocity P-wave (km/s) = 4.44871 6.91622 5.81486
#
# Compressibility (1/GPa) = 0.05482817
#
# Stress axis : x y z
#
# Youngs Moduli (GPa) = 26.67773 26.67773 133.94375
#
# Poissons Ratio (x) = 0.06477 0.76183
# Poissons Ratio (y) = 0.06477 0.76183
# Poissons Ratio (z) = 0.15173 0.15173
#
# Static dielectric constant tensor:
#      x y z
#    x 1.854310 0.000000 0.000000 
#    y 0.000000 1.854310 0.000000 
#    z 0.000000 0.000000 1.863810 
# 
# From -- ./inp_files/5144.got.cif
#   From: 2010.05.17/outbox.cif.g08.bks.cpg/sg86_3_cif.got.tgz:5144.got - 2010.06.03 19:03:11.
