data_PCOD9544205
_publ_section_title
;
Structure prediction by ZEFSAII (Michael W. Deem and Ramdas Pophale) SiO2 
 PCOD9544205
Probable space group: P 42/M
;
_chemical_formula_sum "Si O2"
_cell_formula_units_Z 48
_cell_length_a 8.776138
_cell_length_b 8.776138
_cell_length_c 30.190551
_cell_angle_alpha 90.000000
_cell_angle_beta 90.000000
_cell_angle_gamma 90.000000
_cell_volume 2325.294298
_symmetry_space_group_name_H-M "P 42/M"
_symmetry_group_IT_number 84
_symmetry_cell_setting 'tetragonal'
loop_
_space_group_symop_operation_xyz
x,y,z
-y,x,1/2+z
-x,-y,z
y,-x,1/2+z
-x,-y,-z
y,-x,1/2-z
x,y,-z
-y,x,1/2-z
loop_
_atom_site_type_symbol
_atom_site_label
_atom_site_fract_x
_atom_site_fract_y
_atom_site_fract_z
Si Si1 0.837943 0.917067 0.897022
Si Si2 0.959726 0.326081 0.146164
Si Si3 0.275405 0.428878 0.729560
Si Si4 0.211983 0.349974 0.371501
Si Si5 0.222894 0.977399 0.737298
Si Si6 0.567128 0.829628 0.951593
O O1 0.896341 0.771575 0.869860
O O2 0.742771 0.853086 0.938253
O O3 0.720628 0.037955 0.873669
O O4 0.000000 0.000000 0.907053
O O5 0.924737 0.255774 0.194222
O O6 0.000000 0.500000 0.150053
O O7 0.804506 0.306172 0.119153
O O8 0.320983 0.592610 0.749414
O O9 0.260786 0.418693 0.676179
O O10 0.115511 0.367836 0.747668
O O11 0.237201 0.472998 0.410155
O O12 0.090599 0.853159 0.727630
O O13 0.500000 0.000000 0.954930
O O14 0.548694 0.756062 0.000000
#
# Coordination Sequence:
#
# PCOD9544205 Si02
#       6
#     8   8   8   8   8   8
#     4   9  20  37  64  92 121 152 196 251 304 365
#     4  11  22  38  58  84 117 167 205 248 305 353
#     4  11  24  39  55  86 121 163 204 246 296 354
#     4  10  20  41  59  89 123 159 201 250 304 359
#     4  11  23  37  55  81 115 156 204 257 287 355
#     4   9  19  38  66  98 122 152 197 253 313 364
#
# _framework density 20.642548000000001
#
# number of rings (size 3 to 8) (size 9 to 14) (size 15 to 20)
#    0.000    1.833    1.667    2.000    7.000    0.333 
#    3.000    2.500    0.000    3.000    0.000    0.000 
#    0.000    0.000    0.000    0.000    0.000    0.000 
#
# Total GULP energy -267625.465497 kJ/mol
# GULP energy per Si atom -5575.530531 kJ/mol
# Density = 2.059556 g / cm^3
# Si number density = 20.642548 Si / 1000 Ang^3
#
#
#
# Elastic Constant Matrix: (Units=GPa)
#
#
# Indices 1 2 3 4 5 6 
#
# 1 86.5910 38.2208 45.7839 0.0000 0.0000 -6.9029
# 2 38.2208 86.5910 45.7839 0.0000 0.0000 6.9029
# 3 45.7839 45.7839 138.2690 0.0000 0.0000 0.0000
# 4 0.0000 0.0000 0.0000 3.2290 0.0000 0.0000
# 5 0.0000 0.0000 0.0000 0.0000 3.2290 0.0000
# 6 -6.9029 6.9029 0.0000 0.0000 0.0000 26.4058
#
#
#
# Elastic Compliance Matrix: (Units=1/GPa)
#
#
# Indices 1 2 3 4 5 6 
#
# 1 0.016462 -0.005879 -0.003504 0.000000 0.000000 0.005840
# 2 -0.005879 0.016462 -0.003504 0.000000 0.000000 -0.005840
# 3 -0.003504 -0.003504 0.009553 0.000000 0.000000 0.000000
# 4 0.000000 0.000000 0.000000 0.309689 0.000000 0.000000
# 5 0.000000 0.000000 0.000000 0.000000 0.309689 0.000000
# 6 0.005840 -0.005840 0.000000 0.000000 0.000000 0.040924
#
#
# Mechanical properties :
#
#
# Convention : Reuss Voigt Hill
#
# Bulk Modulus (GPa) = 59.87361 63.44759 61.66060
# Shear Modulus (GPa) = 6.81087 18.68360 12.74723
#
# Velocity S-wave (km/s) = 1.81840 3.01175 2.48770
# Velocity P-wave (km/s) = 5.78591 6.54960 6.17956
#
# Compressibility (1/GPa) = 0.01670185
#
# Stress axis : x y z
#
# Youngs Moduli (GPa) = 60.74632 60.74632 104.67976
#
# Poissons Ratio (x) = 0.35713 0.36682
# Poissons Ratio (y) = 0.35713 0.36682
# Poissons Ratio (z) = 0.21287 0.21287
#
# Static dielectric constant tensor:
#      x y z
#    x 1.780210 0.000000 0.000000 
#    y 0.000000 1.780210 0.000000 
#    z 0.000000 0.000000 1.751220 
# 
# From -- ./inp_files/5811.got.cif
#   From: 2010.05.17/outbox.cif.g08.bks.cpg/sg84_3_cif.got.tgz:5811.got - 2010.06.03 18:57:40.
