data_PCOD9544735
_publ_section_title
;
Structure prediction by ZEFSAII (Michael W. Deem and Ramdas Pophale) SiO2 
 PCOD9544735
Probable space group: P 4/N
;
_chemical_formula_sum "Si O2"
_cell_formula_units_Z 42
_cell_length_a 15.859880
_cell_length_b 15.859880
_cell_length_c 8.068830
_cell_angle_alpha 90.000000
_cell_angle_beta 90.000000
_cell_angle_gamma 90.000000
_cell_volume 2029.599558
_symmetry_space_group_name_H-M "P 4/N"
_symmetry_group_IT_number 85
_symmetry_cell_setting 'tetragonal'
loop_
_space_group_symop_operation_xyz
x,y,z
1/2-y,x,z
1/2-x,1/2-y,z
y,1/2-x,z
-x,-y,-z
1/2+y,-x,-z
1/2+x,1/2+y,-z
-y,1/2+x,-z
loop_
_atom_site_type_symbol
_atom_site_label
_atom_site_fract_x
_atom_site_fract_y
_atom_site_fract_z
Si Si1 0.278587 0.441922 0.927392
Si Si2 0.108606 0.647781 0.652218
Si Si3 0.202575 0.912012 0.718477
Si Si4 0.680259 0.057216 0.832136
Si Si5 0.250000 0.250000 0.890010
Si Si6 0.941278 0.966675 0.850961
O O1 0.303405 0.489062 0.758594
O O2 0.237268 0.352689 0.895967
O O3 0.213624 0.509151 0.006692
O O4 0.354877 0.437231 0.059589
O O5 0.203476 0.624272 0.705156
O O6 0.106562 0.656452 0.454545
O O7 0.078794 0.738614 0.722025
O O8 0.041929 0.581615 0.726483
O O9 0.146156 0.866363 0.859058
O O10 0.610234 0.991356 0.765261
O O11 0.000000 0.000000 0.000000
#
# Coordination Sequence:
#
# PCOD9544735 Si02
#       6
#     8   8   8   8   2   8
#     4  11  25  42  73 101 131 183 231 293 347 413
#     4  11  26  43  69 101 148 186 225 294 359 422
#     4  12  24  45  67 105 144 178 235 286 361 429
#     4  11  23  43  70 100 135 184 230 286 350 422
#     4  12  24  48  72  94 144 168 236 302 344 412
#     4  11  22  45  66  99 134 177 235 285 343 421
#
# _framework density 20.693736999999999
#
# number of rings (size 3 to 8) (size 9 to 14) (size 15 to 20)
#    0.000    0.762    5.714    1.714    2.667    0.762 
#    3.429    0.000    0.000    4.571    0.000    0.000 
#    0.000    0.000    0.000    0.000    0.000    0.000 
#
# Total GULP energy -234098.601866 kJ/mol
# GULP energy per Si atom -5573.776235 kJ/mol
# Density = 2.064664 g / cm^3
# Si number density = 20.693737 Si / 1000 Ang^3
#
#
#
# Elastic Constant Matrix: (Units=GPa)
#
#
# Indices 1 2 3 4 5 6 
#
# 1 130.6780 29.8131 38.2316 0.0000 0.0000 -8.4263
# 2 29.8131 130.6780 38.2316 0.0000 0.0000 8.4263
# 3 38.2316 38.2316 44.3925 0.0000 0.0000 0.0000
# 4 0.0000 0.0000 0.0000 25.6847 0.0000 0.0000
# 5 0.0000 0.0000 0.0000 0.0000 25.6847 0.0000
# 6 -8.4263 8.4263 0.0000 0.0000 0.0000 45.4658
#
#
#
# Elastic Compliance Matrix: (Units=1/GPa)
#
#
# Indices 1 2 3 4 5 6 
#
# 1 0.010399 0.000168 -0.009100 0.000000 0.000000 0.001896
# 2 0.000168 0.010399 -0.009100 0.000000 0.000000 -0.001896
# 3 -0.009100 -0.009100 0.038200 0.000000 0.000000 0.000000
# 4 0.000000 0.000000 0.000000 0.038934 0.000000 0.000000
# 5 0.000000 0.000000 0.000000 0.000000 0.038934 0.000000
# 6 0.001896 -0.001896 0.000000 0.000000 0.000000 0.022697
#
#
# Mechanical properties :
#
#
# Convention : Reuss Voigt Hill
#
# Bulk Modulus (GPa) = 43.60460 57.58901 50.59681
# Shear Modulus (GPa) = 24.59766 32.66520 28.63143
#
# Velocity S-wave (km/s) = 3.45142 3.97735 3.72369
# Velocity P-wave (km/s) = 6.08278 6.99872 6.55676
#
# Compressibility (1/GPa) = 0.02293336
#
# Stress axis : x y z
#
# Youngs Moduli (GPa) = 96.16570 96.16570 26.17776
#
# Poissons Ratio (x) = -0.01612 0.23822
# Poissons Ratio (y) = -0.01612 0.23822
# Poissons Ratio (z) = 0.87510 0.87510
#
# Static dielectric constant tensor:
#      x y z
#    x 1.772130 0.000000 0.000000 
#    y 0.000000 1.772130 0.000000 
#    z 0.000000 0.000000 1.763820 
# 
# From -- ./inp_files/944.got.cif
#   From: 2010.05.17/outbox.cif.g08.bks.cpg/sg85_cif.got.tgz:944.got - 2010.06.03 19:01:16.
