data_PCOD9544685
_publ_section_title
;
Structure prediction by ZEFSAII (Michael W. Deem and Ramdas Pophale) SiO2 
 PCOD9544685
Probable space group: P 4/N
;
_chemical_formula_sum "Si O2"
_cell_formula_units_Z 38
_cell_length_a 14.612344
_cell_length_b 14.612344
_cell_length_c 8.498217
_cell_angle_alpha 90.000000
_cell_angle_beta 90.000000
_cell_angle_gamma 90.000000
_cell_volume 1814.544369
_symmetry_space_group_name_H-M "P 4/N"
_symmetry_group_IT_number 85
_symmetry_cell_setting 'tetragonal'
loop_
_space_group_symop_operation_xyz
x,y,z
1/2-y,x,z
1/2-x,1/2-y,z
y,1/2-x,z
-x,-y,-z
1/2+y,-x,-z
1/2+x,1/2+y,-z
-y,1/2+x,-z
loop_
_atom_site_type_symbol
_atom_site_label
_atom_site_fract_x
_atom_site_fract_y
_atom_site_fract_z
Si Si1 0.750000 0.750000 0.188675
Si Si2 0.834781 0.873711 0.681359
Si Si3 0.154259 0.074807 0.685965
Si Si4 0.750000 0.250000 0.000000
Si Si5 0.026124 0.535625 0.828126
Si Si6 0.101650 0.774269 0.239899
Si Si7 0.250000 0.750000 0.500000
O O1 0.819599 0.839345 0.204489
O O2 0.727131 0.872752 0.722648
O O3 0.838792 0.888815 0.492886
O O4 0.893595 0.950911 0.765483
O O5 0.053207 0.036647 0.717559
O O6 0.222860 0.991350 0.718481
O O7 0.775601 0.164900 0.110879
O O8 0.125104 0.581969 0.824018
O O9 0.000000 0.500000 0.000000
O O10 0.165009 0.779817 0.393491
#
# Coordination Sequence:
#
# PCOD9544685 Si02
#       7
#     2   8   8   2   8   8   2
#     4  12  20  44  72  98 132 172 220 278 340 388
#     4  11  23  45  70 100 132 172 221 281 336 392
#     4  12  22  43  72  98 130 170 223 279 334 392
#     4  10  24  42  64  86 140 186 212 270 332 398
#     4  12  27  41  65 100 134 177 222 268 330 400
#     4  11  23  43  65  96 132 173 223 272 330 397
#     4  10  24  42  68  98 124 170 216 278 336 386
#
# _framework density 20.941896
#
# number of rings (size 3 to 8) (size 9 to 14) (size 15 to 20)
#    0.000    0.632    4.211    3.158    0.000    8.421 
#    0.000    0.000    0.000    0.000    0.000    0.000 
#    0.000    0.000    0.000    0.000    0.000    0.000 
#
# Total GULP energy -212115.502709 kJ/mol
# GULP energy per Si atom -5581.986913 kJ/mol
# Density = 2.089423 g / cm^3
# Si number density = 20.941896 Si / 1000 Ang^3
#
#
#
# Elastic Constant Matrix: (Units=GPa)
#
#
# Indices 1 2 3 4 5 6 
#
# 1 125.1244 35.3372 20.4450 0.0000 0.0000 -4.0738
# 2 35.3372 125.1244 20.4450 0.0000 0.0000 4.0738
# 3 20.4450 20.4450 46.7423 0.0000 0.0000 0.0000
# 4 0.0000 0.0000 0.0000 5.9979 0.0000 0.0000
# 5 0.0000 0.0000 0.0000 0.0000 5.9979 0.0000
# 6 -4.0738 4.0738 0.0000 0.0000 0.0000 57.7356
#
#
#
# Elastic Compliance Matrix: (Units=1/GPa)
#
#
# Indices 1 2 3 4 5 6 
#
# 1 0.009112 -0.002098 -0.003068 0.000000 0.000000 0.000791
# 2 -0.002098 0.009112 -0.003068 0.000000 0.000000 -0.000791
# 3 -0.003068 -0.003068 0.024078 0.000000 0.000000 0.000000
# 4 0.000000 0.000000 0.000000 0.166725 0.000000 0.000000
# 5 0.000000 0.000000 0.000000 0.000000 0.166725 0.000000
# 6 0.000791 -0.000791 0.000000 0.000000 0.000000 0.017432
#
#
# Mechanical properties :
#
#
# Convention : Reuss Voigt Hill
#
# Bulk Modulus (GPa) = 38.70884 49.93842 44.32363
# Shear Modulus (GPa) = 11.95429 28.66387 20.30908
#
# Velocity S-wave (km/s) = 2.39180 3.70365 3.11751
# Velocity P-wave (km/s) = 5.11387 6.49518 5.84547
#
# Compressibility (1/GPa) = 0.02583389
#
# Stress axis : x y z
#
# Youngs Moduli (GPa) = 109.75137 109.75137 41.53236
#
# Poissons Ratio (x) = 0.23023 0.12741
# Poissons Ratio (y) = 0.23023 0.12741
# Poissons Ratio (z) = 0.33670 0.33670
#
# Static dielectric constant tensor:
#      x y z
#    x 1.769270 0.000000 0.000000 
#    y 0.000000 1.769270 0.000000 
#    z 0.000000 0.000000 1.780380 
# 
# From -- ./inp_files/881.got.cif
#   From: 2010.05.17/outbox.cif.g08.bks.cpg/sg85_cif.got.tgz:881.got - 2010.06.03 19:01:16.
