data_PCOD9544107
_publ_section_title
;
Structure prediction by ZEFSAII (Michael W. Deem and Ramdas Pophale) SiO2 
 PCOD9544107
Probable space group: P 42/M
;
_chemical_formula_sum "Si O2"
_cell_formula_units_Z 64
_cell_length_a 21.061235
_cell_length_b 21.061235
_cell_length_c 8.763580
_cell_angle_alpha 90.000000
_cell_angle_beta 90.000000
_cell_angle_gamma 90.000000
_cell_volume 3887.310430
_symmetry_space_group_name_H-M "P 42/M"
_symmetry_group_IT_number 84
_symmetry_cell_setting 'tetragonal'
loop_
_space_group_symop_operation_xyz
x,y,z
-y,x,1/2+z
-x,-y,z
y,-x,1/2+z
-x,-y,-z
y,-x,1/2-z
x,y,-z
-y,x,1/2-z
loop_
_atom_site_type_symbol
_atom_site_label
_atom_site_fract_x
_atom_site_fract_y
_atom_site_fract_z
Si Si1 0.622472 0.701187 0.323264
Si Si2 0.703984 0.815890 0.184580
Si Si3 0.249077 0.507696 0.328462
Si Si4 0.061184 0.634795 0.818064
Si Si5 0.384434 0.714826 0.671770
Si Si6 0.900621 0.497413 0.321948
Si Si7 0.925487 0.644571 0.316969
Si Si8 0.816436 0.729674 0.825070
O O1 0.637705 0.692162 0.500000
O O2 0.657784 0.763808 0.259998
O O3 0.549206 0.713606 0.292924
O O4 0.647818 0.643171 0.223633
O O5 0.677470 0.883276 0.242147
O O6 0.775962 0.792136 0.225221
O O7 0.699121 0.812583 0.000000
O O8 0.267829 0.525687 0.500000
O O9 0.261870 0.434883 0.293522
O O10 0.174034 0.517745 0.313908
O O11 0.066652 0.560406 0.767243
O O12 0.993022 0.658207 0.759586
O O13 0.066738 0.638319 0.000000
O O14 0.410077 0.714480 0.500000
O O15 0.325157 0.762788 0.673531
O O16 0.920491 0.493803 0.500000
O O17 0.908611 0.570968 0.271186
O O18 0.930207 0.644591 0.500000
O O19 0.873635 0.697121 0.267315
O O20 0.837520 0.740031 0.000000
#
# Coordination Sequence:
#
# PCOD9544107 Si02
#       8
#     8   8   8   8   8   8   8   8
#     4  11  21  33  51  75  99 128 167 210 259 311
#     4  10  20  36  54  74 101 134 170 215 262 302
#     4  11  20  33  53  75 101 130 166 214 259 308
#     4  12  24  35  51  75 104 141 180 217 255 303
#     4  10  20  34  52  74 100 129 164 211 261 308
#     4  10  21  35  50  71 102 140 178 213 255 301
#     4  11  22  36  53  73 103 142 177 212 256 307
#     4   9  19  34  53  75 100 129 167 213 256 299
#
# _framework density 16.463826000000001
#
# number of rings (size 3 to 8) (size 9 to 14) (size 15 to 20)
#    0.000    1.500    2.500    4.875    0.000    5.500 
#    0.000    0.000    0.000    0.375    0.000    2.625 
#    0.000    0.500    0.000    5.250    0.000    2.250 
#
# Total GULP energy -356890.315564 kJ/mol
# GULP energy per Si atom -5576.411181 kJ/mol
# Density = 1.642635 g / cm^3
# Si number density = 16.463826 Si / 1000 Ang^3
#
#
#
# Elastic Constant Matrix: (Units=GPa)
#
#
# Indices 1 2 3 4 5 6 
#
# 1 45.4490 22.3202 14.6288 0.0000 0.0000 2.6170
# 2 22.3202 45.4490 14.6288 0.0000 0.0000 -2.6170
# 3 14.6288 14.6288 54.5300 0.0000 0.0000 0.0000
# 4 0.0000 0.0000 0.0000 16.4662 0.0000 0.0000
# 5 0.0000 0.0000 0.0000 0.0000 16.4662 0.0000
# 6 2.6170 -2.6170 0.0000 0.0000 0.0000 15.3723
#
#
#
# Elastic Compliance Matrix: (Units=1/GPa)
#
#
# Indices 1 2 3 4 5 6 
#
# 1 0.030829 -0.014140 -0.004477 0.000000 0.000000 -0.007656
# 2 -0.014140 0.030829 -0.004477 0.000000 0.000000 0.007656
# 3 -0.004477 -0.004477 0.020741 0.000000 0.000000 0.000000
# 4 0.000000 0.000000 0.000000 0.060730 0.000000 0.000000
# 5 0.000000 0.000000 0.000000 0.000000 0.060730 0.000000
# 6 -0.007656 0.007656 0.000000 0.000000 0.000000 0.067659
#
#
# Mechanical properties :
#
#
# Convention : Reuss Voigt Hill
#
# Bulk Modulus (GPa) = 27.61679 27.62042 27.61860
# Shear Modulus (GPa) = 15.16180 15.91762 15.53971
#
# Velocity S-wave (km/s) = 3.03795 3.11275 3.07558
# Velocity P-wave (km/s) = 5.39594 5.45269 5.42439
#
# Compressibility (1/GPa) = 0.03620986
#
# Stress axis : x y z
#
# Youngs Moduli (GPa) = 32.43722 32.43722 48.21438
#
# Poissons Ratio (x) = 0.45866 0.21586
# Poissons Ratio (y) = 0.45866 0.21586
# Poissons Ratio (z) = 0.14523 0.14523
#
# Static dielectric constant tensor:
#      x y z
#    x 1.560990 0.000000 0.000000 
#    y 0.000000 1.560990 0.000000 
#    z 0.000000 0.000000 1.552550 
# 
# From -- ./inp_files/1348.got.cif
#   From: 2010.05.17/outbox.cif.g08.bks.cpg/sg84_1_cif.got.tgz:1348.got - 2010.06.03 18:57:40.
