data_PCOD9544982
_publ_section_title
;
Structure prediction by ZEFSAII (Michael W. Deem and Ramdas Pophale) SiO2 
 PCOD9544982
Probable space group: P 42/N
;
_chemical_formula_sum "Si O2"
_cell_formula_units_Z 56
_cell_length_a 13.766591
_cell_length_b 13.766591
_cell_length_c 14.311855
_cell_angle_alpha 90.000000
_cell_angle_beta 90.000000
_cell_angle_gamma 90.000000
_cell_volume 2712.368845
_symmetry_space_group_name_H-M "P 42/N"
_symmetry_group_IT_number 86
_space_group.IT_coordinate_system_code '2'
_symmetry_cell_setting 'tetragonal'
loop_
_space_group_symop_operation_xyz
x,y,z
-y,1/2+x,1/2+z
1/2-x,1/2-y,z
1/2+y,-x,1/2+z
-x,-y,-z
y,1/2-x,1/2-z
1/2+x,1/2+y,-z
1/2-y,x,1/2-z
loop_
_atom_site_type_symbol
_atom_site_label
_atom_site_fract_x
_atom_site_fract_y
_atom_site_fract_z
Si Si1 0.637558 0.230594 0.052517
Si Si2 0.682896 0.480537 0.738852
Si Si3 0.939599 0.406495 0.532983
Si Si4 0.990275 0.159852 0.746176
Si Si5 0.380640 0.505624 0.756396
Si Si6 0.686004 0.019981 0.022791
Si Si7 0.039194 0.123372 0.342294
O O1 0.750000 0.250000 0.082348
O O2 0.571672 0.214618 0.143189
O O3 0.597692 0.326789 0.002137
O O4 0.647619 0.128731 0.998826
O O5 0.599881 0.407676 0.778180
O O6 0.774280 0.501159 0.803434
O O7 0.631484 0.581545 0.711732
O O8 0.938981 0.401534 0.646351
O O9 0.984958 0.302035 0.506613
O O10 0.000000 0.500000 0.500000
O O11 0.981987 0.270878 0.775430
O O12 0.991406 0.166035 0.632544
O O13 0.088254 0.105338 0.775846
O O14 0.455620 0.545904 0.681143
O O15 0.633125 0.947165 0.952931
#
# Coordination Sequence:
#
# PCOD9544982 Si02
#       7
#     8   8   8   8   8   8   8
#     4   9  18  38  58  83 117 154 186 248 309 340
#     4  10  22  37  61  82 121 157 199 247 289 361
#     4  10  20  35  58  86 121 148 198 245 295 351
#     4   9  21  39  61  86 119 153 197 249 297 348
#     4  10  21  38  59  87 118 159 193 245 299 354
#     4   9  21  38  58  85 119 154 193 252 292 359
#     4  11  23  38  60  89 118 159 206 238 306 357
#
# _framework density 20.646160999999999
#
# number of rings (size 3 to 8) (size 9 to 14) (size 15 to 20)
#    0.000    2.286    1.429    0.857    4.000    6.857 
#    5.143    0.000    0.000    3.429    0.000    0.000 
#    0.000    0.000    0.000    0.000    0.000    0.000 
#
# Total GULP energy -312429.318830 kJ/mol
# GULP energy per Si atom -5579.094979 kJ/mol
# Density = 2.059917 g / cm^3
# Si number density = 20.646161 Si / 1000 Ang^3
#
#
#
# Elastic Constant Matrix: (Units=GPa)
#
#
# Indices 1 2 3 4 5 6 
#
# 1 75.0402 39.4582 -0.3030 0.0000 0.0000 -5.5282
# 2 39.4582 75.0402 -0.3030 0.0000 0.0000 5.5282
# 3 -0.3030 -0.3030 22.2290 0.0000 0.0000 0.0000
# 4 0.0000 0.0000 0.0000 19.3969 0.0000 0.0000
# 5 0.0000 0.0000 0.0000 0.0000 19.3969 0.0000
# 6 -5.5282 5.5282 0.0000 0.0000 0.0000 26.9627
#
#
#
# Elastic Compliance Matrix: (Units=1/GPa)
#
#
# Indices 1 2 3 4 5 6 
#
# 1 0.019375 -0.010641 0.000119 0.000000 0.000000 0.006154
# 2 -0.010641 0.019375 0.000119 0.000000 0.000000 -0.006154
# 3 0.000119 0.000119 0.044989 0.000000 0.000000 0.000000
# 4 0.000000 0.000000 0.000000 0.051555 0.000000 0.000000
# 5 0.000000 0.000000 0.000000 0.000000 0.051555 0.000000
# 6 0.006154 -0.006154 0.000000 0.000000 0.000000 0.039612
#
#
# Mechanical properties :
#
#
# Convention : Reuss Voigt Hill
#
# Bulk Modulus (GPa) = 15.88956 27.77933 21.83444
# Shear Modulus (GPa) = 18.63963 22.04842 20.34403
#
# Velocity S-wave (km/s) = 3.00794 3.27145 3.14246
# Velocity P-wave (km/s) = 4.44708 5.26821 4.87496
#
# Compressibility (1/GPa) = 0.06293441
#
# Stress axis : x y z
#
# Youngs Moduli (GPa) = 51.61178 51.61178 22.22741
#
# Poissons Ratio (x) = 0.54920 -0.00265
# Poissons Ratio (y) = 0.54920 -0.00265
# Poissons Ratio (z) = -0.00614 -0.00614
#
# Static dielectric constant tensor:
#      x y z
#    x 1.750740 0.000000 0.000000 
#    y 0.000000 1.750740 0.000000 
#    z 0.000000 0.000000 1.770700 
# 
# From -- ./inp_files/3038.got.cif
#   From: 2010.05.17/outbox.cif.g08.bks.cpg/sg86_2_cif.got.tgz:3038.got - 2010.06.03 19:03:11.
