data_PCOD9544115
_publ_section_title
;
Structure prediction by ZEFSAII (Michael W. Deem and Ramdas Pophale) SiO2 
 PCOD9544115
Probable space group: P 42/M
;
_chemical_formula_sum "Si O2"
_cell_formula_units_Z 56
_cell_length_a 14.758805
_cell_length_b 14.758805
_cell_length_c 13.595696
_cell_angle_alpha 90.000000
_cell_angle_beta 90.000000
_cell_angle_gamma 90.000000
_cell_volume 2961.446113
_symmetry_space_group_name_H-M "P 42/M"
_symmetry_group_IT_number 84
_symmetry_cell_setting 'tetragonal'
loop_
_space_group_symop_operation_xyz
x,y,z
-y,x,1/2+z
-x,-y,z
y,-x,1/2+z
-x,-y,-z
y,-x,1/2-z
x,y,-z
-y,x,1/2-z
loop_
_atom_site_type_symbol
_atom_site_label
_atom_site_fract_x
_atom_site_fract_y
_atom_site_fract_z
Si Si1 0.093106 0.256280 0.890641
Si Si2 0.223064 0.554857 0.116211
Si Si3 0.086048 0.893584 0.722434
Si Si4 0.027689 0.394695 0.613544
Si Si5 0.594328 0.591903 0.712631
Si Si6 0.381314 0.803389 0.253959
Si Si7 0.305978 0.086612 0.288372
O O1 0.086620 0.149290 0.870263
O O2 0.165317 0.295072 0.814986
O O3 0.997709 0.303012 0.864152
O O4 0.120780 0.276639 0.000000
O O5 0.331884 0.560182 0.136142
O O6 0.185035 0.467333 0.173646
O O7 0.169230 0.637389 0.167608
O O8 0.206213 0.552074 0.000000
O O9 0.110669 0.797946 0.768716
O O10 0.978398 0.894046 0.705631
O O11 0.025530 0.362274 0.500000
O O12 0.127967 0.387620 0.661833
O O13 0.000000 0.500000 0.613590
O O14 0.957029 0.345173 0.687147
O O15 0.599116 0.482043 0.699938
O O16 0.697382 0.620329 0.731013
#
# Coordination Sequence:
#
# PCOD9544115 Si02
#       7
#     8   8   8   8   8   8   8
#     4  10  20  34  55  84 115 147 189 232 285 346
#     4  11  21  35  58  86 114 150 193 231 289 352
#     4   9  19  37  56  74 106 151 193 233 281 324
#     4  10  20  36  58  87 116 149 188 227 280 347
#     4   9  20  39  58  77 109 152 195 241 289 334
#     4  10  20  37  58  83 117 152 181 236 291 339
#     4  10  20  36  56  84 119 151 181 239 288 338
#
# _framework density 18.909680000000002
#
# number of rings (size 3 to 8) (size 9 to 14) (size 15 to 20)
#    0.000    2.143    1.429    1.714    0.000    1.143 
#    0.000   15.000    0.000   12.000    0.000    0.000 
#    0.000    0.000    0.000    0.000    0.000    0.000 
#
# Total GULP energy -311766.600579 kJ/mol
# GULP energy per Si atom -5567.260725 kJ/mol
# Density = 1.886664 g / cm^3
# Si number density = 18.909680 Si / 1000 Ang^3
#
#
#
# Elastic Constant Matrix: (Units=GPa)
#
#
# Indices 1 2 3 4 5 6 
#
# 1 97.4691 6.2859 25.2409 0.0000 0.0000 4.9804
# 2 6.2859 97.4691 25.2409 0.0000 0.0000 -4.9804
# 3 25.2409 25.2409 95.3455 0.0000 0.0000 0.0000
# 4 0.0000 0.0000 0.0000 4.5561 0.0000 0.0000
# 5 0.0000 0.0000 0.0000 0.0000 4.5561 0.0000
# 6 4.9804 -4.9804 0.0000 0.0000 0.0000 14.8306
#
#
#
# Elastic Compliance Matrix: (Units=1/GPa)
#
#
# Indices 1 2 3 4 5 6 
#
# 1 0.011224 -0.000161 -0.002929 0.000000 0.000000 -0.003823
# 2 -0.000161 0.011224 -0.002929 0.000000 0.000000 0.003823
# 3 -0.002929 -0.002929 0.012039 0.000000 0.000000 0.000000
# 4 0.000000 0.000000 0.000000 0.219485 0.000000 0.000000
# 5 0.000000 0.000000 0.000000 0.000000 0.219485 0.000000
# 6 -0.003823 0.003823 0.000000 0.000000 0.000000 0.069996
#
#
# Mechanical properties :
#
#
# Convention : Reuss Voigt Hill
#
# Bulk Modulus (GPa) = 44.54343 44.86881 44.70612
# Shear Modulus (GPa) = 8.88144 20.35631 14.61888
#
# Velocity S-wave (km/s) = 2.16955 3.28457 2.78347
# Velocity P-wave (km/s) = 5.46653 6.17770 5.83297
#
# Compressibility (1/GPa) = 0.02245000
#
# Stress axis : x y z
#
# Youngs Moduli (GPa) = 89.09628 89.09628 83.06459
#
# Poissons Ratio (x) = 0.01432 0.24327
# Poissons Ratio (y) = 0.01432 0.24327
# Poissons Ratio (z) = 0.26094 0.26094
#
# Static dielectric constant tensor:
#      x y z
#    x 1.692370 0.000000 0.000000 
#    y 0.000000 1.692370 0.000000 
#    z 0.000000 0.000000 1.630430 
# 
# From -- ./inp_files/2229.got.cif
#   From: 2010.05.17/outbox.cif.g08.bks.cpg/sg84_2_cif.got.tgz:2229.got - 2010.06.03 18:57:40.
