data_PCOD9544830
_publ_section_title
;
Structure prediction by ZEFSAII (Michael W. Deem and Ramdas Pophale) SiO2 
 PCOD9544830
Probable space group: P 4/N
;
_chemical_formula_sum "Si O2"
_cell_formula_units_Z 34
_cell_length_a 11.628258
_cell_length_b 11.628258
_cell_length_c 9.510527
_cell_angle_alpha 90.000000
_cell_angle_beta 90.000000
_cell_angle_gamma 90.000000
_cell_volume 1285.979072
_symmetry_space_group_name_H-M "P 4/N"
_symmetry_group_IT_number 85
_symmetry_cell_setting 'tetragonal'
loop_
_space_group_symop_operation_xyz
x,y,z
1/2-y,x,z
1/2-x,1/2-y,z
y,1/2-x,z
-x,-y,-z
1/2+y,-x,-z
1/2+x,1/2+y,-z
-y,1/2+x,-z
loop_
_atom_site_type_symbol
_atom_site_label
_atom_site_fract_x
_atom_site_fract_y
_atom_site_fract_z
Si Si1 0.798093 0.932876 0.069697
Si Si2 0.222428 0.525888 0.650108
Si Si3 0.750000 0.250000 0.500000
Si Si4 0.382343 0.791817 0.839225
Si Si5 0.199135 0.432033 0.345975
O O1 0.670262 0.884683 0.035883
O O2 0.698209 0.040638 0.756884
O O3 0.818224 0.048299 0.981390
O O4 0.284674 0.635523 0.580445
O O5 0.127322 0.592457 0.744238
O O6 0.184579 0.457035 0.512359
O O7 0.296584 0.455917 0.762732
O O8 0.250000 0.750000 0.853061
O O9 0.115159 0.327513 0.316177
#
# Coordination Sequence:
#
# PCOD9544830 Si02
#       5
#     8   8   2   8   8
#     4  11  28  55  82 113 154 209 270 326 392 473
#     4  12  24  46  79 114 155 200 257 326 383 465
#     4  12  24  48  70 108 172 196 246 304 396 476
#     4  12  27  47  77 114 161 203 260 323 394 474
#     4  11  25  50  82 116 157 211 265 322 394 473
#
# _framework density 26.438995999999999
#
# number of rings (size 3 to 8) (size 9 to 14) (size 15 to 20)
#    0.000    0.471    3.529    2.824    4.941    5.647 
#   12.706    0.000    0.000    0.000    0.000    0.000 
#    0.000    0.000    0.000    0.000    0.000    0.000 
#
# Total GULP energy -190389.615392 kJ/mol
# GULP energy per Si atom -5599.694570 kJ/mol
# Density = 2.637882 g / cm^3
# Si number density = 26.438996 Si / 1000 Ang^3
#
#
#
# Elastic Constant Matrix: (Units=GPa)
#
#
# Indices 1 2 3 4 5 6 
#
# 1 124.4880 34.0388 33.9891 0.0000 0.0000 0.6898
# 2 34.0388 124.4880 33.9891 0.0000 0.0000 -0.6898
# 3 33.9891 33.9891 141.4951 0.0000 0.0000 0.0000
# 4 0.0000 0.0000 0.0000 38.3967 0.0000 0.0000
# 5 0.0000 0.0000 0.0000 0.0000 38.3967 0.0000
# 6 0.6898 -0.6898 0.0000 0.0000 0.0000 30.2349
#
#
#
# Elastic Compliance Matrix: (Units=1/GPa)
#
#
# Indices 1 2 3 4 5 6 
#
# 1 0.009046 -0.002014 -0.001689 0.000000 0.000000 -0.000252
# 2 -0.002014 0.009046 -0.001689 0.000000 0.000000 0.000252
# 3 -0.001689 -0.001689 0.007879 0.000000 0.000000 0.000000
# 4 0.000000 0.000000 0.000000 0.026044 0.000000 0.000000
# 5 0.000000 0.000000 0.000000 0.000000 0.026044 0.000000
# 6 -0.000252 0.000252 0.000000 0.000000 0.000000 0.033086
#
#
# Mechanical properties :
#
#
# Convention : Reuss Voigt Hill
#
# Bulk Modulus (GPa) = 65.84700 66.05613 65.95157
# Shear Modulus (GPa) = 39.37268 40.63594 40.00431
#
# Velocity S-wave (km/s) = 3.86319 3.92467 3.89405
# Velocity P-wave (km/s) = 6.69763 6.75100 6.72437
#
# Compressibility (1/GPa) = 0.01518672
#
# Stress axis : x y z
#
# Youngs Moduli (GPa) = 110.54462 110.54462 126.92016
#
# Poissons Ratio (x) = 0.22260 0.21441
# Poissons Ratio (y) = 0.22260 0.21441
# Poissons Ratio (z) = 0.18674 0.18674
#
# Static dielectric constant tensor:
#      x y z
#    x 2.052170 0.000000 0.000000 
#    y 0.000000 2.052170 0.000000 
#    z 0.000000 0.000000 2.201200 
# 
# From -- ./inp_files/1457.got.cif
#   From: 2010.05.17/outbox.cif.g08.bks.cpg/sg85_cif.got.tgz:1457.got - 2010.06.03 19:01:16.
