data_PCOD9544995
_publ_section_title
;
Structure prediction by ZEFSAII (Michael W. Deem and Ramdas Pophale) SiO2 
 PCOD9544995
Probable space group: P 42/N
;
_chemical_formula_sum "Si O2"
_cell_formula_units_Z 42
_cell_length_a 10.175244
_cell_length_b 10.175244
_cell_length_c 14.192194
_cell_angle_alpha 90.000000
_cell_angle_beta 90.000000
_cell_angle_gamma 90.000000
_cell_volume 1469.397186
_symmetry_space_group_name_H-M "P 42/N"
_symmetry_group_IT_number 86
_space_group.IT_coordinate_system_code '2'
_symmetry_cell_setting 'tetragonal'
loop_
_space_group_symop_operation_xyz
x,y,z
-y,1/2+x,1/2+z
1/2-x,1/2-y,z
1/2+y,-x,1/2+z
-x,-y,-z
y,1/2-x,1/2-z
1/2+x,1/2+y,-z
1/2-y,x,1/2-z
loop_
_atom_site_type_symbol
_atom_site_label
_atom_site_fract_x
_atom_site_fract_y
_atom_site_fract_z
Si Si1 0.750000 0.750000 0.250000
Si Si2 0.250000 0.250000 0.439810
Si Si3 0.429599 0.647741 0.856883
Si Si4 0.533647 0.114517 0.275286
Si Si5 0.750000 0.250000 0.472736
Si Si6 0.081920 0.145040 0.890774
Si Si7 0.003061 0.917201 0.595824
O O1 0.745204 0.631682 0.320634
O O2 0.319211 0.142671 0.510550
O O3 0.131573 0.166905 0.395054
O O4 0.581472 0.603656 0.830856
O O5 0.414214 0.755309 0.775100
O O6 0.366657 0.500800 0.861333
O O7 0.630924 0.067207 0.358004
O O8 0.625749 0.319557 0.420075
O O9 0.793519 0.367267 0.547964
O O10 0.985100 0.012204 0.686251
O O11 0.000000 0.000000 0.500000
#
# Coordination Sequence:
#
# PCOD9544995 Si02
#       7
#     2   4   8   8   4   8   8
#     4  10  20  36  68 100 140 162 256 296 368 416
#     4  11  24  49  76 109 152 197 260 315 397 460
#     4  10  23  42  71  98 146 190 253 305 377 458
#     4  10  24  45  67 108 144 198 250 311 381 460
#     4  12  24  50  72 110 156 202 254 330 390 466
#     4   9  23  41  70 106 133 191 255 305 363 464
#     4  12  26  47  73 109 155 197 250 322 398 460
#
# _framework density 28.58315
#
# number of rings (size 3 to 8) (size 9 to 14) (size 15 to 20)
#    1.143    0.381    3.810    0.000    8.000    2.667 
#    3.429    1.905    0.000    0.000    0.000    0.000 
#    0.000    0.000    0.000    0.000    0.000    0.000 
#
# Total GULP energy -234098.784508 kJ/mol
# GULP energy per Si atom -5573.780584 kJ/mol
# Density = 2.851809 g / cm^3
# Si number density = 28.583150 Si / 1000 Ang^3
#
#
#
# Elastic Constant Matrix: (Units=GPa)
#
#
# Indices 1 2 3 4 5 6 
#
# 1 172.7273 39.4411 44.1886 0.0000 0.0000 -5.2346
# 2 39.4411 172.7273 44.1886 0.0000 0.0000 5.2346
# 3 44.1886 44.1886 200.5791 0.0000 0.0000 0.0000
# 4 0.0000 0.0000 0.0000 31.9343 0.0000 0.0000
# 5 0.0000 0.0000 0.0000 0.0000 31.9343 0.0000
# 6 -5.2346 5.2346 0.0000 0.0000 0.0000 25.4378
#
#
#
# Elastic Compliance Matrix: (Units=1/GPa)
#
#
# Indices 1 2 3 4 5 6 
#
# 1 0.006408 -0.001218 -0.001143 0.000000 0.000000 0.001569
# 2 -0.001218 0.006408 -0.001143 0.000000 0.000000 -0.001569
# 3 -0.001143 -0.001143 0.005489 0.000000 0.000000 0.000000
# 4 0.000000 0.000000 0.000000 0.031314 0.000000 0.000000
# 5 0.000000 0.000000 0.000000 0.000000 0.031314 0.000000
# 6 0.001569 -0.001569 0.000000 0.000000 0.000000 0.039957
#
#
# Mechanical properties :
#
#
# Convention : Reuss Voigt Hill
#
# Bulk Modulus (GPa) = 88.53353 89.07447 88.80400
# Shear Modulus (GPa) = 37.97511 45.74231 41.85871
#
# Velocity S-wave (km/s) = 3.64893 4.00475 3.83097
# Velocity P-wave (km/s) = 6.98528 7.25361 7.12071
#
# Compressibility (1/GPa) = 0.01129516
#
# Stress axis : x y z
#
# Youngs Moduli (GPa) = 156.06261 156.06261 182.17264
#
# Poissons Ratio (x) = 0.19012 0.20827
# Poissons Ratio (y) = 0.19012 0.20827
# Poissons Ratio (z) = 0.17842 0.17842
#
# Static dielectric constant tensor:
#      x y z
#    x 2.240770 0.000000 0.000000 
#    y 0.000000 2.240770 0.000000 
#    z 0.000000 0.000000 2.148490 
# 
# From -- ./inp_files/3502.got.cif
#   From: 2010.05.17/outbox.cif.g08.bks.cpg/sg86_2_cif.got.tgz:3502.got - 2010.06.03 19:03:11.
