data_PCOD9544643
_publ_section_title
;
Structure prediction by ZEFSAII (Michael W. Deem and Ramdas Pophale) SiO2 
 PCOD9544643
Probable space group: P 4/N
;
_chemical_formula_sum "Si O2"
_cell_formula_units_Z 30
_cell_length_a 11.184253
_cell_length_b 11.184253
_cell_length_c 9.331910
_cell_angle_alpha 90.000000
_cell_angle_beta 90.000000
_cell_angle_gamma 90.000000
_cell_volume 1167.305434
_symmetry_space_group_name_H-M "P 4/N"
_symmetry_group_IT_number 85
_symmetry_cell_setting 'tetragonal'
loop_
_space_group_symop_operation_xyz
x,y,z
1/2-y,x,z
1/2-x,1/2-y,z
y,1/2-x,z
-x,-y,-z
1/2+y,-x,-z
1/2+x,1/2+y,-z
-y,1/2+x,-z
loop_
_atom_site_type_symbol
_atom_site_label
_atom_site_fract_x
_atom_site_fract_y
_atom_site_fract_z
Si Si1 0.627145 0.473912 0.832198
Si Si2 0.750000 0.750000 0.433264
Si Si3 0.250000 0.750000 0.000000
Si Si4 0.750000 0.250000 0.500000
Si Si5 0.356669 0.507247 0.496325
Si Si6 0.625085 0.607187 0.114059
O O1 0.676640 0.486056 0.673564
O O2 0.482533 0.468838 0.825966
O O3 0.685146 0.355903 0.908210
O O4 0.639282 0.582192 0.944292
O O5 0.696387 0.613549 0.445284
O O6 0.873554 0.300374 0.569211
O O7 0.500000 0.500000 0.500000
O O8 0.760123 0.590001 0.158390
#
# Coordination Sequence:
#
# PCOD9544643 Si02
#       6
#     8   2   2   2   8   8
#     4  11  25  42  71 101 147 187 247 304 385 458
#     4  12  28  52  76 112 150 204 268 316 392 478
#     4  12  22  48  68 110 140 202 244 316 398 468
#     4  12  26  52  80 110 152 206 264 316 402 456
#     4  12  28  49  78 114 157 207 264 331 394 478
#     4  10  22  40  63  99 137 185 238 296 368 442
#
# _framework density 25.700213999999999
#
# number of rings (size 3 to 8) (size 9 to 14) (size 15 to 20)
#    0.000    0.800    5.333    0.800    3.733    2.133 
#    0.000    0.000    0.000    0.000    0.000    0.000 
#    0.000    0.000    0.000    0.000    0.000    0.000 
#
# Total GULP energy -167283.455193 kJ/mol
# GULP energy per Si atom -5576.115173 kJ/mol
# Density = 2.564172 g / cm^3
# Si number density = 25.700214 Si / 1000 Ang^3
#
#
#
# Elastic Constant Matrix: (Units=GPa)
#
#
# Indices 1 2 3 4 5 6 
#
# 1 201.3145 55.5009 31.2220 0.0000 0.0000 3.2399
# 2 55.5009 201.3145 31.2220 0.0000 0.0000 -3.2399
# 3 31.2220 31.2220 159.0455 0.0000 0.0000 0.0000
# 4 0.0000 0.0000 0.0000 3.8806 0.0000 0.0000
# 5 0.0000 0.0000 0.0000 0.0000 3.8806 0.0000
# 6 3.2399 -3.2399 0.0000 0.0000 0.0000 63.0508
#
#
#
# Elastic Compliance Matrix: (Units=1/GPa)
#
#
# Indices 1 2 3 4 5 6 
#
# 1 0.005481 -0.001392 -0.000803 0.000000 0.000000 -0.000353
# 2 -0.001392 0.005481 -0.000803 0.000000 0.000000 0.000353
# 3 -0.000803 -0.000803 0.006603 0.000000 0.000000 0.000000
# 4 0.000000 0.000000 0.000000 0.257692 0.000000 0.000000
# 5 0.000000 0.000000 0.000000 0.000000 0.257692 0.000000
# 6 -0.000353 0.000353 0.000000 0.000000 0.000000 0.015897
#
#
# Mechanical properties :
#
#
# Convention : Reuss Voigt Hill
#
# Bulk Modulus (GPa) = 86.43135 88.61824 87.52480
# Shear Modulus (GPa) = 8.94938 43.74439 26.34688
#
# Velocity S-wave (km/s) = 1.86810 4.13013 3.20529
# Velocity P-wave (km/s) = 6.19327 7.56970 6.91581
#
# Compressibility (1/GPa) = 0.01156988
#
# Stress axis : x y z
#
# Youngs Moduli (GPa) = 182.43534 182.43534 151.45393
#
# Poissons Ratio (x) = 0.25402 0.12157
# Poissons Ratio (y) = 0.25402 0.12157
# Poissons Ratio (z) = 0.14644 0.14644
#
# Static dielectric constant tensor:
#      x y z
#    x 2.030560 0.000000 0.000000 
#    y 0.000000 2.030560 0.000000 
#    z 0.000000 0.000000 2.156960 
# 
# From -- ./inp_files/1390.got.cif
#   From: 2010.05.17/outbox.cif.g08.bks.cpg/sg85_cif.got.tgz:1390.got - 2010.06.03 19:01:16.
