data_PCOD9544711
_publ_section_title
;
Structure prediction by ZEFSAII (Michael W. Deem and Ramdas Pophale) SiO2 
 PCOD9544711
Probable space group: P 4/N
;
_chemical_formula_sum "Si O2"
_cell_formula_units_Z 40
_cell_length_a 14.935689
_cell_length_b 14.935689
_cell_length_c 9.028973
_cell_angle_alpha 90.000000
_cell_angle_beta 90.000000
_cell_angle_gamma 90.000000
_cell_volume 2014.136399
_symmetry_space_group_name_H-M "P 4/N"
_symmetry_group_IT_number 85
_symmetry_cell_setting 'tetragonal'
loop_
_space_group_symop_operation_xyz
x,y,z
1/2-y,x,z
1/2-x,1/2-y,z
y,1/2-x,z
-x,-y,-z
1/2+y,-x,-z
1/2+x,1/2+y,-z
-y,1/2+x,-z
loop_
_atom_site_type_symbol
_atom_site_label
_atom_site_fract_x
_atom_site_fract_y
_atom_site_fract_z
Si Si1 0.111563 0.196451 0.774415
Si Si2 0.556640 0.076414 0.909438
Si Si3 0.746022 0.990157 0.936369
Si Si4 0.894295 0.706892 0.635825
Si Si5 0.542219 0.922566 0.402042
O O1 0.202220 0.140310 0.748749
O O2 0.049644 0.141122 0.662777
O O3 0.077218 0.201913 0.942108
O O4 0.660482 0.049849 0.895444
O O5 0.515844 0.085389 0.746180
O O6 0.542181 0.172108 0.987596
O O7 0.500000 0.000000 0.000000
O O8 0.789930 0.939582 0.796791
O O9 0.856677 0.807196 0.621682
O O10 0.956115 0.664626 0.508934
O O11 0.500000 0.000000 0.500000
#
# Coordination Sequence:
#
# PCOD9544711 Si02
#       5
#     8   8   8   8   8
#     4  11  21  38  70 105 135 179 238 301 365 428
#     4  12  25  45  71 103 138 194 243 301 360 434
#     4  12  24  45  72 100 142 186 252 299 365 439
#     4  11  24  41  66 105 144 181 236 312 373 432
#     4  12  24  40  64 102 149 185 227 286 379 441
#
# _framework density 19.859628000000001
#
# number of rings (size 3 to 8) (size 9 to 14) (size 15 to 20)
#    0.000    0.400    4.000    6.000    0.000    3.600 
#    0.000    0.000    0.000    0.000    0.000    0.000 
#    0.000    0.000    0.000    0.000    0.000    0.000 
#
# Total GULP energy -223194.335311 kJ/mol
# GULP energy per Si atom -5579.858383 kJ/mol
# Density = 1.981443 g / cm^3
# Si number density = 19.859628 Si / 1000 Ang^3
#
#
#
# Elastic Constant Matrix: (Units=GPa)
#
#
# Indices 1 2 3 4 5 6 
#
# 1 114.4367 56.4691 70.1590 0.0000 0.0000 -3.2275
# 2 56.4691 114.4367 70.1590 0.0000 0.0000 3.2275
# 3 70.1590 70.1590 174.9502 0.0000 0.0000 0.0000
# 4 0.0000 0.0000 0.0000 47.2788 0.0000 0.0000
# 5 0.0000 0.0000 0.0000 0.0000 47.2788 0.0000
# 6 -3.2275 3.2275 0.0000 0.0000 0.0000 21.3726
#
#
#
# Elastic Compliance Matrix: (Units=1/GPa)
#
#
# Indices 1 2 3 4 5 6 
#
# 1 0.013135 -0.004411 -0.003498 0.000000 0.000000 0.002650
# 2 -0.004411 0.013135 -0.003498 0.000000 0.000000 -0.002650
# 3 -0.003498 -0.003498 0.008522 0.000000 0.000000 0.000000
# 4 0.000000 0.000000 0.000000 0.021151 0.000000 0.000000
# 5 0.000000 0.000000 0.000000 0.000000 0.021151 0.000000
# 6 0.002650 -0.002650 0.000000 0.000000 0.000000 0.047589
#
#
# Mechanical properties :
#
#
# Convention : Reuss Voigt Hill
#
# Bulk Modulus (GPa) = 83.50507 88.59974 86.05240
# Shear Modulus (GPa) = 33.00551 36.98849 34.99700
#
# Velocity S-wave (km/s) = 4.08111 4.32035 4.20243
# Velocity P-wave (km/s) = 8.02161 8.34248 8.18362
#
# Compressibility (1/GPa) = 0.01197532
#
# Stress axis : x y z
#
# Youngs Moduli (GPa) = 76.13428 76.13428 117.34797
#
# Poissons Ratio (x) = 0.33586 0.41051
# Poissons Ratio (y) = 0.33586 0.41051
# Poissons Ratio (z) = 0.26634 0.26634
#
# Static dielectric constant tensor:
#      x y z
#    x 1.754230 0.000000 0.000000 
#    y 0.000000 1.754230 0.000000 
#    z 0.000000 0.000000 1.750470 
# 
# From -- ./inp_files/922.got.cif
#   From: 2010.05.17/outbox.cif.g08.bks.cpg/sg85_cif.got.tgz:922.got - 2010.06.03 19:01:16.
