data_PCOD9544694
_publ_section_title
;
Structure prediction by ZEFSAII (Michael W. Deem and Ramdas Pophale) SiO2 
 PCOD9544694
Probable space group: P 4/N
;
_chemical_formula_sum "Si O2"
_cell_formula_units_Z 56
_cell_length_a 13.881518
_cell_length_b 13.881518
_cell_length_c 11.984574
_cell_angle_alpha 90.000000
_cell_angle_beta 90.000000
_cell_angle_gamma 90.000000
_cell_volume 2309.385967
_symmetry_space_group_name_H-M "P 4/N"
_symmetry_group_IT_number 85
_symmetry_cell_setting 'tetragonal'
loop_
_space_group_symop_operation_xyz
x,y,z
1/2-y,x,z
1/2-x,1/2-y,z
y,1/2-x,z
-x,-y,-z
1/2+y,-x,-z
1/2+x,1/2+y,-z
-y,1/2+x,-z
loop_
_atom_site_type_symbol
_atom_site_label
_atom_site_fract_x
_atom_site_fract_y
_atom_site_fract_z
Si Si1 0.390817 0.300026 0.552702
Si Si2 0.417645 0.924602 0.536461
Si Si3 0.826619 0.116487 0.308840
Si Si4 0.906565 0.465740 0.066424
Si Si5 0.610773 0.182953 0.246723
Si Si6 0.600555 0.852825 0.219552
Si Si7 0.737952 0.900728 0.988015
O O1 0.305991 0.369021 0.506297
O O2 0.499841 0.329837 0.544606
O O3 0.365757 0.320095 0.683444
O O4 0.388388 0.851345 0.439416
O O5 0.443265 0.870355 0.651017
O O6 0.500000 0.000000 0.500000
O O7 0.720368 0.150830 0.275411
O O8 0.894016 0.201419 0.257271
O O9 0.839655 0.007522 0.267018
O O10 0.912279 0.362620 0.125854
O O11 0.903113 0.540960 0.167137
O O12 0.811033 0.494100 0.995378
O O13 0.000000 0.500000 0.000000
O O14 0.612518 0.777722 0.117190
O O15 0.650553 0.833811 0.939261
#
# Coordination Sequence:
#
# PCOD9544694 Si02
#       7
#     8   8   8   8   8   8   8
#     4  11  22  35  59  93 127 160 209 280 339 388
#     4  12  23  37  61  90 126 174 218 270 332 398
#     4  11  23  39  64  88 127 176 213 272 329 405
#     4  11  22  39  62  90 128 164 209 273 335 397
#     4  11  23  42  59  90 130 169 224 266 327 409
#     4  11  19  39  62  92 121 160 216 274 334 394
#     4   9  18  34  63  93 118 151 203 273 334 388
#
# _framework density 24.24887
#
# number of rings (size 3 to 8) (size 9 to 14) (size 15 to 20)
#    0.000    1.143    4.286    3.429    2.000    3.429 
#    5.143    0.000    0.000    1.714    0.000    0.000 
#    0.000    0.000    0.000    0.000    0.000    0.000 
#
# Total GULP energy -312034.084743 kJ/mol
# GULP energy per Si atom -5572.037228 kJ/mol
# Density = 2.419368 g / cm^3
# Si number density = 24.248870 Si / 1000 Ang^3
#
#
#
# Elastic Constant Matrix: (Units=GPa)
#
#
# Indices 1 2 3 4 5 6 
#
# 1 117.4816 16.1960 31.6150 0.0000 0.0000 -0.9727
# 2 16.1960 117.4816 31.6150 0.0000 0.0000 0.9727
# 3 31.6150 31.6150 46.7193 0.0000 0.0000 0.0000
# 4 0.0000 0.0000 0.0000 29.3197 0.0000 0.0000
# 5 0.0000 0.0000 0.0000 0.0000 29.3197 0.0000
# 6 -0.9727 0.9727 0.0000 0.0000 0.0000 34.9026
#
#
#
# Elastic Compliance Matrix: (Units=1/GPa)
#
#
# Indices 1 2 3 4 5 6 
#
# 1 0.010440 0.000562 -0.007445 0.000000 0.000000 0.000275
# 2 0.000562 0.010440 -0.007445 0.000000 0.000000 -0.000275
# 3 -0.007445 -0.007445 0.031481 0.000000 0.000000 0.000000
# 4 0.000000 0.000000 0.000000 0.034107 0.000000 0.000000
# 5 0.000000 0.000000 0.000000 0.000000 0.034107 0.000000
# 6 0.000275 -0.000275 0.000000 0.000000 0.000000 0.028666
#
#
# Mechanical properties :
#
#
# Convention : Reuss Voigt Hill
#
# Bulk Modulus (GPa) = 42.18622 48.94826 45.56724
# Shear Modulus (GPa) = 26.91063 32.19219 29.55141
#
# Velocity S-wave (km/s) = 3.33493 3.64754 3.49474
# Velocity P-wave (km/s) = 5.68014 6.16190 5.92592
#
# Compressibility (1/GPa) = 0.02370442
#
# Stress axis : x y z
#
# Youngs Moduli (GPa) = 95.78231 95.78231 31.76529
#
# Poissons Ratio (x) = -0.05383 0.23650
# Poissons Ratio (y) = -0.05383 0.23650
# Poissons Ratio (z) = 0.71313 0.71313
#
# Static dielectric constant tensor:
#      x y z
#    x 2.052810 0.000000 0.000000 
#    y 0.000000 2.052810 0.000000 
#    z 0.000000 0.000000 2.038400 
# 
# From -- ./inp_files/1747.got.cif
#   From: 2010.05.17/outbox.cif.g08.bks.cpg/sg85_cif.got.tgz:1747.got - 2010.06.03 19:01:16.
