data_PCOD9544619
_publ_section_title
;
Structure prediction by ZEFSAII (Michael W. Deem and Ramdas Pophale) SiO2 
 PCOD9544619
Probable space group: P 4/N
;
_chemical_formula_sum "Si O2"
_cell_formula_units_Z 48
_cell_length_a 14.270892
_cell_length_b 14.270892
_cell_length_c 10.349900
_cell_angle_alpha 90.000000
_cell_angle_beta 90.000000
_cell_angle_gamma 90.000000
_cell_volume 2107.843644
_symmetry_space_group_name_H-M "P 4/N"
_symmetry_group_IT_number 85
_symmetry_cell_setting 'tetragonal'
loop_
_space_group_symop_operation_xyz
x,y,z
1/2-y,x,z
1/2-x,1/2-y,z
y,1/2-x,z
-x,-y,-z
1/2+y,-x,-z
1/2+x,1/2+y,-z
-y,1/2+x,-z
loop_
_atom_site_type_symbol
_atom_site_label
_atom_site_fract_x
_atom_site_fract_y
_atom_site_fract_z
Si Si1 0.999511 0.047570 0.703775
Si Si2 0.773573 0.394946 0.272971
Si Si3 0.570890 0.100942 0.915494
Si Si4 0.254586 0.096152 0.330626
Si Si5 0.070117 0.727588 0.860371
Si Si6 0.519032 0.162152 0.515447
O O1 0.087728 0.023829 0.614350
O O2 0.983152 0.155602 0.736273
O O3 0.024445 0.987033 0.833085
O O4 0.905453 0.033347 0.611936
O O5 0.687461 0.414194 0.180628
O O6 0.837643 0.309013 0.217582
O O7 0.721562 0.397775 0.414612
O O8 0.679529 0.079663 0.946281
O O9 0.532453 0.145430 0.047385
O O10 0.341789 0.162666 0.308250
O O11 0.241397 0.054950 0.473259
O O12 0.259528 0.006427 0.241827
#
# Coordination Sequence:
#
# PCOD9544619 Si02
#       6
#     8   8   8   8   8   8
#     4  10  22  43  67 100 135 180 236 281 360 423
#     4  11  23  40  66  99 128 181 231 287 349 429
#     4  11  25  43  70  93 144 185 235 298 352 434
#     4  11  24  43  69 102 139 184 234 291 352 421
#     4  12  24  43  66 100 139 186 238 290 362 422
#     4  10  21  42  66  94 136 179 220 291 348 426
#
# _framework density 22.772089000000001
#
# number of rings (size 3 to 8) (size 9 to 14) (size 15 to 20)
#    0.000    1.167    3.333    2.500    0.000    4.667 
#    3.000    0.000    0.000    4.500    0.000    0.000 
#    0.000    0.000    0.000    0.000    0.000    0.000 
#
# Total GULP energy -267376.292350 kJ/mol
# GULP energy per Si atom -5570.339424 kJ/mol
# Density = 2.272026 g / cm^3
# Si number density = 22.772089 Si / 1000 Ang^3
#
#
#
# Elastic Constant Matrix: (Units=GPa)
#
#
# Indices 1 2 3 4 5 6 
#
# 1 31.2284 -4.1309 34.2750 0.0000 0.0000 -13.7456
# 2 -4.1309 31.2284 34.2750 0.0000 0.0000 13.7456
# 3 34.2750 34.2750 -7.5244 0.0000 0.0000 0.0000
# 4 0.0000 0.0000 0.0000 21.1078 0.0000 0.0000
# 5 0.0000 0.0000 0.0000 0.0000 21.1078 0.0000
# 6 -13.7456 13.7456 0.0000 0.0000 0.0000 37.8019
#
#
#
# Elastic Compliance Matrix: (Units=1/GPa)
#
#
# Indices 1 2 3 4 5 6 
#
# 1 0.021187 -0.018241 0.013423 0.000000 0.000000 0.014337
# 2 -0.018241 0.021187 0.013423 0.000000 0.000000 -0.014337
# 3 0.013423 0.013423 -0.010612 0.000000 0.000000 0.000000
# 4 0.000000 0.000000 0.000000 0.047376 0.000000 0.000000
# 5 0.000000 0.000000 0.000000 0.000000 0.047376 0.000000
# 6 0.014337 -0.014337 0.000000 0.000000 0.000000 0.036880
#
#
# Mechanical properties :
#
#
# Convention : Reuss Voigt Hill
#
# Bulk Modulus (GPa) = 20.41917 20.41896 20.41906
# Shear Modulus (GPa) = 30.76782 15.37106 23.06944
#
# Velocity S-wave (km/s) = 3.67975 2.60089 3.18631
# Velocity P-wave (km/s) = 5.20003 4.24330 4.74583
#
# Compressibility (1/GPa) = 0.04897358
#
# Stress axis : x y z
#
# Youngs Moduli (GPa) = 47.19817 47.19817 -94.23187
#
# Poissons Ratio (x) = 0.86092 1.26488
# Poissons Ratio (y) = 0.86092 1.26488
# Poissons Ratio (z) = -0.63354 -0.63354
#
# Static dielectric constant tensor:
#      x y z
#    x 1.897220 0.000000 0.000000 
#    y 0.000000 1.897220 0.000000 
#    z 0.000000 0.000000 1.927320 
# 
# From -- ./inp_files/1649.got.cif
#   From: 2010.05.17/outbox.cif.g08.bks.cpg/sg85_cif.got.tgz:1649.got - 2010.06.03 19:01:16.
