data_PCOD9544527
_publ_section_title
;
Structure prediction by ZEFSAII (Michael W. Deem and Ramdas Pophale) SiO2 
 PCOD9544527
Probable space group: P 4/N
;
_chemical_formula_sum "Si O2"
_cell_formula_units_Z 60
_cell_length_a 11.019380
_cell_length_b 11.019380
_cell_length_c 21.117625
_cell_angle_alpha 90.000000
_cell_angle_beta 90.000000
_cell_angle_gamma 90.000000
_cell_volume 2564.244267
_symmetry_space_group_name_H-M "P 4/N"
_symmetry_group_IT_number 85
_symmetry_cell_setting 'tetragonal'
loop_
_space_group_symop_operation_xyz
x,y,z
1/2-y,x,z
1/2-x,1/2-y,z
y,1/2-x,z
-x,-y,-z
1/2+y,-x,-z
1/2+x,1/2+y,-z
-y,1/2+x,-z
loop_
_atom_site_type_symbol
_atom_site_label
_atom_site_fract_x
_atom_site_fract_y
_atom_site_fract_z
Si Si1 0.907662 0.639215 0.785831
Si Si2 0.225963 0.053538 0.987727
Si Si3 0.062931 0.728418 0.887246
Si Si4 0.642824 0.020574 0.268211
Si Si5 0.750000 0.250000 0.343526
Si Si6 0.215965 0.945929 0.851409
Si Si7 0.894228 0.611732 0.396192
Si Si8 0.864901 0.121971 0.460808
O O1 0.910858 0.779401 0.762663
O O2 0.938675 0.672048 0.859385
O O3 0.016679 0.557100 0.763599
O O4 0.352798 0.118787 0.001467
O O5 0.213619 0.027636 0.913505
O O6 0.223618 0.943646 0.037170
O O7 0.097180 0.859620 0.857139
O O8 0.171426 0.643984 0.863928
O O9 0.691349 0.143947 0.301803
O O10 0.744276 0.990537 0.214347
O O11 0.604385 0.925885 0.322543
O O12 0.839817 0.182613 0.392138
O O13 0.913078 0.753837 0.408320
O O14 0.001802 0.559083 0.439984
O O15 0.736458 0.090685 0.496723
#
# Coordination Sequence:
#
# PCOD9544527 Si02
#       8
#     8   8   8   8   4   8   8   8
#     4  10  22  37  57  91 126 165 223 293 346 401
#     4  11  24  39  56  82 121 167 215 287 358 421
#     4  10  20  39  63  85 116 159 225 290 351 415
#     4  11  23  39  66  94 137 186 227 276 342 434
#     4  10  19  42  66  98 127 180 228 270 326 418
#     4  10  23  39  58  92 121 163 223 278 343 426
#     4  11  24  42  66 106 147 186 229 277 340 410
#     4   9  21  43  73 107 134 179 232 285 335 403
#
# _framework density 23.398707999999999
#
# number of rings (size 3 to 8) (size 9 to 14) (size 15 to 20)
#    0.000    1.867    1.333    3.200    1.867    9.067 
#    0.000    1.333    0.000    0.000    0.000    0.000 
#    0.000    0.000    0.000    0.000    0.000    0.000 
#
# Total GULP energy -334481.769784 kJ/mol
# GULP energy per Si atom -5574.696163 kJ/mol
# Density = 2.334545 g / cm^3
# Si number density = 23.398708 Si / 1000 Ang^3
#
#
#
# Elastic Constant Matrix: (Units=GPa)
#
#
# Indices 1 2 3 4 5 6 
#
# 1 41.5478 12.1424 25.7521 0.0000 0.0000 14.8401
# 2 12.1424 41.5478 25.7521 0.0000 0.0000 -14.8401
# 3 25.7521 25.7521 130.0576 0.0000 0.0000 0.0000
# 4 0.0000 0.0000 0.0000 12.2528 0.0000 0.0000
# 5 0.0000 0.0000 0.0000 0.0000 12.2528 0.0000
# 6 14.8401 -14.8401 0.0000 0.0000 0.0000 32.4054
#
#
#
# Elastic Compliance Matrix: (Units=1/GPa)
#
#
# Indices 1 2 3 4 5 6 
#
# 1 0.043115 -0.020123 -0.004553 0.000000 0.000000 -0.028960
# 2 -0.020123 0.043115 -0.004553 0.000000 0.000000 0.028960
# 3 -0.004553 -0.004553 0.009492 0.000000 0.000000 0.000000
# 4 0.000000 0.000000 0.000000 0.081614 0.000000 0.000000
# 5 0.000000 0.000000 0.000000 0.000000 0.081614 0.000000
# 6 -0.028960 0.028960 0.000000 0.000000 0.000000 0.057384
#
#
# Mechanical properties :
#
#
# Convention : Reuss Voigt Hill
#
# Bulk Modulus (GPa) = 26.83375 37.82738 32.33057
# Shear Modulus (GPa) = 12.91279 21.34927 17.13103
#
# Velocity S-wave (km/s) = 2.35172 3.02389 2.70874
# Velocity P-wave (km/s) = 4.34362 5.32855 4.86109
#
# Compressibility (1/GPa) = 0.03726650
#
# Stress axis : x y z
#
# Youngs Moduli (GPa) = 23.19359 23.19359 105.35392
#
# Poissons Ratio (x) = 0.46672 0.47964
# Poissons Ratio (y) = 0.46672 0.47964
# Poissons Ratio (z) = 0.10559 0.10559
#
# Static dielectric constant tensor:
#      x y z
#    x 1.925940 0.000000 0.000000 
#    y 0.000000 1.925940 0.000000 
#    z 0.000000 0.000000 1.919520 
# 
# From -- ./inp_files/2286.got.cif
#   From: 2010.05.17/outbox.cif.g08.bks.cpg/sg85_cif.got.tgz:2286.got - 2010.06.03 19:01:16.
