data_PCOD9544133
_publ_section_title
;
Structure prediction by ZEFSAII (Michael W. Deem and Ramdas Pophale) SiO2 
 PCOD9544133
Probable space group: P 42/M
;
_chemical_formula_sum "Si O2"
_cell_formula_units_Z 26
_cell_length_a 9.997375
_cell_length_b 9.997375
_cell_length_c 13.168508
_cell_angle_alpha 90.000000
_cell_angle_beta 90.000000
_cell_angle_gamma 90.000000
_cell_volume 1316.159544
_symmetry_space_group_name_H-M "P 42/M"
_symmetry_group_IT_number 84
_symmetry_cell_setting 'tetragonal'
loop_
_space_group_symop_operation_xyz
x,y,z
-y,x,1/2+z
-x,-y,z
y,-x,1/2+z
-x,-y,-z
y,-x,1/2-z
x,y,-z
-y,x,1/2-z
loop_
_atom_site_type_symbol
_atom_site_label
_atom_site_fract_x
_atom_site_fract_y
_atom_site_fract_z
Si Si1 0.554823 0.279191 0.384932
Si Si2 0.353432 0.952494 0.238835
Si Si3 0.183465 0.748257 0.117124
Si Si4 0.500000 0.500000 0.750000
O O1 0.599507 0.287078 0.500000
O O2 0.614496 0.153043 0.328165
O O3 0.392993 0.264246 0.383328
O O4 0.590868 0.410748 0.322407
O O5 0.272360 0.873150 0.153071
O O6 0.500000 0.000000 0.202163
O O7 0.274436 0.070578 0.296581
O O8 0.134827 0.764634 0.000000
#
# Coordination Sequence:
#
# PCOD9544133 Si02
#       4
#     8   8   8   2
#     4  10  20  35  58  86 117 151 189 239 295 347
#     4  10  21  39  60  85 117 152 192 241 286 343
#     4  10  21  39  61  83 114 156 196 237 287 341
#     4  12  18  32  56  94 116 144 190 240 300 354
#
# _framework density 19.754443999999999
#
# number of rings (size 3 to 8) (size 9 to 14) (size 15 to 20)
#    0.000    1.846    3.077    1.385    0.000    4.923 
#    0.000    4.615    0.000    0.000    0.000    0.000 
#    0.000    0.000    0.000    0.000    0.000    0.000 
#
# Total GULP energy -145046.706301 kJ/mol
# GULP energy per Si atom -5578.719473 kJ/mol
# Density = 1.970948 g / cm^3
# Si number density = 19.754444 Si / 1000 Ang^3
#
#
#
# Elastic Constant Matrix: (Units=GPa)
#
#
# Indices 1 2 3 4 5 6 
#
# 1 45.2993 19.3876 5.0720 0.0000 0.0000 -4.6255
# 2 19.3876 45.2993 5.0720 0.0000 0.0000 4.6255
# 3 5.0720 5.0720 46.1159 0.0000 0.0000 0.0000
# 4 0.0000 0.0000 0.0000 15.7535 0.0000 0.0000
# 5 0.0000 0.0000 0.0000 0.0000 15.7535 0.0000
# 6 -4.6255 4.6255 0.0000 0.0000 0.0000 24.2369
#
#
#
# Elastic Compliance Matrix: (Units=1/GPa)
#
#
# Indices 1 2 3 4 5 6 
#
# 1 0.028572 -0.012842 -0.001730 0.000000 0.000000 0.007904
# 2 -0.012842 0.028572 -0.001730 0.000000 0.000000 -0.007904
# 3 -0.001730 -0.001730 0.022065 0.000000 0.000000 0.000000
# 4 0.000000 0.000000 0.000000 0.063478 0.000000 0.000000
# 5 0.000000 0.000000 0.000000 0.000000 0.063478 0.000000
# 6 0.007904 -0.007904 0.000000 0.000000 0.000000 0.044276
#
#
# Mechanical properties :
#
#
# Convention : Reuss Voigt Hill
#
# Bulk Modulus (GPa) = 21.45672 21.75310 21.60491
# Shear Modulus (GPa) = 16.74586 18.29431 17.52008
#
# Velocity S-wave (km/s) = 2.91469 3.04647 2.98131
# Velocity P-wave (km/s) = 4.71302 4.83842 4.77613
#
# Compressibility (1/GPa) = 0.04660544
#
# Stress axis : x y z
#
# Youngs Moduli (GPa) = 34.99883 34.99883 45.32053
#
# Poissons Ratio (x) = 0.44946 0.07841
# Poissons Ratio (y) = 0.44946 0.07841
# Poissons Ratio (z) = 0.06055 0.06055
#
# Static dielectric constant tensor:
#      x y z
#    x 1.722870 0.000000 0.000000 
#    y 0.000000 1.722870 0.000000 
#    z 0.000000 0.000000 1.661260 
# 
# From -- ./inp_files/442.got.cif
#   From: 2010.05.17/outbox.cif.g08.bks.cpg/sg84_1_cif.got.tgz:442.got - 2010.06.03 18:57:40.
