data_PCOD9544493
_publ_section_title
;
Structure prediction by ZEFSAII (Michael W. Deem and Ramdas Pophale) SiO2 
 PCOD9544493
Probable space group: P 4/N
;
_chemical_formula_sum "Si O2"
_cell_formula_units_Z 34
_cell_length_a 14.342574
_cell_length_b 14.342574
_cell_length_c 9.221416
_cell_angle_alpha 90.000000
_cell_angle_beta 90.000000
_cell_angle_gamma 90.000000
_cell_volume 1896.932219
_symmetry_space_group_name_H-M "P 4/N"
_symmetry_group_IT_number 85
_symmetry_cell_setting 'tetragonal'
loop_
_space_group_symop_operation_xyz
x,y,z
1/2-y,x,z
1/2-x,1/2-y,z
y,1/2-x,z
-x,-y,-z
1/2+y,-x,-z
1/2+x,1/2+y,-z
-y,1/2+x,-z
loop_
_atom_site_type_symbol
_atom_site_label
_atom_site_fract_x
_atom_site_fract_y
_atom_site_fract_z
Si Si1 0.750000 0.250000 0.000000
Si Si2 0.864984 0.498427 0.908472
Si Si3 0.083584 0.659013 0.872386
Si Si4 0.866395 0.853458 0.163031
Si Si5 0.009245 0.985016 0.330244
O O1 0.808573 0.314172 0.107340
O O2 0.756269 0.470262 0.894190
O O3 0.917269 0.502828 0.756231
O O4 0.920854 0.419677 0.001439
O O5 0.870773 0.593476 0.000918
O O6 0.057540 0.607480 0.724828
O O7 0.757991 0.877311 0.183547
O O8 0.930404 0.914480 0.269570
O O9 0.000000 0.000000 0.500000
#
# Coordination Sequence:
#
# PCOD9544493 Si02
#       5
#     2   8   8   8   8
#     4   8  16  32  60  82 100 132 184 238 264 296
#     4  10  18  35  57  80 104 137 181 229 266 308
#     4   9  18  34  57  81 104 136 182 226 267 308
#     4  10  20  36  59  81 102 136 183 228 265 308
#     4  11  23  35  52  80 116 148 172 210 266 328
#
# _framework density 17.923676
#
# number of rings (size 3 to 8) (size 9 to 14) (size 15 to 20)
#    0.000    2.118    0.000    5.647    0.000    3.765 
#    0.000    0.000    0.000    4.235    0.000    0.000 
#    0.000    0.000    0.000    0.000    0.000    0.000 
#
# Total GULP energy -189459.083492 kJ/mol
# GULP energy per Si atom -5572.325985 kJ/mol
# Density = 1.788288 g / cm^3
# Si number density = 17.923676 Si / 1000 Ang^3
#
#
#
# Elastic Constant Matrix: (Units=GPa)
#
#
# Indices 1 2 3 4 5 6 
#
# 1 105.9030 47.7508 50.0582 0.0000 0.0000 -2.9352
# 2 47.7508 105.9030 50.0582 0.0000 0.0000 2.9352
# 3 50.0582 50.0582 155.6639 0.0000 0.0000 0.0000
# 4 0.0000 0.0000 0.0000 13.4244 0.0000 0.0000
# 5 0.0000 0.0000 0.0000 0.0000 13.4244 0.0000
# 6 -2.9352 2.9352 0.0000 0.0000 0.0000 29.7319
#
#
#
# Elastic Compliance Matrix: (Units=1/GPa)
#
#
# Indices 1 2 3 4 5 6 
#
# 1 0.012801 -0.004568 -0.002648 0.000000 0.000000 0.001715
# 2 -0.004568 0.012801 -0.002648 0.000000 0.000000 -0.001715
# 3 -0.002648 -0.002648 0.008127 0.000000 0.000000 0.000000
# 4 0.000000 0.000000 0.000000 0.074491 0.000000 0.000000
# 5 0.000000 0.000000 0.000000 0.000000 0.074491 0.000000
# 6 0.001715 -0.001715 0.000000 0.000000 0.000000 0.033972
#
#
# Mechanical properties :
#
#
# Convention : Reuss Voigt Hill
#
# Bulk Modulus (GPa) = 71.41373 73.68935 72.55154
# Shear Modulus (GPa) = 20.74006 25.95631 23.34819
#
# Velocity S-wave (km/s) = 3.40536 3.80960 3.61313
# Velocity P-wave (km/s) = 7.44256 7.78157 7.61395
#
# Compressibility (1/GPa) = 0.01400291
#
# Stress axis : x y z
#
# Youngs Moduli (GPa) = 78.11705 78.11705 123.04745
#
# Poissons Ratio (x) = 0.35684 0.32579
# Poissons Ratio (y) = 0.35684 0.32579
# Poissons Ratio (z) = 0.20683 0.20683
#
# Static dielectric constant tensor:
#      x y z
#    x 1.660370 0.000000 0.000000 
#    y 0.000000 1.660370 0.000000 
#    z 0.000000 0.000000 1.575270 
# 
# From -- ./inp_files/817.got.cif
#   From: 2010.05.17/outbox.cif.g08.bks.cpg/sg85_cif.got.tgz:817.got - 2010.06.03 19:01:16.
