data_PCOD9544279
_publ_section_title
;
Structure prediction by ZEFSAII (Michael W. Deem and Ramdas Pophale) SiO2 
 PCOD9544279
Probable space group: P 42/M
;
_chemical_formula_sum "Si O2"
_cell_formula_units_Z 18
_cell_length_a 5.208102
_cell_length_b 5.208102
_cell_length_c 26.754529
_cell_angle_alpha 90.000000
_cell_angle_beta 90.000000
_cell_angle_gamma 90.000000
_cell_volume 725.698578
_symmetry_space_group_name_H-M "P 42/M"
_symmetry_group_IT_number 84
_symmetry_cell_setting 'tetragonal'
loop_
_space_group_symop_operation_xyz
x,y,z
-y,x,1/2+z
-x,-y,z
y,-x,1/2+z
-x,-y,-z
y,-x,1/2-z
x,y,-z
-y,x,1/2-z
loop_
_atom_site_type_symbol
_atom_site_label
_atom_site_fract_x
_atom_site_fract_y
_atom_site_fract_z
Si Si1 0.822029 0.251444 0.000000
Si Si2 0.000000 0.000000 0.250000
Si Si3 0.000000 0.500000 0.816432
Si Si4 0.166672 0.265983 0.390236
O O1 0.675292 0.244701 0.052508
O O2 0.000000 0.500000 0.000000
O O3 0.000000 0.000000 0.000000
O O4 0.747811 0.058717 0.282825
O O5 0.781637 0.406219 0.854559
O O6 0.000000 0.500000 0.370883
O O7 0.000000 0.000000 0.390367
#
# Coordination Sequence:
#
# PCOD9544279 Si02
#       4
#     4   2   4   8
#     4  10  21  44  70 115 157 201 248 308 380 469
#     4  12  32  48  80 102 152 196 268 336 396 462
#     4  12  28  55  74 114 146 205 262 332 402 464
#     4  11  25  47  78 113 155 202 253 316 388 475
#
# _framework density 24.803688000000001
#
# number of rings (size 3 to 8) (size 9 to 14) (size 15 to 20)
#    0.000    0.889    4.444    0.667    3.111    6.222 
#    0.000    4.444    0.000    0.000    0.000    0.000 
#    0.000    0.000    0.000    0.000    0.000    0.000 
#
# Total GULP energy -100901.176905 kJ/mol
# GULP energy per Si atom -5605.620939 kJ/mol
# Density = 2.474723 g / cm^3
# Si number density = 24.803688 Si / 1000 Ang^3
#
#
#
# Elastic Constant Matrix: (Units=GPa)
#
#
# Indices 1 2 3 4 5 6 
#
# 1 171.3709 66.1189 63.5576 0.0000 0.0000 -0.6646
# 2 66.1189 171.3709 63.5576 0.0000 0.0000 0.6646
# 3 63.5576 63.5576 192.2403 0.0000 0.0000 0.0000
# 4 0.0000 0.0000 0.0000 -517.0999 0.0000 0.0000
# 5 0.0000 0.0000 0.0000 0.0000 -517.0999 0.0000
# 6 -0.6646 0.6646 0.0000 0.0000 0.0000 62.4915
#
#
#
# Elastic Compliance Matrix: (Units=1/GPa)
#
#
# Indices 1 2 3 4 5 6 
#
# 1 0.007309 -0.002193 -0.001691 0.000000 0.000000 0.000101
# 2 -0.002193 0.007309 -0.001691 0.000000 0.000000 -0.000101
# 3 -0.001691 -0.001691 0.006320 0.000000 0.000000 0.000000
# 4 0.000000 0.000000 0.000000 -0.001934 0.000000 0.000000
# 5 0.000000 0.000000 0.000000 0.000000 -0.001934 0.000000
# 6 0.000101 -0.000101 0.000000 0.000000 0.000000 0.016004
#
#
# Mechanical properties :
#
#
# Convention : Reuss Voigt Hill
#
# Bulk Modulus (GPa) = 102.18085 102.38339 102.28212
# Shear Modulus (GPa) = 105.28669 -171.55845 -33.13588
#
# Velocity S-wave (km/s) = 6.52228 -8.32566 -3.65900
# Velocity P-wave (km/s) = 9.89977 7.14529 4.84512
#
# Compressibility (1/GPa) = 0.00978657
#
# Stress axis : x y z
#
# Youngs Moduli (GPa) = 136.81459 136.81459 158.22139
#
# Poissons Ratio (x) = 0.30005 0.26762
# Poissons Ratio (y) = 0.30005 0.26762
# Poissons Ratio (z) = 0.23141 0.23141
#
# Static dielectric constant tensor:
#      x y z
#    x 2.006600 0.000000 0.000000 
#    y 0.000000 2.006600 0.000000 
#    z 0.000000 0.000000 1.997910 
# 
# From -- ./inp_files/5135.got.cif
#   From: 2010.05.17/outbox.cif.g08.bks.cpg/sg84_3_cif.got.tgz:5135.got - 2010.06.03 18:57:40.
