data_PCOD9544444
_publ_section_title
;
Structure prediction by ZEFSAII (Michael W. Deem and Ramdas Pophale) SiO2 
 PCOD9544444
Probable space group: P 42/M
;
_chemical_formula_sum "Si O2"
_cell_formula_units_Z 22
_cell_length_a 5.101185
_cell_length_b 5.101185
_cell_length_c 34.297060
_cell_angle_alpha 90.000000
_cell_angle_beta 90.000000
_cell_angle_gamma 90.000000
_cell_volume 892.481127
_symmetry_space_group_name_H-M "P 42/M"
_symmetry_group_IT_number 84
_symmetry_cell_setting 'tetragonal'
loop_
_space_group_symop_operation_xyz
x,y,z
-y,x,1/2+z
-x,-y,z
y,-x,1/2+z
-x,-y,-z
y,-x,1/2-z
x,y,-z
-y,x,1/2-z
loop_
_atom_site_type_symbol
_atom_site_label
_atom_site_fract_x
_atom_site_fract_y
_atom_site_fract_z
Si Si1 0.000000 0.000000 0.750000
Si Si2 0.000000 0.500000 0.617758
Si Si3 0.746369 0.818335 0.500000
Si Si4 0.315805 0.248686 0.316567
Si Si5 0.500000 0.500000 0.568972
O O1 0.142611 0.203714 0.721699
O O2 0.128681 0.287416 0.646322
O O3 0.261122 0.613874 0.595440
O O4 0.692627 0.655658 0.539130
O O5 0.500000 0.000000 0.500000
O O6 0.000000 0.000000 0.500000
O O7 0.500000 0.500000 0.312757
O O8 0.500000 0.000000 0.321597
#
# Coordination Sequence:
#
# PCOD9544444 Si02
#       5
#     2   4   4   8   4
#     4  12  32  48  88 116 168 218 292 340 428 508
#     4  12  26  55  78 122 166 220 272 352 422 499
#     4  11  24  49  80 122 161 223 271 331 416 493
#     4  12  30  55  83 120 168 222 281 352 427 498
#     4  11  26  50  82 117 174 212 276 343 408 506
#
# _framework density 24.650380999999999
#
# number of rings (size 3 to 8) (size 9 to 14) (size 15 to 20)
#    0.000    0.364    1.818    4.364    7.636    4.364 
#   16.364    0.000    0.000    0.000    0.000    0.000 
#    0.000    0.000    0.000    0.000    0.000    0.000 
#
# Total GULP energy -123037.715622 kJ/mol
# GULP energy per Si atom -5592.623437 kJ/mol
# Density = 2.459428 g / cm^3
# Si number density = 24.650381 Si / 1000 Ang^3
#
#
#
# Elastic Constant Matrix: (Units=GPa)
#
#
# Indices 1 2 3 4 5 6 
#
# 1 185.1110 81.1579 74.6482 0.0000 0.0000 5.1856
# 2 81.1579 185.1110 74.6482 0.0000 0.0000 -5.1856
# 3 74.6482 74.6482 155.1544 0.0000 0.0000 0.0000
# 4 0.0000 0.0000 0.0000 164.8697 0.0000 0.0000
# 5 0.0000 0.0000 0.0000 0.0000 164.8697 0.0000
# 6 5.1856 -5.1856 0.0000 0.0000 0.0000 68.1340
#
#
#
# Elastic Compliance Matrix: (Units=1/GPa)
#
#
# Indices 1 2 3 4 5 6 
#
# 1 0.007418 -0.002275 -0.002474 0.000000 0.000000 -0.000738
# 2 -0.002275 0.007418 -0.002474 0.000000 0.000000 0.000738
# 3 -0.002474 -0.002474 0.008826 0.000000 0.000000 0.000000
# 4 0.000000 0.000000 0.000000 0.006065 0.000000 0.000000
# 5 0.000000 0.000000 0.000000 0.000000 0.006065 0.000000
# 6 -0.000738 0.000738 0.000000 0.000000 0.000000 0.014789
#
#
# Mechanical properties :
#
#
# Convention : Reuss Voigt Hill
#
# Bulk Modulus (GPa) = 108.52419 109.58723 109.05571
# Shear Modulus (GPa) = 73.41926 99.23616 86.32771
#
# Velocity S-wave (km/s) = 5.46341 6.35176 5.92426
# Velocity P-wave (km/s) = 9.16076 9.91697 9.54635
#
# Compressibility (1/GPa) = 0.00921454
#
# Stress axis : x y z
#
# Youngs Moduli (GPa) = 134.80428 134.80428 113.29938
#
# Poissons Ratio (x) = 0.30670 0.28035
# Poissons Ratio (y) = 0.30670 0.28035
# Poissons Ratio (z) = 0.33356 0.33356
#
# Static dielectric constant tensor:
#      x y z
#    x 1.918960 0.000000 0.000000 
#    y 0.000000 1.918960 0.000000 
#    z 0.000000 0.000000 1.577130 
# 
# From -- ./inp_files/5585.got.cif
#   From: 2010.05.17/outbox.cif.g08.bks.cpg/sg84_3_cif.got.tgz:5585.got - 2010.06.03 18:57:40.
