data_PCOD9544433
_publ_section_title
;
Structure prediction by ZEFSAII (Michael W. Deem and Ramdas Pophale) SiO2 
 PCOD9544433
Probable space group: P 42/M
;
_chemical_formula_sum "Si O2"
_cell_formula_units_Z 44
_cell_length_a 8.458711
_cell_length_b 8.458711
_cell_length_c 31.511803
_cell_angle_alpha 90.000000
_cell_angle_beta 90.000000
_cell_angle_gamma 90.000000
_cell_volume 2254.662943
_symmetry_space_group_name_H-M "P 42/M"
_symmetry_group_IT_number 84
_symmetry_cell_setting 'tetragonal'
loop_
_space_group_symop_operation_xyz
x,y,z
-y,x,1/2+z
-x,-y,z
y,-x,1/2+z
-x,-y,-z
y,-x,1/2-z
x,y,-z
-y,x,1/2-z
loop_
_atom_site_type_symbol
_atom_site_label
_atom_site_fract_x
_atom_site_fract_y
_atom_site_fract_z
Si Si1 0.719198 0.653177 0.854981
Si Si2 0.166368 0.550125 0.285249
Si Si3 0.666969 0.774393 0.305419
Si Si4 0.160261 0.610323 0.951180
Si Si5 0.038183 0.818526 0.122196
Si Si6 0.500000 0.500000 0.583588
O O1 0.683160 0.756769 0.813947
O O2 0.755079 0.478869 0.837536
O O3 0.565522 0.638688 0.885132
O O4 0.873903 0.722098 0.876620
O O5 0.277089 0.396594 0.288966
O O6 0.142161 0.609573 0.237472
O O7 0.000000 0.500000 0.304095
O O8 0.792694 0.871216 0.333047
O O9 0.138240 0.746284 0.916325
O O10 0.336586 0.538127 0.941579
O O11 0.000000 0.500000 0.947105
O O12 0.160303 0.664014 0.000000
O O13 0.000000 0.000000 0.115725
#
# Coordination Sequence:
#
# PCOD9544433 Si02
#       6
#     8   8   8   8   8   4
#     4  12  22  40  68  93 130 177 228 273 329 398
#     4  12  24  38  58  92 128 170 228 280 332 386
#     4  12  23  41  61  90 126 176 227 278 324 402
#     4  11  23  43  73 105 135 175 229 284 345 422
#     4  12  25  45  67  97 140 181 219 283 356 407
#     4  12  21  40  73 102 132 168 228 283 337 404
#
# _framework density 19.515114000000001
#
# number of rings (size 3 to 8) (size 9 to 14) (size 15 to 20)
#    0.000    0.182    7.273    3.000    0.000    0.364 
#    0.000    0.000    0.000    1.091    0.000    0.000 
#    0.000    0.000    0.000    0.000    0.000    0.000 
#
# Total GULP energy -245633.876573 kJ/mol
# GULP energy per Si atom -5582.588104 kJ/mol
# Density = 1.947070 g / cm^3
# Si number density = 19.515114 Si / 1000 Ang^3
#
#
#
# Elastic Constant Matrix: (Units=GPa)
#
#
# Indices 1 2 3 4 5 6 
#
# 1 83.8316 12.4926 44.0657 0.0000 0.0000 8.0375
# 2 12.4926 83.8316 44.0657 0.0000 0.0000 -8.0375
# 3 44.0657 44.0657 119.8316 0.0000 0.0000 0.0000
# 4 0.0000 0.0000 0.0000 18.4507 0.0000 0.0000
# 5 0.0000 0.0000 0.0000 0.0000 18.4507 0.0000
# 6 8.0375 -8.0375 0.0000 0.0000 0.0000 29.1982
#
#
#
# Elastic Compliance Matrix: (Units=1/GPa)
#
#
# Indices 1 2 3 4 5 6 
#
# 1 0.015295 0.000351 -0.005753 0.000000 0.000000 -0.004114
# 2 0.000351 0.015295 -0.005753 0.000000 0.000000 0.004114
# 3 -0.005753 -0.005753 0.012576 0.000000 0.000000 0.000000
# 4 0.000000 0.000000 0.000000 0.054199 0.000000 0.000000
# 5 0.000000 0.000000 0.000000 0.000000 0.054199 0.000000
# 6 -0.004114 0.004114 0.000000 0.000000 0.000000 0.036514
#
#
# Mechanical properties :
#
#
# Convention : Reuss Voigt Hill
#
# Bulk Modulus (GPa) = 47.95195 54.30475 51.12835
# Shear Modulus (GPa) = 23.00531 25.67796 24.34163
#
# Velocity S-wave (km/s) = 3.43716 3.63133 3.53558
# Velocity P-wave (km/s) = 6.35430 6.74311 6.55159
#
# Compressibility (1/GPa) = 0.02085421
#
# Stress axis : x y z
#
# Youngs Moduli (GPa) = 65.38038 65.38038 79.51376
#
# Poissons Ratio (x) = -0.02292 0.45747
# Poissons Ratio (y) = -0.02292 0.45747
# Poissons Ratio (z) = 0.37616 0.37616
#
# Static dielectric constant tensor:
#      x y z
#    x 1.690640 0.000000 0.000000 
#    y 0.000000 1.690640 0.000000 
#    z 0.000000 0.000000 1.698440 
# 
# From -- ./inp_files/5673.got.cif
#   From: 2010.05.17/outbox.cif.g08.bks.cpg/sg84_3_cif.got.tgz:5673.got - 2010.06.03 18:57:40.
