data_PCOD9544251
_publ_section_title
;
Structure prediction by ZEFSAII (Michael W. Deem and Ramdas Pophale) SiO2 
 PCOD9544251
Probable space group: P 42/M
;
_chemical_formula_sum "Si O2"
_cell_formula_units_Z 40
_cell_length_a 15.636836
_cell_length_b 15.636836
_cell_length_c 8.703971
_cell_angle_alpha 90.000000
_cell_angle_beta 90.000000
_cell_angle_gamma 90.000000
_cell_volume 2128.213521
_symmetry_space_group_name_H-M "P 42/M"
_symmetry_group_IT_number 84
_symmetry_cell_setting 'tetragonal'
loop_
_space_group_symop_operation_xyz
x,y,z
-y,x,1/2+z
-x,-y,z
y,-x,1/2+z
-x,-y,-z
y,-x,1/2-z
x,y,-z
-y,x,1/2-z
loop_
_atom_site_type_symbol
_atom_site_label
_atom_site_fract_x
_atom_site_fract_y
_atom_site_fract_z
Si Si1 0.238023 0.772139 0.320246
Si Si2 0.411042 0.826130 0.175039
Si Si3 0.099338 0.907341 0.814396
Si Si4 0.988484 0.601893 0.166737
Si Si5 0.400443 0.180813 0.680100
O O1 0.220967 0.779473 0.500000
O O2 0.336665 0.789249 0.279626
O O3 0.172663 0.839313 0.237388
O O4 0.228752 0.674736 0.264493
O O5 0.186685 0.506383 0.258347
O O6 0.388002 0.926640 0.191207
O O7 0.406041 0.797198 0.000000
O O8 0.004005 0.883270 0.750228
O O9 0.096157 0.909975 0.000000
O O10 0.083253 0.633832 0.187767
O O11 0.000000 0.500000 0.152552
O O12 0.954202 0.632425 0.000000
O O13 0.408662 0.202818 0.500000
#
# Coordination Sequence:
#
# PCOD9544251 Si02
#       5
#     8   8   8   8   8
#     4  12  25  40  61  89 120 160 206 251 300 355
#     4  11  22  37  58  86 119 154 197 245 299 359
#     4  11  23  42  63  87 121 163 207 253 299 354
#     4   8  16  32  54  79 111 148 185 231 293 350
#     4  10  21  39  60  85 118 153 195 247 304 358
#
# _framework density 18.795105
#
# number of rings (size 3 to 8) (size 9 to 14) (size 15 to 20)
#    0.000    1.600    0.000    7.800    2.800    4.400 
#    0.000    0.000    0.000    0.600    0.000    4.200 
#    0.000    0.000    0.000    0.000    0.000    0.000 
#
# Total GULP energy -222904.944644 kJ/mol
# GULP energy per Si atom -5572.623616 kJ/mol
# Density = 1.875233 g / cm^3
# Si number density = 18.795105 Si / 1000 Ang^3
#
#
#
# Elastic Constant Matrix: (Units=GPa)
#
#
# Indices 1 2 3 4 5 6 
#
# 1 66.9609 30.0831 8.7701 0.0000 0.0000 -1.8384
# 2 30.0831 66.9609 8.7701 0.0000 0.0000 1.8384
# 3 8.7701 8.7701 69.3497 0.0000 0.0000 0.0000
# 4 0.0000 0.0000 0.0000 36.3984 0.0000 0.0000
# 5 0.0000 0.0000 0.0000 0.0000 36.3984 0.0000
# 6 -1.8384 1.8384 0.0000 0.0000 0.0000 24.1866
#
#
#
# Elastic Compliance Matrix: (Units=1/GPa)
#
#
# Indices 1 2 3 4 5 6 
#
# 1 0.018935 -0.008389 -0.001334 0.000000 0.000000 0.002077
# 2 -0.008389 0.018935 -0.001334 0.000000 0.000000 -0.002077
# 3 -0.001334 -0.001334 0.014757 0.000000 0.000000 0.000000
# 4 0.000000 0.000000 0.000000 0.027474 0.000000 0.000000
# 5 0.000000 0.000000 0.000000 0.000000 0.027474 0.000000
# 6 0.002077 -0.002077 0.000000 0.000000 0.000000 0.041661
#
#
# Mechanical properties :
#
#
# Convention : Reuss Voigt Hill
#
# Bulk Modulus (GPa) = 32.77210 33.16871 32.97041
# Shear Modulus (GPa) = 27.54542 29.77324 28.65933
#
# Velocity S-wave (km/s) = 3.83242 3.98439 3.90914
# Velocity P-wave (km/s) = 6.08750 6.23321 6.16079
#
# Compressibility (1/GPa) = 0.03051376
#
# Stress axis : x y z
#
# Youngs Moduli (GPa) = 52.81325 52.81325 67.76457
#
# Poissons Ratio (x) = 0.44305 0.09037
# Poissons Ratio (y) = 0.44305 0.09037
# Poissons Ratio (z) = 0.07043 0.07043
#
# Static dielectric constant tensor:
#      x y z
#    x 1.744380 0.000000 0.000000 
#    y 0.000000 1.744380 0.000000 
#    z 0.000000 0.000000 1.660760 
# 
# From -- ./inp_files/906.got.cif
#   From: 2010.05.17/outbox.cif.g08.bks.cpg/sg84_1_cif.got.tgz:906.got - 2010.06.03 18:57:40.
