data_PCOD9544368
_publ_section_title
;
Structure prediction by ZEFSAII (Michael W. Deem and Ramdas Pophale) SiO2 
 PCOD9544368
Probable space group: P 42/M
;
_chemical_formula_sum "Si O2"
_cell_formula_units_Z 20
_cell_length_a 5.034548
_cell_length_b 5.034548
_cell_length_c 33.056186
_cell_angle_alpha 90.000000
_cell_angle_beta 90.000000
_cell_angle_gamma 90.000000
_cell_volume 837.864356
_symmetry_space_group_name_H-M "P 42/M"
_symmetry_group_IT_number 84
_symmetry_cell_setting 'tetragonal'
loop_
_space_group_symop_operation_xyz
x,y,z
-y,x,1/2+z
-x,-y,z
y,-x,1/2+z
-x,-y,-z
y,-x,1/2-z
x,y,-z
-y,x,1/2-z
loop_
_atom_site_type_symbol
_atom_site_label
_atom_site_fract_x
_atom_site_fract_y
_atom_site_fract_z
Si Si1 0.500000 0.000000 0.803225
Si Si2 0.500000 0.500000 0.938326
Si Si3 0.500000 0.500000 0.250000
Si Si4 0.767442 0.174577 0.375757
Si Si5 0.000000 0.500000 0.000000
O O1 0.405524 0.752220 0.776337
O O2 0.717113 0.870193 0.832970
O O3 0.585133 0.722121 0.906421
O O4 0.763498 0.459152 0.965255
O O5 0.500000 0.000000 0.371214
O O6 0.000000 0.000000 0.394000
#
# Coordination Sequence:
#
# PCOD9544368 Si02
#       5
#     4   4   2   8   2
#     4  12  30  50  79 119 158 212 264 333 405 484
#     4  11  23  50  77 123 160 212 270 331 413 472
#     4  12  30  52  82 120 168 202 264 344 414 472
#     4  12  26  50  86 116 156 217 270 329 391 500
#     4  10  24  46  80 116 174 204 262 348 408 476
#
# _framework density 23.870215000000002
#
# number of rings (size 3 to 8) (size 9 to 14) (size 15 to 20)
#    0.000    0.400    2.000    6.000    8.400    0.000 
#    0.000    6.000    0.000    0.000    0.000    0.000 
#    0.000    0.000    0.000    0.000    0.000    0.000 
#
# Total GULP energy -111360.235249 kJ/mol
# GULP energy per Si atom -5568.011762 kJ/mol
# Density = 2.381589 g / cm^3
# Si number density = 23.870215 Si / 1000 Ang^3
#
#
#
# Elastic Constant Matrix: (Units=GPa)
#
#
# Indices 1 2 3 4 5 6 
#
# 1 197.6286 73.0689 72.4397 0.0000 0.0000 8.7283
# 2 73.0689 197.6286 72.4397 0.0000 0.0000 -8.7283
# 3 72.4397 72.4397 159.0900 0.0000 0.0000 0.0000
# 4 0.0000 0.0000 0.0000 90.4616 0.0000 0.0000
# 5 0.0000 0.0000 0.0000 0.0000 90.4616 0.0000
# 6 8.7283 -8.7283 0.0000 0.0000 0.0000 58.5826
#
#
#
# Elastic Compliance Matrix: (Units=1/GPa)
#
#
# Indices 1 2 3 4 5 6 
#
# 1 0.006542 -0.001657 -0.002224 0.000000 0.000000 -0.001222
# 2 -0.001657 0.006542 -0.002224 0.000000 0.000000 0.001222
# 3 -0.002224 -0.002224 0.008311 0.000000 0.000000 0.000000
# 4 0.000000 0.000000 0.000000 0.011054 0.000000 0.000000
# 5 0.000000 0.000000 0.000000 0.000000 0.011054 0.000000
# 6 -0.001222 0.001222 0.000000 0.000000 0.000000 0.017434
#
#
# Mechanical properties :
#
#
# Convention : Reuss Voigt Hill
#
# Bulk Modulus (GPa) = 108.88734 110.02707 109.45721
# Shear Modulus (GPa) = 65.60764 70.32775 67.96770
#
# Velocity S-wave (km/s) = 5.24832 5.43383 5.34188
# Velocity P-wave (km/s) = 9.07975 9.25001 9.16527
#
# Compressibility (1/GPa) = 0.00918380
#
# Stress axis : x y z
#
# Youngs Moduli (GPa) = 152.85842 152.85842 120.31979
#
# Poissons Ratio (x) = 0.25336 0.26760
# Poissons Ratio (y) = 0.25336 0.26760
# Poissons Ratio (z) = 0.33997 0.33997
#
# Static dielectric constant tensor:
#      x y z
#    x 1.923840 0.000000 0.000000 
#    y 0.000000 1.923840 0.000000 
#    z 0.000000 0.000000 1.916290 
# 
# From -- ./inp_files/5573.got.cif
#   From: 2010.05.17/outbox.cif.g08.bks.cpg/sg84_3_cif.got.tgz:5573.got - 2010.06.03 18:57:40.
