data_PCOD9544812
_publ_section_title
;
Structure prediction by ZEFSAII (Michael W. Deem and Ramdas Pophale) SiO2 
 PCOD9544812
Probable space group: P 4/N
;
_chemical_formula_sum "Si O2"
_cell_formula_units_Z 38
_cell_length_a 8.403849
_cell_length_b 8.403849
_cell_length_c 24.480335
_cell_angle_alpha 90.000000
_cell_angle_beta 90.000000
_cell_angle_gamma 90.000000
_cell_volume 1728.915777
_symmetry_space_group_name_H-M "P 4/N"
_symmetry_group_IT_number 85
_symmetry_cell_setting 'tetragonal'
loop_
_space_group_symop_operation_xyz
x,y,z
1/2-y,x,z
1/2-x,1/2-y,z
y,1/2-x,z
-x,-y,-z
1/2+y,-x,-z
1/2+x,1/2+y,-z
-y,1/2+x,-z
loop_
_atom_site_type_symbol
_atom_site_label
_atom_site_fract_x
_atom_site_fract_y
_atom_site_fract_z
Si Si1 0.585571 0.158707 0.687563
Si Si2 0.750000 0.750000 0.335396
Si Si3 0.500390 0.350099 0.081716
Si Si4 0.750000 0.250000 0.500000
Si Si5 0.005859 0.157134 0.422828
Si Si6 0.250000 0.750000 0.000000
Si Si7 0.984833 0.880355 0.795798
O O1 0.750000 0.250000 0.694850
O O2 0.443869 0.271438 0.667218
O O3 0.626782 0.033802 0.640135
O O4 0.549567 0.087661 0.747074
O O5 0.335861 0.447720 0.076267
O O6 0.554235 0.394894 0.143149
O O7 0.641597 0.363289 0.038313
O O8 0.649545 0.365636 0.460063
O O9 0.160167 0.052800 0.434312
O O10 0.809617 0.956953 0.790751
#
# Coordination Sequence:
#
# PCOD9544812 Si02
#       7
#     8   2   8   2   8   2   8
#     4  12  24  43  68 100 140 179 219 281 358 415
#     4  12  28  44  72 116 144 184 232 296 340 434
#     4   9  20  37  57  83 120 163 215 267 330 400
#     4  12  24  44  66 100 132 184 236 306 348 404
#     4  11  24  44  67  98 133 180 236 287 353 429
#     4  12  20  32  58  88 116 164 224 278 324 388
#     4   9  18  36  63  90 122 170 217 268 338 421
#
# _framework density 21.979091
#
# number of rings (size 3 to 8) (size 9 to 14) (size 15 to 20)
#    0.000    1.474    1.053    6.316    1.474    1.684 
#    0.000    0.000    0.000    0.000    0.000    0.000 
#    0.000    0.000    0.000    0.000    0.000    0.000 
#
# Total GULP energy -211744.402476 kJ/mol
# GULP energy per Si atom -5572.221118 kJ/mol
# Density = 2.192907 g / cm^3
# Si number density = 21.979091 Si / 1000 Ang^3
#
#
#
# Elastic Constant Matrix: (Units=GPa)
#
#
# Indices 1 2 3 4 5 6 
#
# 1 43.1009 -4.3273 17.2947 0.0000 0.0000 10.1628
# 2 -4.3273 43.1009 17.2947 0.0000 0.0000 -10.1628
# 3 17.2947 17.2947 113.3972 0.0000 0.0000 0.0000
# 4 0.0000 0.0000 0.0000 19.0326 0.0000 0.0000
# 5 0.0000 0.0000 0.0000 0.0000 19.0326 0.0000
# 6 10.1628 -10.1628 0.0000 0.0000 0.0000 34.8292
#
#
#
# Elastic Compliance Matrix: (Units=1/GPa)
#
#
# Indices 1 2 3 4 5 6 
#
# 1 0.026975 0.002877 -0.004553 0.000000 0.000000 -0.007032
# 2 0.002877 0.026975 -0.004553 0.000000 0.000000 0.007032
# 3 -0.004553 -0.004553 0.010207 0.000000 0.000000 0.000000
# 4 0.000000 0.000000 0.000000 0.052542 0.000000 0.000000
# 5 0.000000 0.000000 0.000000 0.000000 0.052542 0.000000
# 6 -0.007032 0.007032 0.000000 0.000000 0.000000 0.032815
#
#
# Mechanical properties :
#
#
# Convention : Reuss Voigt Hill
#
# Bulk Modulus (GPa) = 19.34224 28.90256 24.12240
# Shear Modulus (GPa) = 21.57532 25.86799 23.72166
#
# Velocity S-wave (km/s) = 3.13650 3.43437 3.28881
# Velocity P-wave (km/s) = 4.68361 5.37635 5.04189
#
# Compressibility (1/GPa) = 0.05170033
#
# Stress axis : x y z
#
# Youngs Moduli (GPa) = 37.07121 37.07121 97.96893
#
# Poissons Ratio (x) = -0.10666 0.44604
# Poissons Ratio (y) = -0.10666 0.44604
# Poissons Ratio (z) = 0.16878 0.16878
#
# Static dielectric constant tensor:
#      x y z
#    x 1.818720 0.000000 0.000000 
#    y 0.000000 1.818720 0.000000 
#    z 0.000000 0.000000 1.815590 
# 
# From -- ./inp_files/2333.got.cif
#   From: 2010.05.17/outbox.cif.g08.bks.cpg/sg85_cif.got.tgz:2333.got - 2010.06.03 19:01:16.
