data_PCOD9544870
_publ_section_title
;
Structure prediction by ZEFSAII (Michael W. Deem and Ramdas Pophale) SiO2 
 PCOD9544870
Probable space group: P 42/N
;
_chemical_formula_sum "Si O2"
_cell_formula_units_Z 48
_cell_length_a 12.244697
_cell_length_b 12.244697
_cell_length_c 18.720332
_cell_angle_alpha 90.000000
_cell_angle_beta 90.000000
_cell_angle_gamma 90.000000
_cell_volume 2806.788136
_symmetry_space_group_name_H-M "P 42/N"
_symmetry_group_IT_number 86
_space_group.IT_coordinate_system_code '2'
_symmetry_cell_setting 'tetragonal'
loop_
_space_group_symop_operation_xyz
x,y,z
-y,1/2+x,1/2+z
1/2-x,1/2-y,z
1/2+y,-x,1/2+z
-x,-y,-z
y,1/2-x,1/2-z
1/2+x,1/2+y,-z
1/2-y,x,1/2-z
loop_
_atom_site_type_symbol
_atom_site_label
_atom_site_fract_x
_atom_site_fract_y
_atom_site_fract_z
Si Si1 0.597946 0.049785 0.804330
Si Si2 0.856123 0.482757 0.637212
Si Si3 0.891024 0.089030 0.648639
Si Si4 0.675803 0.486236 0.887340
Si Si5 0.378956 0.773658 0.462928
Si Si6 0.789181 0.375082 0.299056
O O1 0.606963 0.035115 0.719049
O O2 0.714462 0.013307 0.838682
O O3 0.566080 0.176407 0.815871
O O4 0.503899 0.977824 0.837715
O O5 0.725279 0.470672 0.638568
O O6 0.890528 0.382558 0.585629
O O7 0.907357 0.598809 0.613814
O O8 0.914409 0.168937 0.582990
O O9 0.886092 0.165581 0.719096
O O10 0.604176 0.388095 0.852660
O O11 0.710676 0.447509 0.965554
O O12 0.250000 0.750000 0.479043
O O13 0.750000 0.250000 0.306946
#
# Coordination Sequence:
#
# PCOD9544870 Si02
#       6
#     8   8   8   8   8   8
#     4  11  20  34  58  85 112 152 188 236 280 340
#     4  11  19  35  59  85 115 149 186 237 287 335
#     4  11  20  35  58  84 113 148 191 231 289 335
#     4  11  22  35  57  87 116 146 191 233 289 336
#     4  10  21  37  58  84 114 154 194 238 275 334
#     4  10  17  34  56  78 107 144 192 228 260 334
#
# _framework density 17.101398
#
# number of rings (size 3 to 8) (size 9 to 14) (size 15 to 20)
#    0.000    1.333    6.667    2.500    0.000    1.333 
#    0.000    1.667    0.000    5.500    0.000    0.000 
#    0.000    0.000    0.000    0.000    0.000    0.000 
#
# Total GULP energy -267605.935475 kJ/mol
# GULP energy per Si atom -5575.123656 kJ/mol
# Density = 1.706247 g / cm^3
# Si number density = 17.101398 Si / 1000 Ang^3
#
#
#
# Elastic Constant Matrix: (Units=GPa)
#
#
# Indices 1 2 3 4 5 6 
#
# 1 75.8475 43.6994 33.0195 0.0000 0.0000 -3.5473
# 2 43.6994 75.8475 33.0195 0.0000 0.0000 3.5473
# 3 33.0195 33.0195 99.7588 0.0000 0.0000 0.0000
# 4 0.0000 0.0000 0.0000 12.6925 0.0000 0.0000
# 5 0.0000 0.0000 0.0000 0.0000 12.6925 0.0000
# 6 -3.5473 3.5473 0.0000 0.0000 0.0000 20.6736
#
#
#
# Elastic Compliance Matrix: (Units=1/GPa)
#
#
# Indices 1 2 3 4 5 6 
#
# 1 0.021283 -0.011047 -0.003388 0.000000 0.000000 0.005547
# 2 -0.011047 0.021283 -0.003388 0.000000 0.000000 -0.005547
# 3 -0.003388 -0.003388 0.012267 0.000000 0.000000 0.000000
# 4 0.000000 0.000000 0.000000 0.078787 0.000000 0.000000
# 5 0.000000 0.000000 0.000000 0.000000 0.078787 0.000000
# 6 0.005547 -0.005547 0.000000 0.000000 0.000000 0.050275
#
#
# Mechanical properties :
#
#
# Convention : Reuss Voigt Hill
#
# Bulk Modulus (GPa) = 52.11756 52.32562 52.22159
# Shear Modulus (GPa) = 16.40826 18.65942 17.53384
#
# Velocity S-wave (km/s) = 3.10089 3.30677 3.20548
# Velocity P-wave (km/s) = 6.58502 6.72632 6.65604
#
# Compressibility (1/GPa) = 0.01918739
#
# Stress axis : x y z
#
# Youngs Moduli (GPa) = 46.98477 46.98477 81.51848
#
# Poissons Ratio (x) = 0.51903 0.27621
# Poissons Ratio (y) = 0.51903 0.27621
# Poissons Ratio (z) = 0.15920 0.15920
#
# Static dielectric constant tensor:
#      x y z
#    x 1.591030 0.000000 0.000000 
#    y 0.000000 1.591030 0.000000 
#    z 0.000000 0.000000 1.594620 
# 
# From -- ./inp_files/3547.got.cif
#   From: 2010.05.17/outbox.cif.g08.bks.cpg/sg86_2_cif.got.tgz:3547.got - 2010.06.03 19:03:11.
