data_PCOD9544707
_publ_section_title
;
Structure prediction by ZEFSAII (Michael W. Deem and Ramdas Pophale) SiO2 
 PCOD9544707
Probable space group: P 4/N
;
_chemical_formula_sum "Si O2"
_cell_formula_units_Z 48
_cell_length_a 14.292033
_cell_length_b 14.292033
_cell_length_c 13.704731
_cell_angle_alpha 90.000000
_cell_angle_beta 90.000000
_cell_angle_gamma 90.000000
_cell_volume 2799.358604
_symmetry_space_group_name_H-M "P 4/N"
_symmetry_group_IT_number 85
_symmetry_cell_setting 'tetragonal'
loop_
_space_group_symop_operation_xyz
x,y,z
1/2-y,x,z
1/2-x,1/2-y,z
y,1/2-x,z
-x,-y,-z
1/2+y,-x,-z
1/2+x,1/2+y,-z
-y,1/2+x,-z
loop_
_atom_site_type_symbol
_atom_site_label
_atom_site_fract_x
_atom_site_fract_y
_atom_site_fract_z
Si Si1 0.105812 0.185735 0.611933
Si Si2 0.993193 0.356340 0.115359
Si Si3 0.506101 0.646756 0.807114
Si Si4 0.506101 0.646755 0.192887
Si Si5 0.185735 0.394188 0.388067
Si Si6 0.643661 0.493192 0.115359
O O1 0.204439 0.131260 0.624911
O O2 0.033308 0.154189 0.693577
O O3 0.075227 0.171917 0.500000
O O4 0.088994 0.410582 0.140854
O O5 0.998337 0.249796 0.148867
O O6 0.912406 0.413019 0.171847
O O7 0.975652 0.363046 1.000000
O O8 0.533309 0.654188 0.693578
O O9 0.413018 0.587595 0.828153
O O10 0.589419 0.588994 0.140855
O O11 0.498336 0.749795 0.148867
O O12 0.131260 0.295561 0.375088
#
# Coordination Sequence:
#
# PCOD9544707 Si02
#       6
#     8   8   8   8   8   8
#     4   9  17  33  58  87 114 145 187 239 290 337
#     4  11  23  38  57  82 117 152 194 239 281 337
#     4  11  21  38  57  84 115 151 190 233 287 335
#     4  11  21  38  57  84 115 151 190 233 287 335
#     4   9  17  33  58  87 114 145 187 239 290 337
#     4  11  23  38  57  82 117 152 194 239 281 337
#
# _framework density 17.146784
#
# number of rings (size 3 to 8) (size 9 to 14) (size 15 to 20)
#    0.000    1.667    3.333    5.000    0.000    1.333 
#    0.000    8.333    0.000    0.000    0.000    2.333 
#    0.000    0.000    0.000    0.000    0.000    0.000 
#
# Total GULP energy -267996.342096 kJ/mol
# GULP energy per Si atom -5583.257127 kJ/mol
# Density = 1.710776 g / cm^3
# Si number density = 17.146784 Si / 1000 Ang^3
#
#
#
# Elastic Constant Matrix: (Units=GPa)
#
#
# Indices 1 2 3 4 5 6 
#
# 1 124.2258 71.2893 61.9065 0.0000 0.0000 -5.2711
# 2 71.2893 124.2258 61.9065 0.0000 0.0000 5.2711
# 3 61.9065 61.9065 174.3568 0.0000 0.0000 0.0000
# 4 0.0000 0.0000 0.0000 14.0654 0.0000 0.0000
# 5 0.0000 0.0000 0.0000 0.0000 14.0654 0.0000
# 6 -5.2711 5.2711 0.0000 0.0000 0.0000 -11.5470
#
#
#
# Elastic Compliance Matrix: (Units=1/GPa)
#
#
# Indices 1 2 3 4 5 6 
#
# 1 0.011957 -0.005359 -0.002343 0.000000 0.000000 -0.007905
# 2 -0.005359 0.011957 -0.002343 0.000000 0.000000 0.007905
# 3 -0.002343 -0.002343 0.007399 0.000000 0.000000 0.000000
# 4 0.000000 0.000000 0.000000 0.071096 0.000000 0.000000
# 5 0.000000 0.000000 0.000000 0.000000 0.071096 0.000000
# 6 -0.007905 0.007905 0.000000 0.000000 0.000000 -0.079386
#
#
# Mechanical properties :
#
#
# Convention : Reuss Voigt Hill
#
# Bulk Modulus (GPa) = 89.09073 90.33476 89.71275
# Shear Modulus (GPa) = 42.39052 18.49719 30.44386
#
# Velocity S-wave (km/s) = 4.97753 3.28800 4.21822
# Velocity P-wave (km/s) = 9.22523 8.19831 8.72689
#
# Compressibility (1/GPa) = 0.01122451
#
# Stress axis : x y z
#
# Youngs Moduli (GPa) = 83.63088 83.63088 135.15349
#
# Poissons Ratio (x) = 0.44818 0.31663
# Poissons Ratio (y) = 0.44818 0.31663
# Poissons Ratio (z) = 0.19593 0.19593
#
# Static dielectric constant tensor:
#      x y z
#    x 1.563800 0.000000 0.000000 
#    y 0.000000 1.563800 0.000000 
#    z 0.000000 0.000000 1.579290 
# 
# From -- ./inp_files/1629.got.cif
#   From: 2010.05.17/outbox.cif.g08.bks.cpg/sg85_cif.got.tgz:1629.got - 2010.06.03 19:01:16.
