data_PCOD9544217
_publ_section_title
;
Structure prediction by ZEFSAII (Michael W. Deem and Ramdas Pophale) SiO2 
 PCOD9544217
Probable space group: P 42/M
;
_chemical_formula_sum "Si O2"
_cell_formula_units_Z 40
_cell_length_a 12.106309
_cell_length_b 12.106309
_cell_length_c 13.653299
_cell_angle_alpha 90.000000
_cell_angle_beta 90.000000
_cell_angle_gamma 90.000000
_cell_volume 2001.064606
_symmetry_space_group_name_H-M "P 42/M"
_symmetry_group_IT_number 84
_symmetry_cell_setting 'tetragonal'
loop_
_space_group_symop_operation_xyz
x,y,z
-y,x,1/2+z
-x,-y,z
y,-x,1/2+z
-x,-y,-z
y,-x,1/2-z
x,y,-z
-y,x,1/2-z
loop_
_atom_site_type_symbol
_atom_site_label
_atom_site_fract_x
_atom_site_fract_y
_atom_site_fract_z
Si Si1 0.747481 0.029620 0.797028
Si Si2 0.357062 0.387967 0.739141
Si Si3 0.955886 0.125213 0.113430
Si Si4 0.309760 0.197582 0.111955
Si Si5 0.428468 0.838662 0.109971
O O1 0.828737 0.112905 0.854079
O O2 0.626236 0.078234 0.813180
O O3 0.791028 0.014890 0.687216
O O4 0.752931 0.909366 0.847511
O O5 0.356753 0.514841 0.776900
O O6 0.304595 0.302816 0.816689
O O7 0.283428 0.389438 0.641700
O O8 0.968104 0.153904 0.000000
O O9 0.000000 0.000000 0.128674
O O10 0.439424 0.164053 0.111823
O O11 0.277162 0.221547 0.000000
O O12 0.393617 0.869667 0.000000
#
# Coordination Sequence:
#
# PCOD9544217 Si02
#       5
#     8   8   8   8   8
#     4  12  20  38  57  82 112 148 188 231 280 336
#     4   9  19  36  57  83 115 148 188 238 287 337
#     4  11  23  38  55  80 108 140 183 229 280 331
#     4  10  21  35  57  86 114 147 190 235 283 338
#     4  10  21  36  56  84 115 151 189 231 283 339
#
# _framework density 19.989359
#
# number of rings (size 3 to 8) (size 9 to 14) (size 15 to 20)
#    0.000    1.600    2.000    3.600    0.000    2.400 
#    0.000    4.000    0.000    4.800    0.000    0.000 
#    0.000    0.000    0.000    0.000    0.000    0.000 
#
# Total GULP energy -223449.093535 kJ/mol
# GULP energy per Si atom -5586.227338 kJ/mol
# Density = 1.994386 g / cm^3
# Si number density = 19.989359 Si / 1000 Ang^3
#
#
#
# Elastic Constant Matrix: (Units=GPa)
#
#
# Indices 1 2 3 4 5 6 
#
# 1 54.7579 14.0740 32.1297 0.0000 0.0000 -7.3451
# 2 14.0740 54.7579 32.1297 0.0000 0.0000 7.3451
# 3 32.1297 32.1297 140.7098 0.0000 0.0000 0.0000
# 4 0.0000 0.0000 0.0000 27.2676 0.0000 0.0000
# 5 0.0000 0.0000 0.0000 0.0000 27.2676 0.0000
# 6 -7.3451 7.3451 0.0000 0.0000 0.0000 37.9853
#
#
#
# Elastic Compliance Matrix: (Units=1/GPa)
#
#
# Indices 1 2 3 4 5 6 
#
# 1 0.022444 -0.003980 -0.004216 0.000000 0.000000 0.005110
# 2 -0.003980 0.022444 -0.004216 0.000000 0.000000 -0.005110
# 3 -0.004216 -0.004216 0.009032 0.000000 0.000000 0.000000
# 4 0.000000 0.000000 0.000000 0.036674 0.000000 0.000000
# 5 0.000000 0.000000 0.000000 0.000000 0.036674 0.000000
# 6 0.005110 -0.005110 0.000000 0.000000 0.000000 0.028302
#
#
# Mechanical properties :
#
#
# Convention : Reuss Voigt Hill
#
# Bulk Modulus (GPa) = 34.36882 45.21029 39.78955
# Shear Modulus (GPa) = 26.30276 29.96357 28.13316
#
# Velocity S-wave (km/s) = 3.63138 3.87586 3.75561
# Velocity P-wave (km/s) = 5.90029 6.53422 6.22533
#
# Compressibility (1/GPa) = 0.02909614
#
# Stress axis : x y z
#
# Youngs Moduli (GPa) = 44.55444 44.55444 110.71440
#
# Poissons Ratio (x) = 0.17734 0.46679
# Poissons Ratio (y) = 0.17734 0.46679
# Poissons Ratio (z) = 0.18785 0.18785
#
# Static dielectric constant tensor:
#      x y z
#    x 1.744930 0.000000 0.000000 
#    y 0.000000 1.744930 0.000000 
#    z 0.000000 0.000000 1.674840 
# 
# From -- ./inp_files/2896.got.cif
#   From: 2010.05.17/outbox.cif.g08.bks.cpg/sg84_2_cif.got.tgz:2896.got - 2010.06.03 18:57:40.
