data_PCOD9544349
_publ_section_title
;
Structure prediction by ZEFSAII (Michael W. Deem and Ramdas Pophale) SiO2 
 PCOD9544349
Probable space group: P 42/M
;
_chemical_formula_sum "Si O2"
_cell_formula_units_Z 44
_cell_length_a 8.209807
_cell_length_b 8.209807
_cell_length_c 32.075709
_cell_angle_alpha 90.000000
_cell_angle_beta 90.000000
_cell_angle_gamma 90.000000
_cell_volume 2161.932648
_symmetry_space_group_name_H-M "P 42/M"
_symmetry_group_IT_number 84
_symmetry_cell_setting 'tetragonal'
loop_
_space_group_symop_operation_xyz
x,y,z
-y,x,1/2+z
-x,-y,z
y,-x,1/2+z
-x,-y,-z
y,-x,1/2-z
x,y,-z
-y,x,1/2-z
loop_
_atom_site_type_symbol
_atom_site_label
_atom_site_fract_x
_atom_site_fract_y
_atom_site_fract_z
Si Si1 0.391073 0.290481 0.682779
Si Si2 0.500000 0.000000 0.098329
Si Si3 0.563749 0.824645 0.225870
Si Si4 0.310971 0.047341 0.381933
Si Si5 0.707790 0.747247 0.150213
Si Si6 0.102895 0.170589 0.549025
O O1 0.306869 0.445508 0.704108
O O2 0.434624 0.193876 0.724929
O O3 0.276086 0.179985 0.653995
O O4 0.551998 0.319749 0.654649
O O5 0.565044 0.848759 0.127051
O O6 0.338814 0.960109 0.070547
O O7 0.725699 0.801699 0.198646
O O8 0.500000 0.000000 0.215675
O O9 0.265483 0.124966 0.425752
O O10 0.500000 0.000000 0.379347
O O11 0.221361 0.877331 0.373016
O O12 0.123629 0.199993 0.500000
O O13 0.000000 0.000000 0.552981
#
# Coordination Sequence:
#
# PCOD9544349 Si02
#       6
#     8   4   8   8   8   8
#     4  11  24  41  64  90 139 185 230 283 334 400
#     4  12  23  44  74 106 142 172 232 278 349 426
#     4  12  23  38  59  92 128 182 237 280 331 391
#     4  10  23  44  67  94 137 180 227 281 339 406
#     4  11  22  39  64  97 130 180 227 272 334 401
#     4  11  24  45  74 103 137 177 221 282 353 424
#
# _framework density 20.352157999999999
#
# number of rings (size 3 to 8) (size 9 to 14) (size 15 to 20)
#    0.000    0.909    4.545    3.545    0.000    1.818 
#    0.000    0.000    0.000    4.364    0.000    0.000 
#    0.000    0.000    0.000    0.000    0.000    0.000 
#
# Total GULP energy -245159.074631 kJ/mol
# GULP energy per Si atom -5571.797151 kJ/mol
# Density = 2.030584 g / cm^3
# Si number density = 20.352158 Si / 1000 Ang^3
#
#
#
# Elastic Constant Matrix: (Units=GPa)
#
#
# Indices 1 2 3 4 5 6 
#
# 1 65.7053 16.8030 36.2526 0.0000 0.0000 0.8516
# 2 16.8030 65.7053 36.2526 0.0000 0.0000 -0.8516
# 3 36.2526 36.2526 133.4893 0.0000 0.0000 0.0000
# 4 0.0000 0.0000 0.0000 34.3852 0.0000 0.0000
# 5 0.0000 0.0000 0.0000 0.0000 34.3852 0.0000
# 6 0.8516 -0.8516 0.0000 0.0000 0.0000 29.4555
#
#
#
# Elastic Compliance Matrix: (Units=1/GPa)
#
#
# Indices 1 2 3 4 5 6 
#
# 1 0.018194 -0.002275 -0.004323 0.000000 0.000000 -0.000592
# 2 -0.002275 0.018194 -0.004323 0.000000 0.000000 0.000592
# 3 -0.004323 -0.004323 0.009839 0.000000 0.000000 0.000000
# 4 0.000000 0.000000 0.000000 0.029082 0.000000 0.000000
# 5 0.000000 0.000000 0.000000 0.000000 0.029082 0.000000
# 6 -0.000592 0.000592 0.000000 0.000000 0.000000 0.033984
#
#
# Mechanical properties :
#
#
# Convention : Reuss Voigt Hill
#
# Bulk Modulus (GPa) = 41.00944 49.27958 45.14451
# Shear Modulus (GPa) = 29.70036 31.35129 30.52583
#
# Velocity S-wave (km/s) = 3.82425 3.92910 3.87703
# Velocity P-wave (km/s) = 6.30028 6.69700 6.50167
#
# Compressibility (1/GPa) = 0.02438463
#
# Stress axis : x y z
#
# Youngs Moduli (GPa) = 54.96215 54.96215 101.63188
#
# Poissons Ratio (x) = 0.12505 0.43938
# Poissons Ratio (y) = 0.12505 0.43938
# Poissons Ratio (z) = 0.23762 0.23762
#
# Static dielectric constant tensor:
#      x y z
#    x 1.825510 0.000000 0.000000 
#    y 0.000000 1.825510 0.000000 
#    z 0.000000 0.000000 1.717450 
# 
# From -- ./inp_files/5669.got.cif
#   From: 2010.05.17/outbox.cif.g08.bks.cpg/sg84_3_cif.got.tgz:5669.got - 2010.06.03 18:57:40.
