data_PCOD9544080
_publ_section_title
;
Structure prediction by ZEFSAII (Michael W. Deem and Ramdas Pophale) SiO2 
 PCOD9544080
Probable space group: P 42/M
;
_chemical_formula_sum "Si O2"
_cell_formula_units_Z 56
_cell_length_a 11.144712
_cell_length_b 11.144712
_cell_length_c 24.116819
_cell_angle_alpha 90.000000
_cell_angle_beta 90.000000
_cell_angle_gamma 90.000000
_cell_volume 2995.419991
_symmetry_space_group_name_H-M "P 42/M"
_symmetry_group_IT_number 84
_symmetry_cell_setting 'tetragonal'
loop_
_space_group_symop_operation_xyz
x,y,z
-y,x,1/2+z
-x,-y,z
y,-x,1/2+z
-x,-y,-z
y,-x,1/2-z
x,y,-z
-y,x,1/2-z
loop_
_atom_site_type_symbol
_atom_site_label
_atom_site_fract_x
_atom_site_fract_y
_atom_site_fract_z
Si Si1 0.611641 0.091137 0.334673
Si Si2 0.314396 0.071166 0.139871
Si Si3 0.980762 0.191938 0.752397
Si Si4 0.270546 0.784755 0.564883
Si Si5 0.416223 0.822514 0.859645
Si Si6 0.486797 0.369619 0.935480
Si Si7 0.568656 0.309937 0.747032
O O1 0.718178 0.028559 0.299214
O O2 0.655339 0.124888 0.396335
O O3 0.579763 0.217579 0.304068
O O4 0.500000 0.000000 0.333943
O O5 0.235935 0.143534 0.095767
O O6 0.448217 0.125263 0.142216
O O7 0.262447 0.078561 0.201548
O O8 0.329897 0.931591 0.125931
O O9 0.884078 0.093471 0.771247
O O10 0.261535 0.817152 0.500000
O O11 0.329831 0.651701 0.567850
O O12 0.424935 0.720306 0.905083
O O13 0.388699 0.765070 0.800410
O O14 0.500000 0.500000 0.909143
O O15 0.519380 0.374732 0.000000
O O16 0.431483 0.353328 0.757936
#
# Coordination Sequence:
#
# PCOD9544080 Si02
#       7
#     8   8   8   8   8   8   8
#     4  12  25  39  64  93 125 163 208 254 310 379
#     4  10  19  37  57  86 115 154 205 256 305 356
#     4  11  23  40  63  87 121 160 204 253 310 366
#     4  10  22  41  63  85 120 164 210 261 303 363
#     4  10  20  31  56  85 121 156 197 254 304 362
#     4   9  19  35  56  83 120 164 206 247 301 370
#     4  11  24  36  56  90 128 165 196 246 318 381
#
# _framework density 18.695207
#
# number of rings (size 3 to 8) (size 9 to 14) (size 15 to 20)
#    0.000    1.571    2.857    2.571    6.000    0.857 
#    0.000    2.857    0.000    1.714    0.000    0.000 
#    0.000    0.000    0.000    0.000    0.000    0.000 
#
# Total GULP energy -312678.329684 kJ/mol
# GULP energy per Si atom -5583.541601 kJ/mol
# Density = 1.865266 g / cm^3
# Si number density = 18.695207 Si / 1000 Ang^3
#
#
#
# Elastic Constant Matrix: (Units=GPa)
#
#
# Indices 1 2 3 4 5 6 
#
# 1 77.6232 22.4498 30.9133 0.0000 0.0000 -1.4398
# 2 22.4498 77.6232 30.9133 0.0000 0.0000 1.4398
# 3 30.9133 30.9133 110.0145 0.0000 0.0000 0.0000
# 4 0.0000 0.0000 0.0000 22.0892 0.0000 0.0000
# 5 0.0000 0.0000 0.0000 0.0000 22.0892 0.0000
# 6 -1.4398 1.4398 0.0000 0.0000 0.0000 24.4444
#
#
#
# Elastic Compliance Matrix: (Units=1/GPa)
#
#
# Indices 1 2 3 4 5 6 
#
# 1 0.015136 -0.003044 -0.003398 0.000000 0.000000 0.001071
# 2 -0.003044 0.015136 -0.003398 0.000000 0.000000 -0.001071
# 3 -0.003398 -0.003398 0.010999 0.000000 0.000000 0.000000
# 4 0.000000 0.000000 0.000000 0.045271 0.000000 0.000000
# 5 0.000000 0.000000 0.000000 0.000000 0.045271 0.000000
# 6 0.001071 -0.001071 0.000000 0.000000 0.000000 0.041035
#
#
# Mechanical properties :
#
#
# Convention : Reuss Voigt Hill
#
# Bulk Modulus (GPa) = 46.31341 48.20151 47.25746
# Shear Modulus (GPa) = 25.03433 25.79021 25.41227
#
# Velocity S-wave (km/s) = 3.66331 3.71820 3.69086
# Velocity P-wave (km/s) = 6.53604 6.65373 6.59515
#
# Compressibility (1/GPa) = 0.02159202
#
# Stress axis : x y z
#
# Youngs Moduli (GPa) = 66.06668 66.06668 90.91580
#
# Poissons Ratio (x) = 0.20113 0.30891
# Poissons Ratio (y) = 0.20113 0.30891
# Poissons Ratio (z) = 0.22448 0.22448
#
# Static dielectric constant tensor:
#      x y z
#    x 1.667020 0.000000 0.000000 
#    y 0.000000 1.667020 0.000000 
#    z 0.000000 0.000000 1.625050 
# 
# From -- ./inp_files/4518.got.cif
#   From: 2010.05.17/outbox.cif.g08.bks.cpg/sg84_3_cif.got.tgz:4518.got - 2010.06.03 18:57:40.
