data_PCOD9544994
_publ_section_title
;
Structure prediction by ZEFSAII (Michael W. Deem and Ramdas Pophale) SiO2 
 PCOD9544994
Probable space group: P 42/N
;
_chemical_formula_sum "Si O2"
_cell_formula_units_Z 48
_cell_length_a 11.401140
_cell_length_b 11.401140
_cell_length_c 18.316529
_cell_angle_alpha 90.000000
_cell_angle_beta 90.000000
_cell_angle_gamma 90.000000
_cell_volume 2380.892216
_symmetry_space_group_name_H-M "P 42/N"
_symmetry_group_IT_number 86
_space_group.IT_coordinate_system_code '2'
_symmetry_cell_setting 'tetragonal'
loop_
_space_group_symop_operation_xyz
x,y,z
-y,1/2+x,1/2+z
1/2-x,1/2-y,z
1/2+y,-x,1/2+z
-x,-y,-z
y,1/2-x,1/2-z
1/2+x,1/2+y,-z
1/2-y,x,1/2-z
loop_
_atom_site_type_symbol
_atom_site_label
_atom_site_fract_x
_atom_site_fract_y
_atom_site_fract_z
Si Si1 0.108440 0.742249 0.810415
Si Si2 0.958430 0.106232 0.801676
Si Si3 0.118007 0.966393 0.715554
Si Si4 0.071282 0.578664 0.055274
Si Si5 0.308975 0.984942 0.465919
Si Si6 0.493900 0.844668 0.549669
O O1 0.250000 0.750000 0.822569
O O2 0.074573 0.627713 0.765136
O O3 0.078475 0.848458 0.756088
O O4 0.044000 0.756507 0.886974
O O5 0.955196 0.245647 0.803438
O O6 0.910653 0.048444 0.875905
O O7 0.085298 0.064387 0.774586
O O8 0.061750 0.977700 0.636350
O O9 0.207849 0.539238 0.055679
O O10 0.000000 0.500000 0.000000
O O11 0.046303 0.710563 0.025956
O O12 0.372268 0.112713 0.465154
O O13 0.416018 0.896873 0.483874
#
# Coordination Sequence:
#
# PCOD9544994 Si02
#       6
#     8   8   8   8   8   8
#     4  10  20  36  65  94 126 169 225 275 324 404
#     4  11  22  42  65  96 132 174 229 273 341 402
#     4  11  23  40  66  96 131 177 220 281 335 407
#     4  12  25  43  66 100 139 177 224 285 350 403
#     4  11  23  41  68 100 128 176 230 273 338 406
#     4  11  23  42  70  93 134 181 225 283 334 411
#
# _framework density 20.160508
#
# number of rings (size 3 to 8) (size 9 to 14) (size 15 to 20)
#    0.000    1.000    5.000    2.500    0.000    2.333 
#    0.000    1.667    0.000    0.500    0.000    0.000 
#    0.000    0.000    0.000    0.000    0.000    0.000 
#
# Total GULP energy -267839.836646 kJ/mol
# GULP energy per Si atom -5579.996597 kJ/mol
# Density = 2.011462 g / cm^3
# Si number density = 20.160508 Si / 1000 Ang^3
#
#
#
# Elastic Constant Matrix: (Units=GPa)
#
#
# Indices 1 2 3 4 5 6 
#
# 1 30.5424 35.8836 30.4022 0.0000 0.0000 4.7047
# 2 35.8836 30.5424 30.4022 0.0000 0.0000 -4.7047
# 3 30.4022 30.4022 131.5676 0.0000 0.0000 0.0000
# 4 0.0000 0.0000 0.0000 29.1123 0.0000 0.0000
# 5 0.0000 0.0000 0.0000 0.0000 29.1123 0.0000
# 6 4.7047 -4.7047 0.0000 0.0000 0.0000 29.7308
#
#
#
# Elastic Compliance Matrix: (Units=1/GPa)
#
#
# Indices 1 2 3 4 5 6 
#
# 1 -0.063658 0.082750 -0.004412 0.000000 0.000000 0.023168
# 2 0.082750 -0.063658 -0.004412 0.000000 0.000000 -0.023168
# 3 -0.004412 -0.004412 0.009640 0.000000 0.000000 0.000000
# 4 0.000000 0.000000 0.000000 0.034350 0.000000 0.000000
# 5 0.000000 0.000000 0.000000 0.000000 0.034350 0.000000
# 6 0.023168 -0.023168 0.000000 0.000000 0.000000 0.026303
#
#
# Mechanical properties :
#
#
# Convention : Reuss Voigt Hill
#
# Bulk Modulus (GPa) = 33.13700 42.89203 38.01452
# Shear Modulus (GPa) = -31.15906 23.98868 -3.58519
#
# Velocity S-wave (km/s) = -3.93561 3.45321 -1.33498
# Velocity P-wave (km/s) = 2.04445 6.10090 4.06456
#
# Compressibility (1/GPa) = 0.03017775
#
# Stress axis : x y z
#
# Youngs Moduli (GPa) = -15.70906 -15.70906 103.73833
#
# Poissons Ratio (x) = 1.29993 0.45769
# Poissons Ratio (y) = 1.29993 0.45769
# Poissons Ratio (z) = -0.06931 -0.06931
#
# Static dielectric constant tensor:
#      x y z
#    x 1.777110 0.000000 0.000000 
#    y 0.000000 1.777110 0.000000 
#    z 0.000000 0.000000 1.735520 
# 
# From -- ./inp_files/3567.got.cif
#   From: 2010.05.17/outbox.cif.g08.bks.cpg/sg86_2_cif.got.tgz:3567.got - 2010.06.03 19:03:11.
