data_PCOD9544539
_publ_section_title
;
Structure prediction by ZEFSAII (Michael W. Deem and Ramdas Pophale) SiO2 
 PCOD9544539
Probable space group: P 4/N
;
_chemical_formula_sum "Si O2"
_cell_formula_units_Z 60
_cell_length_a 10.740039
_cell_length_b 10.740039
_cell_length_c 22.762141
_cell_angle_alpha 90.000000
_cell_angle_beta 90.000000
_cell_angle_gamma 90.000000
_cell_volume 2625.577404
_symmetry_space_group_name_H-M "P 4/N"
_symmetry_group_IT_number 85
_symmetry_cell_setting 'tetragonal'
loop_
_space_group_symop_operation_xyz
x,y,z
1/2-y,x,z
1/2-x,1/2-y,z
y,1/2-x,z
-x,-y,-z
1/2+y,-x,-z
1/2+x,1/2+y,-z
-y,1/2+x,-z
loop_
_atom_site_type_symbol
_atom_site_label
_atom_site_fract_x
_atom_site_fract_y
_atom_site_fract_z
Si Si1 0.250000 0.750000 0.145630
Si Si2 0.527974 0.494434 0.602017
Si Si3 0.302033 0.052376 0.678673
Si Si4 0.641462 0.574744 0.969310
Si Si5 0.600762 0.020370 0.198692
Si Si6 0.061726 0.663034 0.495924
Si Si7 0.974869 0.421659 0.902263
Si Si8 0.412038 0.379635 0.278247
O O1 0.347068 0.659443 0.179313
O O2 0.150057 0.656232 0.113009
O O3 0.546719 0.359878 0.634060
O O4 0.636010 0.517669 0.554368
O O5 0.405227 0.505273 0.560860
O O6 0.535042 0.585293 0.657713
O O7 0.396584 0.166503 0.668167
O O8 0.313992 0.017268 0.746385
O O9 0.787745 0.584893 0.967880
O O10 0.616200 0.510944 0.031657
O O11 0.572883 0.523273 0.911885
O O12 0.461852 0.025276 0.227372
O O13 0.582182 0.917118 0.147317
O O14 0.092489 0.807356 0.491970
O O15 0.267665 0.418761 0.272896
#
# Coordination Sequence:
#
# PCOD9544539 Si02
#       8
#     4   8   8   8   8   8   8   8
#     4  12  24  40  67  98 130 170 217 266 326 396
#     4  10  20  35  55  79 109 146 192 242 297 369
#     4  10  21  37  57  81 112 152 197 247 303 364
#     4  10  22  40  62  88 122 164 208 258 316 375
#     4  11  23  40  60  88 123 160 205 257 314 378
#     4  10  20  34  53  79 110 144 184 238 304 369
#     4  11  23  41  63  92 127 165 213 264 318 384
#     4  10  21  37  57  81 112 152 197 247 303 364
#
# _framework density 22.852114
#
# number of rings (size 3 to 8) (size 9 to 14) (size 15 to 20)
#    0.000    1.600    0.000    4.800    0.000    2.133 
#    0.000   10.667    0.000    6.400    0.000    0.000 
#    0.000    0.000    0.000    0.000    0.000    0.000 
#
# Total GULP energy -334440.786225 kJ/mol
# GULP energy per Si atom -5574.013104 kJ/mol
# Density = 2.280010 g / cm^3
# Si number density = 22.852114 Si / 1000 Ang^3
#
#
#
# Elastic Constant Matrix: (Units=GPa)
#
#
# Indices 1 2 3 4 5 6 
#
# 1 61.9527 -8.5080 25.0925 0.0000 0.0000 0.8824
# 2 -8.5080 61.9527 25.0925 0.0000 0.0000 -0.8824
# 3 25.0925 25.0925 115.4102 0.0000 0.0000 0.0000
# 4 0.0000 0.0000 0.0000 21.4133 0.0000 0.0000
# 5 0.0000 0.0000 0.0000 0.0000 21.4133 0.0000
# 6 0.8824 -0.8824 0.0000 0.0000 0.0000 31.9516
#
#
#
# Elastic Compliance Matrix: (Units=1/GPa)
#
#
# Indices 1 2 3 4 5 6 
#
# 1 0.018857 0.004654 -0.005112 0.000000 0.000000 -0.000392
# 2 0.004654 0.018857 -0.005112 0.000000 0.000000 0.000392
# 3 -0.005112 -0.005112 0.010888 0.000000 0.000000 0.000000
# 4 0.000000 0.000000 0.000000 0.046700 0.000000 0.000000
# 5 0.000000 0.000000 0.000000 0.000000 0.046700 0.000000
# 6 -0.000392 0.000392 0.000000 0.000000 0.000000 0.031319
#
#
# Mechanical properties :
#
#
# Convention : Reuss Voigt Hill
#
# Bulk Modulus (GPa) = 26.69342 35.85217 31.27280
# Shear Modulus (GPa) = 25.38777 28.13155 26.75966
#
# Velocity S-wave (km/s) = 3.33672 3.51240 3.42569
# Velocity P-wave (km/s) = 5.15279 5.67205 5.41864
#
# Compressibility (1/GPa) = 0.03746241
#
# Stress axis : x y z
#
# Youngs Moduli (GPa) = 53.03200 53.03200 91.84805
#
# Poissons Ratio (x) = -0.24683 0.46951
# Poissons Ratio (y) = -0.24683 0.46951
# Poissons Ratio (z) = 0.27109 0.27109
#
# Static dielectric constant tensor:
#      x y z
#    x 1.898820 0.000000 0.000000 
#    y 0.000000 1.898820 0.000000 
#    z 0.000000 0.000000 1.855170 
# 
# From -- ./inp_files/2281.got.cif
#   From: 2010.05.17/outbox.cif.g08.bks.cpg/sg85_cif.got.tgz:2281.got - 2010.06.03 19:01:16.
