data_PCOD9544356
_publ_section_title
;
Structure prediction by ZEFSAII (Michael W. Deem and Ramdas Pophale) SiO2 
 PCOD9544356
Probable space group: P 42/M
;
_chemical_formula_sum "Si O2"
_cell_formula_units_Z 38
_cell_length_a 9.184683
_cell_length_b 9.184683
_cell_length_c 22.597544
_cell_angle_alpha 90.000000
_cell_angle_beta 90.000000
_cell_angle_gamma 90.000000
_cell_volume 1906.292697
_symmetry_space_group_name_H-M "P 42/M"
_symmetry_group_IT_number 84
_symmetry_cell_setting 'tetragonal'
loop_
_space_group_symop_operation_xyz
x,y,z
-y,x,1/2+z
-x,-y,z
y,-x,1/2+z
-x,-y,-z
y,-x,1/2-z
x,y,-z
-y,x,1/2-z
loop_
_atom_site_type_symbol
_atom_site_label
_atom_site_fract_x
_atom_site_fract_y
_atom_site_fract_z
Si Si1 0.918974 0.796555 0.727378
Si Si2 0.349526 0.081599 0.871332
Si Si3 0.749487 0.949675 0.500000
Si Si4 0.248768 0.386556 0.182752
Si Si5 0.500000 0.000000 0.596069
Si Si6 0.231436 0.039970 0.000000
Si Si7 0.500000 0.500000 0.750000
O O1 0.833263 0.667929 0.758307
O O2 0.058025 0.824891 0.769667
O O3 0.983959 0.768761 0.663316
O O4 0.329648 0.244821 0.845581
O O5 0.320012 0.074843 0.940765
O O6 0.500000 0.000000 0.857672
O O7 0.638363 0.954160 0.444460
O O8 0.870888 0.821909 0.500000
O O9 0.850737 0.093455 0.500000
O O10 0.362778 0.502850 0.206702
O O11 0.134451 0.450132 0.136574
#
# Coordination Sequence:
#
# PCOD9544356 Si02
#       7
#     8   8   4   8   4   4   2
#     4   9  21  37  63  96 126 163 216 273 328 389
#     4  11  23  41  64  96 136 174 219 276 340 397
#     4  10  24  42  67  95 128 171 227 286 330 382
#     4  11  25  41  68  95 138 178 220 271 332 413
#     4  11  24  44  68  96 136 177 222 276 334 399
#     4  11  23  42  67  97 126 171 231 282 328 391
#     4  12  28  44  60 106 140 180 212 256 350 408
#
# _framework density 19.933980999999999
#
# number of rings (size 3 to 8) (size 9 to 14) (size 15 to 20)
#    0.000    1.474    2.105    1.579   10.316    3.368 
#    0.000    0.000    0.000    3.158    0.000    0.000 
#    0.000    0.000    0.000    0.000    0.000    0.000 
#
# Total GULP energy -212236.021344 kJ/mol
# GULP energy per Si atom -5585.158456 kJ/mol
# Density = 1.988861 g / cm^3
# Si number density = 19.933981 Si / 1000 Ang^3
#
#
#
# Elastic Constant Matrix: (Units=GPa)
#
#
# Indices 1 2 3 4 5 6 
#
# 1 62.7589 31.6556 26.8027 0.0000 0.0000 -1.5422
# 2 31.6556 62.7589 26.8027 0.0000 0.0000 1.5422
# 3 26.8027 26.8027 105.4111 0.0000 0.0000 0.0000
# 4 0.0000 0.0000 0.0000 -1.8474 0.0000 0.0000
# 5 0.0000 0.0000 0.0000 0.0000 -1.8474 0.0000
# 6 -1.5422 1.5422 0.0000 0.0000 0.0000 38.6152
#
#
#
# Elastic Compliance Matrix: (Units=1/GPa)
#
#
# Indices 1 2 3 4 5 6 
#
# 1 0.022329 -0.009950 -0.003147 0.000000 0.000000 0.001289
# 2 -0.009950 0.022329 -0.003147 0.000000 0.000000 -0.001289
# 3 -0.003147 -0.003147 0.011087 0.000000 0.000000 0.000000
# 4 0.000000 0.000000 0.000000 -0.541292 0.000000 0.000000
# 5 0.000000 0.000000 0.000000 0.000000 -0.541292 0.000000
# 6 0.001289 -0.001289 0.000000 0.000000 0.000000 0.025999
#
#
# Mechanical properties :
#
#
# Convention : Reuss Voigt Hill
#
# Bulk Modulus (GPa) = 43.00230 44.60567 43.80398
# Shear Modulus (GPa) = -5.20509 16.69527 5.74509
#
# Velocity S-wave (km/s) = -1.61766 2.89715 1.69950
# Velocity P-wave (km/s) = 4.25794 5.79798 5.08658
#
# Compressibility (1/GPa) = 0.02325457
#
# Stress axis : x y z
#
# Youngs Moduli (GPa) = 44.78550 44.78550 90.19338
#
# Poissons Ratio (x) = 0.44562 0.28388
# Poissons Ratio (y) = 0.44562 0.28388
# Poissons Ratio (z) = 0.14096 0.14096
#
# Static dielectric constant tensor:
#      x y z
#    x 1.723450 0.000000 0.000000 
#    y 0.000000 1.723450 0.000000 
#    z 0.000000 0.000000 1.672950 
# 
# From -- ./inp_files/4925.got.cif
#   From: 2010.05.17/outbox.cif.g08.bks.cpg/sg84_3_cif.got.tgz:4925.got - 2010.06.03 18:57:40.
