data_PCOD9544725
_publ_section_title
;
Structure prediction by ZEFSAII (Michael W. Deem and Ramdas Pophale) SiO2 
 PCOD9544725
Probable space group: P 4/N
;
_chemical_formula_sum "Si O2"
_cell_formula_units_Z 40
_cell_length_a 9.745522
_cell_length_b 9.745522
_cell_length_c 22.772517
_cell_angle_alpha 90.000000
_cell_angle_beta 90.000000
_cell_angle_gamma 90.000000
_cell_volume 2162.824335
_symmetry_space_group_name_H-M "P 4/N"
_symmetry_group_IT_number 85
_symmetry_cell_setting 'tetragonal'
loop_
_space_group_symop_operation_xyz
x,y,z
1/2-y,x,z
1/2-x,1/2-y,z
y,1/2-x,z
-x,-y,-z
1/2+y,-x,-z
1/2+x,1/2+y,-z
-y,1/2+x,-z
loop_
_atom_site_type_symbol
_atom_site_label
_atom_site_fract_x
_atom_site_fract_y
_atom_site_fract_z
Si Si1 0.914195 0.126749 0.977595
Si Si2 0.465597 0.332996 0.848738
Si Si3 0.668108 0.537129 0.641506
Si Si4 0.398417 0.892403 0.526421
Si Si5 0.342646 0.461285 0.219627
O O1 0.979663 0.167354 0.915710
O O2 0.754650 0.083067 0.977316
O O3 0.000000 0.000000 0.000000
O O4 0.325568 0.421394 0.837923
O O5 0.585921 0.411159 0.813000
O O6 0.825785 0.579280 0.629952
O O7 0.626610 0.421037 0.595691
O O8 0.651975 0.509181 0.710510
O O9 0.430680 0.752962 0.492191
O O10 0.500000 0.000000 0.500000
O O11 0.181998 0.425239 0.206754
#
# Coordination Sequence:
#
# PCOD9544725 Si02
#       5
#     8   8   8   8   8
#     4  11  24  41  64  94 125 163 206 244 305 365
#     4  11  24  43  63  89 130 167 200 251 311 361
#     4   9  17  37  63  85 120 161 201 250 307 363
#     4  11  22  36  58  89 121 159 205 247 308 366
#     4   9  21  40  65  94 118 158 211 255 301 365
#
# _framework density 18.494336000000001
#
# number of rings (size 3 to 8) (size 9 to 14) (size 15 to 20)
#    0.000    1.800    4.000    1.200    2.800    1.600 
#    3.600    0.000    0.000    0.000    0.000    0.000 
#    0.000    0.000    0.000    0.000    0.000    0.000 
#
# Total GULP energy -222982.472408 kJ/mol
# GULP energy per Si atom -5574.561810 kJ/mol
# Density = 1.845224 g / cm^3
# Si number density = 18.494336 Si / 1000 Ang^3
#
#
#
# Elastic Constant Matrix: (Units=GPa)
#
#
# Indices 1 2 3 4 5 6 
#
# 1 11.9948 111.0244 18.2943 0.0000 0.0000 -2.0680
# 2 111.0244 11.9948 18.2943 0.0000 0.0000 2.0680
# 3 18.2943 18.2943 54.9115 0.0000 0.0000 0.0000
# 4 0.0000 0.0000 0.0000 32.8577 0.0000 0.0000
# 5 0.0000 0.0000 0.0000 0.0000 32.8577 0.0000
# 6 -2.0680 2.0680 0.0000 0.0000 0.0000 37.9122
#
#
#
# Elastic Compliance Matrix: (Units=1/GPa)
#
#
# Indices 1 2 3 4 5 6 
#
# 1 -0.000526 0.009549 -0.003006 0.000000 0.000000 -0.000550
# 2 0.009549 -0.000526 -0.003006 0.000000 0.000000 0.000550
# 3 -0.003006 -0.003006 0.020214 0.000000 0.000000 0.000000
# 4 0.000000 0.000000 0.000000 0.030434 0.000000 0.000000
# 5 0.000000 0.000000 0.000000 0.000000 0.030434 0.000000
# 6 -0.000550 0.000550 0.000000 0.000000 0.000000 0.026317
#
#
# Mechanical properties :
#
#
# Convention : Reuss Voigt Hill
#
# Bulk Modulus (GPa) = 38.11611 41.56969 39.84290
# Shear Modulus (GPa) = 46.28824 16.14473 31.21649
#
# Velocity S-wave (km/s) = 5.00826 2.95779 4.11286
# Velocity P-wave (km/s) = 7.35513 5.84726 6.64411
#
# Compressibility (1/GPa) = 0.02623562
#
# Stress axis : x y z
#
# Youngs Moduli (GPa) = -1900.85914 -1900.85914 49.47038
#
# Poissons Ratio (x) = 18.15123 0.14871
# Poissons Ratio (y) = 18.15123 0.14871
# Poissons Ratio (z) = -5.71411 -5.71411
#
# Static dielectric constant tensor:
#      x y z
#    x 1.641090 0.000000 0.000000 
#    y 0.000000 1.641090 0.000000 
#    z 0.000000 0.000000 1.632330 
# 
# From -- ./inp_files/2316.got.cif
#   From: 2010.05.17/outbox.cif.g08.bks.cpg/sg85_cif.got.tgz:2316.got - 2010.06.03 19:01:16.
