data_PCOD9544063
_publ_section_title
;
Structure prediction by ZEFSAII (Michael W. Deem and Ramdas Pophale) SiO2 
 PCOD9544063
Probable space group: P 42/M
;
_chemical_formula_sum "Si O2"
_cell_formula_units_Z 36
_cell_length_a 11.884910
_cell_length_b 11.884910
_cell_length_c 12.845414
_cell_angle_alpha 90.000000
_cell_angle_beta 90.000000
_cell_angle_gamma 90.000000
_cell_volume 1814.428674
_symmetry_space_group_name_H-M "P 42/M"
_symmetry_group_IT_number 84
_symmetry_cell_setting 'tetragonal'
loop_
_space_group_symop_operation_xyz
x,y,z
-y,x,1/2+z
-x,-y,z
y,-x,1/2+z
-x,-y,-z
y,-x,1/2-z
x,y,-z
-y,x,1/2-z
loop_
_atom_site_type_symbol
_atom_site_label
_atom_site_fract_x
_atom_site_fract_y
_atom_site_fract_z
Si Si1 0.301852 0.273030 0.794479
Si Si2 0.755645 0.483560 0.119334
Si Si3 0.963780 0.331716 0.386512
Si Si4 0.143581 0.917736 0.215281
Si Si5 0.500000 0.000000 0.293604
O O1 0.392211 0.288585 0.702095
O O2 0.283983 0.390861 0.851392
O O3 0.339394 0.170587 0.869802
O O4 0.186725 0.221032 0.747312
O O5 0.890168 0.482990 0.137815
O O6 0.728000 0.456658 0.000000
O O7 0.995461 0.374334 0.500000
O O8 0.012763 0.205994 0.374554
O O9 0.013547 0.397678 0.287799
O O10 0.017199 0.871630 0.198252
#
# Coordination Sequence:
#
# PCOD9544063 Si02
#       5
#     8   8   8   8   4
#     4  10  22  40  59  89 125 155 204 257 296 361
#     4  11  23  42  65  90 121 163 202 247 310 362
#     4  10  19  34  60  89 123 166 204 251 306 354
#     4   9  18  36  58  82 125 162 197 251 302 355
#     4  10  20  38  60  92 128 156 202 258 294 362
#
# _framework density 19.840957
#
# number of rings (size 3 to 8) (size 9 to 14) (size 15 to 20)
#    0.000    2.000    2.222    1.333    0.000    1.333 
#    0.000   13.333    0.000    0.000    0.000    0.000 
#    0.000    0.000    0.000    0.000    0.000    0.000 
#
# Total GULP energy -200558.393038 kJ/mol
# GULP energy per Si atom -5571.066473 kJ/mol
# Density = 1.979580 g / cm^3
# Si number density = 19.840957 Si / 1000 Ang^3
#
#
#
# Elastic Constant Matrix: (Units=GPa)
#
#
# Indices 1 2 3 4 5 6 
#
# 1 64.9040 -6.8467 6.5500 0.0000 0.0000 10.2254
# 2 -6.8467 64.9040 6.5500 0.0000 0.0000 -10.2254
# 3 6.5500 6.5500 71.7094 0.0000 0.0000 0.0000
# 4 0.0000 0.0000 0.0000 20.6669 0.0000 0.0000
# 5 0.0000 0.0000 0.0000 0.0000 20.6669 0.0000
# 6 10.2254 -10.2254 0.0000 0.0000 0.0000 24.8928
#
#
#
# Elastic Compliance Matrix: (Units=1/GPa)
#
#
# Indices 1 2 3 4 5 6 
#
# 1 0.016686 0.000901 -0.001606 0.000000 0.000000 -0.006484
# 2 0.000901 0.016686 -0.001606 0.000000 0.000000 0.006484
# 3 -0.001606 -0.001606 0.014239 0.000000 0.000000 0.000000
# 4 0.000000 0.000000 0.000000 0.048387 0.000000 0.000000
# 5 0.000000 0.000000 0.000000 0.000000 0.048387 0.000000
# 6 -0.006484 0.006484 0.000000 0.000000 0.000000 0.045499
#
#
# Mechanical properties :
#
#
# Convention : Reuss Voigt Hill
#
# Bulk Modulus (GPa) = 23.26301 23.78044 23.52172
# Shear Modulus (GPa) = 23.94219 26.26292 25.10256
#
# Velocity S-wave (km/s) = 3.47754 3.64218 3.56081
# Velocity P-wave (km/s) = 5.27963 5.44966 5.36532
#
# Compressibility (1/GPa) = 0.04298671
#
# Stress axis : x y z
#
# Youngs Moduli (GPa) = 59.93017 59.93017 70.23146
#
# Poissons Ratio (x) = -0.05398 0.11282
# Poissons Ratio (y) = -0.05398 0.11282
# Poissons Ratio (z) = 0.09627 0.09627
#
# Static dielectric constant tensor:
#      x y z
#    x 1.743200 0.000000 0.000000 
#    y 0.000000 1.743200 0.000000 
#    z 0.000000 0.000000 1.666300 
# 
# From -- ./inp_files/1943.got.cif
#   From: 2010.05.17/outbox.cif.g08.bks.cpg/sg84_1_cif.got.tgz:1943.got - 2010.06.03 18:57:40.
