data_PCOD9544722
_publ_section_title
;
Structure prediction by ZEFSAII (Michael W. Deem and Ramdas Pophale) SiO2 
 PCOD9544722
Probable space group: P 4/N
;
_chemical_formula_sum "Si O2"
_cell_formula_units_Z 48
_cell_length_a 9.656995
_cell_length_b 9.656995
_cell_length_c 28.988591
_cell_angle_alpha 90.000000
_cell_angle_beta 90.000000
_cell_angle_gamma 90.000000
_cell_volume 2703.405045
_symmetry_space_group_name_H-M "P 4/N"
_symmetry_group_IT_number 85
_symmetry_cell_setting 'tetragonal'
loop_
_space_group_symop_operation_xyz
x,y,z
1/2-y,x,z
1/2-x,1/2-y,z
y,1/2-x,z
-x,-y,-z
1/2+y,-x,-z
1/2+x,1/2+y,-z
-y,1/2+x,-z
loop_
_atom_site_type_symbol
_atom_site_label
_atom_site_fract_x
_atom_site_fract_y
_atom_site_fract_z
Si Si1 0.555247 0.632846 0.219039
Si Si2 0.034154 0.338088 0.385036
Si Si3 0.922940 0.589966 0.960590
Si Si4 0.107621 0.428695 0.891384
Si Si5 0.608663 0.399718 0.521322
Si Si6 0.041226 0.353212 0.279113
O O1 0.704550 0.566229 0.231210
O O2 0.549435 0.611948 0.163749
O O3 0.427237 0.563144 0.244640
O O4 0.076733 0.177206 0.391149
O O5 0.992154 0.365647 0.332267
O O6 0.925430 0.373978 0.424489
O O7 0.938835 0.757260 0.963222
O O8 0.001981 0.534381 0.915037
O O9 0.000000 0.500000 0.000000
O O10 0.062099 0.271074 0.904434
O O11 0.500000 0.500000 0.500000
O O12 0.747377 0.431000 0.493280
O O13 0.071715 0.190279 0.272802
#
# Coordination Sequence:
#
# PCOD9544722 Si02
#       6
#     8   8   8   8   8   8
#     4   9  19  37  57  81 115 149 183 227 280 331
#     4   9  17  35  58  76 104 144 179 219 273 325
#     4  11  24  39  56  83 117 151 190 237 284 332
#     4   9  19  37  60  82 109 149 191 232 279 333
#     4  11  22  36  56  81 108 141 180 221 268 325
#     4   9  19  35  56  81 107 141 184 225 270 330
#
# _framework density 17.755385
#
# number of rings (size 3 to 8) (size 9 to 14) (size 15 to 20)
#    0.000    2.333    1.667    3.000    0.000    6.000 
#    3.000    5.000    0.000    0.000    0.000    0.000 
#    0.000    0.000    0.000    0.000    0.000    0.000 
#
# Total GULP energy -267494.415795 kJ/mol
# GULP energy per Si atom -5572.800329 kJ/mol
# Density = 1.771497 g / cm^3
# Si number density = 17.755385 Si / 1000 Ang^3
#
#
#
# Elastic Constant Matrix: (Units=GPa)
#
#
# Indices 1 2 3 4 5 6 
#
# 1 1163.5363-1020.2216 35.2498 0.0000 0.0000 -40.6891
# 2 -1020.2216 1163.5363 35.2498 0.0000 0.0000 40.6891
# 3 35.2498 35.2498 57.5987 0.0000 0.0000 0.0000
# 4 0.0000 0.0000 0.0000 33.7234 0.0000 0.0000
# 5 0.0000 0.0000 0.0000 0.0000 33.7234 0.0000
# 6 -40.6891 40.6891 0.0000 0.0000 0.0000 36.4768
#
#
#
# Elastic Compliance Matrix: (Units=1/GPa)
#
#
# Indices 1 2 3 4 5 6 
#
# 1 0.005230 0.004753 -0.006110 0.000000 0.000000 0.000533
# 2 0.004753 0.005230 -0.006110 0.000000 0.000000 -0.000533
# 3 -0.006110 -0.006110 0.024839 0.000000 0.000000 0.000000
# 4 0.000000 0.000000 0.000000 0.029653 0.000000 0.000000
# 5 0.000000 0.000000 0.000000 0.000000 0.029653 0.000000
# 6 0.000533 -0.000533 0.000000 0.000000 0.000000 0.028604
#
#
# Mechanical properties :
#
#
# Convention : Reuss Voigt Hill
#
# Bulk Modulus (GPa) = 49.09797 53.91415 51.50606
# Shear Modulus (GPa) = 34.49893 243.07758 138.78826
#
# Velocity S-wave (km/s) = 4.41274 11.71327 8.85079
# Velocity P-wave (km/s) = 7.32636 14.60703 11.55510
#
# Compressibility (1/GPa) = 0.02036744
#
# Stress axis : x y z
#
# Youngs Moduli (GPa) = 191.18916 191.18916 40.25860
#
# Poissons Ratio (x) = -0.90865 0.24596
# Poissons Ratio (y) = -0.90865 0.24596
# Poissons Ratio (z) = 1.16807 1.16807
#
# Static dielectric constant tensor:
#      x y z
#    x 1.585960 0.000000 0.000000 
#    y 0.000000 1.585960 0.000000 
#    z 0.000000 0.000000 1.611570 
# 
# From -- ./inp_files/2419.got.cif
#   From: 2010.05.17/outbox.cif.g08.bks.cpg/sg85_cif.got.tgz:2419.got - 2010.06.03 19:01:16.
