data_PCOD9544417
_publ_section_title
;
Structure prediction by ZEFSAII (Michael W. Deem and Ramdas Pophale) SiO2 
 PCOD9544417
Probable space group: P 42/M
;
_chemical_formula_sum "Si O2"
_cell_formula_units_Z 48
_cell_length_a 11.234320
_cell_length_b 11.234320
_cell_length_c 17.861204
_cell_angle_alpha 90.000000
_cell_angle_beta 90.000000
_cell_angle_gamma 90.000000
_cell_volume 2254.261590
_symmetry_space_group_name_H-M "P 42/M"
_symmetry_group_IT_number 84
_symmetry_cell_setting 'tetragonal'
loop_
_space_group_symop_operation_xyz
x,y,z
-y,x,1/2+z
-x,-y,z
y,-x,1/2+z
-x,-y,-z
y,-x,1/2-z
x,y,-z
-y,x,1/2-z
loop_
_atom_site_type_symbol
_atom_site_label
_atom_site_fract_x
_atom_site_fract_y
_atom_site_fract_z
Si Si1 0.259885 0.592955 0.665422
Si Si2 0.218749 0.095969 0.913632
Si Si3 0.730571 0.056666 0.336064
Si Si4 0.527700 0.220813 0.678438
Si Si5 0.192251 0.855395 0.827532
Si Si6 0.645704 0.324271 0.089000
O O1 0.155306 0.663427 0.622706
O O2 0.364193 0.684923 0.686341
O O3 0.211049 0.537092 0.741975
O O4 0.321471 0.491063 0.615437
O O5 0.118132 0.196057 0.902550
O O6 0.174248 0.980502 0.869135
O O7 0.238859 0.067795 0.000000
O O8 0.594800 0.099123 0.342925
O O9 0.778451 0.113558 0.258098
O O10 0.766705 0.919597 0.332528
O O11 0.436356 0.279522 0.620094
O O12 0.298786 0.790464 0.870147
O O13 0.654573 0.317247 0.000000
#
# Coordination Sequence:
#
# PCOD9544417 Si02
#       6
#     8   8   8   8   8   8
#     4  11  22  43  72 100 138 179 237 286 346 416
#     4  11  25  43  68 103 140 177 227 292 356 415
#     4  11  24  43  73  96 134 180 234 290 345 420
#     4  11  23  43  69 102 132 182 234 289 342 414
#     4  12  24  45  67 102 133 179 236 287 348 421
#     4  12  26  43  67 101 144 184 227 291 354 416
#
# _framework density 21.293002999999999
#
# number of rings (size 3 to 8) (size 9 to 14) (size 15 to 20)
#    0.000    0.667    5.000    3.000    0.000    7.333 
#    0.000    2.500    0.000    0.000    0.000    0.000 
#    0.000    0.000    0.000    0.000    0.000    0.000 
#
# Total GULP energy -268557.924348 kJ/mol
# GULP energy per Si atom -5594.956757 kJ/mol
# Density = 2.124454 g / cm^3
# Si number density = 21.293003 Si / 1000 Ang^3
#
#
#
# Elastic Constant Matrix: (Units=GPa)
#
#
# Indices 1 2 3 4 5 6 
#
# 1 267.3207 -167.0555 18.2757 0.0000 0.0000 7.8257
# 2 -167.0555 267.3207 18.2757 0.0000 0.0000 -7.8257
# 3 18.2757 18.2757 101.6010 0.0000 0.0000 0.0000
# 4 0.0000 0.0000 0.0000 18.4978 0.0000 0.0000
# 5 0.0000 0.0000 0.0000 0.0000 18.4978 0.0000
# 6 7.8257 -7.8257 0.0000 0.0000 0.0000 41.1832
#
#
#
# Elastic Compliance Matrix: (Units=1/GPa)
#
#
# Indices 1 2 3 4 5 6 
#
# 1 0.006496 0.004178 -0.001920 0.000000 0.000000 -0.000440
# 2 0.004178 0.006496 -0.001920 0.000000 0.000000 0.000440
# 3 -0.001920 -0.001920 0.010533 0.000000 0.000000 0.000000
# 4 0.000000 0.000000 0.000000 0.054061 0.000000 0.000000
# 5 0.000000 0.000000 0.000000 0.000000 0.054061 0.000000
# 6 -0.000440 0.000440 0.000000 0.000000 0.000000 0.024449
#
#
# Mechanical properties :
#
#
# Convention : Reuss Voigt Hill
#
# Bulk Modulus (GPa) = 41.32167 41.69268 41.50717
# Shear Modulus (GPa) = 30.58367 66.75217 48.66792
#
# Velocity S-wave (km/s) = 3.79400 5.60512 4.78601
# Velocity P-wave (km/s) = 6.21618 7.84301 7.07650
#
# Compressibility (1/GPa) = 0.02420038
#
# Stress axis : x y z
#
# Youngs Moduli (GPa) = 153.94719 153.94719 94.93869
#
# Poissons Ratio (x) = -0.64315 0.18227
# Poissons Ratio (y) = -0.64315 0.18227
# Poissons Ratio (z) = 0.29556 0.29556
#
# Static dielectric constant tensor:
#      x y z
#    x 1.779270 0.000000 0.000000 
#    y 0.000000 1.779270 0.000000 
#    z 0.000000 0.000000 1.716510 
# 
# From -- ./inp_files/3757.got.cif
#   From: 2010.05.17/outbox.cif.g08.bks.cpg/sg84_2_cif.got.tgz:3757.got - 2010.06.03 18:57:40.
