data_PCOD9544710
_publ_section_title
;
Structure prediction by ZEFSAII (Michael W. Deem and Ramdas Pophale) SiO2 
 PCOD9544710
Probable space group: P 4/N
;
_chemical_formula_sum "Si O2"
_cell_formula_units_Z 40
_cell_length_a 14.661397
_cell_length_b 14.661397
_cell_length_c 8.875094
_cell_angle_alpha 90.000000
_cell_angle_beta 90.000000
_cell_angle_gamma 90.000000
_cell_volume 1907.759694
_symmetry_space_group_name_H-M "P 4/N"
_symmetry_group_IT_number 85
_symmetry_cell_setting 'tetragonal'
loop_
_space_group_symop_operation_xyz
x,y,z
1/2-y,x,z
1/2-x,1/2-y,z
y,1/2-x,z
-x,-y,-z
1/2+y,-x,-z
1/2+x,1/2+y,-z
-y,1/2+x,-z
loop_
_atom_site_type_symbol
_atom_site_label
_atom_site_fract_x
_atom_site_fract_y
_atom_site_fract_z
Si Si1 0.644356 0.861181 0.969430
Si Si2 0.595686 0.734962 0.477583
Si Si3 0.864746 0.489506 0.736242
Si Si4 0.887941 0.260026 0.023998
Si Si5 0.484218 0.150880 0.779304
O O1 0.628031 0.753236 0.954052
O O2 0.605532 0.887116 0.134158
O O3 0.603212 0.924098 0.838411
O O4 0.672334 0.655814 0.489913
O O5 0.524805 0.698114 0.600723
O O6 0.540804 0.765159 0.328521
O O7 0.797474 0.432383 0.844042
O O8 0.952773 0.426311 0.701300
O O9 0.832991 0.186710 0.922997
O O10 0.958261 0.312516 0.920542
#
# Coordination Sequence:
#
# PCOD9544710 Si02
#       5
#     8   8   8   8   8
#     4  11  21  38  64  96 133 177 226 288 359 419
#     4  11  26  46  62  91 138 184 220 277 358 430
#     4  11  23  41  67  98 130 174 233 288 340 416
#     4   9  20  40  65  94 130 170 217 278 344 411
#     4  11  23  41  67  98 130 174 233 288 340 416
#
# _framework density 20.967001
#
# number of rings (size 3 to 8) (size 9 to 14) (size 15 to 20)
#    0.000    1.400    2.000    3.000    0.000    5.600 
#    0.000    0.000    0.000    0.000    0.000    0.000 
#    0.000    0.000    0.000    0.000    0.000    0.000 
#
# Total GULP energy -222885.213143 kJ/mol
# GULP energy per Si atom -5572.130329 kJ/mol
# Density = 2.091928 g / cm^3
# Si number density = 20.967001 Si / 1000 Ang^3
#
#
#
# Elastic Constant Matrix: (Units=GPa)
#
#
# Indices 1 2 3 4 5 6 
#
# 1 84.5404 29.0751 15.0774 0.0000 0.0000 0.1611
# 2 29.0751 84.5404 15.0774 0.0000 0.0000 -0.1611
# 3 15.0774 15.0774 57.1708 0.0000 0.0000 0.0000
# 4 0.0000 0.0000 0.0000 20.6364 0.0000 0.0000
# 5 0.0000 0.0000 0.0000 0.0000 20.6364 0.0000
# 6 0.1611 -0.1611 0.0000 0.0000 0.0000 37.4102
#
#
#
# Elastic Compliance Matrix: (Units=1/GPa)
#
#
# Indices 1 2 3 4 5 6 
#
# 1 0.013747 -0.004283 -0.002496 0.000000 0.000000 -0.000078
# 2 -0.004283 0.013747 -0.002496 0.000000 0.000000 0.000078
# 3 -0.002496 -0.002496 0.018808 0.000000 0.000000 0.000000
# 4 0.000000 0.000000 0.000000 0.048458 0.000000 0.000000
# 5 0.000000 0.000000 0.000000 0.000000 0.048458 0.000000
# 6 -0.000078 0.000078 0.000000 0.000000 0.000000 0.026731
#
#
# Mechanical properties :
#
#
# Convention : Reuss Voigt Hill
#
# Bulk Modulus (GPa) = 36.03294 38.30127 37.16710
# Shear Modulus (GPa) = 25.28451 26.87136 26.07794
#
# Velocity S-wave (km/s) = 3.47640 3.58383 3.53053
# Velocity P-wave (km/s) = 5.77379 5.95249 5.86382
#
# Compressibility (1/GPa) = 0.02775238
#
# Stress axis : x y z
#
# Youngs Moduli (GPa) = 72.74361 72.74361 53.16907
#
# Poissons Ratio (x) = 0.31155 0.13271
# Poissons Ratio (y) = 0.31155 0.13271
# Poissons Ratio (z) = 0.18156 0.18156
#
# Static dielectric constant tensor:
#      x y z
#    x 1.801660 0.000000 0.000000 
#    y 0.000000 1.801660 0.000000 
#    z 0.000000 0.000000 1.769770 
# 
# From -- ./inp_files/942.got.cif
#   From: 2010.05.17/outbox.cif.g08.bks.cpg/sg85_cif.got.tgz:942.got - 2010.06.03 19:01:16.
