data_PCOD9544480
_publ_section_title
;
Structure prediction by ZEFSAII (Michael W. Deem and Ramdas Pophale) SiO2 
 PCOD9544480
Probable space group: P 42/M
;
_chemical_formula_sum "Si O2"
_cell_formula_units_Z 48
_cell_length_a 9.000000
_cell_length_b 9.000000
_cell_length_c 30.000000
_cell_angle_alpha 90.000000
_cell_angle_beta 90.000000
_cell_angle_gamma 90.000000
_cell_volume 2430.000000
_symmetry_space_group_name_H-M "P 42/M"
_symmetry_group_IT_number 84
_symmetry_cell_setting 'tetragonal'
loop_
_space_group_symop_operation_xyz
x,y,z
-y,x,1/2+z
-x,-y,z
y,-x,1/2+z
-x,-y,-z
y,-x,1/2-z
x,y,-z
-y,x,1/2-z
loop_
_atom_site_type_symbol
_atom_site_label
_atom_site_fract_x
_atom_site_fract_y
_atom_site_fract_z
Si Si1 0.330277 0.974095 0.908081
Si Si2 0.713773 0.662633 0.658044
Si Si3 0.481379 0.822072 0.599222
Si Si4 0.835919 0.426184 0.000000
Si Si5 0.066390 0.162970 0.500000
Si Si6 0.757753 0.311996 0.655554
Si Si7 0.164723 0.190813 0.749794
O O1 0.305029 0.816187 0.885146
O O2 0.500000 0.000000 0.921997
O O3 0.311630 0.076094 0.864014
O O4 0.237539 0.986704 0.953496
O O5 0.567439 0.744665 0.640601
O O6 0.705422 0.483313 0.660754
O O7 0.772652 0.728451 0.705141
O O8 0.522637 0.771184 0.548556
O O9 0.318640 0.773529 0.614190
O O10 0.500000 0.000000 0.600710
O O11 0.839107 0.246954 0.000000
O O12 0.000000 0.500000 0.000000
O O13 0.000000 0.000000 0.500000
O O14 0.748685 0.233116 0.703666
O O15 0.985444 0.203152 0.751931
#
# Coordination Sequence:
#
# PCOD9544480 Si02
#       7
#     8   8   8   4   4   8   8
#     4  10  23  44  67  95 136 172 216 275 330 394
#     4  11  23  45  66  94 135 173 226 273 329 401
#     4  11  24  44  69  95 137 175 220 274 333 394
#     4  10  24  43  64  97 137 169 216 272 332 394
#     4  12  25  39  73 102 128 172 226 272 331 397
#     4  11  25  43  67  97 131 177 223 272 334 400
#     4  11  24  41  65  97 133 176 223 278 343 400
#
# _framework density 19.753086
#
# number of rings (size 3 to 8) (size 9 to 14) (size 15 to 20)
#    0.000    1.167    3.333    1.750    7.000    1.333 
#    0.000    2.500    0.000    0.000    0.000    0.000 
#    0.000    0.000    0.000    0.000    0.000    0.000 
#
# Total GULP energy -267516.601328 kJ/mol
# GULP energy per Si atom -5573.262528 kJ/mol
# Density = 1.970813 g / cm^3
# Si number density = 19.753086 Si / 1000 Ang^3
#
#
#
# Elastic Constant Matrix: (Units=GPa)
#
#
# Indices 1 2 3 4 5 6 
#
# 1 38.3859 1.2133 29.9562 0.0000 0.0000 -4.9162
# 2 1.2133 38.3859 29.9562 0.0000 0.0000 4.9162
# 3 29.9562 29.9562 181.9077 0.0000 0.0000 0.0000
# 4 0.0000 0.0000 0.0000 48.7757 0.0000 0.0000
# 5 0.0000 0.0000 0.0000 0.0000 48.7757 0.0000
# 6 -4.9162 4.9162 0.0000 0.0000 0.0000 24.0727
#
#
#
# Elastic Compliance Matrix: (Units=1/GPa)
#
#
# Indices 1 2 3 4 5 6 
#
# 1 0.031035 0.002597 -0.005539 0.000000 0.000000 0.005808
# 2 0.002597 0.031035 -0.005539 0.000000 0.000000 -0.005808
# 3 -0.005539 -0.005539 0.007321 0.000000 0.000000 0.000000
# 4 0.000000 0.000000 0.000000 0.020502 0.000000 0.000000
# 5 0.000000 0.000000 0.000000 0.000000 0.020502 0.000000
# 6 0.005808 -0.005808 0.000000 0.000000 0.000000 0.043913
#
#
# Mechanical properties :
#
#
# Convention : Reuss Voigt Hill
#
# Bulk Modulus (GPa) = 19.07215 42.32567 30.69891
# Shear Modulus (GPa) = 26.49069 37.49506 31.99288
#
# Velocity S-wave (km/s) = 3.66606 4.36155 4.02884
# Velocity P-wave (km/s) = 5.25322 6.84383 6.10058
#
# Compressibility (1/GPa) = 0.05243248
#
# Stress axis : x y z
#
# Youngs Moduli (GPa) = 32.22153 32.22153 136.58492
#
# Poissons Ratio (x) = -0.08369 0.75648
# Poissons Ratio (y) = -0.08369 0.75648
# Poissons Ratio (z) = 0.17846 0.17846
#
# Static dielectric constant tensor:
#      x y z
#    x 1.730530 0.000000 0.000000 
#    y 0.000000 1.730530 0.000000 
#    z 0.000000 0.000000 1.635480 
# 
# From -- ./inp_files/5829.got.cif
#   From: 2010.05.17/outbox.ucp.g08.bks.cvg/sg84_3_cif.got.tgz:5829.got - 2010.06.11 10:34:57.
