data_PCOD9544888
_publ_section_title
;
Structure prediction by ZEFSAII (Michael W. Deem and Ramdas Pophale) SiO2 
 PCOD9544888
Probable space group: P 42/N
;
_chemical_formula_sum "Si O2"
_cell_formula_units_Z 64
_cell_length_a 11.427149
_cell_length_b 11.427149
_cell_length_c 23.829978
_cell_angle_alpha 90.000000
_cell_angle_beta 90.000000
_cell_angle_gamma 90.000000
_cell_volume 3111.712195
_symmetry_space_group_name_H-M "P 42/N"
_symmetry_group_IT_number 86
_space_group.IT_coordinate_system_code '2'
_symmetry_cell_setting 'tetragonal'
loop_
_space_group_symop_operation_xyz
x,y,z
-y,1/2+x,1/2+z
1/2-x,1/2-y,z
1/2+y,-x,1/2+z
-x,-y,-z
y,1/2-x,1/2-z
1/2+x,1/2+y,-z
1/2-y,x,1/2-z
loop_
_atom_site_type_symbol
_atom_site_label
_atom_site_fract_x
_atom_site_fract_y
_atom_site_fract_z
Si Si1 0.092000 0.453680 0.624341
Si Si2 0.376759 0.982141 0.434161
Si Si3 0.947143 0.059348 0.417090
Si Si4 0.115428 0.746845 0.500636
Si Si5 0.515544 0.813540 0.191874
Si Si6 0.900086 0.350004 0.110643
Si Si7 0.266291 0.010561 0.813244
Si Si8 0.110143 0.263176 0.973984
O O1 0.176365 0.485461 0.675295
O O2 0.042121 0.326364 0.638921
O O3 0.179028 0.441694 0.573116
O O4 0.984208 0.529442 0.601970
O O5 0.418344 0.883173 0.479794
O O6 0.287411 0.919033 0.391546
O O7 0.294652 0.070289 0.467975
O O8 0.951151 0.179607 0.452018
O O9 0.876717 0.058537 0.357543
O O10 0.883213 0.958951 0.456795
O O11 0.074995 0.016099 0.400419
O O12 0.250000 0.750000 0.521487
O O13 0.119879 0.820931 0.443410
O O14 0.484678 0.807178 0.257257
O O15 0.642856 0.879116 0.190358
O O16 0.841201 0.400927 0.165978
O O17 0.250000 0.250000 0.969429
#
# Coordination Sequence:
#
# PCOD9544888 Si02
#       8
#     8   8   8   8   8   8   8   8
#     4  11  21  34  53  82 118 144 181 236 292 343
#     4  11  23  36  54  83 113 156 193 225 286 346
#     4  10  20  35  54  81 113 145 186 235 283 349
#     4  10  18  33  54  75 111 148 179 229 283 339
#     4  10  21  33  53  84 113 144 184 231 297 345
#     4  10  20  33  55  81 104 150 192 226 275 340
#     4  11  19  34  57  81 111 146 187 237 289 350
#     4  11  22  35  53  83 115 148 183 232 287 349
#
# _framework density 20.567453
#
# number of rings (size 3 to 8) (size 9 to 14) (size 15 to 20)
#    0.000    1.500    5.000    3.375    0.000    0.000 
#    0.000    0.000    2.750    0.000    0.000    0.000 
#    0.000    0.000    0.000    0.000    0.000    0.000 
#
# Total GULP energy -356910.485420 kJ/mol
# GULP energy per Si atom -5576.726335 kJ/mol
# Density = 2.052064 g / cm^3
# Si number density = 20.567453 Si / 1000 Ang^3
#
#
#
# Elastic Constant Matrix: (Units=GPa)
#
#
# Indices 1 2 3 4 5 6 
#
# 1 46.3823 15.2126 13.8153 0.0000 0.0000 -4.4349
# 2 15.2126 46.3823 13.8153 0.0000 0.0000 4.4349
# 3 13.8153 13.8153 59.1966 0.0000 0.0000 0.0000
# 4 0.0000 0.0000 0.0000 22.4762 0.0000 0.0000
# 5 0.0000 0.0000 0.0000 0.0000 22.4762 0.0000
# 6 -4.4349 4.4349 0.0000 0.0000 0.0000 11.7189
#
#
#
# Elastic Compliance Matrix: (Units=1/GPa)
#
#
# Indices 1 2 3 4 5 6 
#
# 1 0.027044 -0.008910 -0.004232 0.000000 0.000000 0.013607
# 2 -0.008910 0.027044 -0.004232 0.000000 0.000000 -0.013607
# 3 -0.004232 -0.004232 0.018868 0.000000 0.000000 0.000000
# 4 0.000000 0.000000 0.000000 0.044492 0.000000 0.000000
# 5 0.000000 0.000000 0.000000 0.000000 0.044492 0.000000
# 6 0.013607 -0.013607 0.000000 0.000000 0.000000 0.095631
#
#
# Mechanical properties :
#
#
# Convention : Reuss Voigt Hill
#
# Bulk Modulus (GPa) = 26.17305 26.40529 26.28917
# Shear Modulus (GPa) = 16.39051 18.60877 17.49964
#
# Velocity S-wave (km/s) = 2.82603 3.01120 2.92008
# Velocity P-wave (km/s) = 4.83753 4.99560 4.91720
#
# Compressibility (1/GPa) = 0.03820724
#
# Stress axis : x y z
#
# Youngs Moduli (GPa) = 36.97677 36.97677 52.99920
#
# Poissons Ratio (x) = 0.32948 0.22429
# Poissons Ratio (y) = 0.32948 0.22429
# Poissons Ratio (z) = 0.15649 0.15649
#
# Static dielectric constant tensor:
#      x y z
#    x 1.793000 0.000000 0.000000 
#    y 0.000000 1.793000 0.000000 
#    z 0.000000 0.000000 1.731880 
# 
# From -- ./inp_files/4697.got.cif
#   From: 2010.05.17/outbox.cif.g08.bks.cpg/sg86_3_cif.got.tgz:4697.got - 2010.06.03 19:03:11.
