data_PCOD9544857
_publ_section_title
;
Structure prediction by ZEFSAII (Michael W. Deem and Ramdas Pophale) SiO2 
 PCOD9544857
Probable space group: P 4/N
;
_chemical_formula_sum "Si O2"
_cell_formula_units_Z 38
_cell_length_a 9.000000
_cell_length_b 9.000000
_cell_length_c 24.000000
_cell_angle_alpha 90.000000
_cell_angle_beta 90.000000
_cell_angle_gamma 90.000000
_cell_volume 1944.000000
_symmetry_space_group_name_H-M "P 4/N"
_symmetry_group_IT_number 85
_symmetry_cell_setting 'tetragonal'
loop_
_space_group_symop_operation_xyz
x,y,z
1/2-y,x,z
1/2-x,1/2-y,z
y,1/2-x,z
-x,-y,-z
1/2+y,-x,-z
1/2+x,1/2+y,-z
-y,1/2+x,-z
loop_
_atom_site_type_symbol
_atom_site_label
_atom_site_fract_x
_atom_site_fract_y
_atom_site_fract_z
Si Si1 0.603864 0.354631 0.704452
Si Si2 0.750000 0.750000 0.297178
Si Si3 0.506369 0.674844 0.086862
Si Si4 0.750000 0.250000 0.500000
Si Si5 0.492949 0.182424 0.413936
Si Si6 0.250000 0.750000 0.000000
Si Si7 0.975449 0.639923 0.818608
O O1 0.750000 0.250000 0.714351
O O2 0.437765 0.278778 0.703031
O O3 0.640540 0.432810 0.645287
O O4 0.608141 0.470923 0.755700
O O5 0.655858 0.571598 0.085502
O O6 0.420425 0.606084 0.140620
O O7 0.381723 0.677651 0.037878
O O8 0.622305 0.176962 0.460793
O O9 0.426571 0.350223 0.418498
O O10 0.942820 0.816213 0.827829
#
# Coordination Sequence:
#
# PCOD9544857 Si02
#       7
#     8   2   8   2   8   2   8
#     4  12  26  46  72 111 149 189 250 304 369 457
#     4  12  28  44  80 116 144 208 244 312 384 458
#     4  11  26  44  71 103 138 183 239 298 361 434
#     4  12  24  44  70 104 136 196 252 318 380 464
#     4  11  24  46  70 101 144 192 245 316 384 450
#     4  12  24  48  70  96 140 188 240 310 364 424
#     4  11  25  44  70 105 144 189 232 293 369 442
#
# _framework density 19.547325000000001
#
# number of rings (size 3 to 8) (size 9 to 14) (size 15 to 20)
#    0.000    0.632    1.053    6.316    7.368    1.684 
#    0.000    2.105    0.000    0.000    0.000    0.000 
#    0.000    0.000    0.000    0.000    0.000    0.000 
#
# Total GULP energy -211674.496448 kJ/mol
# GULP energy per Si atom -5570.381485 kJ/mol
# Density = 1.950283 g / cm^3
# Si number density = 19.547325 Si / 1000 Ang^3
#
#
#
# Elastic Constant Matrix: (Units=GPa)
#
#
# Indices 1 2 3 4 5 6 
#
# 1 134.0480 55.3176 53.1975 0.0000 0.0000 0.9800
# 2 55.3176 134.0480 53.1975 0.0000 0.0000 -0.9800
# 3 53.1975 53.1975 146.3428 0.0000 0.0000 0.0000
# 4 0.0000 0.0000 0.0000 35.1085 0.0000 0.0000
# 5 0.0000 0.0000 0.0000 0.0000 35.1085 0.0000
# 6 0.9800 -0.9800 0.0000 0.0000 0.0000 46.3135
#
#
#
# Elastic Compliance Matrix: (Units=1/GPa)
#
#
# Indices 1 2 3 4 5 6 
#
# 1 0.009672 -0.003036 -0.002412 0.000000 0.000000 -0.000269
# 2 -0.003036 0.009672 -0.002412 0.000000 0.000000 0.000269
# 3 -0.002412 -0.002412 0.008587 0.000000 0.000000 0.000000
# 4 0.000000 0.000000 0.000000 0.028483 0.000000 0.000000
# 5 0.000000 0.000000 0.000000 0.000000 0.028483 0.000000
# 6 -0.000269 0.000269 0.000000 0.000000 0.000000 0.021603
#
#
# Mechanical properties :
#
#
# Convention : Reuss Voigt Hill
#
# Bulk Modulus (GPa) = 81.89945 81.98489 81.94217
# Shear Modulus (GPa) = 39.59063 40.15454 39.87258
#
# Velocity S-wave (km/s) = 4.50530 4.53727 4.52131
# Velocity P-wave (km/s) = 8.30979 8.33558 8.32269
#
# Compressibility (1/GPa) = 0.01221009
#
# Stress axis : x y z
#
# Youngs Moduli (GPa) = 103.38899 103.38899 116.45391
#
# Poissons Ratio (x) = 0.31390 0.28092
# Poissons Ratio (y) = 0.31390 0.28092
# Poissons Ratio (z) = 0.24941 0.24941
#
# Static dielectric constant tensor:
#      x y z
#    x 1.699730 0.000000 0.000000 
#    y 0.000000 1.699730 0.000000 
#    z 0.000000 0.000000 1.681920 
# 
# From -- ./inp_files/2338.got.cif
#   From: 2010.05.17/outbox.ucp.g08.bks.cvg/sg85_cif.got.tgz:2338.got - 2010.06.11 10:35:07.
