data_PCOD9544970
_publ_section_title
;
Structure prediction by ZEFSAII (Michael W. Deem and Ramdas Pophale) SiO2 
 PCOD9544970
Probable space group: P 42/N
;
_chemical_formula_sum "Si O2"
_cell_formula_units_Z 34
_cell_length_a 7.893763
_cell_length_b 7.893763
_cell_length_c 25.312369
_cell_angle_alpha 90.000000
_cell_angle_beta 90.000000
_cell_angle_gamma 90.000000
_cell_volume 1577.251537
_symmetry_space_group_name_H-M "P 42/N"
_symmetry_group_IT_number 86
_space_group.IT_coordinate_system_code '2'
_symmetry_cell_setting 'tetragonal'
loop_
_space_group_symop_operation_xyz
x,y,z
-y,1/2+x,1/2+z
1/2-x,1/2-y,z
1/2+y,-x,1/2+z
-x,-y,-z
y,1/2-x,1/2-z
1/2+x,1/2+y,-z
1/2-y,x,1/2-z
loop_
_atom_site_type_symbol
_atom_site_label
_atom_site_fract_x
_atom_site_fract_y
_atom_site_fract_z
Si Si1 0.433521 0.808019 0.322684
Si Si2 0.250000 0.250000 0.750000
Si Si3 0.767925 0.560177 0.961550
Si Si4 0.936481 0.868817 0.422190
Si Si5 0.082554 0.858092 0.124920
O O1 0.250000 0.750000 0.301109
O O2 0.580818 0.739685 0.284717
O O3 0.445014 0.713771 0.378897
O O4 0.498164 0.001048 0.336728
O O5 0.750000 0.750000 0.941943
O O6 0.640456 0.441573 0.930176
O O7 0.953065 0.502225 0.944191
O O8 0.755166 0.564563 0.024898
O O9 0.767327 0.929126 0.391010
O O10 0.250000 0.750000 0.143832
#
# Coordination Sequence:
#
# PCOD9544970 Si02
#       5
#     8   2   8   8   8
#     4  12  25  46  76  98 130 186 235 296 365 431
#     4  12  28  52  72 104 140 180 252 320 368 422
#     4  10  20  33  58 100 143 182 223 272 336 432
#     4  10  21  38  60  95 140 182 227 275 348 417
#     4  10  21  39  65  97 144 184 223 290 348 424
#
# _framework density 21.556483
#
# number of rings (size 3 to 8) (size 9 to 14) (size 15 to 20)
#    0.000    1.412    2.353    2.824    0.000    9.412 
#    0.000    0.000    0.000    0.000    0.000    0.000 
#    0.000    0.000    0.000    0.000    0.000    0.000 
#
# Total GULP energy -189607.513722 kJ/mol
# GULP energy per Si atom -5576.691580 kJ/mol
# Density = 2.150742 g / cm^3
# Si number density = 21.556483 Si / 1000 Ang^3
#
#
#
# Elastic Constant Matrix: (Units=GPa)
#
#
# Indices 1 2 3 4 5 6 
#
# 1 130.3142 32.8049 29.2166 0.0000 0.0000 3.6095
# 2 32.8049 130.3142 29.2166 0.0000 0.0000 -3.6095
# 3 29.2166 29.2166 67.2277 0.0000 0.0000 0.0000
# 4 0.0000 0.0000 0.0000 15.0551 0.0000 0.0000
# 5 0.0000 0.0000 0.0000 0.0000 15.0551 0.0000
# 6 3.6095 -3.6095 0.0000 0.0000 0.0000 24.9441
#
#
#
# Elastic Compliance Matrix: (Units=1/GPa)
#
#
# Indices 1 2 3 4 5 6 
#
# 1 0.008814 -0.001553 -0.003156 0.000000 0.000000 -0.001500
# 2 -0.001553 0.008814 -0.003156 0.000000 0.000000 0.001500
# 3 -0.003156 -0.003156 0.017618 0.000000 0.000000 0.000000
# 4 0.000000 0.000000 0.000000 0.066423 0.000000 0.000000
# 5 0.000000 0.000000 0.000000 0.000000 0.066423 0.000000
# 6 -0.001500 0.001500 0.000000 0.000000 0.000000 0.040524
#
#
# Mechanical properties :
#
#
# Convention : Reuss Voigt Hill
#
# Bulk Modulus (GPa) = 51.23680 56.70360 53.97020
# Shear Modulus (GPa) = 21.65936 26.78541 24.22238
#
# Velocity S-wave (km/s) = 3.17325 3.52883 3.35576
# Velocity P-wave (km/s) = 6.10297 6.55479 6.33291
#
# Compressibility (1/GPa) = 0.01951722
#
# Stress axis : x y z
#
# Youngs Moduli (GPa) = 113.45995 113.45995 56.76156
#
# Poissons Ratio (x) = 0.17618 0.17911
# Poissons Ratio (y) = 0.17618 0.17911
# Poissons Ratio (z) = 0.35803 0.35803
#
# Static dielectric constant tensor:
#      x y z
#    x 1.888140 0.000000 0.000000 
#    y 0.000000 1.888140 0.000000 
#    z 0.000000 0.000000 1.755690 
# 
# From -- ./inp_files/4372.got.cif
#   From: 2010.05.17/outbox.cif.g08.bks.cpg/sg86_3_cif.got.tgz:4372.got - 2010.06.03 19:03:11.
