data_PCOD9544866
_publ_section_title
;
Structure prediction by ZEFSAII (Michael W. Deem and Ramdas Pophale) SiO2 
 PCOD9544866
Probable space group: P 42/N
;
_chemical_formula_sum "Si O2"
_cell_formula_units_Z 56
_cell_length_a 14.078126
_cell_length_b 14.078126
_cell_length_c 12.808308
_cell_angle_alpha 90.000000
_cell_angle_beta 90.000000
_cell_angle_gamma 90.000000
_cell_volume 2538.525078
_symmetry_space_group_name_H-M "P 42/N"
_symmetry_group_IT_number 86
_space_group.IT_coordinate_system_code '2'
_symmetry_cell_setting 'tetragonal'
loop_
_space_group_symop_operation_xyz
x,y,z
-y,1/2+x,1/2+z
1/2-x,1/2-y,z
1/2+y,-x,1/2+z
-x,-y,-z
y,1/2-x,1/2-z
1/2+x,1/2+y,-z
1/2-y,x,1/2-z
loop_
_atom_site_type_symbol
_atom_site_label
_atom_site_fract_x
_atom_site_fract_y
_atom_site_fract_z
Si Si1 0.920751 0.408294 0.693889
Si Si2 0.924399 0.280625 0.866157
Si Si3 0.436712 0.912149 0.702052
Si Si4 0.866778 0.696005 0.185956
Si Si5 0.282983 0.547744 0.396821
Si Si6 0.346784 0.249720 0.037466
Si Si7 0.388177 0.469192 0.999890
O O1 0.868748 0.342860 0.782260
O O2 0.827343 0.444706 0.633399
O O3 0.990956 0.498212 0.721491
O O4 0.983015 0.350371 0.606680
O O5 0.932849 0.168776 0.843051
O O6 0.025396 0.327281 0.833405
O O7 0.906410 0.295912 0.988254
O O8 0.419469 0.853940 0.807502
O O9 0.487610 0.852216 0.609172
O O10 0.801461 0.637807 0.264078
O O11 0.825719 0.693250 0.069726
O O12 0.299464 0.435144 0.409561
O O13 0.250000 0.250000 0.101113
O O14 0.376108 0.356390 0.004218
O O15 0.500000 0.500000 0.000000
#
# Coordination Sequence:
#
# PCOD9544866 Si02
#       7
#     8   8   8   8   8   8   8
#     4  11  22  45  72  93 135 186 221 269 350 413
#     4  11  23  41  68  92 129 173 227 289 325 394
#     4  11  23  43  69  97 127 177 229 271 335 412
#     4  10  17  31  55  97 130 156 207 271 338 401
#     4  11  24  44  65  99 137 179 226 281 338 411
#     4  11  20  34  61  98 136 171 217 279 335 419
#     4  10  18  41  68  90 129 189 224 250 342 441
#
# _framework density 22.060053
#
# number of rings (size 3 to 8) (size 9 to 14) (size 15 to 20)
#    0.000    1.286    5.714    4.286    0.000    2.286 
#    2.571    1.429    0.000    0.000    0.000    0.000 
#    0.000    0.000    0.000    0.000    0.000    0.000 
#
# Total GULP energy -311894.012247 kJ/mol
# GULP energy per Si atom -5569.535933 kJ/mol
# Density = 2.200984 g / cm^3
# Si number density = 22.060053 Si / 1000 Ang^3
#
#
#
# Elastic Constant Matrix: (Units=GPa)
#
#
# Indices 1 2 3 4 5 6 
#
# 1 37.6744 1.0672 30.4243 0.0000 0.0000 -0.3042
# 2 1.0672 37.6744 30.4243 0.0000 0.0000 0.3042
# 3 30.4243 30.4243 141.5909 0.0000 0.0000 0.0000
# 4 0.0000 0.0000 0.0000 19.1583 0.0000 0.0000
# 5 0.0000 0.0000 0.0000 0.0000 19.1583 0.0000
# 6 -0.3042 0.3042 0.0000 0.0000 0.0000 17.7771
#
#
#
# Elastic Compliance Matrix: (Units=1/GPa)
#
#
# Indices 1 2 3 4 5 6 
#
# 1 0.033143 0.005818 -0.008372 0.000000 0.000000 0.000468
# 2 0.005818 0.033143 -0.008372 0.000000 0.000000 -0.000468
# 3 -0.008372 -0.008372 0.010660 0.000000 0.000000 0.000000
# 4 0.000000 0.000000 0.000000 0.052197 0.000000 0.000000
# 5 0.000000 0.000000 0.000000 0.000000 0.052197 0.000000
# 6 0.000468 -0.000468 0.000000 0.000000 0.000000 0.056268
#
#
# Mechanical properties :
#
#
# Convention : Reuss Voigt Hill
#
# Bulk Modulus (GPa) = 18.15037 37.86348 28.00693
# Shear Modulus (GPa) = 17.99704 21.55366 19.77535
#
# Velocity S-wave (km/s) = 2.85936 3.12916 2.99730
# Velocity P-wave (km/s) = 4.37570 5.50060 4.97008
#
# Compressibility (1/GPa) = 0.05509528
#
# Stress axis : x y z
#
# Youngs Moduli (GPa) = 30.17242 30.17242 93.80563
#
# Poissons Ratio (x) = -0.17554 0.78531
# Poissons Ratio (y) = -0.17554 0.78531
# Poissons Ratio (z) = 0.25259 0.25259
#
# Static dielectric constant tensor:
#      x y z
#    x 2.011690 0.000000 0.000000 
#    y 0.000000 2.011690 0.000000 
#    z 0.000000 0.000000 1.987780 
# 
# From -- ./inp_files/2397.got.cif
#   From: 2010.05.17/outbox.cif.g08.bks.cpg/sg86_2_cif.got.tgz:2397.got - 2010.06.03 19:03:11.
