data_PCOD9544552
_publ_section_title
;
Structure prediction by ZEFSAII (Michael W. Deem and Ramdas Pophale) SiO2 
 PCOD9544552
Probable space group: P 4/N
;
_chemical_formula_sum "Si O2"
_cell_formula_units_Z 38
_cell_length_a 8.598846
_cell_length_b 8.598846
_cell_length_c 26.786861
_cell_angle_alpha 90.000000
_cell_angle_beta 90.000000
_cell_angle_gamma 90.000000
_cell_volume 1980.624588
_symmetry_space_group_name_H-M "P 4/N"
_symmetry_group_IT_number 85
_symmetry_cell_setting 'tetragonal'
loop_
_space_group_symop_operation_xyz
x,y,z
1/2-y,x,z
1/2-x,1/2-y,z
y,1/2-x,z
-x,-y,-z
1/2+y,-x,-z
1/2+x,1/2+y,-z
-y,1/2+x,-z
loop_
_atom_site_type_symbol
_atom_site_label
_atom_site_fract_x
_atom_site_fract_y
_atom_site_fract_z
Si Si1 0.506029 0.309720 0.084443
Si Si2 0.998264 0.841145 0.243011
Si Si3 0.479580 0.374078 0.648571
Si Si4 0.046583 0.411915 0.449409
Si Si5 0.250000 0.750000 0.000000
Si Si6 0.750000 0.250000 0.833230
O O1 0.363352 0.430158 0.085825
O O2 0.624188 0.331305 0.130617
O O3 0.613325 0.316425 0.035210
O O4 0.839102 0.940198 0.239279
O O5 0.061871 0.893621 0.297673
O O6 0.130063 0.846005 0.201294
O O7 0.309702 0.451518 0.648525
O O8 0.547718 0.440236 0.597948
O O9 0.041999 0.226532 0.447522
O O10 0.000000 0.500000 0.500000
#
# Coordination Sequence:
#
# PCOD9544552 Si02
#       6
#     8   8   8   8   2   4
#     4  10  21  36  54  81 115 147 188 243 295 348
#     4   9  19  35  54  78 108 142 183 227 268 323
#     4   9  19  36  57  80 106 138 178 223 269 319
#     4  11  24  39  56  81 110 139 176 221 270 329
#     4  10  20  36  60  80 104 152 200 238 296 358
#     4  11  20  33  56  82 110 151 190 227 286 350
#
# _framework density 19.185866000000001
#
# number of rings (size 3 to 8) (size 9 to 14) (size 15 to 20)
#    0.000    2.105    0.000    4.421    0.000    8.000 
#    0.000    0.000    0.000   12.632    0.000    0.000 
#    0.000    0.000    0.000    0.000    0.000    0.000 
#
# Total GULP energy -211628.593285 kJ/mol
# GULP energy per Si atom -5569.173508 kJ/mol
# Density = 1.914220 g / cm^3
# Si number density = 19.185866 Si / 1000 Ang^3
#
#
#
# Elastic Constant Matrix: (Units=GPa)
#
#
# Indices 1 2 3 4 5 6 
#
# 1 9.0370 36.4536 41.9652 0.0000 0.0000 -11.0403
# 2 36.4536 9.0370 41.9652 0.0000 0.0000 11.0403
# 3 41.9652 41.9652 165.0020 0.0000 0.0000 0.0000
# 4 0.0000 0.0000 0.0000 28.7643 0.0000 0.0000
# 5 0.0000 0.0000 0.0000 0.0000 28.7643 0.0000
# 6 -11.0403 11.0403 0.0000 0.0000 0.0000 22.4722
#
#
#
# Elastic Compliance Matrix: (Units=1/GPa)
#
#
# Indices 1 2 3 4 5 6 
#
# 1 0.007642 0.033776 -0.010534 0.000000 0.000000 -0.012839
# 2 0.033776 0.007642 -0.010534 0.000000 0.000000 0.012839
# 3 -0.010534 -0.010534 0.011419 0.000000 0.000000 0.000000
# 4 0.000000 0.000000 0.000000 0.034765 0.000000 0.000000
# 5 0.000000 0.000000 0.000000 0.000000 0.034765 0.000000
# 6 -0.012839 0.012839 0.000000 0.000000 0.000000 0.031884
#
#
# Mechanical properties :
#
#
# Convention : Reuss Voigt Hill
#
# Bulk Modulus (GPa) = 19.18708 47.09378 33.14043
# Shear Modulus (GPa) = 41.64118 20.17960 30.91039
#
# Velocity S-wave (km/s) = 4.66382 3.24666 4.01821
# Velocity P-wave (km/s) = 6.24692 6.21721 6.23208
#
# Compressibility (1/GPa) = 0.05211841
#
# Stress axis : x y z
#
# Youngs Moduli (GPa) = 130.86018 130.86018 87.57604
#
# Poissons Ratio (x) = -4.41988 0.92250
# Poissons Ratio (y) = -4.41988 0.92250
# Poissons Ratio (z) = 1.37845 1.37845
#
# Static dielectric constant tensor:
#      x y z
#    x 3.652720 0.000000 0.000000 
#    y 0.000000 3.652720 0.000000 
#    z 0.000000 0.000000 1.723870 
# 
# From -- ./inp_files/2330.got.cif
#   From: 2010.05.17/outbox.cif.g08.bks.cpg/sg85_cif.got.tgz:2330.got - 2010.06.03 19:01:16.
