data_PCOD9544908
_publ_section_title
;
Structure prediction by ZEFSAII (Michael W. Deem and Ramdas Pophale) SiO2 
 PCOD9544908
Probable space group: P 42/N
;
_chemical_formula_sum "Si O2"
_cell_formula_units_Z 34
_cell_length_a 8.660441
_cell_length_b 8.660441
_cell_length_c 23.506174
_cell_angle_alpha 90.000000
_cell_angle_beta 90.000000
_cell_angle_gamma 90.000000
_cell_volume 1763.039170
_symmetry_space_group_name_H-M "P 42/N"
_symmetry_group_IT_number 86
_space_group.IT_coordinate_system_code '2'
_symmetry_cell_setting 'tetragonal'
loop_
_space_group_symop_operation_xyz
x,y,z
-y,1/2+x,1/2+z
1/2-x,1/2-y,z
1/2+y,-x,1/2+z
-x,-y,-z
y,1/2-x,1/2-z
1/2+x,1/2+y,-z
1/2-y,x,1/2-z
loop_
_atom_site_type_symbol
_atom_site_label
_atom_site_fract_x
_atom_site_fract_y
_atom_site_fract_z
Si Si1 0.750000 0.750000 0.750000
Si Si2 0.191816 0.920713 0.312218
Si Si3 0.657234 0.898355 0.123505
Si Si4 0.798956 0.418158 0.446683
Si Si5 0.606295 0.075530 0.575087
O O1 0.581233 0.772097 0.780307
O O2 0.250000 0.750000 0.289125
O O3 0.280087 0.937118 0.372411
O O4 0.010456 0.906141 0.327578
O O5 0.750000 0.750000 0.147261
O O6 0.534234 0.820805 0.081780
O O7 0.769473 0.006094 0.085382
O O8 0.750000 0.250000 0.429807
O O9 0.807504 0.430501 0.515054
O O10 0.972914 0.447837 0.425690
#
# Coordination Sequence:
#
# PCOD9544908 Si02
#       5
#     2   8   8   8   8
#     4  12  28  48  72 104 120 176 240 284 344 390
#     4  10  23  47  65  90 131 165 211 286 328 379
#     4   9  19  38  61  87 127 168 204 252 324 394
#     4  10  19  31  56  97 122 168 209 237 312 408
#     4   9  20  37  56  85 134 164 202 258 315 378
#
# _framework density 19.284880999999999
#
# number of rings (size 3 to 8) (size 9 to 14) (size 15 to 20)
#    0.000    2.353    0.000    2.118    3.294    3.765 
#   19.059    0.000    0.000    0.000    0.000    0.000 
#    0.000    0.000    0.000    0.000    0.000    0.000 
#
# Total GULP energy -189418.191404 kJ/mol
# GULP energy per Si atom -5571.123277 kJ/mol
# Density = 1.924099 g / cm^3
# Si number density = 19.284881 Si / 1000 Ang^3
#
#
#
# Elastic Constant Matrix: (Units=GPa)
#
#
# Indices 1 2 3 4 5 6 
#
# 1 130.4486 71.7351 51.7331 0.0000 0.0000 -13.9890
# 2 71.7351 130.4486 51.7331 0.0000 0.0000 13.9890
# 3 51.7331 51.7331 32.6588 0.0000 0.0000 0.0000
# 4 0.0000 0.0000 0.0000 12.6453 0.0000 0.0000
# 5 0.0000 0.0000 0.0000 0.0000 12.6453 0.0000
# 6 -13.9890 13.9890 0.0000 0.0000 0.0000 21.1743
#
#
#
# Elastic Compliance Matrix: (Units=1/GPa)
#
#
# Indices 1 2 3 4 5 6 
#
# 1 0.025487 0.000630 -0.041371 0.000000 0.000000 0.016422
# 2 0.000630 0.025487 -0.041371 0.000000 0.000000 -0.016422
# 3 -0.041371 -0.041371 0.161686 0.000000 0.000000 0.000000
# 4 0.000000 0.000000 0.000000 0.079081 0.000000 0.000000
# 5 0.000000 0.000000 0.000000 0.000000 0.079081 0.000000
# 6 0.016422 -0.016422 0.000000 0.000000 0.000000 0.068926
#
#
# Mechanical properties :
#
#
# Convention : Reuss Voigt Hill
#
# Bulk Modulus (GPa) = 20.64530 71.55095 46.09813
# Shear Modulus (GPa) = 8.06299 17.18331 12.62315
#
# Velocity S-wave (km/s) = 2.04697 2.98824 2.56122
# Velocity P-wave (km/s) = 4.03924 7.00634 5.71857
#
# Compressibility (1/GPa) = 0.04843717
#
# Stress axis : x y z
#
# Youngs Moduli (GPa) = 39.23529 39.23529 6.18482
#
# Poissons Ratio (x) = -0.02472 0.25587
# Poissons Ratio (y) = -0.02472 0.25587
# Poissons Ratio (z) = 1.62320 1.62320
#
# Static dielectric constant tensor:
#      x y z
#    x 1.711530 0.000000 0.000000 
#    y 0.000000 1.711530 0.000000 
#    z 0.000000 0.000000 1.653420 
# 
# From -- ./inp_files/3978.got.cif
#   From: 2010.05.17/outbox.cif.g08.bks.cpg/sg86_2_cif.got.tgz:3978.got - 2010.06.03 19:03:11.
