data_PCOD9544326
_publ_section_title
;
Structure prediction by ZEFSAII (Michael W. Deem and Ramdas Pophale) SiO2 
 PCOD9544326
Probable space group: P 42/M
;
_chemical_formula_sum "Si O2"
_cell_formula_units_Z 48
_cell_length_a 8.961115
_cell_length_b 8.961115
_cell_length_c 27.658944
_cell_angle_alpha 90.000000
_cell_angle_beta 90.000000
_cell_angle_gamma 90.000000
_cell_volume 2221.056961
_symmetry_space_group_name_H-M "P 42/M"
_symmetry_group_IT_number 84
_symmetry_cell_setting 'tetragonal'
loop_
_space_group_symop_operation_xyz
x,y,z
-y,x,1/2+z
-x,-y,z
y,-x,1/2+z
-x,-y,-z
y,-x,1/2-z
x,y,-z
-y,x,1/2-z
loop_
_atom_site_type_symbol
_atom_site_label
_atom_site_fract_x
_atom_site_fract_y
_atom_site_fract_z
Si Si1 0.174084 0.279735 0.694895
Si Si2 0.928691 0.841140 0.943976
Si Si3 0.796369 0.827651 0.196867
Si Si4 0.670243 0.958619 0.644376
Si Si5 0.429861 0.162925 0.944499
Si Si6 0.463752 0.327699 0.151594
O O1 0.217005 0.217733 0.747429
O O2 0.216462 0.452132 0.688820
O O3 0.998541 0.248983 0.687310
O O4 0.285621 0.211085 0.654641
O O5 0.991692 0.713944 0.909243
O O6 0.749646 0.849503 0.940436
O O7 0.968255 0.815834 0.000000
O O8 0.000000 0.000000 0.929135
O O9 0.963100 0.791645 0.179739
O O10 0.706205 0.710461 0.164319
O O11 0.500000 0.000000 0.656116
O O12 0.486784 0.275015 0.903537
O O13 0.500000 0.000000 0.935492
O O14 0.465641 0.205804 0.000000
O O15 0.500000 0.500000 0.159375
#
# Coordination Sequence:
#
# PCOD9544326 Si02
#       6
#     8   8   8   8   8   8
#     4  12  27  43  73  97 134 184 231 284 339 412
#     4  10  22  43  72 102 135 176 225 282 339 408
#     4  12  25  46  69  97 134 181 236 279 342 409
#     4  12  26  43  67 103 139 176 226 286 342 405
#     4  10  22  44  72 101 134 178 228 277 340 417
#     4  12  28  45  67 104 142 179 220 289 351 410
#
# _framework density 21.611332000000001
#
# number of rings (size 3 to 8) (size 9 to 14) (size 15 to 20)
#    0.000    0.667    3.333    4.000    7.000    0.667 
#    0.000    0.000    0.000    0.000    0.000    0.000 
#    0.000    0.000    0.000    0.000    0.000    0.000 
#
# Total GULP energy -268307.076369 kJ/mol
# GULP energy per Si atom -5589.730758 kJ/mol
# Density = 2.156214 g / cm^3
# Si number density = 21.611332 Si / 1000 Ang^3
#
#
#
# Elastic Constant Matrix: (Units=GPa)
#
#
# Indices 1 2 3 4 5 6 
#
# 1 71.2928 6.0119 27.6854 0.0000 0.0000 -0.9470
# 2 6.0119 71.2928 27.6854 0.0000 0.0000 0.9470
# 3 27.6854 27.6854 99.9726 0.0000 0.0000 0.0000
# 4 0.0000 0.0000 0.0000 27.7345 0.0000 0.0000
# 5 0.0000 0.0000 0.0000 0.0000 27.7345 0.0000
# 6 -0.9470 0.9470 0.0000 0.0000 0.0000 31.9427
#
#
#
# Elastic Compliance Matrix: (Units=1/GPa)
#
#
# Indices 1 2 3 4 5 6 
#
# 1 0.015734 0.000403 -0.004469 0.000000 0.000000 0.000455
# 2 0.000403 0.015734 -0.004469 0.000000 0.000000 -0.000455
# 3 -0.004469 -0.004469 0.012478 0.000000 0.000000 0.000000
# 4 0.000000 0.000000 0.000000 0.036056 0.000000 0.000000
# 5 0.000000 0.000000 0.000000 0.000000 0.036056 0.000000
# 6 0.000455 -0.000455 0.000000 0.000000 0.000000 0.031333
#
#
# Mechanical properties :
#
#
# Convention : Reuss Voigt Hill
#
# Bulk Modulus (GPa) = 37.20770 40.59153 38.89961
# Shear Modulus (GPa) = 28.83176 29.56071 29.19623
#
# Velocity S-wave (km/s) = 3.65650 3.70244 3.67954
# Velocity P-wave (km/s) = 5.92290 6.09103 6.00756
#
# Compressibility (1/GPa) = 0.02687616
#
# Stress axis : x y z
#
# Youngs Moduli (GPa) = 63.55616 63.55616 80.14242
#
# Poissons Ratio (x) = -0.02558 0.35813
# Poissons Ratio (y) = -0.02558 0.35813
# Poissons Ratio (z) = 0.28401 0.28401
#
# Static dielectric constant tensor:
#      x y z
#    x 1.741000 0.000000 0.000000 
#    y 0.000000 1.741000 0.000000 
#    z 0.000000 0.000000 1.777480 
# 
# From -- ./inp_files/5772.got.cif
#   From: 2010.05.17/outbox.cif.g08.bks.cpg/sg84_3_cif.got.tgz:5772.got - 2010.06.03 18:57:40.
