data_PCOD9544364
_publ_section_title
;
Structure prediction by ZEFSAII (Michael W. Deem and Ramdas Pophale) SiO2 
 PCOD9544364
Probable space group: P 42/M
;
_chemical_formula_sum "Si O2"
_cell_formula_units_Z 40
_cell_length_a 13.686645
_cell_length_b 13.686645
_cell_length_c 9.660486
_cell_angle_alpha 90.000000
_cell_angle_beta 90.000000
_cell_angle_gamma 90.000000
_cell_volume 1809.643308
_symmetry_space_group_name_H-M "P 42/M"
_symmetry_group_IT_number 84
_symmetry_cell_setting 'tetragonal'
loop_
_space_group_symop_operation_xyz
x,y,z
-y,x,1/2+z
-x,-y,z
y,-x,1/2+z
-x,-y,-z
y,-x,1/2-z
x,y,-z
-y,x,1/2-z
loop_
_atom_site_type_symbol
_atom_site_label
_atom_site_fract_x
_atom_site_fract_y
_atom_site_fract_z
Si Si1 0.269026 0.182963 0.833253
Si Si2 0.474548 0.664240 0.000000
Si Si3 0.392958 0.771338 0.259868
Si Si4 0.384654 0.983145 0.844150
Si Si5 0.523075 0.337453 0.500000
Si Si6 0.093457 0.896656 0.832586
O O1 0.290605 0.295132 0.796725
O O2 0.186884 0.164129 0.716981
O O3 0.339790 0.089933 0.812313
O O4 0.242092 0.180708 0.000000
O O5 0.448640 0.734643 0.125527
O O6 0.578566 0.608443 0.000000
O O7 0.397224 0.576161 0.000000
O O8 0.369033 0.887045 0.250298
O O9 0.467432 0.736908 0.375150
O O10 0.500000 0.000000 0.848052
O O11 0.348369 0.957563 0.000000
O O12 0.994299 0.873060 0.747164
O O13 0.082520 0.907194 0.000000
#
# Coordination Sequence:
#
# PCOD9544364 Si02
#       6
#     8   4   8   8   4   8
#     4  11  24  42  65  95 138 184 233 293 354 435
#     4  11  26  44  75 103 143 188 247 301 365 453
#     4  12  24  44  74 103 144 193 244 299 374 437
#     4  10  24  44  69 100 138 189 242 294 363 440
#     4  11  26  46  69 109 145 184 241 311 369 429
#     4  11  22  38  63  90 126 169 226 289 351 417
#
# _framework density 22.103805999999999
#
# number of rings (size 3 to 8) (size 9 to 14) (size 15 to 20)
#    0.000    1.000    2.000    4.800    7.000    3.200 
#    1.800    0.500    0.000    0.000    0.000    0.000 
#    0.000    0.000    0.000    0.000    0.000    0.000 
#
# Total GULP energy -222883.299735 kJ/mol
# GULP energy per Si atom -5572.082493 kJ/mol
# Density = 2.205350 g / cm^3
# Si number density = 22.103806 Si / 1000 Ang^3
#
#
#
# Elastic Constant Matrix: (Units=GPa)
#
#
# Indices 1 2 3 4 5 6 
#
# 1 101.9632 -27.4024 17.3677 0.0000 0.0000 -32.8525
# 2 -27.4024 101.9632 17.3677 0.0000 0.0000 32.8525
# 3 17.3677 17.3677 171.9003 0.0000 0.0000 0.0000
# 4 0.0000 0.0000 0.0000 -411.2231 0.0000 0.0000
# 5 0.0000 0.0000 0.0000 0.0000 -411.2231 0.0000
# 6 -32.8525 32.8525 0.0000 0.0000 0.0000 73.5829
#
#
#
# Elastic Compliance Matrix: (Units=1/GPa)
#
#
# Indices 1 2 3 4 5 6 
#
# 1 0.012036 0.002039 -0.001422 0.000000 0.000000 0.004463
# 2 0.002039 0.012036 -0.001422 0.000000 0.000000 -0.004463
# 3 -0.001422 -0.001422 0.006105 0.000000 0.000000 0.000000
# 4 0.000000 0.000000 0.000000 -0.002432 0.000000 0.000000
# 5 0.000000 0.000000 0.000000 0.000000 -0.002432 0.000000
# 6 0.004463 -0.004463 0.000000 0.000000 0.000000 0.017576
#
#
# Mechanical properties :
#
#
# Convention : Reuss Voigt Hill
#
# Bulk Modulus (GPa) = 35.00740 43.38807 39.19774
# Shear Modulus (GPa) = 92.55773 -125.20641 -16.32434
#
# Velocity S-wave (km/s) = 6.47804 -7.53443 -2.72054
# Velocity P-wave (km/s) = 8.47499 7.48455 2.81132
#
# Compressibility (1/GPa) = 0.02856539
#
# Stress axis : x y z
#
# Youngs Moduli (GPa) = 83.08657 83.08657 163.80924
#
# Poissons Ratio (x) = -0.16939 0.23293
# Poissons Ratio (y) = -0.16939 0.23293
# Poissons Ratio (z) = 0.11815 0.11815
#
# Static dielectric constant tensor:
#      x y z
#    x 1.926720 0.000000 0.000000 
#    y 0.000000 1.926720 0.000000 
#    z 0.000000 0.000000 1.740320 
# 
# From -- ./inp_files/849.got.cif
#   From: 2010.05.17/outbox.cif.g08.bks.cpg/sg84_1_cif.got.tgz:849.got - 2010.06.03 18:57:40.
