data_PCOD9544153
_publ_section_title
;
Structure prediction by ZEFSAII (Michael W. Deem and Ramdas Pophale) SiO2 
 PCOD9544153
Probable space group: P 42/M
;
_chemical_formula_sum "Si O2"
_cell_formula_units_Z 40
_cell_length_a 15.390687
_cell_length_b 15.390687
_cell_length_c 8.059715
_cell_angle_alpha 90.000000
_cell_angle_beta 90.000000
_cell_angle_gamma 90.000000
_cell_volume 1909.130857
_symmetry_space_group_name_H-M "P 42/M"
_symmetry_group_IT_number 84
_symmetry_cell_setting 'tetragonal'
loop_
_space_group_symop_operation_xyz
x,y,z
-y,x,1/2+z
-x,-y,z
y,-x,1/2+z
-x,-y,-z
y,-x,1/2-z
x,y,-z
-y,x,1/2-z
loop_
_atom_site_type_symbol
_atom_site_label
_atom_site_fract_x
_atom_site_fract_y
_atom_site_fract_z
Si Si1 0.448726 0.087882 0.297372
Si Si2 0.600430 0.209723 0.299826
Si Si3 0.398770 0.416948 0.685179
Si Si4 0.114023 0.226261 0.199834
Si Si5 0.249143 0.078766 0.700103
O O1 0.447123 0.087143 0.500000
O O2 0.508583 0.168966 0.245576
O O3 0.348858 0.091434 0.240858
O O4 0.500000 0.000000 0.248136
O O5 0.599301 0.213662 0.500000
O O6 0.618141 0.305428 0.233065
O O7 0.678531 0.146890 0.247934
O O8 0.392263 0.521576 0.697446
O O9 0.423212 0.389606 0.500000
O O10 0.183073 0.154354 0.252550
O O11 0.015257 0.214846 0.259084
O O12 0.112114 0.226296 0.000000
O O13 0.253400 0.076420 0.500000
#
# Coordination Sequence:
#
# PCOD9544153 Si02
#       5
#     8   8   8   8   8
#     4   9  16  33  61  86 110 145 190 236 284 344
#     4  10  20  36  59  87 118 150 190 242 298 354
#     4  11  23  40  59  82 116 156 198 239 286 343
#     4  10  22  39  59  85 120 155 196 251 303 353
#     4  10  21  38  61  88 115 153 201 245 294 357
#
# _framework density 20.951943
#
# number of rings (size 3 to 8) (size 9 to 14) (size 15 to 20)
#    0.000    2.000    2.000    2.400    2.800    2.000 
#    0.000    2.000    0.000    1.200    0.000    0.000 
#    0.000    0.000    0.000    0.000    0.000    0.000 
#
# Total GULP energy -223410.596678 kJ/mol
# GULP energy per Si atom -5585.264917 kJ/mol
# Density = 2.090426 g / cm^3
# Si number density = 20.951943 Si / 1000 Ang^3
#
#
#
# Elastic Constant Matrix: (Units=GPa)
#
#
# Indices 1 2 3 4 5 6 
#
# 1 102.6075 51.3915 8.1382 0.0000 0.0000 13.2632
# 2 51.3915 102.6075 8.1382 0.0000 0.0000 -13.2632
# 3 8.1382 8.1382 17.5641 0.0000 0.0000 0.0000
# 4 0.0000 0.0000 0.0000 20.6801 0.0000 0.0000
# 5 0.0000 0.0000 0.0000 0.0000 20.6801 0.0000
# 6 13.2632 -13.2632 0.0000 0.0000 0.0000 33.8336
#
#
#
# Elastic Compliance Matrix: (Units=1/GPa)
#
#
# Indices 1 2 3 4 5 6 
#
# 1 0.015664 -0.008836 -0.003164 0.000000 0.000000 -0.009604
# 2 -0.008836 0.015664 -0.003164 0.000000 0.000000 0.009604
# 3 -0.003164 -0.003164 0.059866 0.000000 0.000000 0.000000
# 4 0.000000 0.000000 0.000000 0.048356 0.000000 0.000000
# 5 0.000000 0.000000 0.000000 0.000000 0.048356 0.000000
# 6 -0.009604 0.009604 0.000000 0.000000 0.000000 0.037086
#
#
# Mechanical properties :
#
#
# Convention : Reuss Voigt Hill
#
# Bulk Modulus (GPa) = 16.42919 39.79055 28.10987
# Shear Modulus (GPa) = 18.14182 25.37949 21.76066
#
# Velocity S-wave (km/s) = 2.94577 3.48418 3.22623
# Velocity P-wave (km/s) = 4.40778 5.93452 5.22719
#
# Compressibility (1/GPa) = 0.06086726
#
# Stress axis : x y z
#
# Youngs Moduli (GPa) = 63.84201 63.84201 16.70393
#
# Poissons Ratio (x) = 0.56409 0.05285
# Poissons Ratio (y) = 0.56409 0.05285
# Poissons Ratio (z) = 0.20198 0.20198
#
# Static dielectric constant tensor:
#      x y z
#    x 1.740420 0.000000 0.000000 
#    y 0.000000 1.740420 0.000000 
#    z 0.000000 0.000000 1.759230 
# 
# From -- ./inp_files/764.got.cif
#   From: 2010.05.17/outbox.cif.g08.bks.cpg/sg84_1_cif.got.tgz:764.got - 2010.06.03 18:57:40.
