data_PCOD9544483
_publ_section_title
;
Structure prediction by ZEFSAII (Michael W. Deem and Ramdas Pophale) SiO2 
 PCOD9544483
Probable space group: P 4/N
;
_chemical_formula_sum "Si O2"
_cell_formula_units_Z 56
_cell_length_a 15.353546
_cell_length_b 15.353546
_cell_length_c 11.807583
_cell_angle_alpha 90.000000
_cell_angle_beta 90.000000
_cell_angle_gamma 90.000000
_cell_volume 2783.417773
_symmetry_space_group_name_H-M "P 4/N"
_symmetry_group_IT_number 85
_symmetry_cell_setting 'tetragonal'
loop_
_space_group_symop_operation_xyz
x,y,z
1/2-y,x,z
1/2-x,1/2-y,z
y,1/2-x,z
-x,-y,-z
1/2+y,-x,-z
1/2+x,1/2+y,-z
-y,1/2+x,-z
loop_
_atom_site_type_symbol
_atom_site_label
_atom_site_fract_x
_atom_site_fract_y
_atom_site_fract_z
Si Si1 0.998772 0.546182 0.329155
Si Si2 0.397045 0.873935 0.625511
Si Si3 0.764806 0.973148 0.106152
Si Si4 0.884913 0.701994 0.348562
Si Si5 0.566452 0.942225 0.068484
Si Si6 0.316524 0.905197 0.387206
Si Si7 0.342708 0.753568 0.205782
O O1 0.954396 0.460213 0.378135
O O2 0.965281 0.638640 0.383168
O O3 0.965206 0.551906 0.199633
O O4 0.101790 0.539169 0.344119
O O5 0.334819 0.879659 0.516401
O O6 0.443455 0.780139 0.623029
O O7 0.337136 0.872520 0.737659
O O8 0.775651 0.910758 0.217068
O O9 0.666975 0.968548 0.062795
O O10 0.842606 0.941906 0.027234
O O11 0.784764 0.073311 0.138168
O O12 0.856941 0.800404 0.381202
O O13 0.500000 0.000000 0.000000
O O14 0.321910 0.820025 0.307933
O O15 0.250000 0.750000 0.142658
#
# Coordination Sequence:
#
# PCOD9544483 Si02
#       7
#     8   8   8   8   8   8   8
#     4  11  22  38  58  84 119 149 197 247 290 345
#     4  11  21  35  55  86 121 158 196 237 286 343
#     4  11  19  40  62  82 117 145 192 245 296 354
#     4  10  17  29  57  85 107 142 180 233 292 329
#     4  11  24  41  59  87 114 148 192 247 296 352
#     4  11  21  34  57  85 120 159 197 235 285 348
#     4  10  19  32  55  85 118 160 191 230 285 348
#
# _framework density 20.119150999999999
#
# number of rings (size 3 to 8) (size 9 to 14) (size 15 to 20)
#    0.000    1.286    8.571    0.429    0.000    0.286 
#    5.143    0.000    0.000    0.429    0.000    0.000 
#    0.000    0.000    0.000    0.000    0.000    0.000 
#
# Total GULP energy -312028.966463 kJ/mol
# GULP energy per Si atom -5571.945830 kJ/mol
# Density = 2.007336 g / cm^3
# Si number density = 20.119151 Si / 1000 Ang^3
#
#
#
# Elastic Constant Matrix: (Units=GPa)
#
#
# Indices 1 2 3 4 5 6 
#
# 1 116.6988 34.9742 12.8917 0.0000 0.0000 -3.0003
# 2 34.9742 116.6988 12.8917 0.0000 0.0000 3.0003
# 3 12.8917 12.8917 18.1895 0.0000 0.0000 0.0000
# 4 0.0000 0.0000 0.0000 8.8547 0.0000 0.0000
# 5 0.0000 0.0000 0.0000 0.0000 8.8547 0.0000
# 6 -3.0003 3.0003 0.0000 0.0000 0.0000 22.5880
#
#
#
# Elastic Compliance Matrix: (Units=1/GPa)
#
#
# Indices 1 2 3 4 5 6 
#
# 1 0.009927 -0.002430 -0.005313 0.000000 0.000000 0.001641
# 2 -0.002430 0.009927 -0.005313 0.000000 0.000000 -0.001641
# 3 -0.005313 -0.005313 0.062508 0.000000 0.000000 0.000000
# 4 0.000000 0.000000 0.000000 0.112935 0.000000 0.000000
# 5 0.000000 0.000000 0.000000 0.000000 0.112935 0.000000
# 6 0.001641 -0.001641 0.000000 0.000000 0.000000 0.044707
#
#
# Mechanical properties :
#
#
# Convention : Reuss Voigt Hill
#
# Bulk Modulus (GPa) = 17.77822 41.45579 29.61700
# Shear Modulus (GPa) = 12.56915 20.78143 16.67529
#
# Velocity S-wave (km/s) = 2.50218 3.21739 2.88206
# Velocity P-wave (km/s) = 4.14772 5.86958 5.08210
#
# Compressibility (1/GPa) = 0.05624860
#
# Stress axis : x y z
#
# Youngs Moduli (GPa) = 100.74030 100.74030 15.99801
#
# Poissons Ratio (x) = 0.24482 0.08500
# Poissons Ratio (y) = 0.24482 0.08500
# Poissons Ratio (z) = 0.53523 0.53523
#
# Static dielectric constant tensor:
#      x y z
#    x 1.770970 0.000000 0.000000 
#    y 0.000000 1.770970 0.000000 
#    z 0.000000 0.000000 1.739450 
# 
# From -- ./inp_files/1752.got.cif
#   From: 2010.05.17/outbox.cif.g08.bks.cpg/sg85_cif.got.tgz:1752.got - 2010.06.03 19:01:16.
