data_PCOD9544893
_publ_section_title
;
Structure prediction by ZEFSAII (Michael W. Deem and Ramdas Pophale) SiO2 
 PCOD9544893
Probable space group: P 42/N
;
_chemical_formula_sum "Si O2"
_cell_formula_units_Z 40
_cell_length_a 13.275678
_cell_length_b 13.275678
_cell_length_c 12.294679
_cell_angle_alpha 90.000000
_cell_angle_beta 90.000000
_cell_angle_gamma 90.000000
_cell_volume 2166.858812
_symmetry_space_group_name_H-M "P 42/N"
_symmetry_group_IT_number 86
_space_group.IT_coordinate_system_code '2'
_symmetry_cell_setting 'tetragonal'
loop_
_space_group_symop_operation_xyz
x,y,z
-y,1/2+x,1/2+z
1/2-x,1/2-y,z
1/2+y,-x,1/2+z
-x,-y,-z
y,1/2-x,1/2-z
1/2+x,1/2+y,-z
1/2-y,x,1/2-z
loop_
_atom_site_type_symbol
_atom_site_label
_atom_site_fract_x
_atom_site_fract_y
_atom_site_fract_z
Si Si1 0.409689 0.431244 0.222676
Si Si2 0.642780 0.991207 0.323522
Si Si3 0.602995 0.055598 0.543420
Si Si4 0.717772 0.867471 0.911106
Si Si5 0.283273 0.464766 0.877057
O O1 0.451637 0.544546 0.224741
O O2 0.493496 0.369767 0.151425
O O3 0.386845 0.380070 0.337709
O O4 0.309074 0.423673 0.150921
O O5 0.609257 0.876959 0.351068
O O6 0.727242 0.989013 0.233371
O O7 0.672572 0.042581 0.438571
O O8 0.565805 0.166073 0.573891
O O9 0.500000 0.000000 0.500000
O O10 0.750000 0.750000 0.911861
O O11 0.714597 0.911323 0.032344
#
# Coordination Sequence:
#
# PCOD9544893 Si02
#       5
#     8   8   8   8   8
#     4  10  18  34  53  81 110 149 179 221 281 346
#     4  10  20  35  57  81 111 147 185 235 283 333
#     4   8  16  36  55  72 106 152 178 217 280 330
#     4  12  20  31  56  89 111 141 184 232 292 338
#     4  10  21  34  55  85 112 145 187 232 293 333
#
# _framework density 18.459900999999999
#
# number of rings (size 3 to 8) (size 9 to 14) (size 15 to 20)
#    0.000    2.400    8.000    0.000    2.800    0.800 
#    0.000    0.000    0.000    4.800    0.000    0.000 
#    0.000    0.000    0.000    0.000    0.000    0.000 
#
# Total GULP energy -222833.510171 kJ/mol
# GULP energy per Si atom -5570.837754 kJ/mol
# Density = 1.841789 g / cm^3
# Si number density = 18.459901 Si / 1000 Ang^3
#
#
#
# Elastic Constant Matrix: (Units=GPa)
#
#
# Indices 1 2 3 4 5 6 
#
# 1 23.0693 9.5416 24.6683 0.0000 0.0000 2.7674
# 2 9.5416 23.0693 24.6683 0.0000 0.0000 -2.7674
# 3 24.6683 24.6683 108.0839 0.0000 0.0000 0.0000
# 4 0.0000 0.0000 0.0000 31.9608 0.0000 0.0000
# 5 0.0000 0.0000 0.0000 0.0000 31.9608 0.0000
# 6 2.7674 -2.7674 0.0000 0.0000 0.0000 11.4952
#
#
#
# Elastic Compliance Matrix: (Units=1/GPa)
#
#
# Indices 1 2 3 4 5 6 
#
# 1 0.064418 -0.017581 -0.010690 0.000000 0.000000 -0.019741
# 2 -0.017581 0.064418 -0.010690 0.000000 0.000000 0.019741
# 3 -0.010690 -0.010690 0.014132 0.000000 0.000000 0.000000
# 4 0.000000 0.000000 0.000000 0.031288 0.000000 0.000000
# 5 0.000000 0.000000 0.000000 0.000000 0.031288 0.000000
# 6 -0.019741 0.019741 0.000000 0.000000 0.000000 0.096497
#
#
# Mechanical properties :
#
#
# Convention : Reuss Voigt Hill
#
# Bulk Modulus (GPa) = 15.37363 30.21991 22.79677
# Shear Modulus (GPa) = 12.44879 21.43965 16.94422
#
# Velocity S-wave (km/s) = 2.59968 3.41165 3.03296
# Velocity P-wave (km/s) = 4.16621 5.65025 4.96400
#
# Compressibility (1/GPa) = 0.06504644
#
# Stress axis : x y z
#
# Youngs Moduli (GPa) = 15.52358 15.52358 70.76353
#
# Poissons Ratio (x) = 0.27292 0.75644
# Poissons Ratio (y) = 0.27292 0.75644
# Poissons Ratio (z) = 0.16594 0.16594
#
# Static dielectric constant tensor:
#      x y z
#    x 1.659590 0.000000 0.000000 
#    y 0.000000 1.659590 0.000000 
#    z 0.000000 0.000000 1.697330 
# 
# From -- ./inp_files/2116.got.cif
#   From: 2010.05.17/outbox.cif.g08.bks.cpg/sg86_2_cif.got.tgz:2116.got - 2010.06.03 19:03:11.
