data_PCOD9544045
_publ_section_title
;
Structure prediction by ZEFSAII (Michael W. Deem and Ramdas Pophale) SiO2 
 PCOD9544045
Probable space group: P 42/M
;
_chemical_formula_sum "Si O2"
_cell_formula_units_Z 64
_cell_length_a 20.883675
_cell_length_b 20.883675
_cell_length_c 9.064884
_cell_angle_alpha 90.000000
_cell_angle_beta 90.000000
_cell_angle_gamma 90.000000
_cell_volume 3953.448655
_symmetry_space_group_name_H-M "P 42/M"
_symmetry_group_IT_number 84
_symmetry_cell_setting 'tetragonal'
loop_
_space_group_symop_operation_xyz
x,y,z
-y,x,1/2+z
-x,-y,z
y,-x,1/2+z
-x,-y,-z
y,-x,1/2-z
x,y,-z
-y,x,1/2-z
loop_
_atom_site_type_symbol
_atom_site_label
_atom_site_fract_x
_atom_site_fract_y
_atom_site_fract_z
Si Si1 0.853552 0.576360 0.177649
Si Si2 0.317632 0.215616 0.171824
Si Si3 0.253528 0.999538 0.333284
Si Si4 0.442798 0.133424 0.177639
Si Si5 0.597062 0.996064 0.670417
Si Si6 0.119584 0.207427 0.335055
Si Si7 0.799715 0.885284 0.167801
Si Si8 0.769411 0.685779 0.331233
O O1 0.840443 0.507207 0.247938
O O2 0.803672 0.628459 0.241600
O O3 0.929047 0.590503 0.214853
O O4 0.849571 0.576140 0.000000
O O5 0.381925 0.178118 0.220672
O O6 0.260784 0.162913 0.177485
O O7 0.291671 0.277779 0.259481
O O8 0.325884 0.233527 0.000000
O O9 0.240326 0.977835 0.500000
O O10 0.241910 0.943867 0.217408
O O11 0.327595 0.018762 0.326646
O O12 0.211570 0.059047 0.283998
O O13 0.434755 0.059867 0.233584
O O14 0.446859 0.133299 0.000000
O O15 0.574803 0.990501 0.500000
O O16 0.113865 0.180974 0.500000
O O17 0.138712 0.154430 0.216398
O O18 0.176135 0.259364 0.335595
O O19 0.803260 0.908864 0.000000
O O20 0.755867 0.666101 0.500000
#
# Coordination Sequence:
#
# PCOD9544045 Si02
#       8
#     8   8   8   8   8   8   8   8
#     4  11  22  36  51  71 103 142 176 209 253 301
#     4   9  19  34  51  71  99 131 165 207 255 298
#     4  11  20  32  51  73  98 128 165 208 251 302
#     4  11  22  35  51  74 103 138 176 213 252 297
#     4  10  21  34  48  69 100 139 177 209 247 296
#     4  10  20  33  50  73  97 124 161 207 257 304
#     4  10  19  33  51  72  96 125 162 206 257 304
#     4  10  20  33  52  75  98 127 168 213 252 294
#
# _framework density 16.188399
#
# number of rings (size 3 to 8) (size 9 to 14) (size 15 to 20)
#    0.000    1.750    2.500    2.625    0.000    5.500 
#    0.000    0.000    0.000    0.375    0.000    2.625 
#    0.000    0.500    0.000    5.250    0.000    2.250 
#
# Total GULP energy -356785.931069 kJ/mol
# GULP energy per Si atom -5574.780173 kJ/mol
# Density = 1.615155 g / cm^3
# Si number density = 16.188399 Si / 1000 Ang^3
#
#
#
# Elastic Constant Matrix: (Units=GPa)
#
#
# Indices 1 2 3 4 5 6 
#
# 1 49.0706 24.2789 31.5531 0.0000 0.0000 -3.4408
# 2 24.2789 49.0706 31.5531 0.0000 0.0000 3.4408
# 3 31.5531 31.5531 67.2359 0.0000 0.0000 0.0000
# 4 0.0000 0.0000 0.0000 24.3778 0.0000 0.0000
# 5 0.0000 0.0000 0.0000 0.0000 24.3778 0.0000
# 6 -3.4408 3.4408 0.0000 0.0000 0.0000 12.7745
#
#
#
# Elastic Compliance Matrix: (Units=1/GPa)
#
#
# Indices 1 2 3 4 5 6 
#
# 1 0.033230 -0.010365 -0.010730 0.000000 0.000000 0.011742
# 2 -0.010365 0.033230 -0.010730 0.000000 0.000000 -0.011742
# 3 -0.010730 -0.010730 0.024944 0.000000 0.000000 0.000000
# 4 0.000000 0.000000 0.000000 0.041021 0.000000 0.000000
# 5 0.000000 0.000000 0.000000 0.000000 0.041021 0.000000
# 6 0.011742 -0.011742 0.000000 0.000000 0.000000 0.084606
#
#
# Mechanical properties :
#
#
# Convention : Reuss Voigt Hill
#
# Bulk Modulus (GPa) = 36.03189 37.79415 36.91302
# Shear Modulus (GPa) = 15.10772 17.50548 16.30660
#
# Velocity S-wave (km/s) = 3.05822 3.29197 3.17724
# Velocity P-wave (km/s) = 5.89715 6.15195 6.02590
#
# Compressibility (1/GPa) = 0.02775320
#
# Stress axis : x y z
#
# Youngs Moduli (GPa) = 30.09293 30.09293 40.08920
#
# Poissons Ratio (x) = 0.31192 0.43018
# Poissons Ratio (y) = 0.31192 0.43018
# Poissons Ratio (z) = 0.32291 0.32291
#
# Static dielectric constant tensor:
#      x y z
#    x 1.534180 0.000000 0.000000 
#    y 0.000000 1.534180 0.000000 
#    z 0.000000 0.000000 1.551590 
# 
# From -- ./inp_files/1407.got.cif
#   From: 2010.05.17/outbox.cif.g08.bks.cpg/sg84_1_cif.got.tgz:1407.got - 2010.06.03 18:57:40.
