data_PCOD9544248
_publ_section_title
;
Structure prediction by ZEFSAII (Michael W. Deem and Ramdas Pophale) SiO2 
 PCOD9544248
Probable space group: P 42/M
;
_chemical_formula_sum "Si O2"
_cell_formula_units_Z 40
_cell_length_a 8.298677
_cell_length_b 8.298677
_cell_length_c 25.236127
_cell_angle_alpha 90.000000
_cell_angle_beta 90.000000
_cell_angle_gamma 90.000000
_cell_volume 1737.962602
_symmetry_space_group_name_H-M "P 42/M"
_symmetry_group_IT_number 84
_symmetry_cell_setting 'tetragonal'
loop_
_space_group_symop_operation_xyz
x,y,z
-y,x,1/2+z
-x,-y,z
y,-x,1/2+z
-x,-y,-z
y,-x,1/2-z
x,y,-z
-y,x,1/2-z
loop_
_atom_site_type_symbol
_atom_site_label
_atom_site_fract_x
_atom_site_fract_y
_atom_site_fract_z
Si Si1 0.270369 0.478771 0.772550
Si Si2 0.820166 0.931302 0.000000
Si Si3 0.318462 0.077130 0.113472
Si Si4 0.047921 0.230443 0.725537
Si Si5 0.458150 0.811662 0.500000
Si Si6 0.194291 0.457671 0.113637
O O1 0.337131 0.597431 0.728425
O O2 0.118347 0.392490 0.748541
O O3 0.256262 0.538171 0.832307
O O4 0.740160 0.981122 0.055578
O O5 0.809837 0.736236 0.000000
O O6 0.000000 0.000000 0.000000
O O7 0.259694 0.269328 0.116058
O O8 0.500000 0.000000 0.117989
O O9 0.233176 0.003992 0.165142
O O10 0.905353 0.180424 0.764647
O O11 0.517939 0.743751 0.556241
O O12 0.500000 0.000000 0.500000
O O13 0.000000 0.500000 0.114015
#
# Coordination Sequence:
#
# PCOD9544248 Si02
#       6
#     8   4   8   8   4   8
#     4  11  25  42  62  93 132 180 225 283 362 436
#     4  10  23  39  68 103 141 178 238 299 366 435
#     4  11  23  44  68 101 140 185 235 299 370 438
#     4  11  25  38  62  95 132 170 235 286 360 422
#     4   8  18  39  62  94 121 170 224 279 341 408
#     4  10  21  38  70  96 129 181 234 292 358 438
#
# _framework density 23.015456
#
# number of rings (size 3 to 8) (size 9 to 14) (size 15 to 20)
#    0.000    1.600    2.000    1.500    5.600    0.000 
#    3.600    0.000    0.000    2.400    0.000    0.000 
#    0.000    0.000    0.000    0.000    0.000    0.000 
#
# Total GULP energy -222795.894595 kJ/mol
# GULP energy per Si atom -5569.897365 kJ/mol
# Density = 2.296307 g / cm^3
# Si number density = 23.015456 Si / 1000 Ang^3
#
#
#
# Elastic Constant Matrix: (Units=GPa)
#
#
# Indices 1 2 3 4 5 6 
#
# 1 -56.1109 168.6595 27.1455 0.0000 0.0000 -33.9476
# 2 168.6595 -56.1109 27.1455 0.0000 0.0000 33.9476
# 3 27.1455 27.1455 253.2147 0.0000 0.0000 0.0000
# 4 0.0000 0.0000 0.0000 -354.4824 0.0000 0.0000
# 5 0.0000 0.0000 0.0000 0.0000 -354.4824 0.0000
# 6 -33.9476 33.9476 0.0000 0.0000 0.0000 48.3567
#
#
#
# Elastic Compliance Matrix: (Units=1/GPa)
#
#
# Indices 1 2 3 4 5 6 
#
# 1 0.002849 0.006520 -0.001004 0.000000 0.000000 -0.002577
# 2 0.006520 0.002849 -0.001004 0.000000 0.000000 0.002577
# 3 -0.001004 -0.001004 0.004165 0.000000 0.000000 0.000000
# 4 0.000000 0.000000 0.000000 -0.002821 0.000000 0.000000
# 5 0.000000 0.000000 0.000000 0.000000 -0.002821 0.000000
# 6 -0.002577 0.002577 0.000000 0.000000 0.000000 0.017062
#
#
# Mechanical properties :
#
#
# Convention : Reuss Voigt Hill
#
# Bulk Modulus (GPa) = 52.94949 65.21044 59.07997
# Shear Modulus (GPa) = 269.45367 -137.58548 65.93409
#
# Velocity S-wave (km/s) = 10.83186 -7.74011 5.35817
# Velocity P-wave (km/s) = 13.39757 7.17526 8.00033
#
# Compressibility (1/GPa) = 0.01888592
#
# Stress axis : x y z
#
# Youngs Moduli (GPa) = 350.94058 350.94058 240.12024
#
# Poissons Ratio (x) = -2.28816 0.24119
# Poissons Ratio (y) = -2.28816 0.24119
# Poissons Ratio (z) = 0.35250 0.35250
#
# Static dielectric constant tensor:
#      x y z
#    x 1.986340 0.000000 0.000000 
#    y 0.000000 1.986340 0.000000 
#    z 0.000000 0.000000 1.814670 
# 
# From -- ./inp_files/4890.got.cif
#   From: 2010.05.17/outbox.cif.g08.bks.cpg/sg84_3_cif.got.tgz:4890.got - 2010.06.03 18:57:40.
