data_PCOD9544511
_publ_section_title
;
Structure prediction by ZEFSAII (Michael W. Deem and Ramdas Pophale) SiO2 
 PCOD9544511
Probable space group: P 4/N
;
_chemical_formula_sum "Si O2"
_cell_formula_units_Z 42
_cell_length_a 14.670532
_cell_length_b 14.670532
_cell_length_c 9.805755
_cell_angle_alpha 90.000000
_cell_angle_beta 90.000000
_cell_angle_gamma 90.000000
_cell_volume 2110.438807
_symmetry_space_group_name_H-M "P 4/N"
_symmetry_group_IT_number 85
_symmetry_cell_setting 'tetragonal'
loop_
_space_group_symop_operation_xyz
x,y,z
1/2-y,x,z
1/2-x,1/2-y,z
y,1/2-x,z
-x,-y,-z
1/2+y,-x,-z
1/2+x,1/2+y,-z
-y,1/2+x,-z
loop_
_atom_site_type_symbol
_atom_site_label
_atom_site_fract_x
_atom_site_fract_y
_atom_site_fract_z
Si Si1 0.091272 0.553648 0.728254
Si Si2 0.295569 0.595932 0.828416
Si Si3 0.638195 0.151808 0.531691
Si Si4 0.365681 0.344895 0.826657
Si Si5 0.250000 0.750000 0.000000
Si Si6 0.898016 0.970427 0.959685
O O1 0.187396 0.587531 0.796738
O O2 0.092857 0.581787 0.571665
O O3 0.008100 0.603143 0.806658
O O4 0.099475 0.444754 0.749702
O O5 0.344139 0.596877 0.682387
O O6 0.313309 0.692242 0.901140
O O7 0.330645 0.525008 0.939781
O O8 0.631104 0.253501 0.467197
O O9 0.262048 0.372662 0.794153
O O10 0.383457 0.367417 0.987713
O O11 0.000000 0.000000 0.000000
#
# Coordination Sequence:
#
# PCOD9544511 Si02
#       6
#     8   8   8   8   2   8
#     4  10  19  35  56  83 117 148 191 238 290 354
#     4  11  19  32  54  84 118 152 184 231 291 356
#     4   9  19  33  52  83 122 153 179 220 288 363
#     4  10  20  36  58  82 109 149 201 252 292 336
#     4  12  20  28  58  92 120 152 190 236 300 360
#     4  10  21  35  54  85 113 143 190 241 285 345
#
# _framework density 19.901074999999999
#
# number of rings (size 3 to 8) (size 9 to 14) (size 15 to 20)
#    0.000    1.905    3.810    2.286    0.000    0.000 
#    0.000    3.810    0.000    0.000    0.000    0.000 
#    0.000    0.000    0.000    0.000    0.000    0.000 
#
# Total GULP energy -234001.087246 kJ/mol
# GULP energy per Si atom -5571.454458 kJ/mol
# Density = 1.985578 g / cm^3
# Si number density = 19.901075 Si / 1000 Ang^3
#
#
#
# Elastic Constant Matrix: (Units=GPa)
#
#
# Indices 1 2 3 4 5 6 
#
# 1 59.6937 -1.1559 30.9746 0.0000 0.0000 -4.7677
# 2 -1.1559 59.6937 30.9746 0.0000 0.0000 4.7677
# 3 30.9746 30.9746 87.2631 0.0000 0.0000 0.0000
# 4 0.0000 0.0000 0.0000 25.9936 0.0000 0.0000
# 5 0.0000 0.0000 0.0000 0.0000 25.9936 0.0000
# 6 -4.7677 4.7677 0.0000 0.0000 0.0000 22.0923
#
#
#
# Elastic Compliance Matrix: (Units=1/GPa)
#
#
# Indices 1 2 3 4 5 6 
#
# 1 0.022185 0.005176 -0.009712 0.000000 0.000000 0.003671
# 2 0.005176 0.022185 -0.009712 0.000000 0.000000 -0.003671
# 3 -0.009712 -0.009712 0.018354 0.000000 0.000000 0.000000
# 4 0.000000 0.000000 0.000000 0.038471 0.000000 0.000000
# 5 0.000000 0.000000 0.000000 0.000000 0.038471 0.000000
# 6 0.003671 -0.003671 0.000000 0.000000 0.000000 0.046849
#
#
# Mechanical properties :
#
#
# Convention : Reuss Voigt Hill
#
# Bulk Modulus (GPa) = 29.21560 36.47077 32.84318
# Shear Modulus (GPa) = 22.08282 24.53974 23.31128
#
# Velocity S-wave (km/s) = 3.33472 3.51534 3.42622
# Velocity P-wave (km/s) = 5.43502 5.90277 5.67372
#
# Compressibility (1/GPa) = 0.03422829
#
# Stress axis : x y z
#
# Youngs Moduli (GPa) = 45.07550 45.07550 54.48354
#
# Poissons Ratio (x) = -0.23330 0.52914
# Poissons Ratio (y) = -0.23330 0.52914
# Poissons Ratio (z) = 0.43777 0.43777
#
# Static dielectric constant tensor:
#      x y z
#    x 1.781130 0.000000 0.000000 
#    y 0.000000 1.781130 0.000000 
#    z 0.000000 0.000000 1.712640 
# 
# From -- ./inp_files/946.got.cif
#   From: 2010.05.17/outbox.cif.g08.bks.cpg/sg85_cif.got.tgz:946.got - 2010.06.03 19:01:16.
