data_PCOD9544276
_publ_section_title
;
Structure prediction by ZEFSAII (Michael W. Deem and Ramdas Pophale) SiO2 
 PCOD9544276
Probable space group: P 42/M
;
_chemical_formula_sum "Si O2"
_cell_formula_units_Z 40
_cell_length_a 8.717766
_cell_length_b 8.717766
_cell_length_c 21.960970
_cell_angle_alpha 90.000000
_cell_angle_beta 90.000000
_cell_angle_gamma 90.000000
_cell_volume 1669.021510
_symmetry_space_group_name_H-M "P 42/M"
_symmetry_group_IT_number 84
_symmetry_cell_setting 'tetragonal'
loop_
_space_group_symop_operation_xyz
x,y,z
-y,x,1/2+z
-x,-y,z
y,-x,1/2+z
-x,-y,-z
y,-x,1/2-z
x,y,-z
-y,x,1/2-z
loop_
_atom_site_type_symbol
_atom_site_label
_atom_site_fract_x
_atom_site_fract_y
_atom_site_fract_z
Si Si1 0.290468 0.886938 0.632390
Si Si2 0.025225 0.682880 0.390553
Si Si3 0.203992 0.718865 0.067703
Si Si4 0.060223 0.674076 0.248271
Si Si5 0.668633 0.437279 0.176736
O O1 0.185663 0.765951 0.596748
O O2 0.429297 0.782669 0.655370
O O3 0.325159 0.034502 0.590865
O O4 0.233184 0.972553 0.695176
O O5 0.019605 0.713304 0.317291
O O6 0.000000 0.500000 0.400548
O O7 0.900927 0.778471 0.427489
O O8 0.330953 0.668324 0.117027
O O9 0.232136 0.661828 0.000000
O O10 0.241095 0.656043 0.229982
O O11 0.000000 0.500000 0.243283
O O12 0.500000 0.500000 0.188718
#
# Coordination Sequence:
#
# PCOD9544276 Si02
#       5
#     8   8   8   8   8
#     4  10  22  40  64  94 132 181 225 279 347 424
#     4  11  23  41  63  95 135 175 229 289 346 411
#     4  11  25  44  66  94 133 183 235 288 340 409
#     4   8  19  38  60  93 134 171 216 273 347 422
#     4  10  21  43  68 101 135 171 228 287 352 421
#
# _framework density 23.966138999999998
#
# number of rings (size 3 to 8) (size 9 to 14) (size 15 to 20)
#    0.000    2.000    0.000    3.600    5.600    4.000 
#    3.600    2.000    0.000    0.000    0.000    0.000 
#    0.000    0.000    0.000    0.000    0.000    0.000 
#
# Total GULP energy -223254.110026 kJ/mol
# GULP energy per Si atom -5581.352751 kJ/mol
# Density = 2.391159 g / cm^3
# Si number density = 23.966139 Si / 1000 Ang^3
#
#
#
# Elastic Constant Matrix: (Units=GPa)
#
#
# Indices 1 2 3 4 5 6 
#
# 1 87.9799 31.5526 8.4659 0.0000 0.0000 -7.9194
# 2 31.5526 87.9799 8.4659 0.0000 0.0000 7.9194
# 3 8.4659 8.4659 99.8606 0.0000 0.0000 0.0000
# 4 0.0000 0.0000 0.0000 -1.4057 0.0000 0.0000
# 5 0.0000 0.0000 0.0000 0.0000 -1.4057 0.0000
# 6 -7.9194 7.9194 0.0000 0.0000 0.0000 43.8483
#
#
#
# Elastic Compliance Matrix: (Units=1/GPa)
#
#
# Indices 1 2 3 4 5 6 
#
# 1 0.013568 -0.005100 -0.000718 0.000000 0.000000 0.003372
# 2 -0.005100 0.013568 -0.000718 0.000000 0.000000 -0.003372
# 3 -0.000718 -0.000718 0.010136 0.000000 0.000000 0.000000
# 4 0.000000 0.000000 0.000000 -0.711389 0.000000 0.000000
# 5 0.000000 0.000000 0.000000 0.000000 -0.711389 0.000000
# 6 0.003372 -0.003372 0.000000 0.000000 0.000000 0.024024
#
#
# Mechanical properties :
#
#
# Convention : Reuss Voigt Hill
#
# Bulk Modulus (GPa) = 41.32325 41.42103 41.37214
# Shear Modulus (GPa) = -3.73039 23.36311 9.81636
#
# Velocity S-wave (km/s) = -1.24896 3.12563 2.02604
# Velocity P-wave (km/s) = 3.89871 5.50879 4.77214
#
# Compressibility (1/GPa) = 0.02419945
#
# Stress axis : x y z
#
# Youngs Moduli (GPa) = 73.70302 73.70302 98.66141
#
# Poissons Ratio (x) = 0.37591 0.07083
# Poissons Ratio (y) = 0.37591 0.07083
# Poissons Ratio (z) = 0.05291 0.05291
#
# Static dielectric constant tensor:
#      x y z
#    x 1.964550 0.000000 0.000000 
#    y 0.000000 1.964550 0.000000 
#    z 0.000000 0.000000 1.933410 
# 
# From -- ./inp_files/4788.got.cif
#   From: 2010.05.17/outbox.cif.g08.bks.cpg/sg84_3_cif.got.tgz:4788.got - 2010.06.03 18:57:40.
