data_PCOD9544886
_publ_section_title
;
Structure prediction by ZEFSAII (Michael W. Deem and Ramdas Pophale) SiO2 
 PCOD9544886
Probable space group: P 42/N
;
_chemical_formula_sum "Si O2"
_cell_formula_units_Z 56
_cell_length_a 11.198396
_cell_length_b 11.198396
_cell_length_c 19.925187
_cell_angle_alpha 90.000000
_cell_angle_beta 90.000000
_cell_angle_gamma 90.000000
_cell_volume 2498.699605
_symmetry_space_group_name_H-M "P 42/N"
_symmetry_group_IT_number 86
_space_group.IT_coordinate_system_code '2'
_symmetry_cell_setting 'tetragonal'
loop_
_space_group_symop_operation_xyz
x,y,z
-y,1/2+x,1/2+z
1/2-x,1/2-y,z
1/2+y,-x,1/2+z
-x,-y,-z
y,1/2-x,1/2-z
1/2+x,1/2+y,-z
1/2-y,x,1/2-z
loop_
_atom_site_type_symbol
_atom_site_label
_atom_site_fract_x
_atom_site_fract_y
_atom_site_fract_z
Si Si1 0.408025 0.944226 0.351135
Si Si2 0.727063 0.611015 0.401334
Si Si3 0.112598 0.647104 0.839341
Si Si4 0.493434 0.723617 0.436293
Si Si5 0.402805 0.095997 0.477258
Si Si6 0.054116 0.207938 0.762604
Si Si7 0.618991 0.605847 0.738307
O O1 0.287820 0.878936 0.326536
O O2 0.487865 0.845250 0.389760
O O3 0.371930 0.049039 0.403925
O O4 0.451156 0.021874 0.288485
O O5 0.750000 0.750000 0.380990
O O6 0.586561 0.622416 0.412787
O O7 0.792391 0.590930 0.471635
O O8 0.775780 0.527890 0.342148
O O9 0.160949 0.628229 0.914898
O O10 0.176977 0.557060 0.785989
O O11 0.972687 0.617919 0.828489
O O12 0.534999 0.775643 0.507589
O O13 0.500000 0.000000 0.500000
O O14 0.114038 0.337176 0.746291
O O15 0.594856 0.746612 0.732039
#
# Coordination Sequence:
#
# PCOD9544886 Si02
#       7
#     8   8   8   8   8   8   8
#     4  10  22  40  65  90 128 175 217 266 328 388
#     4  10  18  32  55  94 123 157 211 259 314 389
#     4  11  22  35  62 100 128 168 211 277 328 394
#     4  10  20  37  59  97 124 155 213 267 321 388
#     4   9  20  37  61  86 122 171 216 262 313 391
#     4  11  19  31  57  93 137 165 198 264 331 383
#     4   9  21  41  60  87 128 174 228 258 313 400
#
# _framework density 22.411657000000002
#
# number of rings (size 3 to 8) (size 9 to 14) (size 15 to 20)
#    0.000    2.000    2.857    1.286    8.000    0.000 
#   15.429    0.714    0.000    0.000    0.000    0.000 
#    0.000    0.000    0.000    0.000    0.000    0.000 
#
# Total GULP energy -311757.632982 kJ/mol
# GULP energy per Si atom -5567.100589 kJ/mol
# Density = 2.236065 g / cm^3
# Si number density = 22.411657 Si / 1000 Ang^3
#
#
#
# Elastic Constant Matrix: (Units=GPa)
#
#
# Indices 1 2 3 4 5 6 
#
# 1 73.2380 41.2719 23.2948 0.0000 0.0000 1.2323
# 2 41.2719 73.2380 23.2948 0.0000 0.0000 -1.2323
# 3 23.2948 23.2948 70.3265 0.0000 0.0000 0.0000
# 4 0.0000 0.0000 0.0000 36.1664 0.0000 0.0000
# 5 0.0000 0.0000 0.0000 0.0000 36.1664 0.0000
# 6 1.2323 -1.2323 0.0000 0.0000 0.0000 38.1496
#
#
#
# Elastic Compliance Matrix: (Units=1/GPa)
#
#
# Indices 1 2 3 4 5 6 
#
# 1 0.020727 -0.010634 -0.003343 0.000000 0.000000 -0.001013
# 2 -0.010634 0.020727 -0.003343 0.000000 0.000000 0.001013
# 3 -0.003343 -0.003343 0.016434 0.000000 0.000000 0.000000
# 4 0.000000 0.000000 0.000000 0.027650 0.000000 0.000000
# 5 0.000000 0.000000 0.000000 0.000000 0.027650 0.000000
# 6 -0.001013 0.001013 0.000000 0.000000 0.000000 0.026278
#
#
# Mechanical properties :
#
#
# Convention : Reuss Voigt Hill
#
# Bulk Modulus (GPa) = 43.01533 43.61393 43.31463
# Shear Modulus (GPa) = 27.49418 30.69255 29.09336
#
# Velocity S-wave (km/s) = 3.50634 3.70468 3.60687
# Velocity P-wave (km/s) = 5.96888 6.14834 6.05928
#
# Compressibility (1/GPa) = 0.02324753
#
# Stress axis : x y z
#
# Youngs Moduli (GPa) = 48.24585 48.24585 60.84883
#
# Poissons Ratio (x) = 0.51305 0.20343
# Poissons Ratio (y) = 0.51305 0.20343
# Poissons Ratio (z) = 0.16130 0.16130
#
# Static dielectric constant tensor:
#      x y z
#    x 1.909440 0.000000 0.000000 
#    y 0.000000 1.909440 0.000000 
#    z 0.000000 0.000000 1.920480 
# 
# From -- ./inp_files/4180.got.cif
#   From: 2010.05.17/outbox.cif.g08.bks.cpg/sg86_3_cif.got.tgz:4180.got - 2010.06.03 19:03:11.
