data_PCOD9544464
_publ_section_title
;
Structure prediction by ZEFSAII (Michael W. Deem and Ramdas Pophale) SiO2 
 PCOD9544464
Probable space group: P 42/M
;
_chemical_formula_sum "Si O2"
_cell_formula_units_Z 16
_cell_length_a 5.104409
_cell_length_b 5.104409
_cell_length_c 25.426437
_cell_angle_alpha 90.000000
_cell_angle_beta 90.000000
_cell_angle_gamma 90.000000
_cell_volume 662.485593
_symmetry_space_group_name_H-M "P 42/M"
_symmetry_group_IT_number 84
_symmetry_cell_setting 'tetragonal'
loop_
_space_group_symop_operation_xyz
x,y,z
-y,x,1/2+z
-x,-y,z
y,-x,1/2+z
-x,-y,-z
y,-x,1/2-z
x,y,-z
-y,x,1/2-z
loop_
_atom_site_type_symbol
_atom_site_label
_atom_site_fract_x
_atom_site_fract_y
_atom_site_fract_z
Si Si1 0.500000 0.500000 0.000000
Si Si2 0.500000 0.000000 0.681928
Si Si3 0.170657 0.236610 0.411192
Si Si4 0.500000 0.500000 0.750000
O O1 0.691770 0.386460 0.953610
O O2 0.712255 0.870759 0.643039
O O3 0.408579 0.753035 0.716556
O O4 0.000000 0.500000 0.403634
O O5 0.000000 0.000000 0.433446
#
# Coordination Sequence:
#
# PCOD9544464 Si02
#       4
#     2   4   8   2
#     4  12  26  50  76 128 164 214 274 314 436 484
#     4  12  30  53  78 120 154 213 284 346 420 508
#     4  12  27  49  81 115 162 215 265 341 404 510
#     4  12  30  52  88 114 164 220 282 364 436 490
#
# _framework density 24.151471000000001
#
# number of rings (size 3 to 8) (size 9 to 14) (size 15 to 20)
#    0.000    0.000    0.000    9.000   10.500    7.000 
#    0.000    0.000    0.000    0.000    0.000    0.000 
#    0.000    0.000    0.000    0.000    0.000    0.000 
#
# Total GULP energy -89150.045622 kJ/mol
# GULP energy per Si atom -5571.877851 kJ/mol
# Density = 2.409650 g / cm^3
# Si number density = 24.151471 Si / 1000 Ang^3
#
#
#
# Elastic Constant Matrix: (Units=GPa)
#
#
# Indices 1 2 3 4 5 6 
#
# 1 149.3121 62.5617 54.6298 0.0000 0.0000 3.5462
# 2 62.5617 149.3121 54.6298 0.0000 0.0000 -3.5462
# 3 54.6298 54.6298 142.8740 0.0000 0.0000 0.0000
# 4 0.0000 0.0000 0.0000 80.6603 0.0000 0.0000
# 5 0.0000 0.0000 0.0000 0.0000 80.6603 0.0000
# 6 3.5462 -3.5462 0.0000 0.0000 0.0000 77.8941
#
#
#
# Elastic Compliance Matrix: (Units=1/GPa)
#
#
# Indices 1 2 3 4 5 6 
#
# 1 0.008725 -0.002846 -0.002248 0.000000 0.000000 -0.000527
# 2 -0.002846 0.008725 -0.002248 0.000000 0.000000 0.000527
# 3 -0.002248 -0.002248 0.008718 0.000000 0.000000 0.000000
# 4 0.000000 0.000000 0.000000 0.012398 0.000000 0.000000
# 5 0.000000 0.000000 0.000000 0.000000 0.012398 0.000000
# 6 -0.000527 0.000527 0.000000 0.000000 0.000000 0.012886
#
#
# Mechanical properties :
#
#
# Convention : Reuss Voigt Hill
#
# Bulk Modulus (GPa) = 87.07346 87.23787 87.15567
# Shear Modulus (GPa) = 60.70903 65.82142 63.26522
#
# Velocity S-wave (km/s) = 5.01910 5.22616 5.12368
# Velocity P-wave (km/s) = 8.34984 8.52153 8.43612
#
# Compressibility (1/GPa) = 0.01148456
#
# Stress axis : x y z
#
# Youngs Moduli (GPa) = 114.61722 114.61722 114.70241
#
# Poissons Ratio (x) = 0.32617 0.25784
# Poissons Ratio (y) = 0.32617 0.25784
# Poissons Ratio (z) = 0.25765 0.25765
#
# Static dielectric constant tensor:
#      x y z
#    x 1.904990 0.000000 0.000000 
#    y 0.000000 1.904990 0.000000 
#    z 0.000000 0.000000 1.867450 
# 
# From -- ./inp_files/3931.got.cif
#   From: 2010.05.17/outbox.cif.g08.bks.cpg/sg84_2_cif.got.tgz:3931.got - 2010.06.03 18:57:40.
