data_PCOD9544992
_publ_section_title
;
Structure prediction by ZEFSAII (Michael W. Deem and Ramdas Pophale) SiO2 
 PCOD9544992
Probable space group: P 42/N
;
_chemical_formula_sum "Si O2"
_cell_formula_units_Z 48
_cell_length_a 19.648200
_cell_length_b 19.648200
_cell_length_c 6.203468
_cell_angle_alpha 90.000000
_cell_angle_beta 90.000000
_cell_angle_gamma 90.000000
_cell_volume 2394.859760
_symmetry_space_group_name_H-M "P 42/N"
_symmetry_group_IT_number 86
_space_group.IT_coordinate_system_code '2'
_symmetry_cell_setting 'tetragonal'
loop_
_space_group_symop_operation_xyz
x,y,z
-y,1/2+x,1/2+z
1/2-x,1/2-y,z
1/2+y,-x,1/2+z
-x,-y,-z
y,1/2-x,1/2-z
1/2+x,1/2+y,-z
1/2-y,x,1/2-z
loop_
_atom_site_type_symbol
_atom_site_label
_atom_site_fract_x
_atom_site_fract_y
_atom_site_fract_z
Si Si1 0.410353 0.064656 0.955624
Si Si2 0.003173 0.779482 0.623394
Si Si3 0.968485 0.441533 0.286787
Si Si4 0.628383 0.343863 0.634795
Si Si5 0.241912 0.913853 0.524807
Si Si6 0.497938 0.151859 0.665353
O O1 0.437718 0.131222 0.830244
O O2 0.422950 0.006942 0.772174
O O3 0.461675 0.051469 0.155237
O O4 0.336198 0.052465 0.056519
O O5 0.074789 0.810148 0.529005
O O6 0.024365 0.762869 0.867236
O O7 0.980584 0.709284 0.510707
O O8 0.924130 0.384377 0.168322
O O9 0.978846 0.415225 0.529720
O O10 0.706852 0.347021 0.575732
O O11 0.611335 0.309250 0.858484
O O12 0.188878 0.941795 0.704443
#
# Coordination Sequence:
#
# PCOD9544992 Si02
#       6
#     8   8   8   8   8   8
#     4  10  21  36  61  96 121 151 209 258 328 379
#     4  10  23  38  59  90 119 161 201 252 314 382
#     4  10  20  36  61  91 117 154 199 264 317 367
#     4  10  22  38  60  81 116 166 206 253 303 362
#     4  11  23  40  59  82 121 168 214 258 308 370
#     4  11  20  38  62  87 125 157 197 256 325 369
#
# _framework density 20.042929000000001
#
# number of rings (size 3 to 8) (size 9 to 14) (size 15 to 20)
#    0.000    1.667    3.333    0.500    2.333    4.000 
#    0.000    2.500    0.000    0.500    0.000    0.000 
#    0.000    0.000    0.000    0.000    0.000    0.000 
#
# Total GULP energy -267297.697693 kJ/mol
# GULP energy per Si atom -5568.702035 kJ/mol
# Density = 1.999731 g / cm^3
# Si number density = 20.042929 Si / 1000 Ang^3
#
#
#
# Elastic Constant Matrix: (Units=GPa)
#
#
# Indices 1 2 3 4 5 6 
#
# 1 84.8689 -8.5349 21.1130 0.0000 0.0000 8.1732
# 2 -8.5349 84.8689 21.1130 0.0000 0.0000 -8.1732
# 3 21.1130 21.1130 68.4276 0.0000 0.0000 0.0000
# 4 0.0000 0.0000 0.0000 30.5245 0.0000 0.0000
# 5 0.0000 0.0000 0.0000 0.0000 30.5245 0.0000
# 6 8.1732 -8.1732 0.0000 0.0000 0.0000 28.3024
#
#
#
# Elastic Compliance Matrix: (Units=1/GPa)
#
#
# Indices 1 2 3 4 5 6 
#
# 1 0.013536 0.002260 -0.004874 0.000000 0.000000 -0.003256
# 2 0.002260 0.013536 -0.004874 0.000000 0.000000 0.003256
# 3 -0.004874 -0.004874 0.017622 0.000000 0.000000 0.000000
# 4 0.000000 0.000000 0.000000 0.032761 0.000000 0.000000
# 5 0.000000 0.000000 0.000000 0.000000 0.032761 0.000000
# 6 -0.003256 0.003256 0.000000 0.000000 0.000000 0.037213
#
#
# Mechanical properties :
#
#
# Convention : Reuss Voigt Hill
#
# Bulk Modulus (GPa) = 33.64868 33.94975 33.79921
# Shear Modulus (GPa) = 29.01739 31.50188 30.25963
#
# Velocity S-wave (km/s) = 3.80907 3.96879 3.88975
# Velocity P-wave (km/s) = 6.01416 6.16255 6.08881
#
# Compressibility (1/GPa) = 0.02971885
#
# Stress axis : x y z
#
# Youngs Moduli (GPa) = 73.87562 73.87562 56.74839
#
# Poissons Ratio (x) = -0.16697 0.27659
# Poissons Ratio (y) = -0.16697 0.27659
# Poissons Ratio (z) = 0.36006 0.36006
#
# Static dielectric constant tensor:
#      x y z
#    x 1.745100 0.000000 0.000000 
#    y 0.000000 1.745100 0.000000 
#    z 0.000000 0.000000 1.802030 
# 
# From -- ./inp_files/420.got.cif
#   From: 2010.05.17/outbox.cif.g08.bks.cpg/sg86_1_cif.got.tgz:420.got - 2010.06.03 19:03:11.
