data_PCOD9544756
_publ_section_title
;
Structure prediction by ZEFSAII (Michael W. Deem and Ramdas Pophale) SiO2 
 PCOD9544756
Probable space group: P 4/N
;
_chemical_formula_sum "Si O2"
_cell_formula_units_Z 40
_cell_length_a 14.603390
_cell_length_b 14.603390
_cell_length_c 6.725514
_cell_angle_alpha 90.000000
_cell_angle_beta 90.000000
_cell_angle_gamma 90.000000
_cell_volume 1434.276387
_symmetry_space_group_name_H-M "P 4/N"
_symmetry_group_IT_number 85
_symmetry_cell_setting 'tetragonal'
loop_
_space_group_symop_operation_xyz
x,y,z
1/2-y,x,z
1/2-x,1/2-y,z
y,1/2-x,z
-x,-y,-z
1/2+y,-x,-z
1/2+x,1/2+y,-z
-y,1/2+x,-z
loop_
_atom_site_type_symbol
_atom_site_label
_atom_site_fract_x
_atom_site_fract_y
_atom_site_fract_z
Si Si1 0.444705 0.409290 0.236628
Si Si2 0.914770 0.295801 0.788605
Si Si3 0.313835 0.386384 0.896892
Si Si4 0.407788 0.940481 0.639909
Si Si5 0.418754 0.748605 0.770406
O O1 0.346126 0.396471 0.130152
O O2 0.481725 0.406268 0.467534
O O3 0.468652 0.515744 0.199790
O O4 0.501793 0.322165 0.163595
O O5 0.927881 0.194153 0.711913
O O6 0.825495 0.344715 0.696709
O O7 0.890117 0.294760 0.023703
O O8 0.017598 0.337301 0.792066
O O9 0.207937 0.365568 0.844819
O O10 0.440292 0.831747 0.618377
#
# Coordination Sequence:
#
# PCOD9544756 Si02
#       5
#     8   8   8   8   8
#     4  11  24  46  69  98 152 203 257 323 411 481
#     4  12  24  42  73 107 149 192 263 332 400 476
#     4  11  23  44  74 104 143 201 266 324 400 481
#     4  11  26  44  68 108 148 203 263 326 407 493
#     4  12  24  42  71 103 144 198 251 330 404 482
#
# _framework density 27.888625000000001
#
# number of rings (size 3 to 8) (size 9 to 14) (size 15 to 20)
#    0.000    0.600    6.000    0.600    5.600    1.600 
#    0.000    0.000    0.000    2.400    0.000    0.000 
#    0.000    0.000    0.000    0.000    0.000    0.000 
#
# Total GULP energy -222960.135738 kJ/mol
# GULP energy per Si atom -5574.003393 kJ/mol
# Density = 2.782515 g / cm^3
# Si number density = 27.888625 Si / 1000 Ang^3
#
#
#
# Elastic Constant Matrix: (Units=GPa)
#
#
# Indices 1 2 3 4 5 6 
#
# 1 212.5512 56.1536 40.1995 0.0000 0.0000 19.5402
# 2 56.1536 212.5512 40.1995 0.0000 0.0000 -19.5402
# 3 40.1995 40.1995 106.7659 0.0000 0.0000 0.0000
# 4 0.0000 0.0000 0.0000 41.3049 0.0000 0.0000
# 5 0.0000 0.0000 0.0000 0.0000 41.3049 0.0000
# 6 19.5402 -19.5402 0.0000 0.0000 0.0000 37.9228
#
#
#
# Elastic Compliance Matrix: (Units=1/GPa)
#
#
# Indices 1 2 3 4 5 6 
#
# 1 0.005766 -0.001572 -0.001579 0.000000 0.000000 -0.003781
# 2 -0.001572 0.005766 -0.001579 0.000000 0.000000 0.003781
# 3 -0.001579 -0.001579 0.010555 0.000000 0.000000 0.000000
# 4 0.000000 0.000000 0.000000 0.024210 0.000000 0.000000
# 5 0.000000 0.000000 0.000000 0.000000 0.024210 0.000000
# 6 -0.003781 0.003781 0.000000 0.000000 0.000000 0.030266
#
#
# Mechanical properties :
#
#
# Convention : Reuss Voigt Hill
#
# Bulk Modulus (GPa) = 79.19559 89.44152 84.31855
# Shear Modulus (GPa) = 43.68896 50.46090 47.07493
#
# Velocity S-wave (km/s) = 3.96226 4.25829 4.11294
# Velocity P-wave (km/s) = 7.02790 7.50453 7.27012
#
# Compressibility (1/GPa) = 0.01262697
#
# Stress axis : x y z
#
# Youngs Moduli (GPa) = 173.41674 173.41674 94.73786
#
# Poissons Ratio (x) = 0.27268 0.14960
# Poissons Ratio (y) = 0.27268 0.14960
# Poissons Ratio (z) = 0.27385 0.27385
#
# Static dielectric constant tensor:
#      x y z
#    x 2.237920 0.000000 0.000000 
#    y 0.000000 2.237920 0.000000 
#    z 0.000000 0.000000 2.277190 
# 
# From -- ./inp_files/926.got.cif
#   From: 2010.05.17/outbox.cif.g08.bks.cpg/sg85_cif.got.tgz:926.got - 2010.06.03 19:01:16.
