data_PCOD9544239
_publ_section_title
;
Structure prediction by ZEFSAII (Michael W. Deem and Ramdas Pophale) SiO2 
 PCOD9544239
Probable space group: P 42/M
;
_chemical_formula_sum "Si O2"
_cell_formula_units_Z 40
_cell_length_a 15.647933
_cell_length_b 15.647933
_cell_length_c 8.603391
_cell_angle_alpha 90.000000
_cell_angle_beta 90.000000
_cell_angle_gamma 90.000000
_cell_volume 2106.607455
_symmetry_space_group_name_H-M "P 42/M"
_symmetry_group_IT_number 84
_symmetry_cell_setting 'tetragonal'
loop_
_space_group_symop_operation_xyz
x,y,z
-y,x,1/2+z
-x,-y,z
y,-x,1/2+z
-x,-y,-z
y,-x,1/2-z
x,y,-z
-y,x,1/2-z
loop_
_atom_site_type_symbol
_atom_site_label
_atom_site_fract_x
_atom_site_fract_y
_atom_site_fract_z
Si Si1 0.907905 0.321087 0.824550
Si Si2 0.897892 0.489725 0.673112
Si Si3 0.591839 0.600432 0.187763
Si Si4 0.677866 0.094215 0.817322
Si Si5 0.737611 0.740287 0.819712
O O1 0.887493 0.421647 0.806839
O O2 0.839039 0.286034 0.704511
O O3 0.006137 0.307387 0.774259
O O4 0.893942 0.291615 0.000000
O O5 0.864776 0.464991 0.500000
O O6 0.868470 0.583310 0.716147
O O7 0.000000 0.500000 0.656634
O O8 0.616955 0.504820 0.247925
O O9 0.661378 0.674429 0.231674
O O10 0.587184 0.598556 0.000000
O O11 0.734268 0.174156 0.773555
O O12 0.680853 0.073637 0.000000
O O13 0.753431 0.720932 0.000000
#
# Coordination Sequence:
#
# PCOD9544239 Si02
#       5
#     8   8   8   8   8
#     4  11  22  36  57  84 115 151 191 237 289 347
#     4   8  16  32  53  78 109 145 181 226 285 340
#     4  10  22  39  59  82 115 157 200 244 288 338
#     4  10  21  38  59  83 114 150 189 239 294 346
#     4  11  24  39  58  87 117 153 197 243 291 346
#
# _framework density 18.987876
#
# number of rings (size 3 to 8) (size 9 to 14) (size 15 to 20)
#    0.000    2.000    0.000    5.400    2.800    7.600 
#    0.000    0.000    0.000    0.600    0.000    4.200 
#    0.000    0.000    0.000    0.000    0.000    0.000 
#
# Total GULP energy -222788.758906 kJ/mol
# GULP energy per Si atom -5569.718973 kJ/mol
# Density = 1.894466 g / cm^3
# Si number density = 18.987876 Si / 1000 Ang^3
#
#
#
# Elastic Constant Matrix: (Units=GPa)
#
#
# Indices 1 2 3 4 5 6 
#
# 1 59.2142 24.6772 8.4898 0.0000 0.0000 -0.7462
# 2 24.6772 59.2142 8.4898 0.0000 0.0000 0.7462
# 3 8.4898 8.4898 31.8181 0.0000 0.0000 0.0000
# 4 0.0000 0.0000 0.0000 21.0281 0.0000 0.0000
# 5 0.0000 0.0000 0.0000 0.0000 21.0281 0.0000
# 6 -0.7462 0.7462 0.0000 0.0000 0.0000 19.1018
#
#
#
# Elastic Compliance Matrix: (Units=1/GPa)
#
#
# Indices 1 2 3 4 5 6 
#
# 1 0.020802 -0.008201 -0.003362 0.000000 0.000000 0.001133
# 2 -0.008201 0.020802 -0.003362 0.000000 0.000000 -0.001133
# 3 -0.003362 -0.003362 0.033223 0.000000 0.000000 0.000000
# 4 0.000000 0.000000 0.000000 0.047555 0.000000 0.000000
# 5 0.000000 0.000000 0.000000 0.000000 0.047555 0.000000
# 6 0.001133 -0.001133 0.000000 0.000000 0.000000 0.052440
#
#
# Mechanical properties :
#
#
# Convention : Reuss Voigt Hill
#
# Bulk Modulus (GPa) = 22.23428 25.95113 24.09270
# Shear Modulus (GPa) = 18.71112 19.47090 19.09101
#
# Velocity S-wave (km/s) = 3.14255 3.20572 3.17429
# Velocity P-wave (km/s) = 4.99026 5.23441 5.11379
#
# Compressibility (1/GPa) = 0.04497559
#
# Stress axis : x y z
#
# Youngs Moduli (GPa) = 48.07213 48.07213 30.09972
#
# Poissons Ratio (x) = 0.39426 0.10120
# Poissons Ratio (y) = 0.39426 0.10120
# Poissons Ratio (z) = 0.16163 0.16163
#
# Static dielectric constant tensor:
#      x y z
#    x 1.719850 0.000000 0.000000 
#    y 0.000000 1.719850 0.000000 
#    z 0.000000 0.000000 1.639240 
# 
# From -- ./inp_files/787.got.cif
#   From: 2010.05.17/outbox.cif.g08.bks.cpg/sg84_1_cif.got.tgz:787.got - 2010.06.03 18:57:40.
