data_PCOD9544211
_publ_section_title
;
Structure prediction by ZEFSAII (Michael W. Deem and Ramdas Pophale) SiO2 
 PCOD9544211
Probable space group: P 42/M
;
_chemical_formula_sum "Si O2"
_cell_formula_units_Z 48
_cell_length_a 9.345463
_cell_length_b 9.345463
_cell_length_c 27.422112
_cell_angle_alpha 90.000000
_cell_angle_beta 90.000000
_cell_angle_gamma 90.000000
_cell_volume 2394.983607
_symmetry_space_group_name_H-M "P 42/M"
_symmetry_group_IT_number 84
_symmetry_cell_setting 'tetragonal'
loop_
_space_group_symop_operation_xyz
x,y,z
-y,x,1/2+z
-x,-y,z
y,-x,1/2+z
-x,-y,-z
y,-x,1/2-z
x,y,-z
-y,x,1/2-z
loop_
_atom_site_type_symbol
_atom_site_label
_atom_site_fract_x
_atom_site_fract_y
_atom_site_fract_z
Si Si1 0.172814 0.015328 0.695539
Si Si2 0.929084 0.159687 0.443485
Si Si3 0.762030 0.274168 0.727837
Si Si4 0.195436 0.240474 0.391136
Si Si5 0.000959 0.658143 0.057807
Si Si6 0.452817 0.666999 0.818468
O O1 0.234085 0.094052 0.743370
O O2 0.199983 0.119219 0.650702
O O3 0.257920 0.866960 0.695356
O O4 0.000000 0.000000 0.696176
O O5 0.927775 0.208488 0.500000
O O6 0.031995 0.255011 0.409729
O O7 0.769608 0.121894 0.425303
O O8 0.000000 0.000000 0.443406
O O9 0.648433 0.308427 0.770836
O O10 0.762034 0.409205 0.693170
O O11 0.279077 0.159892 0.434159
O O12 0.274261 0.373379 0.366413
O O13 0.000000 0.500000 0.079816
O O14 0.975865 0.649094 0.000000
O O15 0.500000 0.500000 0.821658
#
# Coordination Sequence:
#
# PCOD9544211 Si02
#       6
#     8   8   8   8   8   8
#     4  11  21  37  58  87 112 139 193 252 295 347
#     4   8  14  30  57  87 119 148 181 230 290 349
#     4  11  20  40  59  74 109 152 194 247 299 341
#     4  10  21  34  58  84 116 151 192 240 288 347
#     4   9  17  32  57  92 125 149 183 236 299 351
#     4  11  23  41  55  75 114 159 203 245 288 359
#
# _framework density 20.041889999999999
#
# number of rings (size 3 to 8) (size 9 to 14) (size 15 to 20)
#    0.000    2.000    3.333    3.000    0.000    2.000 
#    0.000    0.000    0.000    2.000    0.000    4.667 
#    0.000   49.333    0.000    0.000    0.000    1.000 
#
# Total GULP energy -267420.859746 kJ/mol
# GULP energy per Si atom -5571.267911 kJ/mol
# Density = 1.999627 g / cm^3
# Si number density = 20.041890 Si / 1000 Ang^3
#
#
#
# Elastic Constant Matrix: (Units=GPa)
#
#
# Indices 1 2 3 4 5 6 
#
# 1 104.4061 38.5017 18.9742 0.0000 0.0000 5.4014
# 2 38.5017 104.4061 18.9742 0.0000 0.0000 -5.4014
# 3 18.9742 18.9742 50.5257 0.0000 0.0000 0.0000
# 4 0.0000 0.0000 0.0000 14.0251 0.0000 0.0000
# 5 0.0000 0.0000 0.0000 0.0000 14.0251 0.0000
# 6 5.4014 -5.4014 0.0000 0.0000 0.0000 24.1428
#
#
#
# Elastic Compliance Matrix: (Units=1/GPa)
#
#
# Indices 1 2 3 4 5 6 
#
# 1 0.011762 -0.003989 -0.002919 0.000000 0.000000 -0.003524
# 2 -0.003989 0.011762 -0.002919 0.000000 0.000000 0.003524
# 3 -0.002919 -0.002919 0.021984 0.000000 0.000000 0.000000
# 4 0.000000 0.000000 0.000000 0.071301 0.000000 0.000000
# 5 0.000000 0.000000 0.000000 0.000000 0.071301 0.000000
# 6 -0.003524 0.003524 0.000000 0.000000 0.000000 0.042997
#
#
# Mechanical properties :
#
#
# Convention : Reuss Voigt Hill
#
# Bulk Modulus (GPa) = 38.67893 45.80422 42.24158
# Shear Modulus (GPa) = 19.27683 22.63112 20.95397
#
# Velocity S-wave (km/s) = 3.10470 3.36399 3.23694
# Velocity P-wave (km/s) = 5.67390 6.16380 5.92392
#
# Compressibility (1/GPa) = 0.02585387
#
# Stress axis : x y z
#
# Youngs Moduli (GPa) = 85.02053 85.02053 45.48719
#
# Poissons Ratio (x) = 0.33917 0.13277
# Poissons Ratio (y) = 0.33917 0.13277
# Poissons Ratio (z) = 0.24817 0.24817
#
# Static dielectric constant tensor:
#      x y z
#    x 1.758610 0.000000 0.000000 
#    y 0.000000 1.758610 0.000000 
#    z 0.000000 0.000000 1.772440 
# 
# From -- ./inp_files/5807.got.cif
#   From: 2010.05.17/outbox.cif.g08.bks.cpg/sg84_3_cif.got.tgz:5807.got - 2010.06.03 18:57:40.
