data_PCOD9544825
_publ_section_title
;
Structure prediction by ZEFSAII (Michael W. Deem and Ramdas Pophale) SiO2 
 PCOD9544825
Probable space group: P 4/N
;
_chemical_formula_sum "Si O2"
_cell_formula_units_Z 50
_cell_length_a 9.468620
_cell_length_b 9.468620
_cell_length_c 28.558152
_cell_angle_alpha 90.000000
_cell_angle_beta 90.000000
_cell_angle_gamma 90.000000
_cell_volume 2560.374398
_symmetry_space_group_name_H-M "P 4/N"
_symmetry_group_IT_number 85
_symmetry_cell_setting 'tetragonal'
loop_
_space_group_symop_operation_xyz
x,y,z
1/2-y,x,z
1/2-x,1/2-y,z
y,1/2-x,z
-x,-y,-z
1/2+y,-x,-z
1/2+x,1/2+y,-z
-y,1/2+x,-z
loop_
_atom_site_type_symbol
_atom_site_label
_atom_site_fract_x
_atom_site_fract_y
_atom_site_fract_z
Si Si1 0.458505 0.153282 0.210451
Si Si2 0.578155 0.911391 0.539137
Si Si3 0.408956 0.771494 0.886876
Si Si4 0.044758 0.126657 0.724859
Si Si5 0.750000 0.750000 0.063800
Si Si6 0.437930 0.102805 0.352742
Si Si7 0.488768 0.029543 0.944914
O O1 0.429932 0.315476 0.224877
O O2 0.491381 0.177615 0.155688
O O3 0.580920 0.059492 0.233046
O O4 0.558262 0.744077 0.533504
O O5 0.534401 0.936995 0.593021
O O6 0.500000 0.000000 0.500000
O O7 0.250000 0.750000 0.867983
O O8 0.459769 0.635111 0.915854
O O9 0.408401 0.896750 0.923561
O O10 0.204033 0.063540 0.726191
O O11 0.970992 0.052686 0.680143
O O12 0.596367 0.828007 0.062785
O O13 0.440894 0.273140 0.345089
O O14 0.500000 0.000000 0.000000
#
# Coordination Sequence:
#
# PCOD9544825 Si02
#       7
#     8   8   8   8   2   8   8
#     4  11  25  45  68  96 125 166 215 266 318 384
#     4   9  19  35  56  87 129 175 225 278 339 400
#     4  12  26  44  70 104 134 175 222 269 328 387
#     4  11  26  44  64  96 131 169 215 274 344 409
#     4  12  24  48  64 104 132 180 220 260 328 392
#     4   9  19  39  65  92 125 172 225 282 338 403
#     4  12  26  45  73 100 141 180 222 268 324 394
#
# _framework density 19.528396000000001
#
# number of rings (size 3 to 8) (size 9 to 14) (size 15 to 20)
#    0.000    1.280    3.200    2.880    2.240    5.120 
#    0.000    4.800    0.000    0.000    0.000    0.000 
#    0.000    0.000    0.000    0.000    0.000    0.000 
#
# Total GULP energy -278394.322786 kJ/mol
# GULP energy per Si atom -5567.886456 kJ/mol
# Density = 1.948395 g / cm^3
# Si number density = 19.528396 Si / 1000 Ang^3
#
#
#
# Elastic Constant Matrix: (Units=GPa)
#
#
# Indices 1 2 3 4 5 6 
#
# 1 94.6847 54.7236 56.0197 0.0000 0.0000 9.7145
# 2 54.7236 94.6847 56.0197 0.0000 0.0000 -9.7145
# 3 56.0197 56.0197 126.1935 0.0000 0.0000 0.0000
# 4 0.0000 0.0000 0.0000 70.3419 0.0000 0.0000
# 5 0.0000 0.0000 0.0000 0.0000 70.3419 0.0000
# 6 9.7145 -9.7145 0.0000 0.0000 0.0000 52.6587
#
#
#
# Elastic Compliance Matrix: (Units=1/GPa)
#
#
# Indices 1 2 3 4 5 6 
#
# 1 0.018761 -0.008729 -0.004454 0.000000 0.000000 -0.005071
# 2 -0.008729 0.018761 -0.004454 0.000000 0.000000 0.005071
# 3 -0.004454 -0.004454 0.011879 0.000000 0.000000 0.000000
# 4 0.000000 0.000000 0.000000 0.014216 0.000000 0.000000
# 5 0.000000 0.000000 0.000000 0.000000 0.014216 0.000000
# 6 -0.005071 0.005071 0.000000 0.000000 0.000000 0.020861
#
#
# Mechanical properties :
#
#
# Convention : Reuss Voigt Hill
#
# Bulk Modulus (GPa) = 70.77532 72.12098 71.44815
# Shear Modulus (GPa) = 36.05485 48.58848 42.32166
#
# Velocity S-wave (km/s) = 4.30150 4.99349 4.66035
# Velocity P-wave (km/s) = 7.80970 8.38201 8.10091
#
# Compressibility (1/GPa) = 0.01412922
#
# Stress axis : x y z
#
# Youngs Moduli (GPa) = 53.30065 53.30065 84.18511
#
# Poissons Ratio (x) = 0.46524 0.37494
# Poissons Ratio (y) = 0.46524 0.37494
# Poissons Ratio (z) = 0.23739 0.23739
#
# Static dielectric constant tensor:
#      x y z
#    x 1.669810 0.000000 0.000000 
#    y 0.000000 1.669810 0.000000 
#    z 0.000000 0.000000 1.697880 
# 
# From -- ./inp_files/2452.got.cif
#   From: 2010.05.17/outbox.cif.g08.bks.cpg/sg85_cif.got.tgz:2452.got - 2010.06.03 19:01:16.
