data_PCOD9544574
_publ_section_title
;
Structure prediction by ZEFSAII (Michael W. Deem and Ramdas Pophale) SiO2 
 PCOD9544574
Probable space group: P 4/N
;
_chemical_formula_sum "Si O2"
_cell_formula_units_Z 56
_cell_length_a 14.891835
_cell_length_b 14.891835
_cell_length_c 11.368773
_cell_angle_alpha 90.000000
_cell_angle_beta 90.000000
_cell_angle_gamma 90.000000
_cell_volume 2521.215836
_symmetry_space_group_name_H-M "P 4/N"
_symmetry_group_IT_number 85
_symmetry_cell_setting 'tetragonal'
loop_
_space_group_symop_operation_xyz
x,y,z
1/2-y,x,z
1/2-x,1/2-y,z
y,1/2-x,z
-x,-y,-z
1/2+y,-x,-z
1/2+x,1/2+y,-z
-y,1/2+x,-z
loop_
_atom_site_type_symbol
_atom_site_label
_atom_site_fract_x
_atom_site_fract_y
_atom_site_fract_z
Si Si1 0.118368 0.614169 0.245888
Si Si2 0.373909 0.786133 0.475260
Si Si3 0.018513 0.058176 0.682748
Si Si4 0.622990 0.818826 0.779588
Si Si5 0.953776 0.636194 0.538443
Si Si6 0.045200 0.716216 0.900445
Si Si7 0.304749 0.929148 0.863096
O O1 0.135324 0.633116 0.382438
O O2 0.203864 0.567220 0.190135
O O3 0.106657 0.713592 0.194905
O O4 0.025034 0.559879 0.242170
O O5 0.327698 0.695137 0.429034
O O6 0.477461 0.783880 0.505824
O O7 0.092016 0.082876 0.581462
O O8 0.986502 0.137406 0.769126
O O9 0.936957 0.016340 0.606253
O O10 0.633459 0.714485 0.811888
O O11 0.612328 0.831998 0.639834
O O12 0.533804 0.845712 0.848539
O O13 0.132297 0.652215 0.909006
O O14 0.021266 0.765726 0.021762
#
# Coordination Sequence:
#
# PCOD9544574 Si02
#       7
#     8   8   8   8   8   8   8
#     4  11  24  39  62  93 131 176 227 290 349 418
#     4  10  21  32  55  93 128 169 209 275 348 418
#     4  10  23  40  66  98 134 180 231 287 359 433
#     4  11  25  44  70 101 135 184 236 289 349 430
#     4  10  20  41  63  93 136 179 222 287 353 432
#     4  12  25  42  68  95 138 183 238 294 357 419
#     4  12  25  43  66  98 135 184 240 294 363 429
#
# _framework density 22.211504999999999
#
# number of rings (size 3 to 8) (size 9 to 14) (size 15 to 20)
#    0.000    1.143    2.857    3.000    4.000    6.286 
#    0.000    0.000    0.000    0.429    0.000    0.000 
#    0.000    0.000    0.000    0.000    0.000    0.000 
#
# Total GULP energy -312703.541077 kJ/mol
# GULP energy per Si atom -5583.991805 kJ/mol
# Density = 2.216095 g / cm^3
# Si number density = 22.211505 Si / 1000 Ang^3
#
#
#
# Elastic Constant Matrix: (Units=GPa)
#
#
# Indices 1 2 3 4 5 6 
#
# 1 73.2526 17.6786 11.1595 0.0000 0.0000 7.1973
# 2 17.6786 73.2526 11.1595 0.0000 0.0000 -7.1973
# 3 11.1595 11.1595 86.7331 0.0000 0.0000 0.0000
# 4 0.0000 0.0000 0.0000 29.6710 0.0000 0.0000
# 5 0.0000 0.0000 0.0000 0.0000 29.6710 0.0000
# 6 7.1973 -7.1973 0.0000 0.0000 0.0000 32.2233
#
#
#
# Elastic Compliance Matrix: (Units=1/GPa)
#
#
# Indices 1 2 3 4 5 6 
#
# 1 0.015227 -0.003872 -0.001461 0.000000 0.000000 -0.004266
# 2 -0.003872 0.015227 -0.001461 0.000000 0.000000 0.004266
# 3 -0.001461 -0.001461 0.011906 0.000000 0.000000 0.000000
# 4 0.000000 0.000000 0.000000 0.033703 0.000000 0.000000
# 5 0.000000 0.000000 0.000000 0.000000 0.033703 0.000000
# 6 -0.004266 0.004266 0.000000 0.000000 0.000000 0.032939
#
#
# Mechanical properties :
#
#
# Convention : Reuss Voigt Hill
#
# Bulk Modulus (GPa) = 34.75470 34.80370 34.77920
# Shear Modulus (GPa) = 30.14153 31.19576 30.66865
#
# Velocity S-wave (km/s) = 3.68778 3.75171 3.71988
# Velocity P-wave (km/s) = 5.81499 5.87115 5.84313
#
# Compressibility (1/GPa) = 0.02877309
#
# Stress axis : x y z
#
# Youngs Moduli (GPa) = 65.67079 65.67079 83.99404
#
# Poissons Ratio (x) = 0.25425 0.12272
# Poissons Ratio (y) = 0.25425 0.12272
# Poissons Ratio (z) = 0.09595 0.09595
#
# Static dielectric constant tensor:
#      x y z
#    x 1.898870 0.000000 0.000000 
#    y 0.000000 1.898870 0.000000 
#    z 0.000000 0.000000 1.892790 
# 
# From -- ./inp_files/1766.got.cif
#   From: 2010.05.17/outbox.cif.g08.bks.cpg/sg85_cif.got.tgz:1766.got - 2010.06.03 19:01:16.
