data_PCOD9544547
_publ_section_title
;
Structure prediction by ZEFSAII (Michael W. Deem and Ramdas Pophale) SiO2 
 PCOD9544547
Probable space group: P 4/N
;
_chemical_formula_sum "Si O2"
_cell_formula_units_Z 40
_cell_length_a 14.506604
_cell_length_b 14.506604
_cell_length_c 8.750421
_cell_angle_alpha 90.000000
_cell_angle_beta 90.000000
_cell_angle_gamma 90.000000
_cell_volume 1841.452243
_symmetry_space_group_name_H-M "P 4/N"
_symmetry_group_IT_number 85
_symmetry_cell_setting 'tetragonal'
loop_
_space_group_symop_operation_xyz
x,y,z
1/2-y,x,z
1/2-x,1/2-y,z
y,1/2-x,z
-x,-y,-z
1/2+y,-x,-z
1/2+x,1/2+y,-z
-y,1/2+x,-z
loop_
_atom_site_type_symbol
_atom_site_label
_atom_site_fract_x
_atom_site_fract_y
_atom_site_fract_z
Si Si1 0.144825 0.146096 0.672498
Si Si2 0.785321 0.903361 0.924522
Si Si3 0.981682 0.710778 0.584368
Si Si4 0.056528 0.911148 0.559943
Si Si5 0.579502 0.497967 0.125972
O O1 0.250392 0.128486 0.721791
O O2 0.165801 0.107005 0.502304
O O3 0.072573 0.085790 0.762480
O O4 0.683557 0.857269 0.937001
O O5 0.790969 0.951846 0.759176
O O6 0.824381 0.982196 0.038755
O O7 0.006519 0.814341 0.531144
O O8 0.069853 0.651102 0.531223
O O9 0.073168 0.918813 0.744496
O O10 0.000000 0.000000 0.500000
O O11 0.500000 0.500000 0.000000
#
# Coordination Sequence:
#
# PCOD9544547 Si02
#       5
#     8   8   8   8   8
#     4  10  20  35  59  90 120 155 208 273 330 380
#     4  11  22  37  62  96 132 168 213 278 345 402
#     4  11  22  40  65  92 128 170 223 277 335 401
#     4  11  24  42  67  95 127 176 225 278 334 395
#     4  11  22  36  55  86 129 168 202 246 320 402
#
# _framework density 21.721986999999999
#
# number of rings (size 3 to 8) (size 9 to 14) (size 15 to 20)
#    0.000    1.200    0.000    8.400    0.000    5.200 
#    0.000    2.000    0.000    0.000    0.000    0.000 
#    0.000    0.000    0.000    0.000    0.000    0.000 
#
# Total GULP energy -222679.891449 kJ/mol
# GULP energy per Si atom -5566.997286 kJ/mol
# Density = 2.167255 g / cm^3
# Si number density = 21.721987 Si / 1000 Ang^3
#
#
#
# Elastic Constant Matrix: (Units=GPa)
#
#
# Indices 1 2 3 4 5 6 
#
# 1 69.9764 66.9005 22.8870 0.0000 0.0000 6.2589
# 2 66.9005 69.9764 22.8870 0.0000 0.0000 -6.2589
# 3 22.8870 22.8870 108.7583 0.0000 0.0000 0.0000
# 4 0.0000 0.0000 0.0000 38.3010 0.0000 0.0000
# 5 0.0000 0.0000 0.0000 0.0000 38.3010 0.0000
# 6 6.2589 -6.2589 0.0000 0.0000 0.0000 37.8644
#
#
#
# Elastic Compliance Matrix: (Units=1/GPa)
#
#
# Indices 1 2 3 4 5 6 
#
# 1 0.500578 -0.492719 -0.001654 0.000000 0.000000 -0.164189
# 2 -0.492719 0.500578 -0.001654 0.000000 0.000000 0.164189
# 3 -0.001654 -0.001654 0.009891 0.000000 0.000000 0.000000
# 4 0.000000 0.000000 0.000000 0.026109 0.000000 0.000000
# 5 0.000000 0.000000 0.000000 0.000000 0.026109 0.000000
# 6 -0.164189 0.164189 0.000000 0.000000 0.000000 0.080690
#
#
# Mechanical properties :
#
#
# Convention : Reuss Voigt Hill
#
# Bulk Modulus (GPa) = 52.65022 52.67336 52.66179
# Shear Modulus (GPa) = 2.33390 31.96239 17.14814
#
# Velocity S-wave (km/s) = 1.03768 3.84008 2.81274
# Velocity P-wave (km/s) = 5.07213 6.63047 5.90295
#
# Compressibility (1/GPa) = 0.01899327
#
# Stress axis : x y z
#
# Youngs Moduli (GPa) = 1.99769 1.99769 101.10451
#
# Poissons Ratio (x) = 0.98430 0.16721
# Poissons Ratio (y) = 0.98430 0.16721
# Poissons Ratio (z) = 0.00330 0.00330
#
# Static dielectric constant tensor:
#      x y z
#    x 1.882510 0.000000 0.000000 
#    y 0.000000 1.882510 0.000000 
#    z 0.000000 0.000000 1.973370 
# 
# From -- ./inp_files/929.got.cif
#   From: 2010.05.17/outbox.cif.g08.bks.cpg/sg85_cif.got.tgz:929.got - 2010.06.03 19:01:16.
