data_PCOD9544393
_publ_section_title
;
Structure prediction by ZEFSAII (Michael W. Deem and Ramdas Pophale) SiO2 
 PCOD9544393
Probable space group: P 42/M
;
_chemical_formula_sum "Si O2"
_cell_formula_units_Z 48
_cell_length_a 8.364275
_cell_length_b 8.364275
_cell_length_c 30.009777
_cell_angle_alpha 90.000000
_cell_angle_beta 90.000000
_cell_angle_gamma 90.000000
_cell_volume 2099.516898
_symmetry_space_group_name_H-M "P 42/M"
_symmetry_group_IT_number 84
_symmetry_cell_setting 'tetragonal'
loop_
_space_group_symop_operation_xyz
x,y,z
-y,x,1/2+z
-x,-y,z
y,-x,1/2+z
-x,-y,-z
y,-x,1/2-z
x,y,-z
-y,x,1/2-z
loop_
_atom_site_type_symbol
_atom_site_label
_atom_site_fract_x
_atom_site_fract_y
_atom_site_fract_z
Si Si1 0.229962 0.908130 0.000000
Si Si2 0.603877 0.340353 0.842990
Si Si3 0.264770 0.907400 0.500000
Si Si4 0.856243 0.294363 0.337183
Si Si5 0.234749 0.851126 0.096236
Si Si6 0.724737 0.347504 0.245606
Si Si7 0.665695 0.082340 0.596992
O O1 0.306952 0.900250 0.048757
O O2 0.100205 0.762312 0.000000
O O3 0.153608 0.083659 0.000000
O O4 0.500000 0.500000 0.835719
O O5 0.478417 0.195618 0.839938
O O6 0.682349 0.315549 0.890283
O O7 0.745548 0.319734 0.806835
O O8 0.345539 0.854131 0.546151
O O9 0.837753 0.270613 0.283372
O O10 0.718063 0.202311 0.364431
O O11 0.014637 0.256432 0.365467
O O12 0.047994 0.808807 0.093447
O O13 0.541278 0.284637 0.251182
O O14 0.500000 0.000000 0.608657
#
# Coordination Sequence:
#
# PCOD9544393 Si02
#       7
#     4   8   4   8   8   8   8
#     4   9  18  38  63  87 130 176 212 270 351 397
#     4  11  21  41  65  91 128 174 216 262 328 405
#     4   9  17  36  63  84 123 179 216 266 332 401
#     4  11  21  38  63  93 124 168 214 266 330 395
#     4  11  23  40  64  95 131 172 219 274 334 401
#     4   9  17  37  65  85 116 164 210 256 315 398
#     4  11  22  37  62  97 128 165 223 276 327 391
#
# _framework density 22.862403
#
# number of rings (size 3 to 8) (size 9 to 14) (size 15 to 20)
#    0.000    1.667    5.000    2.250    0.000    0.000 
#    3.000    2.917    0.000    0.000    0.000    0.000 
#    0.000    0.000    0.000    0.000    0.000    0.000 
#
# Total GULP energy -267412.643944 kJ/mol
# GULP energy per Si atom -5571.096749 kJ/mol
# Density = 2.281037 g / cm^3
# Si number density = 22.862403 Si / 1000 Ang^3
#
#
#
# Elastic Constant Matrix: (Units=GPa)
#
#
# Indices 1 2 3 4 5 6 
#
# 1 47.2983 10.4347 50.4737 0.0000 0.0000 2.7987
# 2 10.4347 47.2983 50.4737 0.0000 0.0000 -2.7987
# 3 50.4737 50.4737 164.2380 0.0000 0.0000 0.0000
# 4 0.0000 0.0000 0.0000 -331.3094 0.0000 0.0000
# 5 0.0000 0.0000 0.0000 0.0000 -331.3094 0.0000
# 6 2.7987 -2.7987 0.0000 0.0000 0.0000 34.4643
#
#
#
# Elastic Compliance Matrix: (Units=1/GPa)
#
#
# Indices 1 2 3 4 5 6 
#
# 1 0.032453 0.004987 -0.011506 0.000000 0.000000 -0.002230
# 2 0.004987 0.032453 -0.011506 0.000000 0.000000 0.002230
# 3 -0.011506 -0.011506 0.013161 0.000000 0.000000 0.000000
# 4 0.000000 0.000000 0.000000 -0.003018 0.000000 0.000000
# 5 0.000000 0.000000 0.000000 0.000000 -0.003018 0.000000
# 6 -0.002230 0.002230 0.000000 0.000000 0.000000 0.029378
#
#
# Mechanical properties :
#
#
# Convention : Reuss Voigt Hill
#
# Bulk Modulus (GPa) = 23.80041 53.51099 38.65570
# Shear Modulus (GPa) = 33.01148 -115.80075 -41.39463
#
# Velocity S-wave (km/s) = 3.80402 -7.12468 -4.25973
# Velocity P-wave (km/s) = 5.45224 6.65019 2.69240
#
# Compressibility (1/GPa) = 0.04201608
#
# Stress axis : x y z
#
# Youngs Moduli (GPa) = 30.81415 30.81415 75.98339
#
# Poissons Ratio (x) = -0.15367 0.87426
# Poissons Ratio (y) = -0.15367 0.87426
# Poissons Ratio (z) = 0.35455 0.35455
#
# Static dielectric constant tensor:
#      x y z
#    x 1.908800 0.000000 0.000000 
#    y 0.000000 1.908800 0.000000 
#    z 0.000000 0.000000 1.982830 
# 
# From -- ./inp_files/5843.got.cif
#   From: 2010.05.17/outbox.cif.g08.bks.cpg/sg84_3_cif.got.tgz:5843.got - 2010.06.03 18:57:40.
