data_PCOD9544105
_publ_section_title
;
Structure prediction by ZEFSAII (Michael W. Deem and Ramdas Pophale) SiO2 
 PCOD9544105
Probable space group: P 42/M
;
_chemical_formula_sum "Si O2"
_cell_formula_units_Z 48
_cell_length_a 8.260772
_cell_length_b 8.260772
_cell_length_c 34.081110
_cell_angle_alpha 90.000000
_cell_angle_beta 90.000000
_cell_angle_gamma 90.000000
_cell_volume 2325.707012
_symmetry_space_group_name_H-M "P 42/M"
_symmetry_group_IT_number 84
_symmetry_cell_setting 'tetragonal'
loop_
_space_group_symop_operation_xyz
x,y,z
-y,x,1/2+z
-x,-y,z
y,-x,1/2+z
-x,-y,-z
y,-x,1/2-z
x,y,-z
-y,x,1/2-z
loop_
_atom_site_type_symbol
_atom_site_label
_atom_site_fract_x
_atom_site_fract_y
_atom_site_fract_z
Si Si1 0.400252 0.252835 0.577752
Si Si2 0.748879 0.585825 0.260053
Si Si3 0.000000 0.000000 0.861752
Si Si4 0.000000 0.500000 0.797988
Si Si5 0.744183 0.107368 0.423857
Si Si6 0.261487 0.247108 0.339044
Si Si7 0.605385 0.256525 0.000000
Si Si8 0.748134 0.903001 0.000000
O O1 0.592570 0.227249 0.582660
O O2 0.313336 0.309888 0.617951
O O3 0.356203 0.355379 0.539376
O O4 0.328557 0.072393 0.570912
O O5 0.695536 0.400855 0.253820
O O6 0.767655 0.620092 0.305895
O O7 0.900903 0.615176 0.231798
O O8 0.134107 0.896162 0.839783
O O9 0.905740 0.868855 0.888258
O O10 0.871864 0.406362 0.824865
O O11 0.844308 0.158156 0.461779
O O12 0.423616 0.189936 0.000000
O O13 0.715830 0.094315 0.000000
#
# Coordination Sequence:
#
# PCOD9544105 Si02
#       8
#     8   8   4   4   8   8   4   4
#     4  10  21  39  60  86 116 155 197 238 283 351
#     4   9  20  39  61  85 116 154 193 236 292 351
#     4  10  20  33  57  90 114 144 192 244 286 339
#     4  10  20  38  60  85 116 151 194 240 290 354
#     4  10  20  36  59  82 111 152 197 237 287 340
#     4  10  20  37  60  86 118 153 193 239 293 350
#     4  11  24  39  56  83 120 152 196 245 292 341
#     4  11  22  37  56  80 112 153 192 247 298 336
#
# _framework density 20.638884000000001
#
# number of rings (size 3 to 8) (size 9 to 14) (size 15 to 20)
#    0.000    2.000    0.000    5.000    0.000    6.333 
#    0.000   15.000    0.000    0.000    0.000    0.000 
#    0.000    0.000    0.000    0.000    0.000    0.000 
#
# Total GULP energy -268210.522920 kJ/mol
# GULP energy per Si atom -5587.719227 kJ/mol
# Density = 2.059191 g / cm^3
# Si number density = 20.638884 Si / 1000 Ang^3
#
#
#
# Elastic Constant Matrix: (Units=GPa)
#
#
# Indices 1 2 3 4 5 6 
#
# 1 56.1733 9.9944 35.4220 0.0000 0.0000 1.3625
# 2 9.9944 56.1733 35.4220 0.0000 0.0000 -1.3625
# 3 35.4220 35.4220 133.8419 0.0000 0.0000 0.0000
# 4 0.0000 0.0000 0.0000 10.4723 0.0000 0.0000
# 5 0.0000 0.0000 0.0000 0.0000 10.4723 0.0000
# 6 1.3625 -1.3625 0.0000 0.0000 0.0000 17.6540
#
#
#
# Elastic Compliance Matrix: (Units=1/GPa)
#
#
# Indices 1 2 3 4 5 6 
#
# 1 0.021421 -0.000333 -0.005581 0.000000 0.000000 -0.001679
# 2 -0.000333 0.021421 -0.005581 0.000000 0.000000 0.001679
# 3 -0.005581 -0.005581 0.010426 0.000000 0.000000 0.000000
# 4 0.000000 0.000000 0.000000 0.095490 0.000000 0.000000
# 5 0.000000 0.000000 0.000000 0.000000 0.095490 0.000000
# 6 -0.001679 0.001679 0.000000 0.000000 0.000000 0.056903
#
#
# Mechanical properties :
#
#
# Convention : Reuss Voigt Hill
#
# Bulk Modulus (GPa) = 33.02699 45.31839 39.17269
# Shear Modulus (GPa) = 14.95953 18.74306 16.85129
#
# Velocity S-wave (km/s) = 2.69517 3.01681 2.86052
# Velocity P-wave (km/s) = 5.07172 5.84297 5.47095
#
# Compressibility (1/GPa) = 0.03027827
#
# Stress axis : x y z
#
# Youngs Moduli (GPa) = 46.68228 46.68228 95.91642
#
# Poissons Ratio (x) = 0.01553 0.53534
# Poissons Ratio (y) = 0.01553 0.53534
# Poissons Ratio (z) = 0.26055 0.26055
#
# Static dielectric constant tensor:
#      x y z
#    x 1.761510 0.000000 0.000000 
#    y 0.000000 1.761510 0.000000 
#    z 0.000000 0.000000 1.732100 
# 
# From -- ./inp_files/5902.got.cif
#   From: 2010.05.17/outbox.cif.g08.bks.cpg/sg84_3_cif.got.tgz:5902.got - 2010.06.03 18:57:40.
