data_PCOD9544757
_publ_section_title
;
Structure prediction by ZEFSAII (Michael W. Deem and Ramdas Pophale) SiO2 
 PCOD9544757
Probable space group: P 4/N
;
_chemical_formula_sum "Si O2"
_cell_formula_units_Z 26
_cell_length_a 11.630620
_cell_length_b 11.630620
_cell_length_c 8.000770
_cell_angle_alpha 90.000000
_cell_angle_beta 90.000000
_cell_angle_gamma 90.000000
_cell_volume 1082.274732
_symmetry_space_group_name_H-M "P 4/N"
_symmetry_group_IT_number 85
_symmetry_cell_setting 'tetragonal'
loop_
_space_group_symop_operation_xyz
x,y,z
1/2-y,x,z
1/2-x,1/2-y,z
y,1/2-x,z
-x,-y,-z
1/2+y,-x,-z
1/2+x,1/2+y,-z
-y,1/2+x,-z
loop_
_atom_site_type_symbol
_atom_site_label
_atom_site_fract_x
_atom_site_fract_y
_atom_site_fract_z
Si Si1 0.925175 0.026100 0.336073
Si Si2 0.287415 0.068104 0.201968
Si Si3 0.250000 0.750000 0.000000
Si Si4 0.517841 0.306446 0.834873
O O1 0.977089 0.932956 0.209100
O O2 0.787853 0.005245 0.313863
O O3 0.000000 0.000000 0.500000
O O4 0.954074 0.155907 0.278383
O O5 0.380513 0.165540 0.253401
O O6 0.274866 0.051203 0.003015
O O7 0.350097 0.694768 0.110414
#
# Coordination Sequence:
#
# PCOD9544757 Si02
#       4
#     8   8   2   8
#     4  12  29  44  70 108 150 187 235 307 382 436
#     4  11  23  45  74 102 135 186 244 293 344 438
#     4  12  24  40  82 100 136 188 242 312 340 436
#     4  12  24  46  71 104 140 188 250 292 365 440
#
# _framework density 24.023475000000001
#
# number of rings (size 3 to 8) (size 9 to 14) (size 15 to 20)
#    0.000    0.308    6.154    2.769    4.308    0.615 
#    0.000    0.000    0.000    0.000    0.000    0.000 
#    0.000    0.000    0.000    0.000    0.000    0.000 
#
# Total GULP energy -145288.468180 kJ/mol
# GULP energy per Si atom -5588.018007 kJ/mol
# Density = 2.396880 g / cm^3
# Si number density = 24.023475 Si / 1000 Ang^3
#
#
#
# Elastic Constant Matrix: (Units=GPa)
#
#
# Indices 1 2 3 4 5 6 
#
# 1 81.3721 22.4533 -1.3383 0.0000 0.0000 -21.8950
# 2 22.4533 81.3721 -1.3383 0.0000 0.0000 21.8950
# 3 -1.3383 -1.3383 64.4884 0.0000 0.0000 0.0000
# 4 0.0000 0.0000 0.0000 38.1303 0.0000 0.0000
# 5 0.0000 0.0000 0.0000 0.0000 38.1303 0.0000
# 6 -21.8950 21.8950 0.0000 0.0000 0.0000 35.3550
#
#
#
# Elastic Compliance Matrix: (Units=1/GPa)
#
#
# Indices 1 2 3 4 5 6 
#
# 1 0.020542 -0.010905 0.000200 0.000000 0.000000 0.019475
# 2 -0.010905 0.020542 0.000200 0.000000 0.000000 -0.019475
# 3 0.000200 0.000200 0.015515 0.000000 0.000000 0.000000
# 4 0.000000 0.000000 0.000000 0.026226 0.000000 0.000000
# 5 0.000000 0.000000 0.000000 0.000000 0.026226 0.000000
# 6 0.019475 -0.019475 0.000000 0.000000 0.000000 0.052405
#
#
# Mechanical properties :
#
#
# Convention : Reuss Voigt Hill
#
# Bulk Modulus (GPa) = 28.09910 29.64289 28.87100
# Shear Modulus (GPa) = 25.72969 36.15353 30.94161
#
# Velocity S-wave (km/s) = 3.27620 3.88354 3.59273
# Velocity P-wave (km/s) = 5.10228 5.69870 5.40871
#
# Compressibility (1/GPa) = 0.03558833
#
# Stress axis : x y z
#
# Youngs Moduli (GPa) = 48.68158 48.68158 64.45391
#
# Poissons Ratio (x) = 0.53087 -0.01289
# Poissons Ratio (y) = 0.53087 -0.01289
# Poissons Ratio (z) = -0.00974 -0.00974
#
# Static dielectric constant tensor:
#      x y z
#    x 1.944410 0.000000 0.000000 
#    y 0.000000 1.944410 0.000000 
#    z 0.000000 0.000000 1.941240 
# 
# From -- ./inp_files/685.got.cif
#   From: 2010.05.17/outbox.cif.g08.bks.cpg/sg85_cif.got.tgz:685.got - 2010.06.03 19:01:16.
