data_PCOD9544389
_publ_section_title
;
Structure prediction by ZEFSAII (Michael W. Deem and Ramdas Pophale) SiO2 
 PCOD9544389
Probable space group: P 42/M
;
_chemical_formula_sum "Si O2"
_cell_formula_units_Z 40
_cell_length_a 14.111652
_cell_length_b 14.111652
_cell_length_c 8.296236
_cell_angle_alpha 90.000000
_cell_angle_beta 90.000000
_cell_angle_gamma 90.000000
_cell_volume 1652.101836
_symmetry_space_group_name_H-M "P 42/M"
_symmetry_group_IT_number 84
_symmetry_cell_setting 'tetragonal'
loop_
_space_group_symop_operation_xyz
x,y,z
-y,x,1/2+z
-x,-y,z
y,-x,1/2+z
-x,-y,-z
y,-x,1/2-z
x,y,-z
-y,x,1/2-z
loop_
_atom_site_type_symbol
_atom_site_label
_atom_site_fract_x
_atom_site_fract_y
_atom_site_fract_z
Si Si1 0.002694 0.613724 0.813773
Si Si2 0.624737 0.206141 0.814584
Si Si3 0.104261 0.893517 0.193455
Si Si4 0.359966 0.496884 0.179944
Si Si5 0.291491 0.192897 0.816772
O O1 0.901820 0.646451 0.739162
O O2 0.000000 0.500000 0.805041
O O3 0.101443 0.647697 0.735515
O O4 0.004979 0.644308 0.000000
O O5 0.538496 0.254490 0.717769
O O6 0.713018 0.278523 0.790565
O O7 0.598338 0.203083 0.000000
O O8 0.155271 0.814762 0.296684
O O9 0.993884 0.874980 0.226275
O O10 0.124676 0.891461 0.000000
O O11 0.406166 0.570393 0.303421
O O12 0.365820 0.535316 0.000000
O O13 0.314007 0.219397 0.000000
#
# Coordination Sequence:
#
# PCOD9544389 Si02
#       5
#     8   8   8   8   8
#     4  11  26  48  72 101 141 184 233 293 361 428
#     4  12  26  45  71 103 141 187 240 292 354 426
#     4  11  21  36  58  87 122 161 209 264 328 390
#     4  11  23  43  70 103 140 181 231 292 357 423
#     4  12  25  43  66  94 131 175 227 280 340 411
#
# _framework density 24.211583000000001
#
# number of rings (size 3 to 8) (size 9 to 14) (size 15 to 20)
#    0.000    0.600    0.000   10.200    2.800    1.600 
#    0.000    0.000    0.000    0.000    0.000    0.000 
#    0.000    0.000    0.000    0.000    0.000    0.000 
#
# Total GULP energy -223800.815534 kJ/mol
# GULP energy per Si atom -5595.020388 kJ/mol
# Density = 2.415648 g / cm^3
# Si number density = 24.211583 Si / 1000 Ang^3
#
#
#
# Elastic Constant Matrix: (Units=GPa)
#
#
# Indices 1 2 3 4 5 6 
#
# 1 88.3713 6.6976 3.4670 0.0000 0.0000 -5.9914
# 2 6.6976 88.3713 3.4670 0.0000 0.0000 5.9914
# 3 3.4670 3.4670 136.0818 0.0000 0.0000 0.0000
# 4 0.0000 0.0000 0.0000 32.4211 0.0000 0.0000
# 5 0.0000 0.0000 0.0000 0.0000 32.4211 0.0000
# 6 -5.9914 5.9914 0.0000 0.0000 0.0000 53.1876
#
#
#
# Elastic Compliance Matrix: (Units=1/GPa)
#
#
# Indices 1 2 3 4 5 6 
#
# 1 0.011494 -0.000956 -0.000268 0.000000 0.000000 0.001402
# 2 -0.000956 0.011494 -0.000268 0.000000 0.000000 -0.001402
# 3 -0.000268 -0.000268 0.007362 0.000000 0.000000 0.000000
# 4 0.000000 0.000000 0.000000 0.030844 0.000000 0.000000
# 5 0.000000 0.000000 0.000000 0.000000 0.030844 0.000000
# 6 0.001402 -0.001402 0.000000 0.000000 0.000000 0.019117
#
#
# Mechanical properties :
#
#
# Convention : Reuss Voigt Hill
#
# Bulk Modulus (GPa) = 36.54331 37.78752 37.16542
# Shear Modulus (GPa) = 40.56384 43.55213 42.05799
#
# Velocity S-wave (km/s) = 4.09759 4.24584 4.17238
# Velocity P-wave (km/s) = 6.12479 6.29900 6.21251
#
# Compressibility (1/GPa) = 0.02736479
#
# Stress axis : x y z
#
# Youngs Moduli (GPa) = 87.00236 87.00236 135.82889
#
# Poissons Ratio (x) = 0.08315 0.03647
# Poissons Ratio (y) = 0.08315 0.03647
# Poissons Ratio (z) = 0.02336 0.02336
#
# Static dielectric constant tensor:
#      x y z
#    x 2.032760 0.000000 0.000000 
#    y 0.000000 2.032760 0.000000 
#    z 0.000000 0.000000 1.845080 
# 
# From -- ./inp_files/767.got.cif
#   From: 2010.05.17/outbox.cif.g08.bks.cpg/sg84_1_cif.got.tgz:767.got - 2010.06.03 18:57:40.
