data_PCOD9544309
_publ_section_title
;
Structure prediction by ZEFSAII (Michael W. Deem and Ramdas Pophale) SiO2 
 PCOD9544309
Probable space group: P 42/M
;
_chemical_formula_sum "Si O2"
_cell_formula_units_Z 40
_cell_length_a 14.939571
_cell_length_b 14.939571
_cell_length_c 9.875306
_cell_angle_alpha 90.000000
_cell_angle_beta 90.000000
_cell_angle_gamma 90.000000
_cell_volume 2204.077265
_symmetry_space_group_name_H-M "P 42/M"
_symmetry_group_IT_number 84
_symmetry_cell_setting 'tetragonal'
loop_
_space_group_symop_operation_xyz
x,y,z
-y,x,1/2+z
-x,-y,z
y,-x,1/2+z
-x,-y,-z
y,-x,1/2-z
x,y,-z
-y,x,1/2-z
loop_
_atom_site_type_symbol
_atom_site_label
_atom_site_fract_x
_atom_site_fract_y
_atom_site_fract_z
Si Si1 0.871124 0.249871 0.749961
Si Si2 0.092255 0.553622 0.657158
Si Si3 0.931586 0.133302 0.500000
Si Si4 0.248888 0.480191 0.841590
Si Si5 0.131335 0.070933 0.500000
Si Si6 0.321863 0.679267 0.841954
O O1 0.915769 0.345194 0.712782
O O2 0.889186 0.184386 0.626057
O O3 0.768440 0.273270 0.787145
O O4 0.911413 0.195422 0.874059
O O5 0.125019 0.557686 0.500000
O O6 0.159545 0.503313 0.757828
O O7 0.000000 0.500000 0.656957
O O8 0.040720 0.131649 0.500000
O O9 0.902291 0.030531 0.500000
O O10 0.304291 0.572855 0.839572
O O11 0.296519 0.402056 0.758086
O O12 0.232989 0.457418 0.000000
O O13 0.337378 0.705241 0.000000
#
# Coordination Sequence:
#
# PCOD9544309 Si02
#       6
#     8   8   4   8   4   8
#     4  11  22  42  63  90 125 167 209 255 313 372
#     4  10  22  41  62  89 124 163 207 257 312 369
#     4  11  24  40  63  92 120 167 213 258 312 366
#     4  10  23  39  64  93 123 161 206 255 306 367
#     4  11  24  42  61  88 130 161 207 266 310 368
#     4  10  22  42  62  89 126 164 200 254 313 368
#
# _framework density 18.148185000000002
#
# number of rings (size 3 to 8) (size 9 to 14) (size 15 to 20)
#    0.000    1.600    2.000    1.800    2.800    7.200 
#    0.000    2.000    0.000    0.000    0.000    0.000 
#    0.000    0.000    0.000    0.000    0.000    0.000 
#
# Total GULP energy -223190.523428 kJ/mol
# GULP energy per Si atom -5579.763086 kJ/mol
# Density = 1.810688 g / cm^3
# Si number density = 18.148185 Si / 1000 Ang^3
#
#
#
# Elastic Constant Matrix: (Units=GPa)
#
#
# Indices 1 2 3 4 5 6 
#
# 1 92.5859 60.3140 76.5631 0.0000 0.0000 15.5438
# 2 60.3140 92.5859 76.5631 0.0000 0.0000 -15.5438
# 3 76.5631 76.5631 212.0342 0.0000 0.0000 0.0000
# 4 0.0000 0.0000 0.0000 72.0413 0.0000 0.0000
# 5 0.0000 0.0000 0.0000 0.0000 72.0413 0.0000
# 6 15.5438 -15.5438 0.0000 0.0000 0.0000 24.1563
#
#
#
# Elastic Compliance Matrix: (Units=1/GPa)
#
#
# Indices 1 2 3 4 5 6 
#
# 1 0.045879 -0.035633 -0.003699 0.000000 0.000000 -0.052450
# 2 -0.035633 0.045879 -0.003699 0.000000 0.000000 0.052450
# 3 -0.003699 -0.003699 0.007388 0.000000 0.000000 0.000000
# 4 0.000000 0.000000 0.000000 0.013881 0.000000 0.000000
# 5 0.000000 0.000000 0.000000 0.000000 0.013881 0.000000
# 6 -0.052450 0.052450 0.000000 0.000000 0.000000 0.108897
#
#
# Mechanical properties :
#
#
# Convention : Reuss Voigt Hill
#
# Bulk Modulus (GPa) = 76.44983 91.56513 84.00748
# Shear Modulus (GPa) = 15.32666 45.89883 30.61275
#
# Velocity S-wave (km/s) = 2.90923 5.03449 4.11155
# Velocity P-wave (km/s) = 7.31448 9.18468 8.30241
#
# Compressibility (1/GPa) = 0.01308047
#
# Stress axis : x y z
#
# Youngs Moduli (GPa) = 21.79666 21.79666 135.35776
#
# Poissons Ratio (x) = 0.77669 0.50074
# Poissons Ratio (y) = 0.77669 0.50074
# Poissons Ratio (z) = 0.08063 0.08063
#
# Static dielectric constant tensor:
#      x y z
#    x 1.607060 0.000000 0.000000 
#    y 0.000000 1.607060 0.000000 
#    z 0.000000 0.000000 1.584210 
# 
# From -- ./inp_files/813.got.cif
#   From: 2010.05.17/outbox.cif.g08.bks.cpg/sg84_1_cif.got.tgz:813.got - 2010.06.03 18:57:40.
