data_PCOD9544763
_publ_section_title
;
Structure prediction by ZEFSAII (Michael W. Deem and Ramdas Pophale) SiO2 
 PCOD9544763
Probable space group: P 4/N
;
_chemical_formula_sum "Si O2"
_cell_formula_units_Z 34
_cell_length_a 8.669294
_cell_length_b 8.669294
_cell_length_c 22.940633
_cell_angle_alpha 90.000000
_cell_angle_beta 90.000000
_cell_angle_gamma 90.000000
_cell_volume 1724.141319
_symmetry_space_group_name_H-M "P 4/N"
_symmetry_group_IT_number 85
_symmetry_cell_setting 'tetragonal'
loop_
_space_group_symop_operation_xyz
x,y,z
1/2-y,x,z
1/2-x,1/2-y,z
y,1/2-x,z
-x,-y,-z
1/2+y,-x,-z
1/2+x,1/2+y,-z
-y,1/2+x,-z
loop_
_atom_site_type_symbol
_atom_site_label
_atom_site_fract_x
_atom_site_fract_y
_atom_site_fract_z
Si Si1 0.919123 0.943069 0.558676
Si Si2 0.503883 0.835438 0.911725
Si Si3 0.622761 0.980201 0.195555
Si Si4 0.899038 0.538513 0.325170
Si Si5 0.250000 0.750000 0.000000
O O1 0.736345 0.959019 0.558370
O O2 0.000000 0.000000 0.500000
O O3 0.966368 0.028585 0.617737
O O4 0.561235 0.658366 0.916467
O O5 0.369782 0.845907 0.960057
O O6 0.430748 0.894565 0.851204
O O7 0.548586 0.807761 0.189020
O O8 0.572237 0.029943 0.260873
O O9 0.955895 0.714544 0.327234
#
# Coordination Sequence:
#
# PCOD9544763 Si02
#       5
#     8   8   8   8   2
#     4  11  24  39  56  82 116 153 196 246 297 350
#     4  11  24  40  61  90 120 153 198 251 301 357
#     4   9  19  38  63  89 120 159 198 239 294 359
#     4   9  19  37  61  88 117 152 195 238 285 348
#     4  12  24  44  64  84 120 164 200 242 308 380
#
# _framework density 19.719961000000001
#
# number of rings (size 3 to 8) (size 9 to 14) (size 15 to 20)
#    0.000    1.882    0.000    4.941    0.000    7.059 
#    0.000    9.412    0.000    0.000    0.000    0.000 
#    0.000    0.000    0.000    0.000    0.000    0.000 
#
# Total GULP energy -189630.934491 kJ/mol
# GULP energy per Si atom -5577.380426 kJ/mol
# Density = 1.967508 g / cm^3
# Si number density = 19.719961 Si / 1000 Ang^3
#
#
#
# Elastic Constant Matrix: (Units=GPa)
#
#
# Indices 1 2 3 4 5 6 
#
# 1 -67.2168 167.8396 83.7419 0.0000 0.0000 -13.6299
# 2 167.8396 -67.2168 83.7419 0.0000 0.0000 13.6299
# 3 83.7419 83.7419 219.1639 0.0000 0.0000 0.0000
# 4 0.0000 0.0000 0.0000 41.4922 0.0000 0.0000
# 5 0.0000 0.0000 0.0000 0.0000 41.4922 0.0000
# 6 -13.6299 13.6299 0.0000 0.0000 0.0000 30.8383
#
#
#
# Elastic Compliance Matrix: (Units=1/GPa)
#
#
# Indices 1 2 3 4 5 6 
#
# 1 0.011627 0.015674 -0.010432 0.000000 0.000000 -0.001789
# 2 0.015674 0.011627 -0.010432 0.000000 0.000000 0.001789
# 3 -0.010432 -0.010432 0.012535 0.000000 0.000000 0.000000
# 4 0.000000 0.000000 0.000000 0.024101 0.000000 0.000000
# 5 0.000000 0.000000 0.000000 0.000000 0.024101 0.000000
# 6 -0.001789 0.001789 0.000000 0.000000 0.000000 0.030846
#
#
# Mechanical properties :
#
#
# Convention : Reuss Voigt Hill
#
# Bulk Modulus (GPa) = 39.35363 83.93078 61.64220
# Shear Modulus (GPa) = 37.40081 6.05833 21.72957
#
# Velocity S-wave (km/s) = 4.35972 1.75466 3.32310
# Velocity P-wave (km/s) = 6.73368 6.83805 6.78606
#
# Compressibility (1/GPa) = 0.02541062
#
# Stress axis : x y z
#
# Youngs Moduli (GPa) = 86.00347 86.00347 79.77782
#
# Poissons Ratio (x) = -1.34804 0.83224
# Poissons Ratio (y) = -1.34804 0.83224
# Poissons Ratio (z) = 0.89718 0.89718
#
# Static dielectric constant tensor:
#      x y z
#    x 1.729000 0.000000 0.000000 
#    y 0.000000 1.729000 0.000000 
#    z 0.000000 0.000000 1.735530 
# 
# From -- ./inp_files/2168.got.cif
#   From: 2010.05.17/outbox.cif.g08.bks.cpg/sg85_cif.got.tgz:2168.got - 2010.06.03 19:01:16.
