data_PCOD9544753
_publ_section_title
;
Structure prediction by ZEFSAII (Michael W. Deem and Ramdas Pophale) SiO2 
 PCOD9544753
Probable space group: P 4/N
;
_chemical_formula_sum "Si O2"
_cell_formula_units_Z 40
_cell_length_a 10.117163
_cell_length_b 10.117163
_cell_length_c 16.204043
_cell_angle_alpha 90.000000
_cell_angle_beta 90.000000
_cell_angle_gamma 90.000000
_cell_volume 1658.597021
_symmetry_space_group_name_H-M "P 4/N"
_symmetry_group_IT_number 85
_symmetry_cell_setting 'tetragonal'
loop_
_space_group_symop_operation_xyz
x,y,z
1/2-y,x,z
1/2-x,1/2-y,z
y,1/2-x,z
-x,-y,-z
1/2+y,-x,-z
1/2+x,1/2+y,-z
-y,1/2+x,-z
loop_
_atom_site_type_symbol
_atom_site_label
_atom_site_fract_x
_atom_site_fract_y
_atom_site_fract_z
Si Si1 0.096379 0.723054 0.790899
Si Si2 0.590487 0.228535 0.389306
Si Si3 0.547762 0.665340 0.450088
Si Si4 0.964409 0.805510 0.952114
Si Si5 0.043991 0.162783 0.864575
O O1 0.250000 0.750000 0.782864
O O2 0.037657 0.757832 0.702196
O O3 0.096449 0.565970 0.807985
O O4 0.047152 0.806697 0.869062
O O5 0.750000 0.250000 0.397817
O O6 0.508655 0.310523 0.456856
O O7 0.591494 0.071234 0.404857
O O8 0.681903 0.585491 0.431084
O O9 0.839943 0.902054 0.950213
O O10 0.020507 0.835064 0.042736
O O11 0.183073 0.085675 0.854670
#
# Coordination Sequence:
#
# PCOD9544753 Si02
#       5
#     8   8   8   8   8
#     4  11  26  36  60  95 125 161 208 258 310 362
#     4  11  23  43  62  91 132 162 203 261 312 373
#     4  11  23  42  72  96 119 165 208 252 318 385
#     4   9  21  41  62  86 123 168 210 257 307 363
#     4   9  21  41  62  86 123 168 210 257 307 363
#
# _framework density 24.116769999999999
#
# number of rings (size 3 to 8) (size 9 to 14) (size 15 to 20)
#    0.000    1.800    2.000    1.800    5.600    4.800 
#    0.000    4.000    0.000    0.000    0.000    0.000 
#    0.000    0.000    0.000    0.000    0.000    0.000 
#
# Total GULP energy -223353.330061 kJ/mol
# GULP energy per Si atom -5583.833252 kJ/mol
# Density = 2.406188 g / cm^3
# Si number density = 24.116770 Si / 1000 Ang^3
#
#
#
# Elastic Constant Matrix: (Units=GPa)
#
#
# Indices 1 2 3 4 5 6 
#
# 1 139.3788 -68.0590 -21.1516 0.0000 0.0000 -69.2848
# 2 -68.0590 139.3788 -21.1516 0.0000 0.0000 69.2848
# 3 -21.1516 -21.1516 49.8380 0.0000 0.0000 0.0000
# 4 0.0000 0.0000 0.0000 -29.9818 0.0000 0.0000
# 5 0.0000 0.0000 0.0000 0.0000 -29.9818 0.0000
# 6 -69.2848 69.2848 0.0000 0.0000 0.0000 76.9234
#
#
#
# Elastic Compliance Matrix: (Units=1/GPa)
#
#
# Indices 1 2 3 4 5 6 
#
# 1 0.015420 0.003318 0.007953 0.000000 0.000000 0.010901
# 2 0.003318 0.015420 0.007953 0.000000 0.000000 -0.010901
# 3 0.007953 0.007953 0.026815 0.000000 0.000000 0.000000
# 4 0.000000 0.000000 0.000000 -0.033354 0.000000 0.000000
# 5 0.000000 0.000000 0.000000 0.000000 -0.033354 0.000000
# 6 0.010901 -0.010901 0.000000 0.000000 0.000000 0.032636
#
#
# Mechanical properties :
#
#
# Convention : Reuss Voigt Hill
#
# Bulk Modulus (GPa) = 10.40548 11.98571 11.19560
# Shear Modulus (GPa) = 291.15996 32.65581 161.90788
#
# Velocity S-wave (km/s) = 10.99961 3.68376 8.20248
# Velocity P-wave (km/s) = 12.87035 4.80355 9.71391
#
# Compressibility (1/GPa) = 0.09610322
#
# Stress axis : x y z
#
# Youngs Moduli (GPa) = 64.84906 64.84906 37.29205
#
# Poissons Ratio (x) = -0.21517 -0.29657
# Poissons Ratio (y) = -0.21517 -0.29657
# Poissons Ratio (z) = -0.51573 -0.51573
#
# Static dielectric constant tensor:
#      x y z
#    x 1.974990 0.000000 0.000000 
#    y 0.000000 1.974990 0.000000 
#    z 0.000000 0.000000 2.052490 
# 
# From -- ./inp_files/1906.got.cif
#   From: 2010.05.17/outbox.cif.g08.bks.cpg/sg85_cif.got.tgz:1906.got - 2010.06.03 19:01:16.
