data_PCOD9544096
_publ_section_title
;
Structure prediction by ZEFSAII (Michael W. Deem and Ramdas Pophale) SiO2 
 PCOD9544096
Probable space group: P 42/M
;
_chemical_formula_sum "Si O2"
_cell_formula_units_Z 64
_cell_length_a 20.874913
_cell_length_b 20.874913
_cell_length_c 7.488378
_cell_angle_alpha 90.000000
_cell_angle_beta 90.000000
_cell_angle_gamma 90.000000
_cell_volume 3263.150520
_symmetry_space_group_name_H-M "P 42/M"
_symmetry_group_IT_number 84
_symmetry_cell_setting 'tetragonal'
loop_
_space_group_symop_operation_xyz
x,y,z
-y,x,1/2+z
-x,-y,z
y,-x,1/2+z
-x,-y,-z
y,-x,1/2-z
x,y,-z
-y,x,1/2-z
loop_
_atom_site_type_symbol
_atom_site_label
_atom_site_fract_x
_atom_site_fract_y
_atom_site_fract_z
Si Si1 0.409558 0.127185 0.781290
Si Si2 0.555648 0.135575 0.781945
Si Si3 0.099064 0.015164 0.798254
Si Si4 0.905827 0.753249 0.714891
Si Si5 0.330147 0.783640 0.786340
Si Si6 0.128108 0.825993 0.710630
Si Si7 0.011886 0.359875 0.717644
Si Si8 0.293449 0.211424 0.212837
O O1 0.482515 0.136483 0.721831
O O2 0.360477 0.182599 0.723391
O O3 0.382635 0.057828 0.724104
O O4 0.410558 0.126725 0.000000
O O5 0.598691 0.196790 0.724924
O O6 0.591792 0.069490 0.730046
O O7 0.555127 0.135061 0.000000
O O8 0.156450 0.057688 0.719203
O O9 0.041530 0.066956 0.808787
O O10 0.114532 0.993273 0.000000
O O11 0.906714 0.753201 0.500000
O O12 0.844283 0.711998 0.775577
O O13 0.886654 0.824033 0.770914
O O14 0.966753 0.711674 0.773465
O O15 0.286182 0.722709 0.742487
O O16 0.332323 0.785278 0.000000
O O17 0.117952 0.815072 0.500000
O O18 0.166804 0.764931 0.784529
O O19 0.010834 0.360106 0.500000
O O20 0.292451 0.203099 0.000000
#
# Coordination Sequence:
#
# PCOD9544096 Si02
#       8
#     8   8   8   8   8   8   8   8
#     4   9  15  22  36  60  88 111 131 163 205 242
#     4   8  13  22  38  60  83 108 139 170 199 235
#     4  10  20  33  46  58  72  92 123 165 210 250
#     4   8  14  24  40  60  78 102 137 167 191 228
#     4   8  14  26  42  58  78 106 139 169 194 225
#     4   9  18  30  42  57  78 103 130 162 201 243
#     4   8  13  21  35  58  86 111 135 166 202 236
#     4   9  17  28  41  60  85 109 132 160 197 237
#
# _framework density 19.612949
#
# number of rings (size 3 to 8) (size 9 to 14) (size 15 to 20)
#    0.000    3.375    0.000    2.625    0.000    3.500 
#    0.000    2.500    0.000    1.500    0.000    0.000 
#    0.000    7.500    0.000    6.250    0.000    0.000 
#
# Total GULP energy -356547.819981 kJ/mol
# GULP energy per Si atom -5571.059687 kJ/mol
# Density = 1.956831 g / cm^3
# Si number density = 19.612949 Si / 1000 Ang^3
#
#
#
# Elastic Constant Matrix: (Units=GPa)
#
#
# Indices 1 2 3 4 5 6 
#
# 1 82.3802 81.3865 -1.0139 0.0000 0.0000 -6.2371
# 2 81.3865 82.3802 -1.0139 0.0000 0.0000 6.2371
# 3 -1.0139 -1.0139 52.3019 0.0000 0.0000 0.0000
# 4 0.0000 0.0000 0.0000 9.2480 0.0000 0.0000
# 5 0.0000 0.0000 0.0000 0.0000 9.2480 0.0000
# 6 -6.2371 6.2371 0.0000 0.0000 0.0000 24.7966
#
#
#
# Elastic Compliance Matrix: (Units=1/GPa)
#
#
# Indices 1 2 3 4 5 6 
#
# 1 -0.230154 0.236262 0.000118 0.000000 0.000000 -0.117318
# 2 0.236262 -0.230154 0.000118 0.000000 0.000000 0.117318
# 3 0.000118 0.000118 0.019124 0.000000 0.000000 0.000000
# 4 0.000000 0.000000 0.000000 0.108132 0.000000 0.000000
# 5 0.000000 0.000000 0.000000 0.000000 0.108132 0.000000
# 6 -0.117318 0.117318 0.000000 0.000000 0.000000 -0.018691
#
#
# Mechanical properties :
#
#
# Convention : Reuss Voigt Hill
#
# Bulk Modulus (GPa) = 31.43332 41.75332 36.59332
# Shear Modulus (GPa) = -7.08212 17.83876 5.37832
#
# Velocity S-wave (km/s) = -1.90231 3.01913 1.65776
# Velocity P-wave (km/s) = 3.35210 5.78692 4.72890
#
# Compressibility (1/GPa) = 0.03181337
#
# Stress axis : x y z
#
# Youngs Moduli (GPa) = -4.34492 -4.34492 52.28937
#
# Poissons Ratio (x) = 1.02654 -0.00619
# Poissons Ratio (y) = 1.02654 -0.00619
# Poissons Ratio (z) = 0.00051 0.00051
#
# Static dielectric constant tensor:
#      x y z
#    x 1.716680 0.000000 0.000000 
#    y 0.000000 1.716680 0.000000 
#    z 0.000000 0.000000 1.758510 
# 
# From -- ./inp_files/1415.got.cif
#   From: 2010.05.17/outbox.cif.g08.bks.cpg/sg84_1_cif.got.tgz:1415.got - 2010.06.03 18:57:40.
