data_PCOD9544214
_publ_section_title
;
Structure prediction by ZEFSAII (Michael W. Deem and Ramdas Pophale) SiO2 
 PCOD9544214
Probable space group: P 42/M
;
_chemical_formula_sum "Si O2"
_cell_formula_units_Z 48
_cell_length_a 17.447127
_cell_length_b 17.447127
_cell_length_c 8.884160
_cell_angle_alpha 90.000000
_cell_angle_beta 90.000000
_cell_angle_gamma 90.000000
_cell_volume 2704.358209
_symmetry_space_group_name_H-M "P 42/M"
_symmetry_group_IT_number 84
_symmetry_cell_setting 'tetragonal'
loop_
_space_group_symop_operation_xyz
x,y,z
-y,x,1/2+z
-x,-y,z
y,-x,1/2+z
-x,-y,-z
y,-x,1/2-z
x,y,-z
-y,x,1/2-z
loop_
_atom_site_type_symbol
_atom_site_label
_atom_site_fract_x
_atom_site_fract_y
_atom_site_fract_z
Si Si1 0.403640 0.062958 0.323965
Si Si2 0.054082 0.280764 0.818748
Si Si3 0.681759 0.211636 0.182051
Si Si4 0.229996 0.637581 0.823679
Si Si5 0.491420 0.822444 0.821008
Si Si6 0.995685 0.115476 0.820539
O O1 0.420677 0.051072 0.500000
O O2 0.347866 0.138105 0.314208
O O3 0.479445 0.095752 0.244454
O O4 0.356329 0.991242 0.264055
O O5 0.137441 0.276091 0.746629
O O6 0.005701 0.204668 0.785735
O O7 0.060874 0.286151 0.000000
O O8 0.720673 0.291063 0.231766
O O9 0.592933 0.202311 0.228751
O O10 0.685335 0.210105 0.000000
O O11 0.235977 0.557173 0.736477
O O12 0.247360 0.624996 0.000000
O O13 0.492617 0.826433 0.000000
O O14 0.928291 0.072831 0.731521
O O15 0.984872 0.105855 0.000000
#
# Coordination Sequence:
#
# PCOD9544214 Si02
#       6
#     8   8   8   8   8   8
#     4   8  17  35  53  70  99 139 169 198 252 309
#     4  10  22  35  51  77 104 133 175 218 252 304
#     4  10  21  35  54  80 106 136 172 213 260 311
#     4   8  17  35  55  72  99 140 173 200 255 314
#     4   9  18  33  53  79 106 132 170 217 257 300
#     4  10  21  36  52  71  97 133 175 220 264 308
#
# _framework density 17.749129
#
# number of rings (size 3 to 8) (size 9 to 14) (size 15 to 20)
#    1.000    1.833    0.000    1.000    2.333    4.667 
#    0.000    3.333    0.000    0.500    0.000    3.500 
#    0.000    0.000    0.000    0.000    0.000    0.000 
#
# Total GULP energy -267204.538105 kJ/mol
# GULP energy per Si atom -5566.761211 kJ/mol
# Density = 1.770873 g / cm^3
# Si number density = 17.749129 Si / 1000 Ang^3
#
#
#
# Elastic Constant Matrix: (Units=GPa)
#
#
# Indices 1 2 3 4 5 6 
#
# 1 56.0509 13.6086 1.8067 0.0000 0.0000 -2.3815
# 2 13.6086 56.0509 1.8067 0.0000 0.0000 2.3815
# 3 1.8067 1.8067 11.9676 0.0000 0.0000 0.0000
# 4 0.0000 0.0000 0.0000 59.1888 0.0000 0.0000
# 5 0.0000 0.0000 0.0000 0.0000 59.1888 0.0000
# 6 -2.3815 2.3815 0.0000 0.0000 0.0000 22.8174
#
#
#
# Elastic Compliance Matrix: (Units=1/GPa)
#
#
# Indices 1 2 3 4 5 6 
#
# 1 0.019155 -0.004686 -0.002184 0.000000 0.000000 0.002488
# 2 -0.004686 0.019155 -0.002184 0.000000 0.000000 -0.002488
# 3 -0.002184 -0.002184 0.084218 0.000000 0.000000 0.000000
# 4 0.000000 0.000000 0.000000 0.016895 0.000000 0.000000
# 5 0.000000 0.000000 0.000000 0.000000 0.016895 0.000000
# 6 0.002488 -0.002488 0.000000 0.000000 0.000000 0.044346
#
#
# Mechanical properties :
#
#
# Convention : Reuss Voigt Hill
#
# Bulk Modulus (GPa) = 9.57680 17.61260 13.59470
# Shear Modulus (GPa) = 19.71772 35.36215 27.53994
#
# Velocity S-wave (km/s) = 3.33665 4.46840 3.94334
# Velocity P-wave (km/s) = 4.50019 6.04704 5.33003
#
# Compressibility (1/GPa) = 0.10441903
#
# Stress axis : x y z
#
# Youngs Moduli (GPa) = 52.20642 52.20642 11.87388
#
# Poissons Ratio (x) = 0.24463 0.02594
# Poissons Ratio (y) = 0.24463 0.02594
# Poissons Ratio (z) = 0.11403 0.11403
#
# Static dielectric constant tensor:
#      x y z
#    x 1.616470 0.000000 0.000000 
#    y 0.000000 1.616470 0.000000 
#    z 0.000000 0.000000 1.596150 
# 
# From -- ./inp_files/1023.got.cif
#   From: 2010.05.17/outbox.cif.g08.bks.cpg/sg84_1_cif.got.tgz:1023.got - 2010.06.03 18:57:40.
