data_PCOD9544057
_publ_section_title
;
Structure prediction by ZEFSAII (Michael W. Deem and Ramdas Pophale) SiO2 
 PCOD9544057
Probable space group: P 42/M
;
_chemical_formula_sum "Si O2"
_cell_formula_units_Z 48
_cell_length_a 16.809437
_cell_length_b 16.809437
_cell_length_c 8.359842
_cell_angle_alpha 90.000000
_cell_angle_beta 90.000000
_cell_angle_gamma 90.000000
_cell_volume 2362.133316
_symmetry_space_group_name_H-M "P 42/M"
_symmetry_group_IT_number 84
_symmetry_cell_setting 'tetragonal'
loop_
_space_group_symop_operation_xyz
x,y,z
-y,x,1/2+z
-x,-y,z
y,-x,1/2+z
-x,-y,-z
y,-x,1/2-z
x,y,-z
-y,x,1/2-z
loop_
_atom_site_type_symbol
_atom_site_label
_atom_site_fract_x
_atom_site_fract_y
_atom_site_fract_z
Si Si1 0.375505 0.759833 0.310223
Si Si2 0.885501 0.750475 0.689928
Si Si3 0.084508 0.915326 0.318138
Si Si4 0.129959 0.504934 0.310489
Si Si5 0.372239 0.009640 0.809914
Si Si6 0.587058 0.585137 0.187144
O O1 0.362987 0.765975 0.500000
O O2 0.310754 0.814381 0.223549
O O3 0.462935 0.795502 0.271176
O O4 0.371204 0.667689 0.263487
O O5 0.893670 0.761702 0.500000
O O6 0.871909 0.834690 0.771951
O O7 0.966935 0.707287 0.751752
O O8 0.061259 0.898615 0.500000
O O9 0.009261 0.898404 0.206430
O O10 0.146436 0.513620 0.500000
O O11 0.059341 0.439276 0.295048
O O12 0.090464 0.586847 0.247143
O O13 0.360878 0.022401 0.000000
O O14 0.602887 0.490990 0.210922
O O15 0.570857 0.600986 0.000000
#
# Coordination Sequence:
#
# PCOD9544057 Si02
#       6
#     8   8   8   8   8   8
#     4  10  20  33  50  79 112 140 172 220 274 324
#     4  10  19  34  56  81 109 144 180 221 270 319
#     4  11  22  39  61  84 109 141 182 225 267 318
#     4   8  13  25  45  68  96 136 177 211 250 309
#     4   7  12  24  44  69  98 133 175 212 251 307
#     4  10  21  37  58  79 103 136 179 225 271 323
#
# _framework density 20.320616000000001
#
# number of rings (size 3 to 8) (size 9 to 14) (size 15 to 20)
#    0.000    2.667    0.000    6.000    0.000    2.667 
#    0.000    9.167    0.000    6.000    0.000    0.000 
#    0.000    0.000    0.000    0.000    0.000    0.000 
#
# Total GULP energy -267536.253541 kJ/mol
# GULP energy per Si atom -5573.671949 kJ/mol
# Density = 2.027437 g / cm^3
# Si number density = 20.320616 Si / 1000 Ang^3
#
#
#
# Elastic Constant Matrix: (Units=GPa)
#
#
# Indices 1 2 3 4 5 6 
#
# 1 43.6187 -0.9678 -3.3395 0.0000 0.0000 0.8294
# 2 -0.9678 43.6187 -3.3395 0.0000 0.0000 -0.8294
# 3 -3.3395 -3.3395 28.0257 0.0000 0.0000 0.0000
# 4 0.0000 0.0000 0.0000 289.2475 0.0000 0.0000
# 5 0.0000 0.0000 0.0000 0.0000 289.2475 0.0000
# 6 0.8294 -0.8294 0.0000 0.0000 0.0000 5.7431
#
#
#
# Elastic Compliance Matrix: (Units=1/GPa)
#
#
# Indices 1 2 3 4 5 6 
#
# 1 0.023221 0.000671 0.002847 0.000000 0.000000 -0.003256
# 2 0.000671 0.023221 0.002847 0.000000 0.000000 0.003256
# 3 0.002847 0.002847 0.036360 0.000000 0.000000 0.000000
# 4 0.000000 0.000000 0.000000 0.003457 0.000000 0.000000
# 5 0.000000 0.000000 0.000000 0.000000 0.003457 0.000000
# 6 -0.003256 0.003256 0.000000 0.000000 0.000000 0.175063
#
#
# Mechanical properties :
#
#
# Convention : Reuss Voigt Hill
#
# Bulk Modulus (GPa) = 10.46771 11.10771 10.78771
# Shear Modulus (GPa) = 17.61227 125.04162 71.32695
#
# Velocity S-wave (km/s) = 2.94720 7.85289 5.93102
# Velocity P-wave (km/s) = 4.09192 9.36494 7.22654
#
# Compressibility (1/GPa) = 0.09553188
#
# Stress axis : x y z
#
# Youngs Moduli (GPa) = 43.06502 43.06502 27.50273
#
# Poissons Ratio (x) = -0.02891 -0.07830
# Poissons Ratio (y) = -0.02891 -0.07830
# Poissons Ratio (z) = -0.12260 -0.12260
#
# Static dielectric constant tensor:
#      x y z
#    x 1.756700 0.000000 0.000000 
#    y 0.000000 1.756700 0.000000 
#    z 0.000000 0.000000 1.694280 
# 
# From -- ./inp_files/977.got.cif
#   From: 2010.05.17/outbox.cif.g08.bks.cpg/sg84_1_cif.got.tgz:977.got - 2010.06.03 18:57:40.
