data_PCOD9544357
_publ_section_title
;
Structure prediction by ZEFSAII (Michael W. Deem and Ramdas Pophale) SiO2 
 PCOD9544357
Probable space group: P 42/M
;
_chemical_formula_sum "Si O2"
_cell_formula_units_Z 28
_cell_length_a 8.279048
_cell_length_b 8.279048
_cell_length_c 17.951765
_cell_angle_alpha 90.000000
_cell_angle_beta 90.000000
_cell_angle_gamma 90.000000
_cell_volume 1230.461290
_symmetry_space_group_name_H-M "P 42/M"
_symmetry_group_IT_number 84
_symmetry_cell_setting 'tetragonal'
loop_
_space_group_symop_operation_xyz
x,y,z
-y,x,1/2+z
-x,-y,z
y,-x,1/2+z
-x,-y,-z
y,-x,1/2-z
x,y,-z
-y,x,1/2-z
loop_
_atom_site_type_symbol
_atom_site_label
_atom_site_fract_x
_atom_site_fract_y
_atom_site_fract_z
Si Si1 0.500000 0.500000 0.750000
Si Si2 0.769142 0.579901 0.000000
Si Si3 0.500000 0.000000 0.370471
Si Si4 0.500000 0.000000 0.120997
Si Si5 0.423928 0.753926 0.000000
Si Si6 0.000000 0.000000 0.250000
Si Si7 0.814265 0.307251 0.256620
O O1 0.642378 0.628296 0.770300
O O2 0.881591 0.597114 0.072780
O O3 0.610066 0.691147 0.000000
O O4 0.694978 0.397710 0.000000
O O5 0.387872 0.112630 0.318554
O O6 0.379009 0.095307 0.172552
O O7 0.593390 0.129970 0.070621
O O8 0.883849 0.839841 0.244723
#
# Coordination Sequence:
#
# PCOD9544357 Si02
#       7
#     2   4   4   4   4   2   8
#     4  12  28  48  76 118 140 200 244 310 364 472
#     4  10  24  42  70 100 148 200 250 298 368 452
#     4  10  24  46  66 110 144 194 244 312 362 440
#     4  10  24  46  66 110 144 194 244 312 362 440
#     4  10  24  42  70 100 148 200 250 298 368 452
#     4  12  28  48  68 126 148 184 228 326 396 432
#     4  11  26  45  78 106 146 186 250 306 380 430
#
# _framework density 22.755693000000001
#
# number of rings (size 3 to 8) (size 9 to 14) (size 15 to 20)
#    0.000    1.429    0.000    3.429   16.000    0.000 
#    0.000    0.000    0.000    6.857    0.000    0.000 
#    0.000    0.000    0.000    0.000    0.000    0.000 
#
# Total GULP energy -155903.818371 kJ/mol
# GULP energy per Si atom -5567.993513 kJ/mol
# Density = 2.270390 g / cm^3
# Si number density = 22.755693 Si / 1000 Ang^3
#
#
#
# Elastic Constant Matrix: (Units=GPa)
#
#
# Indices 1 2 3 4 5 6 
#
# 1 116.3064 41.3204 26.8263 0.0000 0.0000 7.6563
# 2 41.3204 116.3064 26.8263 0.0000 0.0000 -7.6563
# 3 26.8263 26.8263 118.9626 0.0000 0.0000 0.0000
# 4 0.0000 0.0000 0.0000 53.0027 0.0000 0.0000
# 5 0.0000 0.0000 0.0000 0.0000 53.0027 0.0000
# 6 7.6563 -7.6563 0.0000 0.0000 0.0000 55.1755
#
#
#
# Elastic Compliance Matrix: (Units=1/GPa)
#
#
# Indices 1 2 3 4 5 6 
#
# 1 0.010298 -0.003427 -0.001550 0.000000 0.000000 -0.001904
# 2 -0.003427 0.010298 -0.001550 0.000000 0.000000 0.001904
# 3 -0.001550 -0.001550 0.009105 0.000000 0.000000 0.000000
# 4 0.000000 0.000000 0.000000 0.018867 0.000000 0.000000
# 5 0.000000 0.000000 0.000000 0.000000 0.018867 0.000000
# 6 -0.001904 0.001904 0.000000 0.000000 0.000000 0.018653
#
#
# Mechanical properties :
#
#
# Convention : Reuss Voigt Hill
#
# Bulk Modulus (GPa) = 60.06100 60.16903 60.11502
# Shear Modulus (GPa) = 47.76059 49.34301 48.55180
#
# Velocity S-wave (km/s) = 4.58628 4.66164 4.62411
# Velocity P-wave (km/s) = 7.38217 7.44803 7.41518
#
# Compressibility (1/GPa) = 0.01664974
#
# Stress axis : x y z
#
# Youngs Moduli (GPa) = 97.10507 97.10507 109.83158
#
# Poissons Ratio (x) = 0.33274 0.17019
# Poissons Ratio (y) = 0.33274 0.17019
# Poissons Ratio (z) = 0.15047 0.15047
#
# Static dielectric constant tensor:
#      x y z
#    x 1.944360 0.000000 0.000000 
#    y 0.000000 1.944360 0.000000 
#    z 0.000000 0.000000 1.873660 
# 
# From -- ./inp_files/3520.got.cif
#   From: 2010.05.17/outbox.cif.g08.bks.cpg/sg84_2_cif.got.tgz:3520.got - 2010.06.03 18:57:40.
