data_PCOD9544472
_publ_section_title
;
Structure prediction by ZEFSAII (Michael W. Deem and Ramdas Pophale) SiO2 
 PCOD9544472
Probable space group: P 42/M
;
_chemical_formula_sum "Si O2"
_cell_formula_units_Z 56
_cell_length_a 15.000000
_cell_length_b 15.000000
_cell_length_c 15.000000
_cell_angle_alpha 90.000000
_cell_angle_beta 90.000000
_cell_angle_gamma 90.000000
_cell_volume 3375.000000
_symmetry_space_group_name_H-M "P 42/M"
_symmetry_group_IT_number 84
_symmetry_cell_setting 'tetragonal'
loop_
_space_group_symop_operation_xyz
x,y,z
-y,x,1/2+z
-x,-y,z
y,-x,1/2+z
-x,-y,-z
y,-x,1/2-z
x,y,-z
-y,x,1/2-z
loop_
_atom_site_type_symbol
_atom_site_label
_atom_site_fract_x
_atom_site_fract_y
_atom_site_fract_z
Si Si1 0.896380 0.784901 0.097788
Si Si2 0.603996 0.801259 0.107710
Si Si3 0.397977 0.798259 0.107562
Si Si4 0.639910 0.001434 0.897662
Si Si5 0.074453 0.826640 0.164357
Si Si6 0.849102 0.988141 0.862275
Si Si7 0.244827 0.253481 0.753075
O O1 0.882283 0.892939 0.102055
O O2 0.840036 0.743201 0.178906
O O3 0.001905 0.771346 0.109854
O O4 0.866083 0.754723 0.000000
O O5 0.501480 0.770100 0.114649
O O6 0.672193 0.755003 0.177462
O O7 0.607601 0.905890 0.136409
O O8 0.628934 0.796084 0.000000
O O9 0.391918 0.902908 0.135790
O O10 0.331723 0.751396 0.178803
O O11 0.373360 0.791653 0.000000
O O12 0.746842 0.999603 0.890735
O O13 0.611143 0.001224 0.000000
O O14 0.022469 0.850940 0.255533
O O15 0.162456 0.774168 0.196575
O O16 0.100432 0.919910 0.117145
#
# Coordination Sequence:
#
# PCOD9544472 Si02
#       7
#     8   8   8   8   8   8   8
#     4  11  22  31  45  70 104 148 193 225 259 311
#     4  10  20  35  58  84 109 139 181 229 276 320
#     4  10  21  36  56  83 110 140 180 228 276 320
#     4  10  17  29  48  74 106 140 179 224 265 303
#     4  11  19  28  43  63 102 148 184 219 258 305
#     4  11  18  28  42  63 101 148 188 221 256 300
#     4  11  21  35  56  76 109 142 178 227 273 328
#
# _framework density 16.592593000000001
#
# number of rings (size 3 to 8) (size 9 to 14) (size 15 to 20)
#    0.000    1.429    7.143    1.714    0.000    4.000 
#    0.000    0.000    0.000    2.143    0.000    3.000 
#    0.000    0.000    0.000    0.000    0.000    0.000 
#
# Total GULP energy -311975.838448 kJ/mol
# GULP energy per Si atom -5570.997115 kJ/mol
# Density = 1.655483 g / cm^3
# Si number density = 16.592593 Si / 1000 Ang^3
#
#
#
# Elastic Constant Matrix: (Units=GPa)
#
#
# Indices 1 2 3 4 5 6 
#
# 1 75.6360 17.3022 31.6430 0.0000 0.0000 0.5782
# 2 17.3022 75.6360 31.6430 0.0000 0.0000 -0.5782
# 3 31.6430 31.6430 91.6268 0.0000 0.0000 0.0000
# 4 0.0000 0.0000 0.0000 22.9494 0.0000 0.0000
# 5 0.0000 0.0000 0.0000 0.0000 22.9494 0.0000
# 6 0.5782 -0.5782 0.0000 0.0000 0.0000 5.4193
#
#
#
# Elastic Compliance Matrix: (Units=1/GPa)
#
#
# Indices 1 2 3 4 5 6 
#
# 1 0.015624 -0.001555 -0.004858 0.000000 0.000000 -0.001833
# 2 -0.001555 0.015624 -0.004858 0.000000 0.000000 0.001833
# 3 -0.004858 -0.004858 0.014269 0.000000 0.000000 0.000000
# 4 0.000000 0.000000 0.000000 0.043574 0.000000 0.000000
# 5 0.000000 0.000000 0.000000 0.000000 0.043574 0.000000
# 6 -0.001833 0.001833 0.000000 0.000000 0.000000 0.184916
#
#
# Mechanical properties :
#
#
# Convention : Reuss Voigt Hill
#
# Bulk Modulus (GPa) = 43.53079 44.89723 44.21401
# Shear Modulus (GPa) = 14.37677 21.08433 17.73055
#
# Velocity S-wave (km/s) = 2.94676 3.56857 3.27246
# Velocity P-wave (km/s) = 6.15385 6.64055 6.40183
#
# Compressibility (1/GPa) = 0.02297225
#
# Stress axis : x y z
#
# Youngs Moduli (GPa) = 64.00574 64.00574 70.07955
#
# Poissons Ratio (x) = 0.09956 0.34047
# Poissons Ratio (y) = 0.09956 0.34047
# Poissons Ratio (z) = 0.31096 0.31096
#
# Static dielectric constant tensor:
#      x y z
#    x 1.584680 0.000000 0.000000 
#    y 0.000000 1.584680 0.000000 
#    z 0.000000 0.000000 1.593220 
# 
# From -- ./inp_files/3122.got.cif
#   From: 2010.05.17/outbox.ucp.g08.bks.cvg/sg84_2_cif.got.tgz:3122.got - 2010.06.11 10:34:57.
