data_PCOD9544187
_publ_section_title
;
Structure prediction by ZEFSAII (Michael W. Deem and Ramdas Pophale) SiO2 
 PCOD9544187
Probable space group: P 42/M
;
_chemical_formula_sum "Si O2"
_cell_formula_units_Z 48
_cell_length_a 9.669034
_cell_length_b 9.669034
_cell_length_c 28.020575
_cell_angle_alpha 90.000000
_cell_angle_beta 90.000000
_cell_angle_gamma 90.000000
_cell_volume 2619.649679
_symmetry_space_group_name_H-M "P 42/M"
_symmetry_group_IT_number 84
_symmetry_cell_setting 'tetragonal'
loop_
_space_group_symop_operation_xyz
x,y,z
-y,x,1/2+z
-x,-y,z
y,-x,1/2+z
-x,-y,-z
y,-x,1/2-z
x,y,-z
-y,x,1/2-z
loop_
_atom_site_type_symbol
_atom_site_label
_atom_site_fract_x
_atom_site_fract_y
_atom_site_fract_z
Si Si1 0.253606 0.323786 0.610316
Si Si2 0.831460 0.662533 0.716101
Si Si3 0.663154 0.839025 0.208439
Si Si4 0.517303 0.835337 0.556965
Si Si5 0.993361 0.333902 0.448578
Si Si6 0.349598 0.280247 0.898285
O O1 0.251838 0.307364 0.667103
O O2 0.340085 0.216929 0.579409
O O3 0.096864 0.300835 0.593495
O O4 0.297874 0.483000 0.598105
O O5 0.818212 0.497114 0.724413
O O6 0.765511 0.754634 0.757486
O O7 0.995784 0.689582 0.709474
O O8 0.673702 0.777806 0.154980
O O9 0.507831 0.806505 0.500000
O O10 0.410014 0.741628 0.586953
O O11 0.500000 0.000000 0.563618
O O12 0.034662 0.276045 0.500000
O O13 0.000000 0.500000 0.451555
O O14 0.838125 0.301695 0.434858
#
# Coordination Sequence:
#
# PCOD9544187 Si02
#       6
#     8   8   8   8   8   8
#     4  10  20  38  62  88 117 151 197 248 296 351
#     4  10  22  40  61  88 120 154 196 247 300 355
#     4  10  22  40  61  88 120 154 196 247 300 355
#     4  11  25  41  57  85 127 165 197 239 296 357
#     4   9  16  30  59  91 115 143 187 241 294 345
#     4  10  20  38  62  88 117 151 197 248 296 351
#
# _framework density 18.323059000000001
#
# number of rings (size 3 to 8) (size 9 to 14) (size 15 to 20)
#    0.000    2.000    1.667    1.500    2.333    4.667 
#    0.000    0.833    0.000    3.000    0.000    0.000 
#    0.000    0.000    0.000    0.000    0.000    0.000 
#
# Total GULP energy -267557.982751 kJ/mol
# GULP energy per Si atom -5574.124641 kJ/mol
# Density = 1.828136 g / cm^3
# Si number density = 18.323059 Si / 1000 Ang^3
#
#
#
# Elastic Constant Matrix: (Units=GPa)
#
#
# Indices 1 2 3 4 5 6 
#
# 1 57.4240 28.0269 33.4879 0.0000 0.0000 -1.6216
# 2 28.0269 57.4240 33.4879 0.0000 0.0000 1.6216
# 3 33.4879 33.4879 87.7775 0.0000 0.0000 0.0000
# 4 0.0000 0.0000 0.0000 106.9183 0.0000 0.0000
# 5 0.0000 0.0000 0.0000 0.0000 106.9183 0.0000
# 6 -1.6216 1.6216 0.0000 0.0000 0.0000 16.0649
#
#
#
# Elastic Compliance Matrix: (Units=1/GPa)
#
#
# Indices 1 2 3 4 5 6 
#
# 1 0.025547 -0.008853 -0.006369 0.000000 0.000000 0.003472
# 2 -0.008853 0.025547 -0.006369 0.000000 0.000000 -0.003472
# 3 -0.006369 -0.006369 0.016252 0.000000 0.000000 0.000000
# 4 0.000000 0.000000 0.000000 0.009353 0.000000 0.000000
# 5 0.000000 0.000000 0.000000 0.000000 0.009353 0.000000
# 6 0.003472 -0.003472 0.000000 0.000000 0.000000 0.062948
#
#
# Mechanical properties :
#
#
# Convention : Reuss Voigt Hill
#
# Bulk Modulus (GPa) = 41.38221 43.62565 42.50393
# Shear Modulus (GPa) = 24.97025 53.15515 39.06270
#
# Velocity S-wave (km/s) = 3.69559 5.39193 4.62225
# Velocity P-wave (km/s) = 6.39090 7.91358 7.19265
#
# Compressibility (1/GPa) = 0.02416497
#
# Stress axis : x y z
#
# Youngs Moduli (GPa) = 39.14293 39.14293 61.52998
#
# Poissons Ratio (x) = 0.34652 0.39190
# Poissons Ratio (y) = 0.34652 0.39190
# Poissons Ratio (z) = 0.24931 0.24931
#
# Static dielectric constant tensor:
#      x y z
#    x 1.648320 0.000000 0.000000 
#    y 0.000000 1.648320 0.000000 
#    z 0.000000 0.000000 1.620670 
# 
# From -- ./inp_files/5738.got.cif
#   From: 2010.05.17/outbox.cif.g08.bks.cpg/sg84_3_cif.got.tgz:5738.got - 2010.06.03 18:57:40.
