data_PCOD9544593
_publ_section_title
;
Structure prediction by ZEFSAII (Michael W. Deem and Ramdas Pophale) SiO2 
 PCOD9544593
Probable space group: P 4/N
;
_chemical_formula_sum "Si O2"
_cell_formula_units_Z 56
_cell_length_a 14.675987
_cell_length_b 14.675987
_cell_length_c 10.665902
_cell_angle_alpha 90.000000
_cell_angle_beta 90.000000
_cell_angle_gamma 90.000000
_cell_volume 2297.270976
_symmetry_space_group_name_H-M "P 4/N"
_symmetry_group_IT_number 85
_symmetry_cell_setting 'tetragonal'
loop_
_space_group_symop_operation_xyz
x,y,z
1/2-y,x,z
1/2-x,1/2-y,z
y,1/2-x,z
-x,-y,-z
1/2+y,-x,-z
1/2+x,1/2+y,-z
-y,1/2+x,-z
loop_
_atom_site_type_symbol
_atom_site_label
_atom_site_fract_x
_atom_site_fract_y
_atom_site_fract_z
Si Si1 0.612272 0.933901 0.869750
Si Si2 0.945832 0.760541 0.639455
Si Si3 0.787482 0.459708 0.063544
Si Si4 0.124117 0.949870 0.752174
Si Si5 0.436188 0.828170 0.846661
Si Si6 0.120711 0.319726 0.603112
Si Si7 0.297493 0.873801 0.442074
O O1 0.678922 0.905286 0.753918
O O2 0.530639 0.867578 0.900856
O O3 0.566211 0.026977 0.817279
O O4 0.666148 0.954348 0.996746
O O5 0.886913 0.695795 0.548778
O O6 0.024231 0.705132 0.715279
O O7 0.016967 0.812743 0.545654
O O8 0.700481 0.473920 0.147990
O O9 0.860539 0.404372 0.143914
O O10 0.753587 0.406033 0.938171
O O11 0.149682 0.855827 0.681766
O O12 0.129015 0.032096 0.652539
O O13 0.131593 0.213951 0.644021
O O14 0.343636 0.807658 0.545068
#
# Coordination Sequence:
#
# PCOD9544593 Si02
#       7
#     8   8   8   8   8   8   8
#     4  10  23  46  66  92 127 171 221 268 316 384
#     4  10  22  43  67  98 125 173 220 259 325 384
#     4  11  24  40  65  93 127 168 210 268 324 385
#     4  11  24  41  62  96 127 172 214 262 334 389
#     4  11  24  42  66  95 128 169 213 271 319 389
#     4  11  25  44  65  93 131 171 220 274 321 382
#     4  10  21  38  59  91 136 161 199 260 315 392
#
# _framework density 24.376750000000001
#
# number of rings (size 3 to 8) (size 9 to 14) (size 15 to 20)
#    0.000    1.429    2.857    1.286    6.000    0.286 
#    0.000    2.143    0.000    3.857    0.000    0.000 
#    0.000    0.000    0.000    0.000    0.000    0.000 
#
# Total GULP energy -312481.073374 kJ/mol
# GULP energy per Si atom -5580.019167 kJ/mol
# Density = 2.432127 g / cm^3
# Si number density = 24.376750 Si / 1000 Ang^3
#
#
#
# Elastic Constant Matrix: (Units=GPa)
#
#
# Indices 1 2 3 4 5 6 
#
# 1 43.3991 9.0597 16.3135 0.0000 0.0000 1.2622
# 2 9.0597 43.3991 16.3135 0.0000 0.0000 -1.2622
# 3 16.3135 16.3135 54.6195 0.0000 0.0000 0.0000
# 4 0.0000 0.0000 0.0000 33.2713 0.0000 0.0000
# 5 0.0000 0.0000 0.0000 0.0000 33.2713 0.0000
# 6 1.2622 -1.2622 0.0000 0.0000 0.0000 12.4517
#
#
#
# Elastic Compliance Matrix: (Units=1/GPa)
#
#
# Indices 1 2 3 4 5 6 
#
# 1 0.026376 -0.002964 -0.006992 0.000000 0.000000 -0.002974
# 2 -0.002964 0.026376 -0.006992 0.000000 0.000000 0.002974
# 3 -0.006992 -0.006992 0.022485 0.000000 0.000000 0.000000
# 4 0.000000 0.000000 0.000000 0.030056 0.000000 0.000000
# 5 0.000000 0.000000 0.000000 0.000000 0.030056 0.000000
# 6 -0.002974 0.002974 0.000000 0.000000 0.000000 0.080914
#
#
# Mechanical properties :
#
#
# Convention : Reuss Voigt Hill
#
# Bulk Modulus (GPa) = 24.19039 24.97679 24.58359
# Shear Modulus (GPa) = 18.94374 22.44758 20.69566
#
# Velocity S-wave (km/s) = 2.79072 3.03786 2.91691
# Velocity P-wave (km/s) = 4.50879 4.75113 4.63155
#
# Compressibility (1/GPa) = 0.04133872
#
# Stress axis : x y z
#
# Youngs Moduli (GPa) = 37.91385 37.91385 44.47332
#
# Poissons Ratio (x) = 0.11238 0.31098
# Poissons Ratio (y) = 0.11238 0.31098
# Poissons Ratio (z) = 0.26511 0.26511
#
# Static dielectric constant tensor:
#      x y z
#    x 2.049670 0.000000 0.000000 
#    y 0.000000 2.049670 0.000000 
#    z 0.000000 0.000000 2.086360 
# 
# From -- ./inp_files/1779.got.cif
#   From: 2010.05.17/outbox.cif.g08.bks.cpg/sg85_cif.got.tgz:1779.got - 2010.06.03 19:01:16.
