data_PCOD9544257
_publ_section_title
;
Structure prediction by ZEFSAII (Michael W. Deem and Ramdas Pophale) SiO2 
 PCOD9544257
Probable space group: P 42/M
;
_chemical_formula_sum "Si O2"
_cell_formula_units_Z 48
_cell_length_a 9.744130
_cell_length_b 9.744130
_cell_length_c 27.952456
_cell_angle_alpha 90.000000
_cell_angle_beta 90.000000
_cell_angle_gamma 90.000000
_cell_volume 2654.031734
_symmetry_space_group_name_H-M "P 42/M"
_symmetry_group_IT_number 84
_symmetry_cell_setting 'tetragonal'
loop_
_space_group_symop_operation_xyz
x,y,z
-y,x,1/2+z
-x,-y,z
y,-x,1/2+z
-x,-y,-z
y,-x,1/2-z
x,y,-z
-y,x,1/2-z
loop_
_atom_site_type_symbol
_atom_site_label
_atom_site_fract_x
_atom_site_fract_y
_atom_site_fract_z
Si Si1 0.157591 0.204353 0.688213
Si Si2 0.091576 0.131044 0.056371
Si Si3 0.786973 0.837714 0.200880
Si Si4 0.335465 0.985939 0.636245
Si Si5 0.585605 0.859486 0.946974
Si Si6 0.496544 0.164962 0.153941
O O1 0.187597 0.161827 0.742692
O O2 0.254121 0.120959 0.652698
O O3 0.197044 0.361420 0.678974
O O4 0.992820 0.183112 0.681449
O O5 0.254492 0.105161 0.062408
O O6 0.056638 0.267077 0.086051
O O7 0.065127 0.150243 0.000000
O O8 0.000000 0.000000 0.072081
O O9 0.631249 0.803905 0.187546
O O10 0.877509 0.722696 0.175009
O O11 0.500000 0.000000 0.635930
O O12 0.529143 0.781392 0.900097
O O13 0.500000 0.000000 0.950267
O O14 0.576933 0.792996 0.000000
O O15 0.500000 0.000000 0.148633
#
# Coordination Sequence:
#
# PCOD9544257 Si02
#       6
#     8   8   8   8   8   8
#     4  11  23  37  63  88 117 159 203 252 301 360
#     4  10  21  39  66  94 119 153 202 256 305 359
#     4  11  21  38  61  86 118 155 204 250 302 356
#     4  12  26  39  58  88 126 163 204 250 303 359
#     4   9  17  32  57  91 122 147 186 245 303 350
#     4   9  20  35  57  88 118 151 192 249 300 361
#
# _framework density 18.085691000000001
#
# number of rings (size 3 to 8) (size 9 to 14) (size 15 to 20)
#    0.000    1.667    3.333    1.500    7.000    0.333 
#    0.000    0.833    0.000    0.000    0.000    2.333 
#    0.000    0.000    0.000    0.000    0.000    0.000 
#
# Total GULP energy -267563.162878 kJ/mol
# GULP energy per Si atom -5574.232560 kJ/mol
# Density = 1.804453 g / cm^3
# Si number density = 18.085691 Si / 1000 Ang^3
#
#
#
# Elastic Constant Matrix: (Units=GPa)
#
#
# Indices 1 2 3 4 5 6 
#
# 1 112.6089 43.0399 28.2542 0.0000 0.0000 0.7200
# 2 43.0399 112.6089 28.2542 0.0000 0.0000 -0.7200
# 3 28.2542 28.2542 77.9641 0.0000 0.0000 0.0000
# 4 0.0000 0.0000 0.0000 100.0420 0.0000 0.0000
# 5 0.0000 0.0000 0.0000 0.0000 100.0420 0.0000
# 6 0.7200 -0.7200 0.0000 0.0000 0.0000 -2.0573
#
#
#
# Elastic Compliance Matrix: (Units=1/GPa)
#
#
# Indices 1 2 3 4 5 6 
#
# 1 0.010834 -0.003436 -0.002681 0.000000 0.000000 0.004995
# 2 -0.003436 0.010834 -0.002681 0.000000 0.000000 -0.004995
# 3 -0.002681 -0.002681 0.014770 0.000000 0.000000 0.000000
# 4 0.000000 0.000000 0.000000 0.009996 0.000000 0.000000
# 5 0.000000 0.000000 0.000000 0.000000 0.009996 0.000000
# 6 0.004995 -0.004995 0.000000 0.000000 0.000000 -0.482583
#
#
# Mechanical properties :
#
#
# Convention : Reuss Voigt Hill
#
# Bulk Modulus (GPa) = 53.07420 55.80875 54.44148
# Shear Modulus (GPa) = -12.42929 53.18093 20.37582
#
# Velocity S-wave (km/s) = -2.62438 5.42852 3.36017
# Velocity P-wave (km/s) = 4.49739 8.37954 6.72470
#
# Compressibility (1/GPa) = 0.01884155
#
# Stress axis : x y z
#
# Youngs Moduli (GPa) = 92.29815 92.29815 67.70638
#
# Poissons Ratio (x) = 0.31717 0.18153
# Poissons Ratio (y) = 0.31717 0.18153
# Poissons Ratio (z) = 0.24746 0.24746
#
# Static dielectric constant tensor:
#      x y z
#    x 1.640250 0.000000 0.000000 
#    y 0.000000 1.640250 0.000000 
#    z 0.000000 0.000000 1.672080 
# 
# From -- ./inp_files/5770.got.cif
#   From: 2010.05.17/outbox.cif.g08.bks.cpg/sg84_3_cif.got.tgz:5770.got - 2010.06.03 18:57:40.
