data_PCOD9544371
_publ_section_title
;
Structure prediction by ZEFSAII (Michael W. Deem and Ramdas Pophale) SiO2 
 PCOD9544371
Probable space group: P 42/M
;
_chemical_formula_sum "Si O2"
_cell_formula_units_Z 48
_cell_length_a 8.354363
_cell_length_b 8.354363
_cell_length_c 31.043746
_cell_angle_alpha 90.000000
_cell_angle_beta 90.000000
_cell_angle_gamma 90.000000
_cell_volume 2166.710084
_symmetry_space_group_name_H-M "P 42/M"
_symmetry_group_IT_number 84
_symmetry_cell_setting 'tetragonal'
loop_
_space_group_symop_operation_xyz
x,y,z
-y,x,1/2+z
-x,-y,z
y,-x,1/2+z
-x,-y,-z
y,-x,1/2-z
x,y,-z
-y,x,1/2-z
loop_
_atom_site_type_symbol
_atom_site_label
_atom_site_fract_x
_atom_site_fract_y
_atom_site_fract_z
Si Si1 0.842669 0.812352 0.178027
Si Si2 0.463681 0.314897 0.324345
Si Si3 0.331643 0.357374 0.950077
Si Si4 0.679396 0.309926 0.913097
Si Si5 0.906459 0.333247 0.761443
Si Si6 0.961149 0.175395 0.583211
O O1 0.777755 0.631747 0.169618
O O2 0.732818 0.895520 0.213816
O O3 0.838022 0.909031 0.133665
O O4 0.007541 0.784253 0.204344
O O5 0.500000 0.500000 0.324988
O O6 0.347523 0.275426 0.364034
O O7 0.375412 0.265829 0.280660
O O8 0.489911 0.329244 0.921238
O O9 0.256268 0.531432 0.938533
O O10 0.232042 0.198516 0.940774
O O11 0.378307 0.360782 0.000000
O O12 0.726927 0.127016 0.923129
O O13 0.000000 0.500000 0.761438
O O14 0.000000 0.000000 0.567191
#
# Coordination Sequence:
#
# PCOD9544371 Si02
#       6
#     8   8   8   8   8   8
#     4  11  25  45  62  94 144 183 238 286 350 415
#     4  11  22  41  68  96 133 172 234 296 352 410
#     4  11  25  49  75 107 141 180 235 303 371 439
#     4  11  22  45  75 106 136 182 239 297 362 432
#     4  10  26  40  62  96 131 188 234 288 344 411
#     4  12  27  44  71 106 145 193 234 289 361 441
#
# _framework density 22.153403999999998
#
# number of rings (size 3 to 8) (size 9 to 14) (size 15 to 20)
#    0.000    1.000    3.333    2.500    9.333    4.333 
#    0.000    0.833    0.000    0.000    0.000    0.000 
#    0.000    0.000    0.000    0.000    0.000    0.000 
#
# Total GULP energy -268218.235954 kJ/mol
# GULP energy per Si atom -5587.879916 kJ/mol
# Density = 2.210298 g / cm^3
# Si number density = 22.153404 Si / 1000 Ang^3
#
#
#
# Elastic Constant Matrix: (Units=GPa)
#
#
# Indices 1 2 3 4 5 6 
#
# 1 86.9528 28.8956 15.2722 0.0000 0.0000 -0.4428
# 2 28.8956 86.9528 15.2722 0.0000 0.0000 0.4428
# 3 15.2722 15.2722 67.4134 0.0000 0.0000 0.0000
# 4 0.0000 0.0000 0.0000 32.4412 0.0000 0.0000
# 5 0.0000 0.0000 0.0000 0.0000 32.4412 0.0000
# 6 -0.4428 0.4428 0.0000 0.0000 0.0000 35.1148
#
#
#
# Elastic Compliance Matrix: (Units=1/GPa)
#
#
# Indices 1 2 3 4 5 6 
#
# 1 0.013204 -0.004024 -0.002080 0.000000 0.000000 0.000217
# 2 -0.004024 0.013204 -0.002080 0.000000 0.000000 -0.000217
# 3 -0.002080 -0.002080 0.015776 0.000000 0.000000 0.000000
# 4 0.000000 0.000000 0.000000 0.030825 0.000000 0.000000
# 5 0.000000 0.000000 0.000000 0.000000 0.030825 0.000000
# 6 0.000217 -0.000217 0.000000 0.000000 0.000000 0.028483
#
#
# Mechanical properties :
#
#
# Convention : Reuss Voigt Hill
#
# Bulk Modulus (GPa) = 38.73302 40.02211 39.37757
# Shear Modulus (GPa) = 31.78839 32.12469 31.95654
#
# Velocity S-wave (km/s) = 3.79214 3.81215 3.80216
# Velocity P-wave (km/s) = 6.05770 6.12224 6.09006
#
# Compressibility (1/GPa) = 0.02581776
#
# Stress axis : x y z
#
# Youngs Moduli (GPa) = 75.73454 75.73454 63.38670
#
# Poissons Ratio (x) = 0.30473 0.13183
# Poissons Ratio (y) = 0.30473 0.13183
# Poissons Ratio (z) = 0.15751 0.15751
#
# Static dielectric constant tensor:
#      x y z
#    x 1.846500 0.000000 0.000000 
#    y 0.000000 1.846500 0.000000 
#    z 0.000000 0.000000 1.779180 
# 
# From -- ./inp_files/5789.got.cif
#   From: 2010.05.17/outbox.cif.g08.bks.cpg/sg84_3_cif.got.tgz:5789.got - 2010.06.03 18:57:40.
