data_PCOD9544418
_publ_section_title
;
Structure prediction by ZEFSAII (Michael W. Deem and Ramdas Pophale) SiO2 
 PCOD9544418
Probable space group: P 42/M
;
_chemical_formula_sum "Si O2"
_cell_formula_units_Z 32
_cell_length_a 11.269968
_cell_length_b 11.269968
_cell_length_c 12.534532
_cell_angle_alpha 90.000000
_cell_angle_beta 90.000000
_cell_angle_gamma 90.000000
_cell_volume 1592.038219
_symmetry_space_group_name_H-M "P 42/M"
_symmetry_group_IT_number 84
_symmetry_cell_setting 'tetragonal'
loop_
_space_group_symop_operation_xyz
x,y,z
-y,x,1/2+z
-x,-y,z
y,-x,1/2+z
-x,-y,-z
y,-x,1/2-z
x,y,-z
-y,x,1/2-z
loop_
_atom_site_type_symbol
_atom_site_label
_atom_site_fract_x
_atom_site_fract_y
_atom_site_fract_z
Si Si1 0.288993 0.323392 0.324570
Si Si2 0.693434 0.078600 0.500000
Si Si3 0.171659 0.906285 0.726699
Si Si4 0.822383 0.426215 0.000000
Si Si5 0.438592 0.370221 0.882599
O O1 0.167602 0.254738 0.306858
O O2 0.382466 0.251740 0.397365
O O3 0.278074 0.453493 0.373851
O O4 0.346454 0.344799 0.209063
O O5 0.770297 0.099006 0.608059
O O6 0.565084 0.144799 0.500000
O O7 0.651205 0.941842 0.500000
O O8 0.041718 0.846069 0.734984
O O9 0.500000 0.500000 0.869917
O O10 0.386776 0.365413 0.000000
#
# Coordination Sequence:
#
# PCOD9544418 Si02
#       5
#     8   4   8   4   8
#     4  12  21  42  64  99 131 172 227 278 337 417
#     4  11  24  46  68  98 135 177 232 285 338 400
#     4  11  26  44  68  95 129 183 230 281 332 395
#     4  11  24  41  74 100 129 180 224 280 346 410
#     4  11  23  37  62  96 135 176 215 275 352 416
#
# _framework density 20.100019
#
# number of rings (size 3 to 8) (size 9 to 14) (size 15 to 20)
#    0.000    0.750    6.250    1.500    1.750    3.000 
#    0.000    0.000    0.000    1.500    0.000    0.000 
#    0.000    0.000    0.000    0.000    0.000    0.000 
#
# Total GULP energy -178865.261428 kJ/mol
# GULP energy per Si atom -5589.539420 kJ/mol
# Density = 2.005427 g / cm^3
# Si number density = 20.100019 Si / 1000 Ang^3
#
#
#
# Elastic Constant Matrix: (Units=GPa)
#
#
# Indices 1 2 3 4 5 6 
#
# 1 77.8630 24.5165 30.9075 0.0000 0.0000 -7.0850
# 2 24.5165 77.8630 30.9075 0.0000 0.0000 7.0850
# 3 30.9075 30.9075 155.6402 0.0000 0.0000 0.0000
# 4 0.0000 0.0000 0.0000 26.0371 0.0000 0.0000
# 5 0.0000 0.0000 0.0000 0.0000 26.0371 0.0000
# 6 -7.0850 7.0850 0.0000 0.0000 0.0000 30.2945
#
#
#
# Elastic Compliance Matrix: (Units=1/GPa)
#
#
# Indices 1 2 3 4 5 6 
#
# 1 0.015543 -0.004444 -0.002204 0.000000 0.000000 0.004674
# 2 -0.004444 0.015543 -0.002204 0.000000 0.000000 -0.004674
# 3 -0.002204 -0.002204 0.007300 0.000000 0.000000 0.000000
# 4 0.000000 0.000000 0.000000 0.038407 0.000000 0.000000
# 5 0.000000 0.000000 0.000000 0.000000 0.038407 0.000000
# 6 0.004674 -0.004674 0.000000 0.000000 0.000000 0.035196
#
#
# Mechanical properties :
#
#
# Convention : Reuss Voigt Hill
#
# Bulk Modulus (GPa) = 48.35303 53.78102 51.06703
# Shear Modulus (GPa) = 28.57257 31.47606 30.02432
#
# Velocity S-wave (km/s) = 3.77439 3.96153 3.86909
# Velocity P-wave (km/s) = 6.56530 6.90939 6.73954
#
# Compressibility (1/GPa) = 0.02068123
#
# Stress axis : x y z
#
# Youngs Moduli (GPa) = 64.33922 64.33922 136.97883
#
# Poissons Ratio (x) = 0.28595 0.30189
# Poissons Ratio (y) = 0.28595 0.30189
# Poissons Ratio (z) = 0.14180 0.14180
#
# Static dielectric constant tensor:
#      x y z
#    x 1.722220 0.000000 0.000000 
#    y 0.000000 1.722220 0.000000 
#    z 0.000000 0.000000 1.769710 
# 
# From -- ./inp_files/1886.got.cif
#   From: 2010.05.17/outbox.cif.g08.bks.cpg/sg84_1_cif.got.tgz:1886.got - 2010.06.03 18:57:40.
