data_PCOD9544023
_publ_section_title
;
Structure prediction by ZEFSAII (Michael W. Deem and Ramdas Pophale) SiO2 
 PCOD9544023
Probable space group: P 42/M
;
_chemical_formula_sum "Si O2"
_cell_formula_units_Z 40
_cell_length_a 17.007048
_cell_length_b 17.007048
_cell_length_c 8.652907
_cell_angle_alpha 90.000000
_cell_angle_beta 90.000000
_cell_angle_gamma 90.000000
_cell_volume 2502.764066
_symmetry_space_group_name_H-M "P 42/M"
_symmetry_group_IT_number 84
_symmetry_cell_setting 'tetragonal'
loop_
_space_group_symop_operation_xyz
x,y,z
-y,x,1/2+z
-x,-y,z
y,-x,1/2+z
-x,-y,-z
y,-x,1/2-z
x,y,-z
-y,x,1/2-z
loop_
_atom_site_type_symbol
_atom_site_label
_atom_site_fract_x
_atom_site_fract_y
_atom_site_fract_z
Si Si1 0.161380 0.392446 0.184165
Si Si2 0.412090 0.429764 0.174670
Si Si3 0.576589 0.826711 0.685870
Si Si4 0.698824 0.687257 0.315721
Si Si5 0.994274 0.405435 0.675437
O O1 0.182500 0.483935 0.235478
O O2 0.210461 0.323184 0.268330
O O3 0.069648 0.380856 0.225448
O O4 0.173327 0.388642 0.000000
O O5 0.402707 0.521723 0.205066
O O6 0.334778 0.385269 0.217847
O O7 0.437422 0.414976 0.000000
O O8 0.573839 0.829955 0.500000
O O9 0.640028 0.758955 0.727771
O O10 0.608669 0.909168 0.750706
O O11 0.691803 0.676913 0.500000
O O12 0.998913 0.375020 0.500000
O O13 0.000000 0.500000 0.668301
#
# Coordination Sequence:
#
# PCOD9544023 Si02
#       5
#     8   8   8   8   8
#     4  10  19  32  49  68  93 125 159 193 235 282
#     4  11  21  33  46  60  82 116 157 196 233 270
#     4   9  19  33  48  66  91 123 156 193 235 279
#     4  11  21  32  46  67  94 121 154 194 234 275
#     4   9  17  30  49  70  90 115 151 193 235 280
#
# _framework density 15.982329
#
# number of rings (size 3 to 8) (size 9 to 14) (size 15 to 20)
#    0.000    2.000    0.000    5.400    0.000    6.400 
#    0.000    0.000    0.000    0.000    0.000    0.000 
#    0.000    0.800    0.000    8.400    0.000    3.600 
#
# Total GULP energy -222713.719145 kJ/mol
# GULP energy per Si atom -5567.842979 kJ/mol
# Density = 1.594595 g / cm^3
# Si number density = 15.982329 Si / 1000 Ang^3
#
#
#
# Elastic Constant Matrix: (Units=GPa)
#
#
# Indices 1 2 3 4 5 6 
#
# 1 -81.8381 172.2416 15.9806 0.0000 0.0000 -28.2629
# 2 172.2416 -81.8381 15.9806 0.0000 0.0000 28.2629
# 3 15.9806 15.9806 47.9952 0.0000 0.0000 0.0000
# 4 0.0000 0.0000 0.0000 22.7664 0.0000 0.0000
# 5 0.0000 0.0000 0.0000 0.0000 22.7664 0.0000
# 6 -28.2629 28.2629 0.0000 0.0000 0.0000 11.9191
#
#
#
# Elastic Compliance Matrix: (Units=1/GPa)
#
#
# Indices 1 2 3 4 5 6 
#
# 1 0.004980 0.007557 -0.004174 0.000000 0.000000 -0.006110
# 2 0.007557 0.004980 -0.004174 0.000000 0.000000 0.006110
# 3 -0.004174 -0.004174 0.023615 0.000000 0.000000 0.000000
# 4 0.000000 0.000000 0.000000 0.043924 0.000000 0.000000
# 5 0.000000 0.000000 0.000000 0.000000 0.043924 0.000000
# 6 -0.006110 0.006110 0.000000 0.000000 0.000000 0.054924
#
#
# Mechanical properties :
#
#
# Convention : Reuss Voigt Hill
#
# Bulk Modulus (GPa) = 31.25769 32.52496 31.89132
# Shear Modulus (GPa) = 26.51152 -9.83521 8.33816
#
# Velocity S-wave (km/s) = 4.07726 -2.48338 2.28658
# Velocity P-wave (km/s) = 6.46262 3.48882 5.19314
#
# Compressibility (1/GPa) = 0.03199213
#
# Stress axis : x y z
#
# Youngs Moduli (GPa) = 200.78679 200.78679 42.34547
#
# Poissons Ratio (x) = -1.51734 0.17677
# Poissons Ratio (y) = -1.51734 0.17677
# Poissons Ratio (z) = 0.83818 0.83818
#
# Static dielectric constant tensor:
#      x y z
#    x 1.552770 0.000000 0.000000 
#    y 0.000000 1.552770 0.000000 
#    z 0.000000 0.000000 1.584420 
# 
# From -- ./inp_files/807.got.cif
#   From: 2010.05.17/outbox.cif.g08.bks.cpg/sg84_1_cif.got.tgz:807.got - 2010.06.03 18:57:40.
