data_PCOD9544874
_publ_section_title
;
Structure prediction by ZEFSAII (Michael W. Deem and Ramdas Pophale) SiO2 
 PCOD9544874
Probable space group: P 42/N
;
_chemical_formula_sum "Si O2"
_cell_formula_units_Z 46
_cell_length_a 11.587101
_cell_length_b 11.587101
_cell_length_c 17.868754
_cell_angle_alpha 90.000000
_cell_angle_beta 90.000000
_cell_angle_gamma 90.000000
_cell_volume 2399.075165
_symmetry_space_group_name_H-M "P 42/N"
_symmetry_group_IT_number 86
_space_group.IT_coordinate_system_code '2'
_symmetry_cell_setting 'tetragonal'
loop_
_space_group_symop_operation_xyz
x,y,z
-y,1/2+x,1/2+z
1/2-x,1/2-y,z
1/2+y,-x,1/2+z
-x,-y,-z
y,1/2-x,1/2-z
1/2+x,1/2+y,-z
1/2-y,x,1/2-z
loop_
_atom_site_type_symbol
_atom_site_label
_atom_site_fract_x
_atom_site_fract_y
_atom_site_fract_z
Si Si1 0.539172 0.841496 0.333554
Si Si2 0.368869 0.883905 0.879960
Si Si3 0.112531 0.728916 0.729495
Si Si4 0.658033 0.053056 0.386647
Si Si5 0.750000 0.750000 0.250000
Si Si6 0.250000 0.750000 0.508722
Si Si7 0.418084 0.533295 0.670044
O O1 0.437979 0.755300 0.356738
O O2 0.642733 0.760305 0.305267
O O3 0.506067 0.902538 0.255798
O O4 0.586138 0.933877 0.394381
O O5 0.410333 0.792364 0.816824
O O6 0.461623 0.986992 0.875214
O O7 0.337960 0.823729 0.957573
O O8 0.250000 0.750000 0.723922
O O9 0.098200 0.610644 0.685535
O O10 0.053505 0.831791 0.683826
O O11 0.670510 0.161043 0.443655
O O12 0.791102 0.022054 0.366965
#
# Coordination Sequence:
#
# PCOD9544874 Si02
#       7
#     8   8   8   8   2   4   8
#     4  12  18  32  61  93 114 141 205 270 311 345
#     4  12  22  36  60  94 118 159 208 257 306 372
#     4  10  17  36  58  84 114 153 204 245 295 357
#     4  11  21  37  58  85 123 159 190 256 319 366
#     4  12  16  28  56 100 116 124 184 290 324 328
#     4  12  26  40  52  82 136 170 200 236 314 400
#     4  11  18  33  62  88 111 155 208 261 298 361
#
# _framework density 19.174054000000002
#
# number of rings (size 3 to 8) (size 9 to 14) (size 15 to 20)
#    0.000    0.696   12.174    0.000    0.000    1.391 
#    0.000    0.000    0.000    0.522    0.000    0.000 
#    0.000    0.000    0.000    0.000    0.000    0.000 
#
# Total GULP energy -256111.081532 kJ/mol
# GULP energy per Si atom -5567.632207 kJ/mol
# Density = 1.913041 g / cm^3
# Si number density = 19.174054 Si / 1000 Ang^3
#
#
#
# Elastic Constant Matrix: (Units=GPa)
#
#
# Indices 1 2 3 4 5 6 
#
# 1 65.6379 20.7140 13.4830 0.0000 0.0000 -1.8336
# 2 20.7140 65.6379 13.4830 0.0000 0.0000 1.8336
# 3 13.4830 13.4830 58.8004 0.0000 0.0000 0.0000
# 4 0.0000 0.0000 0.0000 13.5696 0.0000 0.0000
# 5 0.0000 0.0000 0.0000 0.0000 13.5696 0.0000
# 6 -1.8336 1.8336 0.0000 0.0000 0.0000 30.5057
#
#
#
# Elastic Compliance Matrix: (Units=1/GPa)
#
#
# Indices 1 2 3 4 5 6 
#
# 1 0.017422 -0.004948 -0.002860 0.000000 0.000000 0.001345
# 2 -0.004948 0.017422 -0.002860 0.000000 0.000000 -0.001345
# 3 -0.002860 -0.002860 0.018318 0.000000 0.000000 0.000000
# 4 0.000000 0.000000 0.000000 0.073694 0.000000 0.000000
# 5 0.000000 0.000000 0.000000 0.000000 0.073694 0.000000
# 6 0.001345 -0.001345 0.000000 0.000000 0.000000 0.032942
#
#
# Mechanical properties :
#
#
# Convention : Reuss Voigt Hill
#
# Bulk Modulus (GPa) = 31.42195 31.71513 31.56854
# Shear Modulus (GPa) = 18.83678 21.02204 19.92941
#
# Velocity S-wave (km/s) = 3.13774 3.31475 3.22746
# Velocity P-wave (km/s) = 5.43604 5.58808 5.51259
#
# Compressibility (1/GPa) = 0.03182488
#
# Stress axis : x y z
#
# Youngs Moduli (GPa) = 57.39972 57.39972 54.58992
#
# Poissons Ratio (x) = 0.28401 0.15614
# Poissons Ratio (y) = 0.28401 0.15614
# Poissons Ratio (z) = 0.16418 0.16418
#
# Static dielectric constant tensor:
#      x y z
#    x 1.743870 0.000000 0.000000 
#    y 0.000000 1.743870 0.000000 
#    z 0.000000 0.000000 1.706320 
# 
# From -- ./inp_files/3633.got.cif
#   From: 2010.05.17/outbox.cif.g08.bks.cpg/sg86_2_cif.got.tgz:3633.got - 2010.06.03 19:03:11.
