data_PCOD9544584
_publ_section_title
;
Structure prediction by ZEFSAII (Michael W. Deem and Ramdas Pophale) SiO2 
 PCOD9544584
Probable space group: P 4/N
;
_chemical_formula_sum "Si O2"
_cell_formula_units_Z 42
_cell_length_a 19.518146
_cell_length_b 19.518146
_cell_length_c 4.823941
_cell_angle_alpha 90.000000
_cell_angle_beta 90.000000
_cell_angle_gamma 90.000000
_cell_volume 1837.719028
_symmetry_space_group_name_H-M "P 4/N"
_symmetry_group_IT_number 85
_symmetry_cell_setting 'tetragonal'
loop_
_space_group_symop_operation_xyz
x,y,z
1/2-y,x,z
1/2-x,1/2-y,z
y,1/2-x,z
-x,-y,-z
1/2+y,-x,-z
1/2+x,1/2+y,-z
-y,1/2+x,-z
loop_
_atom_site_type_symbol
_atom_site_label
_atom_site_fract_x
_atom_site_fract_y
_atom_site_fract_z
Si Si1 0.878931 0.826200 0.419388
Si Si2 0.480689 0.804195 0.242720
Si Si3 0.069459 0.299026 0.263199
Si Si4 0.547275 0.434058 0.412398
Si Si5 0.521604 0.342361 0.901132
Si Si6 0.250000 0.250000 0.795648
O O1 0.885508 0.766378 0.652723
O O2 0.862582 0.893724 0.594027
O O3 0.946254 0.834650 0.236153
O O4 0.814956 0.803512 0.232684
O O5 0.500874 0.787299 0.557944
O O6 0.451515 0.880393 0.266099
O O7 0.447326 0.734698 0.117456
O O8 0.548273 0.810098 0.049322
O O9 0.500000 0.500000 0.500000
O O10 0.560839 0.393498 0.696020
O O11 0.485317 0.620474 0.803880
#
# Coordination Sequence:
#
# PCOD9544584 Si02
#       6
#     8   8   8   8   8   2
#     4   9  19  36  59  91 129 180 227 262 324 387
#     4  11  24  42  63  93 130 171 218 275 342 401
#     4  10  21  36  59  87 129 172 217 269 314 390
#     4  12  26  44  71 103 134 176 230 283 339 413
#     4  11  24  43  68  95 134 176 219 285 349 403
#     4   8  16  36  60  90 136 186 228 266 300 398
#
# _framework density 22.854417000000002
#
# number of rings (size 3 to 8) (size 9 to 14) (size 15 to 20)
#    0.000    1.524    0.000    5.143    0.000    9.143 
#    0.000    1.905    0.000   24.000    0.000    0.000 
#    0.000    0.000    0.000    0.000    0.000    0.000 
#
# Total GULP energy -234066.829798 kJ/mol
# GULP energy per Si atom -5573.019757 kJ/mol
# Density = 2.280240 g / cm^3
# Si number density = 22.854417 Si / 1000 Ang^3
#
#
#
# Elastic Constant Matrix: (Units=GPa)
#
#
# Indices 1 2 3 4 5 6 
#
# 1 106.6703 26.9403 32.7546 0.0000 0.0000 17.5663
# 2 26.9403 106.6703 32.7546 0.0000 0.0000 -17.5663
# 3 32.7546 32.7546 123.3841 0.0000 0.0000 0.0000
# 4 0.0000 0.0000 0.0000 32.9606 0.0000 0.0000
# 5 0.0000 0.0000 0.0000 0.0000 32.9606 0.0000
# 6 17.5663 -17.5663 0.0000 0.0000 0.0000 100.1783
#
#
#
# Elastic Compliance Matrix: (Units=1/GPa)
#
#
# Indices 1 2 3 4 5 6 
#
# 1 0.011098 -0.002494 -0.002284 0.000000 0.000000 -0.002383
# 2 -0.002494 0.011098 -0.002284 0.000000 0.000000 0.002383
# 3 -0.002284 -0.002284 0.009318 0.000000 0.000000 0.000000
# 4 0.000000 0.000000 0.000000 0.030339 0.000000 0.000000
# 5 0.000000 0.000000 0.000000 0.000000 0.030339 0.000000
# 6 -0.002383 0.002383 0.000000 0.000000 0.000000 0.010818
#
#
# Mechanical properties :
#
#
# Convention : Reuss Voigt Hill
#
# Bulk Modulus (GPa) = 57.50592 57.95820 57.73206
# Shear Modulus (GPa) = 40.67268 49.50490 45.08879
#
# Velocity S-wave (km/s) = 4.22316 4.65918 4.44652
# Velocity P-wave (km/s) = 6.99975 7.37284 7.18872
#
# Compressibility (1/GPa) = 0.01738951
#
# Stress axis : x y z
#
# Youngs Moduli (GPa) = 90.10241 90.10241 107.32456
#
# Poissons Ratio (x) = 0.22473 0.24515
# Poissons Ratio (y) = 0.22473 0.24515
# Poissons Ratio (z) = 0.20581 0.20581
#
# Static dielectric constant tensor:
#      x y z
#    x 1.938780 0.000000 0.000000 
#    y 0.000000 1.938780 0.000000 
#    z 0.000000 0.000000 1.877510 
# 
# From -- ./inp_files/426.got.cif
#   From: 2010.05.17/outbox.cif.g08.bks.cpg/sg85_cif.got.tgz:426.got - 2010.06.03 19:01:16.
