data_PCOD9544530
_publ_section_title
;
Structure prediction by ZEFSAII (Michael W. Deem and Ramdas Pophale) SiO2 
 PCOD9544530
Probable space group: P 4/N
;
_chemical_formula_sum "Si O2"
_cell_formula_units_Z 48
_cell_length_a 9.666015
_cell_length_b 9.666015
_cell_length_c 29.196319
_cell_angle_alpha 90.000000
_cell_angle_beta 90.000000
_cell_angle_gamma 90.000000
_cell_volume 2727.865980
_symmetry_space_group_name_H-M "P 4/N"
_symmetry_group_IT_number 85
_symmetry_cell_setting 'tetragonal'
loop_
_space_group_symop_operation_xyz
x,y,z
1/2-y,x,z
1/2-x,1/2-y,z
y,1/2-x,z
-x,-y,-z
1/2+y,-x,-z
1/2+x,1/2+y,-z
-y,1/2+x,-z
loop_
_atom_site_type_symbol
_atom_site_label
_atom_site_fract_x
_atom_site_fract_y
_atom_site_fract_z
Si Si1 0.085109 0.868756 0.016474
Si Si2 0.750000 0.250000 0.398857
Si Si3 0.716720 0.978667 0.115380
Si Si4 0.715883 0.975755 0.656347
Si Si5 0.278962 0.023851 0.233881
Si Si6 0.250000 0.750000 0.824015
Si Si7 0.902903 0.116428 0.520672
O O1 0.023628 0.804208 0.062573
O O2 0.245273 0.913479 0.020803
O O3 0.000000 0.000000 0.000000
O O4 0.620527 0.300947 0.369045
O O5 0.686222 0.123206 0.429505
O O6 0.598347 0.863139 0.123669
O O7 0.710364 0.116822 0.145470
O O8 0.598102 0.862553 0.644763
O O9 0.715672 0.996421 0.711209
O O10 0.399451 0.134050 0.222766
O O11 0.289044 0.881260 0.207188
O O12 0.748407 0.065251 0.510589
O O13 0.000000 0.000000 0.500000
#
# Coordination Sequence:
#
# PCOD9544530 Si02
#       7
#     8   4   8   8   8   4   8
#     4  11  22  39  62  83 110 149 188 234 291 341
#     4  10  20  32  58  85 116 143 202 244 284 344
#     4  11  24  40  57  85 120 149 191 242 286 342
#     4   9  19  35  59  88 115 152 193 239 295 349
#     4   9  19  37  58  86 121 152 191 237 288 345
#     4  12  21  36  63  85 116 161 195 228 289 348
#     4   9  21  37  52  77 109 148 187 234 284 339
#
# _framework density 17.596171999999999
#
# number of rings (size 3 to 8) (size 9 to 14) (size 15 to 20)
#    0.000    2.167    1.667    3.500    4.667    0.667 
#    0.000    0.000    0.000    0.500    0.000    4.667 
#    0.000    0.000    0.000    0.000    0.000    0.000 
#
# Total GULP energy -267323.277740 kJ/mol
# GULP energy per Si atom -5569.234953 kJ/mol
# Density = 1.755612 g / cm^3
# Si number density = 17.596172 Si / 1000 Ang^3
#
#
#
# Elastic Constant Matrix: (Units=GPa)
#
#
# Indices 1 2 3 4 5 6 
#
# 1 117.7424 57.8538 41.4246 0.0000 0.0000 5.2117
# 2 57.8538 117.7424 41.4246 0.0000 0.0000 -5.2117
# 3 41.4246 41.4246 58.8180 0.0000 0.0000 0.0000
# 4 0.0000 0.0000 0.0000 29.1270 0.0000 0.0000
# 5 0.0000 0.0000 0.0000 0.0000 29.1270 0.0000
# 6 5.2117 -5.2117 0.0000 0.0000 0.0000 24.6201
#
#
#
# Elastic Compliance Matrix: (Units=1/GPa)
#
#
# Indices 1 2 3 4 5 6 
#
# 1 0.012933 -0.004404 -0.006007 0.000000 0.000000 -0.003670
# 2 -0.004404 0.012933 -0.006007 0.000000 0.000000 0.003670
# 3 -0.006007 -0.006007 0.025463 0.000000 0.000000 0.000000
# 4 0.000000 0.000000 0.000000 0.034332 0.000000 0.000000
# 5 0.000000 0.000000 0.000000 0.000000 0.034332 0.000000
# 6 -0.003670 0.003670 0.000000 0.000000 0.000000 0.042171
#
#
# Mechanical properties :
#
#
# Convention : Reuss Voigt Hill
#
# Bulk Modulus (GPa) = 54.07367 63.96762 59.02064
# Shear Modulus (GPa) = 24.85546 26.81481 25.83514
#
# Velocity S-wave (km/s) = 3.76247 3.90795 3.83590
# Velocity P-wave (km/s) = 7.04783 7.53624 7.29612
#
# Compressibility (1/GPa) = 0.01849329
#
# Stress axis : x y z
#
# Youngs Moduli (GPa) = 77.32334 77.32334 39.27322
#
# Poissons Ratio (x) = 0.34051 0.23591
# Poissons Ratio (y) = 0.34051 0.23591
# Poissons Ratio (z) = 0.46447 0.46447
#
# Static dielectric constant tensor:
#      x y z
#    x 1.661930 0.000000 0.000000 
#    y 0.000000 1.661930 0.000000 
#    z 0.000000 0.000000 1.605610 
# 
# From -- ./inp_files/2476.got.cif
#   From: 2010.05.17/outbox.cif.g08.bks.cpg/sg85_cif.got.tgz:2476.got - 2010.06.03 19:01:16.
