data_PCOD9544167
_publ_section_title
;
Structure prediction by ZEFSAII (Michael W. Deem and Ramdas Pophale) SiO2 
 PCOD9544167
Probable space group: P 42/M
;
_chemical_formula_sum "Si O2"
_cell_formula_units_Z 58
_cell_length_a 18.124391
_cell_length_b 18.124391
_cell_length_c 9.166403
_cell_angle_alpha 90.000000
_cell_angle_beta 90.000000
_cell_angle_gamma 90.000000
_cell_volume 3011.104254
_symmetry_space_group_name_H-M "P 42/M"
_symmetry_group_IT_number 84
_symmetry_cell_setting 'tetragonal'
loop_
_space_group_symop_operation_xyz
x,y,z
-y,x,1/2+z
-x,-y,z
y,-x,1/2+z
-x,-y,-z
y,-x,1/2-z
x,y,-z
-y,x,1/2-z
loop_
_atom_site_type_symbol
_atom_site_label
_atom_site_fract_x
_atom_site_fract_y
_atom_site_fract_z
Si Si1 0.327759 0.966182 0.825020
Si Si2 0.242537 0.816162 0.172515
Si Si3 0.412680 0.193214 0.174389
Si Si4 0.505883 0.335464 0.835638
Si Si5 0.458673 0.889220 0.666867
Si Si6 0.500000 0.500000 0.750000
Si Si7 0.736012 0.632669 0.838204
Si Si8 0.114847 0.720439 0.826046
O O1 0.272988 0.897370 0.793218
O O2 0.404635 0.948214 0.742334
O O3 0.292431 0.039900 0.761074
O O4 0.339060 0.970484 0.000000
O O5 0.294927 0.757639 0.251689
O O6 0.157907 0.796765 0.205722
O O7 0.252349 0.805876 0.000000
O O8 0.442524 0.276281 0.207266
O O9 0.474778 0.134810 0.228188
O O10 0.342768 0.170081 0.268804
O O11 0.400464 0.186964 0.000000
O O12 0.488252 0.421980 0.831041
O O13 0.576804 0.319673 0.737074
O O14 0.526081 0.313953 0.000000
O O15 0.480438 0.909098 0.500000
O O16 0.411738 0.813420 0.655280
O O17 0.710154 0.651349 0.000000
O O18 0.102820 0.713864 0.000000
#
# Coordination Sequence:
#
# PCOD9544167 Si02
#       8
#     8   8   8   8   8   2   8   8
#     4  10  20  37  60  87 118 152 190 232 279 341
#     4   9  20  38  60  85 116 152 186 226 281 336
#     4  10  21  38  58  83 115 151 192 241 292 347
#     4  10  23  41  57  77 110 149 195 247 298 343
#     4   9  17  33  56  84 115 151 188 232 286 341
#     4  12  26  40  56  82 106 156 208 258 294 340
#     4   9  18  33  58  84 108 142 190 237 284 340
#     4  11  23  38  58  88 118 149 187 232 283 338
#
# _framework density 19.262035999999998
#
# number of rings (size 3 to 8) (size 9 to 14) (size 15 to 20)
#    0.000    2.207    0.000    2.276    1.931    7.172 
#    0.000    2.759    0.000    0.414    0.000    2.897 
#    0.000    0.000    0.000    0.000    0.000    0.000 
#
# Total GULP energy -323648.772174 kJ/mol
# GULP energy per Si atom -5580.151244 kJ/mol
# Density = 1.921819 g / cm^3
# Si number density = 19.262036 Si / 1000 Ang^3
#
#
#
# Elastic Constant Matrix: (Units=GPa)
#
#
# Indices 1 2 3 4 5 6 
#
# 1 83.0260 25.7033 28.8310 0.0000 0.0000 6.3478
# 2 25.7033 83.0260 28.8310 0.0000 0.0000 -6.3478
# 3 28.8310 28.8310 51.4525 0.0000 0.0000 0.0000
# 4 0.0000 0.0000 0.0000 16.4074 0.0000 0.0000
# 5 0.0000 0.0000 0.0000 0.0000 16.4074 0.0000
# 6 6.3478 -6.3478 0.0000 0.0000 0.0000 20.2225
#
#
#
# Elastic Compliance Matrix: (Units=1/GPa)
#
#
# Indices 1 2 3 4 5 6 
#
# 1 0.015917 -0.002831 -0.007332 0.000000 0.000000 -0.005885
# 2 -0.002831 0.015917 -0.007332 0.000000 0.000000 0.005885
# 3 -0.007332 -0.007332 0.027653 0.000000 0.000000 0.000000
# 4 0.000000 0.000000 0.000000 0.060948 0.000000 0.000000
# 5 0.000000 0.000000 0.000000 0.000000 0.060948 0.000000
# 6 -0.005885 0.005885 0.000000 0.000000 0.000000 0.053144
#
#
# Mechanical properties :
#
#
# Convention : Reuss Voigt Hill
#
# Bulk Modulus (GPa) = 40.82575 42.69279 41.75927
# Shear Modulus (GPa) = 18.00599 19.55008 18.77804
#
# Velocity S-wave (km/s) = 3.06075 3.18929 3.12568
# Velocity P-wave (km/s) = 5.80792 5.98117 5.89518
#
# Compressibility (1/GPa) = 0.02449434
#
# Stress axis : x y z
#
# Youngs Moduli (GPa) = 62.82538 62.82538 36.16273
#
# Poissons Ratio (x) = 0.17788 0.26516
# Poissons Ratio (y) = 0.17788 0.26516
# Poissons Ratio (z) = 0.46067 0.46067
#
# Static dielectric constant tensor:
#      x y z
#    x 1.690900 0.000000 0.000000 
#    y 0.000000 1.690900 0.000000 
#    z 0.000000 0.000000 1.659320 
# 
# From -- ./inp_files/1161.got.cif
#   From: 2010.05.17/outbox.cif.g08.bks.cpg/sg84_1_cif.got.tgz:1161.got - 2010.06.03 18:57:40.
