data_PCOD9544089
_publ_section_title
;
Structure prediction by ZEFSAII (Michael W. Deem and Ramdas Pophale) SiO2 
 PCOD9544089
Probable space group: P 42/M
;
_chemical_formula_sum "Si O2"
_cell_formula_units_Z 40
_cell_length_a 8.922653
_cell_length_b 8.922653
_cell_length_c 25.330890
_cell_angle_alpha 90.000000
_cell_angle_beta 90.000000
_cell_angle_gamma 90.000000
_cell_volume 2016.686803
_symmetry_space_group_name_H-M "P 42/M"
_symmetry_group_IT_number 84
_symmetry_cell_setting 'tetragonal'
loop_
_space_group_symop_operation_xyz
x,y,z
-y,x,1/2+z
-x,-y,z
y,-x,1/2+z
-x,-y,-z
y,-x,1/2-z
x,y,-z
-y,x,1/2-z
loop_
_atom_site_type_symbol
_atom_site_label
_atom_site_fract_x
_atom_site_fract_y
_atom_site_fract_z
Si Si1 0.971172 0.832462 0.171129
Si Si2 0.263738 0.915604 0.558160
Si Si3 0.755651 0.420372 0.057614
Si Si4 0.160493 0.419273 0.760916
Si Si5 0.705895 0.331970 0.831182
O O1 0.904745 0.831442 0.111491
O O2 0.866643 0.740536 0.211043
O O3 0.130501 0.747315 0.168471
O O4 0.000000 0.000000 0.188366
O O5 0.193282 0.891123 0.500000
O O6 0.406389 0.805251 0.563246
O O7 0.332715 0.084265 0.557537
O O8 0.665627 0.366371 0.108523
O O9 0.685270 0.397692 0.000000
O O10 0.267323 0.515748 0.798687
O O11 0.229534 0.401939 0.703273
O O12 0.000000 0.500000 0.758589
#
# Coordination Sequence:
#
# PCOD9544089 Si02
#       5
#     8   8   8   8   8
#     4  10  20  30  49  81 115 148 180 227 289 341
#     4   8  13  25  45  73 110 145 180 225 274 330
#     4   8  13  26  50  76 102 141 188 230 277 331
#     4  10  22  36  53  80 113 145 190 233 283 342
#     4  10  20  35  54  75 109 146 189 235 277 339
#
# _framework density 19.834510999999999
#
# number of rings (size 3 to 8) (size 9 to 14) (size 15 to 20)
#    0.000    2.800    2.000    1.200    5.600    0.800 
#    0.000    0.000    0.000    0.600    0.000    4.200 
#    0.000    0.000    0.000    0.000    0.000    0.000 
#
# Total GULP energy -223126.490540 kJ/mol
# GULP energy per Si atom -5578.162263 kJ/mol
# Density = 1.978937 g / cm^3
# Si number density = 19.834511 Si / 1000 Ang^3
#
#
#
# Elastic Constant Matrix: (Units=GPa)
#
#
# Indices 1 2 3 4 5 6 
#
# 1 40.4200 3.0366 34.1347 0.0000 0.0000 -1.1721
# 2 3.0366 40.4200 34.1347 0.0000 0.0000 1.1721
# 3 34.1347 34.1347 195.8698 0.0000 0.0000 0.0000
# 4 0.0000 0.0000 0.0000 12.6444 0.0000 0.0000
# 5 0.0000 0.0000 0.0000 0.0000 12.6444 0.0000
# 6 -1.1721 1.1721 0.0000 0.0000 0.0000 7.5817
#
#
#
# Elastic Compliance Matrix: (Units=1/GPa)
#
#
# Indices 1 2 3 4 5 6 
#
# 1 0.029349 0.002337 -0.005522 0.000000 0.000000 0.004176
# 2 0.002337 0.029349 -0.005522 0.000000 0.000000 -0.004176
# 3 -0.005522 -0.005522 0.007030 0.000000 0.000000 0.000000
# 4 0.000000 0.000000 0.000000 0.079086 0.000000 0.000000
# 5 0.000000 0.000000 0.000000 0.000000 0.079086 0.000000
# 6 0.004176 -0.004176 0.000000 0.000000 0.000000 0.133188
#
#
# Mechanical properties :
#
#
# Convention : Reuss Voigt Hill
#
# Bulk Modulus (GPa) = 20.69761 46.59134 33.64447
# Shear Modulus (GPa) = 12.80058 20.26770 16.53414
#
# Velocity S-wave (km/s) = 2.54317 3.20009 2.89035
# Velocity P-wave (km/s) = 4.36823 6.09878 5.30455
#
# Compressibility (1/GPa) = 0.04831477
#
# Stress axis : x y z
#
# Youngs Moduli (GPa) = 34.07260 34.07260 142.24499
#
# Poissons Ratio (x) = -0.07964 0.78549
# Poissons Ratio (y) = -0.07964 0.78549
# Poissons Ratio (z) = 0.18815 0.18815
#
# Static dielectric constant tensor:
#      x y z
#    x 1.690330 0.000000 0.000000 
#    y 0.000000 1.690330 0.000000 
#    z 0.000000 0.000000 1.738430 
# 
# From -- ./inp_files/5321.got.cif
#   From: 2010.05.17/outbox.cif.g08.bks.cpg/sg84_3_cif.got.tgz:5321.got - 2010.06.03 18:57:40.
