data_PCOD9544177
_publ_section_title
;
Structure prediction by ZEFSAII (Michael W. Deem and Ramdas Pophale) SiO2 
 PCOD9544177
Probable space group: P 42/M
;
_chemical_formula_sum "Si O2"
_cell_formula_units_Z 40
_cell_length_a 15.558449
_cell_length_b 15.558449
_cell_length_c 8.877696
_cell_angle_alpha 90.000000
_cell_angle_beta 90.000000
_cell_angle_gamma 90.000000
_cell_volume 2148.982459
_symmetry_space_group_name_H-M "P 42/M"
_symmetry_group_IT_number 84
_symmetry_cell_setting 'tetragonal'
loop_
_space_group_symop_operation_xyz
x,y,z
-y,x,1/2+z
-x,-y,z
y,-x,1/2+z
-x,-y,-z
y,-x,1/2-z
x,y,-z
-y,x,1/2-z
loop_
_atom_site_type_symbol
_atom_site_label
_atom_site_fract_x
_atom_site_fract_y
_atom_site_fract_z
Si Si1 0.986515 0.755415 0.178163
Si Si2 0.801770 0.832197 0.819565
Si Si3 0.297953 0.661243 0.180572
Si Si4 0.581302 0.062130 0.174401
Si Si5 0.477448 0.744499 0.180362
O O1 0.898198 0.803094 0.222745
O O2 0.970495 0.656300 0.219132
O O3 0.071297 0.785980 0.263750
O O4 0.999291 0.766518 0.000000
O O5 0.731233 0.767739 0.749135
O O6 0.793934 0.827642 0.000000
O O7 0.395916 0.685864 0.222732
O O8 0.276677 0.566054 0.237877
O O9 0.291252 0.665706 0.000000
O O10 0.551563 0.158026 0.212508
O O11 0.500000 0.000000 0.182591
O O12 0.612522 0.062487 0.000000
O O13 0.491039 0.737627 0.000000
#
# Coordination Sequence:
#
# PCOD9544177 Si02
#       5
#     8   8   8   8   8
#     4  11  24  40  63  93 123 163 210 257 310 371
#     4  11  24  42  64  91 127 167 207 259 317 373
#     4  11  23  40  64  92 125 166 210 261 313 372
#     4  10  20  37  62  90 122 162 206 256 315 370
#     4  10  22  39  60  90 127 166 208 257 316 373
#
# _framework density 18.613461999999998
#
# number of rings (size 3 to 8) (size 9 to 14) (size 15 to 20)
#    0.000    1.400    2.000    3.000    0.000    7.600 
#    0.000    4.000    0.000    0.000    0.000    0.000 
#    0.000    0.000    0.000    0.000    0.000    0.000 
#
# Total GULP energy -223589.202170 kJ/mol
# GULP energy per Si atom -5589.730054 kJ/mol
# Density = 1.857110 g / cm^3
# Si number density = 18.613462 Si / 1000 Ang^3
#
#
#
# Elastic Constant Matrix: (Units=GPa)
#
#
# Indices 1 2 3 4 5 6 
#
# 1 125.8188 55.9124 45.2363 0.0000 0.0000 -2.2938
# 2 55.9124 125.8188 45.2363 0.0000 0.0000 2.2938
# 3 45.2363 45.2363 44.9099 0.0000 0.0000 0.0000
# 4 0.0000 0.0000 0.0000 25.7462 0.0000 0.0000
# 5 0.0000 0.0000 0.0000 0.0000 25.7462 0.0000
# 6 -2.2938 2.2938 0.0000 0.0000 0.0000 26.8030
#
#
#
# Elastic Compliance Matrix: (Units=1/GPa)
#
#
# Indices 1 2 3 4 5 6 
#
# 1 0.012712 -0.001674 -0.011118 0.000000 0.000000 0.001231
# 2 -0.001674 0.012712 -0.011118 0.000000 0.000000 -0.001231
# 3 -0.011118 -0.011118 0.044663 0.000000 0.000000 0.000000
# 4 0.000000 0.000000 0.000000 0.038841 0.000000 0.000000
# 5 0.000000 0.000000 0.000000 0.000000 0.038841 0.000000
# 6 0.001231 -0.001231 0.000000 0.000000 0.000000 0.037520
#
#
# Mechanical properties :
#
#
# Convention : Reuss Voigt Hill
#
# Bulk Modulus (GPa) = 44.90759 65.47970 55.19365
# Shear Modulus (GPa) = 20.78752 25.66994 23.22873
#
# Velocity S-wave (km/s) = 3.34548 3.71766 3.53647
# Velocity P-wave (km/s) = 6.25314 7.32687 6.81120
#
# Compressibility (1/GPa) = 0.02226795
#
# Stress axis : x y z
#
# Youngs Moduli (GPa) = 78.66891 78.66891 22.38966
#
# Poissons Ratio (x) = 0.13170 0.24892
# Poissons Ratio (y) = 0.13170 0.24892
# Poissons Ratio (z) = 0.87461 0.87461
#
# Static dielectric constant tensor:
#      x y z
#    x 1.618240 0.000000 0.000000 
#    y 0.000000 1.618240 0.000000 
#    z 0.000000 0.000000 1.640580 
# 
# From -- ./inp_files/752.got.cif
#   From: 2010.05.17/outbox.cif.g08.bks.cpg/sg84_1_cif.got.tgz:752.got - 2010.06.03 18:57:40.
