data_PCOD9544526
_publ_section_title
;
Structure prediction by ZEFSAII (Michael W. Deem and Ramdas Pophale) SiO2 
 PCOD9544526
Probable space group: P 4/N
;
_chemical_formula_sum "Si O2"
_cell_formula_units_Z 50
_cell_length_a 14.117181
_cell_length_b 14.117181
_cell_length_c 10.284464
_cell_angle_alpha 90.000000
_cell_angle_beta 90.000000
_cell_angle_gamma 90.000000
_cell_volume 2049.640190
_symmetry_space_group_name_H-M "P 4/N"
_symmetry_group_IT_number 85
_symmetry_cell_setting 'tetragonal'
loop_
_space_group_symop_operation_xyz
x,y,z
1/2-y,x,z
1/2-x,1/2-y,z
y,1/2-x,z
-x,-y,-z
1/2+y,-x,-z
1/2+x,1/2+y,-z
-y,1/2+x,-z
loop_
_atom_site_type_symbol
_atom_site_label
_atom_site_fract_x
_atom_site_fract_y
_atom_site_fract_z
Si Si1 0.250000 0.250000 0.973379
Si Si2 0.242346 0.859211 0.660486
Si Si3 0.047759 0.941013 0.265781
Si Si4 0.143992 0.040999 0.598130
Si Si5 0.692936 0.382602 0.054871
Si Si6 0.117532 0.327830 0.317283
Si Si7 0.368342 0.416147 0.889020
O O1 0.342201 0.320114 0.958993
O O2 0.250000 0.750000 0.625016
O O3 0.345845 0.899321 0.693338
O O4 0.180874 0.861476 0.792588
O O5 0.191070 0.938276 0.572681
O O6 0.967712 0.964712 0.374319
O O7 0.979662 0.924315 0.142766
O O8 0.118184 0.028636 0.257906
O O9 0.165657 0.104930 0.474237
O O10 0.178923 0.079431 0.740801
O O11 0.802329 0.363607 0.021099
O O12 0.336304 0.510021 0.962792
O O13 0.125387 0.217683 0.280553
#
# Coordination Sequence:
#
# PCOD9544526 Si02
#       7
#     2   8   8   8   8   8   8
#     4  12  20  40  64  96 136 160 230 256 324 412
#     4  11  21  39  65  96 123 175 214 275 339 395
#     4  10  23  40  60  95 135 165 223 271 332 388
#     4   9  21  38  61  91 129 168 228 271 331 387
#     4  10  19  39  67  96 123 157 223 270 333 414
#     4  11  24  39  63  92 129 185 225 269 323 403
#     4   9  22  35  64  95 127 174 209 283 332 386
#
# _framework density 24.394524000000001
#
# number of rings (size 3 to 8) (size 9 to 14) (size 15 to 20)
#    0.960    0.960    1.600    3.360    4.480    0.000 
#    0.000    3.200    0.000    0.000    4.160    0.000 
#    0.000    0.000    0.000    0.000    0.000    0.000 
#
# Total GULP energy -279225.706788 kJ/mol
# GULP energy per Si atom -5584.514136 kJ/mol
# Density = 2.433900 g / cm^3
# Si number density = 24.394524 Si / 1000 Ang^3
#
#
#
# Elastic Constant Matrix: (Units=GPa)
#
#
# Indices 1 2 3 4 5 6 
#
# 1 187.6873 46.6229 14.9654 0.0000 0.0000 -55.5974
# 2 46.6229 187.6873 14.9654 0.0000 0.0000 55.5974
# 3 14.9654 14.9654 59.2360 0.0000 0.0000 0.0000
# 4 0.0000 0.0000 0.0000 -5.5226 0.0000 0.0000
# 5 0.0000 0.0000 0.0000 0.0000 -5.5226 0.0000
# 6 -55.5974 55.5974 0.0000 0.0000 0.0000 124.3665
#
#
#
# Elastic Compliance Matrix: (Units=1/GPa)
#
#
# Indices 1 2 3 4 5 6 
#
# 1 0.007678 -0.003268 -0.001114 0.000000 0.000000 0.004893
# 2 -0.003268 0.007678 -0.001114 0.000000 0.000000 -0.004893
# 3 -0.001114 -0.001114 0.017445 0.000000 0.000000 0.000000
# 4 0.000000 0.000000 0.000000 -0.181074 0.000000 0.000000
# 5 0.000000 0.000000 0.000000 0.000000 -0.181074 0.000000
# 6 0.004893 -0.004893 0.000000 0.000000 0.000000 0.012416
#
#
# Mechanical properties :
#
#
# Convention : Reuss Voigt Hill
#
# Bulk Modulus (GPa) = 45.85431 65.30198 55.57814
# Shear Modulus (GPa) = -16.74090 46.53473 14.89691
#
# Velocity S-wave (km/s) = -2.62249 4.37233 2.47385
# Velocity P-wave (km/s) = 3.10931 7.23305 5.56708
#
# Compressibility (1/GPa) = 0.02180820
#
# Stress axis : x y z
#
# Youngs Moduli (GPa) = 130.23857 130.23857 57.32433
#
# Poissons Ratio (x) = 0.42563 0.06387
# Poissons Ratio (y) = 0.42563 0.06387
# Poissons Ratio (z) = 0.14511 0.14511
#
# Static dielectric constant tensor:
#      x y z
#    x 1.901710 0.000000 0.000000 
#    y 0.000000 1.901710 0.000000 
#    z 0.000000 0.000000 2.040290 
# 
# From -- ./inp_files/1677.got.cif
#   From: 2010.05.17/outbox.cif.g08.bks.cpg/sg85_cif.got.tgz:1677.got - 2010.06.03 19:01:16.
