data_PCOD9544582
_publ_section_title
;
Structure prediction by ZEFSAII (Michael W. Deem and Ramdas Pophale) SiO2 
 PCOD9544582
Probable space group: P 4/N
;
_chemical_formula_sum "Si O2"
_cell_formula_units_Z 48
_cell_length_a 15.652264
_cell_length_b 15.652264
_cell_length_c 11.612490
_cell_angle_alpha 90.000000
_cell_angle_beta 90.000000
_cell_angle_gamma 90.000000
_cell_volume 2844.983040
_symmetry_space_group_name_H-M "P 4/N"
_symmetry_group_IT_number 85
_symmetry_cell_setting 'tetragonal'
loop_
_space_group_symop_operation_xyz
x,y,z
1/2-y,x,z
1/2-x,1/2-y,z
y,1/2-x,z
-x,-y,-z
1/2+y,-x,-z
1/2+x,1/2+y,-z
-y,1/2+x,-z
loop_
_atom_site_type_symbol
_atom_site_label
_atom_site_fract_x
_atom_site_fract_y
_atom_site_fract_z
Si Si1 0.625457 0.189548 0.967673
Si Si2 0.198189 0.116828 0.300847
Si Si3 0.600688 0.940769 0.113025
Si Si4 0.283606 0.389960 0.568332
Si Si5 0.492432 0.216948 0.787728
Si Si6 0.018158 0.406859 0.116128
O O1 0.585622 0.194080 0.839089
O O2 0.641434 0.284814 0.016717
O O3 0.553627 0.141868 0.041696
O O4 0.296320 0.143802 0.281570
O O5 0.199242 0.089167 0.434620
O O6 0.155474 0.050119 0.215197
O O7 0.576202 0.847893 0.157935
O O8 0.690177 0.971629 0.161262
O O9 0.527839 0.006510 0.156205
O O10 0.591797 0.934965 0.974405
O O11 0.189318 0.348892 0.588962
O O12 0.289814 0.470604 0.652954
#
# Coordination Sequence:
#
# PCOD9544582 Si02
#       6
#     8   8   8   8   8   8
#     4  10  21  36  56  76 105 150 185 217 269 332
#     4   9  20  35  56  80 108 147 180 221 280 338
#     4  10  22  32  53  85 111 142 174 230 277 329
#     4   9  17  33  54  78 108 142 180 219 273 334
#     4  11  19  34  55  81 113 140 181 226 280 323
#     4  10  21  37  53  78 116 139 183 226 270 331
#
# _framework density 16.871804999999998
#
# number of rings (size 3 to 8) (size 9 to 14) (size 15 to 20)
#    0.000    2.167    3.333    1.000    4.667    0.333 
#    0.000    0.833    3.667    0.000    0.000    2.333 
#    0.000    0.000    0.000    0.000    0.000    0.000 
#
# Total GULP energy -267313.520809 kJ/mol
# GULP energy per Si atom -5569.031684 kJ/mol
# Density = 1.683340 g / cm^3
# Si number density = 16.871805 Si / 1000 Ang^3
#
#
#
# Elastic Constant Matrix: (Units=GPa)
#
#
# Indices 1 2 3 4 5 6 
#
# 1 36.6824 11.6461 25.8589 0.0000 0.0000 -7.2625
# 2 11.6461 36.6824 25.8589 0.0000 0.0000 7.2625
# 3 25.8589 25.8589 57.4072 0.0000 0.0000 0.0000
# 4 0.0000 0.0000 0.0000 23.2917 0.0000 0.0000
# 5 0.0000 0.0000 0.0000 0.0000 23.2917 0.0000
# 6 -7.2625 7.2625 0.0000 0.0000 0.0000 24.2400
#
#
#
# Elastic Compliance Matrix: (Units=1/GPa)
#
#
# Indices 1 2 3 4 5 6 
#
# 1 0.044147 -0.004199 -0.017995 0.000000 0.000000 0.014485
# 2 -0.004199 0.044147 -0.017995 0.000000 0.000000 -0.014485
# 3 -0.017995 -0.017995 0.033631 0.000000 0.000000 0.000000
# 4 0.000000 0.000000 0.000000 0.042934 0.000000 0.000000
# 5 0.000000 0.000000 0.000000 0.000000 0.042934 0.000000
# 6 0.014485 -0.014485 0.000000 0.000000 0.000000 0.049934
#
#
# Mechanical properties :
#
#
# Convention : Reuss Voigt Hill
#
# Bulk Modulus (GPa) = 24.06806 28.61110 26.33958
# Shear Modulus (GPa) = 14.20654 18.65855 16.43255
#
# Velocity S-wave (km/s) = 2.90492 3.32912 3.12423
# Velocity P-wave (km/s) = 5.05447 5.63668 5.35349
#
# Compressibility (1/GPa) = 0.04154884
#
# Stress axis : x y z
#
# Youngs Moduli (GPa) = 22.65169 22.65169 29.73477
#
# Poissons Ratio (x) = 0.09510 0.53507
# Poissons Ratio (y) = 0.09510 0.53507
# Poissons Ratio (z) = 0.40761 0.40761
#
# Static dielectric constant tensor:
#      x y z
#    x 1.577790 0.000000 0.000000 
#    y 0.000000 1.577790 0.000000 
#    z 0.000000 0.000000 1.589040 
# 
# From -- ./inp_files/1622.got.cif
#   From: 2010.05.17/outbox.cif.g08.bks.cpg/sg85_cif.got.tgz:1622.got - 2010.06.03 19:01:16.
