data_PCOD9544665
_publ_section_title
;
Structure prediction by ZEFSAII (Michael W. Deem and Ramdas Pophale) SiO2 
 PCOD9544665
Probable space group: P 4/N
;
_chemical_formula_sum "Si O2"
_cell_formula_units_Z 52
_cell_length_a 20.067532
_cell_length_b 20.067532
_cell_length_c 5.223054
_cell_angle_alpha 90.000000
_cell_angle_beta 90.000000
_cell_angle_gamma 90.000000
_cell_volume 2103.354351
_symmetry_space_group_name_H-M "P 4/N"
_symmetry_group_IT_number 85
_symmetry_cell_setting 'tetragonal'
loop_
_space_group_symop_operation_xyz
x,y,z
1/2-y,x,z
1/2-x,1/2-y,z
y,1/2-x,z
-x,-y,-z
1/2+y,-x,-z
1/2+x,1/2+y,-z
-y,1/2+x,-z
loop_
_atom_site_type_symbol
_atom_site_label
_atom_site_fract_x
_atom_site_fract_y
_atom_site_fract_z
Si Si1 0.347411 0.043331 0.529421
Si Si2 0.250000 0.250000 0.008215
Si Si3 0.071951 0.884555 0.144048
Si Si4 0.375328 0.163919 0.842140
Si Si5 0.750000 0.250000 0.500000
Si Si6 0.464491 0.081039 0.217865
Si Si7 0.339607 0.633673 0.653765
Si Si8 0.006276 0.286481 0.544739
O O1 0.345785 0.121310 0.603678
O O2 0.417525 0.032914 0.384415
O O3 0.281038 0.018683 0.387028
O O4 0.348262 0.995574 0.776444
O O5 0.317108 0.201945 0.986842
O O6 0.121929 0.870201 0.382120
O O7 0.056336 0.963761 0.129161
O O8 0.108286 0.865560 0.884091
O O9 0.432991 0.213061 0.745158
O O10 0.416459 0.109500 0.000774
O O11 0.801422 0.294052 0.661149
O O12 0.482492 0.146421 0.385050
O O13 0.294925 0.566545 0.666088
#
# Coordination Sequence:
#
# PCOD9544665 Si02
#       8
#     8   2   8   8   2   8   8   8
#     4  11  24  40  71 102 136 195 244 313 373 451
#     4  12  24  40  66 108 140 202 252 316 370 468
#     4  11  25  48  75 109 147 192 252 312 386 453
#     4  11  23  43  66  96 144 187 247 306 372 448
#     4  12  28  50  76 118 152 198 260 318 392 482
#     4  10  24  43  67 101 141 191 244 313 369 455
#     4  11  26  48  75 107 151 196 244 318 380 467
#     4  10  22  45  64  97 143 191 242 298 382 442
#
# _framework density 24.722417
#
# number of rings (size 3 to 8) (size 9 to 14) (size 15 to 20)
#    0.000    1.231    3.077    1.385    4.308    3.692 
#    0.000    3.077    0.000    0.000    0.000    0.000 
#    0.000    0.000    0.000    0.000    0.000    0.000 
#
# Total GULP energy -290507.741379 kJ/mol
# GULP energy per Si atom -5586.687334 kJ/mol
# Density = 2.466615 g / cm^3
# Si number density = 24.722417 Si / 1000 Ang^3
#
#
#
# Elastic Constant Matrix: (Units=GPa)
#
#
# Indices 1 2 3 4 5 6 
#
# 1 118.9945 46.9497 19.5307 0.0000 0.0000 7.5611
# 2 46.9497 118.9945 19.5307 0.0000 0.0000 -7.5611
# 3 19.5307 19.5307 71.5690 0.0000 0.0000 0.0000
# 4 0.0000 0.0000 0.0000 9.7760 0.0000 0.0000
# 5 0.0000 0.0000 0.0000 0.0000 9.7760 0.0000
# 6 7.5611 -7.5611 0.0000 0.0000 0.0000 50.8950
#
#
#
# Elastic Compliance Matrix: (Units=1/GPa)
#
#
# Indices 1 2 3 4 5 6 
#
# 1 0.010383 -0.003944 -0.001757 0.000000 0.000000 -0.002128
# 2 -0.003944 0.010383 -0.001757 0.000000 0.000000 0.002128
# 3 -0.001757 -0.001757 0.014932 0.000000 0.000000 0.000000
# 4 0.000000 0.000000 0.000000 0.102291 0.000000 0.000000
# 5 0.000000 0.000000 0.000000 0.000000 0.102291 0.000000
# 6 -0.002128 0.002128 0.000000 0.000000 0.000000 0.020281
#
#
# Mechanical properties :
#
#
# Convention : Reuss Voigt Hill
#
# Bulk Modulus (GPa) = 48.11912 53.50891 50.81401
# Shear Modulus (GPa) = 17.70500 28.99252 23.34876
#
# Velocity S-wave (km/s) = 2.67900 3.42822 3.07650
# Velocity P-wave (km/s) = 5.39216 6.11237 5.76353
#
# Compressibility (1/GPa) = 0.02078176
#
# Stress axis : x y z
#
# Youngs Moduli (GPa) = 96.30761 96.30761 66.97173
#
# Poissons Ratio (x) = 0.37980 0.11769
# Poissons Ratio (y) = 0.37980 0.11769
# Poissons Ratio (z) = 0.16925 0.16925
#
# Static dielectric constant tensor:
#      x y z
#    x 1.994210 0.000000 0.000000 
#    y 0.000000 1.994210 0.000000 
#    z 0.000000 0.000000 2.050300 
# 
# From -- ./inp_files/525.got.cif
#   From: 2010.05.17/outbox.cif.g08.bks.cpg/sg85_cif.got.tgz:525.got - 2010.06.03 19:01:16.
