data_PCOD9544375
_publ_section_title
;
Structure prediction by ZEFSAII (Michael W. Deem and Ramdas Pophale) SiO2 
 PCOD9544375
Probable space group: P 42/M
;
_chemical_formula_sum "Si O2"
_cell_formula_units_Z 26
_cell_length_a 10.202350
_cell_length_b 10.202350
_cell_length_c 9.764954
_cell_angle_alpha 90.000000
_cell_angle_beta 90.000000
_cell_angle_gamma 90.000000
_cell_volume 1016.414000
_symmetry_space_group_name_H-M "P 42/M"
_symmetry_group_IT_number 84
_symmetry_cell_setting 'tetragonal'
loop_
_space_group_symop_operation_xyz
x,y,z
-y,x,1/2+z
-x,-y,z
y,-x,1/2+z
-x,-y,-z
y,-x,1/2-z
x,y,-z
-y,x,1/2-z
loop_
_atom_site_type_symbol
_atom_site_label
_atom_site_fract_x
_atom_site_fract_y
_atom_site_fract_z
Si Si1 0.365478 0.311094 0.000000
Si Si2 0.877532 0.118345 0.500000
Si Si3 0.173157 0.232435 0.500000
Si Si4 0.193284 0.530851 0.000000
Si Si5 0.000000 0.000000 0.250000
Si Si6 0.462553 0.854591 0.196876
O O1 0.442103 0.254248 0.131227
O O2 0.227879 0.231764 0.000000
O O3 0.340310 0.466889 0.000000
O O4 0.025637 0.177528 0.500000
O O5 0.882990 0.038835 0.644546
O O6 0.314319 0.163388 0.500000
O O7 0.178550 0.322290 0.635079
O O8 0.142378 0.473692 0.858421
O O9 0.500000 0.000000 0.147424
#
# Coordination Sequence:
#
# PCOD9544375 Si02
#       6
#     4   4   4   4   2   8
#     4  11  24  45  71  97 149 190 239 295 378 430
#     4  11  24  47  72 104 140 193 236 313 364 439
#     4  11  24  45  71  97 149 190 239 295 378 430
#     4  12  27  39  70 114 140 183 248 315 342 437
#     4  10  28  42  72 106 136 182 260 310 364 426
#     4  11  23  45  69 102 138 202 243 292 371 446
#
# _framework density 25.58013
#
# number of rings (size 3 to 8) (size 9 to 14) (size 15 to 20)
#    0.000    0.923    3.077    3.231    8.615    2.462 
#    5.538    6.154    0.000    0.000    0.000    0.000 
#    0.000    0.000    0.000    0.000    0.000    0.000 
#
# Total GULP energy -145362.751495 kJ/mol
# GULP energy per Si atom -5590.875057 kJ/mol
# Density = 2.552191 g / cm^3
# Si number density = 25.580130 Si / 1000 Ang^3
#
#
#
# Elastic Constant Matrix: (Units=GPa)
#
#
# Indices 1 2 3 4 5 6 
#
# 1 76.5113 -0.7273 16.0237 0.0000 0.0000 8.8531
# 2 -0.7273 76.5113 16.0237 0.0000 0.0000 -8.8531
# 3 16.0237 16.0237 210.3523 0.0000 0.0000 0.0000
# 4 0.0000 0.0000 0.0000 37.5090 0.0000 0.0000
# 5 0.0000 0.0000 0.0000 0.0000 37.5090 0.0000
# 6 8.8531 -8.8531 0.0000 0.0000 0.0000 38.3996
#
#
#
# Elastic Compliance Matrix: (Units=1/GPa)
#
#
# Indices 1 2 3 4 5 6 
#
# 1 0.013652 -0.000017 -0.001039 0.000000 0.000000 -0.003151
# 2 -0.000017 0.013652 -0.001039 0.000000 0.000000 0.003151
# 3 -0.001039 -0.001039 0.004912 0.000000 0.000000 0.000000
# 4 0.000000 0.000000 0.000000 0.026660 0.000000 0.000000
# 5 0.000000 0.000000 0.000000 0.000000 0.026660 0.000000
# 6 -0.003151 0.003151 0.000000 0.000000 0.000000 0.027495
#
#
# Mechanical properties :
#
#
# Convention : Reuss Voigt Hill
#
# Bulk Modulus (GPa) = 35.68002 47.33500 41.50751
# Shear Modulus (GPa) = 39.50596 44.82053 42.16325
#
# Velocity S-wave (km/s) = 3.93415 4.19042 4.06431
# Velocity P-wave (km/s) = 5.88348 6.47747 6.18761
#
# Compressibility (1/GPa) = 0.02802689
#
# Stress axis : x y z
#
# Youngs Moduli (GPa) = 73.24953 73.24953 203.57626
#
# Poissons Ratio (x) = 0.00127 0.21144
# Poissons Ratio (y) = 0.00127 0.21144
# Poissons Ratio (z) = 0.07608 0.07608
#
# Static dielectric constant tensor:
#      x y z
#    x 2.110380 0.000000 0.000000 
#    y 0.000000 2.110380 0.000000 
#    z 0.000000 0.000000 1.989960 
# 
# From -- ./inp_files/477.got.cif
#   From: 2010.05.17/outbox.cif.g08.bks.cpg/sg84_1_cif.got.tgz:477.got - 2010.06.03 18:57:40.
