data_PCOD9544975
_publ_section_title
;
Structure prediction by ZEFSAII (Michael W. Deem and Ramdas Pophale) SiO2 
 PCOD9544975
Probable space group: P 42/N
;
_chemical_formula_sum "Si O2"
_cell_formula_units_Z 48
_cell_length_a 10.293753
_cell_length_b 10.293753
_cell_length_c 27.247894
_cell_angle_alpha 90.000000
_cell_angle_beta 90.000000
_cell_angle_gamma 90.000000
_cell_volume 2887.223655
_symmetry_space_group_name_H-M "P 42/N"
_symmetry_group_IT_number 86
_space_group.IT_coordinate_system_code '2'
_symmetry_cell_setting 'tetragonal'
loop_
_space_group_symop_operation_xyz
x,y,z
-y,1/2+x,1/2+z
1/2-x,1/2-y,z
1/2+y,-x,1/2+z
-x,-y,-z
y,1/2-x,1/2-z
1/2+x,1/2+y,-z
1/2-y,x,1/2-z
loop_
_atom_site_type_symbol
_atom_site_label
_atom_site_fract_x
_atom_site_fract_y
_atom_site_fract_z
Si Si1 0.400084 0.737941 0.539734
Si Si2 0.498783 0.102877 0.887133
Si Si3 0.091698 0.101684 0.192771
Si Si4 0.017219 0.903081 0.111468
Si Si5 0.903879 0.903659 0.692771
Si Si6 0.757084 0.900258 0.049288
O O1 0.250000 0.750000 0.522683
O O2 0.415983 0.605386 0.570083
O O3 0.421723 0.855565 0.577825
O O4 0.500174 0.743738 0.495251
O O5 0.514112 0.253173 0.870716
O O6 0.358915 0.083885 0.911689
O O7 0.527580 0.002948 0.843712
O O8 0.059033 0.253251 0.183788
O O9 0.247572 0.088148 0.185803
O O10 0.065747 0.071777 0.249955
O O11 0.022400 0.004129 0.155852
O O12 0.892554 0.920925 0.077038
O O13 0.750000 0.750000 0.031739
#
# Coordination Sequence:
#
# PCOD9544975 Si02
#       6
#     8   8   8   8   8   8
#     4  10  20  34  56  80 104 144 184 218 263 312
#     4  10  20  36  55  77 111 143 175 221 268 316
#     4   9  18  34  56  80 103 133 177 225 268 317
#     4  10  20  36  55  77 111 143 175 221 268 316
#     4   9  18  34  56  80 103 133 177 225 268 317
#     4  10  22  36  52  78 114 144 178 218 261 318
#
# _framework density 16.624967999999999
#
# number of rings (size 3 to 8) (size 9 to 14) (size 15 to 20)
#    0.000    2.333    1.667    2.000    0.000    2.667 
#    3.000    0.000    0.000    0.000    0.000    0.000 
#    0.000    0.000    0.000    0.000    0.000    0.000 
#
# Total GULP energy -267773.580869 kJ/mol
# GULP energy per Si atom -5578.616268 kJ/mol
# Density = 1.658713 g / cm^3
# Si number density = 16.624968 Si / 1000 Ang^3
#
#
#
# Elastic Constant Matrix: (Units=GPa)
#
#
# Indices 1 2 3 4 5 6 
#
# 1 23.0032 33.3937 25.3941 0.0000 0.0000 -9.1698
# 2 33.3937 23.0032 25.3941 0.0000 0.0000 9.1698
# 3 25.3941 25.3941 59.8666 0.0000 0.0000 0.0000
# 4 0.0000 0.0000 0.0000 7.1573 0.0000 0.0000
# 5 0.0000 0.0000 0.0000 0.0000 7.1573 0.0000
# 6 -9.1698 9.1698 0.0000 0.0000 0.0000 16.9462
#
#
#
# Elastic Compliance Matrix: (Units=1/GPa)
#
#
# Indices 1 2 3 4 5 6 
#
# 1 -0.010267 0.038959 -0.012170 0.000000 0.000000 -0.026637
# 2 0.038959 -0.010267 -0.012170 0.000000 0.000000 0.026637
# 3 -0.012170 -0.012170 0.027028 0.000000 0.000000 0.000000
# 4 0.000000 0.000000 0.000000 0.139717 0.000000 0.000000
# 5 0.000000 0.000000 0.000000 0.000000 0.139717 0.000000
# 6 -0.026637 0.026637 0.000000 0.000000 0.000000 0.030183
#
#
# Mechanical properties :
#
#
# Convention : Reuss Voigt Hill
#
# Bulk Modulus (GPa) = 27.98748 30.47075 29.22912
# Shear Modulus (GPa) = 16.73449 7.69824 12.21637
#
# Velocity S-wave (km/s) = 3.17612 2.15420 2.71370
# Velocity P-wave (km/s) = 5.50649 4.95536 5.23818
#
# Compressibility (1/GPa) = 0.03573026
#
# Stress axis : x y z
#
# Youngs Moduli (GPa) = -97.39559 -97.39559 36.99800
#
# Poissons Ratio (x) = 3.79441 0.45027
# Poissons Ratio (y) = 3.79441 0.45027
# Poissons Ratio (z) = -1.18533 -1.18533
#
# Static dielectric constant tensor:
#      x y z
#    x 1.553500 0.000000 0.000000 
#    y 0.000000 1.553500 0.000000 
#    z 0.000000 0.000000 1.520310 
# 
# From -- ./inp_files/5118.got.cif
#   From: 2010.05.17/outbox.cif.g08.bks.cpg/sg86_3_cif.got.tgz:5118.got - 2010.06.03 19:03:11.
