data_PCOD9544807
_publ_section_title
;
Structure prediction by ZEFSAII (Michael W. Deem and Ramdas Pophale) SiO2 
 PCOD9544807
Probable space group: P 4/N
;
_chemical_formula_sum "Si O2"
_cell_formula_units_Z 50
_cell_length_a 8.825126
_cell_length_b 8.825126
_cell_length_c 31.796710
_cell_angle_alpha 90.000000
_cell_angle_beta 90.000000
_cell_angle_gamma 90.000000
_cell_volume 2476.418361
_symmetry_space_group_name_H-M "P 4/N"
_symmetry_group_IT_number 85
_symmetry_cell_setting 'tetragonal'
loop_
_space_group_symop_operation_xyz
x,y,z
1/2-y,x,z
1/2-x,1/2-y,z
y,1/2-x,z
-x,-y,-z
1/2+y,-x,-z
1/2+x,1/2+y,-z
-y,1/2+x,-z
loop_
_atom_site_type_symbol
_atom_site_label
_atom_site_fract_x
_atom_site_fract_y
_atom_site_fract_z
Si Si1 0.629969 0.973331 0.203446
Si Si2 0.666916 0.415042 0.713010
Si Si3 0.539407 0.602259 0.366630
Si Si4 0.750000 0.750000 0.720648
Si Si5 0.111846 0.036298 0.124452
Si Si6 0.579183 0.938707 0.458664
Si Si7 0.056383 0.082921 0.957937
O O1 0.552435 0.809283 0.201457
O O2 0.598621 0.057745 0.246819
O O3 0.565492 0.062319 0.163630
O O4 0.750000 0.250000 0.709264
O O5 0.572130 0.443035 0.670282
O O6 0.770360 0.562757 0.720447
O O7 0.714110 0.548491 0.363455
O O8 0.491742 0.541669 0.412878
O O9 0.292746 0.048850 0.126537
O O10 0.042562 0.972678 0.081399
O O11 0.545061 0.760147 0.459528
O O12 0.500000 0.000000 0.500000
O O13 0.235026 0.045001 0.956532
O O14 0.000000 0.000000 0.000000
#
# Coordination Sequence:
#
# PCOD9544807 Si02
#       7
#     8   8   8   2   8   8   8
#     4  11  25  43  67  98 133 178 233 282 347 425
#     4  12  26  45  69 100 140 183 228 292 362 413
#     4   9  18  39  67  90 127 177 227 278 347 426
#     4  12  28  44  68 104 140 168 240 284 336 428
#     4  11  26  43  66  97 135 180 228 287 352 416
#     4   9  19  38  60  88 125 168 216 272 336 409
#     4  11  24  43  68  99 136 174 227 287 348 425
#
# _framework density 20.190449999999998
#
# number of rings (size 3 to 8) (size 9 to 14) (size 15 to 20)
#    0.000    1.440    0.000    5.760    4.480    7.680 
#    8.640    0.000    0.000    0.000    0.000    0.000 
#    0.000    0.000    0.000    0.000    0.000    0.000 
#
# Total GULP energy -278763.016632 kJ/mol
# GULP energy per Si atom -5575.260333 kJ/mol
# Density = 2.014450 g / cm^3
# Si number density = 20.190450 Si / 1000 Ang^3
#
#
#
# Elastic Constant Matrix: (Units=GPa)
#
#
# Indices 1 2 3 4 5 6 
#
# 1 52.5268 57.0855 43.0005 0.0000 0.0000 16.3769
# 2 57.0855 52.5268 43.0005 0.0000 0.0000 -16.3769
# 3 43.0005 43.0005 162.5855 0.0000 0.0000 0.0000
# 4 0.0000 0.0000 0.0000 37.4600 0.0000 0.0000
# 5 0.0000 0.0000 0.0000 0.0000 37.4600 0.0000
# 6 16.3769 -16.3769 0.0000 0.0000 0.0000 13.0107
#
#
#
# Elastic Compliance Matrix: (Units=1/GPa)
#
#
# Indices 1 2 3 4 5 6 
#
# 1 -0.005164 0.016676 -0.003045 0.000000 0.000000 0.027491
# 2 0.016676 -0.005164 -0.003045 0.000000 0.000000 -0.027491
# 3 -0.003045 -0.003045 0.007761 0.000000 0.000000 0.000000
# 4 0.000000 0.000000 0.000000 0.026695 0.000000 0.000000
# 5 0.000000 0.000000 0.000000 0.000000 0.026695 0.000000
# 6 0.027491 -0.027491 0.000000 0.000000 0.000000 0.007652
#
#
# Mechanical properties :
#
#
# Convention : Reuss Voigt Hill
#
# Bulk Modulus (GPa) = 53.74539 61.53469 57.64004
# Shear Modulus (GPa) = 114.93226 25.88965 70.41095
#
# Velocity S-wave (km/s) = 7.55299 3.58477 5.91178
# Velocity P-wave (km/s) = 10.13610 6.90488 8.67231
#
# Compressibility (1/GPa) = 0.01860625
#
# Stress axis : x y z
#
# Youngs Moduli (GPa) = -193.64071 -193.64071 128.84762
#
# Poissons Ratio (x) = 3.22917 0.39230
# Poissons Ratio (y) = 3.22917 0.39230
# Poissons Ratio (z) = -0.58957 -0.58957
#
# Static dielectric constant tensor:
#      x y z
#    x 1.721680 0.000000 0.000000 
#    y 0.000000 1.721680 0.000000 
#    z 0.000000 0.000000 1.705680 
# 
# From -- ./inp_files/2454.got.cif
#   From: 2010.05.17/outbox.cif.g08.bks.cpg/sg85_cif.got.tgz:2454.got - 2010.06.03 19:01:16.
