data_PCOD9544175
_publ_section_title
;
Structure prediction by ZEFSAII (Michael W. Deem and Ramdas Pophale) SiO2 
 PCOD9544175
Probable space group: P 42/M
;
_chemical_formula_sum "Si O2"
_cell_formula_units_Z 40
_cell_length_a 15.279835
_cell_length_b 15.279835
_cell_length_c 8.250801
_cell_angle_alpha 90.000000
_cell_angle_beta 90.000000
_cell_angle_gamma 90.000000
_cell_volume 1926.342213
_symmetry_space_group_name_H-M "P 42/M"
_symmetry_group_IT_number 84
_symmetry_cell_setting 'tetragonal'
loop_
_space_group_symop_operation_xyz
x,y,z
-y,x,1/2+z
-x,-y,z
y,-x,1/2+z
-x,-y,-z
y,-x,1/2-z
x,y,-z
-y,x,1/2-z
loop_
_atom_site_type_symbol
_atom_site_label
_atom_site_fract_x
_atom_site_fract_y
_atom_site_fract_z
Si Si1 0.727854 0.609704 0.303924
Si Si2 0.417121 0.252045 0.305232
Si Si3 0.948559 0.412438 0.195832
Si Si4 0.103855 0.917878 0.315828
Si Si5 0.900819 0.707671 0.693609
O O1 0.725678 0.607142 0.500000
O O2 0.657721 0.681649 0.247255
O O3 0.712775 0.512729 0.239596
O O4 0.824512 0.641403 0.253471
O O5 0.409786 0.248138 0.500000
O O6 0.409145 0.151664 0.245180
O O7 0.000000 0.500000 0.251881
O O8 0.006455 0.330398 0.250467
O O9 0.947189 0.414352 0.000000
O O10 0.081781 0.894945 0.500000
O O11 0.197121 0.881498 0.264981
O O12 0.023125 0.890158 0.203918
O O13 0.899814 0.714043 0.500000
#
# Coordination Sequence:
#
# PCOD9544175 Si02
#       5
#     8   8   8   8   8
#     4  10  23  41  61  88 123 160 202 256 314 367
#     4  10  22  41  63  89 120 159 204 252 311 373
#     4  10  20  37  62  88 116 156 201 249 307 364
#     4  11  23  41  62  87 122 163 207 251 301 362
#     4  11  23  38  59  90 124 160 203 253 309 371
#
# _framework density 20.764742999999999
#
# number of rings (size 3 to 8) (size 9 to 14) (size 15 to 20)
#    0.000    1.600    2.000    3.000    2.800    3.200 
#    0.000    2.000    0.000    0.000    0.000    0.000 
#    0.000    0.000    0.000    0.000    0.000    0.000 
#
# Total GULP energy -223594.271757 kJ/mol
# GULP energy per Si atom -5589.856794 kJ/mol
# Density = 2.071748 g / cm^3
# Si number density = 20.764743 Si / 1000 Ang^3
#
#
#
# Elastic Constant Matrix: (Units=GPa)
#
#
# Indices 1 2 3 4 5 6 
#
# 1 93.1264 40.7033 1.8307 0.0000 0.0000 -13.5498
# 2 40.7033 93.1264 1.8307 0.0000 0.0000 13.5498
# 3 1.8307 1.8307 15.9525 0.0000 0.0000 0.0000
# 4 0.0000 0.0000 0.0000 29.1599 0.0000 0.0000
# 5 0.0000 0.0000 0.0000 0.0000 29.1599 0.0000
# 6 -13.5498 13.5498 0.0000 0.0000 0.0000 34.2475
#
#
#
# Elastic Compliance Matrix: (Units=1/GPa)
#
#
# Indices 1 2 3 4 5 6 
#
# 1 0.015738 -0.008242 -0.000860 0.000000 0.000000 0.009488
# 2 -0.008242 0.015738 -0.000860 0.000000 0.000000 -0.009488
# 3 -0.000860 -0.000860 0.062884 0.000000 0.000000 0.000000
# 4 0.000000 0.000000 0.000000 0.034294 0.000000 0.000000
# 5 0.000000 0.000000 0.000000 0.000000 0.034294 0.000000
# 6 0.009488 -0.009488 0.000000 0.000000 0.000000 0.036707
#
#
# Mechanical properties :
#
#
# Convention : Reuss Voigt Hill
#
# Bulk Modulus (GPa) = 13.43467 32.32608 22.88037
# Shear Modulus (GPa) = 20.45910 29.03614 24.74762
#
# Velocity S-wave (km/s) = 3.14232 3.74349 3.45600
# Velocity P-wave (km/s) = 4.43278 5.85547 5.19308
#
# Compressibility (1/GPa) = 0.07443428
#
# Stress axis : x y z
#
# Youngs Moduli (GPa) = 63.54097 63.54097 15.90238
#
# Poissons Ratio (x) = 0.52371 0.01368
# Poissons Ratio (y) = 0.52371 0.01368
# Poissons Ratio (z) = 0.05466 0.05466
#
# Static dielectric constant tensor:
#      x y z
#    x 1.734760 0.000000 0.000000 
#    y 0.000000 1.734760 0.000000 
#    z 0.000000 0.000000 1.730560 
# 
# From -- ./inp_files/744.got.cif
#   From: 2010.05.17/outbox.cif.g08.bks.cpg/sg84_1_cif.got.tgz:744.got - 2010.06.03 18:57:40.
