data_PCOD9544463
_publ_section_title
;
Structure prediction by ZEFSAII (Michael W. Deem and Ramdas Pophale) SiO2 
 PCOD9544463
Probable space group: P 42/M
;
_chemical_formula_sum "Si O2"
_cell_formula_units_Z 20
_cell_length_a 5.094328
_cell_length_b 5.094328
_cell_length_c 32.803478
_cell_angle_alpha 90.000000
_cell_angle_beta 90.000000
_cell_angle_gamma 90.000000
_cell_volume 851.321693
_symmetry_space_group_name_H-M "P 42/M"
_symmetry_group_IT_number 84
_symmetry_cell_setting 'tetragonal'
loop_
_space_group_symop_operation_xyz
x,y,z
-y,x,1/2+z
-x,-y,z
y,-x,1/2+z
-x,-y,-z
y,-x,1/2-z
x,y,-z
-y,x,1/2-z
loop_
_atom_site_type_symbol
_atom_site_label
_atom_site_fract_x
_atom_site_fract_y
_atom_site_fract_z
Si Si1 0.764105 0.670731 0.568760
Si Si2 0.500000 0.000000 0.695164
Si Si3 0.000000 0.000000 0.641085
Si Si4 0.500000 0.500000 0.750000
Si Si5 0.500000 0.000000 0.500000
O O1 0.500000 0.500000 0.574732
O O2 0.000000 0.500000 0.551161
O O3 0.873925 0.786091 0.610799
O O4 0.692426 0.887469 0.535990
O O5 0.752932 0.083935 0.668483
O O6 0.425481 0.249910 0.722534
#
# Coordination Sequence:
#
# PCOD9544463 Si02
#       5
#     8   4   4   2   2
#     4  12  27  47  75 108 153 211 260 335 395 467
#     4  12  27  50  82 113 164 196 262 323 396 500
#     4  12  28  48  76 114 150 204 260 324 394 484
#     4  12  28  52  80 124 148 214 248 320 412 484
#     4  12  26  50  68 114 152 210 280 326 404 458
#
# _framework density 23.492884
#
# number of rings (size 3 to 8) (size 9 to 14) (size 15 to 20)
#    0.000    0.000    0.000    9.600    8.400    5.600 
#    0.000    0.000    0.000    0.000    0.000    0.000 
#    0.000    0.000    0.000    0.000    0.000    0.000 
#
# Total GULP energy -111560.358627 kJ/mol
# GULP energy per Si atom -5578.017931 kJ/mol
# Density = 2.343941 g / cm^3
# Si number density = 23.492884 Si / 1000 Ang^3
#
#
#
# Elastic Constant Matrix: (Units=GPa)
#
#
# Indices 1 2 3 4 5 6 
#
# 1 137.8315 38.4065 44.4691 0.0000 0.0000 2.4924
# 2 38.4065 137.8315 44.4691 0.0000 0.0000 -2.4924
# 3 44.4691 44.4691 126.3188 0.0000 0.0000 0.0000
# 4 0.0000 0.0000 0.0000 51.1864 0.0000 0.0000
# 5 0.0000 0.0000 0.0000 0.0000 51.1864 0.0000
# 6 2.4924 -2.4924 0.0000 0.0000 0.0000 67.6602
#
#
#
# Elastic Compliance Matrix: (Units=1/GPa)
#
#
# Indices 1 2 3 4 5 6 
#
# 1 0.008488 -0.001588 -0.002429 0.000000 0.000000 -0.000371
# 2 -0.001588 0.008488 -0.002429 0.000000 0.000000 0.000371
# 3 -0.002429 -0.002429 0.009627 0.000000 0.000000 0.000000
# 4 0.000000 0.000000 0.000000 0.019536 0.000000 0.000000
# 5 0.000000 0.000000 0.000000 0.000000 0.019536 0.000000
# 6 -0.000371 0.000371 0.000000 0.000000 0.000000 0.014807
#
#
# Mechanical properties :
#
#
# Convention : Reuss Voigt Hill
#
# Bulk Modulus (GPa) = 72.93715 72.96345 72.95030
# Shear Modulus (GPa) = 51.04857 52.31573 51.68215
#
# Velocity S-wave (km/s) = 4.66653 4.72410 4.69540
# Velocity P-wave (km/s) = 7.75560 7.80264 7.77916
#
# Compressibility (1/GPa) = 0.01371043
#
# Stress axis : x y z
#
# Youngs Moduli (GPa) = 117.81053 117.81053 103.87759
#
# Poissons Ratio (x) = 0.18711 0.25232
# Poissons Ratio (y) = 0.18711 0.25232
# Poissons Ratio (z) = 0.28617 0.28617
#
# Static dielectric constant tensor:
#      x y z
#    x 1.871500 0.000000 0.000000 
#    y 0.000000 1.871500 0.000000 
#    z 0.000000 0.000000 1.831710 
# 
# From -- ./inp_files/5199.got.cif
#   From: 2010.05.17/outbox.cif.g08.bks.cpg/sg84_3_cif.got.tgz:5199.got - 2010.06.03 18:57:40.
