data_PCOD9544571
_publ_section_title
;
Structure prediction by ZEFSAII (Michael W. Deem and Ramdas Pophale) SiO2 
 PCOD9544571
Probable space group: P 4/N
;
_chemical_formula_sum "Si O2"
_cell_formula_units_Z 32
_cell_length_a 13.516254
_cell_length_b 13.516254
_cell_length_c 7.174788
_cell_angle_alpha 90.000000
_cell_angle_beta 90.000000
_cell_angle_gamma 90.000000
_cell_volume 1310.755722
_symmetry_space_group_name_H-M "P 4/N"
_symmetry_group_IT_number 85
_symmetry_cell_setting 'tetragonal'
loop_
_space_group_symop_operation_xyz
x,y,z
1/2-y,x,z
1/2-x,1/2-y,z
y,1/2-x,z
-x,-y,-z
1/2+y,-x,-z
1/2+x,1/2+y,-z
-y,1/2+x,-z
loop_
_atom_site_type_symbol
_atom_site_label
_atom_site_fract_x
_atom_site_fract_y
_atom_site_fract_z
Si Si1 0.646289 0.976289 0.002225
Si Si2 0.596775 0.687100 0.577446
Si Si3 0.378288 0.666712 0.524994
Si Si4 0.858148 0.016489 0.138563
O O1 0.664931 0.932022 0.794713
O O2 0.571949 0.068668 0.002593
O O3 0.596837 0.892909 0.130445
O O4 0.748157 0.017840 0.071337
O O5 0.697515 0.625126 0.545651
O O6 0.493900 0.663230 0.469827
O O7 0.279981 0.642100 0.402632
O O8 0.369377 0.580804 0.677505
#
# Coordination Sequence:
#
# PCOD9544571 Si02
#       4
#     8   8   8   8
#     4  10  20  39  66 106 131 170 215 292 368 414
#     4  10  20  39  72 104 135 173 221 287 359 416
#     4  10  24  46  59  91 133 193 238 273 317 405
#     4  10  22  38  64  97 134 173 227 283 351 412
#
# _framework density 24.413395999999999
#
# number of rings (size 3 to 8) (size 9 to 14) (size 15 to 20)
#    0.000    2.000    2.500    0.000    0.000   10.000 
#    4.500    0.000    0.000    0.000    0.000    0.000 
#    0.000    0.000    0.000    0.000    0.000    0.000 
#
# Total GULP energy -178678.600330 kJ/mol
# GULP energy per Si atom -5583.706260 kJ/mol
# Density = 2.435783 g / cm^3
# Si number density = 24.413396 Si / 1000 Ang^3
#
#
#
# Elastic Constant Matrix: (Units=GPa)
#
#
# Indices 1 2 3 4 5 6 
#
# 1 86.4704 90.6580 12.0352 0.0000 0.0000 27.1740
# 2 90.6580 86.4704 12.0352 0.0000 0.0000 -27.1740
# 3 12.0352 12.0352 44.2972 0.0000 0.0000 0.0000
# 4 0.0000 0.0000 0.0000 24.9012 0.0000 0.0000
# 5 0.0000 0.0000 0.0000 0.0000 24.9012 0.0000
# 6 27.1740 -27.1740 0.0000 0.0000 0.0000 37.1296
#
#
#
# Elastic Compliance Matrix: (Units=1/GPa)
#
#
# Indices 1 2 3 4 5 6 
#
# 1 -0.008442 0.014304 -0.001593 0.000000 0.000000 0.016647
# 2 0.014304 -0.008442 -0.001593 0.000000 0.000000 -0.016647
# 3 -0.001593 -0.001593 0.023440 0.000000 0.000000 0.000000
# 4 0.000000 0.000000 0.000000 0.040159 0.000000 0.000000
# 5 0.000000 0.000000 0.000000 0.000000 0.040159 0.000000
# 6 0.016647 -0.016647 0.000000 0.000000 0.000000 0.002565
#
#
# Mechanical properties :
#
#
# Convention : Reuss Voigt Hill
#
# Bulk Modulus (GPa) = 34.72991 49.63275 42.18133
# Shear Modulus (GPa) = 65.10500 24.22038 44.66269
#
# Velocity S-wave (km/s) = 5.16968 3.15317 4.28183
# Velocity P-wave (km/s) = 7.06334 5.79922 6.46226
#
# Compressibility (1/GPa) = 0.02879363
#
# Stress axis : x y z
#
# Youngs Moduli (GPa) = -118.45356 -118.45356 42.66174
#
# Poissons Ratio (x) = 1.69438 0.06795
# Poissons Ratio (y) = 1.69438 0.06795
# Poissons Ratio (z) = -0.18866 -0.18866
#
# Static dielectric constant tensor:
#      x y z
#    x 1.961380 0.000000 0.000000 
#    y 0.000000 1.961380 0.000000 
#    z 0.000000 0.000000 1.995730 
# 
# From -- ./inp_files/748.got.cif
#   From: 2010.05.17/outbox.cif.g08.bks.cpg/sg85_cif.got.tgz:748.got - 2010.06.03 19:01:16.
