data_PCOD9544620
_publ_section_title
;
Structure prediction by ZEFSAII (Michael W. Deem and Ramdas Pophale) SiO2 
 PCOD9544620
Probable space group: P 4/N
;
_chemical_formula_sum "Si O2"
_cell_formula_units_Z 40
_cell_length_a 13.640498
_cell_length_b 13.640498
_cell_length_c 7.741256
_cell_angle_alpha 90.000000
_cell_angle_beta 90.000000
_cell_angle_gamma 90.000000
_cell_volume 1440.362753
_symmetry_space_group_name_H-M "P 4/N"
_symmetry_group_IT_number 85
_symmetry_cell_setting 'tetragonal'
loop_
_space_group_symop_operation_xyz
x,y,z
1/2-y,x,z
1/2-x,1/2-y,z
y,1/2-x,z
-x,-y,-z
1/2+y,-x,-z
1/2+x,1/2+y,-z
-y,1/2+x,-z
loop_
_atom_site_type_symbol
_atom_site_label
_atom_site_fract_x
_atom_site_fract_y
_atom_site_fract_z
Si Si1 0.916049 0.887975 0.163788
Si Si2 0.691037 0.447613 0.669038
Si Si3 0.750000 0.250000 0.000000
Si Si4 0.250000 0.250000 0.914608
Si Si5 0.070878 0.124039 0.436969
Si Si6 0.250000 0.750000 0.500000
Si Si7 0.250000 0.250000 0.332122
Si Si8 0.106449 0.905282 0.961103
O O1 0.812641 0.851427 0.092979
O O2 0.924946 0.849876 0.359014
O O3 0.005756 0.862428 0.038260
O O4 0.915625 0.006253 0.165634
O O5 0.600863 0.508485 0.578005
O O6 0.801882 0.489008 0.638710
O O7 0.693508 0.336380 0.602304
O O8 0.657916 0.449304 0.867702
O O9 0.674032 0.183370 0.895665
O O10 0.168329 0.164062 0.342656
#
# Coordination Sequence:
#
# PCOD9544620 Si02
#       8
#     8   8   2   2   8   2   2   8
#     4  11  24  44  69 103 139 183 232 287 356 427
#     4  11  25  45  70 103 137 182 236 294 358 429
#     4  12  26  48  68  90 138 192 232 290 354 424
#     4  12  21  40  73  98 129 180 233 274 333 424
#     4  10  21  42  71  99 136 176 224 288 354 423
#     4  12  26  40  64  98 138 184 240 294 366 436
#     4   8  17  36  65  98 125 160 209 266 333 408
#     4  11  27  45  67  99 139 182 236 294 357 424
#
# _framework density 27.770783999999999
#
# number of rings (size 3 to 8) (size 9 to 14) (size 15 to 20)
#    0.000    1.200    0.000    6.000    0.000   11.200 
#    0.000    4.000    0.000    0.000    0.000    0.000 
#    0.000    0.000    0.000    0.000    0.000    0.000 
#
# Total GULP energy -222986.314857 kJ/mol
# GULP energy per Si atom -5574.657871 kJ/mol
# Density = 2.770758 g / cm^3
# Si number density = 27.770784 Si / 1000 Ang^3
#
#
#
# Elastic Constant Matrix: (Units=GPa)
#
#
# Indices 1 2 3 4 5 6 
#
# 1 149.3914 24.5748 21.3645 0.0000 0.0000 16.6093
# 2 24.5748 149.3914 21.3645 0.0000 0.0000 -16.6093
# 3 21.3645 21.3645 105.9097 0.0000 0.0000 0.0000
# 4 0.0000 0.0000 0.0000 -17.3958 0.0000 0.0000
# 5 0.0000 0.0000 0.0000 0.0000 -17.3958 0.0000
# 6 16.6093 -16.6093 0.0000 0.0000 0.0000 78.0877
#
#
#
# Elastic Compliance Matrix: (Units=1/GPa)
#
#
# Indices 1 2 3 4 5 6 
#
# 1 0.007270 -0.001222 -0.001220 0.000000 0.000000 -0.001806
# 2 -0.001222 0.007270 -0.001220 0.000000 0.000000 0.001806
# 3 -0.001220 -0.001220 0.009934 0.000000 0.000000 0.000000
# 4 0.000000 0.000000 0.000000 -0.057485 0.000000 0.000000
# 5 0.000000 0.000000 0.000000 0.000000 -0.057485 0.000000
# 6 -0.001806 0.001806 0.000000 0.000000 0.000000 0.013575
#
#
# Mechanical properties :
#
#
# Convention : Reuss Voigt Hill
#
# Bulk Modulus (GPa) = 58.30909 59.92225 59.11567
# Shear Modulus (GPa) = -78.27228 31.15177 -23.56025
#
# Velocity S-wave (km/s) = -5.31473 3.35288 -2.91586
# Velocity P-wave (km/s) = 4.07671 6.05090 3.16179
#
# Compressibility (1/GPa) = 0.01714998
#
# Stress axis : x y z
#
# Youngs Moduli (GPa) = 137.54780 137.54780 100.66217
#
# Poissons Ratio (x) = 0.16812 0.12281
# Poissons Ratio (y) = 0.16812 0.12281
# Poissons Ratio (z) = 0.16781 0.16781
#
# Static dielectric constant tensor:
#      x y z
#    x 2.435100 0.000000 0.000000 
#    y 0.000000 2.435100 0.000000 
#    z 0.000000 0.000000 2.221490 
# 
# From -- ./inp_files/998.got.cif
#   From: 2010.05.17/outbox.cif.g08.bks.cpg/sg85_cif.got.tgz:998.got - 2010.06.03 19:01:16.
