data_PCOD9544236
_publ_section_title
;
Structure prediction by ZEFSAII (Michael W. Deem and Ramdas Pophale) SiO2 
 PCOD9544236
Probable space group: P 42/M
;
_chemical_formula_sum "Si O2"
_cell_formula_units_Z 40
_cell_length_a 9.033984
_cell_length_b 9.033984
_cell_length_c 23.861221
_cell_angle_alpha 90.000000
_cell_angle_beta 90.000000
_cell_angle_gamma 90.000000
_cell_volume 1947.382654
_symmetry_space_group_name_H-M "P 42/M"
_symmetry_group_IT_number 84
_symmetry_cell_setting 'tetragonal'
loop_
_space_group_symop_operation_xyz
x,y,z
-y,x,1/2+z
-x,-y,z
y,-x,1/2+z
-x,-y,-z
y,-x,1/2-z
x,y,-z
-y,x,1/2-z
loop_
_atom_site_type_symbol
_atom_site_label
_atom_site_fract_x
_atom_site_fract_y
_atom_site_fract_z
Si Si1 0.667296 0.035636 0.278410
Si Si2 0.209271 0.882658 0.164418
Si Si3 0.646854 0.578984 0.065661
Si Si4 0.848716 0.301771 0.066011
Si Si5 0.162379 0.206895 0.121739
O O1 0.679482 0.069719 0.213084
O O2 0.713510 0.170268 0.317981
O O3 0.500000 0.000000 0.293263
O O4 0.785893 0.911547 0.299686
O O5 0.252873 0.785317 0.110845
O O6 0.155399 0.034600 0.135815
O O7 0.500000 0.500000 0.089468
O O8 0.789248 0.469345 0.071420
O O9 0.694429 0.736230 0.089685
O O10 0.620244 0.598572 0.000000
O O11 0.014541 0.261666 0.088051
O O12 0.836763 0.262687 0.000000
#
# Coordination Sequence:
#
# PCOD9544236 Si02
#       5
#     8   8   8   8   8
#     4  11  22  39  63  89 124 169 206 259 326 385
#     4  11  23  39  65  93 130 161 211 269 331 376
#     4  10  22  41  62  89 133 176 211 257 317 381
#     4  10  21  37  61  92 126 164 212 263 315 384
#     4  11  21  36  68  91 122 163 213 270 314 381
#
# _framework density 20.540393000000002
#
# number of rings (size 3 to 8) (size 9 to 14) (size 15 to 20)
#    0.000    1.400    2.000    6.000    0.000    5.600 
#    0.000    0.000    0.000    4.200    0.000    0.000 
#    0.000    0.000    0.000    0.000    0.000    0.000 
#
# Total GULP energy -222736.109268 kJ/mol
# GULP energy per Si atom -5568.402732 kJ/mol
# Density = 2.049364 g / cm^3
# Si number density = 20.540393 Si / 1000 Ang^3
#
#
#
# Elastic Constant Matrix: (Units=GPa)
#
#
# Indices 1 2 3 4 5 6 
#
# 1 78.2724 20.1889 21.6187 0.0000 0.0000 2.9321
# 2 20.1889 78.2724 21.6187 0.0000 0.0000 -2.9321
# 3 21.6187 21.6187 121.9395 0.0000 0.0000 0.0000
# 4 0.0000 0.0000 0.0000 17.7052 0.0000 0.0000
# 5 0.0000 0.0000 0.0000 0.0000 17.7052 0.0000
# 6 2.9321 -2.9321 0.0000 0.0000 0.0000 15.9877
#
#
#
# Elastic Compliance Matrix: (Units=1/GPa)
#
#
# Indices 1 2 3 4 5 6 
#
# 1 0.014278 -0.003264 -0.001953 0.000000 0.000000 -0.003217
# 2 -0.003264 0.014278 -0.001953 0.000000 0.000000 0.003217
# 3 -0.001953 -0.001953 0.008893 0.000000 0.000000 0.000000
# 4 0.000000 0.000000 0.000000 0.056481 0.000000 0.000000
# 5 0.000000 0.000000 0.000000 0.000000 0.056481 0.000000
# 6 -0.003217 0.003217 0.000000 0.000000 0.000000 0.063728
#
#
# Mechanical properties :
#
#
# Convention : Reuss Voigt Hill
#
# Bulk Modulus (GPa) = 43.27112 45.03744 44.15428
# Shear Modulus (GPa) = 21.17038 24.61682 22.89360
#
# Velocity S-wave (km/s) = 3.21389 3.46563 3.34213
# Velocity P-wave (km/s) = 5.90628 6.16344 6.03623
#
# Compressibility (1/GPa) = 0.02311010
#
# Stress axis : x y z
#
# Youngs Moduli (GPa) = 70.03995 70.03995 112.44606
#
# Poissons Ratio (x) = 0.22860 0.21957
# Poissons Ratio (y) = 0.22860 0.21957
# Poissons Ratio (z) = 0.13676 0.13676
#
# Static dielectric constant tensor:
#      x y z
#    x 1.787550 0.000000 0.000000 
#    y 0.000000 1.787550 0.000000 
#    z 0.000000 0.000000 1.753810 
# 
# From -- ./inp_files/4821.got.cif
#   From: 2010.05.17/outbox.cif.g08.bks.cpg/sg84_3_cif.got.tgz:4821.got - 2010.06.03 18:57:40.
