data_PCOD9544614
_publ_section_title
;
Structure prediction by ZEFSAII (Michael W. Deem and Ramdas Pophale) SiO2 
 PCOD9544614
Probable space group: P 4/N
;
_chemical_formula_sum "Si O2"
_cell_formula_units_Z 60
_cell_length_a 11.113695
_cell_length_b 11.113695
_cell_length_c 20.892968
_cell_angle_alpha 90.000000
_cell_angle_beta 90.000000
_cell_angle_gamma 90.000000
_cell_volume 2580.578574
_symmetry_space_group_name_H-M "P 4/N"
_symmetry_group_IT_number 85
_symmetry_cell_setting 'tetragonal'
loop_
_space_group_symop_operation_xyz
x,y,z
1/2-y,x,z
1/2-x,1/2-y,z
y,1/2-x,z
-x,-y,-z
1/2+y,-x,-z
1/2+x,1/2+y,-z
-y,1/2+x,-z
loop_
_atom_site_type_symbol
_atom_site_label
_atom_site_fract_x
_atom_site_fract_y
_atom_site_fract_z
Si Si1 0.160872 0.879674 0.778874
Si Si2 0.056376 0.257628 0.877382
Si Si3 0.431685 0.575807 0.592998
Si Si4 0.750000 0.250000 0.337512
Si Si5 0.580207 0.855515 0.518820
Si Si6 0.949493 0.250294 0.011205
Si Si7 0.241498 0.450637 0.155020
Si Si8 0.590010 0.867642 0.295079
O O1 0.247702 0.851944 0.718442
O O2 0.068567 0.777157 0.801161
O O3 0.228971 0.930453 0.840891
O O4 0.080387 0.988301 0.750947
O O5 0.129655 0.139550 0.859184
O O6 0.042070 0.259093 0.953326
O O7 0.359721 0.694723 0.618862
O O8 0.577921 0.571467 0.588460
O O9 0.391339 0.537235 0.521846
O O10 0.393428 0.460852 0.634770
O O11 0.593165 0.714133 0.505244
O O12 0.866621 0.135476 0.995304
O O13 0.006024 0.240636 0.081108
O O14 0.128500 0.360706 0.165375
O O15 0.593138 0.724672 0.284675
#
# Coordination Sequence:
#
# PCOD9544614 Si02
#       8
#     8   8   8   4   8   8   8   8
#     4  11  24  42  67  94 133 183 231 297 353 424
#     4  11  24  40  64 100 134 174 235 304 377 452
#     4  10  22  41  67 101 140 184 228 280 335 399
#     4  10  26  44  65 103 138 184 242 286 342 416
#     4  10  22  41  67 102 143 183 224 271 336 403
#     4  11  24  41  66 100 130 172 232 302 391 461
#     4  11  26  45  65  93 129 178 239 300 374 456
#     4  10  21  40  65  96 132 174 227 281 342 410
#
# _framework density 23.250602000000001
#
# number of rings (size 3 to 8) (size 9 to 14) (size 15 to 20)
#    0.000    1.467    1.333    2.400    3.733   10.667 
#    0.000    4.000    0.000    6.400    0.000    0.000 
#    0.000    0.000    0.000    0.000    0.000    0.000 
#
# Total GULP energy -334170.097211 kJ/mol
# GULP energy per Si atom -5569.501620 kJ/mol
# Density = 2.319768 g / cm^3
# Si number density = 23.250602 Si / 1000 Ang^3
#
#
#
# Elastic Constant Matrix: (Units=GPa)
#
#
# Indices 1 2 3 4 5 6 
#
# 1 93.0027 52.8002 31.3408 0.0000 0.0000 -0.8676
# 2 52.8002 93.0027 31.3408 0.0000 0.0000 0.8676
# 3 31.3408 31.3408 87.8414 0.0000 0.0000 0.0000
# 4 0.0000 0.0000 0.0000 33.1767 0.0000 0.0000
# 5 0.0000 0.0000 0.0000 0.0000 33.1767 0.0000
# 6 -0.8676 0.8676 0.0000 0.0000 0.0000 2.1825
#
#
#
# Elastic Compliance Matrix: (Units=1/GPa)
#
#
# Indices 1 2 3 4 5 6 
#
# 1 0.016705 -0.008604 -0.002890 0.000000 0.000000 0.010061
# 2 -0.008604 0.016705 -0.002890 0.000000 0.000000 -0.010061
# 3 -0.002890 -0.002890 0.013447 0.000000 0.000000 0.000000
# 4 0.000000 0.000000 0.000000 0.030142 0.000000 0.000000
# 5 0.000000 0.000000 0.000000 0.000000 0.030142 0.000000
# 6 0.010061 -0.010061 0.000000 0.000000 0.000000 0.466192
#
#
# Mechanical properties :
#
#
# Convention : Reuss Voigt Hill
#
# Bulk Modulus (GPa) = 55.28706 56.09002 55.68854
# Shear Modulus (GPa) = 8.22193 24.26483 16.24338
#
# Velocity S-wave (km/s) = 1.88252 3.23402 2.64601
# Velocity P-wave (km/s) = 5.34374 6.17427 5.77396
#
# Compressibility (1/GPa) = 0.01808742
#
# Stress axis : x y z
#
# Youngs Moduli (GPa) = 59.86319 59.86319 74.36784
#
# Poissons Ratio (x) = 0.51504 0.21495
# Poissons Ratio (y) = 0.51504 0.21495
# Poissons Ratio (z) = 0.17303 0.17303
#
# Static dielectric constant tensor:
#      x y z
#    x 1.956730 0.000000 0.000000 
#    y 0.000000 1.956730 0.000000 
#    z 0.000000 0.000000 1.907920 
# 
# From -- ./inp_files/2277.got.cif
#   From: 2010.05.17/outbox.cif.g08.bks.cpg/sg85_cif.got.tgz:2277.got - 2010.06.03 19:01:16.
