data_PCOD9544226
_publ_section_title
;
Structure prediction by ZEFSAII (Michael W. Deem and Ramdas Pophale) SiO2 
 PCOD9544226
Probable space group: P 42/M
;
_chemical_formula_sum "Si O2"
_cell_formula_units_Z 48
_cell_length_a 8.541254
_cell_length_b 8.541254
_cell_length_c 27.155335
_cell_angle_alpha 90.000000
_cell_angle_beta 90.000000
_cell_angle_gamma 90.000000
_cell_volume 1981.063694
_symmetry_space_group_name_H-M "P 42/M"
_symmetry_group_IT_number 84
_symmetry_cell_setting 'tetragonal'
loop_
_space_group_symop_operation_xyz
x,y,z
-y,x,1/2+z
-x,-y,z
y,-x,1/2+z
-x,-y,-z
y,-x,1/2-z
x,y,-z
-y,x,1/2-z
loop_
_atom_site_type_symbol
_atom_site_label
_atom_site_fract_x
_atom_site_fract_y
_atom_site_fract_z
Si Si1 0.276427 0.626202 0.321759
Si Si2 0.087817 0.147004 0.113246
Si Si3 0.103476 0.764763 0.237908
Si Si4 0.170702 0.651104 0.943401
Si Si5 0.028936 0.338248 0.445956
Si Si6 0.290611 0.609377 0.842972
O O1 0.217328 0.771849 0.354617
O O2 0.165956 0.631886 0.274588
O O3 0.290265 0.451124 0.343757
O O4 0.456216 0.672316 0.311209
O O5 0.981792 0.269605 0.082458
O O6 0.184035 0.049513 0.073452
O O7 0.000000 0.000000 0.140612
O O8 0.152695 0.708187 0.183254
O O9 0.922813 0.802324 0.247665
O O10 0.297970 0.789484 0.947795
O O11 0.241754 0.552648 0.897861
O O12 0.146977 0.593886 0.000000
O O13 0.958621 0.358941 0.500000
O O14 0.000000 0.500000 0.417874
#
# Coordination Sequence:
#
# PCOD9544226 Si02
#       6
#     8   8   8   8   8   8
#     4  11  25  44  68  97 137 181 223 278 339 414
#     4  10  21  36  61  91 128 173 219 282 329 399
#     4  11  26  44  72 106 136 171 220 276 341 411
#     4  10  21  38  62  92 132 179 229 282 337 398
#     4   9  17  31  54  85 122 165 217 274 332 392
#     4  11  25  46  67  98 137 183 226 276 343 409
#
# _framework density 24.229405
#
# number of rings (size 3 to 8) (size 9 to 14) (size 15 to 20)
#    0.000    1.667    0.000    3.500    7.000    8.000 
#    0.000    5.000    0.000    0.000    0.000    0.000 
#    0.000    0.000    0.000    0.000    0.000    0.000 
#
# Total GULP energy -267825.118240 kJ/mol
# GULP energy per Si atom -5579.689963 kJ/mol
# Density = 2.417426 g / cm^3
# Si number density = 24.229405 Si / 1000 Ang^3
#
#
#
# Elastic Constant Matrix: (Units=GPa)
#
#
# Indices 1 2 3 4 5 6 
#
# 1 55.6355 -1.0082 8.4743 0.0000 0.0000 4.0565
# 2 -1.0082 55.6355 8.4743 0.0000 0.0000 -4.0565
# 3 8.4743 8.4743 114.6802 0.0000 0.0000 0.0000
# 4 0.0000 0.0000 0.0000 10.6744 0.0000 0.0000
# 5 0.0000 0.0000 0.0000 0.0000 10.6744 0.0000
# 6 4.0565 -4.0565 0.0000 0.0000 0.0000 39.2651
#
#
#
# Elastic Compliance Matrix: (Units=1/GPa)
#
#
# Indices 1 2 3 4 5 6 
#
# 1 0.018327 0.000408 -0.001384 0.000000 0.000000 -0.001851
# 2 0.000408 0.018327 -0.001384 0.000000 0.000000 0.001851
# 3 -0.001384 -0.001384 0.008925 0.000000 0.000000 0.000000
# 4 0.000000 0.000000 0.000000 0.093682 0.000000 0.000000
# 5 0.000000 0.000000 0.000000 0.000000 0.093682 0.000000
# 6 -0.001851 0.001851 0.000000 0.000000 0.000000 0.025850
#
#
# Mechanical properties :
#
#
# Convention : Reuss Voigt Hill
#
# Bulk Modulus (GPa) = 24.47529 28.64798 26.56163
# Shear Modulus (GPa) = 18.04177 26.12350 22.08264
#
# Velocity S-wave (km/s) = 2.73174 3.28712 3.02221
# Velocity P-wave (km/s) = 4.48032 5.12408 4.81297
#
# Compressibility (1/GPa) = 0.04085754
#
# Stress axis : x y z
#
# Youngs Moduli (GPa) = 54.56313 54.56313 112.05103
#
# Poissons Ratio (x) = -0.02226 0.15513
# Poissons Ratio (y) = -0.02226 0.15513
# Poissons Ratio (z) = 0.07554 0.07554
#
# Static dielectric constant tensor:
#      x y z
#    x 1.974320 0.000000 0.000000 
#    y 0.000000 1.974320 0.000000 
#    z 0.000000 0.000000 2.032490 
# 
# From -- ./inp_files/5751.got.cif
#   From: 2010.05.17/outbox.cif.g08.bks.cpg/sg84_3_cif.got.tgz:5751.got - 2010.06.03 18:57:40.
