data_PCOD9544321
_publ_section_title
;
Structure prediction by ZEFSAII (Michael W. Deem and Ramdas Pophale) SiO2 
 PCOD9544321
Probable space group: P 42/M
;
_chemical_formula_sum "Si O2"
_cell_formula_units_Z 40
_cell_length_a 8.543164
_cell_length_b 8.543164
_cell_length_c 26.051719
_cell_angle_alpha 90.000000
_cell_angle_beta 90.000000
_cell_angle_gamma 90.000000
_cell_volume 1901.401674
_symmetry_space_group_name_H-M "P 42/M"
_symmetry_group_IT_number 84
_symmetry_cell_setting 'tetragonal'
loop_
_space_group_symop_operation_xyz
x,y,z
-y,x,1/2+z
-x,-y,z
y,-x,1/2+z
-x,-y,-z
y,-x,1/2-z
x,y,-z
-y,x,1/2-z
loop_
_atom_site_type_symbol
_atom_site_label
_atom_site_fract_x
_atom_site_fract_y
_atom_site_fract_z
Si Si1 0.837566 0.055146 0.610678
Si Si2 0.585498 0.837700 0.136208
Si Si3 0.255336 0.486539 0.000000
Si Si4 0.500000 0.500000 0.409042
Si Si5 0.001670 0.757158 0.000000
Si Si6 0.000000 0.500000 0.162128
Si Si7 0.752591 0.455875 0.250235
O O1 0.840565 0.242399 0.612189
O O2 0.841806 0.982472 0.553891
O O3 0.664409 0.010834 0.631952
O O4 0.000000 0.000000 0.637739
O O5 0.511849 0.666025 0.121445
O O6 0.597218 0.840291 0.198289
O O7 0.500000 0.000000 0.120389
O O8 0.354550 0.504739 0.948251
O O9 0.170245 0.320310 0.000000
O O10 0.125676 0.618667 0.000000
O O11 0.854127 0.483382 0.200142
O O12 0.619431 0.330929 0.237879
#
# Coordination Sequence:
#
# PCOD9544321 Si02
#       7
#     8   8   4   4   4   4   8
#     4  12  29  48  73 108 145 191 239 301 367 435
#     4  12  27  45  72 107 144 191 245 293 359 437
#     4  10  22  42  74 103 137 191 241 302 361 435
#     4  11  24  46  71 102 146 188 243 303 360 420
#     4  11  23  46  73 103 144 183 245 293 370 440
#     4  12  26  47  74 104 148 191 240 300 366 430
#     4  11  24  44  71 102 139 187 239 292 352 427
#
# _framework density 21.037113000000002
#
# number of rings (size 3 to 8) (size 9 to 14) (size 15 to 20)
#    0.000    0.600    5.000    2.700    5.600    0.000 
#    0.000    2.500    0.000    0.000    0.000    0.000 
#    0.000    0.000    0.000    0.000    0.000    0.000 
#
# Total GULP energy -223335.382794 kJ/mol
# GULP energy per Si atom -5583.384570 kJ/mol
# Density = 2.098923 g / cm^3
# Si number density = 21.037113 Si / 1000 Ang^3
#
#
#
# Elastic Constant Matrix: (Units=GPa)
#
#
# Indices 1 2 3 4 5 6 
#
# 1 119.0461 37.8247 24.0296 0.0000 0.0000 2.9184
# 2 37.8247 119.0461 24.0296 0.0000 0.0000 -2.9184
# 3 24.0296 24.0296 92.0251 0.0000 0.0000 0.0000
# 4 0.0000 0.0000 0.0000 479.8757 0.0000 0.0000
# 5 0.0000 0.0000 0.0000 0.0000 479.8757 0.0000
# 6 2.9184 -2.9184 0.0000 0.0000 0.0000 41.7659
#
#
#
# Elastic Compliance Matrix: (Units=1/GPa)
#
#
# Indices 1 2 3 4 5 6 
#
# 1 0.009652 -0.002723 -0.001809 0.000000 0.000000 -0.000865
# 2 -0.002723 0.009652 -0.001809 0.000000 0.000000 0.000865
# 3 -0.001809 -0.001809 0.011811 0.000000 0.000000 0.000000
# 4 0.000000 0.000000 0.000000 0.002084 0.000000 0.000000
# 5 0.000000 0.000000 0.000000 0.000000 0.002084 0.000000
# 6 -0.000865 0.000865 0.000000 0.000000 0.000000 0.024064
#
#
# Mechanical properties :
#
#
# Convention : Reuss Voigt Hill
#
# Bulk Modulus (GPa) = 54.25274 55.76503 55.00889
# Shear Modulus (GPa) = 63.96097 216.58567 140.27332
#
# Velocity S-wave (km/s) = 5.51995 10.15764 8.17458
# Velocity P-wave (km/s) = 8.15301 12.81154 10.73795
#
# Compressibility (1/GPa) = 0.01843225
#
# Stress axis : x y z
#
# Youngs Moduli (GPa) = 103.61007 103.61007 84.66330
#
# Poissons Ratio (x) = 0.28209 0.15318
# Poissons Ratio (y) = 0.28209 0.15318
# Poissons Ratio (z) = 0.18746 0.18746
#
# Static dielectric constant tensor:
#      x y z
#    x 1.828240 0.000000 0.000000 
#    y 0.000000 1.828240 0.000000 
#    z 0.000000 0.000000 1.765490 
# 
# From -- ./inp_files/5419.got.cif
#   From: 2010.05.17/outbox.cif.g08.bks.cpg/sg84_3_cif.got.tgz:5419.got - 2010.06.03 18:57:40.
