data_PCOD9544478
_publ_section_title
;
Structure prediction by ZEFSAII (Michael W. Deem and Ramdas Pophale) SiO2 
 PCOD9544478
Probable space group: P 42/M
;
_chemical_formula_sum "Si O2"
_cell_formula_units_Z 40
_cell_length_a 15.000000
_cell_length_b 15.000000
_cell_length_c 9.000000
_cell_angle_alpha 90.000000
_cell_angle_beta 90.000000
_cell_angle_gamma 90.000000
_cell_volume 2025.000000
_symmetry_space_group_name_H-M "P 42/M"
_symmetry_group_IT_number 84
_symmetry_cell_setting 'tetragonal'
loop_
_space_group_symop_operation_xyz
x,y,z
-y,x,1/2+z
-x,-y,z
y,-x,1/2+z
-x,-y,-z
y,-x,1/2-z
x,y,-z
-y,x,1/2-z
loop_
_atom_site_type_symbol
_atom_site_label
_atom_site_fract_x
_atom_site_fract_y
_atom_site_fract_z
Si Si1 0.758362 0.056762 0.173646
Si Si2 0.534550 0.262246 0.671685
Si Si3 0.704509 0.339449 0.175777
Si Si4 0.852469 0.221350 0.322686
Si Si5 0.906200 0.548417 0.333637
O O1 0.812305 0.127977 0.268314
O O2 0.653874 0.079506 0.180550
O O3 0.770963 0.955234 0.223533
O O4 0.785268 0.063984 0.000000
O O5 0.556378 0.277208 0.500000
O O6 0.443083 0.310674 0.711200
O O7 0.617708 0.287660 0.771386
O O8 0.516002 0.159179 0.706235
O O9 0.790297 0.298075 0.254999
O O10 0.717004 0.330809 0.000000
O O11 0.849039 0.228247 0.500000
O O12 0.869048 0.529919 0.500000
O O13 0.000000 0.500000 0.324603
#
# Coordination Sequence:
#
# PCOD9544478 Si02
#       5
#     8   8   8   8   8
#     4  10  22  39  60  89 125 165 207 255 311 367
#     4  11  24  40  62  92 123 162 209 256 310 370
#     4  11  24  42  63  90 127 165 204 259 316 370
#     4  11  23  40  64  92 124 165 211 257 309 374
#     4  10  20  37  62  90 122 162 205 253 311 368
#
# _framework density 19.753086
#
# number of rings (size 3 to 8) (size 9 to 14) (size 15 to 20)
#    0.000    1.400    2.000    3.000    0.000    7.600 
#    0.000    4.000    0.000    0.000    0.000    0.000 
#    0.000    0.000    0.000    0.000    0.000    0.000 
#
# Total GULP energy -223443.488573 kJ/mol
# GULP energy per Si atom -5586.087214 kJ/mol
# Density = 1.970813 g / cm^3
# Si number density = 19.753086 Si / 1000 Ang^3
#
#
#
# Elastic Constant Matrix: (Units=GPa)
#
#
# Indices 1 2 3 4 5 6 
#
# 1 42.9010 15.9092 13.3504 0.0000 0.0000 1.2179
# 2 15.9092 42.9010 13.3504 0.0000 0.0000 -1.2179
# 3 13.3504 13.3504 -0.5463 0.0000 0.0000 0.0000
# 4 0.0000 0.0000 0.0000 98.1012 0.0000 0.0000
# 5 0.0000 0.0000 0.0000 0.0000 98.1012 0.0000
# 6 1.2179 -1.2179 0.0000 0.0000 0.0000 25.0435
#
#
#
# Elastic Compliance Matrix: (Units=1/GPa)
#
#
# Indices 1 2 3 4 5 6 
#
# 1 0.019309 -0.017903 0.034355 0.000000 0.000000 -0.001810
# 2 -0.017903 0.019309 0.034355 0.000000 0.000000 0.001810
# 3 0.034355 0.034355 -0.151340 0.000000 0.000000 0.000000
# 4 0.000000 0.000000 0.000000 0.010194 0.000000 0.000000
# 5 0.000000 0.000000 0.000000 0.000000 0.010194 0.000000
# 6 -0.001810 0.001810 0.000000 0.000000 0.000000 0.040107
#
#
# Mechanical properties :
#
#
# Convention : Reuss Voigt Hill
#
# Bulk Modulus (GPa) = -90.03724 18.94176 -35.54774
# Shear Modulus (GPa) = -31.73649 47.09222 7.67786
#
# Velocity S-wave (km/s) = -4.01266 4.88796 1.97367
# Velocity P-wave (km/s) = 8.19445 6.43944 3.58348
#
# Compressibility (1/GPa) = -0.01110652
#
# Stress axis : x y z
#
# Youngs Moduli (GPa) = 51.78996 51.78996 -6.60763
#
# Poissons Ratio (x) = 0.92719 0.22701
# Poissons Ratio (y) = 0.92719 0.22701
# Poissons Ratio (z) = -1.77927 -1.77927
#
# Static dielectric constant tensor:
#      x y z
#    x 1.726390 0.000000 0.000000 
#    y 0.000000 1.726390 0.000000 
#    z 0.000000 0.000000 1.682230 
# 
# From -- ./inp_files/735.got.cif
#   From: 2010.05.17/outbox.ucp.g08.bks.cvg/sg84_1_cif.got.tgz:735.got - 2010.06.11 10:34:57.
