data_PCOD9544424
_publ_section_title
;
Structure prediction by ZEFSAII (Michael W. Deem and Ramdas Pophale) SiO2 
 PCOD9544424
Probable space group: P 42/M
;
_chemical_formula_sum "Si O2"
_cell_formula_units_Z 48
_cell_length_a 8.227779
_cell_length_b 8.227779
_cell_length_c 31.721730
_cell_angle_alpha 90.000000
_cell_angle_beta 90.000000
_cell_angle_gamma 90.000000
_cell_volume 2147.445250
_symmetry_space_group_name_H-M "P 42/M"
_symmetry_group_IT_number 84
_symmetry_cell_setting 'tetragonal'
loop_
_space_group_symop_operation_xyz
x,y,z
-y,x,1/2+z
-x,-y,z
y,-x,1/2+z
-x,-y,-z
y,-x,1/2-z
x,y,-z
-y,x,1/2-z
loop_
_atom_site_type_symbol
_atom_site_label
_atom_site_fract_x
_atom_site_fract_y
_atom_site_fract_z
Si Si1 0.825014 0.788076 0.747234
Si Si2 0.839793 0.906300 0.607950
Si Si3 0.626947 0.373457 0.393032
Si Si4 0.628062 0.129671 0.671707
Si Si5 0.186087 0.543895 0.953722
Si Si6 0.398398 0.847822 0.835186
O O1 0.771288 0.710335 0.791005
O O2 0.770082 0.686534 0.706409
O O3 0.022064 0.782549 0.752420
O O4 0.707223 0.828004 0.575677
O O5 0.899663 0.756039 0.636639
O O6 0.750717 0.032547 0.640513
O O7 0.000000 0.000000 0.590584
O O8 0.500000 0.500000 0.410321
O O9 0.542119 0.260130 0.358006
O O10 0.625040 0.256046 0.433105
O O11 0.757899 0.476358 0.367180
O O12 0.500000 0.000000 0.687938
O O13 0.000000 0.500000 0.958233
O O14 0.258204 0.577410 0.000000
O O15 0.500000 0.000000 0.818745
#
# Coordination Sequence:
#
# PCOD9544424 Si02
#       6
#     8   8   8   8   8   8
#     4  11  23  40  64  95 131 179 241 292 332 395
#     4  12  22  43  71  95 135 182 228 281 344 424
#     4  12  23  44  66  98 138 174 219 281 356 418
#     4  12  22  41  68  93 131 185 231 274 341 417
#     4  11  24  46  77 105 130 176 233 285 351 438
#     4  12  25  41  64 103 135 183 232 288 349 405
#
# _framework density 22.352142000000001
#
# number of rings (size 3 to 8) (size 9 to 14) (size 15 to 20)
#    0.000    0.333    6.667    3.500    0.000    0.667 
#    0.000    0.000    0.000    1.000    0.000    0.000 
#    0.000    0.000    0.000    0.000    0.000    0.000 
#
# Total GULP energy -267342.916635 kJ/mol
# GULP energy per Si atom -5569.644097 kJ/mol
# Density = 2.230127 g / cm^3
# Si number density = 22.352142 Si / 1000 Ang^3
#
#
#
# Elastic Constant Matrix: (Units=GPa)
#
#
# Indices 1 2 3 4 5 6 
#
# 1 69.5724 7.4597 25.2215 0.0000 0.0000 3.5758
# 2 7.4597 69.5724 25.2215 0.0000 0.0000 -3.5758
# 3 25.2215 25.2215 115.7336 0.0000 0.0000 0.0000
# 4 0.0000 0.0000 0.0000 867.0581 0.0000 0.0000
# 5 0.0000 0.0000 0.0000 0.0000 867.0581 0.0000
# 6 3.5758 -3.5758 0.0000 0.0000 0.0000 37.1204
#
#
#
# Elastic Compliance Matrix: (Units=1/GPa)
#
#
# Indices 1 2 3 4 5 6 
#
# 1 0.015711 -0.000569 -0.003300 0.000000 0.000000 -0.001568
# 2 -0.000569 0.015711 -0.003300 0.000000 0.000000 0.001568
# 3 -0.003300 -0.003300 0.010079 0.000000 0.000000 0.000000
# 4 0.000000 0.000000 0.000000 0.001153 0.000000 0.000000
# 5 0.000000 0.000000 0.000000 0.000000 0.001153 0.000000
# 6 -0.001568 0.001568 0.000000 0.000000 0.000000 0.027241
#
#
# Mechanical properties :
#
#
# Convention : Reuss Voigt Hill
#
# Bulk Modulus (GPa) = 36.81343 41.18711 39.00027
# Shear Modulus (GPa) = 52.94244 367.37903 210.16073
#
# Velocity S-wave (km/s) = 4.87207 12.83419 9.70705
# Velocity P-wave (km/s) = 6.93937 15.43011 11.96335
#
# Compressibility (1/GPa) = 0.02716400
#
# Stress axis : x y z
#
# Youngs Moduli (GPa) = 63.64793 63.64793 99.21776
#
# Poissons Ratio (x) = 0.03621 0.32742
# Poissons Ratio (y) = 0.03621 0.32742
# Poissons Ratio (z) = 0.21004 0.21004
#
# Static dielectric constant tensor:
#      x y z
#    x 2.014390 0.000000 0.000000 
#    y 0.000000 2.014390 0.000000 
#    z 0.000000 0.000000 1.864310 
# 
# From -- ./inp_files/5808.got.cif
#   From: 2010.05.17/outbox.cif.g08.bks.cpg/sg84_3_cif.got.tgz:5808.got - 2010.06.03 18:57:40.
