data_PCOD9544160
_publ_section_title
;
Structure prediction by ZEFSAII (Michael W. Deem and Ramdas Pophale) SiO2 
 PCOD9544160
Probable space group: P 42/M
;
_chemical_formula_sum "Si O2"
_cell_formula_units_Z 48
_cell_length_a 11.992859
_cell_length_b 11.992859
_cell_length_c 17.041303
_cell_angle_alpha 90.000000
_cell_angle_beta 90.000000
_cell_angle_gamma 90.000000
_cell_volume 2451.027894
_symmetry_space_group_name_H-M "P 42/M"
_symmetry_group_IT_number 84
_symmetry_cell_setting 'tetragonal'
loop_
_space_group_symop_operation_xyz
x,y,z
-y,x,1/2+z
-x,-y,z
y,-x,1/2+z
-x,-y,-z
y,-x,1/2-z
x,y,-z
-y,x,1/2-z
loop_
_atom_site_type_symbol
_atom_site_label
_atom_site_fract_x
_atom_site_fract_y
_atom_site_fract_z
Si Si1 0.995157 0.366740 0.823028
Si Si2 0.572678 0.157699 0.913395
Si Si3 0.317690 0.254195 0.331182
Si Si4 0.724430 0.237354 0.349420
Si Si5 0.482354 0.632166 0.408915
Si Si6 0.067146 0.646821 0.643645
O O1 0.876798 0.318909 0.853247
O O2 0.986622 0.343600 0.729545
O O3 0.000000 0.500000 0.834934
O O4 0.110022 0.315558 0.854185
O O5 0.665951 0.240390 0.882788
O O6 0.465262 0.143260 0.857867
O O7 0.625546 0.034599 0.913740
O O8 0.534432 0.190714 0.000000
O O9 0.277440 0.269971 0.241716
O O10 0.440958 0.300484 0.347931
O O11 0.640852 0.320228 0.394273
O O12 0.850848 0.254070 0.377753
O O13 0.500000 0.500000 0.395705
O O14 0.513818 0.654120 0.500000
#
# Coordination Sequence:
#
# PCOD9544160 Si02
#       6
#     8   8   8   8   8   8
#     4  11  19  39  61  88 119 156 211 252 286 363
#     4  11  21  38  63  91 124 157 197 256 317 366
#     4  11  23  37  63  88 122 163 204 249 304 363
#     4  11  23  38  64  88 120 165 204 253 297 364
#     4  11  25  39  57  92 130 157 196 252 307 366
#     4  10  20  36  62  91 120 151 206 251 309 362
#
# _framework density 19.583621999999998
#
# number of rings (size 3 to 8) (size 9 to 14) (size 15 to 20)
#    0.000    1.167    5.000    2.500    4.667    2.667 
#    0.000    3.333    0.000    1.000    0.000    0.000 
#    0.000    0.000    0.000    0.000    0.000    0.000 
#
# Total GULP energy -267959.203840 kJ/mol
# GULP energy per Si atom -5582.483413 kJ/mol
# Density = 1.953905 g / cm^3
# Si number density = 19.583622 Si / 1000 Ang^3
#
#
#
# Elastic Constant Matrix: (Units=GPa)
#
#
# Indices 1 2 3 4 5 6 
#
# 1 59.3186 17.8871 -7.0696 0.0000 0.0000 -4.3248
# 2 17.8871 59.3186 -7.0696 0.0000 0.0000 4.3248
# 3 -7.0696 -7.0696 14.2181 0.0000 0.0000 0.0000
# 4 0.0000 0.0000 0.0000 4.3993 0.0000 0.0000
# 5 0.0000 0.0000 0.0000 0.0000 4.3993 0.0000
# 6 -4.3248 4.3248 0.0000 0.0000 0.0000 36.9000
#
#
#
# Elastic Compliance Matrix: (Units=1/GPa)
#
#
# Indices 1 2 3 4 5 6 
#
# 1 0.019496 -0.005246 0.007086 0.000000 0.000000 0.002900
# 2 -0.005246 0.019496 0.007086 0.000000 0.000000 -0.002900
# 3 0.007086 0.007086 0.077379 0.000000 0.000000 0.000000
# 4 0.000000 0.000000 0.000000 0.227309 0.000000 0.000000
# 5 0.000000 0.000000 0.000000 0.000000 0.227309 0.000000
# 6 0.002900 -0.002900 0.000000 0.000000 0.000000 0.027780
#
#
# Mechanical properties :
#
#
# Convention : Reuss Voigt Hill
#
# Bulk Modulus (GPa) = 7.45039 15.59456 11.52247
# Shear Modulus (GPa) = 7.99159 17.74688 12.86923
#
# Velocity S-wave (km/s) = 2.02228 3.01360 2.56626
# Velocity P-wave (km/s) = 3.04392 4.48212 3.83111
#
# Compressibility (1/GPa) = 0.13422118
#
# Stress axis : x y z
#
# Youngs Moduli (GPa) = 51.29304 51.29304 12.92339
#
# Poissons Ratio (x) = 0.26907 -0.09157
# Poissons Ratio (y) = 0.26907 -0.09157
# Poissons Ratio (z) = -0.36344 -0.36344
#
# Static dielectric constant tensor:
#      x y z
#    x 1.701200 0.000000 0.000000 
#    y 0.000000 1.701200 0.000000 
#    z 0.000000 0.000000 1.687820 
# 
# From -- ./inp_files/3715.got.cif
#   From: 2010.05.17/outbox.cif.g08.bks.cpg/sg84_2_cif.got.tgz:3715.got - 2010.06.03 18:57:40.
