data_PCOD9544891
_publ_section_title
;
Structure prediction by ZEFSAII (Michael W. Deem and Ramdas Pophale) SiO2 
 PCOD9544891
Probable space group: P 42/N
;
_chemical_formula_sum "Si O2"
_cell_formula_units_Z 40
_cell_length_a 10.471699
_cell_length_b 10.471699
_cell_length_c 14.712115
_cell_angle_alpha 90.000000
_cell_angle_beta 90.000000
_cell_angle_gamma 90.000000
_cell_volume 1613.278743
_symmetry_space_group_name_H-M "P 42/N"
_symmetry_group_IT_number 86
_space_group.IT_coordinate_system_code '2'
_symmetry_cell_setting 'tetragonal'
loop_
_space_group_symop_operation_xyz
x,y,z
-y,1/2+x,1/2+z
1/2-x,1/2-y,z
1/2+y,-x,1/2+z
-x,-y,-z
y,1/2-x,1/2-z
1/2+x,1/2+y,-z
1/2-y,x,1/2-z
loop_
_atom_site_type_symbol
_atom_site_label
_atom_site_fract_x
_atom_site_fract_y
_atom_site_fract_z
Si Si1 0.928173 0.856756 0.222439
Si Si2 0.628061 0.085654 0.013067
Si Si3 0.976226 0.763416 0.639436
Si Si4 0.835537 0.013950 0.671826
Si Si5 0.831325 0.880321 0.031866
O O1 0.916745 0.706549 0.244879
O O2 0.934859 0.871429 0.112013
O O3 0.040607 0.924500 0.278037
O O4 0.594093 0.196886 0.081970
O O5 0.733074 0.993441 0.057826
O O6 0.500000 0.000000 0.000000
O O7 0.684752 0.101212 0.913366
O O8 0.919130 0.650089 0.575164
O O9 0.004487 0.756728 0.744575
O O10 0.869361 0.873402 0.636626
O O11 0.750000 0.750000 0.036657
#
# Coordination Sequence:
#
# PCOD9544891 Si02
#       5
#     8   8   8   8   8
#     4  11  19  35  62  86 104 154 206 246 290 345
#     4   8  17  34  52  77 117 150 184 237 299 357
#     4   9  23  33  57  89 117 162 188 248 312 352
#     4  11  20  37  59  85 121 151 203 241 299 371
#     4  10  18  33  56  86 113 139 200 255 290 340
#
# _framework density 24.794226999999999
#
# number of rings (size 3 to 8) (size 9 to 14) (size 15 to 20)
#    1.200    1.000    4.000    0.000    2.800    0.800 
#    0.000    1.000    0.000    2.400    0.000    0.000 
#    0.000    0.000    0.000    0.000    0.000    0.000 
#
# Total GULP energy -222722.240395 kJ/mol
# GULP energy per Si atom -5568.056010 kJ/mol
# Density = 2.473779 g / cm^3
# Si number density = 24.794227 Si / 1000 Ang^3
#
#
#
# Elastic Constant Matrix: (Units=GPa)
#
#
# Indices 1 2 3 4 5 6 
#
# 1 16.5335 10.1921 -4.7234 0.0000 0.0000 -1.8968
# 2 10.1921 16.5335 -4.7234 0.0000 0.0000 1.8968
# 3 -4.7234 -4.7234 180.8732 0.0000 0.0000 0.0000
# 4 0.0000 0.0000 0.0000 23.4197 0.0000 0.0000
# 5 0.0000 0.0000 0.0000 0.0000 23.4197 0.0000
# 6 -1.8968 1.8968 0.0000 0.0000 0.0000 17.0484
#
#
#
# Elastic Compliance Matrix: (Units=1/GPa)
#
#
# Indices 1 2 3 4 5 6 
#
# 1 0.103353 -0.065587 0.000986 0.000000 0.000000 0.018796
# 2 -0.065587 0.103353 0.000986 0.000000 0.000000 -0.018796
# 3 0.000986 0.000986 0.005580 0.000000 0.000000 0.000000
# 4 0.000000 0.000000 0.000000 0.042699 0.000000 0.000000
# 5 0.000000 0.000000 0.000000 0.000000 0.042699 0.000000
# 6 0.018796 -0.018796 0.000000 0.000000 0.000000 0.062839
#
#
# Mechanical properties :
#
#
# Convention : Reuss Voigt Hill
#
# Bulk Modulus (GPa) = 11.75683 23.93677 17.84680
# Shear Modulus (GPa) = 9.68796 26.99055 18.33926
#
# Velocity S-wave (km/s) = 1.97885 3.30295 2.72262
# Velocity P-wave (km/s) = 3.15803 4.92149 4.13487
#
# Compressibility (1/GPa) = 0.08505697
#
# Stress axis : x y z
#
# Youngs Moduli (GPa) = 9.67560 9.67560 179.20365
#
# Poissons Ratio (x) = 0.63459 -0.17674
# Poissons Ratio (y) = 0.63459 -0.17674
# Poissons Ratio (z) = -0.00954 -0.00954
#
# Static dielectric constant tensor:
#      x y z
#    x 1.870290 0.000000 0.000000 
#    y 0.000000 1.870290 0.000000 
#    z 0.000000 0.000000 2.090360 
# 
# From -- ./inp_files/2920.got.cif
#   From: 2010.05.17/outbox.cif.g08.bks.cpg/sg86_2_cif.got.tgz:2920.got - 2010.06.03 19:03:11.
