data_PCOD9544373
_publ_section_title
;
Structure prediction by ZEFSAII (Michael W. Deem and Ramdas Pophale) SiO2 
 PCOD9544373
Probable space group: P 42/M
;
_chemical_formula_sum "Si O2"
_cell_formula_units_Z 48
_cell_length_a 8.351729
_cell_length_b 8.351729
_cell_length_c 30.849066
_cell_angle_alpha 90.000000
_cell_angle_beta 90.000000
_cell_angle_gamma 90.000000
_cell_volume 2151.764842
_symmetry_space_group_name_H-M "P 42/M"
_symmetry_group_IT_number 84
_symmetry_cell_setting 'tetragonal'
loop_
_space_group_symop_operation_xyz
x,y,z
-y,x,1/2+z
-x,-y,z
y,-x,1/2+z
-x,-y,-z
y,-x,1/2-z
x,y,-z
-y,x,1/2-z
loop_
_atom_site_type_symbol
_atom_site_label
_atom_site_fract_x
_atom_site_fract_y
_atom_site_fract_z
Si Si1 0.141941 0.222058 0.820701
Si Si2 0.243120 0.382863 0.500000
Si Si3 0.390767 0.756470 0.904850
Si Si4 0.679630 0.444210 0.178837
Si Si5 0.252471 0.105793 0.000000
Si Si6 0.116879 0.748181 0.593718
Si Si7 0.097504 0.663966 0.753263
O O1 0.202904 0.404307 0.825682
O O2 0.128061 0.152211 0.868299
O O3 0.274579 0.121851 0.794819
O O4 0.996348 0.223631 0.787162
O O5 0.321635 0.363250 0.452635
O O6 0.174288 0.565158 0.500000
O O7 0.086195 0.270603 0.500000
O O8 0.318294 0.661096 0.864639
O O9 0.583453 0.780736 0.899036
O O10 0.314042 0.933913 0.905845
O O11 0.500000 0.500000 0.184042
O O12 0.733595 0.355779 0.222593
O O13 0.182320 0.154340 0.953851
O O14 0.000000 0.500000 0.751119
#
# Coordination Sequence:
#
# PCOD9544373 Si02
#       7
#     8   4   8   8   4   8   8
#     4  11  24  41  60  81 119 154 198 245 301 353
#     4   7  12  26  48  82 125 150 182 247 287 340
#     4   9  17  31  56  89 119 154 198 238 296 348
#     4  11  23  38  60  84 112 153 197 245 300 355
#     4   7  12  26  49  85 116 154 189 228 296 341
#     4   9  17  31  58  86 121 153 192 244 287 353
#     4  10  27  43  59  86 118 155 200 252 301 360
#
# _framework density 22.307272000000001
#
# number of rings (size 3 to 8) (size 9 to 14) (size 15 to 20)
#    0.000    2.500    1.667    2.000    9.333    0.333 
#    0.000    1.250    0.000    1.000    0.000    7.000 
#    0.000    0.000    0.000    0.000    0.000    0.000 
#
# Total GULP energy -268092.880110 kJ/mol
# GULP energy per Si atom -5585.268336 kJ/mol
# Density = 2.225650 g / cm^3
# Si number density = 22.307272 Si / 1000 Ang^3
#
#
#
# Elastic Constant Matrix: (Units=GPa)
#
#
# Indices 1 2 3 4 5 6 
#
# 1 24.4261 5.6662 20.8787 0.0000 0.0000 -4.5453
# 2 5.6662 24.4261 20.8787 0.0000 0.0000 4.5453
# 3 20.8787 20.8787 171.6528 0.0000 0.0000 0.0000
# 4 0.0000 0.0000 0.0000 38.6433 0.0000 0.0000
# 5 0.0000 0.0000 0.0000 0.0000 38.6433 0.0000
# 6 -4.5453 4.5453 0.0000 0.0000 0.0000 17.4286
#
#
#
# Elastic Compliance Matrix: (Units=1/GPa)
#
#
# Indices 1 2 3 4 5 6 
#
# 1 0.050498 -0.010519 -0.004863 0.000000 0.000000 0.015913
# 2 -0.010519 0.050498 -0.004863 0.000000 0.000000 -0.015913
# 3 -0.004863 -0.004863 0.007009 0.000000 0.000000 0.000000
# 4 0.000000 0.000000 0.000000 0.025878 0.000000 0.000000
# 5 0.000000 0.000000 0.000000 0.000000 0.025878 0.000000
# 6 0.015913 -0.015913 0.000000 0.000000 0.000000 0.065677
#
#
# Mechanical properties :
#
#
# Convention : Reuss Voigt Hill
#
# Bulk Modulus (GPa) = 14.81145 35.03915 24.92530
# Shear Modulus (GPa) = 17.33527 30.48179 23.90853
#
# Velocity S-wave (km/s) = 2.79070 3.70056 3.27736
# Velocity P-wave (km/s) = 4.12773 5.83099 5.05167
#
# Compressibility (1/GPa) = 0.06751535
#
# Stress axis : x y z
#
# Youngs Moduli (GPa) = 19.80296 19.80296 142.68055
#
# Poissons Ratio (x) = 0.20830 0.69382
# Poissons Ratio (y) = 0.20830 0.69382
# Poissons Ratio (z) = 0.09630 0.09630
#
# Static dielectric constant tensor:
#      x y z
#    x 1.850280 0.000000 0.000000 
#    y 0.000000 1.850280 0.000000 
#    z 0.000000 0.000000 1.839570 
# 
# From -- ./inp_files/5864.got.cif
#   From: 2010.05.17/outbox.cif.g08.bks.cpg/sg84_3_cif.got.tgz:5864.got - 2010.06.03 18:57:40.
