data_PCOD9544458
_publ_section_title
;
Structure prediction by ZEFSAII (Michael W. Deem and Ramdas Pophale) SiO2 
 PCOD9544458
Probable space group: P 42/M
;
_chemical_formula_sum "Si O2"
_cell_formula_units_Z 38
_cell_length_a 12.160526
_cell_length_b 12.160526
_cell_length_c 13.145529
_cell_angle_alpha 90.000000
_cell_angle_beta 90.000000
_cell_angle_gamma 90.000000
_cell_volume 1943.939698
_symmetry_space_group_name_H-M "P 42/M"
_symmetry_group_IT_number 84
_symmetry_cell_setting 'tetragonal'
loop_
_space_group_symop_operation_xyz
x,y,z
-y,x,1/2+z
-x,-y,z
y,-x,1/2+z
-x,-y,-z
y,-x,1/2-z
x,y,-z
-y,x,1/2-z
loop_
_atom_site_type_symbol
_atom_site_label
_atom_site_fract_x
_atom_site_fract_y
_atom_site_fract_z
Si Si1 0.500000 0.500000 0.750000
Si Si2 0.475196 0.368682 0.000000
Si Si3 0.873399 0.711205 0.220016
Si Si4 0.733784 0.504326 0.715302
Si Si5 0.433050 0.115496 0.500000
Si Si6 0.782540 0.664917 0.000000
Si Si7 0.130413 0.696636 0.209587
O O1 0.626564 0.511993 0.789457
O O2 0.500000 0.500000 0.000000
O O3 0.522601 0.317807 0.896016
O O4 0.348651 0.327944 0.000000
O O5 0.819226 0.598016 0.257581
O O6 0.812541 0.809203 0.278650
O O7 0.003022 0.706990 0.238385
O O8 0.840795 0.714588 0.100282
O O9 0.796123 0.388913 0.725115
O O10 0.533527 0.199288 0.500000
O O11 0.357925 0.129039 0.598327
O O12 0.500000 0.000000 0.500000
#
# Coordination Sequence:
#
# PCOD9544458 Si02
#       7
#     2   4   8   8   4   4   8
#     4  12  20  38  64  96 132 170 208 282 344 404
#     4  12  26  38  63 103 144 178 211 272 361 430
#     4  12  26  44  70  97 139 182 237 282 343 409
#     4  12  23  41  63 102 138 173 220 283 352 416
#     4  12  22  42  76 100 126 173 247 290 331 413
#     4  12  22  44  68  98 132 186 228 281 334 419
#     4  12  25  45  69 101 136 182 234 293 341 402
#
# _framework density 19.547930999999998
#
# number of rings (size 3 to 8) (size 9 to 14) (size 15 to 20)
#    0.000    0.000    9.474    0.632    2.947    0.421 
#    0.000    5.263    0.000    2.526    0.000    0.000 
#    0.000    0.000    0.000    0.000    0.000    0.000 
#
# Total GULP energy -212200.616237 kJ/mol
# GULP energy per Si atom -5584.226743 kJ/mol
# Density = 1.950344 g / cm^3
# Si number density = 19.547931 Si / 1000 Ang^3
#
#
#
# Elastic Constant Matrix: (Units=GPa)
#
#
# Indices 1 2 3 4 5 6 
#
# 1 112.7393 16.2938 8.3563 0.0000 0.0000 -4.2266
# 2 16.2938 112.7393 8.3563 0.0000 0.0000 4.2266
# 3 8.3563 8.3563 105.6183 0.0000 0.0000 0.0000
# 4 0.0000 0.0000 0.0000 23.8304 0.0000 0.0000
# 5 0.0000 0.0000 0.0000 0.0000 23.8304 0.0000
# 6 -4.2266 4.2266 0.0000 0.0000 0.0000 34.4517
#
#
#
# Elastic Compliance Matrix: (Units=1/GPa)
#
#
# Indices 1 2 3 4 5 6 
#
# 1 0.009156 -0.001326 -0.000620 0.000000 0.000000 0.001286
# 2 -0.001326 0.009156 -0.000620 0.000000 0.000000 -0.001286
# 3 -0.000620 -0.000620 0.009566 0.000000 0.000000 0.000000
# 4 0.000000 0.000000 0.000000 0.041963 0.000000 0.000000
# 5 0.000000 0.000000 0.000000 0.000000 0.041963 0.000000
# 6 0.001286 -0.001286 0.000000 0.000000 0.000000 0.029342
#
#
# Mechanical properties :
#
#
# Convention : Reuss Voigt Hill
#
# Bulk Modulus (GPa) = 43.95907 44.12329 44.04118
# Shear Modulus (GPa) = 32.49764 36.29523 34.39644
#
# Velocity S-wave (km/s) = 4.08175 4.31365 4.19930
# Velocity P-wave (km/s) = 6.68961 6.88702 6.78903
#
# Compressibility (1/GPa) = 0.02274844
#
# Stress axis : x y z
#
# Youngs Moduli (GPa) = 109.22138 109.22138 104.53600
#
# Poissons Ratio (x) = 0.14478 0.06476
# Poissons Ratio (y) = 0.14478 0.06476
# Poissons Ratio (z) = 0.06766 0.06766
#
# Static dielectric constant tensor:
#      x y z
#    x 1.687750 0.000000 0.000000 
#    y 0.000000 1.687750 0.000000 
#    z 0.000000 0.000000 1.790190 
# 
# From -- ./inp_files/2994.got.cif
#   From: 2010.05.17/outbox.cif.g08.bks.cpg/sg84_2_cif.got.tgz:2994.got - 2010.06.03 18:57:40.
