data_PCOD9544138
_publ_section_title
;
Structure prediction by ZEFSAII (Michael W. Deem and Ramdas Pophale) SiO2 
 PCOD9544138
Probable space group: P 42/M
;
_chemical_formula_sum "Si O2"
_cell_formula_units_Z 40
_cell_length_a 12.116279
_cell_length_b 12.116279
_cell_length_c 13.286682
_cell_angle_alpha 90.000000
_cell_angle_beta 90.000000
_cell_angle_gamma 90.000000
_cell_volume 1950.540945
_symmetry_space_group_name_H-M "P 42/M"
_symmetry_group_IT_number 84
_symmetry_cell_setting 'tetragonal'
loop_
_space_group_symop_operation_xyz
x,y,z
-y,x,1/2+z
-x,-y,z
y,-x,1/2+z
-x,-y,-z
y,-x,1/2-z
x,y,-z
-y,x,1/2-z
loop_
_atom_site_type_symbol
_atom_site_label
_atom_site_fract_x
_atom_site_fract_y
_atom_site_fract_z
Si Si1 0.947747 0.879977 0.615432
Si Si2 0.007608 0.343245 0.287100
Si Si3 0.157863 0.498073 0.387213
Si Si4 0.339776 0.579335 0.742722
Si Si5 0.847791 0.316975 0.116790
O O1 0.980580 0.853170 0.500000
O O2 0.990768 0.785467 0.689307
O O3 0.815022 0.868871 0.618609
O O4 0.000000 0.000000 0.636174
O O5 0.123988 0.401883 0.308735
O O6 0.931036 0.405281 0.368883
O O7 0.951372 0.365206 0.179951
O O8 0.156589 0.454504 0.500000
O O9 0.271588 0.554345 0.357936
O O10 0.456028 0.634619 0.717959
O O11 0.260556 0.645326 0.820179
O O12 0.841138 0.350528 0.000000
#
# Coordination Sequence:
#
# PCOD9544138 Si02
#       5
#     8   8   8   8   8
#     4  10  21  36  58  89 124 164 203 245 299 367
#     4  10  20  35  61  86 119 155 204 253 302 357
#     4  10  20  38  63  89 113 153 207 262 309 358
#     4  10  22  40  62  89 119 157 207 260 316 372
#     4  10  23  40  59  89 128 166 203 249 314 373
#
# _framework density 20.507131000000001
#
# number of rings (size 3 to 8) (size 9 to 14) (size 15 to 20)
#    0.000    2.000    0.000    3.600    2.800    3.200 
#    0.000   10.000    0.000    0.000    0.000    0.000 
#    0.000    0.000    0.000    0.000    0.000    0.000 
#
# Total GULP energy -223082.106585 kJ/mol
# GULP energy per Si atom -5577.052665 kJ/mol
# Density = 2.046046 g / cm^3
# Si number density = 20.507131 Si / 1000 Ang^3
#
#
#
# Elastic Constant Matrix: (Units=GPa)
#
#
# Indices 1 2 3 4 5 6 
#
# 1 102.4442 39.3691 32.8316 0.0000 0.0000 5.1892
# 2 39.3691 102.4442 32.8316 0.0000 0.0000 -5.1892
# 3 32.8316 32.8316 101.4596 0.0000 0.0000 0.0000
# 4 0.0000 0.0000 0.0000 19.6351 0.0000 0.0000
# 5 0.0000 0.0000 0.0000 0.0000 19.6351 0.0000
# 6 5.1892 -5.1892 0.0000 0.0000 0.0000 37.1673
#
#
#
# Elastic Compliance Matrix: (Units=1/GPa)
#
#
# Indices 1 2 3 4 5 6 
#
# 1 0.012261 -0.003966 -0.002684 0.000000 0.000000 -0.002266
# 2 -0.003966 0.012261 -0.002684 0.000000 0.000000 0.002266
# 3 -0.002684 -0.002684 0.011593 0.000000 0.000000 0.000000
# 4 0.000000 0.000000 0.000000 0.050929 0.000000 0.000000
# 5 0.000000 0.000000 0.000000 0.000000 0.050929 0.000000
# 6 -0.002266 0.002266 0.000000 0.000000 0.000000 0.027538
#
#
# Mechanical properties :
#
#
# Convention : Reuss Voigt Hill
#
# Bulk Modulus (GPa) = 57.32030 57.37922 57.34976
# Shear Modulus (GPa) = 26.31656 28.70855 27.51255
#
# Velocity S-wave (km/s) = 3.58619 3.74562 3.66677
# Velocity P-wave (km/s) = 6.72010 6.83719 6.77890
#
# Compressibility (1/GPa) = 0.01744583
#
# Stress axis : x y z
#
# Youngs Moduli (GPa) = 81.56220 81.56220 86.25773
#
# Poissons Ratio (x) = 0.32350 0.23151
# Poissons Ratio (y) = 0.32350 0.23151
# Poissons Ratio (z) = 0.21891 0.21891
#
# Static dielectric constant tensor:
#      x y z
#    x 1.785060 0.000000 0.000000 
#    y 0.000000 1.785060 0.000000 
#    z 0.000000 0.000000 1.725900 
# 
# From -- ./inp_files/2903.got.cif
#   From: 2010.05.17/outbox.cif.g08.bks.cpg/sg84_2_cif.got.tgz:2903.got - 2010.06.03 18:57:40.
