data_PCOD9544662
_publ_section_title
;
Structure prediction by ZEFSAII (Michael W. Deem and Ramdas Pophale) SiO2 
 PCOD9544662
Probable space group: P 4/N
;
_chemical_formula_sum "Si O2"
_cell_formula_units_Z 54
_cell_length_a 13.969184
_cell_length_b 13.969184
_cell_length_c 11.840636
_cell_angle_alpha 90.000000
_cell_angle_beta 90.000000
_cell_angle_gamma 90.000000
_cell_volume 2310.559231
_symmetry_space_group_name_H-M "P 4/N"
_symmetry_group_IT_number 85
_symmetry_cell_setting 'tetragonal'
loop_
_space_group_symop_operation_xyz
x,y,z
1/2-y,x,z
1/2-x,1/2-y,z
y,1/2-x,z
-x,-y,-z
1/2+y,-x,-z
1/2+x,1/2+y,-z
-y,1/2+x,-z
loop_
_atom_site_type_symbol
_atom_site_label
_atom_site_fract_x
_atom_site_fract_y
_atom_site_fract_z
Si Si1 0.250000 0.250000 0.313155
Si Si2 0.536937 0.814566 0.729262
Si Si3 0.250000 0.750000 0.834131
Si Si4 0.908640 0.972874 0.152263
Si Si5 0.108391 0.916892 0.077324
Si Si6 0.956976 0.394194 0.491888
Si Si7 0.795529 0.900307 0.341532
Si Si8 0.356297 0.909543 0.304417
O O1 0.353825 0.192212 0.307839
O O2 0.509150 0.860068 0.848744
O O3 0.467281 0.862722 0.636149
O O4 0.494730 0.708880 0.736126
O O5 0.327274 0.820369 0.898080
O O6 0.314013 0.681029 0.755678
O O7 0.816258 0.924407 0.209804
O O8 0.996358 0.905177 0.112933
O O9 0.937590 0.039192 0.258344
O O10 0.887729 0.046515 0.050948
O O11 0.019364 0.321369 0.568014
O O12 0.000000 0.500000 0.500000
O O13 0.858111 0.398306 0.560613
O O14 0.688885 0.865561 0.363030
#
# Coordination Sequence:
#
# PCOD9544662 Si02
#       8
#     2   8   4   8   8   8   8   8
#     4  12  24  40  64  92 134 180 220 296 336 434
#     4  11  24  41  65  97 136 170 234 276 358 418
#     4  10  24  43  71 102 144 182 249 285 366 438
#     4  10  22  44  70  93 139 176 230 286 359 402
#     4  10  23  44  69 101 135 186 226 295 350 432
#     4  11  24  41  68  92 134 177 223 287 358 419
#     4  10  24  43  67  97 129 178 234 281 338 421
#     4  10  24  44  64 100 134 185 225 296 348 431
#
# _framework density 23.370965999999999
#
# number of rings (size 3 to 8) (size 9 to 14) (size 15 to 20)
#    0.000    1.630    0.000    3.556    8.296    5.333 
#    8.000    0.741    0.000    0.000    0.000    0.000 
#    0.000    0.000    0.000    0.000    0.000    0.000 
#
# Total GULP energy -300952.745171 kJ/mol
# GULP energy per Si atom -5573.198985 kJ/mol
# Density = 2.331777 g / cm^3
# Si number density = 23.370966 Si / 1000 Ang^3
#
#
#
# Elastic Constant Matrix: (Units=GPa)
#
#
# Indices 1 2 3 4 5 6 
#
# 1 44.8181 15.8607 5.4986 0.0000 0.0000 -31.3755
# 2 15.8607 44.8181 5.4986 0.0000 0.0000 31.3755
# 3 5.4986 5.4986 97.3052 0.0000 0.0000 0.0000
# 4 0.0000 0.0000 0.0000 23.8971 0.0000 0.0000
# 5 0.0000 0.0000 0.0000 0.0000 23.8971 0.0000
# 6 -31.3755 31.3755 0.0000 0.0000 0.0000 -0.3949
#
#
#
# Elastic Compliance Matrix: (Units=1/GPa)
#
#
# Indices 1 2 3 4 5 6 
#
# 1 0.008425 0.008226 -0.000941 0.000000 0.000000 -0.015844
# 2 0.008226 0.008425 -0.000941 0.000000 0.000000 0.015844
# 3 -0.000941 -0.000941 0.010383 0.000000 0.000000 0.000000
# 4 0.000000 0.000000 0.000000 0.041846 0.000000 0.000000
# 5 0.000000 0.000000 0.000000 0.000000 0.041846 0.000000
# 6 -0.015844 0.015844 0.000000 0.000000 0.000000 -0.014623
#
#
# Mechanical properties :
#
#
# Convention : Reuss Voigt Hill
#
# Bulk Modulus (GPa) = 25.04942 26.73971 25.89456
# Shear Modulus (GPa) = 51.58787 20.15210 35.86999
#
# Velocity S-wave (km/s) = 4.70334 2.93963 3.92191
# Velocity P-wave (km/s) = 6.34324 4.79460 5.62249
#
# Compressibility (1/GPa) = 0.03992109
#
# Stress axis : x y z
#
# Youngs Moduli (GPa) = 118.69338 118.69338 96.30859
#
# Poissons Ratio (x) = -0.97633 0.09062
# Poissons Ratio (y) = -0.97633 0.09062
# Poissons Ratio (z) = 0.11168 0.11168
#
# Static dielectric constant tensor:
#      x y z
#    x 1.963650 0.000000 0.000000 
#    y 0.000000 1.963650 0.000000 
#    z 0.000000 0.000000 1.892450 
# 
# From -- ./inp_files/1797.got.cif
#   From: 2010.05.17/outbox.cif.g08.bks.cpg/sg85_cif.got.tgz:1797.got - 2010.06.03 19:01:16.
