data_PCOD9544453
_publ_section_title
;
Structure prediction by ZEFSAII (Michael W. Deem and Ramdas Pophale) SiO2 
 PCOD9544453
Probable space group: P 42/M
;
_chemical_formula_sum "Si O2"
_cell_formula_units_Z 20
_cell_length_a 5.245398
_cell_length_b 5.245398
_cell_length_c 28.583630
_cell_angle_alpha 90.000000
_cell_angle_beta 90.000000
_cell_angle_gamma 90.000000
_cell_volume 786.455718
_symmetry_space_group_name_H-M "P 42/M"
_symmetry_group_IT_number 84
_symmetry_cell_setting 'tetragonal'
loop_
_space_group_symop_operation_xyz
x,y,z
-y,x,1/2+z
-x,-y,z
y,-x,1/2+z
-x,-y,-z
y,-x,1/2-z
x,y,-z
-y,x,1/2-z
loop_
_atom_site_type_symbol
_atom_site_label
_atom_site_fract_x
_atom_site_fract_y
_atom_site_fract_z
Si Si1 0.000000 0.000000 0.000000
Si Si2 0.255201 0.669417 0.678654
Si Si3 0.000000 0.000000 0.250000
Si Si4 0.335605 0.753788 0.429654
O O1 0.207702 0.082164 0.959114
O O2 0.500000 0.500000 0.689417
O O3 0.284292 0.767628 0.625636
O O4 0.000000 0.500000 0.680117
O O5 0.214807 0.891333 0.715831
O O6 0.500000 0.500000 0.438805
O O7 0.500000 0.000000 0.445068
#
# Coordination Sequence:
#
# PCOD9544453 Si02
#       4
#     2   8   2   8
#     4  12  26  46  88 114 154 212 270 340 388 496
#     4  11  30  52  80 115 167 213 270 338 415 488
#     4  12  30  48  84 122 156 220 278 352 400 514
#     4  11  28  50  76 115 161 208 265 332 409 485
#
# _framework density 25.430546
#
# number of rings (size 3 to 8) (size 9 to 14) (size 15 to 20)
#    0.000    0.800    0.000    2.400   28.000    1.600 
#    0.000    0.000    0.000    0.000    0.000    0.000 
#    0.000    0.000    0.000    0.000    0.000    0.000 
#
# Total GULP energy -111787.303185 kJ/mol
# GULP energy per Si atom -5589.365159 kJ/mol
# Density = 2.537266 g / cm^3
# Si number density = 25.430546 Si / 1000 Ang^3
#
#
#
# Elastic Constant Matrix: (Units=GPa)
#
#
# Indices 1 2 3 4 5 6 
#
# 1 145.0777 60.5295 64.1593 0.0000 0.0000 -6.6046
# 2 60.5295 145.0777 64.1593 0.0000 0.0000 6.6046
# 3 64.1593 64.1593 208.7571 0.0000 0.0000 0.0000
# 4 0.0000 0.0000 0.0000 52.0495 0.0000 0.0000
# 5 0.0000 0.0000 0.0000 0.0000 52.0495 0.0000
# 6 -6.6046 6.6046 0.0000 0.0000 0.0000 41.1163
#
#
#
# Elastic Compliance Matrix: (Units=1/GPa)
#
#
# Indices 1 2 3 4 5 6 
#
# 1 0.009075 -0.003057 -0.001850 0.000000 0.000000 0.001949
# 2 -0.003057 0.009075 -0.001850 0.000000 0.000000 -0.001949
# 3 -0.001850 -0.001850 0.005927 0.000000 0.000000 0.000000
# 4 0.000000 0.000000 0.000000 0.019212 0.000000 0.000000
# 5 0.000000 0.000000 0.000000 0.000000 0.019212 0.000000
# 6 0.001949 -0.001949 0.000000 0.000000 0.000000 0.024947
#
#
# Mechanical properties :
#
#
# Convention : Reuss Voigt Hill
#
# Bulk Modulus (GPa) = 94.65386 97.40101 96.02743
# Shear Modulus (GPa) = 47.85454 49.71404 48.78429
#
# Velocity S-wave (km/s) = 4.34265 4.42622 4.38463
# Velocity P-wave (km/s) = 7.90229 8.03155 7.96718
#
# Compressibility (1/GPa) = 0.01056481
#
# Stress axis : x y z
#
# Youngs Moduli (GPa) = 110.19297 110.19297 168.71555
#
# Poissons Ratio (x) = 0.33687 0.31205
# Poissons Ratio (y) = 0.33687 0.31205
# Poissons Ratio (z) = 0.20381 0.20381
#
# Static dielectric constant tensor:
#      x y z
#    x 2.188420 0.000000 0.000000 
#    y 0.000000 2.188420 0.000000 
#    z 0.000000 0.000000 1.946360 
# 
# From -- ./inp_files/5491.got.cif
#   From: 2010.05.17/outbox.cif.g08.bks.cpg/sg84_3_cif.got.tgz:5491.got - 2010.06.03 18:57:40.
