data_PCOD9544030
_publ_section_title
;
Structure prediction by ZEFSAII (Michael W. Deem and Ramdas Pophale) SiO2 
 PCOD9544030
Probable space group: P 42/M
;
_chemical_formula_sum "Si O2"
_cell_formula_units_Z 64
_cell_length_a 21.104592
_cell_length_b 21.104592
_cell_length_c 9.047820
_cell_angle_alpha 90.000000
_cell_angle_beta 90.000000
_cell_angle_gamma 90.000000
_cell_volume 4029.933441
_symmetry_space_group_name_H-M "P 42/M"
_symmetry_group_IT_number 84
_symmetry_cell_setting 'tetragonal'
loop_
_space_group_symop_operation_xyz
x,y,z
-y,x,1/2+z
-x,-y,z
y,-x,1/2+z
-x,-y,-z
y,-x,1/2-z
x,y,-z
-y,x,1/2-z
loop_
_atom_site_type_symbol
_atom_site_label
_atom_site_fract_x
_atom_site_fract_y
_atom_site_fract_z
Si Si1 0.859482 0.570230 0.176567
Si Si2 0.316511 0.227899 0.171122
Si Si3 0.250801 0.003198 0.333642
Si Si4 0.423999 0.144395 0.323529
Si Si5 0.598137 0.999120 0.670041
Si Si6 0.117002 0.208259 0.332494
Si Si7 0.794465 0.877202 0.167279
Si Si8 0.778289 0.680093 0.328359
O O1 0.838582 0.497618 0.196241
O O2 0.933022 0.575199 0.232631
O O3 0.811458 0.619717 0.251370
O O4 0.861643 0.584175 0.000000
O O5 0.376742 0.194636 0.248706
O O6 0.262759 0.173193 0.173904
O O7 0.283193 0.288308 0.250050
O O8 0.330405 0.242800 0.000000
O O9 0.232429 0.021666 0.500000
O O10 0.326300 0.996079 0.331245
O O11 0.221352 0.937450 0.284189
O O12 0.231513 0.055777 0.216811
O O13 0.409468 0.143009 0.500000
O O14 0.416611 0.071094 0.267506
O O15 0.574322 0.997201 0.500000
O O16 0.092898 0.205172 0.500000
O O17 0.153765 0.145814 0.283610
O O18 0.167637 0.265408 0.324345
O O19 0.819025 0.877303 0.000000
O O20 0.764131 0.666597 0.500000
#
# Coordination Sequence:
#
# PCOD9544030 Si02
#       8
#     8   8   8   8   8   8   8   8
#     4  10  19  32  50  72 101 137 173 205 242 290
#     4  10  20  33  50  70  96 127 165 209 251 291
#     4  11  19  30  51  72  95 126 161 203 246 295
#     4  10  19  32  50  72 101 137 173 205 242 290
#     4   9  17  29  46  69  98 134 172 203 234 282
#     4  10  20  33  49  70  94 122 159 204 252 298
#     4  10  20  33  49  70  94 122 159 204 252 298
#     4  10  20  33  50  70  96 127 165 209 251 291
#
# _framework density 15.881156000000001
#
# number of rings (size 3 to 8) (size 9 to 14) (size 15 to 20)
#    0.000    2.000    2.500    2.250    0.000    4.000 
#    0.000    0.625    0.000    1.875    0.000    2.625 
#    0.000    0.500    0.000    5.250    0.000    2.250 
#
# Total GULP energy -356604.750420 kJ/mol
# GULP energy per Si atom -5571.949225 kJ/mol
# Density = 1.584501 g / cm^3
# Si number density = 15.881156 Si / 1000 Ang^3
#
#
#
# Elastic Constant Matrix: (Units=GPa)
#
#
# Indices 1 2 3 4 5 6 
#
# 1 84.7986 56.2873 38.7096 0.0000 0.0000 0.0383
# 2 56.2873 84.7986 38.7096 0.0000 0.0000 -0.0383
# 3 38.7096 38.7096 66.3134 0.0000 0.0000 0.0000
# 4 0.0000 0.0000 0.0000 21.8697 0.0000 0.0000
# 5 0.0000 0.0000 0.0000 0.0000 21.8697 0.0000
# 6 0.0383 -0.0383 0.0000 0.0000 0.0000 -28.2113
#
#
#
# Elastic Compliance Matrix: (Units=1/GPa)
#
#
# Indices 1 2 3 4 5 6 
#
# 1 0.022751 -0.012323 -0.006087 0.000000 0.000000 0.000048
# 2 -0.012323 0.022751 -0.006087 0.000000 0.000000 -0.000048
# 3 -0.006087 -0.006087 0.022187 0.000000 0.000000 0.000000
# 4 0.000000 0.000000 0.000000 0.045725 0.000000 0.000000
# 5 0.000000 0.000000 0.000000 0.000000 0.045725 0.000000
# 6 0.000048 -0.000048 0.000000 0.000000 0.000000 -0.035447
#
#
# Mechanical properties :
#
#
# Convention : Reuss Voigt Hill
#
# Bulk Modulus (GPa) = 53.49363 55.92483 54.70923
# Shear Modulus (GPa) = 27.94562 9.91922 18.93242
#
# Velocity S-wave (km/s) = 4.19939 2.50189 3.45647
# Velocity P-wave (km/s) = 7.56770 6.60583 7.10306
#
# Compressibility (1/GPa) = 0.01869382
#
# Stress axis : x y z
#
# Youngs Moduli (GPa) = 43.95417 43.95417 45.07192
#
# Poissons Ratio (x) = 0.54163 0.27437
# Poissons Ratio (y) = 0.54163 0.27437
# Poissons Ratio (z) = 0.26757 0.26757
#
# Static dielectric constant tensor:
#      x y z
#    x 1.518500 0.000000 0.000000 
#    y 0.000000 1.518500 0.000000 
#    z 0.000000 0.000000 1.545200 
# 
# From -- ./inp_files/1389.got.cif
#   From: 2010.05.17/outbox.cif.g08.bks.cpg/sg84_1_cif.got.tgz:1389.got - 2010.06.03 18:57:40.
