data_PCOD9544054
_publ_section_title
;
Structure prediction by ZEFSAII (Michael W. Deem and Ramdas Pophale) SiO2 
 PCOD9544054
Probable space group: P 42/M
;
_chemical_formula_sum "Si O2"
_cell_formula_units_Z 64
_cell_length_a 21.314454
_cell_length_b 21.314454
_cell_length_c 8.708883
_cell_angle_alpha 90.000000
_cell_angle_beta 90.000000
_cell_angle_gamma 90.000000
_cell_volume 3956.497359
_symmetry_space_group_name_H-M "P 42/M"
_symmetry_group_IT_number 84
_symmetry_cell_setting 'tetragonal'
loop_
_space_group_symop_operation_xyz
x,y,z
-y,x,1/2+z
-x,-y,z
y,-x,1/2+z
-x,-y,-z
y,-x,1/2-z
x,y,-z
-y,x,1/2-z
loop_
_atom_site_type_symbol
_atom_site_label
_atom_site_fract_x
_atom_site_fract_y
_atom_site_fract_z
Si Si1 0.618064 0.713353 0.173512
Si Si2 0.732051 0.812756 0.177153
Si Si3 0.249016 0.495000 0.173041
Si Si4 0.077026 0.643502 0.684561
Si Si5 0.379624 0.702713 0.822367
Si Si6 0.898720 0.494671 0.179614
Si Si7 0.942958 0.631094 0.814319
Si Si8 0.814963 0.702501 0.813229
O O1 0.676395 0.761273 0.177968
O O2 0.566532 0.735620 0.292505
O O3 0.645744 0.646929 0.222858
O O4 0.593504 0.713937 0.000000
O O5 0.696881 0.874074 0.244050
O O6 0.792100 0.772669 0.236938
O O7 0.747433 0.828376 0.000000
O O8 0.285444 0.452126 0.292202
O O9 0.174481 0.487436 0.188651
O O10 0.266160 0.476462 0.000000
O O11 0.080548 0.643812 0.500000
O O12 0.092692 0.572254 0.738647
O O13 0.007057 0.655980 0.743073
O O14 0.344856 0.764901 0.760265
O O15 0.364717 0.693217 0.000000
O O16 0.933916 0.557786 0.235367
O O17 0.915367 0.485213 0.000000
O O18 0.883527 0.675239 0.774284
O O19 0.946674 0.629809 0.000000
O O20 0.808848 0.700181 0.000000
#
# Coordination Sequence:
#
# PCOD9544054 Si02
#       8
#     8   8   8   8   8   8   8   8
#     4  10  19  34  52  71  95 124 160 203 248 294
#     4   8  16  30  49  69  92 122 157 198 243 287
#     4  11  20  33  52  73  96 125 162 205 247 290
#     4  11  21  32  46  70 100 131 165 200 243 289
#     4  11  21  32  49  74  98 123 158 201 251 299
#     4  10  20  33  47  66  96 132 170 201 234 282
#     4  10  20  34  49  67  94 134 171 200 241 288
#     4   9  17  34  53  68  91 126 166 205 244 289
#
# _framework density 16.175924999999999
#
# number of rings (size 3 to 8) (size 9 to 14) (size 15 to 20)
#    0.000    2.000    2.500    3.375    0.000    3.000 
#    0.000    0.625    0.000    0.375    0.000    2.625 
#    0.000    0.500    0.000    6.250    0.000    0.000 
#
# Total GULP energy -356541.202180 kJ/mol
# GULP energy per Si atom -5570.956284 kJ/mol
# Density = 1.613911 g / cm^3
# Si number density = 16.175925 Si / 1000 Ang^3
#
#
#
# Elastic Constant Matrix: (Units=GPa)
#
#
# Indices 1 2 3 4 5 6 
#
# 1 51.6649 26.7033 8.7931 0.0000 0.0000 -1.3831
# 2 26.7033 51.6649 8.7931 0.0000 0.0000 1.3831
# 3 8.7931 8.7931 19.9774 0.0000 0.0000 0.0000
# 4 0.0000 0.0000 0.0000 15.9994 0.0000 0.0000
# 5 0.0000 0.0000 0.0000 0.0000 15.9994 0.0000
# 6 -1.3831 1.3831 0.0000 0.0000 0.0000 16.5929
#
#
#
# Elastic Compliance Matrix: (Units=1/GPa)
#
#
# Indices 1 2 3 4 5 6 
#
# 1 0.027297 -0.013138 -0.006232 0.000000 0.000000 0.003370
# 2 -0.013138 0.027297 -0.006232 0.000000 0.000000 -0.003370
# 3 -0.006232 -0.006232 0.055542 0.000000 0.000000 0.000000
# 4 0.000000 0.000000 0.000000 0.062502 0.000000 0.000000
# 5 0.000000 0.000000 0.000000 0.000000 0.062502 0.000000
# 6 0.003370 -0.003370 0.000000 0.000000 0.000000 0.060829
#
#
# Mechanical properties :
#
#
# Convention : Reuss Voigt Hill
#
# Bulk Modulus (GPa) = 16.96870 23.54291 20.25580
# Shear Modulus (GPa) = 13.63076 14.98621 14.30848
#
# Velocity S-wave (km/s) = 2.90600 3.04707 2.97737
# Velocity P-wave (km/s) = 4.66612 5.19282 4.93650
#
# Compressibility (1/GPa) = 0.05893205
#
# Stress axis : x y z
#
# Youngs Moduli (GPa) = 36.63427 36.63427 18.00424
#
# Poissons Ratio (x) = 0.48130 0.11220
# Poissons Ratio (y) = 0.48130 0.11220
# Poissons Ratio (z) = 0.22830 0.22830
#
# Static dielectric constant tensor:
#      x y z
#    x 1.556390 0.000000 0.000000 
#    y 0.000000 1.556390 0.000000 
#    z 0.000000 0.000000 1.546580 
# 
# From -- ./inp_files/1349.got.cif
#   From: 2010.05.17/outbox.cif.g08.bks.cpg/sg84_1_cif.got.tgz:1349.got - 2010.06.03 18:57:40.
