data_PCOD9544387
_publ_section_title
;
Structure prediction by ZEFSAII (Michael W. Deem and Ramdas Pophale) SiO2 
 PCOD9544387
Probable space group: P 42/M
;
_chemical_formula_sum "Si O2"
_cell_formula_units_Z 32
_cell_length_a 12.794717
_cell_length_b 12.794717
_cell_length_c 8.691431
_cell_angle_alpha 90.000000
_cell_angle_beta 90.000000
_cell_angle_gamma 90.000000
_cell_volume 1422.828827
_symmetry_space_group_name_H-M "P 42/M"
_symmetry_group_IT_number 84
_symmetry_cell_setting 'tetragonal'
loop_
_space_group_symop_operation_xyz
x,y,z
-y,x,1/2+z
-x,-y,z
y,-x,1/2+z
-x,-y,-z
y,-x,1/2-z
x,y,-z
-y,x,1/2-z
loop_
_atom_site_type_symbol
_atom_site_label
_atom_site_fract_x
_atom_site_fract_y
_atom_site_fract_z
Si Si1 0.826595 0.794855 0.177515
Si Si2 0.986639 0.301886 0.680415
Si Si3 0.476583 0.345280 0.178475
Si Si4 0.440613 0.849982 0.326162
O O1 0.823182 0.147183 0.500000
O O2 0.929952 0.790203 0.281609
O O3 0.792657 0.673964 0.172861
O O4 0.739628 0.874912 0.232671
O O5 0.984598 0.324769 0.500000
O O6 0.037570 0.399676 0.767532
O O7 0.401101 0.411270 0.289887
O O8 0.488233 0.223182 0.221048
O O9 0.447639 0.357790 0.000000
O O10 0.479837 0.854694 0.500000
#
# Coordination Sequence:
#
# PCOD9544387 Si02
#       4
#     8   8   8   8
#     4   8  17  29  43  66  98 132 167 206 245 284
#     4   9  16  28  45  67  95 132 172 205 242 287
#     4  11  21  35  56  81 102 125 153 194 243 293
#     4   9  18  33  48  70 101 132 161 203 247 287
#
# _framework density 22.490407999999999
#
# number of rings (size 3 to 8) (size 9 to 14) (size 15 to 20)
#    1.500    1.250    0.000    3.750    0.000    2.500 
#    0.000    2.500    0.000    1.500    0.000   10.500 
#    0.000    0.000    0.000    0.000    0.000    0.000 
#
# Total GULP energy -178287.071148 kJ/mol
# GULP energy per Si atom -5571.470973 kJ/mol
# Density = 2.243922 g / cm^3
# Si number density = 22.490408 Si / 1000 Ang^3
#
#
#
# Elastic Constant Matrix: (Units=GPa)
#
#
# Indices 1 2 3 4 5 6 
#
# 1 73.7760 19.4333 11.9331 0.0000 0.0000 31.2510
# 2 19.4333 73.7760 11.9331 0.0000 0.0000 -31.2510
# 3 11.9331 11.9331 66.1486 0.0000 0.0000 0.0000
# 4 0.0000 0.0000 0.0000 10.6321 0.0000 0.0000
# 5 0.0000 0.0000 0.0000 0.0000 10.6321 0.0000
# 6 31.2510 -31.2510 0.0000 0.0000 0.0000 27.7452
#
#
#
# Elastic Compliance Matrix: (Units=1/GPa)
#
#
# Indices 1 2 3 4 5 6 
#
# 1 -0.025516 0.036764 -0.002029 0.000000 0.000000 0.070149
# 2 0.036764 -0.025516 -0.002029 0.000000 0.000000 -0.070149
# 3 -0.002029 -0.002029 0.015850 0.000000 0.000000 0.000000
# 4 0.000000 0.000000 0.000000 0.094055 0.000000 0.000000
# 5 0.000000 0.000000 0.000000 0.000000 0.094055 0.000000
# 6 0.070149 -0.070149 0.000000 0.000000 0.000000 -0.121982
#
#
# Mechanical properties :
#
#
# Convention : Reuss Voigt Hill
#
# Bulk Modulus (GPa) = 33.08057 33.36663 33.22360
# Shear Modulus (GPa) = -205.01802 21.16195 -91.92803
#
# Velocity S-wave (km/s) = -9.55803 3.07079 -6.40024
# Velocity P-wave (km/s) = 10.34733 5.23843 6.30975
#
# Compressibility (1/GPa) = 0.03022922
#
# Stress axis : x y z
#
# Youngs Moduli (GPa) = -39.19186 -39.19186 63.09317
#
# Poissons Ratio (x) = 1.44083 0.12802
# Poissons Ratio (y) = 1.44083 0.12802
# Poissons Ratio (z) = -0.07953 -0.07953
#
# Static dielectric constant tensor:
#      x y z
#    x 1.904630 0.000000 0.000000 
#    y 0.000000 1.904630 0.000000 
#    z 0.000000 0.000000 1.760670 
# 
# From -- ./inp_files/608.got.cif
#   From: 2010.05.17/outbox.cif.g08.bks.cpg/sg84_1_cif.got.tgz:608.got - 2010.06.03 18:57:40.
