data_PCOD9544917
_publ_section_title
;
Structure prediction by ZEFSAII (Michael W. Deem and Ramdas Pophale) SiO2 
 PCOD9544917
Probable space group: P 42/N
;
_chemical_formula_sum "Si O2"
_cell_formula_units_Z 32
_cell_length_a 9.000186
_cell_length_b 9.000186
_cell_length_c 18.313828
_cell_angle_alpha 90.000000
_cell_angle_beta 90.000000
_cell_angle_gamma 90.000000
_cell_volume 1483.481383
_symmetry_space_group_name_H-M "P 42/N"
_symmetry_group_IT_number 86
_space_group.IT_coordinate_system_code '2'
_symmetry_cell_setting 'tetragonal'
loop_
_space_group_symop_operation_xyz
x,y,z
-y,1/2+x,1/2+z
1/2-x,1/2-y,z
1/2+y,-x,1/2+z
-x,-y,-z
y,1/2-x,1/2-z
1/2+x,1/2+y,-z
1/2-y,x,1/2-z
loop_
_atom_site_type_symbol
_atom_site_label
_atom_site_fract_x
_atom_site_fract_y
_atom_site_fract_z
Si Si1 0.250725 0.482822 0.996807
Si Si2 0.511219 0.979597 0.893622
Si Si3 0.396342 0.046072 0.743200
Si Si4 0.484523 0.666909 0.084084
O O1 0.358036 0.602776 0.033040
O O2 0.150420 0.414298 0.062267
O O3 0.136210 0.555654 0.939711
O O4 0.358508 0.373590 0.952568
O O5 0.481588 0.960666 0.807917
O O6 0.527631 0.158187 0.903343
O O7 0.219033 0.052880 0.760261
O O8 0.410679 0.977312 0.663246
#
# Coordination Sequence:
#
# PCOD9544917 Si02
#       4
#     8   8   8   8
#     4  10  20  32  56  84 108 148 184 234 292 334
#     4  10  19  34  57  82 116 146 193 238 282 340
#     4   9  16  30  56  82 107 144 188 241 292 338
#     4  10  19  34  57  82 116 146 193 238 282 340
#
# _framework density 21.570879999999999
#
# number of rings (size 3 to 8) (size 9 to 14) (size 15 to 20)
#    0.000    2.250    2.500    1.500    0.000    0.000 
#    0.000    0.000   33.000    0.000    0.000    0.000 
#    0.000    0.000    0.000    0.000    0.000    0.000 
#
# Total GULP energy -178758.482923 kJ/mol
# GULP energy per Si atom -5586.202591 kJ/mol
# Density = 2.152178 g / cm^3
# Si number density = 21.570880 Si / 1000 Ang^3
#
#
#
# Elastic Constant Matrix: (Units=GPa)
#
#
# Indices 1 2 3 4 5 6 
#
# 1 51.1620 6.1339 32.3226 0.0000 0.0000 1.3154
# 2 6.1339 51.1620 32.3226 0.0000 0.0000 -1.3154
# 3 32.3226 32.3226 164.5316 0.0000 0.0000 0.0000
# 4 0.0000 0.0000 0.0000 23.8732 0.0000 0.0000
# 5 0.0000 0.0000 0.0000 0.0000 23.8732 0.0000
# 6 1.3154 -1.3154 0.0000 0.0000 0.0000 29.7313
#
#
#
# Elastic Compliance Matrix: (Units=1/GPa)
#
#
# Indices 1 2 3 4 5 6 
#
# 1 0.022345 0.000079 -0.004405 0.000000 0.000000 -0.000985
# 2 0.000079 0.022345 -0.004405 0.000000 0.000000 0.000985
# 3 -0.004405 -0.004405 0.007809 0.000000 0.000000 0.000000
# 4 0.000000 0.000000 0.000000 0.041888 0.000000 0.000000
# 5 0.000000 0.000000 0.000000 0.000000 0.041888 0.000000
# 6 -0.000985 0.000985 0.000000 0.000000 0.000000 0.033722
#
#
# Mechanical properties :
#
#
# Convention : Reuss Voigt Hill
#
# Bulk Modulus (GPa) = 28.54292 45.37934 36.96113
# Shear Modulus (GPa) = 25.10835 28.56732 26.83784
#
# Velocity S-wave (km/s) = 3.41544 3.64311 3.53111
# Velocity P-wave (km/s) = 5.36791 6.22730 5.81351
#
# Compressibility (1/GPa) = 0.03503496
#
# Stress axis : x y z
#
# Youngs Moduli (GPa) = 44.75341 44.75341 128.06298
#
# Poissons Ratio (x) = -0.00352 0.56413
# Poissons Ratio (y) = -0.00352 0.56413
# Poissons Ratio (z) = 0.19714 0.19714
#
# Static dielectric constant tensor:
#      x y z
#    x 1.804130 0.000000 0.000000 
#    y 0.000000 1.804130 0.000000 
#    z 0.000000 0.000000 1.803980 
# 
# From -- ./inp_files/3807.got.cif
#   From: 2010.05.17/outbox.cif.g08.bks.cpg/sg86_2_cif.got.tgz:3807.got - 2010.06.03 19:03:11.
