data_PCOD9544395
_publ_section_title
;
Structure prediction by ZEFSAII (Michael W. Deem and Ramdas Pophale) SiO2 
 PCOD9544395
Probable space group: P 42/M
;
_chemical_formula_sum "Si O2"
_cell_formula_units_Z 26
_cell_length_a 8.680773
_cell_length_b 8.680773
_cell_length_c 15.483780
_cell_angle_alpha 90.000000
_cell_angle_beta 90.000000
_cell_angle_gamma 90.000000
_cell_volume 1166.792937
_symmetry_space_group_name_H-M "P 42/M"
_symmetry_group_IT_number 84
_symmetry_cell_setting 'tetragonal'
loop_
_space_group_symop_operation_xyz
x,y,z
-y,x,1/2+z
-x,-y,z
y,-x,1/2+z
-x,-y,-z
y,-x,1/2-z
x,y,-z
-y,x,1/2-z
loop_
_atom_site_type_symbol
_atom_site_label
_atom_site_fract_x
_atom_site_fract_y
_atom_site_fract_z
Si Si1 0.000000 0.000000 0.750000
Si Si2 0.258834 0.220284 0.830602
Si Si3 0.912301 0.240314 0.000000
Si Si4 0.082339 0.748856 0.500000
Si Si5 0.160390 0.554329 0.166224
O O1 0.118859 0.894177 0.694982
O O2 0.332117 0.129078 0.910877
O O3 0.350608 0.239622 0.741549
O O4 0.235438 0.394730 0.861660
O O5 0.878230 0.341512 0.084193
O O6 0.088117 0.178660 0.000000
O O7 0.800869 0.093519 0.000000
O O8 0.000000 0.500000 0.208054
#
# Coordination Sequence:
#
# PCOD9544395 Si02
#       5
#     2   8   4   4   8
#     4  12  20  38  68 100 124 170 236 290 320 388
#     4  12  24  41  67  99 137 177 226 280 338 403
#     4  11  22  39  69 107 135 171 228 290 339 389
#     4  11  21  38  69 104 135 171 229 287 333 396
#     4  12  24  41  67  99 138 181 223 278 345 401
#
# _framework density 22.283301000000002
#
# number of rings (size 3 to 8) (size 9 to 14) (size 15 to 20)
#    0.000    0.308    6.154    5.077    0.000    0.615 
#    0.000    2.308    0.000    3.692    0.000    0.000 
#    0.000    0.000    0.000    0.000    0.000    0.000 
#
# Total GULP energy -145321.224112 kJ/mol
# GULP energy per Si atom -5589.277850 kJ/mol
# Density = 2.223258 g / cm^3
# Si number density = 22.283301 Si / 1000 Ang^3
#
#
#
# Elastic Constant Matrix: (Units=GPa)
#
#
# Indices 1 2 3 4 5 6 
#
# 1 83.1029 13.5663 28.2478 0.0000 0.0000 6.2499
# 2 13.5663 83.1029 28.2478 0.0000 0.0000 -6.2499
# 3 28.2478 28.2478 131.7036 0.0000 0.0000 0.0000
# 4 0.0000 0.0000 0.0000 -0.6605 0.0000 0.0000
# 5 0.0000 0.0000 0.0000 0.0000 -0.6605 0.0000
# 6 6.2499 -6.2499 0.0000 0.0000 0.0000 7.9075
#
#
#
# Elastic Compliance Matrix: (Units=1/GPa)
#
#
# Indices 1 2 3 4 5 6 
#
# 1 0.014295 -0.002468 -0.002537 0.000000 0.000000 -0.013249
# 2 -0.002468 0.014295 -0.002537 0.000000 0.000000 0.013249
# 3 -0.002537 -0.002537 0.008681 0.000000 0.000000 0.000000
# 4 0.000000 0.000000 0.000000 -1.514051 0.000000 0.000000
# 5 0.000000 0.000000 0.000000 0.000000 -1.514051 0.000000
# 6 -0.013249 0.013249 0.000000 0.000000 0.000000 0.147405
#
#
# Mechanical properties :
#
#
# Convention : Reuss Voigt Hill
#
# Bulk Modulus (GPa) = 45.06872 48.67039 46.86956
# Shear Modulus (GPa) = -1.77245 16.50715 7.36735
#
# Velocity S-wave (km/s) = -0.89283 2.72469 1.82027
# Velocity P-wave (km/s) = 4.38251 5.63805 5.04946
#
# Compressibility (1/GPa) = 0.02218834
#
# Stress axis : x y z
#
# Youngs Moduli (GPa) = 69.95566 69.95566 115.19497
#
# Poissons Ratio (x) = 0.17263 0.29221
# Poissons Ratio (y) = 0.17263 0.29221
# Poissons Ratio (z) = 0.17745 0.17745
#
# Static dielectric constant tensor:
#      x y z
#    x 1.847740 0.000000 0.000000 
#    y 0.000000 1.847740 0.000000 
#    z 0.000000 0.000000 1.808500 
# 
# From -- ./inp_files/3383.got.cif
#   From: 2010.05.17/outbox.cif.g08.bks.cpg/sg84_2_cif.got.tgz:3383.got - 2010.06.03 18:57:40.
