data_PCOD9544359
_publ_section_title
;
Structure prediction by ZEFSAII (Michael W. Deem and Ramdas Pophale) SiO2 
 PCOD9544359
Probable space group: P 42/M
;
_chemical_formula_sum "Si O2"
_cell_formula_units_Z 16
_cell_length_a 5.001110
_cell_length_b 5.001110
_cell_length_c 26.294321
_cell_angle_alpha 90.000000
_cell_angle_beta 90.000000
_cell_angle_gamma 90.000000
_cell_volume 657.649924
_symmetry_space_group_name_H-M "P 42/M"
_symmetry_group_IT_number 84
_symmetry_cell_setting 'tetragonal'
loop_
_space_group_symop_operation_xyz
x,y,z
-y,x,1/2+z
-x,-y,z
y,-x,1/2+z
-x,-y,-z
y,-x,1/2-z
x,y,-z
-y,x,1/2-z
loop_
_atom_site_type_symbol
_atom_site_label
_atom_site_fract_x
_atom_site_fract_y
_atom_site_fract_z
Si Si1 0.000000 0.500000 0.000000
Si Si2 0.500000 0.000000 0.681215
Si Si3 0.698237 0.750994 0.094114
Si Si4 0.500000 0.500000 0.250000
O O1 0.876622 0.698120 0.044624
O O2 0.273509 0.883275 0.643653
O O3 0.586775 0.751156 0.715734
O O4 0.500000 0.500000 0.096728
O O5 0.500000 0.000000 0.090877
#
# Coordination Sequence:
#
# PCOD9544359 Si02
#       4
#     2   4   8   2
#     4  10  24  42  76 112 156 204 258 312 392 464
#     4  11  28  49  76 110 150 199 262 323 400 472
#     4  11  25  46  73 110 154 201 256 321 387 471
#     4  12  28  48  76 106 148 200 256 328 396 474
#
# _framework density 24.329052000000001
#
# number of rings (size 3 to 8) (size 9 to 14) (size 15 to 20)
#    0.000    1.000    2.500    1.500    3.500   15.000 
#    0.000    0.000    0.000    0.000    0.000    0.000 
#    0.000    0.000    0.000    0.000    0.000    0.000 
#
# Total GULP energy -89138.624594 kJ/mol
# GULP energy per Si atom -5571.164037 kJ/mol
# Density = 2.427368 g / cm^3
# Si number density = 24.329052 Si / 1000 Ang^3
#
#
#
# Elastic Constant Matrix: (Units=GPa)
#
#
# Indices 1 2 3 4 5 6 
#
# 1 183.2213 83.8661 72.2154 0.0000 0.0000 5.7508
# 2 83.8661 183.2213 72.2154 0.0000 0.0000 -5.7508
# 3 72.2154 72.2154 202.8098 0.0000 0.0000 0.0000
# 4 0.0000 0.0000 0.0000 -14.9795 0.0000 0.0000
# 5 0.0000 0.0000 0.0000 0.0000 -14.9795 0.0000
# 6 5.7508 -5.7508 0.0000 0.0000 0.0000 70.2907
#
#
#
# Elastic Compliance Matrix: (Units=1/GPa)
#
#
# Indices 1 2 3 4 5 6 
#
# 1 0.007399 -0.002762 -0.001651 0.000000 0.000000 -0.000831
# 2 -0.002762 0.007399 -0.001651 0.000000 0.000000 0.000831
# 3 -0.001651 -0.001651 0.006107 0.000000 0.000000 0.000000
# 4 0.000000 0.000000 0.000000 -0.066758 0.000000 0.000000
# 5 0.000000 0.000000 0.000000 0.000000 -0.066758 0.000000
# 6 -0.000831 0.000831 0.000000 0.000000 0.000000 0.014363
#
#
# Mechanical properties :
#
#
# Convention : Reuss Voigt Hill
#
# Bulk Modulus (GPa) = 113.94641 113.98289 113.96465
# Shear Modulus (GPa) = -60.10010 30.79670 -14.65170
#
# Velocity S-wave (km/s) = -4.97560 3.56173 -2.45670
# Velocity P-wave (km/s) = 3.73207 7.99167 6.23679
#
# Compressibility (1/GPa) = 0.00877606
#
# Stress axis : x y z
#
# Youngs Moduli (GPa) = 135.15265 135.15265 163.75841
#
# Poissons Ratio (x) = 0.37330 0.27038
# Poissons Ratio (y) = 0.37330 0.27038
# Poissons Ratio (z) = 0.22315 0.22315
#
# Static dielectric constant tensor:
#      x y z
#    x 1.873340 0.000000 0.000000 
#    y 0.000000 1.873340 0.000000 
#    z 0.000000 0.000000 1.913320 
# 
# From -- ./inp_files/4585.got.cif
#   From: 2010.05.17/outbox.cif.g08.bks.cpg/sg84_3_cif.got.tgz:4585.got - 2010.06.03 18:57:40.
