data_PCOD9544522
_publ_section_title
;
Structure prediction by ZEFSAII (Michael W. Deem and Ramdas Pophale) SiO2 
 PCOD9544522
Probable space group: P 4/N
;
_chemical_formula_sum "Si O2"
_cell_formula_units_Z 40
_cell_length_a 14.612553
_cell_length_b 14.612553
_cell_length_c 8.099124
_cell_angle_alpha 90.000000
_cell_angle_beta 90.000000
_cell_angle_gamma 90.000000
_cell_volume 1729.379263
_symmetry_space_group_name_H-M "P 4/N"
_symmetry_group_IT_number 85
_symmetry_cell_setting 'tetragonal'
loop_
_space_group_symop_operation_xyz
x,y,z
1/2-y,x,z
1/2-x,1/2-y,z
y,1/2-x,z
-x,-y,-z
1/2+y,-x,-z
1/2+x,1/2+y,-z
-y,1/2+x,-z
loop_
_atom_site_type_symbol
_atom_site_label
_atom_site_fract_x
_atom_site_fract_y
_atom_site_fract_z
Si Si1 0.663497 0.626639 0.530374
Si Si2 0.688324 0.332931 0.257964
Si Si3 0.567214 0.915613 0.887285
Si Si4 0.965248 0.235089 0.997391
Si Si5 0.565460 0.487103 0.345062
O O1 0.771645 0.626484 0.525138
O O2 0.630390 0.591919 0.709320
O O3 0.631877 0.571478 0.370063
O O4 0.750000 0.250000 0.320023
O O5 0.616142 0.289642 0.126588
O O6 0.621784 0.393376 0.370804
O O7 0.754198 0.408614 0.172060
O O8 0.509576 0.834950 0.971793
O O9 0.658129 0.956304 0.976229
O O10 0.514078 0.006330 0.821607
O O11 0.500000 0.500000 0.500000
#
# Coordination Sequence:
#
# PCOD9544522 Si02
#       5
#     8   8   8   8   8
#     4  10  19  38  64  90 129 173 222 278 331 409
#     4  11  22  44  67  94 141 177 224 286 352 417
#     4  10  21  37  67  92 131 170 227 278 344 418
#     4  11  21  39  65  98 129 178 226 284 349 419
#     4   9  22  40  63  98 131 179 229 280 338 410
#
# _framework density 23.129684999999998
#
# number of rings (size 3 to 8) (size 9 to 14) (size 15 to 20)
#    0.000    1.800    4.000    0.000    0.000    5.200 
#    3.600    0.000    0.000    4.800    0.000    0.000 
#    0.000    0.000    0.000    0.000    0.000    0.000 
#
# Total GULP energy -223396.979661 kJ/mol
# GULP energy per Si atom -5584.924492 kJ/mol
# Density = 2.307704 g / cm^3
# Si number density = 23.129685 Si / 1000 Ang^3
#
#
#
# Elastic Constant Matrix: (Units=GPa)
#
#
# Indices 1 2 3 4 5 6 
#
# 1 121.3991 40.1942 42.6037 0.0000 0.0000 -1.8098
# 2 40.1942 121.3991 42.6037 0.0000 0.0000 1.8098
# 3 42.6037 42.6037 68.6121 0.0000 0.0000 0.0000
# 4 0.0000 0.0000 0.0000 32.0009 0.0000 0.0000
# 5 0.0000 0.0000 0.0000 0.0000 32.0009 0.0000
# 6 -1.8098 1.8098 0.0000 0.0000 0.0000 47.1313
#
#
#
# Elastic Compliance Matrix: (Units=1/GPa)
#
#
# Indices 1 2 3 4 5 6 
#
# 1 0.010768 -0.001567 -0.005713 0.000000 0.000000 0.000474
# 2 -0.001567 0.010768 -0.005713 0.000000 0.000000 -0.000474
# 3 -0.005713 -0.005713 0.021670 0.000000 0.000000 0.000000
# 4 0.000000 0.000000 0.000000 0.031249 0.000000 0.000000
# 5 0.000000 0.000000 0.000000 0.000000 0.031249 0.000000
# 6 0.000474 -0.000474 0.000000 0.000000 0.000000 0.021254
#
#
# Mechanical properties :
#
#
# Convention : Reuss Voigt Hill
#
# Bulk Modulus (GPa) = 58.07590 62.46816 60.27203
# Shear Modulus (GPa) = 31.50893 34.62721 33.06807
#
# Velocity S-wave (km/s) = 3.69490 3.87342 3.78521
# Velocity P-wave (km/s) = 6.58532 6.86083 6.72448
#
# Compressibility (1/GPa) = 0.01721885
#
# Stress axis : x y z
#
# Youngs Moduli (GPa) = 92.86543 92.86543 46.14736
#
# Poissons Ratio (x) = 0.14555 0.26365
# Poissons Ratio (y) = 0.14555 0.26365
# Poissons Ratio (z) = 0.53056 0.53056
#
# Static dielectric constant tensor:
#      x y z
#    x 1.876650 0.000000 0.000000 
#    y 0.000000 1.876650 0.000000 
#    z 0.000000 0.000000 1.941970 
# 
# From -- ./inp_files/930.got.cif
#   From: 2010.05.17/outbox.cif.g08.bks.cpg/sg85_cif.got.tgz:930.got - 2010.06.03 19:01:16.
