data_PCOD9544392
_publ_section_title
;
Structure prediction by ZEFSAII (Michael W. Deem and Ramdas Pophale) SiO2 
 PCOD9544392
Probable space group: P 42/M
;
_chemical_formula_sum "Si O2"
_cell_formula_units_Z 40
_cell_length_a 12.472738
_cell_length_b 12.472738
_cell_length_c 13.302226
_cell_angle_alpha 90.000000
_cell_angle_beta 90.000000
_cell_angle_gamma 90.000000
_cell_volume 2069.416567
_symmetry_space_group_name_H-M "P 42/M"
_symmetry_group_IT_number 84
_symmetry_cell_setting 'tetragonal'
loop_
_space_group_symop_operation_xyz
x,y,z
-y,x,1/2+z
-x,-y,z
y,-x,1/2+z
-x,-y,-z
y,-x,1/2-z
x,y,-z
-y,x,1/2-z
loop_
_atom_site_type_symbol
_atom_site_label
_atom_site_fract_x
_atom_site_fract_y
_atom_site_fract_z
Si Si1 0.005201 0.128813 0.612995
Si Si2 0.050944 0.617401 0.881843
Si Si3 0.649182 0.723963 0.272736
Si Si4 0.871069 0.778290 0.803601
Si Si5 0.627921 0.515091 0.613549
O O1 0.040684 0.155154 0.500000
O O2 0.080652 0.177635 0.698289
O O3 0.882529 0.161526 0.632281
O O4 0.000000 0.000000 0.623351
O O5 0.156456 0.634111 0.814714
O O6 0.000000 0.500000 0.863630
O O7 0.962553 0.707323 0.855245
O O8 0.077996 0.625147 0.000000
O O9 0.763499 0.713946 0.218203
O O10 0.557036 0.688713 0.195103
O O11 0.648575 0.639136 0.363030
O O12 0.500000 0.500000 0.624247
O O13 0.658629 0.486063 0.500000
#
# Coordination Sequence:
#
# PCOD9544392 Si02
#       5
#     8   8   8   8   8
#     4  11  21  38  62  90 124 166 215 259 307 374
#     4  11  25  42  65  98 132 171 217 269 332 390
#     4  12  22  44  68  94 136 168 212 274 322 386
#     4  12  22  41  63  91 132 172 213 265 317 383
#     4  11  24  43  69  97 123 165 218 269 325 385
#
# _framework density 19.329121000000001
#
# number of rings (size 3 to 8) (size 9 to 14) (size 15 to 20)
#    0.000    0.600    6.000    2.400    0.000    4.800 
#    0.000    0.000    0.000    2.400    0.000    0.000 
#    0.000    0.000    0.000    0.000    0.000    0.000 
#
# Total GULP energy -223678.153180 kJ/mol
# GULP energy per Si atom -5591.953829 kJ/mol
# Density = 1.928513 g / cm^3
# Si number density = 19.329121 Si / 1000 Ang^3
#
#
#
# Elastic Constant Matrix: (Units=GPa)
#
#
# Indices 1 2 3 4 5 6 
#
# 1 79.4508 8.6829 16.1408 0.0000 0.0000 4.4476
# 2 8.6829 79.4508 16.1408 0.0000 0.0000 -4.4476
# 3 16.1408 16.1408 95.7989 0.0000 0.0000 0.0000
# 4 0.0000 0.0000 0.0000 14.3060 0.0000 0.0000
# 5 0.0000 0.0000 0.0000 0.0000 14.3060 0.0000
# 6 4.4476 -4.4476 0.0000 0.0000 0.0000 31.3492
#
#
#
# Elastic Compliance Matrix: (Units=1/GPa)
#
#
# Indices 1 2 3 4 5 6 
#
# 1 0.013240 -0.001147 -0.002037 0.000000 0.000000 -0.002041
# 2 -0.001147 0.013240 -0.002037 0.000000 0.000000 0.002041
# 3 -0.002037 -0.002037 0.011125 0.000000 0.000000 0.000000
# 4 0.000000 0.000000 0.000000 0.069901 0.000000 0.000000
# 5 0.000000 0.000000 0.000000 0.000000 0.069901 0.000000
# 6 -0.002041 0.002041 0.000000 0.000000 0.000000 0.032478
#
#
# Mechanical properties :
#
#
# Convention : Reuss Voigt Hill
#
# Bulk Modulus (GPa) = 36.81796 37.40327 37.11061
# Shear Modulus (GPa) = 21.79768 26.24132 24.01950
#
# Velocity S-wave (km/s) = 3.36179 3.68857 3.52896
# Velocity P-wave (km/s) = 5.84449 6.12645 5.98713
#
# Compressibility (1/GPa) = 0.02716066
#
# Stress axis : x y z
#
# Youngs Moduli (GPa) = 75.52887 75.52887 89.88690
#
# Poissons Ratio (x) = 0.08665 0.18314
# Poissons Ratio (y) = 0.08665 0.18314
# Poissons Ratio (z) = 0.15389 0.15389
#
# Static dielectric constant tensor:
#      x y z
#    x 1.690790 0.000000 0.000000 
#    y 0.000000 1.690790 0.000000 
#    z 0.000000 0.000000 1.668010 
# 
# From -- ./inp_files/2905.got.cif
#   From: 2010.05.17/outbox.cif.g08.bks.cpg/sg84_2_cif.got.tgz:2905.got - 2010.06.03 18:57:40.
