data_PCOD9544797
_publ_section_title
;
Structure prediction by ZEFSAII (Michael W. Deem and Ramdas Pophale) SiO2 
 PCOD9544797
Probable space group: P 4/N
;
_chemical_formula_sum "Si O2"
_cell_formula_units_Z 18
_cell_length_a 8.165574
_cell_length_b 8.165574
_cell_length_c 11.970298
_cell_angle_alpha 90.000000
_cell_angle_beta 90.000000
_cell_angle_gamma 90.000000
_cell_volume 798.138757
_symmetry_space_group_name_H-M "P 4/N"
_symmetry_group_IT_number 85
_symmetry_cell_setting 'tetragonal'
loop_
_space_group_symop_operation_xyz
x,y,z
1/2-y,x,z
1/2-x,1/2-y,z
y,1/2-x,z
-x,-y,-z
1/2+y,-x,-z
1/2+x,1/2+y,-z
-y,1/2+x,-z
loop_
_atom_site_type_symbol
_atom_site_label
_atom_site_fract_x
_atom_site_fract_y
_atom_site_fract_z
Si Si1 0.353310 0.001690 0.839851
Si Si2 0.250000 0.750000 0.000000
Si Si3 0.418395 0.466910 0.379943
O O1 0.455556 0.164520 0.863112
O O2 0.399364 0.973590 0.710785
O O3 0.376672 0.843701 0.917392
O O4 0.222304 0.469070 0.364359
O O5 0.500000 0.500000 0.500000
#
# Coordination Sequence:
#
# PCOD9544797 Si02
#       3
#     8   2   8
#     4  11  24  42  66  97 133 178 230 283 345 412
#     4  12  24  44  68  98 140 188 232 288 344 414
#     4  11  24  42  66  97 133 175 225 282 345 412
#
# _framework density 22.552467
#
# number of rings (size 3 to 8) (size 9 to 14) (size 15 to 20)
#    0.000    0.889    0.000    6.667    0.000    8.000 
#    0.000    4.444    0.000    0.000    0.000    0.000 
#    0.000    0.000    0.000    0.000    0.000    0.000 
#
# Total GULP energy -100389.171944 kJ/mol
# GULP energy per Si atom -5577.176219 kJ/mol
# Density = 2.250114 g / cm^3
# Si number density = 22.552467 Si / 1000 Ang^3
#
#
#
# Elastic Constant Matrix: (Units=GPa)
#
#
# Indices 1 2 3 4 5 6 
#
# 1 73.0621 27.8510 44.5368 0.0000 0.0000 -5.7068
# 2 27.8510 73.0621 44.5368 0.0000 0.0000 5.7068
# 3 44.5368 44.5368 182.6684 0.0000 0.0000 0.0000
# 4 0.0000 0.0000 0.0000 43.7327 0.0000 0.0000
# 5 0.0000 0.0000 0.0000 0.0000 43.7327 0.0000
# 6 -5.7068 5.7068 0.0000 0.0000 0.0000 8.8811
#
#
#
# Elastic Compliance Matrix: (Units=1/GPa)
#
#
# Indices 1 2 3 4 5 6 
#
# 1 0.019514 -0.006887 -0.003079 0.000000 0.000000 0.016965
# 2 -0.006887 0.019514 -0.003079 0.000000 0.000000 -0.016965
# 3 -0.003079 -0.003079 0.006976 0.000000 0.000000 0.000000
# 4 0.000000 0.000000 0.000000 0.022866 0.000000 0.000000
# 5 0.000000 0.000000 0.000000 0.000000 0.022866 0.000000
# 6 0.016965 -0.016965 0.000000 0.000000 0.000000 0.134401
#
#
# Mechanical properties :
#
#
# Convention : Reuss Voigt Hill
#
# Bulk Modulus (GPa) = 50.21329 62.51576 56.36452
# Shear Modulus (GPa) = 19.31514 33.39381 26.35448
#
# Velocity S-wave (km/s) = 2.92970 3.85218 3.42217
# Velocity P-wave (km/s) = 5.81013 6.89682 6.37666
#
# Compressibility (1/GPa) = 0.01991505
#
# Stress axis : x y z
#
# Youngs Moduli (GPa) = 51.24503 51.24503 143.35683
#
# Poissons Ratio (x) = 0.35293 0.44134
# Poissons Ratio (y) = 0.35293 0.44134
# Poissons Ratio (z) = 0.15776 0.15776
#
# Static dielectric constant tensor:
#      x y z
#    x 1.909490 0.000000 0.000000 
#    y 0.000000 1.909490 0.000000 
#    z 0.000000 0.000000 1.821170 
# 
# From -- ./inp_files/618.got.cif
#   From: 2010.05.17/outbox.cif.g08.bks.cpg/sg85_cif.got.tgz:618.got - 2010.06.03 19:01:16.
