data_PCOD9544809
_publ_section_title
;
Structure prediction by ZEFSAII (Michael W. Deem and Ramdas Pophale) SiO2 
 PCOD9544809
Probable space group: P 4/N
;
_chemical_formula_sum "Si O2"
_cell_formula_units_Z 16
_cell_length_a 11.411987
_cell_length_b 11.411987
_cell_length_c 4.535590
_cell_angle_alpha 90.000000
_cell_angle_beta 90.000000
_cell_angle_gamma 90.000000
_cell_volume 590.685521
_symmetry_space_group_name_H-M "P 4/N"
_symmetry_group_IT_number 85
_symmetry_cell_setting 'tetragonal'
loop_
_space_group_symop_operation_xyz
x,y,z
1/2-y,x,z
1/2-x,1/2-y,z
y,1/2-x,z
-x,-y,-z
1/2+y,-x,-z
1/2+x,1/2+y,-z
-y,1/2+x,-z
loop_
_atom_site_type_symbol
_atom_site_label
_atom_site_fract_x
_atom_site_fract_y
_atom_site_fract_z
Si Si1 0.513423 0.656133 0.726125
Si Si2 0.477515 0.181355 0.825200
O O1 0.422089 0.551687 0.678433
O O2 0.554080 0.726684 0.436526
O O3 0.447219 0.745971 0.940679
O O4 0.618871 0.612542 0.942225
#
# Coordination Sequence:
#
# PCOD9544809 Si02
#       2
#     8   8
#     4  11  24  43  69 104 148 195 245 304 369 443
#     4  11  24  43  69 104 148 195 245 304 369 443
#
# _framework density 27.087171999999999
#
# number of rings (size 3 to 8) (size 9 to 14) (size 15 to 20)
#    0.000    1.000    0.000    6.000    0.000   15.000 
#    0.000    5.000    0.000    0.000    0.000    0.000 
#    0.000   12.000    0.000    0.000    0.000    0.000 
#
# Total GULP energy -89214.734015 kJ/mol
# GULP energy per Si atom -5575.920876 kJ/mol
# Density = 2.702552 g / cm^3
# Si number density = 27.087172 Si / 1000 Ang^3
#
#
#
# Elastic Constant Matrix: (Units=GPa)
#
#
# Indices 1 2 3 4 5 6 
#
# 1 84.8575 50.1109 71.8394 0.0000 0.0000 -1.6855
# 2 50.1109 84.8575 71.8394 0.0000 0.0000 1.6855
# 3 71.8394 71.8394 228.1610 0.0000 0.0000 0.0000
# 4 0.0000 0.0000 0.0000 44.0959 0.0000 0.0000
# 5 0.0000 0.0000 0.0000 0.0000 44.0959 0.0000
# 6 -1.6855 1.6855 0.0000 0.0000 0.0000 34.3296
#
#
#
# Elastic Compliance Matrix: (Units=1/GPa)
#
#
# Indices 1 2 3 4 5 6 
#
# 1 0.020031 -0.008886 -0.003509 0.000000 0.000000 0.001420
# 2 -0.008886 0.020031 -0.003509 0.000000 0.000000 -0.001420
# 3 -0.003509 -0.003509 0.006593 0.000000 0.000000 0.000000
# 4 0.000000 0.000000 0.000000 0.022678 0.000000 0.000000
# 5 0.000000 0.000000 0.000000 0.000000 0.022678 0.000000
# 6 0.001420 -0.001420 0.000000 0.000000 0.000000 0.029269
#
#
# Mechanical properties :
#
#
# Convention : Reuss Voigt Hill
#
# Bulk Modulus (GPa) = 67.35940 87.27285 77.31612
# Shear Modulus (GPa) = 31.63817 38.11002 34.87410
#
# Velocity S-wave (km/s) = 3.42133 3.75499 3.59203
# Velocity P-wave (km/s) = 6.36623 7.14767 6.76824
#
# Compressibility (1/GPa) = 0.01484574
#
# Stress axis : x y z
#
# Youngs Moduli (GPa) = 49.92236 49.92236 151.68531
#
# Poissons Ratio (x) = 0.44363 0.53227
# Poissons Ratio (y) = 0.44363 0.53227
# Poissons Ratio (z) = 0.17518 0.17518
#
# Static dielectric constant tensor:
#      x y z
#    x 2.222030 0.000000 0.000000 
#    y 0.000000 2.222030 0.000000 
#    z 0.000000 0.000000 2.121510 
# 
# From -- ./inp_files/64.got.cif
#   From: 2010.05.17/outbox.cif.g08.bks.cpg/sg85_cif.got.tgz:64.got - 2010.06.03 19:01:16.
