data_PCOD9544973
_publ_section_title
;
Structure prediction by ZEFSAII (Michael W. Deem and Ramdas Pophale) SiO2 
 PCOD9544973
Probable space group: P 42/N
;
_chemical_formula_sum "Si O2"
_cell_formula_units_Z 48
_cell_length_a 16.193995
_cell_length_b 16.193995
_cell_length_c 9.085882
_cell_angle_alpha 90.000000
_cell_angle_beta 90.000000
_cell_angle_gamma 90.000000
_cell_volume 2382.731432
_symmetry_space_group_name_H-M "P 42/N"
_symmetry_group_IT_number 86
_space_group.IT_coordinate_system_code '2'
_symmetry_cell_setting 'tetragonal'
loop_
_space_group_symop_operation_xyz
x,y,z
-y,1/2+x,1/2+z
1/2-x,1/2-y,z
1/2+y,-x,1/2+z
-x,-y,-z
y,1/2-x,1/2-z
1/2+x,1/2+y,-z
1/2-y,x,1/2-z
loop_
_atom_site_type_symbol
_atom_site_label
_atom_site_fract_x
_atom_site_fract_y
_atom_site_fract_z
Si Si1 0.100381 0.147135 0.683378
Si Si2 0.774766 0.990636 0.365673
Si Si3 0.302890 0.424006 0.315505
Si Si4 0.250000 0.250000 0.250000
Si Si5 0.150547 0.471112 0.135301
Si Si6 0.156799 0.837262 0.691725
Si Si7 0.750000 0.250000 0.058111
Si Si8 0.250000 0.250000 0.750000
O O1 0.049104 0.188379 0.814561
O O2 0.150176 0.062475 0.706943
O O3 0.044913 0.140975 0.538214
O O4 0.174833 0.212735 0.657268
O O5 0.788449 0.978310 0.539736
O O6 0.782793 0.084324 0.316681
O O7 0.266673 0.331949 0.343336
O O8 0.245839 0.456514 0.184145
O O9 0.399903 0.406725 0.291314
O O10 0.131112 0.563563 0.182314
O O11 0.178666 0.784345 0.835267
O O12 0.178189 0.782424 0.548946
#
# Coordination Sequence:
#
# PCOD9544973 Si02
#       8
#     8   8   8   2   8   8   4   2
#     4   9  19  32  52  82 113 145 177 217 268 323
#     4  10  20  34  55  81 111 143 180 223 269 321
#     4   9  19  32  52  82 113 145 177 217 268 323
#     4   8  16  30  48  74 116 154 176 198 264 346
#     4  10  20  34  55  81 111 143 180 223 269 321
#     4  11  22  41  61  79 104 140 187 229 268 319
#     4  10  24  42  62  76 100 148 186 218 268 330
#     4   8  16  30  48  74 116 154 176 198 264 346
#
# _framework density 20.144950000000001
#
# number of rings (size 3 to 8) (size 9 to 14) (size 15 to 20)
#    0.000    2.333    0.000    2.000    0.000   22.667 
#    0.000    3.333    0.000    4.000    0.000    0.000 
#    0.000    0.000    0.000    0.000    0.000    0.000 
#
# Total GULP energy -267644.654943 kJ/mol
# GULP energy per Si atom -5575.930311 kJ/mol
# Density = 2.009910 g / cm^3
# Si number density = 20.144950 Si / 1000 Ang^3
#
#
#
# Elastic Constant Matrix: (Units=GPa)
#
#
# Indices 1 2 3 4 5 6 
#
# 1 47.1914 -30.5860 6.2003 0.0000 0.0000 -2.6386
# 2 -30.5860 47.1914 6.2003 0.0000 0.0000 2.6386
# 3 6.2003 6.2003 51.8656 0.0000 0.0000 0.0000
# 4 0.0000 0.0000 0.0000 16.2191 0.0000 0.0000
# 5 0.0000 0.0000 0.0000 0.0000 16.2191 0.0000
# 6 -2.6386 2.6386 0.0000 0.0000 0.0000 17.6935
#
#
#
# Elastic Compliance Matrix: (Units=1/GPa)
#
#
# Indices 1 2 3 4 5 6 
#
# 1 0.039557 0.026568 -0.007905 0.000000 0.000000 0.001937
# 2 0.026568 0.039557 -0.007905 0.000000 0.000000 -0.001937
# 3 -0.007905 -0.007905 0.021171 0.000000 0.000000 0.000000
# 4 0.000000 0.000000 0.000000 0.061656 0.000000 0.000000
# 5 0.000000 0.000000 0.000000 0.000000 0.061656 0.000000
# 6 0.001937 -0.001937 0.000000 0.000000 0.000000 0.057096
#
#
# Mechanical properties :
#
#
# Convention : Reuss Voigt Hill
#
# Bulk Modulus (GPa) = 8.21013 12.20861 10.20937
# Shear Modulus (GPa) = 16.67920 20.98861 18.83391
#
# Velocity S-wave (km/s) = 2.88055 3.23132 3.06096
# Velocity P-wave (km/s) = 3.89202 4.47162 4.19185
#
# Compressibility (1/GPa) = 0.12180076
#
# Stress axis : x y z
#
# Youngs Moduli (GPa) = 25.28009 25.28009 47.23529
#
# Poissons Ratio (x) = -0.67165 0.37339
# Poissons Ratio (y) = -0.67165 0.37339
# Poissons Ratio (z) = 0.19984 0.19984
#
# Static dielectric constant tensor:
#      x y z
#    x 1.727120 0.000000 0.000000 
#    y 0.000000 1.727120 0.000000 
#    z 0.000000 0.000000 1.715830 
# 
# From -- ./inp_files/1388.got.cif
#   From: 2010.05.17/outbox.cif.g08.bks.cpg/sg86_1_cif.got.tgz:1388.got - 2010.06.03 19:03:11.
