data_PCOD9544171
_publ_section_title
;
Structure prediction by ZEFSAII (Michael W. Deem and Ramdas Pophale) SiO2 
 PCOD9544171
Probable space group: P 42/M
;
_chemical_formula_sum "Si O2"
_cell_formula_units_Z 40
_cell_length_a 15.651290
_cell_length_b 15.651290
_cell_length_c 9.010052
_cell_angle_alpha 90.000000
_cell_angle_beta 90.000000
_cell_angle_gamma 90.000000
_cell_volume 2207.128275
_symmetry_space_group_name_H-M "P 42/M"
_symmetry_group_IT_number 84
_symmetry_cell_setting 'tetragonal'
loop_
_space_group_symop_operation_xyz
x,y,z
-y,x,1/2+z
-x,-y,z
y,-x,1/2+z
-x,-y,-z
y,-x,1/2-z
x,y,-z
-y,x,1/2-z
loop_
_atom_site_type_symbol
_atom_site_label
_atom_site_fract_x
_atom_site_fract_y
_atom_site_fract_z
Si Si1 0.984011 0.754156 0.176600
Si Si2 0.803875 0.837293 0.820899
Si Si3 0.304400 0.662641 0.320744
Si Si4 0.579833 0.062584 0.173510
Si Si5 0.469669 0.742277 0.177751
O O1 0.898529 0.805649 0.221396
O O2 0.966474 0.657193 0.224750
O O3 0.070428 0.785133 0.253591
O O4 0.993031 0.760859 0.000000
O O5 0.732529 0.767127 0.774048
O O6 0.799788 0.842257 0.000000
O O7 0.307809 0.665483 0.500000
O O8 0.396182 0.687721 0.255937
O O9 0.279136 0.566445 0.276041
O O10 0.550948 0.158640 0.207875
O O11 0.500000 0.000000 0.190124
O O12 0.607045 0.059404 0.000000
O O13 0.464423 0.729600 0.000000
#
# Coordination Sequence:
#
# PCOD9544171 Si02
#       5
#     8   8   8   8   8
#     4  11  23  38  61  90 118 155 201 249 297 348
#     4  10  22  41  61  84 121 161 196 242 303 360
#     4  10  21  40  61  83 120 160 196 244 299 353
#     4  10  20  37  61  87 118 156 199 246 301 360
#     4  10  21  36  59  87 114 155 202 242 294 354
#
# _framework density 18.123097999999999
#
# number of rings (size 3 to 8) (size 9 to 14) (size 15 to 20)
#    0.000    1.800    2.000    1.800    0.000    7.600 
#    0.000    6.000    0.000    0.000    0.000    0.000 
#    0.000    0.000    0.000    0.000    0.000    0.000 
#
# Total GULP energy -223408.489305 kJ/mol
# GULP energy per Si atom -5585.212233 kJ/mol
# Density = 1.808185 g / cm^3
# Si number density = 18.123098 Si / 1000 Ang^3
#
#
#
# Elastic Constant Matrix: (Units=GPa)
#
#
# Indices 1 2 3 4 5 6 
#
# 1 135.9793 62.2428 32.2625 0.0000 0.0000 -3.3338
# 2 62.2428 135.9793 32.2625 0.0000 0.0000 3.3338
# 3 32.2625 32.2625 9.1108 0.0000 0.0000 0.0000
# 4 0.0000 0.0000 0.0000 33.0651 0.0000 0.0000
# 5 0.0000 0.0000 0.0000 0.0000 33.0651 0.0000
# 6 -3.3338 3.3338 0.0000 0.0000 0.0000 31.6063
#
#
#
# Elastic Compliance Matrix: (Units=1/GPa)
#
#
# Indices 1 2 3 4 5 6 
#
# 1 -0.009672 -0.023365 0.116989 0.000000 0.000000 0.001444
# 2 -0.023365 -0.009672 0.116989 0.000000 0.000000 -0.001444
# 3 0.116989 0.116989 -0.718782 0.000000 0.000000 0.000000
# 4 0.000000 0.000000 0.000000 0.030243 0.000000 0.000000
# 5 0.000000 0.000000 0.000000 0.000000 0.030243 0.000000
# 6 0.001444 -0.001444 0.000000 0.000000 0.000000 0.031944
#
#
# Mechanical properties :
#
#
# Convention : Reuss Voigt Hill
#
# Bulk Modulus (GPa) = -3.15555 59.40058 28.12251
# Shear Modulus (GPa) = -4.26419 29.83408 12.78494
#
# Velocity S-wave (km/s) = -1.53558 4.06173 2.65891
# Velocity P-wave (km/s) = 2.21110 7.40569 4.99776
#
# Compressibility (1/GPa) = -0.31690185
#
# Stress axis : x y z
#
# Youngs Moduli (GPa) = -103.38719 -103.38719 -1.39124
#
# Poissons Ratio (x) = -2.41562 0.16276
# Poissons Ratio (y) = -2.41562 0.16276
# Poissons Ratio (z) = 12.09512 12.09512
#
# Static dielectric constant tensor:
#      x y z
#    x 1.599250 0.000000 0.000000 
#    y 0.000000 1.599250 0.000000 
#    z 0.000000 0.000000 1.612430 
# 
# From -- ./inp_files/737.got.cif
#   From: 2010.05.17/outbox.cif.g08.bks.cpg/sg84_1_cif.got.tgz:737.got - 2010.06.03 18:57:40.
