data_PCOD9544819
_publ_section_title
;
Structure prediction by ZEFSAII (Michael W. Deem and Ramdas Pophale) SiO2 
 PCOD9544819
Probable space group: P 4/N
;
_chemical_formula_sum "Si O2"
_cell_formula_units_Z 26
_cell_length_a 16.033782
_cell_length_b 16.033782
_cell_length_c 4.916960
_cell_angle_alpha 90.000000
_cell_angle_beta 90.000000
_cell_angle_gamma 90.000000
_cell_volume 1264.062723
_symmetry_space_group_name_H-M "P 4/N"
_symmetry_group_IT_number 85
_symmetry_cell_setting 'tetragonal'
loop_
_space_group_symop_operation_xyz
x,y,z
1/2-y,x,z
1/2-x,1/2-y,z
y,1/2-x,z
-x,-y,-z
1/2+y,-x,-z
1/2+x,1/2+y,-z
-y,1/2+x,-z
loop_
_atom_site_type_symbol
_atom_site_label
_atom_site_fract_x
_atom_site_fract_y
_atom_site_fract_z
Si Si1 0.250000 0.250000 0.876006
Si Si2 0.490038 0.579374 0.198406
Si Si3 0.014624 0.359134 0.486965
Si Si4 0.750238 0.552283 0.021694
O O1 0.237075 0.352390 0.885664
O O2 0.403342 0.565975 0.355592
O O3 0.563633 0.573245 0.423094
O O4 0.505139 0.661941 0.026559
O O5 0.500000 0.500000 0.000000
O O6 0.004462 0.307264 0.760663
O O7 0.053468 0.297918 0.263644
#
# Coordination Sequence:
#
# PCOD9544819 Si02
#       4
#     2   8   8   8
#     4  12  24  38  60 106 144 166 216 278 372 398
#     4  11  24  47  68  97 144 186 232 275 353 421
#     4  11  25  42  65 100 128 189 225 270 339 416
#     4  12  26  40  68 100 141 175 226 290 338 427
#
# _framework density 20.568601000000001
#
# number of rings (size 3 to 8) (size 9 to 14) (size 15 to 20)
#    0.000    0.615    6.154    0.000   12.923    1.231 
#    0.000    0.000    0.000    5.538    0.000    0.000 
#    0.000    0.000    0.000    0.000    0.000    0.000 
#
# Total GULP energy -144784.681019 kJ/mol
# GULP energy per Si atom -5568.641578 kJ/mol
# Density = 2.052179 g / cm^3
# Si number density = 20.568601 Si / 1000 Ang^3
#
#
#
# Elastic Constant Matrix: (Units=GPa)
#
#
# Indices 1 2 3 4 5 6 
#
# 1 82.4412 12.4573 8.6353 0.0000 0.0000 -3.4929
# 2 12.4573 82.4412 8.6353 0.0000 0.0000 3.4929
# 3 8.6353 8.6353 95.7487 0.0000 0.0000 0.0000
# 4 0.0000 0.0000 0.0000 20.0088 0.0000 0.0000
# 5 0.0000 0.0000 0.0000 0.0000 20.0088 0.0000
# 6 -3.4929 3.4929 0.0000 0.0000 0.0000 23.9959
#
#
#
# Elastic Compliance Matrix: (Units=1/GPa)
#
#
# Indices 1 2 3 4 5 6 
#
# 1 0.012607 -0.001893 -0.000966 0.000000 0.000000 0.002111
# 2 -0.001893 0.012607 -0.000966 0.000000 0.000000 -0.002111
# 3 -0.000966 -0.000966 0.010618 0.000000 0.000000 0.000000
# 4 0.000000 0.000000 0.000000 0.049978 0.000000 0.000000
# 5 0.000000 0.000000 0.000000 0.000000 0.049978 0.000000
# 6 0.002111 -0.002111 0.000000 0.000000 0.000000 0.042288
#
#
# Mechanical properties :
#
#
# Convention : Reuss Voigt Hill
#
# Bulk Modulus (GPa) = 35.48582 35.56521 35.52551
# Shear Modulus (GPa) = 25.62524 28.19625 26.91075
#
# Velocity S-wave (km/s) = 3.53348 3.70650 3.62102
# Velocity P-wave (km/s) = 5.82556 5.97044 5.89844
#
# Compressibility (1/GPa) = 0.02818027
#
# Stress axis : x y z
#
# Youngs Moduli (GPa) = 79.32386 79.32386 94.17716
#
# Poissons Ratio (x) = 0.15017 0.09099
# Poissons Ratio (y) = 0.15017 0.09099
# Poissons Ratio (z) = 0.07664 0.07664
#
# Static dielectric constant tensor:
#      x y z
#    x 1.760430 0.000000 0.000000 
#    y 0.000000 1.760430 0.000000 
#    z 0.000000 0.000000 1.807940 
# 
# From -- ./inp_files/204.got.cif
#   From: 2010.05.17/outbox.cif.g08.bks.cpg/sg85_cif.got.tgz:204.got - 2010.06.03 19:01:16.
