data_PCOD9544137
_publ_section_title
;
Structure prediction by ZEFSAII (Michael W. Deem and Ramdas Pophale) SiO2 
 PCOD9544137
Probable space group: P 42/M
;
_chemical_formula_sum "Si O2"
_cell_formula_units_Z 48
_cell_length_a 8.705729
_cell_length_b 8.705729
_cell_length_c 29.056924
_cell_angle_alpha 90.000000
_cell_angle_beta 90.000000
_cell_angle_gamma 90.000000
_cell_volume 2202.216059
_symmetry_space_group_name_H-M "P 42/M"
_symmetry_group_IT_number 84
_symmetry_cell_setting 'tetragonal'
loop_
_space_group_symop_operation_xyz
x,y,z
-y,x,1/2+z
-x,-y,z
y,-x,1/2+z
-x,-y,-z
y,-x,1/2-z
x,y,-z
-y,x,1/2-z
loop_
_atom_site_type_symbol
_atom_site_label
_atom_site_fract_x
_atom_site_fract_y
_atom_site_fract_z
Si Si1 0.560591 0.658964 0.372799
Si Si2 0.012755 0.316871 0.684298
Si Si3 0.300884 0.383197 0.272148
Si Si4 0.190251 0.247513 0.133268
Si Si5 0.175451 0.152397 0.598241
Si Si6 0.330585 0.073861 0.051196
O O1 0.500000 0.500000 0.393007
O O2 0.647824 0.610268 0.325779
O O3 0.424263 0.773704 0.358575
O O4 0.669008 0.752296 0.406921
O O5 0.131241 0.309232 0.726849
O O6 0.095808 0.228675 0.642694
O O7 0.000000 0.500000 0.675528
O O8 0.848234 0.235353 0.678901
O O9 0.299280 0.556157 0.252312
O O10 0.304479 0.192155 0.092521
O O11 0.021948 0.210395 0.112824
O O12 0.056950 0.199109 0.558465
O O13 0.500000 0.000000 0.055766
O O14 0.316994 0.139832 0.000000
#
# Coordination Sequence:
#
# PCOD9544137 Si02
#       6
#     8   8   8   8   8   8
#     4  11  20  37  65  86 114 157 212 250 299 371
#     4  10  20  35  61  82 112 158 202 243 297 369
#     4  10  20  37  61  83 110 147 202 251 304 361
#     4  11  21  36  61  90 125 162 203 251 308 378
#     4  10  21  36  58  91 122 157 204 250 302 364
#     4  10  20  37  61  91 124 164 210 254 301 360
#
# _framework density 21.796226999999998
#
# number of rings (size 3 to 8) (size 9 to 14) (size 15 to 20)
#    0.000    1.667    1.667    7.500    0.000    1.333 
#    0.000    4.167    3.667    5.000    0.000    0.000 
#    0.000    0.000    0.000    0.000    0.000    0.000 
#
# Total GULP energy -267698.018084 kJ/mol
# GULP energy per Si atom -5577.042043 kJ/mol
# Density = 2.174662 g / cm^3
# Si number density = 21.796227 Si / 1000 Ang^3
#
#
#
# Elastic Constant Matrix: (Units=GPa)
#
#
# Indices 1 2 3 4 5 6 
#
# 1 83.5324 -2.0342 6.6709 0.0000 0.0000 4.4548
# 2 -2.0342 83.5324 6.6709 0.0000 0.0000 -4.4548
# 3 6.6709 6.6709 68.3581 0.0000 0.0000 0.0000
# 4 0.0000 0.0000 0.0000 14.9663 0.0000 0.0000
# 5 0.0000 0.0000 0.0000 0.0000 14.9663 0.0000
# 6 4.4548 -4.4548 0.0000 0.0000 0.0000 33.7712
#
#
#
# Elastic Compliance Matrix: (Units=1/GPa)
#
#
# Indices 1 2 3 4 5 6 
#
# 1 0.012159 0.000310 -0.001217 0.000000 0.000000 -0.001563
# 2 0.000310 0.012159 -0.001217 0.000000 0.000000 0.001563
# 3 -0.001217 -0.001217 0.014866 0.000000 0.000000 0.000000
# 4 0.000000 0.000000 0.000000 0.066817 0.000000 0.000000
# 5 0.000000 0.000000 0.000000 0.000000 0.066817 0.000000
# 6 -0.001563 0.001563 0.000000 0.000000 0.000000 0.030023
#
#
# Mechanical properties :
#
#
# Convention : Reuss Voigt Hill
#
# Bulk Modulus (GPa) = 28.62234 28.67090 28.64662
# Shear Modulus (GPa) = 22.85862 27.68178 25.27020
#
# Velocity S-wave (km/s) = 3.24194 3.56761 3.40867
# Velocity P-wave (km/s) = 5.21286 5.49118 5.35383
#
# Compressibility (1/GPa) = 0.03493774
#
# Stress axis : x y z
#
# Youngs Moduli (GPa) = 82.24031 82.24031 67.26599
#
# Poissons Ratio (x) = -0.02549 0.08185
# Poissons Ratio (y) = -0.02549 0.08185
# Poissons Ratio (z) = 0.10007 0.10007
#
# Static dielectric constant tensor:
#      x y z
#    x 1.887060 0.000000 0.000000 
#    y 0.000000 1.887060 0.000000 
#    z 0.000000 0.000000 1.773420 
# 
# From -- ./inp_files/5802.got.cif
#   From: 2010.05.17/outbox.cif.g08.bks.cpg/sg84_3_cif.got.tgz:5802.got - 2010.06.03 18:57:40.
