data_PCOD9544377
_publ_section_title
;
Structure prediction by ZEFSAII (Michael W. Deem and Ramdas Pophale) SiO2 
 PCOD9544377
Probable space group: P 42/M
;
_chemical_formula_sum "Si O2"
_cell_formula_units_Z 40
_cell_length_a 9.149042
_cell_length_b 9.149042
_cell_length_c 24.036817
_cell_angle_alpha 90.000000
_cell_angle_beta 90.000000
_cell_angle_gamma 90.000000
_cell_volume 2012.001034
_symmetry_space_group_name_H-M "P 42/M"
_symmetry_group_IT_number 84
_symmetry_cell_setting 'tetragonal'
loop_
_space_group_symop_operation_xyz
x,y,z
-y,x,1/2+z
-x,-y,z
y,-x,1/2+z
-x,-y,-z
y,-x,1/2-z
x,y,-z
-y,x,1/2-z
loop_
_atom_site_type_symbol
_atom_site_label
_atom_site_fract_x
_atom_site_fract_y
_atom_site_fract_z
Si Si1 0.713602 0.563868 0.223381
Si Si2 0.373871 0.878372 0.882431
Si Si3 0.343347 0.207693 0.000000
Si Si4 0.875152 0.688919 0.500000
Si Si5 0.227892 0.936135 0.767443
Si Si6 0.404318 0.370871 0.894076
O O1 0.671331 0.406192 0.247514
O O2 0.870510 0.629271 0.237700
O O3 0.686924 0.569807 0.157528
O O4 0.274210 0.934286 0.832250
O O5 0.476330 0.741028 0.868385
O O6 0.500000 0.000000 0.896408
O O7 0.276147 0.834550 0.936208
O O8 0.518192 0.175585 0.000000
O O9 0.314954 0.293261 0.056968
O O10 0.276987 0.047554 0.000000
O O11 0.092702 0.827563 0.753721
O O12 0.500000 0.500000 0.920343
#
# Coordination Sequence:
#
# PCOD9544377 Si02
#       6
#     8   8   4   4   8   8
#     4  11  20  36  56  82 112 145 186 224 276 334
#     4  11  18  35  58  76 108 147 184 230 274 324
#     4   9  17  28  46  79 108 138 171 224 278 320
#     4   9  16  30  52  82  99 137 195 222 264 331
#     4  11  25  37  52  81 113 150 184 228 278 331
#     4  11  18  30  50  82 112 135 174 230 273 328
#
# _framework density 19.880707000000001
#
# number of rings (size 3 to 8) (size 9 to 14) (size 15 to 20)
#    0.000    1.400    8.000    1.500    0.000    0.000 
#    0.000    0.000    0.000    3.600    0.000    0.000 
#    0.000    9.600    0.000    0.100    0.000    0.000 
#
# Total GULP energy -222816.433930 kJ/mol
# GULP energy per Si atom -5570.410848 kJ/mol
# Density = 1.983546 g / cm^3
# Si number density = 19.880707 Si / 1000 Ang^3
#
#
#
# Elastic Constant Matrix: (Units=GPa)
#
#
# Indices 1 2 3 4 5 6 
#
# 1 37.0777 16.4687 1.9608 0.0000 0.0000 4.0781
# 2 16.4687 37.0777 1.9608 0.0000 0.0000 -4.0781
# 3 1.9608 1.9608 143.7292 0.0000 0.0000 0.0000
# 4 0.0000 0.0000 0.0000 16.1283 0.0000 0.0000
# 5 0.0000 0.0000 0.0000 0.0000 16.1283 0.0000
# 6 4.0781 -4.0781 0.0000 0.0000 0.0000 30.7024
#
#
#
# Elastic Compliance Matrix: (Units=1/GPa)
#
#
# Indices 1 2 3 4 5 6 
#
# 1 0.034954 -0.016260 -0.000255 0.000000 0.000000 -0.006803
# 2 -0.016260 0.034954 -0.000255 0.000000 0.000000 0.006803
# 3 -0.000255 -0.000255 0.006964 0.000000 0.000000 0.000000
# 4 0.000000 0.000000 0.000000 0.062003 0.000000 0.000000
# 5 0.000000 0.000000 0.000000 0.000000 0.062003 0.000000
# 6 -0.006803 0.006803 0.000000 0.000000 0.000000 0.034378
#
#
# Mechanical properties :
#
#
# Convention : Reuss Voigt Hill
#
# Bulk Modulus (GPa) = 23.07736 28.74056 25.90896
# Shear Modulus (GPa) = 17.65275 25.75808 21.70541
#
# Velocity S-wave (km/s) = 2.98305 3.60339 3.30780
# Velocity P-wave (km/s) = 4.84747 5.63919 5.25825
#
# Compressibility (1/GPa) = 0.04333252
#
# Stress axis : x y z
#
# Youngs Moduli (GPa) = 28.60873 28.60873 143.58557
#
# Poissons Ratio (x) = 0.46519 0.03662
# Poissons Ratio (y) = 0.46519 0.03662
# Poissons Ratio (z) = 0.00730 0.00730
#
# Static dielectric constant tensor:
#      x y z
#    x 1.726100 0.000000 0.000000 
#    y 0.000000 1.726100 0.000000 
#    z 0.000000 0.000000 1.763480 
# 
# From -- ./inp_files/5393.got.cif
#   From: 2010.05.17/outbox.cif.g08.bks.cpg/sg84_3_cif.got.tgz:5393.got - 2010.06.03 18:57:40.
