data_PCOD9544477
_publ_section_title
;
Structure prediction by ZEFSAII (Michael W. Deem and Ramdas Pophale) SiO2 
 PCOD9544477
Probable space group: P 42/M
;
_chemical_formula_sum "Si O2"
_cell_formula_units_Z 58
_cell_length_a 18.000000
_cell_length_b 18.000000
_cell_length_c 9.000000
_cell_angle_alpha 90.000000
_cell_angle_beta 90.000000
_cell_angle_gamma 90.000000
_cell_volume 2916.000000
_symmetry_space_group_name_H-M "P 42/M"
_symmetry_group_IT_number 84
_symmetry_cell_setting 'tetragonal'
loop_
_space_group_symop_operation_xyz
x,y,z
-y,x,1/2+z
-x,-y,z
y,-x,1/2+z
-x,-y,-z
y,-x,1/2-z
x,y,-z
-y,x,1/2-z
loop_
_atom_site_type_symbol
_atom_site_label
_atom_site_fract_x
_atom_site_fract_y
_atom_site_fract_z
Si Si1 0.363645 0.421319 0.321675
Si Si2 0.647187 0.751679 0.331474
Si Si3 0.679688 0.974686 0.321000
Si Si4 0.841039 0.233341 0.674073
Si Si5 0.109661 0.537146 0.169477
Si Si6 0.123330 0.260948 0.673307
Si Si7 0.805930 0.582589 0.328548
Si Si8 0.500000 0.500000 0.750000
O O1 0.376178 0.441601 0.500000
O O2 0.375989 0.333010 0.311366
O O3 0.277971 0.435123 0.280722
O O4 0.418801 0.465149 0.212994
O O5 0.680231 0.757796 0.500000
O O6 0.704998 0.778010 0.208083
O O7 0.581501 0.811783 0.327057
O O8 0.678821 0.976596 0.500000
O O9 0.735369 0.910877 0.264479
O O10 0.596633 0.949699 0.270559
O O11 0.708126 0.050173 0.251241
O O12 0.856563 0.227924 0.500000
O O13 0.808755 0.157785 0.741584
O O14 0.128519 0.461046 0.248596
O O15 0.089849 0.521218 0.000000
O O16 0.110265 0.244701 0.500000
O O17 0.180831 0.329736 0.681854
O O18 0.809818 0.560889 0.500000
#
# Coordination Sequence:
#
# PCOD9544477 Si02
#       8
#     8   8   8   8   8   8   8   2
#     4  10  20  36  52  72 105 149 197 250 307 356
#     4   9  17  35  57  75 107 153 196 243 302 355
#     4  10  22  40  61  88 121 156 192 237 290 344
#     4  11  21  36  61  92 119 150 193 238 283 344
#     4   9  19  34  54  80 113 151 190 239 296 350
#     4  11  22  39  62  88 119 156 195 238 289 346
#     4  10  21  36  56  78 111 154 195 245 302 355
#     4  12  22  32  52  78 108 148 206 260 308 362
#
# _framework density 19.890260999999999
#
# number of rings (size 3 to 8) (size 9 to 14) (size 15 to 20)
#    0.000    1.931    1.379    3.931    0.000    4.414 
#    0.000    4.828    0.000    0.414    0.000    2.897 
#    0.000    0.000    0.000    0.000    0.000    0.000 
#
# Total GULP energy -323292.232944 kJ/mol
# GULP energy per Si atom -5574.004016 kJ/mol
# Density = 1.984499 g / cm^3
# Si number density = 19.890261 Si / 1000 Ang^3
#
#
#
# Elastic Constant Matrix: (Units=GPa)
#
#
# Indices 1 2 3 4 5 6 
#
# 1 69.2757 5.1215 11.5486 0.0000 0.0000 -1.7968
# 2 5.1215 69.2757 11.5486 0.0000 0.0000 1.7968
# 3 11.5486 11.5486 42.9627 0.0000 0.0000 0.0000
# 4 0.0000 0.0000 0.0000 30.9618 0.0000 0.0000
# 5 0.0000 0.0000 0.0000 0.0000 30.9618 0.0000
# 6 -1.7968 1.7968 0.0000 0.0000 0.0000 12.4967
#
#
#
# Elastic Compliance Matrix: (Units=1/GPa)
#
#
# Indices 1 2 3 4 5 6 
#
# 1 0.015190 -0.000524 -0.003942 0.000000 0.000000 0.002259
# 2 -0.000524 0.015190 -0.003942 0.000000 0.000000 -0.002259
# 3 -0.003942 -0.003942 0.025395 0.000000 0.000000 0.000000
# 4 0.000000 0.000000 0.000000 0.032298 0.000000 0.000000
# 5 0.000000 0.000000 0.000000 0.000000 0.032298 0.000000
# 6 0.002259 -0.002259 0.000000 0.000000 0.000000 0.080671
#
#
# Mechanical properties :
#
#
# Convention : Reuss Voigt Hill
#
# Bulk Modulus (GPa) = 25.66904 26.43903 26.05404
# Shear Modulus (GPa) = 21.65963 25.10375 23.38169
#
# Velocity S-wave (km/s) = 3.30351 3.55648 3.43233
# Velocity P-wave (km/s) = 5.24255 5.49418 5.36984
#
# Compressibility (1/GPa) = 0.03895743
#
# Stress axis : x y z
#
# Youngs Moduli (GPa) = 65.83448 65.83448 39.37738
#
# Poissons Ratio (x) = 0.03452 0.15523
# Poissons Ratio (y) = 0.03452 0.15523
# Poissons Ratio (z) = 0.25952 0.25952
#
# Static dielectric constant tensor:
#      x y z
#    x 1.724510 0.000000 0.000000 
#    y 0.000000 1.724510 0.000000 
#    z 0.000000 0.000000 1.709150 
# 
# From -- ./inp_files/1159.got.cif
#   From: 2010.05.17/outbox.ucp.g08.bks.cvg/sg84_1_cif.got.tgz:1159.got - 2010.06.11 10:34:57.
