data_PCOD9544485
_publ_section_title
;
Structure prediction by ZEFSAII (Michael W. Deem and Ramdas Pophale) SiO2 
 PCOD9544485
Probable space group: P 4/N
;
_chemical_formula_sum "Si O2"
_cell_formula_units_Z 50
_cell_length_a 15.677311
_cell_length_b 15.677311
_cell_length_c 11.441841
_cell_angle_alpha 90.000000
_cell_angle_beta 90.000000
_cell_angle_gamma 90.000000
_cell_volume 2812.153715
_symmetry_space_group_name_H-M "P 4/N"
_symmetry_group_IT_number 85
_symmetry_cell_setting 'tetragonal'
loop_
_space_group_symop_operation_xyz
x,y,z
1/2-y,x,z
1/2-x,1/2-y,z
y,1/2-x,z
-x,-y,-z
1/2+y,-x,-z
1/2+x,1/2+y,-z
-y,1/2+x,-z
loop_
_atom_site_type_symbol
_atom_site_label
_atom_site_fract_x
_atom_site_fract_y
_atom_site_fract_z
Si Si1 0.278666 0.561928 0.387939
Si Si2 0.750000 0.750000 0.855942
Si Si3 0.066579 0.619271 0.939436
Si Si4 0.758218 0.547806 0.823926
Si Si5 0.861829 0.089213 0.371921
Si Si6 0.978588 0.050592 0.173845
Si Si7 0.789720 0.342221 0.219206
O O1 0.271863 0.478859 0.306702
O O2 0.183286 0.600648 0.403132
O O3 0.325482 0.548959 0.510208
O O4 0.327528 0.634180 0.312816
O O5 0.740346 0.644990 0.852779
O O6 0.163858 0.624391 0.896329
O O7 0.016082 0.705411 0.907614
O O8 0.021535 0.544721 0.863523
O O9 0.056165 0.593088 0.073223
O O10 0.858087 0.525473 0.829243
O O11 0.934524 0.040331 0.299592
O O12 0.783430 0.104007 0.282343
O O13 0.750000 0.250000 0.193513
#
# Coordination Sequence:
#
# PCOD9544485 Si02
#       7
#     8   2   8   8   8   8   8
#     4   9  17  31  52  80 116 137 185 228 269 334
#     4  12  20  40  64  72 106 148 204 212 272 334
#     4  10  21  39  52  81 119 140 185 243 274 328
#     4  10  21  37  57  83 106 149 187 231 275 327
#     4  10  17  31  53  80 109 153 178 217 286 339
#     4  10  22  36  56  81 116 147 183 235 284 328
#     4   9  18  31  52  78 110 147 178 224 280 333
#
# _framework density 17.779966999999999
#
# number of rings (size 3 to 8) (size 9 to 14) (size 15 to 20)
#    0.000    2.240    3.200    0.960    2.240    0.000 
#    0.000    4.800    0.000    0.000    0.000    1.120 
#    0.000    0.000    0.000    0.000    0.000    0.000 
#
# Total GULP energy -278439.890756 kJ/mol
# GULP energy per Si atom -5568.797815 kJ/mol
# Density = 1.773950 g / cm^3
# Si number density = 17.779967 Si / 1000 Ang^3
#
#
#
# Elastic Constant Matrix: (Units=GPa)
#
#
# Indices 1 2 3 4 5 6 
#
# 1 51.9657 -0.0092 22.8864 0.0000 0.0000 9.1306
# 2 -0.0092 51.9657 22.8864 0.0000 0.0000 -9.1306
# 3 22.8864 22.8864 69.7863 0.0000 0.0000 0.0000
# 4 0.0000 0.0000 0.0000 18.7398 0.0000 0.0000
# 5 0.0000 0.0000 0.0000 0.0000 18.7398 0.0000
# 6 9.1306 -9.1306 0.0000 0.0000 0.0000 23.7463
#
#
#
# Elastic Compliance Matrix: (Units=1/GPa)
#
#
# Indices 1 2 3 4 5 6 
#
# 1 0.024656 0.002411 -0.008877 0.000000 0.000000 -0.008553
# 2 0.002411 0.024656 -0.008877 0.000000 0.000000 0.008553
# 3 -0.008877 -0.008877 0.020152 0.000000 0.000000 0.000000
# 4 0.000000 0.000000 0.000000 0.053362 0.000000 0.000000
# 5 0.000000 0.000000 0.000000 0.000000 0.053362 0.000000
# 6 -0.008553 0.008553 0.000000 0.000000 0.000000 0.048690
#
#
# Mechanical properties :
#
#
# Convention : Reuss Voigt Hill
#
# Bulk Modulus (GPa) = 25.78700 29.47163 27.62931
# Shear Modulus (GPa) = 18.62271 20.77546 19.69908
#
# Velocity S-wave (km/s) = 3.23987 3.42201 3.33218
# Velocity P-wave (km/s) = 5.34140 5.67673 5.51161
#
# Compressibility (1/GPa) = 0.03877923
#
# Stress axis : x y z
#
# Youngs Moduli (GPa) = 40.55781 40.55781 49.62376
#
# Poissons Ratio (x) = -0.09778 0.44049
# Poissons Ratio (y) = -0.09778 0.44049
# Poissons Ratio (z) = 0.36002 0.36002
#
# Static dielectric constant tensor:
#      x y z
#    x 1.607600 0.000000 0.000000 
#    y 0.000000 1.607600 0.000000 
#    z 0.000000 0.000000 1.618590 
# 
# From -- ./inp_files/1696.got.cif
#   From: 2010.05.17/outbox.cif.g08.bks.cpg/sg85_cif.got.tgz:1696.got - 2010.06.03 19:01:16.
