data_PCOD9544476
_publ_section_title
;
Structure prediction by ZEFSAII (Michael W. Deem and Ramdas Pophale) SiO2 
 PCOD9544476
Probable space group: P 42/M
;
_chemical_formula_sum "Si O2"
_cell_formula_units_Z 64
_cell_length_a 21.000000
_cell_length_b 21.000000
_cell_length_c 9.000000
_cell_angle_alpha 90.000000
_cell_angle_beta 90.000000
_cell_angle_gamma 90.000000
_cell_volume 3969.000000
_symmetry_space_group_name_H-M "P 42/M"
_symmetry_group_IT_number 84
_symmetry_cell_setting 'tetragonal'
loop_
_space_group_symop_operation_xyz
x,y,z
-y,x,1/2+z
-x,-y,z
y,-x,1/2+z
-x,-y,-z
y,-x,1/2-z
x,y,-z
-y,x,1/2-z
loop_
_atom_site_type_symbol
_atom_site_label
_atom_site_fract_x
_atom_site_fract_y
_atom_site_fract_z
Si Si1 0.290918 0.787724 0.822079
Si Si2 0.328942 0.207414 0.321908
Si Si3 0.134730 0.547108 0.823227
Si Si4 0.170794 0.856595 0.321845
Si Si5 0.365753 0.009516 0.321785
Si Si6 0.030068 0.089031 0.823347
Si Si7 0.590866 0.124734 0.820755
Si Si8 0.088448 0.740255 0.323502
O O1 0.270685 0.713571 0.788575
O O2 0.233891 0.830471 0.755428
O O3 0.358186 0.819676 0.776201
O O4 0.288865 0.792660 0.000000
O O5 0.319789 0.194176 0.500000
O O6 0.404225 0.194272 0.296293
O O7 0.297606 0.152485 0.222382
O O8 0.068423 0.585219 0.787839
O O9 0.138297 0.480597 0.737099
O O10 0.132723 0.534089 0.000000
O O11 0.178166 0.850468 0.500000
O O12 0.151837 0.929106 0.288990
O O13 0.110773 0.811177 0.279801
O O14 0.364068 0.002674 0.500000
O O15 0.296864 0.032672 0.261800
O O16 0.387046 0.943300 0.247486
O O17 0.970370 0.075914 0.718100
O O18 0.014668 0.087622 0.000000
O O19 0.590711 0.120256 0.000000
O O20 0.076936 0.737619 0.500000
#
# Coordination Sequence:
#
# PCOD9544476 Si02
#       8
#     8   8   8   8   8   8   8   8
#     4   9  19  34  50  69  94 122 150 182 223 270
#     4   8  15  31  51  67  87 119 157 189 219 263
#     4   9  18  32  50  69  90 123 163 195 224 267
#     4   9  19  33  49  68  89 114 147 188 232 279
#     4  10  20  33  47  65  93 130 168 198 226 270
#     4  10  20  34  48  63  81 103 137 182 232 280
#     4  11  22  32  45  70 101 127 152 189 236 276
#     4   9  16  28  46  68  91 115 150 194 234 269
#
# _framework density 16.124969
#
# number of rings (size 3 to 8) (size 9 to 14) (size 15 to 20)
#    0.000    2.625    0.000    3.000    0.000    7.500 
#    0.000    3.750    0.000    0.000    0.000    0.000 
#    0.000    0.500    0.000    6.250    0.000    0.000 
#
# Total GULP energy -356389.264951 kJ/mol
# GULP energy per Si atom -5568.582265 kJ/mol
# Density = 1.608827 g / cm^3
# Si number density = 16.124969 Si / 1000 Ang^3
#
#
#
# Elastic Constant Matrix: (Units=GPa)
#
#
# Indices 1 2 3 4 5 6 
#
# 1 69.9675 43.9121 13.4650 0.0000 0.0000 4.2540
# 2 43.9121 69.9675 13.4650 0.0000 0.0000 -4.2540
# 3 13.4650 13.4650 20.4345 0.0000 0.0000 0.0000
# 4 0.0000 0.0000 0.0000 19.8755 0.0000 0.0000
# 5 0.0000 0.0000 0.0000 0.0000 19.8755 0.0000
# 6 4.2540 -4.2540 0.0000 0.0000 0.0000 23.7012
#
#
#
# Elastic Compliance Matrix: (Units=1/GPa)
#
#
# Indices 1 2 3 4 5 6 
#
# 1 0.025586 -0.015183 -0.006854 0.000000 0.000000 -0.007317
# 2 -0.015183 0.025586 -0.006854 0.000000 0.000000 0.007317
# 3 -0.006854 -0.006854 0.057970 0.000000 0.000000 0.000000
# 4 0.000000 0.000000 0.000000 0.050313 0.000000 0.000000
# 5 0.000000 0.000000 0.000000 0.000000 0.050313 0.000000
# 6 -0.007317 0.007317 0.000000 0.000000 0.000000 0.044819
#
#
# Mechanical properties :
#
#
# Convention : Reuss Voigt Hill
#
# Bulk Modulus (GPa) = 19.47159 33.56154 26.51656
# Shear Modulus (GPa) = 15.17498 18.65892 16.91695
#
# Velocity S-wave (km/s) = 3.07104 3.40537 3.24252
# Velocity P-wave (km/s) = 4.96756 6.02666 5.52256
#
# Compressibility (1/GPa) = 0.05135688
#
# Stress axis : x y z
#
# Youngs Moduli (GPa) = 39.08451 39.08451 17.25031
#
# Poissons Ratio (x) = 0.59344 0.11824
# Poissons Ratio (y) = 0.59344 0.11824
# Poissons Ratio (z) = 0.26790 0.26790
#
# Static dielectric constant tensor:
#      x y z
#    x 1.564190 0.000000 0.000000 
#    y 0.000000 1.564190 0.000000 
#    z 0.000000 0.000000 1.531840 
# 
# From -- ./inp_files/1395.got.cif
#   From: 2010.05.17/outbox.ucp.g08.bks.cvg/sg84_1_cif.got.tgz:1395.got - 2010.06.11 10:34:57.
