data_PCOD9544679
_publ_section_title
;
Structure prediction by ZEFSAII (Michael W. Deem and Ramdas Pophale) SiO2 
 PCOD9544679
Probable space group: P 4/N
;
_chemical_formula_sum "Si O2"
_cell_formula_units_Z 58
_cell_length_a 17.519110
_cell_length_b 17.519110
_cell_length_c 7.859559
_cell_angle_alpha 90.000000
_cell_angle_beta 90.000000
_cell_angle_gamma 90.000000
_cell_volume 2412.249680
_symmetry_space_group_name_H-M "P 4/N"
_symmetry_group_IT_number 85
_symmetry_cell_setting 'tetragonal'
loop_
_space_group_symop_operation_xyz
x,y,z
1/2-y,x,z
1/2-x,1/2-y,z
y,1/2-x,z
-x,-y,-z
1/2+y,-x,-z
1/2+x,1/2+y,-z
-y,1/2+x,-z
loop_
_atom_site_type_symbol
_atom_site_label
_atom_site_fract_x
_atom_site_fract_y
_atom_site_fract_z
Si Si1 0.349988 0.182644 0.436158
Si Si2 0.886523 0.673647 0.175406
Si Si3 0.750000 0.750000 0.012991
Si Si4 0.976378 0.984100 0.193497
Si Si5 0.488458 0.862002 0.671051
Si Si6 0.363623 0.893072 0.171305
Si Si7 0.234286 0.966933 0.981285
Si Si8 0.641205 0.234013 0.446001
O O1 0.351851 0.270288 0.373076
O O2 0.350847 0.188959 0.640189
O O3 0.424234 0.137148 0.385002
O O4 0.821712 0.689035 0.036719
O O5 0.921235 0.589187 0.186992
O O6 0.959343 0.727167 0.137567
O O7 0.940215 0.065544 0.249058
O O8 0.051694 0.962504 0.297215
O O9 0.000000 0.000000 0.000000
O O10 0.435167 0.815335 0.540034
O O11 0.485690 0.813892 0.846611
O O12 0.398935 0.815313 0.099413
O O13 0.296650 0.874231 0.302360
O O14 0.319467 0.941693 0.027278
O O15 0.674680 0.289871 0.591969
#
# Coordination Sequence:
#
# PCOD9544679 Si02
#       8
#     8   8   2   8   8   8   8   8
#     4  11  25  47  66 103 149 190 237 298 363 436
#     4  11  23  45  72 100 139 188 243 297 358 438
#     4  12  24  44  68 110 136 184 244 286 376 424
#     4  11  24  46  70 103 145 186 239 302 364 439
#     4  11  25  45  73 105 142 195 237 298 368 435
#     4  10  23  43  70 101 145 186 244 299 365 430
#     4  10  24  43  71 107 136 193 238 299 365 429
#     4  10  25  47  66 102 148 182 243 301 356 437
#
# _framework density 24.043945999999998
#
# number of rings (size 3 to 8) (size 9 to 14) (size 15 to 20)
#    0.000    1.379    4.138    0.000    9.655    6.345 
#    0.000    0.000    0.000    0.000    0.000    0.000 
#    0.000    0.000    0.000    0.000    0.000    0.000 
#
# Total GULP energy -323982.486871 kJ/mol
# GULP energy per Si atom -5585.904946 kJ/mol
# Density = 2.398922 g / cm^3
# Si number density = 24.043946 Si / 1000 Ang^3
#
#
#
# Elastic Constant Matrix: (Units=GPa)
#
#
# Indices 1 2 3 4 5 6 
#
# 1 124.0941 51.4092 7.2063 0.0000 0.0000 -16.6859
# 2 51.4092 124.0941 7.2063 0.0000 0.0000 16.6859
# 3 7.2063 7.2063 44.2790 0.0000 0.0000 0.0000
# 4 0.0000 0.0000 0.0000 20.1367 0.0000 0.0000
# 5 0.0000 0.0000 0.0000 0.0000 20.1367 0.0000
# 6 -16.6859 16.6859 0.0000 0.0000 0.0000 17.7487
#
#
#
# Elastic Compliance Matrix: (Units=1/GPa)
#
#
# Indices 1 2 3 4 5 6 
#
# 1 0.014991 -0.009216 -0.000940 0.000000 0.000000 0.022757
# 2 -0.009216 0.014991 -0.000940 0.000000 0.000000 -0.022757
# 3 -0.000940 -0.000940 0.022890 0.000000 0.000000 0.000000
# 4 0.000000 0.000000 0.000000 0.049661 0.000000 0.000000
# 5 0.000000 0.000000 0.000000 0.000000 0.049661 0.000000
# 6 0.022757 -0.022757 0.000000 0.000000 0.000000 0.099131
#
#
# Mechanical properties :
#
#
# Convention : Reuss Voigt Hill
#
# Bulk Modulus (GPa) = 32.59388 47.12344 39.85866
# Shear Modulus (GPa) = 17.62166 26.71410 22.16788
#
# Velocity S-wave (km/s) = 2.71014 3.33686 3.03970
# Velocity P-wave (km/s) = 4.83513 5.87262 5.37895
#
# Compressibility (1/GPa) = 0.03068061
#
# Stress axis : x y z
#
# Youngs Moduli (GPa) = 66.70764 66.70764 43.68723
#
# Poissons Ratio (x) = 0.61476 0.04106
# Poissons Ratio (y) = 0.61476 0.04106
# Poissons Ratio (z) = 0.06270 0.06270
#
# Static dielectric constant tensor:
#      x y z
#    x 1.914220 0.000000 0.000000 
#    y 0.000000 1.914220 0.000000 
#    z 0.000000 0.000000 2.014940 
# 
# From -- ./inp_files/1198.got.cif
#   From: 2010.05.17/outbox.cif.g08.bks.cpg/sg85_cif.got.tgz:1198.got - 2010.06.03 19:01:16.
