data_PCOD9544696
_publ_section_title
;
Structure prediction by ZEFSAII (Michael W. Deem and Ramdas Pophale) SiO2 
 PCOD9544696
Probable space group: P 4/N
;
_chemical_formula_sum "Si O2"
_cell_formula_units_Z 48
_cell_length_a 14.370297
_cell_length_b 14.370297
_cell_length_c 9.800480
_cell_angle_alpha 90.000000
_cell_angle_beta 90.000000
_cell_angle_gamma 90.000000
_cell_volume 2023.852394
_symmetry_space_group_name_H-M "P 4/N"
_symmetry_group_IT_number 85
_symmetry_cell_setting 'tetragonal'
loop_
_space_group_symop_operation_xyz
x,y,z
1/2-y,x,z
1/2-x,1/2-y,z
y,1/2-x,z
-x,-y,-z
1/2+y,-x,-z
1/2+x,1/2+y,-z
-y,1/2+x,-z
loop_
_atom_site_type_symbol
_atom_site_label
_atom_site_fract_x
_atom_site_fract_y
_atom_site_fract_z
Si Si1 0.899745 0.078040 0.937621
Si Si2 0.045890 0.708101 0.560368
Si Si3 0.161146 0.133015 0.376044
Si Si4 0.838947 0.870501 0.951102
Si Si5 0.295233 0.902460 0.701830
Si Si6 0.195133 0.610491 0.186161
O O1 0.947164 0.131272 0.808706
O O2 0.793551 0.108499 0.894152
O O3 0.891230 0.968516 0.969403
O O4 0.930434 0.124488 0.077530
O O5 0.145551 0.663371 0.599078
O O6 0.035099 0.742210 0.407302
O O7 0.048271 0.787765 0.679402
O O8 0.969163 0.627957 0.586965
O O9 0.268755 0.126184 0.426544
O O10 0.162581 0.137872 0.213223
O O11 0.730400 0.876586 0.999003
O O12 0.211708 0.845525 0.775092
#
# Coordination Sequence:
#
# PCOD9544696 Si02
#       6
#     8   8   8   8   8   8
#     4  11  20  33  54  82 111 145 185 219 268 332
#     4  11  20  33  54  82 111 145 185 219 268 332
#     4   9  18  35  60  81 103 141 190 238 279 321
#     4   9  18  35  60  81 103 141 190 238 279 321
#     4  11  21  30  51  81 113 150 176 215 270 329
#     4  11  21  30  51  81 113 150 176 215 270 329
#
# _framework density 23.717146
#
# number of rings (size 3 to 8) (size 9 to 14) (size 15 to 20)
#    0.000    1.667    6.667    3.000    0.000    0.000 
#    0.000    1.667    7.333    0.000    0.000    2.333 
#    0.000    0.000    0.000    0.000    0.000    0.000 
#
# Total GULP energy -267318.333844 kJ/mol
# GULP energy per Si atom -5569.131955 kJ/mol
# Density = 2.366316 g / cm^3
# Si number density = 23.717146 Si / 1000 Ang^3
#
#
#
# Elastic Constant Matrix: (Units=GPa)
#
#
# Indices 1 2 3 4 5 6 
#
# 1 56.7090 -19.3051 -8.2697 0.0000 0.0000 3.6555
# 2 -19.3051 56.7090 -8.2697 0.0000 0.0000 -3.6555
# 3 -8.2697 -8.2697 49.3400 0.0000 0.0000 0.0000
# 4 0.0000 0.0000 0.0000 12.8203 0.0000 0.0000
# 5 0.0000 0.0000 0.0000 0.0000 12.8203 0.0000
# 6 3.6555 -3.6555 0.0000 0.0000 0.0000 15.0600
#
#
#
# Elastic Compliance Matrix: (Units=1/GPa)
#
#
# Indices 1 2 3 4 5 6 
#
# 1 0.021173 0.007703 0.004840 0.000000 0.000000 -0.003269
# 2 0.007703 0.021173 0.004840 0.000000 0.000000 0.003269
# 3 0.004840 0.004840 0.021890 0.000000 0.000000 0.000000
# 4 0.000000 0.000000 0.000000 0.078001 0.000000 0.000000
# 5 0.000000 0.000000 0.000000 0.000000 0.078001 0.000000
# 6 -0.003269 0.003269 0.000000 0.000000 0.000000 0.067988
#
#
# Mechanical properties :
#
#
# Convention : Reuss Voigt Hill
#
# Bulk Modulus (GPa) = 10.10111 10.11877 10.10994
# Shear Modulus (GPa) = 17.45439 21.38031 19.41735
#
# Velocity S-wave (km/s) = 2.71576 3.00571 2.86441
# Velocity P-wave (km/s) = 3.75527 4.03997 3.90022
#
# Compressibility (1/GPa) = 0.09899902
#
# Stress axis : x y z
#
# Youngs Moduli (GPa) = 47.23091 47.23091 45.68329
#
# Poissons Ratio (x) = -0.36380 -0.22109
# Poissons Ratio (y) = -0.36380 -0.22109
# Poissons Ratio (z) = -0.22858 -0.22858
#
# Static dielectric constant tensor:
#      x y z
#    x 2.008470 0.000000 0.000000 
#    y 0.000000 2.008470 0.000000 
#    z 0.000000 0.000000 1.907420 
# 
# From -- ./inp_files/1639.got.cif
#   From: 2010.05.17/outbox.cif.g08.bks.cpg/sg85_cif.got.tgz:1639.got - 2010.06.03 19:01:16.
