data_PCOD9544329
_publ_section_title
;
Structure prediction by ZEFSAII (Michael W. Deem and Ramdas Pophale) SiO2 
 PCOD9544329
Probable space group: P 42/M
;
_chemical_formula_sum "Si O2"
_cell_formula_units_Z 26
_cell_length_a 9.105956
_cell_length_b 9.105956
_cell_length_c 14.423468
_cell_angle_alpha 90.000000
_cell_angle_beta 90.000000
_cell_angle_gamma 90.000000
_cell_volume 1195.971389
_symmetry_space_group_name_H-M "P 42/M"
_symmetry_group_IT_number 84
_symmetry_cell_setting 'tetragonal'
loop_
_space_group_symop_operation_xyz
x,y,z
-y,x,1/2+z
-x,-y,z
y,-x,1/2+z
-x,-y,-z
y,-x,1/2-z
x,y,-z
-y,x,1/2-z
loop_
_atom_site_type_symbol
_atom_site_label
_atom_site_fract_x
_atom_site_fract_y
_atom_site_fract_z
Si Si1 0.551360 0.840743 0.668904
Si Si2 0.500000 0.500000 0.500000
Si Si3 0.370071 0.291606 0.861838
Si Si4 0.900205 0.229090 0.000000
Si Si5 0.226403 0.086385 0.000000
O O1 0.602114 0.742809 0.755280
O O2 0.411532 0.759279 0.624704
O O3 0.672070 0.869197 0.590163
O O4 0.500000 0.000000 0.704060
O O5 0.629384 0.498908 0.418755
O O6 0.315890 0.144763 0.911839
O O7 0.066738 0.166433 0.000000
O O8 0.798878 0.085797 0.000000
#
# Coordination Sequence:
#
# PCOD9544329 Si02
#       5
#     8   2   8   4   4
#     4  12  25  43  71 104 144 190 238 303 368 444
#     4  10  22  48  70  94 142 186 236 288 348 436
#     4  11  24  44  70 105 139 189 245 296 362 436
#     4  11  23  43  70  99 150 190 236 294 375 436
#     4  10  23  42  67 105 139 193 239 299 361 437
#
# _framework density 21.739650999999999
#
# number of rings (size 3 to 8) (size 9 to 14) (size 15 to 20)
#    0.000    0.923    3.077    4.154    4.308    0.000 
#    0.000    4.615    0.000    0.000    0.000    0.000 
#    0.000    0.000    0.000    0.000    0.000    0.000 
#
# Total GULP energy -144923.610358 kJ/mol
# GULP energy per Si atom -5573.985014 kJ/mol
# Density = 2.169017 g / cm^3
# Si number density = 21.739651 Si / 1000 Ang^3
#
#
#
# Elastic Constant Matrix: (Units=GPa)
#
#
# Indices 1 2 3 4 5 6 
#
# 1 89.3790 27.1550 39.9279 0.0000 0.0000 -2.1545
# 2 27.1550 89.3790 39.9279 0.0000 0.0000 2.1545
# 3 39.9279 39.9279 163.4804 0.0000 0.0000 0.0000
# 4 0.0000 0.0000 0.0000 23.4071 0.0000 0.0000
# 5 0.0000 0.0000 0.0000 0.0000 23.4071 0.0000
# 6 -2.1545 2.1545 0.0000 0.0000 0.0000 39.6582
#
#
#
# Elastic Compliance Matrix: (Units=1/GPa)
#
#
# Indices 1 2 3 4 5 6 
#
# 1 0.013219 -0.002913 -0.002517 0.000000 0.000000 0.000876
# 2 -0.002913 0.013219 -0.002517 0.000000 0.000000 -0.000876
# 3 -0.002517 -0.002517 0.007346 0.000000 0.000000 0.000000
# 4 0.000000 0.000000 0.000000 0.042722 0.000000 0.000000
# 5 0.000000 0.000000 0.000000 0.000000 0.042722 0.000000
# 6 0.000876 -0.000876 0.000000 0.000000 0.000000 0.025311
#
#
# Mechanical properties :
#
#
# Convention : Reuss Voigt Hill
#
# Bulk Modulus (GPa) = 55.89675 61.80668 58.85172
# Shear Modulus (GPa) = 30.04872 32.97632 31.51252
#
# Velocity S-wave (km/s) = 3.72184 3.89893 3.81141
# Velocity P-wave (km/s) = 6.65110 6.98291 6.81902
#
# Compressibility (1/GPa) = 0.01789013
#
# Stress axis : x y z
#
# Youngs Moduli (GPa) = 75.64951 75.64951 136.11959
#
# Poissons Ratio (x) = 0.22035 0.34263
# Poissons Ratio (y) = 0.22035 0.34263
# Poissons Ratio (z) = 0.19042 0.19042
#
# Static dielectric constant tensor:
#      x y z
#    x 1.843850 0.000000 0.000000 
#    y 0.000000 1.843850 0.000000 
#    z 0.000000 0.000000 1.797520 
# 
# From -- ./inp_files/3485.got.cif
#   From: 2010.05.17/outbox.cif.g08.bks.cpg/sg84_2_cif.got.tgz:3485.got - 2010.06.03 18:57:40.
