data_PCOD9544801
_publ_section_title
;
Structure prediction by ZEFSAII (Michael W. Deem and Ramdas Pophale) SiO2 
 PCOD9544801
Probable space group: P 4/N
;
_chemical_formula_sum "Si O2"
_cell_formula_units_Z 56
_cell_length_a 14.699321
_cell_length_b 14.699321
_cell_length_c 12.280713
_cell_angle_alpha 90.000000
_cell_angle_beta 90.000000
_cell_angle_gamma 90.000000
_cell_volume 2653.494123
_symmetry_space_group_name_H-M "P 4/N"
_symmetry_group_IT_number 85
_symmetry_cell_setting 'tetragonal'
loop_
_space_group_symop_operation_xyz
x,y,z
1/2-y,x,z
1/2-x,1/2-y,z
y,1/2-x,z
-x,-y,-z
1/2+y,-x,-z
1/2+x,1/2+y,-z
-y,1/2+x,-z
loop_
_atom_site_type_symbol
_atom_site_label
_atom_site_fract_x
_atom_site_fract_y
_atom_site_fract_z
Si Si1 0.659656 0.630431 0.799402
Si Si2 0.883346 0.682911 0.199593
Si Si3 0.632608 0.501434 0.391918
Si Si4 0.395742 0.471535 0.002603
Si Si5 0.584902 0.482400 0.633923
Si Si6 0.185814 0.846651 0.068422
Si Si7 0.852462 0.222699 0.690940
O O1 0.767254 0.627481 0.776803
O O2 0.616898 0.550533 0.727752
O O3 0.630141 0.614962 0.924928
O O4 0.868446 0.788973 0.178387
O O5 0.957630 0.641873 0.118316
O O6 0.913196 0.668441 0.323406
O O7 0.636776 0.507665 0.522009
O O8 0.523631 0.499620 0.372330
O O9 0.694790 0.418387 0.345865
O O10 0.500000 0.500000 0.000000
O O11 0.347997 0.552671 0.065950
O O12 0.608064 0.374933 0.650343
O O13 0.157466 0.796895 0.179083
O O14 0.292062 0.851013 0.037094
O O15 0.750000 0.250000 0.653782
#
# Coordination Sequence:
#
# PCOD9544801 Si02
#       7
#     8   8   8   8   8   8   8
#     4  11  26  46  71 101 144 194 247 309 376 456
#     4  11  25  45  71 101 140 194 249 306 374 454
#     4  11  27  46  74 103 148 186 250 311 374 452
#     4  12  26  40  72 102 141 190 241 306 376 449
#     4  11  27  48  74 111 143 197 252 310 386 454
#     4  11  24  43  64 102 139 185 231 289 365 443
#     4  12  26  46  75 110 149 195 247 310 389 447
#
# _framework density 21.104248999999999
#
# number of rings (size 3 to 8) (size 9 to 14) (size 15 to 20)
#    0.000    0.714    2.857    3.429   10.000    3.429 
#    0.000    1.429    0.000    0.000    0.000    0.000 
#    0.000    0.000    0.000    0.000    0.000    0.000 
#
# Total GULP energy -312590.854119 kJ/mol
# GULP energy per Si atom -5581.979538 kJ/mol
# Density = 2.105622 g / cm^3
# Si number density = 21.104249 Si / 1000 Ang^3
#
#
#
# Elastic Constant Matrix: (Units=GPa)
#
#
# Indices 1 2 3 4 5 6 
#
# 1 59.4877 44.4763 18.7092 0.0000 0.0000 -27.9938
# 2 44.4763 59.4877 18.7092 0.0000 0.0000 27.9938
# 3 18.7092 18.7092 109.9314 0.0000 0.0000 0.0000
# 4 0.0000 0.0000 0.0000 30.7779 0.0000 0.0000
# 5 0.0000 0.0000 0.0000 0.0000 30.7779 0.0000
# 6 -27.9938 27.9938 0.0000 0.0000 0.0000 37.9930
#
#
#
# Elastic Compliance Matrix: (Units=1/GPa)
#
#
# Indices 1 2 3 4 5 6 
#
# 1 -0.013931 0.024177 -0.001744 0.000000 0.000000 -0.028079
# 2 0.024177 -0.013931 -0.001744 0.000000 0.000000 0.028079
# 3 -0.001744 -0.001744 0.009690 0.000000 0.000000 0.000000
# 4 0.000000 0.000000 0.000000 0.032491 0.000000 0.000000
# 5 0.000000 0.000000 0.000000 0.000000 0.032491 0.000000
# 6 -0.028079 0.028079 0.000000 0.000000 0.000000 -0.015057
#
#
# Mechanical properties :
#
#
# Convention : Reuss Voigt Hill
#
# Bulk Modulus (GPa) = 43.08946 43.63293 43.36120
# Shear Modulus (GPa) = -2645.90639 29.71057 -1308.09791
#
# Velocity S-wave (km/s) = -35.44649 3.75614 -24.92333
# Velocity P-wave (km/s) = 40.67935 6.28739 28.41899
#
# Compressibility (1/GPa) = 0.02320753
#
# Stress axis : x y z
#
# Youngs Moduli (GPa) = -71.78342 -71.78342 103.19761
#
# Poissons Ratio (x) = 1.73552 0.17996
# Poissons Ratio (y) = 1.73552 0.17996
# Poissons Ratio (z) = -0.12518 -0.12518
#
# Static dielectric constant tensor:
#      x y z
#    x 1.625300 0.000000 0.000000 
#    y 0.000000 1.625300 0.000000 
#    z 0.000000 0.000000 1.794000 
# 
# From -- ./inp_files/1780.got.cif
#   From: 2010.05.17/outbox.cif.g08.bks.cpg/sg85_cif.got.tgz:1780.got - 2010.06.03 19:01:16.
