data_PCOD9544031
_publ_section_title
;
Structure prediction by ZEFSAII (Michael W. Deem and Ramdas Pophale) SiO2 
 PCOD9544031
Probable space group: P 42/M
;
_chemical_formula_sum "Si O2"
_cell_formula_units_Z 46
_cell_length_a 11.125301
_cell_length_b 11.125301
_cell_length_c 15.475957
_cell_angle_alpha 90.000000
_cell_angle_beta 90.000000
_cell_angle_gamma 90.000000
_cell_volume 1915.495138
_symmetry_space_group_name_H-M "P 42/M"
_symmetry_group_IT_number 84
_symmetry_cell_setting 'tetragonal'
loop_
_space_group_symop_operation_xyz
x,y,z
-y,x,1/2+z
-x,-y,z
y,-x,1/2+z
-x,-y,-z
y,-x,1/2-z
x,y,-z
-y,x,1/2-z
loop_
_atom_site_type_symbol
_atom_site_label
_atom_site_fract_x
_atom_site_fract_y
_atom_site_fract_z
Si Si1 0.862409 0.463726 0.396047
Si Si2 0.798903 0.210234 0.400944
Si Si3 0.500000 0.500000 0.250000
Si Si4 0.462552 0.740213 0.655558
Si Si5 0.500000 0.000000 0.658896
Si Si6 0.268146 0.299370 0.399239
Si Si7 0.955346 0.233004 0.898627
O O1 0.836498 0.450659 0.500000
O O2 0.849024 0.330286 0.357498
O O3 0.777009 0.572601 0.366508
O O4 0.000000 0.500000 0.387444
O O5 0.842868 0.203623 0.500000
O O6 0.655430 0.234626 0.400779
O O7 0.821395 0.078534 0.361100
O O8 0.386333 0.440563 0.202168
O O9 0.588844 0.713897 0.608895
O O10 0.480694 0.869918 0.703104
O O11 0.377481 0.023617 0.606316
O O12 0.235582 0.297681 0.500000
O O13 0.211189 0.177226 0.360034
O O14 0.951342 0.200131 0.000000
#
# Coordination Sequence:
#
# PCOD9544031 Si02
#       7
#     8   8   2   8   4   8   8
#     4   9  17  27  38  57  93 135 163 184 219 274
#     4   9  16  28  48  71  95 121 152 188 236 289
#     4  12  24  32  46  68 104 128 164 210 240 264
#     4  10  19  32  50  72  98 121 150 196 239 281
#     4   8  15  28  48  68  92 124 145 178 238 292
#     4   9  16  28  48  71  95 121 152 188 236 289
#     4   8  13  22  41  72  97 115 144 185 229 279
#
# _framework density 24.014679999999998
#
# number of rings (size 3 to 8) (size 9 to 14) (size 15 to 20)
#    0.000    2.957    0.000    1.826    0.000    4.174 
#    0.000    4.348    7.652    5.217    0.000    0.000 
#    0.000    0.000    0.000    0.000    0.000    0.000 
#
# Total GULP energy -256182.184671 kJ/mol
# GULP energy per Si atom -5569.177928 kJ/mol
# Density = 2.396002 g / cm^3
# Si number density = 24.014680 Si / 1000 Ang^3
#
#
#
# Elastic Constant Matrix: (Units=GPa)
#
#
# Indices 1 2 3 4 5 6 
#
# 1 77.9978 14.2141 0.2017 0.0000 0.0000 -21.1451
# 2 14.2141 77.9978 0.2017 0.0000 0.0000 21.1451
# 3 0.2017 0.2017 32.4242 0.0000 0.0000 0.0000
# 4 0.0000 0.0000 0.0000 9.3335 0.0000 0.0000
# 5 0.0000 0.0000 0.0000 0.0000 9.3335 0.0000
# 6 -21.1451 21.1451 0.0000 0.0000 0.0000 18.2021
#
#
#
# Elastic Compliance Matrix: (Units=1/GPa)
#
#
# Indices 1 2 3 4 5 6 
#
# 1 0.039538 -0.028693 -0.000067 0.000000 0.000000 0.079264
# 2 -0.028693 0.039538 -0.000067 0.000000 0.000000 -0.079264
# 3 -0.000067 -0.000067 0.030842 0.000000 0.000000 0.000000
# 4 0.000000 0.000000 0.000000 0.107141 0.000000 0.000000
# 5 0.000000 0.000000 0.000000 0.000000 0.107141 0.000000
# 6 0.079264 -0.079264 0.000000 0.000000 0.000000 0.239098
#
#
# Mechanical properties :
#
#
# Convention : Reuss Voigt Hill
#
# Bulk Modulus (GPa) = 19.13441 24.18388 21.65915
# Shear Modulus (GPa) = 7.83239 18.96065 13.39652
#
# Velocity S-wave (km/s) = 1.80792 2.81293 2.36444
# Velocity P-wave (km/s) = 3.51329 4.54339 4.06113
#
# Compressibility (1/GPa) = 0.05226185
#
# Stress axis : x y z
#
# Youngs Moduli (GPa) = 25.29189 25.29189 32.42336
#
# Poissons Ratio (x) = 0.72571 0.00219
# Poissons Ratio (y) = 0.72571 0.00219
# Poissons Ratio (z) = 0.00171 0.00171
#
# Static dielectric constant tensor:
#      x y z
#    x 1.949360 0.000000 0.000000 
#    y 0.000000 1.949360 0.000000 
#    z 0.000000 0.000000 1.954930 
# 
# From -- ./inp_files/3794.got.cif
#   From: 2010.05.17/outbox.cif.g08.bks.cpg/sg84_2_cif.got.tgz:3794.got - 2010.06.03 18:57:40.
