data_PCOD9544788
_publ_section_title
;
Structure prediction by ZEFSAII (Michael W. Deem and Ramdas Pophale) SiO2 
 PCOD9544788
Probable space group: P 4/N
;
_chemical_formula_sum "Si O2"
_cell_formula_units_Z 34
_cell_length_a 8.312184
_cell_length_b 8.312184
_cell_length_c 22.379041
_cell_angle_alpha 90.000000
_cell_angle_beta 90.000000
_cell_angle_gamma 90.000000
_cell_volume 1546.221716
_symmetry_space_group_name_H-M "P 4/N"
_symmetry_group_IT_number 85
_symmetry_cell_setting 'tetragonal'
loop_
_space_group_symop_operation_xyz
x,y,z
1/2-y,x,z
1/2-x,1/2-y,z
y,1/2-x,z
-x,-y,-z
1/2+y,-x,-z
1/2+x,1/2+y,-z
-y,1/2+x,-z
loop_
_atom_site_type_symbol
_atom_site_label
_atom_site_fract_x
_atom_site_fract_y
_atom_site_fract_z
Si Si1 0.574990 0.955990 0.063907
Si Si2 0.750000 0.250000 0.500000
Si Si3 0.329704 0.507453 0.403798
Si Si4 0.847495 0.501863 0.295078
Si Si5 0.479267 0.117033 0.184361
O O1 0.532183 0.767717 0.070186
O O2 0.509149 0.071693 0.115673
O O3 0.500000 0.000000 0.000000
O O4 0.634950 0.147718 0.456692
O O5 0.147756 0.443607 0.408082
O O6 0.368235 0.590880 0.340839
O O7 0.950774 0.663833 0.305522
O O8 0.883336 0.451601 0.227187
O O9 0.461330 0.305671 0.197555
#
# Coordination Sequence:
#
# PCOD9544788 Si02
#       5
#     8   2   8   8   8
#     4  11  24  41  62  91 126 165 212 263 317 380
#     4  12  24  44  68  96 132 172 212 266 328 392
#     4  11  24  42  66  96 129 168 214 263 320 388
#     4  11  24  42  65  94 128 167 213 265 322 385
#     4  11  24  41  63  93 127 165 212 264 319 382
#
# _framework density 21.989083000000001
#
# number of rings (size 3 to 8) (size 9 to 14) (size 15 to 20)
#    0.000    0.941    0.000    6.353    0.000   13.647 
#    0.000    2.353    0.000    0.000    0.000    0.000 
#    0.000    0.000    0.000    0.000    0.000    0.000 
#
# Total GULP energy -190337.095741 kJ/mol
# GULP energy per Si atom -5598.149875 kJ/mol
# Density = 2.193903 g / cm^3
# Si number density = 21.989083 Si / 1000 Ang^3
#
#
#
# Elastic Constant Matrix: (Units=GPa)
#
#
# Indices 1 2 3 4 5 6 
#
# 1 57.6113 32.2664 19.3844 0.0000 0.0000 -0.0191
# 2 32.2664 57.6113 19.3844 0.0000 0.0000 0.0191
# 3 19.3844 19.3844 131.1401 0.0000 0.0000 0.0000
# 4 0.0000 0.0000 0.0000 42.0639 0.0000 0.0000
# 5 0.0000 0.0000 0.0000 0.0000 42.0639 0.0000
# 6 -0.0191 0.0191 0.0000 0.0000 0.0000 30.8615
#
#
#
# Elastic Compliance Matrix: (Units=1/GPa)
#
#
# Indices 1 2 3 4 5 6 
#
# 1 0.025670 -0.013786 -0.001757 0.000000 0.000000 0.000024
# 2 -0.013786 0.025670 -0.001757 0.000000 0.000000 -0.000024
# 3 -0.001757 -0.001757 0.008145 0.000000 0.000000 0.000000
# 4 0.000000 0.000000 0.000000 0.023773 0.000000 0.000000
# 5 0.000000 0.000000 0.000000 0.000000 0.023773 0.000000
# 6 0.000024 -0.000024 0.000000 0.000000 0.000000 0.032403
#
#
# Mechanical properties :
#
#
# Convention : Reuss Voigt Hill
#
# Bulk Modulus (GPa) = 40.18300 43.15925 41.67112
# Shear Modulus (GPa) = 27.42316 34.68637 31.05477
#
# Velocity S-wave (km/s) = 3.53530 3.97600 3.76211
# Velocity P-wave (km/s) = 5.91424 6.38344 6.15331
#
# Compressibility (1/GPa) = 0.02488615
#
# Stress axis : x y z
#
# Youngs Moduli (GPa) = 38.95622 38.95622 122.77869
#
# Poissons Ratio (x) = 0.53705 0.21568
# Poissons Ratio (y) = 0.53705 0.21568
# Poissons Ratio (z) = 0.06843 0.06843
#
# Static dielectric constant tensor:
#      x y z
#    x 1.805270 0.000000 0.000000 
#    y 0.000000 1.805270 0.000000 
#    z 0.000000 0.000000 1.760930 
# 
# From -- ./inp_files/2167.got.cif
#   From: 2010.05.17/outbox.cif.g08.bks.cpg/sg85_cif.got.tgz:2167.got - 2010.06.03 19:01:16.
