data_PCOD9544052
_publ_section_title
;
Structure prediction by ZEFSAII (Michael W. Deem and Ramdas Pophale) SiO2 
 PCOD9544052
Probable space group: P 42/M
;
_chemical_formula_sum "Si O2"
_cell_formula_units_Z 34
_cell_length_a 8.154885
_cell_length_b 8.154885
_cell_length_c 21.925159
_cell_angle_alpha 90.000000
_cell_angle_beta 90.000000
_cell_angle_gamma 90.000000
_cell_volume 1458.070199
_symmetry_space_group_name_H-M "P 42/M"
_symmetry_group_IT_number 84
_symmetry_cell_setting 'tetragonal'
loop_
_space_group_symop_operation_xyz
x,y,z
-y,x,1/2+z
-x,-y,z
y,-x,1/2+z
-x,-y,-z
y,-x,1/2-z
x,y,-z
-y,x,1/2-z
loop_
_atom_site_type_symbol
_atom_site_label
_atom_site_fract_x
_atom_site_fract_y
_atom_site_fract_z
Si Si1 0.500000 0.000000 0.114608
Si Si2 0.000000 0.000000 0.173859
Si Si3 0.193543 0.822759 0.067159
Si Si4 0.269658 0.249826 0.179437
Si Si5 0.542016 0.309820 0.430697
Si Si6 0.500000 0.500000 0.250000
O O1 0.372596 0.903930 0.072758
O O2 0.588147 0.873206 0.159181
O O3 0.877567 0.864522 0.204527
O O4 0.106554 0.892229 0.126772
O O5 0.215165 0.628642 0.071144
O O6 0.123552 0.860293 0.000000
O O7 0.223788 0.332981 0.114861
O O8 0.354525 0.396426 0.216924
O O9 0.500000 0.500000 0.413116
O O10 0.605140 0.314529 0.500000
#
# Coordination Sequence:
#
# PCOD9544052 Si02
#       6
#     4   4   8   8   8   2
#     4  10  19  36  60  90 132 170 221 274 328 394
#     4  10  25  40  60  97 146 168 209 281 356 408
#     4  10  19  33  58  95 138 185 218 259 320 398
#     4  11  23  44  69 101 129 174 224 285 343 401
#     4  10  19  35  63 100 137 175 228 272 311 387
#     4  12  24  48  82  96 116 172 252 290 324 428
#
# _framework density 23.318490000000001
#
# number of rings (size 3 to 8) (size 9 to 14) (size 15 to 20)
#    0.000    1.647    3.529    0.706    0.000    5.647 
#    0.000    9.412    0.000    5.647    0.000    0.000 
#    0.000    0.000    0.000    0.000    0.000    0.000 
#
# Total GULP energy -189846.539281 kJ/mol
# GULP energy per Si atom -5583.721744 kJ/mol
# Density = 2.326542 g / cm^3
# Si number density = 23.318490 Si / 1000 Ang^3
#
#
#
# Elastic Constant Matrix: (Units=GPa)
#
#
# Indices 1 2 3 4 5 6 
#
# 1 92.2180 37.8535 31.9062 0.0000 0.0000 3.9123
# 2 37.8535 92.2180 31.9062 0.0000 0.0000 -3.9123
# 3 31.9062 31.9062 52.9487 0.0000 0.0000 0.0000
# 4 0.0000 0.0000 0.0000 30.7061 0.0000 0.0000
# 5 0.0000 0.0000 0.0000 0.0000 30.7061 0.0000
# 6 3.9123 -3.9123 0.0000 0.0000 0.0000 48.0767
#
#
#
# Elastic Compliance Matrix: (Units=1/GPa)
#
#
# Indices 1 2 3 4 5 6 
#
# 1 0.014764 -0.003849 -0.006577 0.000000 0.000000 -0.001515
# 2 -0.003849 0.014764 -0.006577 0.000000 0.000000 0.001515
# 3 -0.006577 -0.006577 0.026813 0.000000 0.000000 0.000000
# 4 0.000000 0.000000 0.000000 0.032567 0.000000 0.000000
# 5 0.000000 0.000000 0.000000 0.000000 0.032567 0.000000
# 6 -0.001515 0.001515 0.000000 0.000000 0.000000 0.021047
#
#
# Mechanical properties :
#
#
# Convention : Reuss Voigt Hill
#
# Bulk Modulus (GPa) = 44.77501 48.96851 46.87176
# Shear Modulus (GPa) = 27.17825 30.94571 29.06198
#
# Velocity S-wave (km/s) = 3.41768 3.64688 3.53414
# Velocity P-wave (km/s) = 5.90061 6.22723 6.06612
#
# Compressibility (1/GPa) = 0.02233389
#
# Stress axis : x y z
#
# Youngs Moduli (GPa) = 67.73429 67.73429 37.29571
#
# Poissons Ratio (x) = 0.26070 0.24530
# Poissons Ratio (y) = 0.26070 0.24530
# Poissons Ratio (z) = 0.44549 0.44549
#
# Static dielectric constant tensor:
#      x y z
#    x 1.988150 0.000000 0.000000 
#    y 0.000000 1.988150 0.000000 
#    z 0.000000 0.000000 1.914720 
# 
# From -- ./inp_files/4316.got.cif
#   From: 2010.05.17/outbox.cif.g08.bks.cpg/sg84_3_cif.got.tgz:4316.got - 2010.06.03 18:57:40.
