data_PCOD9544288
_publ_section_title
;
Structure prediction by ZEFSAII (Michael W. Deem and Ramdas Pophale) SiO2 
 PCOD9544288
Probable space group: P 42/M
;
_chemical_formula_sum "Si O2"
_cell_formula_units_Z 34
_cell_length_a 10.088750
_cell_length_b 10.088750
_cell_length_c 18.191326
_cell_angle_alpha 90.000000
_cell_angle_beta 90.000000
_cell_angle_gamma 90.000000
_cell_volume 1851.565489
_symmetry_space_group_name_H-M "P 42/M"
_symmetry_group_IT_number 84
_symmetry_cell_setting 'tetragonal'
loop_
_space_group_symop_operation_xyz
x,y,z
-y,x,1/2+z
-x,-y,z
y,-x,1/2+z
-x,-y,-z
y,-x,1/2-z
x,y,-z
-y,x,1/2-z
loop_
_atom_site_type_symbol
_atom_site_label
_atom_site_fract_x
_atom_site_fract_y
_atom_site_fract_z
Si Si1 0.096081 0.365017 0.500000
Si Si2 0.654502 0.459065 0.500000
Si Si3 0.457475 0.860878 0.740933
Si Si4 0.972023 0.765935 0.349002
Si Si5 0.678907 0.734941 0.153502
Si Si6 0.000000 0.000000 0.250000
O O1 0.245711 0.416868 0.500000
O O2 0.071960 0.272823 0.430009
O O3 0.000000 0.500000 0.500000
O O4 0.500000 0.500000 0.500000
O O5 0.693934 0.381204 0.574787
O O6 0.354230 0.915511 0.800958
O O7 0.384743 0.763505 0.685670
O O8 0.567956 0.780587 0.786959
O O9 0.500000 0.000000 0.703783
O O10 0.131788 0.766149 0.352444
O O11 0.929545 0.896771 0.304955
#
# Coordination Sequence:
#
# PCOD9544288 Si02
#       6
#     4   4   8   8   8   2
#     4  12  20  43  70  90 128 179 221 261 328 398
#     4  12  26  40  61  99 130 163 218 278 326 388
#     4  10  22  37  63  92 124 170 217 271 326 391
#     4  11  21  40  66  93 125 170 221 270 313 398
#     4  11  22  40  63  90 127 171 216 266 331 392
#     4  12  24  38  64 100 132 162 216 284 328 366
#
# _framework density 18.362838
#
# number of rings (size 3 to 8) (size 9 to 14) (size 15 to 20)
#    0.000    0.941    7.059    0.706    3.294    0.471 
#    0.000    0.588    0.000    0.000    0.000    0.000 
#    0.000    0.000    0.000    0.000    0.000    0.000 
#
# Total GULP energy -189576.806433 kJ/mol
# GULP energy per Si atom -5575.788424 kJ/mol
# Density = 1.832104 g / cm^3
# Si number density = 18.362838 Si / 1000 Ang^3
#
#
#
# Elastic Constant Matrix: (Units=GPa)
#
#
# Indices 1 2 3 4 5 6 
#
# 1 85.1104 30.3884 45.3519 0.0000 0.0000 -3.4668
# 2 30.3884 85.1104 45.3519 0.0000 0.0000 3.4668
# 3 45.3519 45.3519 125.7267 0.0000 0.0000 0.0000
# 4 0.0000 0.0000 0.0000 265.1803 0.0000 0.0000
# 5 0.0000 0.0000 0.0000 0.0000 265.1803 0.0000
# 6 -3.4668 3.4668 0.0000 0.0000 0.0000 31.6489
#
#
#
# Elastic Compliance Matrix: (Units=1/GPa)
#
#
# Indices 1 2 3 4 5 6 
#
# 1 0.015306 -0.003226 -0.004358 0.000000 0.000000 0.002030
# 2 -0.003226 0.015306 -0.004358 0.000000 0.000000 -0.002030
# 3 -0.004358 -0.004358 0.011097 0.000000 0.000000 0.000000
# 4 0.000000 0.000000 0.000000 0.003771 0.000000 0.000000
# 5 0.000000 0.000000 0.000000 0.000000 0.003771 0.000000
# 6 0.002030 -0.002030 0.000000 0.000000 0.000000 0.032041
#
#
# Mechanical properties :
#
#
# Convention : Reuss Voigt Hill
#
# Bulk Modulus (GPa) = 56.09270 59.79246 57.94258
# Shear Modulus (GPa) = 44.99787 124.05890 84.52839
#
# Velocity S-wave (km/s) = 4.95561 8.22839 6.79207
# Velocity P-wave (km/s) = 7.95973 11.08637 9.65051
#
# Compressibility (1/GPa) = 0.01782763
#
# Stress axis : x y z
#
# Youngs Moduli (GPa) = 65.33478 65.33478 90.11081
#
# Poissons Ratio (x) = 0.21074 0.39266
# Poissons Ratio (y) = 0.21074 0.39266
# Poissons Ratio (z) = 0.28470 0.28470
#
# Static dielectric constant tensor:
#      x y z
#    x 1.663290 0.000000 0.000000 
#    y 0.000000 1.663290 0.000000 
#    z 0.000000 0.000000 1.634810 
# 
# From -- ./inp_files/4291.got.cif
#   From: 2010.05.17/outbox.cif.g08.bks.cpg/sg84_3_cif.got.tgz:4291.got - 2010.06.03 18:57:40.
