data_PCOD9544850
_publ_section_title
;
Structure prediction by ZEFSAII (Michael W. Deem and Ramdas Pophale) SiO2 
 PCOD9544850
Probable space group: P 4/N
;
_chemical_formula_sum "Si O2"
_cell_formula_units_Z 32
_cell_length_a 12.394182
_cell_length_b 12.394182
_cell_length_c 9.338384
_cell_angle_alpha 90.000000
_cell_angle_beta 90.000000
_cell_angle_gamma 90.000000
_cell_volume 1434.522838
_symmetry_space_group_name_H-M "P 4/N"
_symmetry_group_IT_number 85
_symmetry_cell_setting 'tetragonal'
loop_
_space_group_symop_operation_xyz
x,y,z
1/2-y,x,z
1/2-x,1/2-y,z
y,1/2-x,z
-x,-y,-z
1/2+y,-x,-z
1/2+x,1/2+y,-z
-y,1/2+x,-z
loop_
_atom_site_type_symbol
_atom_site_label
_atom_site_fract_x
_atom_site_fract_y
_atom_site_fract_z
Si Si1 0.373460 0.738058 0.753326
Si Si2 0.728327 0.932605 0.531001
Si Si3 0.571554 0.725486 0.209178
Si Si4 0.074753 0.896285 0.017812
O O1 0.250000 0.750000 0.700675
O O2 0.466897 0.721701 0.637422
O O3 0.403616 0.841200 0.851752
O O4 0.375903 0.639914 0.867068
O O5 0.634391 0.841229 0.548615
O O6 0.719868 0.977021 0.368482
O O7 0.662406 0.633116 0.204148
O O8 0.501271 0.701048 0.072067
O O9 0.000000 0.000000 0.000000
#
# Coordination Sequence:
#
# PCOD9544850 Si02
#       4
#     8   8   8   8
#     4  12  24  44  59  96 142 176 216 273 350 414
#     4   9  20  44  73 100 129 172 235 293 332 393
#     4   9  20  41  69  99 129 164 228 290 331 385
#     4  12  23  41  66  91 131 178 226 271 338 407
#
# _framework density 22.307068000000001
#
# number of rings (size 3 to 8) (size 9 to 14) (size 15 to 20)
#    0.000    1.500    2.500    4.500    0.000    0.000 
#    4.500    7.500    0.000    0.000    0.000    0.000 
#    0.000    0.000    0.000    0.000    0.000    0.000 
#
# Total GULP energy -178878.041708 kJ/mol
# GULP energy per Si atom -5589.938803 kJ/mol
# Density = 2.225630 g / cm^3
# Si number density = 22.307068 Si / 1000 Ang^3
#
#
#
# Elastic Constant Matrix: (Units=GPa)
#
#
# Indices 1 2 3 4 5 6 
#
# 1 104.7932 21.2576 42.0835 0.0000 0.0000 5.5529
# 2 21.2576 104.7932 42.0835 0.0000 0.0000 -5.5529
# 3 42.0835 42.0835 96.6463 0.0000 0.0000 0.0000
# 4 0.0000 0.0000 0.0000 34.3244 0.0000 0.0000
# 5 0.0000 0.0000 0.0000 0.0000 34.3244 0.0000
# 6 5.5529 -5.5529 0.0000 0.0000 0.0000 37.7259
#
#
#
# Elastic Compliance Matrix: (Units=1/GPa)
#
#
# Indices 1 2 3 4 5 6 
#
# 1 0.011698 -0.000512 -0.004871 0.000000 0.000000 -0.001797
# 2 -0.000512 0.011698 -0.004871 0.000000 0.000000 0.001797
# 3 -0.004871 -0.004871 0.014589 0.000000 0.000000 0.000000
# 4 0.000000 0.000000 0.000000 0.029134 0.000000 0.000000
# 5 0.000000 0.000000 0.000000 0.000000 0.029134 0.000000
# 6 -0.001797 0.001797 0.000000 0.000000 0.000000 0.027036
#
#
# Mechanical properties :
#
#
# Convention : Reuss Voigt Hill
#
# Bulk Modulus (GPa) = 57.21697 57.45353 57.33525
# Shear Modulus (GPa) = 33.41794 34.66216 34.04005
#
# Velocity S-wave (km/s) = 3.87471 3.94619 3.91061
# Velocity P-wave (km/s) = 6.76190 6.82458 6.79331
#
# Compressibility (1/GPa) = 0.01747733
#
# Stress axis : x y z
#
# Youngs Moduli (GPa) = 85.48692 85.48692 68.54624
#
# Poissons Ratio (x) = 0.04378 0.33386
# Poissons Ratio (y) = 0.04378 0.33386
# Poissons Ratio (z) = 0.41637 0.41637
#
# Static dielectric constant tensor:
#      x y z
#    x 1.851450 0.000000 0.000000 
#    y 0.000000 1.851450 0.000000 
#    z 0.000000 0.000000 1.777950 
# 
# From -- ./inp_files/1416.got.cif
#   From: 2010.05.17/outbox.cif.g08.bks.cpg/sg85_cif.got.tgz:1416.got - 2010.06.03 19:01:16.
