data_PCOD9544585
_publ_section_title
;
Structure prediction by ZEFSAII (Michael W. Deem and Ramdas Pophale) SiO2 
 PCOD9544585
Probable space group: P 4/N
;
_chemical_formula_sum "Si O2"
_cell_formula_units_Z 34
_cell_length_a 12.653911
_cell_length_b 12.653911
_cell_length_c 9.843311
_cell_angle_alpha 90.000000
_cell_angle_beta 90.000000
_cell_angle_gamma 90.000000
_cell_volume 1576.125364
_symmetry_space_group_name_H-M "P 4/N"
_symmetry_group_IT_number 85
_symmetry_cell_setting 'tetragonal'
loop_
_space_group_symop_operation_xyz
x,y,z
1/2-y,x,z
1/2-x,1/2-y,z
y,1/2-x,z
-x,-y,-z
1/2+y,-x,-z
1/2+x,1/2+y,-z
-y,1/2+x,-z
loop_
_atom_site_type_symbol
_atom_site_label
_atom_site_fract_x
_atom_site_fract_y
_atom_site_fract_z
Si Si1 0.250000 0.750000 0.000000
Si Si2 0.014784 0.890085 0.922800
Si Si3 0.409866 0.686747 0.464171
Si Si4 0.930846 0.243283 0.842032
Si Si5 0.661727 0.902078 0.647191
O O1 0.313651 0.823539 0.897143
O O2 0.133111 0.902297 0.856508
O O3 0.938160 0.867624 0.798312
O O4 0.995180 0.799846 0.038302
O O5 0.000000 0.000000 0.000000
O O6 0.300444 0.621483 0.469845
O O7 0.448372 0.709144 0.310715
O O8 0.503076 0.631030 0.546678
O O9 0.611815 0.787506 0.625206
#
# Coordination Sequence:
#
# PCOD9544585 Si02
#       5
#     2   8   8   8   8
#     4   8  16  32  58  84 132 156 210 288 328 372
#     4  11  23  41  67  96 132 174 229 285 342 405
#     4  11  23  39  67 102 136 173 226 285 338 405
#     4  10  21  36  61  97 124 167 222 280 334 390
#     4  11  26  46  65  94 141 187 223 277 358 427
#
# _framework density 21.571887
#
# number of rings (size 3 to 8) (size 9 to 14) (size 15 to 20)
#    0.000    1.412    2.353    2.824    9.882    2.824 
#    0.000    0.000    0.000    2.824    0.000    0.000 
#    0.000    0.000    0.000    0.000    0.000    0.000 
#
# Total GULP energy -189521.098665 kJ/mol
# GULP energy per Si atom -5574.149961 kJ/mol
# Density = 2.152279 g / cm^3
# Si number density = 21.571887 Si / 1000 Ang^3
#
#
#
# Elastic Constant Matrix: (Units=GPa)
#
#
# Indices 1 2 3 4 5 6 
#
# 1 65.9624 6.0051 2.2152 0.0000 0.0000 10.3934
# 2 6.0051 65.9624 2.2152 0.0000 0.0000 -10.3934
# 3 2.2152 2.2152 112.7315 0.0000 0.0000 0.0000
# 4 0.0000 0.0000 0.0000 19.6013 0.0000 0.0000
# 5 0.0000 0.0000 0.0000 0.0000 19.6013 0.0000
# 6 10.3934 -10.3934 0.0000 0.0000 0.0000 -18.5418
#
#
#
# Elastic Compliance Matrix: (Units=1/GPa)
#
#
# Indices 1 2 3 4 5 6 
#
# 1 0.013938 -0.000026 -0.000273 0.000000 0.000000 0.007828
# 2 -0.000026 0.013938 -0.000273 0.000000 0.000000 -0.007828
# 3 -0.000273 -0.000273 0.008881 0.000000 0.000000 0.000000
# 4 0.000000 0.000000 0.000000 0.051017 0.000000 0.000000
# 5 0.000000 0.000000 0.000000 0.000000 0.051017 0.000000
# 6 0.007828 -0.007828 0.000000 0.000000 0.000000 -0.045157
#
#
# Mechanical properties :
#
#
# Convention : Reuss Voigt Hill
#
# Bulk Modulus (GPa) = 28.08053 29.50303 28.79178
# Shear Modulus (GPa) = 46.88135 19.74689 33.31412
#
# Velocity S-wave (km/s) = 4.66688 3.02884 3.93406
# Velocity P-wave (km/s) = 6.48731 5.09295 5.83195
#
# Compressibility (1/GPa) = 0.03561187
#
# Stress axis : x y z
#
# Youngs Moduli (GPa) = 71.74455 71.74455 112.59513
#
# Poissons Ratio (x) = 0.00189 0.03078
# Poissons Ratio (y) = 0.00189 0.03078
# Poissons Ratio (z) = 0.01961 0.01961
#
# Static dielectric constant tensor:
#      x y z
#    x 1.900090 0.000000 0.000000 
#    y 0.000000 1.900090 0.000000 
#    z 0.000000 0.000000 1.797100 
# 
# From -- ./inp_files/777.got.cif
#   From: 2010.05.17/outbox.cif.g08.bks.cpg/sg85_cif.got.tgz:777.got - 2010.06.03 19:01:16.
