data_PCOD9544277
_publ_section_title
;
Structure prediction by ZEFSAII (Michael W. Deem and Ramdas Pophale) SiO2 
 PCOD9544277
Probable space group: P 42/M
;
_chemical_formula_sum "Si O2"
_cell_formula_units_Z 18
_cell_length_a 5.376903
_cell_length_b 5.376903
_cell_length_c 24.866883
_cell_angle_alpha 90.000000
_cell_angle_beta 90.000000
_cell_angle_gamma 90.000000
_cell_volume 718.928590
_symmetry_space_group_name_H-M "P 42/M"
_symmetry_group_IT_number 84
_symmetry_cell_setting 'tetragonal'
loop_
_space_group_symop_operation_xyz
x,y,z
-y,x,1/2+z
-x,-y,z
y,-x,1/2+z
-x,-y,-z
y,-x,1/2-z
x,y,-z
-y,x,1/2-z
loop_
_atom_site_type_symbol
_atom_site_label
_atom_site_fract_x
_atom_site_fract_y
_atom_site_fract_z
Si Si1 0.665769 0.750387 0.558229
Si Si2 0.247284 0.854612 0.823132
Si Si3 0.500000 0.500000 0.250000
O O1 0.500000 0.500000 0.560737
O O2 0.799391 0.746396 0.500000
O O3 0.820006 0.757862 0.612612
O O4 0.500000 0.000000 0.559065
O O5 0.287965 0.600366 0.790416
O O6 0.500000 0.000000 0.811241
O O7 0.000000 0.000000 0.808053
#
# Coordination Sequence:
#
# PCOD9544277 Si02
#       3
#     8   8   2
#     4  10  21  43  74 108 151 196 249 325 403 480
#     4  12  29  48  79 112 151 207 265 328 405 479
#     4  12  32  52  70 108 164 200 268 338 388 484
#
# _framework density 25.03726
#
# number of rings (size 3 to 8) (size 9 to 14) (size 15 to 20)
#    0.000    0.889    2.222    2.667    6.222    1.778 
#    0.000    0.000    0.000    0.000    0.000    0.000 
#    0.000    0.000    0.000    0.000    0.000    0.000 
#
# Total GULP energy -100863.764728 kJ/mol
# GULP energy per Si atom -5603.542485 kJ/mol
# Density = 2.498027 g / cm^3
# Si number density = 25.037260 Si / 1000 Ang^3
#
#
#
# Elastic Constant Matrix: (Units=GPa)
#
#
# Indices 1 2 3 4 5 6 
#
# 1 142.5868 54.7707 43.1621 0.0000 0.0000 -3.3268
# 2 54.7707 142.5868 43.1621 0.0000 0.0000 3.3268
# 3 43.1621 43.1621 233.2313 0.0000 0.0000 0.0000
# 4 0.0000 0.0000 0.0000 193.7174 0.0000 0.0000
# 5 0.0000 0.0000 0.0000 0.0000 193.7174 0.0000
# 6 -3.3268 3.3268 0.0000 0.0000 0.0000 56.9129
#
#
#
# Elastic Compliance Matrix: (Units=1/GPa)
#
#
# Indices 1 2 3 4 5 6 
#
# 1 0.008476 -0.002962 -0.001020 0.000000 0.000000 0.000669
# 2 -0.002962 0.008476 -0.001020 0.000000 0.000000 -0.000669
# 3 -0.001020 -0.001020 0.004665 0.000000 0.000000 0.000000
# 4 0.000000 0.000000 0.000000 0.005162 0.000000 0.000000
# 5 0.000000 0.000000 0.000000 0.000000 0.005162 0.000000
# 6 0.000669 -0.000669 0.000000 0.000000 0.000000 0.017649
#
#
# Mechanical properties :
#
#
# Convention : Reuss Voigt Hill
#
# Bulk Modulus (GPa) = 86.12876 88.95496 87.54186
# Shear Modulus (GPa) = 78.78248 114.02356 96.40302
#
# Velocity S-wave (km/s) = 5.61555 6.75577 6.21188
# Velocity P-wave (km/s) = 8.74762 9.82141 9.30002
#
# Compressibility (1/GPa) = 0.01161052
#
# Stress axis : x y z
#
# Youngs Moduli (GPa) = 117.98502 117.98502 214.35216
#
# Poissons Ratio (x) = 0.34952 0.21870
# Poissons Ratio (y) = 0.34952 0.21870
# Poissons Ratio (z) = 0.12038 0.12038
#
# Static dielectric constant tensor:
#      x y z
#    x 1.995750 0.000000 0.000000 
#    y 0.000000 1.995750 0.000000 
#    z 0.000000 0.000000 1.953460 
# 
# From -- ./inp_files/4594.got.cif
#   From: 2010.05.17/outbox.cif.g08.bks.cpg/sg84_3_cif.got.tgz:4594.got - 2010.06.03 18:57:40.
