data_PCOD9544706
_publ_section_title
;
Structure prediction by ZEFSAII (Michael W. Deem and Ramdas Pophale) SiO2 
 PCOD9544706
Probable space group: P 4/N
;
_chemical_formula_sum "Si O2"
_cell_formula_units_Z 48
_cell_length_a 15.529938
_cell_length_b 15.529938
_cell_length_c 9.980486
_cell_angle_alpha 90.000000
_cell_angle_beta 90.000000
_cell_angle_gamma 90.000000
_cell_volume 2407.083376
_symmetry_space_group_name_H-M "P 4/N"
_symmetry_group_IT_number 85
_symmetry_cell_setting 'tetragonal'
loop_
_space_group_symop_operation_xyz
x,y,z
1/2-y,x,z
1/2-x,1/2-y,z
y,1/2-x,z
-x,-y,-z
1/2+y,-x,-z
1/2+x,1/2+y,-z
-y,1/2+x,-z
loop_
_atom_site_type_symbol
_atom_site_label
_atom_site_fract_x
_atom_site_fract_y
_atom_site_fract_z
Si Si1 0.198516 0.881471 0.990652
Si Si2 0.059893 0.115736 0.338538
Si Si3 0.349303 0.356524 0.622860
Si Si4 0.382483 0.525831 0.733729
Si Si5 0.000603 0.697936 0.753521
Si Si6 0.198180 0.883932 0.494229
O O1 0.147384 0.924942 0.867652
O O2 0.295459 0.850060 0.956954
O O3 0.207448 0.949371 0.109196
O O4 0.104920 0.113806 0.484324
O O5 0.973088 0.061035 0.321629
O O6 0.037206 0.212659 0.299640
O O7 0.128830 0.074629 0.238468
O O8 0.245577 0.366101 0.628678
O O9 0.384159 0.422124 0.736034
O O10 0.314309 0.553759 0.619573
O O11 0.068663 0.668519 0.639861
O O12 0.297190 0.855563 0.479753
#
# Coordination Sequence:
#
# PCOD9544706 Si02
#       6
#     8   8   8   8   8   8
#     4  11  24  47  71 100 145 185 223 288 362 416
#     4  12  23  43  69 100 133 178 231 285 345 416
#     4  11  24  43  68  99 139 182 223 284 350 410
#     4  12  24  41  70 103 134 177 234 284 345 412
#     4  12  25  42  68  99 136 181 234 279 350 422
#     4  11  21  37  64  99 133 167 222 292 352 413
#
# _framework density 19.941144999999999
#
# number of rings (size 3 to 8) (size 9 to 14) (size 15 to 20)
#    0.000    0.500    6.667    1.500    0.000    5.000 
#    3.000    0.000    0.000    0.000    0.000    0.000 
#    0.000    0.000    0.000    0.000    0.000    0.000 
#
# Total GULP energy -268206.599512 kJ/mol
# GULP energy per Si atom -5587.637490 kJ/mol
# Density = 1.989576 g / cm^3
# Si number density = 19.941145 Si / 1000 Ang^3
#
#
#
# Elastic Constant Matrix: (Units=GPa)
#
#
# Indices 1 2 3 4 5 6 
#
# 1 101.6683 40.3872 17.6148 0.0000 0.0000 -3.7374
# 2 40.3872 101.6683 17.6148 0.0000 0.0000 3.7374
# 3 17.6148 17.6148 44.1608 0.0000 0.0000 0.0000
# 4 0.0000 0.0000 0.0000 26.0535 0.0000 0.0000
# 5 0.0000 0.0000 0.0000 0.0000 26.0535 0.0000
# 6 -3.7374 3.7374 0.0000 0.0000 0.0000 29.1953
#
#
#
# Elastic Compliance Matrix: (Units=1/GPa)
#
#
# Indices 1 2 3 4 5 6 
#
# 1 0.012195 -0.004382 -0.003116 0.000000 0.000000 0.002122
# 2 -0.004382 0.012195 -0.003116 0.000000 0.000000 -0.002122
# 3 -0.003116 -0.003116 0.025130 0.000000 0.000000 0.000000
# 4 0.000000 0.000000 0.000000 0.038383 0.000000 0.000000
# 5 0.000000 0.000000 0.000000 0.000000 0.038383 0.000000
# 6 0.002122 -0.002122 0.000000 0.000000 0.000000 0.034795
#
#
# Mechanical properties :
#
#
# Convention : Reuss Voigt Hill
#
# Bulk Modulus (GPa) = 35.34766 44.30345 39.82555
# Shear Modulus (GPa) = 26.07695 27.71913 26.89804
#
# Velocity S-wave (km/s) = 3.62013 3.73238 3.67668
# Velocity P-wave (km/s) = 5.93618 6.39058 6.16757
#
# Compressibility (1/GPa) = 0.02829042
#
# Stress axis : x y z
#
# Youngs Moduli (GPa) = 82.00279 82.00279 39.79231
#
# Poissons Ratio (x) = 0.35937 0.12400
# Poissons Ratio (y) = 0.35937 0.12400
# Poissons Ratio (z) = 0.25553 0.25553
#
# Static dielectric constant tensor:
#      x y z
#    x 1.728500 0.000000 0.000000 
#    y 0.000000 1.728500 0.000000 
#    z 0.000000 0.000000 1.670370 
# 
# From -- ./inp_files/1654.got.cif
#   From: 2010.05.17/outbox.cif.g08.bks.cpg/sg85_cif.got.tgz:1654.got - 2010.06.03 19:01:16.
