data_PCOD9544060
_publ_section_title
;
Structure prediction by ZEFSAII (Michael W. Deem and Ramdas Pophale) SiO2 
 PCOD9544060
Probable space group: P 42/M
;
_chemical_formula_sum "Si O2"
_cell_formula_units_Z 58
_cell_length_a 18.218694
_cell_length_b 18.218694
_cell_length_c 9.294252
_cell_angle_alpha 90.000000
_cell_angle_beta 90.000000
_cell_angle_gamma 90.000000
_cell_volume 3084.955662
_symmetry_space_group_name_H-M "P 42/M"
_symmetry_group_IT_number 84
_symmetry_cell_setting 'tetragonal'
loop_
_space_group_symop_operation_xyz
x,y,z
-y,x,1/2+z
-x,-y,z
y,-x,1/2+z
-x,-y,-z
y,-x,1/2-z
x,y,-z
-y,x,1/2-z
loop_
_atom_site_type_symbol
_atom_site_label
_atom_site_fract_x
_atom_site_fract_y
_atom_site_fract_z
Si Si1 0.741217 0.628233 0.834531
Si Si2 0.638398 0.407500 0.836276
Si Si3 0.282237 0.130449 0.826591
Si Si4 0.963802 0.682225 0.672355
Si Si5 0.453893 0.868931 0.828480
Si Si6 0.194680 0.583404 0.830048
Si Si7 0.500000 0.500000 0.750000
Si Si8 0.157785 0.229675 0.836265
O O1 0.659150 0.627008 0.774332
O O2 0.794900 0.585480 0.726814
O O3 0.777387 0.709108 0.836769
O O4 0.744606 0.600211 0.000000
O O5 0.719867 0.439390 0.805681
O O6 0.571323 0.464764 0.827601
O O7 0.641116 0.378265 0.000000
O O8 0.337556 0.181931 0.739569
O O9 0.199239 0.155313 0.794095
O O10 0.300194 0.046857 0.786824
O O11 0.292860 0.139149 0.000000
O O12 0.958897 0.685474 0.500000
O O13 0.934878 0.600866 0.713718
O O14 0.906821 0.739989 0.738401
O O15 0.530803 0.863377 0.748356
O O16 0.463917 0.869500 0.000000
O O17 0.182349 0.583906 0.000000
O O18 0.130744 0.223894 0.000000
#
# Coordination Sequence:
#
# PCOD9544060 Si02
#       8
#     8   8   8   8   8   8   2   8
#     4  10  19  34  58  82 105 140 185 234 284 334
#     4  11  24  40  55  76 104 142 190 239 288 337
#     4  10  20  38  60  85 114 149 187 225 277 338
#     4   9  20  36  58  85 114 147 186 227 272 333
#     4  10  20  35  54  79 112 150 185 228 284 338
#     4  11  23  37  56  82 111 146 190 242 286 336
#     4  12  26  40  56  74 106 148 192 246 290 332
#     4   9  18  34  58  85 113 144 180 224 274 330
#
# _framework density 18.800920000000001
#
# number of rings (size 3 to 8) (size 9 to 14) (size 15 to 20)
#    0.000    1.931    1.379    2.276    0.000    5.517 
#    0.000    2.759    0.000    0.414    0.000    2.897 
#    0.000    0.000    0.000    0.000    0.000    0.000 
#
# Total GULP energy -323542.166245 kJ/mol
# GULP energy per Si atom -5578.313211 kJ/mol
# Density = 1.875813 g / cm^3
# Si number density = 18.800920 Si / 1000 Ang^3
#
#
#
# Elastic Constant Matrix: (Units=GPa)
#
#
# Indices 1 2 3 4 5 6 
#
# 1 73.8451 9.0662 19.2757 0.0000 0.0000 4.9958
# 2 9.0662 73.8451 19.2757 0.0000 0.0000 -4.9958
# 3 19.2757 19.2757 41.7818 0.0000 0.0000 0.0000
# 4 0.0000 0.0000 0.0000 19.4249 0.0000 0.0000
# 5 0.0000 0.0000 0.0000 0.0000 19.4249 0.0000
# 6 4.9958 -4.9958 0.0000 0.0000 0.0000 9.2874
#
#
#
# Elastic Compliance Matrix: (Units=1/GPa)
#
#
# Indices 1 2 3 4 5 6 
#
# 1 0.016094 -0.000739 -0.007084 0.000000 0.000000 -0.009055
# 2 -0.000739 0.016094 -0.007084 0.000000 0.000000 0.009055
# 3 -0.007084 -0.007084 0.030470 0.000000 0.000000 0.000000
# 4 0.000000 0.000000 0.000000 0.051480 0.000000 0.000000
# 5 0.000000 0.000000 0.000000 0.000000 0.051480 0.000000
# 6 -0.009055 0.009055 0.000000 0.000000 0.000000 0.117415
#
#
# Mechanical properties :
#
#
# Convention : Reuss Voigt Hill
#
# Bulk Modulus (GPa) = 30.44660 31.63412 31.04036
# Shear Modulus (GPa) = 15.44181 19.08441 17.26311
#
# Velocity S-wave (km/s) = 2.86900 3.18949 3.03348
# Velocity P-wave (km/s) = 5.21577 5.51599 5.36798
#
# Compressibility (1/GPa) = 0.03284439
#
# Stress axis : x y z
#
# Youngs Moduli (GPa) = 62.13359 62.13359 32.81909
#
# Poissons Ratio (x) = 0.04595 0.23249
# Poissons Ratio (y) = 0.04595 0.23249
# Poissons Ratio (z) = 0.44015 0.44015
#
# Static dielectric constant tensor:
#      x y z
#    x 1.669980 0.000000 0.000000 
#    y 0.000000 1.669980 0.000000 
#    z 0.000000 0.000000 1.631640 
# 
# From -- ./inp_files/1139.got.cif
#   From: 2010.05.17/outbox.cif.g08.bks.cpg/sg84_1_cif.got.tgz:1139.got - 2010.06.03 18:57:40.
