data_PCOD9544960
_publ_section_title
;
Structure prediction by ZEFSAII (Michael W. Deem and Ramdas Pophale) SiO2 
 PCOD9544960
Probable space group: P 42/N
;
_chemical_formula_sum "Si O2"
_cell_formula_units_Z 64
_cell_length_a 11.441044
_cell_length_b 11.441044
_cell_length_c 23.154332
_cell_angle_alpha 90.000000
_cell_angle_beta 90.000000
_cell_angle_gamma 90.000000
_cell_volume 3030.843891
_symmetry_space_group_name_H-M "P 42/N"
_symmetry_group_IT_number 86
_space_group.IT_coordinate_system_code '2'
_symmetry_cell_setting 'tetragonal'
loop_
_space_group_symop_operation_xyz
x,y,z
-y,1/2+x,1/2+z
1/2-x,1/2-y,z
1/2+y,-x,1/2+z
-x,-y,-z
y,1/2-x,1/2-z
1/2+x,1/2+y,-z
1/2-y,x,1/2-z
loop_
_atom_site_type_symbol
_atom_site_label
_atom_site_fract_x
_atom_site_fract_y
_atom_site_fract_z
Si Si1 0.390515 0.765379 0.243221
Si Si2 0.405581 0.777494 0.550679
Si Si3 0.154704 0.345647 0.413151
Si Si4 0.951989 0.825397 0.038713
Si Si5 0.335513 0.945624 0.337519
Si Si6 0.782201 0.039782 0.074409
Si Si7 0.347023 0.553045 0.621731
Si Si8 0.441989 0.581952 0.335195
O O1 0.250000 0.750000 0.240503
O O2 0.396044 0.884624 0.282060
O O3 0.439154 0.769060 0.179025
O O4 0.452649 0.659615 0.277216
O O5 0.539209 0.778400 0.569300
O O6 0.401864 0.739305 0.484427
O O7 0.348264 0.677859 0.589686
O O8 0.372771 0.915492 0.547946
O O9 0.250000 0.250000 0.398930
O O10 0.191493 0.419739 0.471024
O O11 0.126315 0.427498 0.358684
O O12 0.958255 0.707689 0.077149
O O13 0.860279 0.924006 0.061102
O O14 0.370812 0.862161 0.390288
O O15 0.195055 0.948656 0.334717
O O16 0.672567 0.022311 0.114970
O O17 0.473352 0.524198 0.649321
#
# Coordination Sequence:
#
# PCOD9544960 Si02
#       8
#     8   8   8   8   8   8   8   8
#     4   9  21  44  64  85 119 172 221 264 317 393
#     4  11  22  40  61  94 132 169 217 262 321 399
#     4  11  22  38  64  96 133 170 213 274 338 384
#     4  11  23  38  61  95 134 172 208 257 324 408
#     4  10  19  42  67  86 121 169 221 263 314 400
#     4  10  20  39  64  91 126 176 211 251 331 390
#     4  12  26  40  63 101 130 166 220 277 331 378
#     4  10  24  39  64  95 122 162 217 268 321 387
#
# _framework density 21.116230000000002
#
# number of rings (size 3 to 8) (size 9 to 14) (size 15 to 20)
#    0.000    1.500    2.500    3.750    5.250    3.500 
#    4.500    0.000    0.000    0.000    0.000    0.000 
#    0.000    0.000    0.000    0.000    0.000    0.000 
#
# Total GULP energy -356930.729328 kJ/mol
# GULP energy per Si atom -5577.042646 kJ/mol
# Density = 2.106817 g / cm^3
# Si number density = 21.116230 Si / 1000 Ang^3
#
#
#
# Elastic Constant Matrix: (Units=GPa)
#
#
# Indices 1 2 3 4 5 6 
#
# 1 57.1695 -15.5435 -2.7583 0.0000 0.0000 -5.6059
# 2 -15.5435 57.1695 -2.7583 0.0000 0.0000 5.6059
# 3 -2.7583 -2.7583 96.6543 0.0000 0.0000 0.0000
# 4 0.0000 0.0000 0.0000 66.5791 0.0000 0.0000
# 5 0.0000 0.0000 0.0000 0.0000 66.5791 0.0000
# 6 -5.6059 5.6059 0.0000 0.0000 0.0000 32.0021
#
#
#
# Elastic Compliance Matrix: (Units=1/GPa)
#
#
# Indices 1 2 3 4 5 6 
#
# 1 0.019125 0.004990 0.000688 0.000000 0.000000 0.002476
# 2 0.004990 0.019125 0.000688 0.000000 0.000000 -0.002476
# 3 0.000688 0.000688 0.010385 0.000000 0.000000 0.000000
# 4 0.000000 0.000000 0.000000 0.015020 0.000000 0.000000
# 5 0.000000 0.000000 0.000000 0.000000 0.015020 0.000000
# 6 0.002476 -0.002476 0.000000 0.000000 0.000000 0.032115
#
#
# Mechanical properties :
#
#
# Convention : Reuss Voigt Hill
#
# Bulk Modulus (GPa) = 16.29530 18.76370 17.52950
# Shear Modulus (GPa) = 42.18970 48.50229 45.34600
#
# Velocity S-wave (km/s) = 4.47472 4.79782 4.63908
# Velocity P-wave (km/s) = 5.86781 6.29264 6.08393
#
# Compressibility (1/GPa) = 0.06136740
#
# Stress axis : x y z
#
# Youngs Moduli (GPa) = 52.28877 52.28877 96.28878
#
# Poissons Ratio (x) = -0.26093 -0.06626
# Poissons Ratio (y) = -0.26093 -0.06626
# Poissons Ratio (z) = -0.03598 -0.03598
#
# Static dielectric constant tensor:
#      x y z
#    x 1.839320 0.000000 0.000000 
#    y 0.000000 1.839320 0.000000 
#    z 0.000000 0.000000 1.762790 
# 
# From -- ./inp_files/4680.got.cif
#   From: 2010.05.17/outbox.cif.g08.bks.cpg/sg86_3_cif.got.tgz:4680.got - 2010.06.03 19:03:11.
