data_PCOD9544494
_publ_section_title
;
Structure prediction by ZEFSAII (Michael W. Deem and Ramdas Pophale) SiO2 
 PCOD9544494
Probable space group: P 4/N
;
_chemical_formula_sum "Si O2"
_cell_formula_units_Z 48
_cell_length_a 16.621354
_cell_length_b 16.621354
_cell_length_c 8.627455
_cell_angle_alpha 90.000000
_cell_angle_beta 90.000000
_cell_angle_gamma 90.000000
_cell_volume 2383.501892
_symmetry_space_group_name_H-M "P 4/N"
_symmetry_group_IT_number 85
_symmetry_cell_setting 'tetragonal'
loop_
_space_group_symop_operation_xyz
x,y,z
1/2-y,x,z
1/2-x,1/2-y,z
y,1/2-x,z
-x,-y,-z
1/2+y,-x,-z
1/2+x,1/2+y,-z
-y,1/2+x,-z
loop_
_atom_site_type_symbol
_atom_site_label
_atom_site_fract_x
_atom_site_fract_y
_atom_site_fract_z
Si Si1 0.785889 0.133688 0.931668
Si Si2 0.669812 0.539697 0.418441
Si Si3 0.531575 0.561235 0.821322
Si Si4 0.161249 0.465655 0.475229
Si Si5 0.407819 0.887097 0.641993
Si Si6 0.013572 0.363519 0.925972
O O1 0.823605 0.133100 0.758834
O O2 0.695298 0.163053 0.959694
O O3 0.800281 0.043617 0.989461
O O4 0.750281 0.568048 0.502432
O O5 0.595425 0.595988 0.458282
O O6 0.651588 0.452697 0.494306
O O7 0.675143 0.540405 0.234082
O O8 0.521967 0.633257 0.700550
O O9 0.566672 0.480475 0.735031
O O10 0.443744 0.538344 0.884050
O O11 0.596679 0.577496 0.956359
O O12 0.152956 0.546927 0.575402
#
# Coordination Sequence:
#
# PCOD9544494 Si02
#       6
#     8   8   8   8   8   8
#     4  10  22  35  50  82 122 151 185 239 308 372
#     4  11  22  36  60  85 114 154 197 252 307 358
#     4   9  18  34  58  80 111 141 198 248 279 349
#     4  11  21  38  56  85 117 150 202 249 300 369
#     4  10  19  37  56  78 109 149 195 243 285 358
#     4  10  18  35  58  83 108 154 194 240 300 348
#
# _framework density 20.138437
#
# number of rings (size 3 to 8) (size 9 to 14) (size 15 to 20)
#    0.000    1.833    3.333    2.000    2.333    0.333 
#    0.000    0.000    0.000    2.000    0.000    7.000 
#    0.000    0.000    0.000    0.000    0.000    0.000 
#
# Total GULP energy -267794.743814 kJ/mol
# GULP energy per Si atom -5579.057163 kJ/mol
# Density = 2.009260 g / cm^3
# Si number density = 20.138437 Si / 1000 Ang^3
#
#
#
# Elastic Constant Matrix: (Units=GPa)
#
#
# Indices 1 2 3 4 5 6 
#
# 1 36.8504 -4.4539 7.7795 0.0000 0.0000 -6.2223
# 2 -4.4539 36.8504 7.7795 0.0000 0.0000 6.2223
# 3 7.7795 7.7795 87.7717 0.0000 0.0000 0.0000
# 4 0.0000 0.0000 0.0000 23.2349 0.0000 0.0000
# 5 0.0000 0.0000 0.0000 0.0000 23.2349 0.0000
# 6 -6.2223 6.2223 0.0000 0.0000 0.0000 5.3187
#
#
#
# Elastic Compliance Matrix: (Units=1/GPa)
#
#
# Indices 1 2 3 4 5 6 
#
# 1 0.034815 -0.002575 -0.002858 0.000000 0.000000 0.043741
# 2 -0.002575 0.034815 -0.002858 0.000000 0.000000 -0.043741
# 3 -0.002858 -0.002858 0.011900 0.000000 0.000000 0.000000
# 4 0.000000 0.000000 0.000000 0.043039 0.000000 0.000000
# 5 0.000000 0.000000 0.000000 0.000000 0.043039 0.000000
# 6 0.043741 -0.043741 0.000000 0.000000 0.000000 0.290361
#
#
# Mechanical properties :
#
#
# Convention : Reuss Voigt Hill
#
# Bulk Modulus (GPa) = 15.39655 20.40916 17.90286
# Shear Modulus (GPa) = 10.07666 20.38220 15.22943
#
# Velocity S-wave (km/s) = 2.23932 3.18481 2.75296
# Velocity P-wave (km/s) = 3.78788 4.86626 4.36053
#
# Compressibility (1/GPa) = 0.06494960
#
# Stress axis : x y z
#
# Youngs Moduli (GPa) = 28.72354 28.72354 84.03549
#
# Poissons Ratio (x) = 0.07395 0.24013
# Poissons Ratio (y) = 0.07395 0.24013
# Poissons Ratio (z) = 0.08208 0.08208
#
# Static dielectric constant tensor:
#      x y z
#    x 1.713400 0.000000 0.000000 
#    y 0.000000 1.713400 0.000000 
#    z 0.000000 0.000000 1.774610 
# 
# From -- ./inp_files/1089.got.cif
#   From: 2010.05.17/outbox.cif.g08.bks.cpg/sg85_cif.got.tgz:1089.got - 2010.06.03 19:01:16.
