data_PCOD9544041
_publ_section_title
;
Structure prediction by ZEFSAII (Michael W. Deem and Ramdas Pophale) SiO2 
 PCOD9544041
Probable space group: P 42/M
;
_chemical_formula_sum "Si O2"
_cell_formula_units_Z 60
_cell_length_a 12.236810
_cell_length_b 12.236810
_cell_length_c 20.304663
_cell_angle_alpha 90.000000
_cell_angle_beta 90.000000
_cell_angle_gamma 90.000000
_cell_volume 3040.410471
_symmetry_space_group_name_H-M "P 42/M"
_symmetry_group_IT_number 84
_symmetry_cell_setting 'tetragonal'
loop_
_space_group_symop_operation_xyz
x,y,z
-y,x,1/2+z
-x,-y,z
y,-x,1/2+z
-x,-y,-z
y,-x,1/2-z
x,y,-z
-y,x,1/2-z
loop_
_atom_site_type_symbol
_atom_site_label
_atom_site_fract_x
_atom_site_fract_y
_atom_site_fract_z
Si Si1 0.627245 0.488134 0.426028
Si Si2 0.763428 0.704521 0.071515
Si Si3 0.302528 0.045593 0.928005
Si Si4 0.257023 0.306142 0.212973
Si Si5 0.121700 0.113674 0.721477
Si Si6 0.902272 0.911738 0.573518
Si Si7 0.495349 0.763435 0.802198
Si Si8 0.500000 0.000000 0.168243
O O1 0.500000 0.500000 0.406784
O O2 0.640684 0.534061 0.500000
O O3 0.656012 0.359555 0.430139
O O4 0.710340 0.536890 0.372533
O O5 0.753475 0.835810 0.075863
O O6 0.804637 0.671941 0.143623
O O7 0.814781 0.677586 0.000000
O O8 0.208612 0.955608 0.924360
O O9 0.396130 0.031422 0.875499
O O10 0.355477 0.040081 0.000000
O O11 0.188353 0.219633 0.255679
O O12 0.288035 0.420173 0.246824
O O13 0.375560 0.251938 0.202379
O O14 0.151302 0.079450 0.646194
O O15 0.991699 0.139221 0.730772
O O16 0.848406 0.923865 0.500000
O O17 0.000000 0.000000 0.573921
O O18 0.469584 0.890931 0.794318
#
# Coordination Sequence:
#
# PCOD9544041 Si02
#       8
#     8   8   8   8   8   8   8   4
#     4   9  18  35  58  85 117 154 196 241 288 354
#     4   9  18  35  56  82 110 147 195 238 290 346
#     4  10  19  32  55  84 119 149 179 232 296 354
#     4  11  24  40  58  86 118 155 196 251 290 368
#     4  11  22  38  61  87 117 158 195 245 303 352
#     4  10  20  35  56  85 118 155 198 238 285 354
#     4  11  26  37  62  84 121 156 201 242 305 350
#     4  12  21  38  56  90 119 152 184 246 304 378
#
# _framework density 19.734176999999999
#
# number of rings (size 3 to 8) (size 9 to 14) (size 15 to 20)
#    0.000    1.733    4.000    1.800    5.600    0.533 
#    0.000    0.667    0.000    0.800    0.000    0.467 
#    0.000    0.000    0.000    0.000    0.000    0.000 
#
# Total GULP energy -334211.293399 kJ/mol
# GULP energy per Si atom -5570.188223 kJ/mol
# Density = 1.968926 g / cm^3
# Si number density = 19.734177 Si / 1000 Ang^3
#
#
#
# Elastic Constant Matrix: (Units=GPa)
#
#
# Indices 1 2 3 4 5 6 
#
# 1 40.0068 -4.7091 8.2510 0.0000 0.0000 1.8392
# 2 -4.7091 40.0068 8.2510 0.0000 0.0000 -1.8392
# 3 8.2510 8.2510 118.9741 0.0000 0.0000 0.0000
# 4 0.0000 0.0000 0.0000 22.9803 0.0000 0.0000
# 5 0.0000 0.0000 0.0000 0.0000 22.9803 0.0000
# 6 1.8392 -1.8392 0.0000 0.0000 0.0000 16.2575
#
#
#
# Elastic Compliance Matrix: (Units=1/GPa)
#
#
# Indices 1 2 3 4 5 6 
#
# 1 0.025927 0.003353 -0.002031 0.000000 0.000000 -0.002554
# 2 0.003353 0.025927 -0.002031 0.000000 0.000000 0.002554
# 3 -0.002031 -0.002031 0.008687 0.000000 0.000000 0.000000
# 4 0.000000 0.000000 0.000000 0.043516 0.000000 0.000000
# 5 0.000000 0.000000 0.000000 0.000000 0.043516 0.000000
# 6 -0.002554 0.002554 0.000000 0.000000 0.000000 0.062088
#
#
# Mechanical properties :
#
#
# Convention : Reuss Voigt Hill
#
# Bulk Modulus (GPa) = 16.91360 24.73038 20.82199
# Shear Modulus (GPa) = 21.66533 24.92325 23.29429
#
# Velocity S-wave (km/s) = 3.31699 3.55765 3.43943
# Velocity P-wave (km/s) = 4.82278 5.42539 5.13293
#
# Compressibility (1/GPa) = 0.05912401
#
# Stress axis : x y z
#
# Youngs Moduli (GPa) = 38.57039 38.57039 115.11670
#
# Poissons Ratio (x) = -0.12933 0.23375
# Poissons Ratio (y) = -0.12933 0.23375
# Poissons Ratio (z) = 0.07832 0.07832
#
# Static dielectric constant tensor:
#      x y z
#    x 1.694310 0.000000 0.000000 
#    y 0.000000 1.694310 0.000000 
#    z 0.000000 0.000000 1.796950 
# 
# From -- ./inp_files/4550.got.cif
#   From: 2010.05.17/outbox.cif.g08.bks.cpg/sg84_3_cif.got.tgz:4550.got - 2010.06.03 18:57:40.
