data_PCOD9544544
_publ_section_title
;
Structure prediction by ZEFSAII (Michael W. Deem and Ramdas Pophale) SiO2 
 PCOD9544544
Probable space group: P 4/N
;
_chemical_formula_sum "Si O2"
_cell_formula_units_Z 56
_cell_length_a 14.594617
_cell_length_b 14.594617
_cell_length_c 13.822157
_cell_angle_alpha 90.000000
_cell_angle_beta 90.000000
_cell_angle_gamma 90.000000
_cell_volume 2944.158770
_symmetry_space_group_name_H-M "P 4/N"
_symmetry_group_IT_number 85
_symmetry_cell_setting 'tetragonal'
loop_
_space_group_symop_operation_xyz
x,y,z
1/2-y,x,z
1/2-x,1/2-y,z
y,1/2-x,z
-x,-y,-z
1/2+y,-x,-z
1/2+x,1/2+y,-z
-y,1/2+x,-z
loop_
_atom_site_type_symbol
_atom_site_label
_atom_site_fract_x
_atom_site_fract_y
_atom_site_fract_z
Si Si1 0.488458 0.160143 0.735548
Si Si2 0.042236 0.151906 0.619291
Si Si3 0.865518 0.846709 0.586255
Si Si4 0.811703 0.382712 0.507929
Si Si5 0.097315 0.271394 0.925440
Si Si6 0.094740 0.249058 0.146239
Si Si7 0.656068 0.027678 0.703082
O O1 0.414053 0.084267 0.700316
O O2 0.471515 0.246822 0.664070
O O3 0.472512 0.202955 0.841530
O O4 0.584148 0.105506 0.733373
O O5 0.110914 0.145626 0.527125
O O6 0.945278 0.131768 0.566354
O O7 0.761957 0.872956 0.607636
O O8 0.939325 0.895061 0.654844
O O9 0.860390 0.288044 0.532583
O O10 0.794287 0.433595 0.608263
O O11 0.151102 0.175785 0.913800
O O12 0.062638 0.263993 0.035465
O O13 0.163507 0.161759 0.160224
O O14 0.010054 0.223941 0.215039
#
# Coordination Sequence:
#
# PCOD9544544 Si02
#       7
#     8   8   8   8   8   8   8
#     4  12  22  36  57  90 121 154 192 247 299 351
#     4  11  22  34  56  87 120 150 195 246 296 344
#     4  10  20  34  55  86 120 157 196 244 299 350
#     4  10  22  41  58  77 117 168 205 231 275 356
#     4   9  18  35  63  86 111 150 190 238 306 362
#     4   9  19  39  64  90 117 149 190 245 309 363
#     4  11  23  35  59  87 119 155 197 244 296 348
#
# _framework density 19.020712
#
# number of rings (size 3 to 8) (size 9 to 14) (size 15 to 20)
#    0.000    1.714    4.286    1.714    0.000    7.143 
#    0.000    2.857    3.143    0.000    0.000    0.000 
#    0.000    0.000    0.000    0.000    0.000    0.000 
#
# Total GULP energy -311900.926478 kJ/mol
# GULP energy per Si atom -5569.659401 kJ/mol
# Density = 1.897742 g / cm^3
# Si number density = 19.020712 Si / 1000 Ang^3
#
#
#
# Elastic Constant Matrix: (Units=GPa)
#
#
# Indices 1 2 3 4 5 6 
#
# 1 47.3712 13.2590 32.0654 0.0000 0.0000 -0.2996
# 2 13.2590 47.3712 32.0654 0.0000 0.0000 0.2996
# 3 32.0654 32.0654 127.1469 0.0000 0.0000 0.0000
# 4 0.0000 0.0000 0.0000 28.7148 0.0000 0.0000
# 5 0.0000 0.0000 0.0000 0.0000 28.7148 0.0000
# 6 -0.2996 0.2996 0.0000 0.0000 0.0000 13.1949
#
#
#
# Elastic Compliance Matrix: (Units=1/GPa)
#
#
# Indices 1 2 3 4 5 6 
#
# 1 0.025910 -0.003417 -0.005673 0.000000 0.000000 0.000666
# 2 -0.003417 0.025910 -0.005673 0.000000 0.000000 -0.000666
# 3 -0.005673 -0.005673 0.010726 0.000000 0.000000 0.000000
# 4 0.000000 0.000000 0.000000 0.034825 0.000000 0.000000
# 5 0.000000 0.000000 0.000000 0.000000 0.034825 0.000000
# 6 0.000666 -0.000666 0.000000 0.000000 0.000000 0.075817
#
#
# Mechanical properties :
#
#
# Convention : Reuss Voigt Hill
#
# Bulk Modulus (GPa) = 30.28224 41.85209 36.06716
# Shear Modulus (GPa) = 20.11705 23.75821 21.93763
#
# Velocity S-wave (km/s) = 3.25566 3.53805 3.39979
# Velocity P-wave (km/s) = 5.48523 6.22428 5.86640
#
# Compressibility (1/GPa) = 0.03302266
#
# Stress axis : x y z
#
# Youngs Moduli (GPa) = 38.59479 38.59479 93.23002
#
# Poissons Ratio (x) = 0.13186 0.52887
# Poissons Ratio (y) = 0.13186 0.52887
# Poissons Ratio (z) = 0.21894 0.21894
#
# Static dielectric constant tensor:
#      x y z
#    x 1.674230 0.000000 0.000000 
#    y 0.000000 1.674230 0.000000 
#    z 0.000000 0.000000 1.701510 
# 
# From -- ./inp_files/1760.got.cif
#   From: 2010.05.17/outbox.cif.g08.bks.cpg/sg85_cif.got.tgz:1760.got - 2010.06.03 19:01:16.
