data_PCOD9544290
_publ_section_title
;
Structure prediction by ZEFSAII (Michael W. Deem and Ramdas Pophale) SiO2 
 PCOD9544290
Probable space group: P 42/M
;
_chemical_formula_sum "Si O2"
_cell_formula_units_Z 48
_cell_length_a 17.015766
_cell_length_b 17.015766
_cell_length_c 8.785501
_cell_angle_alpha 90.000000
_cell_angle_beta 90.000000
_cell_angle_gamma 90.000000
_cell_volume 2543.721388
_symmetry_space_group_name_H-M "P 42/M"
_symmetry_group_IT_number 84
_symmetry_cell_setting 'tetragonal'
loop_
_space_group_symop_operation_xyz
x,y,z
-y,x,1/2+z
-x,-y,z
y,-x,1/2+z
-x,-y,-z
y,-x,1/2-z
x,y,-z
-y,x,1/2-z
loop_
_atom_site_type_symbol
_atom_site_label
_atom_site_fract_x
_atom_site_fract_y
_atom_site_fract_z
Si Si1 0.381068 0.993026 0.322728
Si Si2 0.224295 0.987681 0.168692
Si Si3 0.148393 0.864483 0.667069
Si Si4 0.822724 0.399178 0.816573
Si Si5 0.285975 0.738226 0.676253
Si Si6 0.170273 0.433566 0.318022
O O1 0.402887 0.988916 0.500000
O O2 0.289736 0.974708 0.295069
O O3 0.423286 0.920898 0.237269
O O4 0.388894 0.084307 0.270920
O O5 0.154458 0.927832 0.201385
O O6 0.191662 0.074390 0.180191
O O7 0.258328 0.974675 0.000000
O O8 0.144238 0.902682 0.500000
O O9 0.224065 0.809488 0.675889
O O10 0.762635 0.333779 0.751718
O O11 0.800626 0.484764 0.753906
O O12 0.820809 0.396105 0.000000
O O13 0.304845 0.719009 0.500000
O O14 0.362514 0.773993 0.759513
O O15 0.171501 0.435930 0.500000
#
# Coordination Sequence:
#
# PCOD9544290 Si02
#       6
#     8   8   8   8   8   8
#     4  11  22  37  59  88 123 159 197 247 304 358
#     4  11  22  36  57  82 112 154 205 252 299 355
#     4  10  22  38  56  81 115 156 201 251 303 351
#     4  11  24  41  63  92 125 161 202 247 301 359
#     4  11  22  40  64  89 122 159 197 244 301 360
#     4  12  25  40  62  92 125 161 203 247 298 358
#
# _framework density 18.869990999999999
#
# number of rings (size 3 to 8) (size 9 to 14) (size 15 to 20)
#    0.000    1.000    3.333    4.000    0.000    6.333 
#    0.000    1.667    0.000    0.500    0.000    3.500 
#    0.000    0.000    0.000    0.000    0.000    0.000 
#
# Total GULP energy -267895.329030 kJ/mol
# GULP energy per Si atom -5581.152688 kJ/mol
# Density = 1.882704 g / cm^3
# Si number density = 18.869991 Si / 1000 Ang^3
#
#
#
# Elastic Constant Matrix: (Units=GPa)
#
#
# Indices 1 2 3 4 5 6 
#
# 1 236.3224 -97.9242 43.9224 0.0000 0.0000 -128.8507
# 2 -97.9242 236.3224 43.9224 0.0000 0.0000 128.8507
# 3 43.9224 43.9224 85.8795 0.0000 0.0000 0.0000
# 4 0.0000 0.0000 0.0000 26.4677 0.0000 0.0000
# 5 0.0000 0.0000 0.0000 0.0000 26.4677 0.0000
# 6 -128.8507 128.8507 0.0000 0.0000 0.0000 144.5537
#
#
#
# Elastic Compliance Matrix: (Units=1/GPa)
#
#
# Indices 1 2 3 4 5 6 
#
# 1 0.010132 0.000566 -0.005472 0.000000 0.000000 0.008527
# 2 0.000566 0.010132 -0.005472 0.000000 0.000000 -0.008527
# 3 -0.005472 -0.005472 0.017241 0.000000 0.000000 0.000000
# 4 0.000000 0.000000 0.000000 0.037782 0.000000 0.000000
# 5 0.000000 0.000000 0.000000 0.000000 0.037782 0.000000
# 6 0.008527 -0.008527 0.000000 0.000000 0.000000 0.022119
#
#
# Mechanical properties :
#
#
# Convention : Reuss Voigt Hill
#
# Bulk Modulus (GPa) = 59.69626 59.81838 59.75732
# Shear Modulus (GPa) = 30.95485 77.40473 54.17979
#
# Velocity S-wave (km/s) = 4.05461 6.41164 5.36418
# Velocity P-wave (km/s) = 7.32285 9.30490 8.37273
#
# Compressibility (1/GPa) = 0.01675147
#
# Stress axis : x y z
#
# Youngs Moduli (GPa) = 98.69574 98.69574 58.00078
#
# Poissons Ratio (x) = -0.05590 0.31736
# Poissons Ratio (y) = -0.05590 0.31736
# Poissons Ratio (z) = 0.54003 0.54003
#
# Static dielectric constant tensor:
#      x y z
#    x 1.659270 0.000000 0.000000 
#    y 0.000000 1.659270 0.000000 
#    z 0.000000 0.000000 1.695420 
# 
# From -- ./inp_files/1020.got.cif
#   From: 2010.05.17/outbox.cif.g08.bks.cpg/sg84_1_cif.got.tgz:1020.got - 2010.06.03 18:57:40.
