data_PCOD9544095
_publ_section_title
;
Structure prediction by ZEFSAII (Michael W. Deem and Ramdas Pophale) SiO2 
 PCOD9544095
Probable space group: P 42/M
;
_chemical_formula_sum "Si O2"
_cell_formula_units_Z 64
_cell_length_a 20.622229
_cell_length_b 20.622229
_cell_length_c 8.470269
_cell_angle_alpha 90.000000
_cell_angle_beta 90.000000
_cell_angle_gamma 90.000000
_cell_volume 3602.204905
_symmetry_space_group_name_H-M "P 42/M"
_symmetry_group_IT_number 84
_symmetry_cell_setting 'tetragonal'
loop_
_space_group_symop_operation_xyz
x,y,z
-y,x,1/2+z
-x,-y,z
y,-x,1/2+z
-x,-y,-z
y,-x,1/2-z
x,y,-z
-y,x,1/2-z
loop_
_atom_site_type_symbol
_atom_site_label
_atom_site_fract_x
_atom_site_fract_y
_atom_site_fract_z
Si Si1 0.712030 0.790742 0.688009
Si Si2 0.942828 0.631354 0.807812
Si Si3 0.908859 0.370730 0.809731
Si Si4 0.514978 0.594888 0.182562
Si Si5 0.861666 0.508718 0.313531
Si Si6 0.415800 0.745667 0.318473
Si Si7 0.330396 0.631716 0.691076
Si Si8 0.282743 0.830052 0.319466
O O1 0.708131 0.789013 0.500000
O O2 0.686081 0.860350 0.744527
O O3 0.662549 0.736401 0.753202
O O4 0.784344 0.769397 0.736170
O O5 0.909643 0.564605 0.751830
O O6 0.898550 0.692081 0.752838
O O7 0.017017 0.635156 0.754461
O O8 0.940244 0.631275 0.000000
O O9 0.879511 0.439826 0.760268
O O10 0.910955 0.368955 0.000000
O O11 0.569294 0.537963 0.195842
O O12 0.556889 0.657117 0.232582
O O13 0.493285 0.599531 0.000000
O O14 0.868827 0.504805 0.500000
O O15 0.789042 0.532359 0.271762
O O16 0.436819 0.736665 0.500000
O O17 0.388562 0.678705 0.247343
O O18 0.349593 0.788433 0.321909
O O19 0.332758 0.635625 0.500000
O O20 0.261669 0.839204 0.500000
#
# Coordination Sequence:
#
# PCOD9544095 Si02
#       8
#     8   8   8   8   8   8   8   8
#     4  10  20  32  49  72  95 119 148 186 227 265
#     4   9  18  34  53  68  89 128 168 192 219 273
#     4  10  21  35  48  66  96 131 161 186 223 279
#     4  10  20  34  49  64  81 103 136 182 233 280
#     4  11  21  30  44  70  99 125 159 202 239 266
#     4   8  15  30  48  64  86 121 159 187 221 276
#     4   9  19  34  50  66  87 116 149 186 230 281
#     4   8  15  30  51  69  87 117 154 189 224 263
#
# _framework density 17.766895999999999
#
# number of rings (size 3 to 8) (size 9 to 14) (size 15 to 20)
#    0.000    2.625    0.000    4.125    0.000    9.500 
#    0.000    3.750    0.000    0.000    0.000    0.000 
#    0.000    0.500    0.000    6.250    0.000    0.000 
#
# Total GULP energy -356823.824706 kJ/mol
# GULP energy per Si atom -5575.372261 kJ/mol
# Density = 1.772646 g / cm^3
# Si number density = 17.766896 Si / 1000 Ang^3
#
#
#
# Elastic Constant Matrix: (Units=GPa)
#
#
# Indices 1 2 3 4 5 6 
#
# 1 67.2777 50.3584 5.5783 0.0000 0.0000 4.9119
# 2 50.3584 67.2777 5.5783 0.0000 0.0000 -4.9119
# 3 5.5783 5.5783 16.9810 0.0000 0.0000 0.0000
# 4 0.0000 0.0000 0.0000 -15.1714 0.0000 0.0000
# 5 0.0000 0.0000 0.0000 0.0000 -15.1714 0.0000
# 6 4.9119 -4.9119 0.0000 0.0000 0.0000 20.7909
#
#
#
# Elastic Compliance Matrix: (Units=1/GPa)
#
#
# Indices 1 2 3 4 5 6 
#
# 1 0.038637 -0.029863 -0.002882 0.000000 0.000000 -0.016183
# 2 -0.029863 0.038637 -0.002882 0.000000 0.000000 0.016183
# 3 -0.002882 -0.002882 0.060783 0.000000 0.000000 0.000000
# 4 0.000000 0.000000 0.000000 -0.065914 0.000000 0.000000
# 5 0.000000 0.000000 0.000000 0.000000 -0.065914 0.000000
# 6 -0.016183 0.016183 0.000000 0.000000 0.000000 0.055745
#
#
# Mechanical properties :
#
#
# Convention : Reuss Voigt Hill
#
# Bulk Modulus (GPa) = 14.96960 30.50737 22.73848
# Shear Modulus (GPa) = 32.15479 4.09105 18.12292
#
# Velocity S-wave (km/s) = 4.25881 1.51909 3.19727
# Velocity P-wave (km/s) = 5.71201 4.50389 5.14354
#
# Compressibility (1/GPa) = 0.06680205
#
# Stress axis : x y z
#
# Youngs Moduli (GPa) = 25.88178 25.88178 16.45195
#
# Poissons Ratio (x) = 0.77291 0.04742
# Poissons Ratio (y) = 0.77291 0.04742
# Poissons Ratio (z) = 0.07460 0.07460
#
# Static dielectric constant tensor:
#      x y z
#    x 1.646800 0.000000 0.000000 
#    y 0.000000 1.646800 0.000000 
#    z 0.000000 0.000000 1.602840 
# 
# From -- ./inp_files/1372.got.cif
#   From: 2010.05.17/outbox.cif.g08.bks.cpg/sg84_1_cif.got.tgz:1372.got - 2010.06.03 18:57:40.
