data_PCOD9544087
_publ_section_title
;
Structure prediction by ZEFSAII (Michael W. Deem and Ramdas Pophale) SiO2 
 PCOD9544087
Probable space group: P 42/M
;
_chemical_formula_sum "Si O2"
_cell_formula_units_Z 48
_cell_length_a 9.621625
_cell_length_b 9.621625
_cell_length_c 28.644226
_cell_angle_alpha 90.000000
_cell_angle_beta 90.000000
_cell_angle_gamma 90.000000
_cell_volume 2651.758346
_symmetry_space_group_name_H-M "P 42/M"
_symmetry_group_IT_number 84
_symmetry_cell_setting 'tetragonal'
loop_
_space_group_symop_operation_xyz
x,y,z
-y,x,1/2+z
-x,-y,z
y,-x,1/2+z
-x,-y,-z
y,-x,1/2-z
x,y,-z
-y,x,1/2-z
loop_
_atom_site_type_symbol
_atom_site_label
_atom_site_fract_x
_atom_site_fract_y
_atom_site_fract_z
Si Si1 0.991767 0.157817 0.414340
Si Si2 0.828404 0.249192 0.847025
Si Si3 0.164804 0.163013 0.753978
Si Si4 0.473825 0.334294 0.602146
Si Si5 0.919472 0.646515 0.500000
Si Si6 0.584480 0.644249 0.500000
Si Si7 0.152476 0.283145 0.144507
O O1 0.097366 0.163179 0.370456
O O2 0.035688 0.265648 0.454214
O O3 0.840127 0.179423 0.392530
O O4 0.000000 0.000000 0.433323
O O5 0.793700 0.246470 0.792293
O O6 0.709980 0.331135 0.873908
O O7 0.985274 0.309100 0.854028
O O8 0.193180 0.234418 0.803282
O O9 0.002363 0.185310 0.742346
O O10 0.500000 0.500000 0.604029
O O11 0.461374 0.286602 0.548271
O O12 0.589593 0.245582 0.628478
O O13 0.751808 0.626156 0.500000
O O14 0.000000 0.500000 0.500000
O O15 0.500000 0.500000 0.500000
#
# Coordination Sequence:
#
# PCOD9544087 Si02
#       7
#     8   8   8   8   4   4   8
#     4  10  21  38  63  95 124 149 196 260 304 347
#     4  10  19  39  63  88 122 157 197 250 298 357
#     4   9  16  33  63  92 117 154 196 244 305 356
#     4  11  24  42  61  81 124 165 202 244 294 362
#     4  12  25  39  67  90 120 158 204 250 307 363
#     4  10  24  43  60  81 119 165 200 237 301 358
#     4  10  21  37  63  92 120 157 200 244 302 359
#
# _framework density 18.101198
#
# number of rings (size 3 to 8) (size 9 to 14) (size 15 to 20)
#    0.000    1.833    3.333    0.750    4.667    0.000 
#    3.000    2.500    0.000    0.000    0.000    0.000 
#    0.000    0.000    0.000    0.000    0.000    0.000 
#
# Total GULP energy -267670.884497 kJ/mol
# GULP energy per Si atom -5576.476760 kJ/mol
# Density = 1.806000 g / cm^3
# Si number density = 18.101198 Si / 1000 Ang^3
#
#
#
# Elastic Constant Matrix: (Units=GPa)
#
#
# Indices 1 2 3 4 5 6 
#
# 1 44.1272 17.5246 22.8946 0.0000 0.0000 2.6585
# 2 17.5246 44.1272 22.8946 0.0000 0.0000 -2.6585
# 3 22.8946 22.8946 130.0900 0.0000 0.0000 0.0000
# 4 0.0000 0.0000 0.0000 19.4432 0.0000 0.0000
# 5 0.0000 0.0000 0.0000 0.0000 19.4432 0.0000
# 6 2.6585 -2.6585 0.0000 0.0000 0.0000 26.8734
#
#
#
# Elastic Compliance Matrix: (Units=1/GPa)
#
#
# Indices 1 2 3 4 5 6 
#
# 1 0.028504 -0.009845 -0.003284 0.000000 0.000000 -0.003794
# 2 -0.009845 0.028504 -0.003284 0.000000 0.000000 0.003794
# 3 -0.003284 -0.003284 0.008843 0.000000 0.000000 0.000000
# 4 0.000000 0.000000 0.000000 0.051432 0.000000 0.000000
# 5 0.000000 0.000000 0.000000 0.000000 0.051432 0.000000
# 6 -0.003794 0.003794 0.000000 0.000000 0.000000 0.037962
#
#
# Mechanical properties :
#
#
# Convention : Reuss Voigt Hill
#
# Bulk Modulus (GPa) = 30.27950 38.33023 34.30486
# Shear Modulus (GPa) = 19.95935 23.48736 21.72335
#
# Velocity S-wave (km/s) = 3.32422 3.60607 3.46801
# Velocity P-wave (km/s) = 5.61232 6.20966 5.91853
#
# Compressibility (1/GPa) = 0.03302565
#
# Stress axis : x y z
#
# Youngs Moduli (GPa) = 35.08310 35.08310 113.08601
#
# Poissons Ratio (x) = 0.34538 0.37135
# Poissons Ratio (y) = 0.34538 0.37135
# Poissons Ratio (z) = 0.11521 0.11521
#
# Static dielectric constant tensor:
#      x y z
#    x 1.614620 0.000000 0.000000 
#    y 0.000000 1.614620 0.000000 
#    z 0.000000 0.000000 1.619360 
# 
# From -- ./inp_files/5832.got.cif
#   From: 2010.05.17/outbox.cif.g08.bks.cpg/sg84_3_cif.got.tgz:5832.got - 2010.06.03 18:57:40.
