data_PCOD9544082
_publ_section_title
;
Structure prediction by ZEFSAII (Michael W. Deem and Ramdas Pophale) SiO2 
 PCOD9544082
Probable space group: P 42/M
;
_chemical_formula_sum "Si O2"
_cell_formula_units_Z 64
_cell_length_a 11.768824
_cell_length_b 11.768824
_cell_length_c 21.362131
_cell_angle_alpha 90.000000
_cell_angle_beta 90.000000
_cell_angle_gamma 90.000000
_cell_volume 2958.766618
_symmetry_space_group_name_H-M "P 42/M"
_symmetry_group_IT_number 84
_symmetry_cell_setting 'tetragonal'
loop_
_space_group_symop_operation_xyz
x,y,z
-y,x,1/2+z
-x,-y,z
y,-x,1/2+z
-x,-y,-z
y,-x,1/2-z
x,y,-z
-y,x,1/2-z
loop_
_atom_site_type_symbol
_atom_site_label
_atom_site_fract_x
_atom_site_fract_y
_atom_site_fract_z
Si Si1 0.520048 0.293733 0.673922
Si Si2 0.790549 0.088520 0.838019
Si Si3 0.912609 0.407008 0.114404
Si Si4 0.017576 0.836498 0.073220
Si Si5 0.625325 0.949229 0.761475
Si Si6 0.899520 0.242293 0.428580
Si Si7 0.725225 0.630743 0.301207
Si Si8 0.751556 0.403548 0.356637
O O1 0.468867 0.208816 0.622261
O O2 0.581610 0.234469 0.733965
O O3 0.410348 0.358474 0.700605
O O4 0.620413 0.370561 0.648241
O O5 0.912837 0.099373 0.871387
O O6 0.744811 0.213233 0.822398
O O7 0.740773 0.018650 0.778559
O O8 0.728081 0.012916 0.890559
O O9 0.933105 0.290923 0.077744
O O10 0.942582 0.382039 0.187164
O O11 0.000000 0.500000 0.089481
O O12 0.883059 0.848916 0.087558
O O13 0.034684 0.874460 0.000000
O O14 0.637897 0.827984 0.796866
O O15 0.500000 0.000000 0.782354
O O16 0.929035 0.238569 0.500000
O O17 0.807519 0.337538 0.413345
O O18 0.758547 0.538173 0.353017
#
# Coordination Sequence:
#
# PCOD9544082 Si02
#       8
#     8   8   8   8   8   8   8   8
#     4  12  22  37  62  98 136 179 212 255 327 402
#     4  11  22  39  69  97 126 164 216 274 331 395
#     4  11  21  38  62  92 131 175 215 265 323 385
#     4  11  24  45  67  92 127 171 224 273 323 395
#     4  10  19  38  61  92 136 165 201 269 335 386
#     4  10  24  46  70  91 122 172 225 276 334 391
#     4  12  21  37  63  99 135 170 214 257 321 404
#     4  11  22  37  66  97 130 171 218 265 317 393
#
# _framework density 21.630635999999999
#
# number of rings (size 3 to 8) (size 9 to 14) (size 15 to 20)
#    0.000    1.000    5.000    2.625    0.000    1.250 
#    2.250    2.500    0.000    0.750    0.000    0.000 
#    0.000    0.000    0.000    0.000    0.000    0.000 
#
# Total GULP energy -356811.660416 kJ/mol
# GULP energy per Si atom -5575.182194 kJ/mol
# Density = 2.158140 g / cm^3
# Si number density = 21.630636 Si / 1000 Ang^3
#
#
#
# Elastic Constant Matrix: (Units=GPa)
#
#
# Indices 1 2 3 4 5 6 
#
# 1 75.4325 -1.0852 7.3855 0.0000 0.0000 3.7500
# 2 -1.0852 75.4325 7.3855 0.0000 0.0000 -3.7500
# 3 7.3855 7.3855 38.5348 0.0000 0.0000 0.0000
# 4 0.0000 0.0000 0.0000 -29.6954 0.0000 0.0000
# 5 0.0000 0.0000 0.0000 0.0000 -29.6954 0.0000
# 6 3.7500 -3.7500 0.0000 0.0000 0.0000 38.5600
#
#
#
# Elastic Compliance Matrix: (Units=1/GPa)
#
#
# Indices 1 2 3 4 5 6 
#
# 1 0.013589 0.000394 -0.002680 0.000000 0.000000 -0.001283
# 2 0.000394 0.013589 -0.002680 0.000000 0.000000 0.001283
# 3 -0.002680 -0.002680 0.026978 0.000000 0.000000 0.000000
# 4 0.000000 0.000000 0.000000 -0.033675 0.000000 0.000000
# 5 0.000000 0.000000 0.000000 0.000000 -0.033675 0.000000
# 6 -0.001283 0.001283 0.000000 0.000000 0.000000 0.026183
#
#
# Mechanical properties :
#
#
# Convention : Reuss Voigt Hill
#
# Bulk Modulus (GPa) = 22.61225 24.08570 23.34897
# Shear Modulus (GPa) = 132.76436 7.54811 70.15623
#
# Velocity S-wave (km/s) = 7.84291 1.87006 5.70124
# Velocity P-wave (km/s) = 9.61724 3.97769 7.35912
#
# Compressibility (1/GPa) = 0.04422382
#
# Stress axis : x y z
#
# Youngs Moduli (GPa) = 73.59040 73.59040 37.06751
#
# Poissons Ratio (x) = -0.02900 0.09934
# Poissons Ratio (y) = -0.02900 0.09934
# Poissons Ratio (z) = 0.19722 0.19722
#
# Static dielectric constant tensor:
#      x y z
#    x 1.858480 0.000000 0.000000 
#    y 0.000000 1.858480 0.000000 
#    z 0.000000 0.000000 1.790360 
# 
# From -- ./inp_files/5079.got.cif
#   From: 2010.05.17/outbox.cif.g08.bks.cpg/sg84_3_cif.got.tgz:5079.got - 2010.06.03 18:57:40.
