data_PCOD9544454
_publ_section_title
;
Structure prediction by ZEFSAII (Michael W. Deem and Ramdas Pophale) SiO2 
 PCOD9544454
Probable space group: P 42/M
;
_chemical_formula_sum "Si O2"
_cell_formula_units_Z 18
_cell_length_a 5.255396
_cell_length_b 5.255396
_cell_length_c 25.571987
_cell_angle_alpha 90.000000
_cell_angle_beta 90.000000
_cell_angle_gamma 90.000000
_cell_volume 706.277494
_symmetry_space_group_name_H-M "P 42/M"
_symmetry_group_IT_number 84
_symmetry_cell_setting 'tetragonal'
loop_
_space_group_symop_operation_xyz
x,y,z
-y,x,1/2+z
-x,-y,z
y,-x,1/2+z
-x,-y,-z
y,-x,1/2-z
x,y,-z
-y,x,1/2-z
loop_
_atom_site_type_symbol
_atom_site_label
_atom_site_fract_x
_atom_site_fract_y
_atom_site_fract_z
Si Si1 0.251225 0.824732 0.944405
Si Si2 0.166195 0.742522 0.828005
Si Si3 0.500000 0.500000 0.250000
O O1 0.247971 0.693730 0.888267
O O2 0.500000 0.000000 0.944358
O O3 0.250826 0.677308 0.000000
O O4 0.000000 0.000000 0.944715
O O5 0.401732 0.720203 0.788883
O O6 0.000000 0.500000 0.813533
O O7 0.000000 0.000000 0.824483
#
# Coordination Sequence:
#
# PCOD9544454 Si02
#       3
#     8   8   2
#     4   9  20  43  75 110 149 192 247 315 388 463
#     4  11  29  50  77 111 153 203 259 319 391 458
#     4  12  32  48  78 112 160 212 268 330 376 476
#
# _framework density 25.48573
#
# number of rings (size 3 to 8) (size 9 to 14) (size 15 to 20)
#    0.000    1.778    0.000    0.000   18.667    0.889 
#    0.000    1.111    0.000    0.000    0.000    0.000 
#    0.000    0.000    0.000    0.000    0.000    0.000 
#
# Total GULP energy -100723.799397 kJ/mol
# GULP energy per Si atom -5595.766633 kJ/mol
# Density = 2.542772 g / cm^3
# Si number density = 25.485730 Si / 1000 Ang^3
#
#
#
# Elastic Constant Matrix: (Units=GPa)
#
#
# Indices 1 2 3 4 5 6 
#
# 1 126.2855 36.3230 35.9938 0.0000 0.0000 3.8262
# 2 36.3230 126.2855 35.9938 0.0000 0.0000 -3.8262
# 3 35.9938 35.9938 279.4721 0.0000 0.0000 0.0000
# 4 0.0000 0.0000 0.0000 40.8303 0.0000 0.0000
# 5 0.0000 0.0000 0.0000 0.0000 40.8303 0.0000
# 6 3.8262 -3.8262 0.0000 0.0000 0.0000 44.8449
#
#
#
# Elastic Compliance Matrix: (Units=1/GPa)
#
#
# Indices 1 2 3 4 5 6 
#
# 1 0.008859 -0.002338 -0.000840 0.000000 0.000000 -0.000955
# 2 -0.002338 0.008859 -0.000840 0.000000 0.000000 0.000955
# 3 -0.000840 -0.000840 0.003795 0.000000 0.000000 0.000000
# 4 0.000000 0.000000 0.000000 0.024492 0.000000 0.000000
# 5 0.000000 0.000000 0.000000 0.000000 0.024492 0.000000
# 6 -0.000955 0.000955 0.000000 0.000000 0.000000 0.022462
#
#
# Mechanical properties :
#
#
# Convention : Reuss Voigt Hill
#
# Bulk Modulus (GPa) = 74.19514 83.18495 78.69005
# Shear Modulus (GPa) = 47.39953 53.54991 50.47472
#
# Velocity S-wave (km/s) = 4.31727 4.58883 4.45512
# Velocity P-wave (km/s) = 7.35033 7.79661 7.57676
#
# Compressibility (1/GPa) = 0.01347797
#
# Stress axis : x y z
#
# Youngs Moduli (GPa) = 112.87581 112.87581 263.53746
#
# Poissons Ratio (x) = 0.26387 0.22135
# Poissons Ratio (y) = 0.26387 0.22135
# Poissons Ratio (z) = 0.09481 0.09481
#
# Static dielectric constant tensor:
#      x y z
#    x 2.833300 0.000000 0.000000 
#    y 0.000000 2.833300 0.000000 
#    z 0.000000 0.000000 2.050900 
# 
# From -- ./inp_files/4595.got.cif
#   From: 2010.05.17/outbox.cif.g08.bks.cpg/sg84_3_cif.got.tgz:4595.got - 2010.06.03 18:57:40.
