data_PCOD9544650
_publ_section_title
;
Structure prediction by ZEFSAII (Michael W. Deem and Ramdas Pophale) SiO2 
 PCOD9544650
Probable space group: P 4/N
;
_chemical_formula_sum "Si O2"
_cell_formula_units_Z 40
_cell_length_a 13.179201
_cell_length_b 13.179201
_cell_length_c 11.122130
_cell_angle_alpha 90.000000
_cell_angle_beta 90.000000
_cell_angle_gamma 90.000000
_cell_volume 1931.817652
_symmetry_space_group_name_H-M "P 4/N"
_symmetry_group_IT_number 85
_symmetry_cell_setting 'tetragonal'
loop_
_space_group_symop_operation_xyz
x,y,z
1/2-y,x,z
1/2-x,1/2-y,z
y,1/2-x,z
-x,-y,-z
1/2+y,-x,-z
1/2+x,1/2+y,-z
-y,1/2+x,-z
loop_
_atom_site_type_symbol
_atom_site_label
_atom_site_fract_x
_atom_site_fract_y
_atom_site_fract_z
Si Si1 0.627994 0.538647 0.612598
Si Si2 0.179349 0.988152 0.755638
Si Si3 0.922096 0.750000 0.000000
Si Si4 0.488152 0.679349 0.755638
Si Si5 0.038647 0.127994 0.612598
O O1 0.577132 0.598992 0.723912
O O2 0.736433 0.498375 0.652240
O O3 0.557713 0.442287 0.584147
O O4 0.614705 0.614705 0.500000
O O5 0.384350 0.884350 0.245679
O O6 0.098992 0.077132 0.723912
O O7 0.263567 0.998375 0.652240
O O8 0.233809 0.009890 0.881876
O O9 0.847263 0.847263 0.000000
O O10 0.990110 0.766191 0.881876
#
# Coordination Sequence:
#
# PCOD9544650 Si02
#       5
#     8   8   8   8   8
#     4  10  22  41  64  95 134 174 221 282 349 410
#     4  11  23  40  66  97 132 176 229 287 343 411
#     4  11  22  40  64  93 132 180 235 286 348 409
#     4  11  23  40  66  97 132 176 229 287 343 411
#     4  10  22  41  64  95 134 174 221 282 349 410
#
# _framework density 20.705888000000002
#
# number of rings (size 3 to 8) (size 9 to 14) (size 15 to 20)
#    0.000    1.400    4.000    1.200    0.000    4.000 
#    0.000    2.000    0.000    7.200    0.000    0.000 
#    0.000    0.000    0.000    0.000    0.000    0.000 
#
# Total GULP energy -223249.922020 kJ/mol
# GULP energy per Si atom -5581.248050 kJ/mol
# Density = 2.065876 g / cm^3
# Si number density = 20.705888 Si / 1000 Ang^3
#
#
#
# Elastic Constant Matrix: (Units=GPa)
#
#
# Indices 1 2 3 4 5 6 
#
# 1 111.2646 76.3395 58.8597 0.0000 0.0000 0.0000
# 2 76.3395 111.2646 58.8597 0.0000 0.0000 0.0000
# 3 58.8597 58.8597 147.5850 0.0000 0.0000 0.0000
# 4 0.0000 0.0000 0.0000 30.4898 0.0000 0.0000
# 5 0.0000 0.0000 0.0000 0.0000 30.4898 0.0000
# 6 0.0000 0.0000 0.0000 0.0000 0.0000 27.9846
#
#
#
# Elastic Compliance Matrix: (Units=1/GPa)
#
#
# Indices 1 2 3 4 5 6 
#
# 1 0.017871 -0.010762 -0.002835 0.000000 0.000000 0.000000
# 2 -0.010762 0.017871 -0.002835 0.000000 0.000000 0.000000
# 3 -0.002835 -0.002835 0.009037 0.000000 0.000000 0.000000
# 4 0.000000 0.000000 0.000000 0.032798 0.000000 0.000000
# 5 0.000000 0.000000 0.000000 0.000000 0.032798 0.000000
# 6 0.000000 0.000000 0.000000 0.000000 0.000000 0.035734
#
#
# Mechanical properties :
#
#
# Convention : Reuss Voigt Hill
#
# Bulk Modulus (GPa) = 83.92909 84.24802 84.08856
# Shear Modulus (GPa) = 27.33048 29.52985 28.43017
#
# Velocity S-wave (km/s) = 3.63704 3.78055 3.70949
# Velocity P-wave (km/s) = 7.63278 7.73518 7.68415
#
# Compressibility (1/GPa) = 0.01191482
#
# Stress axis : x y z
#
# Youngs Moduli (GPa) = 55.95608 55.95608 110.65122
#
# Poissons Ratio (x) = 0.60218 0.31374
# Poissons Ratio (y) = 0.60218 0.31374
# Poissons Ratio (z) = 0.15866 0.15866
#
# Static dielectric constant tensor:
#      x y z
#    x 1.732920 0.000000 0.000000 
#    y 0.000000 1.732920 0.000000 
#    z 0.000000 0.000000 1.788470 
# 
# From -- ./inp_files/1013.got.cif
#   From: 2010.05.17/outbox.cif.g08.bks.cpg/sg85_cif.got.tgz:1013.got - 2010.06.03 19:01:16.
