data_PCOD9544658
_publ_section_title
;
Structure prediction by ZEFSAII (Michael W. Deem and Ramdas Pophale) SiO2 
 PCOD9544658
Probable space group: P 4/N
;
_chemical_formula_sum "Si O2"
_cell_formula_units_Z 50
_cell_length_a 19.735900
_cell_length_b 19.735900
_cell_length_c 5.149256
_cell_angle_alpha 90.000000
_cell_angle_beta 90.000000
_cell_angle_gamma 90.000000
_cell_volume 2005.664814
_symmetry_space_group_name_H-M "P 4/N"
_symmetry_group_IT_number 85
_symmetry_cell_setting 'tetragonal'
loop_
_space_group_symop_operation_xyz
x,y,z
1/2-y,x,z
1/2-x,1/2-y,z
y,1/2-x,z
-x,-y,-z
1/2+y,-x,-z
1/2+x,1/2+y,-z
-y,1/2+x,-z
loop_
_atom_site_type_symbol
_atom_site_label
_atom_site_fract_x
_atom_site_fract_y
_atom_site_fract_z
Si Si1 0.885636 0.902553 0.868966
Si Si2 0.904978 0.755523 0.142436
Si Si3 0.750000 0.750000 0.301694
Si Si4 0.666670 0.385502 0.703696
Si Si5 0.523527 0.649385 0.459576
Si Si6 0.453171 0.528925 0.273488
Si Si7 0.105464 0.821531 0.778588
O O1 0.907872 0.885077 0.571263
O O2 0.932986 0.969190 0.926568
O O3 0.898215 0.827818 0.992910
O O4 0.808496 0.918389 0.955484
O O5 0.961501 0.775922 0.352399
O O6 0.833190 0.742692 0.281691
O O7 0.622197 0.451111 0.633520
O O8 0.741712 0.402447 0.783727
O O9 0.658422 0.339067 0.451150
O O10 0.633251 0.350598 0.954832
O O11 0.488224 0.602395 0.243765
O O12 0.466949 0.650054 0.683662
O O13 0.500000 0.500000 0.500000
#
# Coordination Sequence:
#
# PCOD9544658 Si02
#       7
#     8   8   2   8   8   8   8
#     4  10  23  42  71 100 143 196 241 314 376 449
#     4  10  22  42  70 103 140 189 247 308 377 447
#     4   8  20  44  58 104 140 174 236 312 374 444
#     4  11  25  47  74 109 149 194 246 313 370 456
#     4  10  24  44  68 105 146 190 252 310 360 457
#     4   9  22  46  65 104 144 193 248 301 370 439
#     4  11  26  46  75 110 151 194 251 307 378 446
#
# _framework density 24.929387999999999
#
# number of rings (size 3 to 8) (size 9 to 14) (size 15 to 20)
#    0.000    1.920    0.000    0.960    6.720    6.400 
#   17.280    3.200    0.000    0.000    0.000    0.000 
#    0.000    0.000    0.000    0.000    0.000    0.000 
#
# Total GULP energy -278465.993985 kJ/mol
# GULP energy per Si atom -5569.319880 kJ/mol
# Density = 2.487265 g / cm^3
# Si number density = 24.929388 Si / 1000 Ang^3
#
#
#
# Elastic Constant Matrix: (Units=GPa)
#
#
# Indices 1 2 3 4 5 6 
#
# 1 404.6219 363.7030 278.2149 0.0000 0.0000 -4.9913
# 2 363.7030 404.6219 278.2149 0.0000 0.0000 4.9913
# 3 278.2149 278.2149 273.9724 0.0000 0.0000 0.0000
# 4 0.0000 0.0000 0.0000 -6.2866 0.0000 0.0000
# 5 0.0000 0.0000 0.0000 0.0000 -6.2866 0.0000
# 6 -4.9913 4.9913 0.0000 0.0000 0.0000 37.4443
#
#
#
# Elastic Compliance Matrix: (Units=1/GPa)
#
#
# Indices 1 2 3 4 5 6 
#
# 1 0.015090 -0.010170 -0.004996 0.000000 0.000000 0.003367
# 2 -0.010170 0.015090 -0.004996 0.000000 0.000000 -0.003367
# 3 -0.004996 -0.004996 0.013796 0.000000 0.000000 0.000000
# 4 0.000000 0.000000 0.000000 -0.159067 0.000000 0.000000
# 5 0.000000 0.000000 0.000000 0.000000 -0.159067 0.000000
# 6 0.003367 -0.003367 0.000000 0.000000 0.000000 0.027604
#
#
# Mechanical properties :
#
#
# Convention : Reuss Voigt Hill
#
# Bulk Modulus (GPa) = 273.79538 324.83131 299.31335
# Shear Modulus (GPa) = -24.38842 15.84644 -4.27099
#
# Velocity S-wave (km/s) = -3.13117 2.52395 -1.31033
# Velocity P-wave (km/s) = 9.84858 11.79310 10.86443
#
# Compressibility (1/GPa) = 0.00365236
#
# Stress axis : x y z
#
# Youngs Moduli (GPa) = 66.27038 66.27038 72.48597
#
# Poissons Ratio (x) = 0.67399 0.36211
# Poissons Ratio (y) = 0.67399 0.36211
# Poissons Ratio (z) = 0.33106 0.33106
#
# Static dielectric constant tensor:
#      x y z
#    x 2.018280 0.000000 0.000000 
#    y 0.000000 2.018280 0.000000 
#    z 0.000000 0.000000 2.471530 
# 
# From -- ./inp_files/478.got.cif
#   From: 2010.05.17/outbox.cif.g08.bks.cpg/sg85_cif.got.tgz:478.got - 2010.06.03 19:01:16.
