data_PCOD9544452
_publ_section_title
;
Structure prediction by ZEFSAII (Michael W. Deem and Ramdas Pophale) SiO2 
 PCOD9544452
Probable space group: P 42/M
;
_chemical_formula_sum "Si O2"
_cell_formula_units_Z 18
_cell_length_a 5.259468
_cell_length_b 5.259468
_cell_length_c 25.364085
_cell_angle_alpha 90.000000
_cell_angle_beta 90.000000
_cell_angle_gamma 90.000000
_cell_volume 701.621412
_symmetry_space_group_name_H-M "P 42/M"
_symmetry_group_IT_number 84
_symmetry_cell_setting 'tetragonal'
loop_
_space_group_symop_operation_xyz
x,y,z
-y,x,1/2+z
-x,-y,z
y,-x,1/2+z
-x,-y,-z
y,-x,1/2-z
x,y,-z
-y,x,1/2-z
loop_
_atom_site_type_symbol
_atom_site_label
_atom_site_fract_x
_atom_site_fract_y
_atom_site_fract_z
Si Si1 0.662394 0.736435 0.671999
Si Si2 0.823767 0.248953 0.943570
Si Si3 0.000000 0.000000 0.250000
O O1 0.500000 0.500000 0.690095
O O2 0.744459 0.679088 0.611687
O O3 0.500000 0.000000 0.671745
O O4 0.893857 0.787382 0.710913
O O5 0.000000 0.500000 0.944008
O O6 0.681147 0.246318 0.000000
O O7 0.000000 0.000000 0.941993
#
# Coordination Sequence:
#
# PCOD9544452 Si02
#       3
#     8   8   2
#     4  11  27  47  75 108 150 202 257 318 392 458
#     4   9  18  40  71 107 147 190 245 312 383 460
#     4  12  28  48  74 108 156 204 268 330 380 476
#
# _framework density 25.654865999999998
#
# number of rings (size 3 to 8) (size 9 to 14) (size 15 to 20)
#    0.000    1.778    2.222    0.000    6.222    0.889 
#    0.000    0.000    0.000   13.333    0.000    0.000 
#    0.000    1.778    0.000    0.000    0.000    0.000 
#
# Total GULP energy -100883.567702 kJ/mol
# GULP energy per Si atom -5604.642650 kJ/mol
# Density = 2.559647 g / cm^3
# Si number density = 25.654866 Si / 1000 Ang^3
#
#
#
# Elastic Constant Matrix: (Units=GPa)
#
#
# Indices 1 2 3 4 5 6 
#
# 1 132.2401 45.4297 35.6430 0.0000 0.0000 -2.8316
# 2 45.4297 132.2401 35.6430 0.0000 0.0000 2.8316
# 3 35.6430 35.6430 267.3820 0.0000 0.0000 0.0000
# 4 0.0000 0.0000 0.0000 -64.4340 0.0000 0.0000
# 5 0.0000 0.0000 0.0000 0.0000 -64.4340 0.0000
# 6 -2.8316 2.8316 0.0000 0.0000 0.0000 62.0803
#
#
#
# Elastic Compliance Matrix: (Units=1/GPa)
#
#
# Indices 1 2 3 4 5 6 
#
# 1 0.008750 -0.002804 -0.000793 0.000000 0.000000 0.000527
# 2 -0.002804 0.008750 -0.000793 0.000000 0.000000 -0.000527
# 3 -0.000793 -0.000793 0.003951 0.000000 0.000000 0.000000
# 4 0.000000 0.000000 0.000000 -0.015520 0.000000 0.000000
# 5 0.000000 0.000000 0.000000 0.000000 -0.015520 0.000000
# 6 0.000527 -0.000527 0.000000 0.000000 0.000000 0.016156
#
#
# Mechanical properties :
#
#
# Convention : Reuss Voigt Hill
#
# Bulk Modulus (GPa) = 78.90486 85.03263 81.96874
# Shear Modulus (GPa) = 255.48339 14.31889 134.90114
#
# Velocity S-wave (km/s) = 9.99004 2.36505 7.25928
# Velocity P-wave (km/s) = 12.80199 6.37768 10.11350
#
# Compressibility (1/GPa) = 0.01267349
#
# Stress axis : x y z
#
# Youngs Moduli (GPa) = 114.28446 114.28446 253.08103
#
# Poissons Ratio (x) = 0.32041 0.20061
# Poissons Ratio (y) = 0.32041 0.20061
# Poissons Ratio (z) = 0.09059 0.09059
#
# Static dielectric constant tensor:
#      x y z
#    x 2.083430 0.000000 0.000000 
#    y 0.000000 2.083430 0.000000 
#    z 0.000000 0.000000 2.048710 
# 
# From -- ./inp_files/4562.got.cif
#   From: 2010.05.17/outbox.cif.g08.bks.cpg/sg84_3_cif.got.tgz:4562.got - 2010.06.03 18:57:40.
