data_PCOD9544354
_publ_section_title
;
Structure prediction by ZEFSAII (Michael W. Deem and Ramdas Pophale) SiO2 
 PCOD9544354
Probable space group: P 42/M
;
_chemical_formula_sum "Si O2"
_cell_formula_units_Z 30
_cell_length_a 8.743300
_cell_length_b 8.743300
_cell_length_c 18.764673
_cell_angle_alpha 90.000000
_cell_angle_beta 90.000000
_cell_angle_gamma 90.000000
_cell_volume 1434.470961
_symmetry_space_group_name_H-M "P 42/M"
_symmetry_group_IT_number 84
_symmetry_cell_setting 'tetragonal'
loop_
_space_group_symop_operation_xyz
x,y,z
-y,x,1/2+z
-x,-y,z
y,-x,1/2+z
-x,-y,-z
y,-x,1/2-z
x,y,-z
-y,x,1/2-z
loop_
_atom_site_type_symbol
_atom_site_label
_atom_site_fract_x
_atom_site_fract_y
_atom_site_fract_z
Si Si1 0.516298 0.263417 0.000000
Si Si2 0.000000 0.500000 0.876012
Si Si3 0.203309 0.731522 0.784653
Si Si4 0.478284 0.174496 0.158485
Si Si5 0.000000 0.000000 0.250000
Si Si6 0.762489 0.507225 0.000000
O O1 0.480284 0.179146 0.926499
O O2 0.688821 0.335416 0.000000
O O3 0.387608 0.392914 0.000000
O O4 0.917104 0.374752 0.826745
O O5 0.864844 0.545065 0.931023
O O6 0.225214 0.669453 0.703843
O O7 0.371943 0.730852 0.818025
O O8 0.130628 0.900901 0.788914
O O9 0.500000 0.000000 0.180435
#
# Coordination Sequence:
#
# PCOD9544354 Si02
#       6
#     4   4   8   8   2   4
#     4  11  25  42  63  99 138 183 219 284 344 411
#     4  11  22  46  68 101 132 178 230 287 344 406
#     4  12  25  43  74  99 136 179 232 287 343 405
#     4  12  26  44  67 100 139 180 224 285 344 413
#     4  12  24  44  68 102 136 172 224 286 344 396
#     4  10  24  40  69  93 136 177 227 281 347 412
#
# _framework density 20.913634999999999
#
# number of rings (size 3 to 8) (size 9 to 14) (size 15 to 20)
#    0.000    0.533    6.667    0.400    7.467    0.533 
#    0.000    0.000    0.000    4.800    0.000    0.000 
#    0.000    0.000    0.000    0.000    0.000    0.000 
#
# Total GULP energy -167310.507027 kJ/mol
# GULP energy per Si atom -5577.016901 kJ/mol
# Density = 2.086603 g / cm^3
# Si number density = 20.913635 Si / 1000 Ang^3
#
#
#
# Elastic Constant Matrix: (Units=GPa)
#
#
# Indices 1 2 3 4 5 6 
#
# 1 77.3456 12.3732 27.1192 0.0000 0.0000 2.2177
# 2 12.3732 77.3456 27.1192 0.0000 0.0000 -2.2177
# 3 27.1192 27.1192 153.5669 0.0000 0.0000 0.0000
# 4 0.0000 0.0000 0.0000 28.5438 0.0000 0.0000
# 5 0.0000 0.0000 0.0000 0.0000 28.5438 0.0000
# 6 2.2177 -2.2177 0.0000 0.0000 0.0000 29.7656
#
#
#
# Elastic Compliance Matrix: (Units=1/GPa)
#
#
# Indices 1 2 3 4 5 6 
#
# 1 0.013974 -0.001496 -0.002204 0.000000 0.000000 -0.001153
# 2 -0.001496 0.013974 -0.002204 0.000000 0.000000 0.001153
# 3 -0.002204 -0.002204 0.007290 0.000000 0.000000 0.000000
# 4 0.000000 0.000000 0.000000 0.035034 0.000000 0.000000
# 5 0.000000 0.000000 0.000000 0.000000 0.035034 0.000000
# 6 -0.001153 0.001153 0.000000 0.000000 0.000000 0.033768
#
#
# Mechanical properties :
#
#
# Convention : Reuss Voigt Hill
#
# Bulk Modulus (GPa) = 42.67675 49.05349 45.86512
# Shear Modulus (GPa) = 31.50796 33.48040 32.49418
#
# Velocity S-wave (km/s) = 3.88567 4.00545 3.94602
# Velocity P-wave (km/s) = 6.37038 6.70057 6.53756
#
# Compressibility (1/GPa) = 0.02343196
#
# Stress axis : x y z
#
# Youngs Moduli (GPa) = 71.56170 71.56170 137.17226
#
# Poissons Ratio (x) = 0.10705 0.30227
# Poissons Ratio (y) = 0.10705 0.30227
# Poissons Ratio (z) = 0.15769 0.15769
#
# Static dielectric constant tensor:
#      x y z
#    x 1.776540 0.000000 0.000000 
#    y 0.000000 1.776540 0.000000 
#    z 0.000000 0.000000 1.764470 
# 
# From -- ./inp_files/4218.got.cif
#   From: 2010.05.17/outbox.cif.g08.bks.cpg/sg84_3_cif.got.tgz:4218.got - 2010.06.03 18:57:40.
