data_PCOD9544044
_publ_section_title
;
Structure prediction by ZEFSAII (Michael W. Deem and Ramdas Pophale) SiO2 
 PCOD9544044
Probable space group: P 42/M
;
_chemical_formula_sum "Si O2"
_cell_formula_units_Z 32
_cell_length_a 12.816558
_cell_length_b 12.816558
_cell_length_c 7.843071
_cell_angle_alpha 90.000000
_cell_angle_beta 90.000000
_cell_angle_gamma 90.000000
_cell_volume 1288.335462
_symmetry_space_group_name_H-M "P 42/M"
_symmetry_group_IT_number 84
_symmetry_cell_setting 'tetragonal'
loop_
_space_group_symop_operation_xyz
x,y,z
-y,x,1/2+z
-x,-y,z
y,-x,1/2+z
-x,-y,-z
y,-x,1/2-z
x,y,-z
-y,x,1/2-z
loop_
_atom_site_type_symbol
_atom_site_label
_atom_site_fract_x
_atom_site_fract_y
_atom_site_fract_z
Si Si1 0.594100 0.373113 0.686844
Si Si2 0.352299 0.079727 0.791854
Si Si3 0.098577 0.870412 0.695681
Si Si4 0.852035 0.580891 0.294697
O O1 0.467695 0.374267 0.692032
O O2 0.633786 0.402242 0.500000
O O3 0.625932 0.256106 0.728940
O O4 0.364231 0.958807 0.737322
O O5 0.243095 0.127728 0.733856
O O6 0.459154 0.136151 0.742618
O O7 0.348569 0.079896 0.000000
O O8 0.133119 0.883194 0.500000
O O9 0.971678 0.869920 0.699176
O O10 0.850791 0.583691 0.500000
#
# Coordination Sequence:
#
# PCOD9544044 Si02
#       4
#     8   8   8   8
#     4  11  22  37  55  78 105 137 173 215 260 310
#     4   8  17  33  55  77 104 139 173 206 253 308
#     4  10  19  33  50  73 100 133 171 210 252 298
#     4   9  17  35  57  78 104 137 171 209 254 308
#
# _framework density 24.838251
#
# number of rings (size 3 to 8) (size 9 to 14) (size 15 to 20)
#    0.000    2.500    0.000    6.000    0.000    2.000 
#    0.000   12.500    0.000    0.000    0.000    0.000 
#    0.000    0.000    0.000    0.000    0.000    0.000 
#
# Total GULP energy -178950.887217 kJ/mol
# GULP energy per Si atom -5592.215226 kJ/mol
# Density = 2.478172 g / cm^3
# Si number density = 24.838251 Si / 1000 Ang^3
#
#
#
# Elastic Constant Matrix: (Units=GPa)
#
#
# Indices 1 2 3 4 5 6 
#
# 1 126.6182 -8.5354 -2.8116 0.0000 0.0000 -3.6408
# 2 -8.5354 126.6182 -2.8116 0.0000 0.0000 3.6408
# 3 -2.8116 -2.8116 59.4646 0.0000 0.0000 0.0000
# 4 0.0000 0.0000 0.0000 4.9225 0.0000 0.0000
# 5 0.0000 0.0000 0.0000 0.0000 4.9225 0.0000
# 6 -3.6408 3.6408 0.0000 0.0000 0.0000 -17.9290
#
#
#
# Elastic Compliance Matrix: (Units=1/GPa)
#
#
# Indices 1 2 3 4 5 6 
#
# 1 0.007903 0.000584 0.000401 0.000000 0.000000 -0.001486
# 2 0.000584 0.007903 0.000401 0.000000 0.000000 0.001486
# 3 0.000401 0.000401 0.016855 0.000000 0.000000 0.000000
# 4 0.000000 0.000000 0.000000 0.203148 0.000000 0.000000
# 5 0.000000 0.000000 0.000000 0.000000 0.203148 0.000000
# 6 -0.001486 0.001486 0.000000 0.000000 0.000000 -0.055172
#
#
# Mechanical properties :
#
#
# Convention : Reuss Voigt Hill
#
# Bulk Modulus (GPa) = 28.22034 31.59820 29.90927
# Shear Modulus (GPa) = 12.72838 20.17385 16.45112
#
# Velocity S-wave (km/s) = 2.26619 2.85302 2.57637
# Velocity P-wave (km/s) = 4.27011 4.85821 4.57362
#
# Compressibility (1/GPa) = 0.03543544
#
# Stress axis : x y z
#
# Youngs Moduli (GPa) = 126.52895 126.52895 59.33071
#
# Poissons Ratio (x) = -0.07395 -0.02381
# Poissons Ratio (y) = -0.07395 -0.02381
# Poissons Ratio (z) = -0.05078 -0.05078
#
# Static dielectric constant tensor:
#      x y z
#    x 1.972800 0.000000 0.000000 
#    y 0.000000 1.972800 0.000000 
#    z 0.000000 0.000000 1.871020 
# 
# From -- ./inp_files/615.got.cif
#   From: 2010.05.17/outbox.cif.g08.bks.cpg/sg84_1_cif.got.tgz:615.got - 2010.06.03 18:57:40.
