data_PCOD9544635
_publ_section_title
;
Structure prediction by ZEFSAII (Michael W. Deem and Ramdas Pophale) SiO2 
 PCOD9544635
Probable space group: P 4/N
;
_chemical_formula_sum "Si O2"
_cell_formula_units_Z 52
_cell_length_a 21.101746
_cell_length_b 21.101746
_cell_length_c 4.934680
_cell_angle_alpha 90.000000
_cell_angle_beta 90.000000
_cell_angle_gamma 90.000000
_cell_volume 2197.332491
_symmetry_space_group_name_H-M "P 4/N"
_symmetry_group_IT_number 85
_symmetry_cell_setting 'tetragonal'
loop_
_space_group_symop_operation_xyz
x,y,z
1/2-y,x,z
1/2-x,1/2-y,z
y,1/2-x,z
-x,-y,-z
1/2+y,-x,-z
1/2+x,1/2+y,-z
-y,1/2+x,-z
loop_
_atom_site_type_symbol
_atom_site_label
_atom_site_fract_x
_atom_site_fract_y
_atom_site_fract_z
Si Si1 0.945450 0.738411 0.631166
Si Si2 0.500000 0.500000 0.500000
Si Si3 0.695472 0.430740 0.906193
Si Si4 0.872464 0.610769 0.550360
Si Si5 0.452066 0.699549 0.250262
Si Si6 0.614811 0.400271 0.413523
Si Si7 0.539575 0.593449 0.040797
O O1 0.897512 0.681000 0.584537
O O2 0.906076 0.803465 0.670386
O O3 0.992119 0.758414 0.385774
O O4 0.994956 0.711816 0.852655
O O5 0.564170 0.453596 0.491118
O O6 0.521946 0.533139 0.212407
O O7 0.758046 0.407744 0.062209
O O8 0.639400 0.415086 0.114292
O O9 0.674619 0.404929 0.617315
O O10 0.876860 0.594597 0.233173
O O11 0.916969 0.561399 0.728937
O O12 0.418344 0.665168 0.500719
O O13 0.484838 0.645720 0.064707
#
# Coordination Sequence:
#
# PCOD9544635 Si02
#       7
#     8   4   8   8   8   8   8
#     4  11  24  43  67  96 140 182 233 287 336 420
#     4  10  22  40  58 100 134 160 220 278 348 420
#     4  12  23  43  68 100 130 181 222 276 349 423
#     4  11  24  38  63  91 130 184 228 273 335 390
#     4  10  24  44  67  99 137 176 223 286 341 416
#     4  11  26  39  72  99 135 177 223 284 353 412
#     4  10  22  39  62  92 131 173 216 281 342 405
#
# _framework density 23.665061000000001
#
# number of rings (size 3 to 8) (size 9 to 14) (size 15 to 20)
#    0.000    1.231    3.077    1.846    4.308    5.231 
#    0.000    0.000    0.000    4.615    0.000    0.000 
#    0.000    0.000    0.000    0.000    0.000    0.000 
#
# Total GULP energy -289979.570150 kJ/mol
# GULP energy per Si atom -5576.530195 kJ/mol
# Density = 2.361120 g / cm^3
# Si number density = 23.665061 Si / 1000 Ang^3
#
#
#
# Elastic Constant Matrix: (Units=GPa)
#
#
# Indices 1 2 3 4 5 6 
#
# 1 74.8706 11.4413 29.8910 0.0000 0.0000 5.4493
# 2 11.4413 74.8706 29.8910 0.0000 0.0000 -5.4493
# 3 29.8910 29.8910 137.1844 0.0000 0.0000 0.0000
# 4 0.0000 0.0000 0.0000 30.4367 0.0000 0.0000
# 5 0.0000 0.0000 0.0000 0.0000 30.4367 0.0000
# 6 5.4493 -5.4493 0.0000 0.0000 0.0000 36.2882
#
#
#
# Elastic Compliance Matrix: (Units=1/GPa)
#
#
# Indices 1 2 3 4 5 6 
#
# 1 0.014914 -0.001269 -0.002973 0.000000 0.000000 -0.002430
# 2 -0.001269 0.014914 -0.002973 0.000000 0.000000 0.002430
# 3 -0.002973 -0.002973 0.008585 0.000000 0.000000 0.000000
# 4 0.000000 0.000000 0.000000 0.032855 0.000000 0.000000
# 5 0.000000 0.000000 0.000000 0.000000 0.032855 0.000000
# 6 -0.002430 0.002430 0.000000 0.000000 0.000000 0.028287
#
#
# Mechanical properties :
#
#
# Convention : Reuss Voigt Hill
#
# Bulk Modulus (GPa) = 41.69641 47.70802 44.70222
# Shear Modulus (GPa) = 32.29235 33.81247 33.05241
#
# Velocity S-wave (km/s) = 3.69800 3.78404 3.74127
# Velocity P-wave (km/s) = 5.99093 6.26860 6.13134
#
# Compressibility (1/GPa) = 0.02398288
#
# Stress axis : x y z
#
# Youngs Moduli (GPa) = 67.05042 67.05042 116.48103
#
# Poissons Ratio (x) = 0.08509 0.34631
# Poissons Ratio (y) = 0.08509 0.34631
# Poissons Ratio (z) = 0.19935 0.19935
#
# Static dielectric constant tensor:
#      x y z
#    x 1.826420 0.000000 0.000000 
#    y 0.000000 1.826420 0.000000 
#    z 0.000000 0.000000 1.570150 
# 
# From -- ./inp_files/503.got.cif
#   From: 2010.05.17/outbox.cif.g08.bks.cpg/sg85_cif.got.tgz:503.got - 2010.06.03 19:01:16.
