data_PCOD9544684
_publ_section_title
;
Structure prediction by ZEFSAII (Michael W. Deem and Ramdas Pophale) SiO2 
 PCOD9544684
Probable space group: P 4/N
;
_chemical_formula_sum "Si O2"
_cell_formula_units_Z 50
_cell_length_a 14.780708
_cell_length_b 14.780708
_cell_length_c 10.949414
_cell_angle_alpha 90.000000
_cell_angle_beta 90.000000
_cell_angle_gamma 90.000000
_cell_volume 2392.111129
_symmetry_space_group_name_H-M "P 4/N"
_symmetry_group_IT_number 85
_symmetry_cell_setting 'tetragonal'
loop_
_space_group_symop_operation_xyz
x,y,z
1/2-y,x,z
1/2-x,1/2-y,z
y,1/2-x,z
-x,-y,-z
1/2+y,-x,-z
1/2+x,1/2+y,-z
-y,1/2+x,-z
loop_
_atom_site_type_symbol
_atom_site_label
_atom_site_fract_x
_atom_site_fract_y
_atom_site_fract_z
Si Si1 0.076062 0.163206 0.026458
Si Si2 0.610345 0.703387 0.327671
Si Si3 0.527714 0.815818 0.814919
Si Si4 0.750000 0.750000 0.071845
Si Si5 0.425563 0.550517 0.585702
Si Si6 0.489961 0.257752 0.450151
Si Si7 0.433111 0.000806 0.803398
O O1 0.008640 0.232479 0.093673
O O2 0.135401 0.117356 0.132954
O O3 0.142592 0.223267 0.944424
O O4 0.036589 0.086153 0.939287
O O5 0.696124 0.641449 0.295775
O O6 0.592469 0.701739 0.471640
O O7 0.522836 0.660352 0.266940
O O8 0.540194 0.780316 0.679098
O O9 0.454802 0.895458 0.808714
O O10 0.500000 0.500000 0.500000
O O11 0.325786 0.527449 0.532941
O O12 0.443458 0.657689 0.574825
O O13 0.448548 0.509959 0.721012
#
# Coordination Sequence:
#
# PCOD9544684 Si02
#       7
#     8   8   8   2   8   8   8
#     4  10  24  41  66  99 141 187 233 304 369 437
#     4  11  24  38  67 106 133 185 232 304 380 441
#     4  11  24  42  68 103 138 192 238 294 368 447
#     4   8  20  40  60  96 130 160 240 296 356 434
#     4  12  24  45  70 107 142 188 242 309 376 445
#     4  12  23  43  70 101 150 183 241 302 376 447
#     4  12  24  44  69  99 147 184 239 302 368 452
#
# _framework density 20.90204
#
# number of rings (size 3 to 8) (size 9 to 14) (size 15 to 20)
#    0.000    0.800    4.800    1.440    6.720    0.320 
#    0.000    0.000    0.000    2.400    0.000    0.000 
#    0.000    0.000    0.000    0.000    0.000    0.000 
#
# Total GULP energy -278705.933730 kJ/mol
# GULP energy per Si atom -5574.118675 kJ/mol
# Density = 2.085447 g / cm^3
# Si number density = 20.902040 Si / 1000 Ang^3
#
#
#
# Elastic Constant Matrix: (Units=GPa)
#
#
# Indices 1 2 3 4 5 6 
#
# 1 108.6663 48.5614 63.4280 0.0000 0.0000 -3.3305
# 2 48.5614 108.6663 63.4280 0.0000 0.0000 3.3305
# 3 63.4280 63.4280 145.3839 0.0000 0.0000 0.0000
# 4 0.0000 0.0000 0.0000 36.0647 0.0000 0.0000
# 5 0.0000 0.0000 0.0000 0.0000 36.0647 0.0000
# 6 -3.3305 3.3305 0.0000 0.0000 0.0000 37.6812
#
#
#
# Elastic Compliance Matrix: (Units=1/GPa)
#
#
# Indices 1 2 3 4 5 6 
#
# 1 0.013309 -0.003493 -0.004282 0.000000 0.000000 0.001485
# 2 -0.003493 0.013309 -0.004282 0.000000 0.000000 -0.001485
# 3 -0.004282 -0.004282 0.010615 0.000000 0.000000 0.000000
# 4 0.000000 0.000000 0.000000 0.027728 0.000000 0.000000
# 5 0.000000 0.000000 0.000000 0.000000 0.027728 0.000000
# 6 0.001485 -0.001485 0.000000 0.000000 0.000000 0.026801
#
#
# Mechanical properties :
#
#
# Convention : Reuss Voigt Hill
#
# Bulk Modulus (GPa) = 76.23993 79.28350 77.76172
# Shear Modulus (GPa) = 33.78908 34.44871 34.11890
#
# Velocity S-wave (km/s) = 4.02499 4.06409 4.04459
# Velocity P-wave (km/s) = 7.62593 7.74827 7.68734
#
# Compressibility (1/GPa) = 0.01311649
#
# Stress axis : x y z
#
# Youngs Moduli (GPa) = 75.13901 75.13901 94.20825
#
# Poissons Ratio (x) = 0.26250 0.40341
# Poissons Ratio (y) = 0.26250 0.40341
# Poissons Ratio (z) = 0.32176 0.32176
#
# Static dielectric constant tensor:
#      x y z
#    x 1.770320 0.000000 0.000000 
#    y 0.000000 1.770320 0.000000 
#    z 0.000000 0.000000 1.871560 
# 
# From -- ./inp_files/1671.got.cif
#   From: 2010.05.17/outbox.cif.g08.bks.cpg/sg85_cif.got.tgz:1671.got - 2010.06.03 19:01:16.
