data_PCOD9544815
_publ_section_title
;
Structure prediction by ZEFSAII (Michael W. Deem and Ramdas Pophale) SiO2 
 PCOD9544815
Probable space group: P 4/N
;
_chemical_formula_sum "Si O2"
_cell_formula_units_Z 40
_cell_length_a 16.347877
_cell_length_b 16.347877
_cell_length_c 5.496483
_cell_angle_alpha 90.000000
_cell_angle_beta 90.000000
_cell_angle_gamma 90.000000
_cell_volume 1468.952024
_symmetry_space_group_name_H-M "P 4/N"
_symmetry_group_IT_number 85
_symmetry_cell_setting 'tetragonal'
loop_
_space_group_symop_operation_xyz
x,y,z
1/2-y,x,z
1/2-x,1/2-y,z
y,1/2-x,z
-x,-y,-z
1/2+y,-x,-z
1/2+x,1/2+y,-z
-y,1/2+x,-z
loop_
_atom_site_type_symbol
_atom_site_label
_atom_site_fract_x
_atom_site_fract_y
_atom_site_fract_z
Si Si1 0.236726 0.382785 0.984490
Si Si2 0.627440 0.189300 0.955347
Si Si3 0.960756 0.734902 0.511566
Si Si4 0.553154 0.382371 0.368436
Si Si5 0.000688 0.421495 0.243615
O O1 0.163349 0.321595 0.936243
O O2 0.238231 0.447505 0.765940
O O3 0.234903 0.399565 0.272980
O O4 0.547556 0.146631 0.082669
O O5 0.645984 0.286301 0.957220
O O6 0.612983 0.148804 0.691874
O O7 0.037095 0.787487 0.604069
O O8 0.958947 0.638317 0.554577
O O9 0.490985 0.430993 0.181227
O O10 0.533628 0.427797 0.617558
#
# Coordination Sequence:
#
# PCOD9544815 Si02
#       5
#     8   8   8   8   8
#     4  11  24  44  72 108 147 194 248 306 377 460
#     4  11  25  46  72 106 145 195 254 314 388 449
#     4  12  26  47  73 108 152 200 248 314 386 449
#     4  11  26  45  70 105 144 197 255 313 383 458
#     4  11  26  45  70 105 144 197 255 313 383 458
#
# _framework density 27.230297
#
# number of rings (size 3 to 8) (size 9 to 14) (size 15 to 20)
#    0.000    0.800    2.000    4.200    8.400    1.600 
#    0.000    2.000    0.000    0.000    0.000    0.000 
#    0.000    0.000    0.000    0.000    0.000    0.000 
#
# Total GULP energy -222990.450980 kJ/mol
# GULP energy per Si atom -5574.761275 kJ/mol
# Density = 2.716832 g / cm^3
# Si number density = 27.230297 Si / 1000 Ang^3
#
#
#
# Elastic Constant Matrix: (Units=GPa)
#
#
# Indices 1 2 3 4 5 6 
#
# 1 122.1990 12.8517 28.5013 0.0000 0.0000 1.7054
# 2 12.8517 122.1990 28.5013 0.0000 0.0000 -1.7054
# 3 28.5013 28.5013 79.8389 0.0000 0.0000 0.0000
# 4 0.0000 0.0000 0.0000 36.3101 0.0000 0.0000
# 5 0.0000 0.0000 0.0000 0.0000 36.3101 0.0000
# 6 1.7054 -1.7054 0.0000 0.0000 0.0000 57.8873
#
#
#
# Elastic Compliance Matrix: (Units=1/GPa)
#
#
# Indices 1 2 3 4 5 6 
#
# 1 0.008936 -0.000218 -0.003112 0.000000 0.000000 -0.000270
# 2 -0.000218 0.008936 -0.003112 0.000000 0.000000 0.000270
# 3 -0.003112 -0.003112 0.014747 0.000000 0.000000 0.000000
# 4 0.000000 0.000000 0.000000 0.027541 0.000000 0.000000
# 5 0.000000 0.000000 0.000000 0.000000 0.027541 0.000000
# 6 -0.000270 0.000270 0.000000 0.000000 0.000000 0.017291
#
#
# Mechanical properties :
#
#
# Convention : Reuss Voigt Hill
#
# Bulk Modulus (GPa) = 50.67224 51.54951 51.11087
# Shear Modulus (GPa) = 40.17553 43.06032 41.61793
#
# Velocity S-wave (km/s) = 3.84526 3.98092 3.91368
# Velocity P-wave (km/s) = 6.19386 6.33264 6.26363
#
# Compressibility (1/GPa) = 0.01973467
#
# Stress axis : x y z
#
# Youngs Moduli (GPa) = 111.90779 111.90779 67.80903
#
# Poissons Ratio (x) = 0.02436 0.21104
# Poissons Ratio (y) = 0.02436 0.21104
# Poissons Ratio (z) = 0.34829 0.34829
#
# Static dielectric constant tensor:
#      x y z
#    x 2.175930 0.000000 0.000000 
#    y 0.000000 2.175930 0.000000 
#    z 0.000000 0.000000 2.325990 
# 
# From -- ./inp_files/339.got.cif
#   From: 2010.05.17/outbox.cif.g08.bks.cpg/sg85_cif.got.tgz:339.got - 2010.06.03 19:01:16.
