data_PCOD9544340
_publ_section_title
;
Structure prediction by ZEFSAII (Michael W. Deem and Ramdas Pophale) SiO2 
 PCOD9544340
Probable space group: P 42/M
;
_chemical_formula_sum "Si O2"
_cell_formula_units_Z 40
_cell_length_a 14.238493
_cell_length_b 14.238493
_cell_length_c 8.608890
_cell_angle_alpha 90.000000
_cell_angle_beta 90.000000
_cell_angle_gamma 90.000000
_cell_volume 1745.320584
_symmetry_space_group_name_H-M "P 42/M"
_symmetry_group_IT_number 84
_symmetry_cell_setting 'tetragonal'
loop_
_space_group_symop_operation_xyz
x,y,z
-y,x,1/2+z
-x,-y,z
y,-x,1/2+z
-x,-y,-z
y,-x,1/2-z
x,y,-z
-y,x,1/2-z
loop_
_atom_site_type_symbol
_atom_site_label
_atom_site_fract_x
_atom_site_fract_y
_atom_site_fract_z
Si Si1 0.228270 0.329132 0.820683
Si Si2 0.405031 0.593474 0.827535
Si Si3 0.992089 0.139804 0.179044
Si Si4 0.293456 0.125728 0.182159
Si Si5 0.505433 0.112370 0.181121
O O1 0.312931 0.351075 0.705471
O O2 0.224857 0.216441 0.809445
O O3 0.148906 0.403860 0.773858
O O4 0.253870 0.348475 0.000000
O O5 0.513996 0.617271 0.797718
O O6 0.389577 0.557104 0.000000
O O7 0.957302 0.243151 0.224637
O O8 0.069679 0.096031 0.292998
O O9 0.022750 0.135601 0.000000
O O10 0.401077 0.147005 0.232730
O O11 0.300418 0.099109 0.000000
O O12 0.500000 0.000000 0.189807
O O13 0.517487 0.140014 0.000000
#
# Coordination Sequence:
#
# PCOD9544340 Si02
#       5
#     8   8   8   8   8
#     4  11  23  39  61  89 126 169 214 268 325 390
#     4  11  21  35  57  85 119 157 203 256 315 377
#     4  11  23  41  67  97 131 169 215 271 333 397
#     4  10  23  42  64  95 133 174 221 275 334 398
#     4  10  23  43  66  93 130 176 224 277 336 398
#
# _framework density 22.918427000000001
#
# number of rings (size 3 to 8) (size 9 to 14) (size 15 to 20)
#    0.000    1.400    0.000    6.600    2.800    4.400 
#    0.000    0.000    0.000    0.000    0.000    0.000 
#    0.000    0.000    0.000    0.000    0.000    0.000 
#
# Total GULP energy -223458.908227 kJ/mol
# GULP energy per Si atom -5586.472706 kJ/mol
# Density = 2.286626 g / cm^3
# Si number density = 22.918427 Si / 1000 Ang^3
#
#
#
# Elastic Constant Matrix: (Units=GPa)
#
#
# Indices 1 2 3 4 5 6 
#
# 1 -24.8239 110.0468 12.1254 0.0000 0.0000 51.1528
# 2 110.0468 -24.8239 12.1254 0.0000 0.0000 -51.1528
# 3 12.1254 12.1254 65.7709 0.0000 0.0000 0.0000
# 4 0.0000 0.0000 0.0000 12.6809 0.0000 0.0000
# 5 0.0000 0.0000 0.0000 0.0000 12.6809 0.0000
# 6 51.1528 -51.1528 0.0000 0.0000 0.0000 21.7981
#
#
#
# Elastic Compliance Matrix: (Units=1/GPa)
#
#
# Indices 1 2 3 4 5 6 
#
# 1 0.004858 0.007525 -0.002283 0.000000 0.000000 0.006259
# 2 0.007525 0.004858 -0.002283 0.000000 0.000000 -0.006259
# 3 -0.002283 -0.002283 0.016046 0.000000 0.000000 0.000000
# 4 0.000000 0.000000 0.000000 0.078859 0.000000 0.000000
# 5 0.000000 0.000000 0.000000 0.000000 0.078859 0.000000
# 6 0.006259 -0.006259 0.000000 0.000000 0.000000 0.016502
#
#
# Mechanical properties :
#
#
# Convention : Reuss Voigt Hill
#
# Bulk Modulus (GPa) = 31.56447 31.63537 31.59992
# Shear Modulus (GPa) = 24.43509 1.55369 12.99439
#
# Velocity S-wave (km/s) = 3.26878 0.82425 2.38373
# Velocity P-wave (km/s) = 5.29613 3.83918 4.62538
#
# Compressibility (1/GPa) = 0.03168119
#
# Stress axis : x y z
#
# Youngs Moduli (GPa) = 205.83446 205.83446 62.32049
#
# Poissons Ratio (x) = -1.54897 0.14228
# Poissons Ratio (y) = -1.54897 0.14228
# Poissons Ratio (z) = 0.46992 0.46992
#
# Static dielectric constant tensor:
#      x y z
#    x 1.913480 0.000000 0.000000 
#    y 0.000000 1.913480 0.000000 
#    z 0.000000 0.000000 1.870480 
# 
# From -- ./inp_files/782.got.cif
#   From: 2010.05.17/outbox.cif.g08.bks.cpg/sg84_1_cif.got.tgz:782.got - 2010.06.03 18:57:40.
