data_PCOD9544091
_publ_section_title
;
Structure prediction by ZEFSAII (Michael W. Deem and Ramdas Pophale) SiO2 
 PCOD9544091
Probable space group: P 42/M
;
_chemical_formula_sum "Si O2"
_cell_formula_units_Z 64
_cell_length_a 21.998407
_cell_length_b 21.998407
_cell_length_c 9.089461
_cell_angle_alpha 90.000000
_cell_angle_beta 90.000000
_cell_angle_gamma 90.000000
_cell_volume 4398.662049
_symmetry_space_group_name_H-M "P 42/M"
_symmetry_group_IT_number 84
_symmetry_cell_setting 'tetragonal'
loop_
_space_group_symop_operation_xyz
x,y,z
-y,x,1/2+z
-x,-y,z
y,-x,1/2+z
-x,-y,-z
y,-x,1/2-z
x,y,-z
-y,x,1/2-z
loop_
_atom_site_type_symbol
_atom_site_label
_atom_site_fract_x
_atom_site_fract_y
_atom_site_fract_z
Si Si1 0.335163 0.564472 0.325577
Si Si2 0.350235 0.246440 0.331163
Si Si3 0.162785 0.937640 0.325347
Si Si4 0.434970 0.667762 0.675496
Si Si5 0.830774 0.934226 0.175281
Si Si6 0.837609 0.743935 0.824571
Si Si7 0.157021 0.748964 0.823281
Si Si8 0.242134 0.347637 0.670112
O O1 0.334057 0.554697 0.500000
O O2 0.273915 0.598548 0.272838
O O3 0.342235 0.501165 0.242391
O O4 0.390590 0.610676 0.290971
O O5 0.372059 0.244542 0.500000
O O6 0.318821 0.182183 0.292844
O O7 0.294596 0.295223 0.326857
O O8 0.159397 0.951119 0.500000
O O9 0.109726 0.888519 0.292318
O O10 0.227314 0.903876 0.297242
O O11 0.156694 0.998314 0.231994
O O12 0.437649 0.674078 0.500000
O O13 0.403695 0.727235 0.746077
O O14 0.772184 0.906508 0.259081
O O15 0.821189 0.932215 0.000000
O O16 0.792961 0.794860 0.757124
O O17 0.816371 0.681752 0.748717
O O18 0.828605 0.740246 0.000000
O O19 0.159605 0.757333 0.000000
O O20 0.229945 0.361624 0.500000
#
# Coordination Sequence:
#
# PCOD9544091 Si02
#       8
#     8   8   8   8   8   8   8   8
#     4  10  20  31  44  62  84 114 149 183 216 251
#     4   8  15  27  43  62  82 106 135 170 215 261
#     4   9  19  32  43  59  85 116 148 182 217 255
#     4  10  20  32  45  61  85 117 149 183 219 255
#     4  10  20  31  44  62  84 114 150 185 218 255
#     4   9  16  27  43  63  85 108 138 175 217 261
#     4   9  16  27  44  63  83 108 137 174 220 263
#     4   9  16  27  44  64  84 107 138 176 218 261
#
# _framework density 14.549879000000001
#
# number of rings (size 3 to 8) (size 9 to 14) (size 15 to 20)
#    0.000    2.750    0.000    3.750    0.000    8.500 
#    0.000    2.500    0.000    0.000    0.000    0.000 
#    0.000    1.000    0.000   10.500    0.000    5.750 
#
# Total GULP energy -356280.376344 kJ/mol
# GULP energy per Si atom -5566.880880 kJ/mol
# Density = 1.451676 g / cm^3
# Si number density = 14.549879 Si / 1000 Ang^3
#
#
#
# Elastic Constant Matrix: (Units=GPa)
#
#
# Indices 1 2 3 4 5 6 
#
# 1 57.3054 59.5646 51.0931 0.0000 0.0000 -0.2469
# 2 59.5646 57.3054 51.0931 0.0000 0.0000 0.2469
# 3 51.0931 51.0931 75.5783 0.0000 0.0000 0.0000
# 4 0.0000 0.0000 0.0000 24.8615 0.0000 0.0000
# 5 0.0000 0.0000 0.0000 0.0000 24.8615 0.0000
# 6 -0.2469 0.2469 0.0000 0.0000 0.0000 12.3833
#
#
#
# Elastic Compliance Matrix: (Units=1/GPa)
#
#
# Indices 1 2 3 4 5 6 
#
# 1 -0.209897 0.230822 -0.014146 0.000000 0.000000 -0.008786
# 2 0.230822 -0.209897 -0.014146 0.000000 0.000000 0.008786
# 3 -0.014146 -0.014146 0.032357 0.000000 0.000000 0.000000
# 4 0.000000 0.000000 0.000000 0.040223 0.000000 0.000000
# 5 0.000000 0.000000 0.000000 0.000000 0.040223 0.000000
# 6 -0.008786 0.008786 0.000000 0.000000 0.000000 0.080404
#
#
# Mechanical properties :
#
#
# Convention : Reuss Voigt Hill
#
# Bulk Modulus (GPa) = 56.74136 57.07673 56.90905
# Shear Modulus (GPa) = -7.99014 14.31715 3.16350
#
# Velocity S-wave (km/s) = -2.34595 3.14029 1.47613
# Velocity P-wave (km/s) = 5.63423 7.24307 6.48870
#
# Compressibility (1/GPa) = 0.01762383
#
# Stress axis : x y z
#
# Youngs Moduli (GPa) = -4.76425 -4.76425 30.90475
#
# Poissons Ratio (x) = 1.09969 0.43718
# Poissons Ratio (y) = 1.09969 0.43718
# Poissons Ratio (z) = -0.06740 -0.06740
#
# Static dielectric constant tensor:
#      x y z
#    x 1.483810 0.000000 0.000000 
#    y 0.000000 1.483810 0.000000 
#    z 0.000000 0.000000 1.482960 
# 
# From -- ./inp_files/1362.got.cif
#   From: 2010.05.17/outbox.cif.g08.bks.cpg/sg84_1_cif.got.tgz:1362.got - 2010.06.03 18:57:40.
