data_PCOD9544311
_publ_section_title
;
Structure prediction by ZEFSAII (Michael W. Deem and Ramdas Pophale) SiO2 
 PCOD9544311
Probable space group: P 42/M
;
_chemical_formula_sum "Si O2"
_cell_formula_units_Z 64
_cell_length_a 12.411766
_cell_length_b 12.411766
_cell_length_c 21.343755
_cell_angle_alpha 90.000000
_cell_angle_beta 90.000000
_cell_angle_gamma 90.000000
_cell_volume 3288.046763
_symmetry_space_group_name_H-M "P 42/M"
_symmetry_group_IT_number 84
_symmetry_cell_setting 'tetragonal'
loop_
_space_group_symop_operation_xyz
x,y,z
-y,x,1/2+z
-x,-y,z
y,-x,1/2+z
-x,-y,-z
y,-x,1/2-z
x,y,-z
-y,x,1/2-z
loop_
_atom_site_type_symbol
_atom_site_label
_atom_site_fract_x
_atom_site_fract_y
_atom_site_fract_z
Si Si1 0.447222 0.807705 0.762366
Si Si2 0.661272 0.702703 0.819119
Si Si3 0.474702 0.374975 0.929418
Si Si4 0.802348 0.959347 0.310199
Si Si5 0.888894 0.732781 0.358981
Si Si6 0.289965 0.679204 0.927018
Si Si7 0.817513 0.901755 0.167693
Si Si8 0.908346 0.431581 0.855656
O O1 0.555087 0.763044 0.794394
O O2 0.378376 0.709898 0.732241
O O3 0.368015 0.870176 0.811125
O O4 0.493846 0.875314 0.703480
O O5 0.623378 0.645950 0.882916
O O6 0.753039 0.790679 0.831297
O O7 0.500000 0.500000 0.934722
O O8 0.588418 0.333965 0.902174
O O9 0.456668 0.331397 0.000000
O O10 0.847004 0.842658 0.327221
O O11 0.804805 0.959005 0.235337
O O12 0.679887 0.962140 0.333142
O O13 0.872240 0.056824 0.338457
O O14 0.806302 0.726539 0.416613
O O15 0.012146 0.757920 0.376416
O O16 0.199931 0.607860 0.891562
O O17 0.289007 0.649753 0.000000
O O18 0.000000 0.500000 0.891773
#
# Coordination Sequence:
#
# PCOD9544311 Si02
#       8
#     8   8   8   8   8   8   8   8
#     4  12  23  37  57  94 133 161 192 255 324 380
#     4  12  24  36  58  90 129 159 201 251 308 376
#     4  10  22  41  63  84 116 166 213 251 300 371
#     4  11  21  35  56  86 124 163 198 245 307 389
#     4  11  22  38  61  90 121 160 208 253 313 367
#     4  10  22  43  62  85 121 166 217 258 303 372
#     4  12  21  37  58  89 122 162 204 250 313 378
#     4  11  22  37  58  89 127 159 202 258 314 370
#
# _framework density 19.464444
#
# number of rings (size 3 to 8) (size 9 to 14) (size 15 to 20)
#    0.000    0.875    5.000    3.375    1.750    0.250 
#    0.000    0.625    0.000   13.500    0.000    0.000 
#    0.000    0.000    0.000    0.000    0.000    0.000 
#
# Total GULP energy -356947.326912 kJ/mol
# GULP energy per Si atom -5577.301983 kJ/mol
# Density = 1.942014 g / cm^3
# Si number density = 19.464444 Si / 1000 Ang^3
#
#
#
# Elastic Constant Matrix: (Units=GPa)
#
#
# Indices 1 2 3 4 5 6 
#
# 1 69.7442 2.7294 2.2382 0.0000 0.0000 -2.4469
# 2 2.7294 69.7442 2.2382 0.0000 0.0000 2.4469
# 3 2.2382 2.2382 30.1108 0.0000 0.0000 0.0000
# 4 0.0000 0.0000 0.0000 3.0099 0.0000 0.0000
# 5 0.0000 0.0000 0.0000 0.0000 3.0099 0.0000
# 6 -2.4469 2.4469 0.0000 0.0000 0.0000 32.5267
#
#
#
# Elastic Compliance Matrix: (Units=1/GPa)
#
#
# Indices 1 2 3 4 5 6 
#
# 1 0.014433 -0.000571 -0.001030 0.000000 0.000000 0.001129
# 2 -0.000571 0.014433 -0.001030 0.000000 0.000000 -0.001129
# 3 -0.001030 -0.001030 0.033364 0.000000 0.000000 0.000000
# 4 0.000000 0.000000 0.000000 0.332241 0.000000 0.000000
# 5 0.000000 0.000000 0.000000 0.000000 0.332241 0.000000
# 6 0.001129 -0.001129 0.000000 0.000000 0.000000 0.030914
#
#
# Mechanical properties :
#
#
# Convention : Reuss Voigt Hill
#
# Bulk Modulus (GPa) = 17.55433 20.44561 18.99997
# Shear Modulus (GPa) = 6.39485 18.53552 12.46519
#
# Velocity S-wave (km/s) = 1.81453 3.08924 2.53337
# Velocity P-wave (km/s) = 3.66446 4.82198 4.28251
#
# Compressibility (1/GPa) = 0.05696602
#
# Stress axis : x y z
#
# Youngs Moduli (GPa) = 69.28498 69.28498 29.97253
#
# Poissons Ratio (x) = 0.03959 0.03088
# Poissons Ratio (y) = 0.03959 0.03088
# Poissons Ratio (z) = 0.07139 0.07139
#
# Static dielectric constant tensor:
#      x y z
#    x 1.747090 0.000000 0.000000 
#    y 0.000000 1.747090 0.000000 
#    z 0.000000 0.000000 1.764770 
# 
# From -- ./inp_files/5102.got.cif
#   From: 2010.05.17/outbox.cif.g08.bks.cpg/sg84_3_cif.got.tgz:5102.got - 2010.06.03 18:57:40.
