data_PCOD9544218
_publ_section_title
;
Structure prediction by ZEFSAII (Michael W. Deem and Ramdas Pophale) SiO2 
 PCOD9544218
Probable space group: P 42/M
;
_chemical_formula_sum "Si O2"
_cell_formula_units_Z 60
_cell_length_a 12.005229
_cell_length_b 12.005229
_cell_length_c 20.092135
_cell_angle_alpha 90.000000
_cell_angle_beta 90.000000
_cell_angle_gamma 90.000000
_cell_volume 2895.789472
_symmetry_space_group_name_H-M "P 42/M"
_symmetry_group_IT_number 84
_symmetry_cell_setting 'tetragonal'
loop_
_space_group_symop_operation_xyz
x,y,z
-y,x,1/2+z
-x,-y,z
y,-x,1/2+z
-x,-y,-z
y,-x,1/2-z
x,y,-z
-y,x,1/2-z
loop_
_atom_site_type_symbol
_atom_site_label
_atom_site_fract_x
_atom_site_fract_y
_atom_site_fract_z
Si Si1 0.473206 0.260924 0.751094
Si Si2 0.763076 0.782288 0.817587
Si Si3 0.000000 0.000000 0.883108
Si Si4 0.071239 0.401255 0.810561
Si Si5 0.221889 0.271401 0.422933
Si Si6 0.906572 0.208162 0.191226
Si Si7 0.751509 0.969742 0.074186
Si Si8 0.410230 0.410383 0.361457
O O1 0.350614 0.253729 0.781849
O O2 0.538260 0.144052 0.746365
O O3 0.534714 0.346197 0.799212
O O4 0.469545 0.306822 0.675508
O O5 0.838096 0.680782 0.845309
O O6 0.828372 0.836629 0.755104
O O7 0.732851 0.874089 0.872140
O O8 0.885823 0.987297 0.923495
O O9 0.021481 0.891939 0.838229
O O10 0.000000 0.500000 0.845574
O O11 0.978453 0.313999 0.787316
O O12 0.227636 0.234242 0.500000
O O13 0.244333 0.175162 0.368868
O O14 0.314223 0.365980 0.410218
O O15 0.091341 0.301109 0.410680
O O16 0.717237 0.936509 0.000000
O O17 0.500000 0.500000 0.387404
#
# Coordination Sequence:
#
# PCOD9544218 Si02
#       8
#     8   8   4   8   8   8   8   8
#     4  12  22  38  65  96 133 169 219 288 355 403
#     4  12  24  38  64  97 129 178 224 285 347 417
#     4  10  21  35  64  92 129 179 220 270 339 417
#     4  12  23  37  60  99 138 168 221 288 346 408
#     4  10  23  43  65  94 138 183 227 279 350 429
#     4  11  23  38  62 101 135 169 226 284 344 413
#     4  10  23  41  61  91 135 180 224 276 342 422
#     4  12  21  40  67  96 126 173 231 286 343 410
#
# _framework density 20.719740000000002
#
# number of rings (size 3 to 8) (size 9 to 14) (size 15 to 20)
#    0.000    0.800    6.667    0.200    5.600    1.333 
#    0.000    0.667    0.000   12.000    0.000    0.000 
#    0.000    0.000    0.000    0.000    0.000    0.000 
#
# Total GULP energy -334751.925724 kJ/mol
# GULP energy per Si atom -5579.198762 kJ/mol
# Density = 2.067258 g / cm^3
# Si number density = 20.719740 Si / 1000 Ang^3
#
#
#
# Elastic Constant Matrix: (Units=GPa)
#
#
# Indices 1 2 3 4 5 6 
#
# 1 106.0203 52.7067 35.6855 0.0000 0.0000 11.0728
# 2 52.7067 106.0203 35.6855 0.0000 0.0000 -11.0728
# 3 35.6855 35.6855 77.1496 0.0000 0.0000 0.0000
# 4 0.0000 0.0000 0.0000 12.8860 0.0000 0.0000
# 5 0.0000 0.0000 0.0000 0.0000 12.8860 0.0000
# 6 11.0728 -11.0728 0.0000 0.0000 0.0000 56.5838
#
#
#
# Elastic Compliance Matrix: (Units=1/GPa)
#
#
# Indices 1 2 3 4 5 6 
#
# 1 0.014186 -0.006231 -0.003679 0.000000 0.000000 -0.003995
# 2 -0.006231 0.014186 -0.003679 0.000000 0.000000 0.003995
# 3 -0.003679 -0.003679 0.016366 0.000000 0.000000 0.000000
# 4 0.000000 0.000000 0.000000 0.077604 0.000000 0.000000
# 5 0.000000 0.000000 0.000000 0.000000 0.077604 0.000000
# 6 -0.003995 0.003995 0.000000 0.000000 0.000000 0.019237
#
#
# Mechanical properties :
#
#
# Convention : Reuss Voigt Hill
#
# Bulk Modulus (GPa) = 56.95664 59.70507 58.33085
# Shear Modulus (GPa) = 19.82453 27.47863 23.65158
#
# Velocity S-wave (km/s) = 3.09656 3.64566 3.38227
# Velocity P-wave (km/s) = 6.35088 6.82636 6.59291
#
# Compressibility (1/GPa) = 0.01755722
#
# Stress axis : x y z
#
# Youngs Moduli (GPa) = 70.49433 70.49433 61.10382
#
# Poissons Ratio (x) = 0.43925 0.22482
# Poissons Ratio (y) = 0.43925 0.22482
# Poissons Ratio (z) = 0.25937 0.25937
#
# Static dielectric constant tensor:
#      x y z
#    x 1.819990 0.000000 0.000000 
#    y 0.000000 1.819990 0.000000 
#    z 0.000000 0.000000 1.677170 
# 
# From -- ./inp_files/4537.got.cif
#   From: 2010.05.17/outbox.cif.g08.bks.cpg/sg84_3_cif.got.tgz:4537.got - 2010.06.03 18:57:40.
