data_PCOD9544983
_publ_section_title
;
Structure prediction by ZEFSAII (Michael W. Deem and Ramdas Pophale) SiO2 
 PCOD9544983
Probable space group: P 42/N
;
_chemical_formula_sum "Si O2"
_cell_formula_units_Z 32
_cell_length_a 7.803653
_cell_length_b 7.803653
_cell_length_c 20.615415
_cell_angle_alpha 90.000000
_cell_angle_beta 90.000000
_cell_angle_gamma 90.000000
_cell_volume 1255.416930
_symmetry_space_group_name_H-M "P 42/N"
_symmetry_group_IT_number 86
_space_group.IT_coordinate_system_code '2'
_symmetry_cell_setting 'tetragonal'
loop_
_space_group_symop_operation_xyz
x,y,z
-y,1/2+x,1/2+z
1/2-x,1/2-y,z
1/2+y,-x,1/2+z
-x,-y,-z
y,1/2-x,1/2-z
1/2+x,1/2+y,-z
1/2-y,x,1/2-z
loop_
_atom_site_type_symbol
_atom_site_label
_atom_site_fract_x
_atom_site_fract_y
_atom_site_fract_z
Si Si1 0.691096 0.943808 0.395690
Si Si2 0.813375 0.049799 0.528262
Si Si3 0.054500 0.812133 0.840576
Si Si4 0.998925 0.366631 0.772535
O O1 0.750000 0.750000 0.385369
O O2 0.501306 0.964998 0.369888
O O3 0.819082 0.042510 0.346653
O O4 0.695245 0.975940 0.471603
O O5 0.750000 0.250000 0.530097
O O6 0.699404 0.524621 0.601409
O O7 0.000000 0.000000 0.500000
O O8 0.250000 0.750000 0.840776
O O9 0.028004 0.850849 0.764232
O O10 0.180701 0.463824 0.761837
#
# Coordination Sequence:
#
# PCOD9544983 Si02
#       4
#     8   8   8   8
#     4  11  19  37  67  99 132 180 242 301 365 453
#     4  11  25  42  64 101 143 188 244 311 382 454
#     4  10  20  35  58  96 132 176 225 298 353 435
#     4   9  16  32  60  92 124 166 233 293 360 434
#
# _framework density 25.489536999999999
#
# number of rings (size 3 to 8) (size 9 to 14) (size 15 to 20)
#    0.000    1.750    5.000    3.750    0.000    1.000 
#    0.000    0.000    0.000    0.000    0.000    0.000 
#    0.000    0.000    0.000    0.000    0.000    0.000 
#
# Total GULP energy -178300.267931 kJ/mol
# GULP energy per Si atom -5571.883373 kJ/mol
# Density = 2.543152 g / cm^3
# Si number density = 25.489537 Si / 1000 Ang^3
#
#
#
# Elastic Constant Matrix: (Units=GPa)
#
#
# Indices 1 2 3 4 5 6 
#
# 1 83.4874 16.5248 33.6600 0.0000 0.0000 -1.9830
# 2 16.5248 83.4874 33.6600 0.0000 0.0000 1.9830
# 3 33.6600 33.6600 135.6109 0.0000 0.0000 0.0000
# 4 0.0000 0.0000 0.0000 13.2804 0.0000 0.0000
# 5 0.0000 0.0000 0.0000 0.0000 13.2804 0.0000
# 6 -1.9830 1.9830 0.0000 0.0000 0.0000 22.6131
#
#
#
# Elastic Compliance Matrix: (Units=1/GPa)
#
#
# Indices 1 2 3 4 5 6 
#
# 1 0.013508 -0.001504 -0.002980 0.000000 0.000000 0.001316
# 2 -0.001504 0.013508 -0.002980 0.000000 0.000000 -0.001316
# 3 -0.002980 -0.002980 0.008853 0.000000 0.000000 0.000000
# 4 0.000000 0.000000 0.000000 0.075299 0.000000 0.000000
# 5 0.000000 0.000000 0.000000 0.000000 0.075299 0.000000
# 6 0.001316 -0.001316 0.000000 0.000000 0.000000 0.044453
#
#
# Mechanical properties :
#
#
# Convention : Reuss Voigt Hill
#
# Bulk Modulus (GPa) = 47.74741 52.25280 50.00011
# Shear Modulus (GPa) = 19.77635 24.41750 22.09692
#
# Velocity S-wave (km/s) = 2.78845 3.09842 2.94751
# Velocity P-wave (km/s) = 5.39816 5.77447 5.58948
#
# Compressibility (1/GPa) = 0.02094354
#
# Stress axis : x y z
#
# Youngs Moduli (GPa) = 74.02993 74.02993 112.95376
#
# Poissons Ratio (x) = 0.11131 0.33656
# Poissons Ratio (y) = 0.11131 0.33656
# Poissons Ratio (z) = 0.22058 0.22058
#
# Static dielectric constant tensor:
#      x y z
#    x 2.238410 0.000000 0.000000 
#    y 0.000000 2.238410 0.000000 
#    z 0.000000 0.000000 2.241290 
# 
# From -- ./inp_files/3850.got.cif
#   From: 2010.05.17/outbox.cif.g08.bks.cpg/sg86_2_cif.got.tgz:3850.got - 2010.06.03 19:03:11.
