data_PCOD9544775
_publ_section_title
;
Structure prediction by ZEFSAII (Michael W. Deem and Ramdas Pophale) SiO2 
 PCOD9544775
Probable space group: P 4/N
;
_chemical_formula_sum "Si O2"
_cell_formula_units_Z 34
_cell_length_a 8.302359
_cell_length_b 8.302359
_cell_length_c 23.176165
_cell_angle_alpha 90.000000
_cell_angle_beta 90.000000
_cell_angle_gamma 90.000000
_cell_volume 1597.513701
_symmetry_space_group_name_H-M "P 4/N"
_symmetry_group_IT_number 85
_symmetry_cell_setting 'tetragonal'
loop_
_space_group_symop_operation_xyz
x,y,z
1/2-y,x,z
1/2-x,1/2-y,z
y,1/2-x,z
-x,-y,-z
1/2+y,-x,-z
1/2+x,1/2+y,-z
-y,1/2+x,-z
loop_
_atom_site_type_symbol
_atom_site_label
_atom_site_fract_x
_atom_site_fract_y
_atom_site_fract_z
Si Si1 0.750000 0.250000 0.000000
Si Si2 0.930543 0.950045 0.561219
Si Si3 0.634131 0.991110 0.197561
Si Si4 0.836116 0.004715 0.910300
Si Si5 0.524536 0.906717 0.685870
O O1 0.641320 0.140086 0.041797
O O2 0.738794 0.968209 0.562652
O O3 0.974129 0.028577 0.622877
O O4 0.000000 0.000000 0.500000
O O5 0.542771 0.821866 0.187543
O O6 0.573369 0.124332 0.152787
O O7 0.589281 0.038020 0.262680
O O8 0.652450 0.946550 0.916721
O O9 0.535362 0.711352 0.690383
#
# Coordination Sequence:
#
# PCOD9544775 Si02
#       5
#     2   8   8   8   8
#     4  12  24  44  68  96 128 160 200 250 300 360
#     4   9  19  35  54  79 113 151 193 243 297 356
#     4  11  24  40  59  87 122 157 197 249 304 358
#     4  11  24  42  66  94 124 161 201 243 296 359
#     4   9  19  37  59  82 111 151 198 246 299 360
#
# _framework density 21.283073000000002
#
# number of rings (size 3 to 8) (size 9 to 14) (size 15 to 20)
#    0.000    1.882    0.000    4.941    0.000    7.059 
#    0.000    9.412    0.000    0.000    0.000    0.000 
#    0.000    0.000    0.000    0.000    0.000    0.000 
#
# Total GULP energy -189817.084497 kJ/mol
# GULP energy per Si atom -5582.855426 kJ/mol
# Density = 2.123463 g / cm^3
# Si number density = 21.283073 Si / 1000 Ang^3
#
#
#
# Elastic Constant Matrix: (Units=GPa)
#
#
# Indices 1 2 3 4 5 6 
#
# 1 52.0146 14.6523 40.6004 0.0000 0.0000 -2.0609
# 2 14.6523 52.0146 40.6004 0.0000 0.0000 2.0609
# 3 40.6004 40.6004 182.5090 0.0000 0.0000 0.0000
# 4 0.0000 0.0000 0.0000 37.7242 0.0000 0.0000
# 5 0.0000 0.0000 0.0000 0.0000 37.7242 0.0000
# 6 -2.0609 2.0609 0.0000 0.0000 0.0000 24.4724
#
#
#
# Elastic Compliance Matrix: (Units=1/GPa)
#
#
# Indices 1 2 3 4 5 6 
#
# 1 0.023795 -0.003221 -0.004577 0.000000 0.000000 0.002275
# 2 -0.003221 0.023795 -0.004577 0.000000 0.000000 -0.002275
# 3 -0.004577 -0.004577 0.007516 0.000000 0.000000 0.000000
# 4 0.000000 0.000000 0.000000 0.026508 0.000000 0.000000
# 5 0.000000 0.000000 0.000000 0.000000 0.026508 0.000000
# 6 0.002275 -0.002275 0.000000 0.000000 0.000000 0.041246
#
#
# Mechanical properties :
#
#
# Convention : Reuss Voigt Hill
#
# Bulk Modulus (GPa) = 32.94125 53.13828 43.03976
# Shear Modulus (GPa) = 27.13903 32.69649 29.91776
#
# Velocity S-wave (km/s) = 3.57479 3.92378 3.75334
# Velocity P-wave (km/s) = 5.70527 6.74905 6.24899
#
# Compressibility (1/GPa) = 0.03035707
#
# Stress axis : x y z
#
# Youngs Moduli (GPa) = 42.02500 42.02500 133.05745
#
# Poissons Ratio (x) = 0.13535 0.60900
# Poissons Ratio (y) = 0.13535 0.60900
# Poissons Ratio (z) = 0.19235 0.19235
#
# Static dielectric constant tensor:
#      x y z
#    x 1.778910 0.000000 0.000000 
#    y 0.000000 1.778910 0.000000 
#    z 0.000000 0.000000 1.785830 
# 
# From -- ./inp_files/2176.got.cif
#   From: 2010.05.17/outbox.cif.g08.bks.cpg/sg85_cif.got.tgz:2176.got - 2010.06.03 19:01:16.
