data_PCOD9544541
_publ_section_title
;
Structure prediction by ZEFSAII (Michael W. Deem and Ramdas Pophale) SiO2 
 PCOD9544541
Probable space group: P 4/N
;
_chemical_formula_sum "Si O2"
_cell_formula_units_Z 56
_cell_length_a 11.213984
_cell_length_b 11.213984
_cell_length_c 21.151180
_cell_angle_alpha 90.000000
_cell_angle_beta 90.000000
_cell_angle_gamma 90.000000
_cell_volume 2659.833585
_symmetry_space_group_name_H-M "P 4/N"
_symmetry_group_IT_number 85
_symmetry_cell_setting 'tetragonal'
loop_
_space_group_symop_operation_xyz
x,y,z
1/2-y,x,z
1/2-x,1/2-y,z
y,1/2-x,z
-x,-y,-z
1/2+y,-x,-z
1/2+x,1/2+y,-z
-y,1/2+x,-z
loop_
_atom_site_type_symbol
_atom_site_label
_atom_site_fract_x
_atom_site_fract_y
_atom_site_fract_z
Si Si1 0.566324 0.667369 0.070365
Si Si2 0.070854 0.339360 0.283904
Si Si3 0.667369 0.933676 0.929635
Si Si4 0.430261 0.662044 0.500000
Si Si5 0.839361 0.929146 0.283904
Si Si6 1.000000 1.000000 0.826238
Si Si7 0.500000 0.000000 0.608137
O O1 0.693745 0.598951 0.075031
O O2 0.492071 0.613303 0.127377
O O3 0.516219 0.645748 1.000000
O O4 0.095349 0.199767 0.284648
O O5 0.001947 0.387067 0.345174
O O6 0.009931 0.387241 0.220373
O O7 0.598951 0.806255 0.924969
O O8 0.613304 0.007929 0.872623
O O9 0.301740 0.595334 0.500000
O O10 0.497407 0.613666 0.561877
O O11 0.497408 0.613666 0.438123
O O12 0.699767 0.904651 0.284648
O O13 0.887241 0.990070 0.220373
O O14 0.887067 0.998053 0.345174
#
# Coordination Sequence:
#
# PCOD9544541 Si02
#       7
#     8   8   8   8   8   8   8
#     4   9  18  33  53  76 101 131 169 211 255 306
#     4  10  21  36  53  74 101 133 173 218 255 293
#     4   9  18  33  53  76 101 131 169 211 255 306
#     4  10  20  34  54  82 114 140 164 202 254 308
#     4  10  21  36  53  74 101 133 173 218 255 293
#     4  11  19  29  51  77  99 128 166 208 259 307
#     4  10  20  35  57  80 102 138 178 208 246 298
#
# _framework density 21.053948999999999
#
# number of rings (size 3 to 8) (size 9 to 14) (size 15 to 20)
#    0.000    2.143    0.000    4.714    0.000    2.286 
#    0.000    0.000    0.000   44.571    0.000   16.000 
#    0.000    0.000    0.000    0.000    0.000    0.000 
#
# Total GULP energy -312842.504849 kJ/mol
# GULP energy per Si atom -5586.473301 kJ/mol
# Density = 2.100603 g / cm^3
# Si number density = 21.053949 Si / 1000 Ang^3
#
#
#
# Elastic Constant Matrix: (Units=GPa)
#
#
# Indices 1 2 3 4 5 6 
#
# 1 30.0305 3.0553 25.3280 0.0000 0.0000 1.2540
# 2 3.0553 30.0305 25.3280 0.0000 0.0000 -1.2540
# 3 25.3280 25.3280 166.4438 0.0000 0.0000 0.0000
# 4 0.0000 0.0000 0.0000 19.7544 0.0000 0.0000
# 5 0.0000 0.0000 0.0000 0.0000 19.7544 0.0000
# 6 1.2540 -1.2540 0.0000 0.0000 0.0000 32.4930
#
#
#
# Elastic Compliance Matrix: (Units=1/GPa)
#
#
# Indices 1 2 3 4 5 6 
#
# 1 0.038305 0.001100 -0.005996 0.000000 0.000000 -0.001436
# 2 0.001100 0.038305 -0.005996 0.000000 0.000000 0.001436
# 3 -0.005996 -0.005996 0.007833 0.000000 0.000000 0.000000
# 4 0.000000 0.000000 0.000000 0.050622 0.000000 0.000000
# 5 0.000000 0.000000 0.000000 0.000000 0.050622 0.000000
# 6 -0.001436 0.001436 0.000000 0.000000 0.000000 0.030887
#
#
# Mechanical properties :
#
#
# Convention : Reuss Voigt Hill
#
# Bulk Modulus (GPa) = 15.95965 37.10304 26.53134
# Shear Modulus (GPa) = 19.28688 25.91992 22.60340
#
# Velocity S-wave (km/s) = 3.02995 3.51254 3.28013
# Velocity P-wave (km/s) = 4.45394 5.84052 5.19371
#
# Compressibility (1/GPa) = 0.06265800
#
# Stress axis : x y z
#
# Youngs Moduli (GPa) = 26.10630 26.10630 127.66530
#
# Poissons Ratio (x) = -0.02872 0.76553
# Poissons Ratio (y) = -0.02872 0.76553
# Poissons Ratio (z) = 0.15654 0.15654
#
# Static dielectric constant tensor:
#      x y z
#    x 1.751380 0.000000 0.000000 
#    y 0.000000 1.751380 0.000000 
#    z 0.000000 0.000000 1.764800 
# 
# From -- ./inp_files/2242.got.cif
#   From: 2010.05.17/outbox.cif.g08.bks.cpg/sg85_cif.got.tgz:2242.got - 2010.06.03 19:01:16.
