data_PCOD9544818
_publ_section_title
;
Structure prediction by ZEFSAII (Michael W. Deem and Ramdas Pophale) SiO2 
 PCOD9544818
Probable space group: P 4/N
;
_chemical_formula_sum "Si O2"
_cell_formula_units_Z 42
_cell_length_a 14.620049
_cell_length_b 14.620049
_cell_length_c 8.550620
_cell_angle_alpha 90.000000
_cell_angle_beta 90.000000
_cell_angle_gamma 90.000000
_cell_volume 1827.659393
_symmetry_space_group_name_H-M "P 4/N"
_symmetry_group_IT_number 85
_symmetry_cell_setting 'tetragonal'
loop_
_space_group_symop_operation_xyz
x,y,z
1/2-y,x,z
1/2-x,1/2-y,z
y,1/2-x,z
-x,-y,-z
1/2+y,-x,-z
1/2+x,1/2+y,-z
-y,1/2+x,-z
loop_
_atom_site_type_symbol
_atom_site_label
_atom_site_fract_x
_atom_site_fract_y
_atom_site_fract_z
Si Si1 0.196052 0.395019 0.267835
Si Si2 0.591149 0.954929 0.433008
Si Si3 0.750000 0.250000 0.500000
Si Si4 0.886558 0.678232 0.180178
Si Si5 0.529676 0.230631 0.045260
Si Si6 0.119060 0.829706 0.241397
O O1 0.137717 0.301706 0.258185
O O2 0.164107 0.439076 0.429776
O O3 0.190792 0.469825 0.130630
O O4 0.573949 0.859385 0.342991
O O5 0.500000 0.000000 0.500000
O O6 0.629059 0.025732 0.306776
O O7 0.722694 0.168402 0.382756
O O8 0.866366 0.786368 0.170844
O O9 0.959348 0.662617 0.043373
O O10 0.589132 0.182866 0.178209
O O11 0.594557 0.268014 0.908206
#
# Coordination Sequence:
#
# PCOD9544818 Si02
#       6
#     8   8   2   8   8   8
#     4  11  25  47  74 107 152 201 254 314 388 468
#     4  12  27  44  74 111 152 197 253 316 381 463
#     4  12  28  54  76 104 152 214 268 316 396 478
#     4  11  24  46  76 109 152 202 250 310 394 470
#     4  12  26  47  75 112 150 199 259 325 394 461
#     4  12  28  47  77 107 152 202 259 322 389 471
#
# _framework density 22.980212999999999
#
# number of rings (size 3 to 8) (size 9 to 14) (size 15 to 20)
#    0.000    0.381    1.905    5.714    5.333    3.810 
#    0.000    0.000    0.000    0.000    0.000    0.000 
#    0.000    0.000    0.000    0.000    0.000    0.000 
#
# Total GULP energy -235036.473848 kJ/mol
# GULP energy per Si atom -5596.106520 kJ/mol
# Density = 2.292791 g / cm^3
# Si number density = 22.980213 Si / 1000 Ang^3
#
#
#
# Elastic Constant Matrix: (Units=GPa)
#
#
# Indices 1 2 3 4 5 6 
#
# 1 73.6105 22.6828 34.0544 0.0000 0.0000 0.0908
# 2 22.6828 73.6105 34.0544 0.0000 0.0000 -0.0908
# 3 34.0544 34.0544 138.2531 0.0000 0.0000 0.0000
# 4 0.0000 0.0000 0.0000 55.3553 0.0000 0.0000
# 5 0.0000 0.0000 0.0000 0.0000 55.3553 0.0000
# 6 0.0908 -0.0908 0.0000 0.0000 0.0000 40.1911
#
#
#
# Elastic Compliance Matrix: (Units=1/GPa)
#
#
# Indices 1 2 3 4 5 6 
#
# 1 0.016106 -0.003530 -0.003098 0.000000 0.000000 -0.000044
# 2 -0.003530 0.016106 -0.003098 0.000000 0.000000 0.000044
# 3 -0.003098 -0.003098 0.008759 0.000000 0.000000 0.000000
# 4 0.000000 0.000000 0.000000 0.018065 0.000000 0.000000
# 5 0.000000 0.000000 0.000000 0.000000 0.018065 0.000000
# 6 -0.000044 0.000044 0.000000 0.000000 0.000000 0.024881
#
#
# Mechanical properties :
#
#
# Convention : Reuss Voigt Hill
#
# Bulk Modulus (GPa) = 46.46782 51.89527 49.18155
# Shear Modulus (GPa) = 38.87826 43.15920 41.01873
#
# Velocity S-wave (km/s) = 4.11763 4.33841 4.22946
# Velocity P-wave (km/s) = 6.54761 6.90850 6.73047
#
# Compressibility (1/GPa) = 0.02152027
#
# Stress axis : x y z
#
# Youngs Moduli (GPa) = 62.08910 62.08910 114.16623
#
# Poissons Ratio (x) = 0.21917 0.35365
# Poissons Ratio (y) = 0.21917 0.35365
# Poissons Ratio (z) = 0.19233 0.19233
#
# Static dielectric constant tensor:
#      x y z
#    x 1.892690 0.000000 0.000000 
#    y 0.000000 1.892690 0.000000 
#    z 0.000000 0.000000 1.863180 
# 
# From -- ./inp_files/977.got.cif
#   From: 2010.05.17/outbox.cif.g08.bks.cpg/sg85_cif.got.tgz:977.got - 2010.06.03 19:01:16.
