data_PCOD9544969
_publ_section_title
;
Structure prediction by ZEFSAII (Michael W. Deem and Ramdas Pophale) SiO2 
 PCOD9544969
Probable space group: P 42/N
;
_chemical_formula_sum "Si O2"
_cell_formula_units_Z 32
_cell_length_a 15.787182
_cell_length_b 15.787182
_cell_length_c 5.240155
_cell_angle_alpha 90.000000
_cell_angle_beta 90.000000
_cell_angle_gamma 90.000000
_cell_volume 1306.030637
_symmetry_space_group_name_H-M "P 42/N"
_symmetry_group_IT_number 86
_space_group.IT_coordinate_system_code '2'
_symmetry_cell_setting 'tetragonal'
loop_
_space_group_symop_operation_xyz
x,y,z
-y,1/2+x,1/2+z
1/2-x,1/2-y,z
1/2+y,-x,1/2+z
-x,-y,-z
y,1/2-x,1/2-z
1/2+x,1/2+y,-z
1/2-y,x,1/2-z
loop_
_atom_site_type_symbol
_atom_site_label
_atom_site_fract_x
_atom_site_fract_y
_atom_site_fract_z
Si Si1 0.943310 0.270910 0.840893
Si Si2 0.594034 0.129924 0.340986
Si Si3 0.882766 0.557585 0.269112
Si Si4 0.843983 0.857423 0.735938
O O1 0.872632 0.196723 0.819295
O O2 0.927227 0.341018 0.626625
O O3 0.026762 0.215662 0.781470
O O4 0.941125 0.307882 0.125258
O O5 0.569908 0.032478 0.278421
O O6 0.898396 0.611838 0.520097
O O7 0.892988 0.613076 0.018739
O O8 0.863791 0.756814 0.748223
#
# Coordination Sequence:
#
# PCOD9544969 Si02
#       4
#     8   8   8   8
#     4  10  20  33  54  83 117 155 191 223 268 322
#     4  10  20  33  54  83 117 155 191 223 268 322
#     4  10  22  37  57  86 120 148 172 248 280 326
#     4  11  22  40  66  88 103 134 190 246 297 338
#
# _framework density 24.501719000000001
#
# number of rings (size 3 to 8) (size 9 to 14) (size 15 to 20)
#    1.500    0.250    0.000    6.000    0.000    5.000 
#    0.000    0.000    0.000   30.000    0.000    0.000 
#    0.000    0.000    0.000    0.000    0.000    0.000 
#
# Total GULP energy -179173.665695 kJ/mol
# GULP energy per Si atom -5599.177053 kJ/mol
# Density = 2.444595 g / cm^3
# Si number density = 24.501719 Si / 1000 Ang^3
#
#
#
# Elastic Constant Matrix: (Units=GPa)
#
#
# Indices 1 2 3 4 5 6 
#
# 1 90.4567 -2.6276 14.2398 0.0000 0.0000 5.2814
# 2 -2.6276 90.4567 14.2398 0.0000 0.0000 -5.2814
# 3 14.2398 14.2398 165.1374 0.0000 0.0000 0.0000
# 4 0.0000 0.0000 0.0000 34.4557 0.0000 0.0000
# 5 0.0000 0.0000 0.0000 0.0000 34.4557 0.0000
# 6 5.2814 -5.2814 0.0000 0.0000 0.0000 42.7758
#
#
#
# Elastic Compliance Matrix: (Units=1/GPa)
#
#
# Indices 1 2 3 4 5 6 
#
# 1 0.011304 0.000409 -0.001010 0.000000 0.000000 -0.001345
# 2 0.000409 0.011304 -0.001010 0.000000 0.000000 0.001345
# 3 -0.001010 -0.001010 0.006230 0.000000 0.000000 0.000000
# 4 0.000000 0.000000 0.000000 0.029023 0.000000 0.000000
# 5 0.000000 0.000000 0.000000 0.000000 0.029023 0.000000
# 6 -0.001345 0.001345 0.000000 0.000000 0.000000 0.023710
#
#
# Mechanical properties :
#
#
# Convention : Reuss Voigt Hill
#
# Bulk Modulus (GPa) = 39.03790 44.19500 41.61645
# Shear Modulus (GPa) = 40.86463 43.68405 42.27434
#
# Velocity S-wave (km/s) = 4.08833 4.22702 4.15825
# Velocity P-wave (km/s) = 6.18492 6.47304 6.33062
#
# Compressibility (1/GPa) = 0.02561613
#
# Stress axis : x y z
#
# Youngs Moduli (GPa) = 88.46091 88.46091 160.52000
#
# Poissons Ratio (x) = -0.03617 0.16213
# Poissons Ratio (y) = -0.03617 0.16213
# Poissons Ratio (z) = 0.08935 0.08935
#
# Static dielectric constant tensor:
#      x y z
#    x 1.942390 0.000000 0.000000 
#    y 0.000000 1.942390 0.000000 
#    z 0.000000 0.000000 1.824390 
# 
# From -- ./inp_files/249.got.cif
#   From: 2010.05.17/outbox.cif.g08.bks.cpg/sg86_1_cif.got.tgz:249.got - 2010.06.03 19:03:11.
