data_PCOD9544555
_publ_section_title
;
Structure prediction by ZEFSAII (Michael W. Deem and Ramdas Pophale) SiO2 
 PCOD9544555
Probable space group: P 4/N
;
_chemical_formula_sum "Si O2"
_cell_formula_units_Z 38
_cell_length_a 8.259975
_cell_length_b 8.259975
_cell_length_c 26.331737
_cell_angle_alpha 90.000000
_cell_angle_beta 90.000000
_cell_angle_gamma 90.000000
_cell_volume 1796.540344
_symmetry_space_group_name_H-M "P 4/N"
_symmetry_group_IT_number 85
_symmetry_cell_setting 'tetragonal'
loop_
_space_group_symop_operation_xyz
x,y,z
1/2-y,x,z
1/2-x,1/2-y,z
y,1/2-x,z
-x,-y,-z
1/2+y,-x,-z
1/2+x,1/2+y,-z
-y,1/2+x,-z
loop_
_atom_site_type_symbol
_atom_site_label
_atom_site_fract_x
_atom_site_fract_y
_atom_site_fract_z
Si Si1 0.511999 0.173209 0.086978
Si Si2 0.004370 0.664729 0.250852
Si Si3 0.627713 0.986291 0.656017
Si Si4 0.960023 0.577322 0.445557
Si Si5 0.250000 0.750000 0.000000
Si Si6 0.750000 0.250000 0.828235
O O1 0.443721 0.357680 0.088452
O O2 0.632405 0.150480 0.134430
O O3 0.620464 0.162134 0.036409
O O4 0.947144 0.848450 0.244297
O O5 0.065525 0.627244 0.307451
O O6 0.140933 0.640632 0.208809
O O7 0.540207 0.816005 0.667228
O O8 0.582227 0.015209 0.597508
O O9 0.968247 0.771336 0.439572
O O10 0.000000 0.500000 0.500000
#
# Coordination Sequence:
#
# PCOD9544555 Si02
#       6
#     8   8   8   8   2   4
#     4  10  21  37  59  88 122 162 209 261 318 383
#     4  11  23  39  60  86 117 155 200 250 306 369
#     4  11  24  41  62  89 120 156 200 250 306 370
#     4  11  24  41  62  90 122 157 200 250 307 372
#     4  10  20  36  60  88 124 164 208 262 324 382
#     4  11  22  39  60  86 120 161 206 259 316 378
#
# _framework density 21.151767
#
# number of rings (size 3 to 8) (size 9 to 14) (size 15 to 20)
#    0.000    1.263    0.000    5.684    0.000    8.000 
#    0.000    2.105    0.000   10.105    0.000    0.000 
#    0.000    0.000    0.000    0.000    0.000    0.000 
#
# Total GULP energy -212398.745712 kJ/mol
# GULP energy per Si atom -5589.440677 kJ/mol
# Density = 2.110362 g / cm^3
# Si number density = 21.151767 Si / 1000 Ang^3
#
#
#
# Elastic Constant Matrix: (Units=GPa)
#
#
# Indices 1 2 3 4 5 6 
#
# 1 52.8148 13.5013 21.9280 0.0000 0.0000 1.5937
# 2 13.5013 52.8148 21.9280 0.0000 0.0000 -1.5937
# 3 21.9280 21.9280 139.8168 0.0000 0.0000 0.0000
# 4 0.0000 0.0000 0.0000 30.0651 0.0000 0.0000
# 5 0.0000 0.0000 0.0000 0.0000 30.0651 0.0000
# 6 1.5937 -1.5937 0.0000 0.0000 0.0000 25.3111
#
#
#
# Elastic Compliance Matrix: (Units=1/GPa)
#
#
# Indices 1 2 3 4 5 6 
#
# 1 0.021196 -0.004371 -0.002639 0.000000 0.000000 -0.001610
# 2 -0.004371 0.021196 -0.002639 0.000000 0.000000 0.001610
# 3 -0.002639 -0.002639 0.007980 0.000000 0.000000 0.000000
# 4 0.000000 0.000000 0.000000 0.033261 0.000000 0.000000
# 5 0.000000 0.000000 0.000000 0.000000 0.033261 0.000000
# 6 -0.001610 0.001610 0.000000 0.000000 0.000000 0.039711
#
#
# Mechanical properties :
#
#
# Convention : Reuss Voigt Hill
#
# Bulk Modulus (GPa) = 32.18132 40.01788 36.09960
# Shear Modulus (GPa) = 26.84421 29.62753 28.23587
#
# Velocity S-wave (km/s) = 3.56634 3.74667 3.65762
# Velocity P-wave (km/s) = 5.67502 6.13817 5.91114
#
# Compressibility (1/GPa) = 0.03107393
#
# Stress axis : x y z
#
# Youngs Moduli (GPa) = 47.17945 47.17945 125.31549
#
# Poissons Ratio (x) = 0.20624 0.33066
# Poissons Ratio (y) = 0.20624 0.33066
# Poissons Ratio (z) = 0.12449 0.12449
#
# Static dielectric constant tensor:
#      x y z
#    x 1.797150 0.000000 0.000000 
#    y 0.000000 1.797150 0.000000 
#    z 0.000000 0.000000 1.741370 
# 
# From -- ./inp_files/2329.got.cif
#   From: 2010.05.17/outbox.cif.g08.bks.cpg/sg85_cif.got.tgz:2329.got - 2010.06.03 19:01:16.
