data_PCOD9544017
_publ_section_title
;
Structure prediction by ZEFSAII (Michael W. Deem and Ramdas Pophale) SiO2 
 PCOD9544017
Probable space group: P 42/M
;
_chemical_formula_sum "Si O2"
_cell_formula_units_Z 40
_cell_length_a 14.460751
_cell_length_b 14.460751
_cell_length_c 8.062628
_cell_angle_alpha 90.000000
_cell_angle_beta 90.000000
_cell_angle_gamma 90.000000
_cell_volume 1686.002905
_symmetry_space_group_name_H-M "P 42/M"
_symmetry_group_IT_number 84
_symmetry_cell_setting 'tetragonal'
loop_
_space_group_symop_operation_xyz
x,y,z
-y,x,1/2+z
-x,-y,z
y,-x,1/2+z
-x,-y,-z
y,-x,1/2-z
x,y,-z
-y,x,1/2-z
loop_
_atom_site_type_symbol
_atom_site_label
_atom_site_fract_x
_atom_site_fract_y
_atom_site_fract_z
Si Si1 0.860144 0.286630 0.796291
Si Si2 0.411116 0.400660 0.320994
Si Si3 0.895092 0.492588 0.801216
Si Si4 0.999130 0.141780 0.190209
Si Si5 0.791559 0.676993 0.691391
O O1 0.853427 0.393826 0.741916
O O2 0.959633 0.241247 0.755797
O O3 0.779421 0.217668 0.732082
O O4 0.853811 0.285058 0.000000
O O5 0.386200 0.508967 0.310703
O O6 0.452308 0.376557 0.500000
O O7 0.316962 0.348086 0.304063
O O8 0.843251 0.588514 0.764671
O O9 0.000000 0.500000 0.738582
O O10 0.897900 0.484047 0.000000
O O11 0.073483 0.089953 0.301996
O O12 0.031169 0.146754 0.000000
O O13 0.822116 0.684264 0.500000
#
# Coordination Sequence:
#
# PCOD9544017 Si02
#       5
#     8   8   8   8   8
#     4   9  20  38  59  84 119 159 193 238 302 355
#     4  10  19  31  51  77 107 142 183 230 281 334
#     4  10  22  40  62  87 117 154 197 246 299 355
#     4  10  20  36  59  85 116 150 190 241 296 351
#     4  10  21  37  56  79 111 152 192 233 287 348
#
# _framework density 23.724751999999999
#
# number of rings (size 3 to 8) (size 9 to 14) (size 15 to 20)
#    0.000    2.200    0.000    3.600    2.800    3.600 
#    0.000    4.000    0.000    0.000    0.000    0.000 
#    0.000    0.000    0.000    0.000    0.000    0.000 
#
# Total GULP energy -223164.852838 kJ/mol
# GULP energy per Si atom -5579.121321 kJ/mol
# Density = 2.367075 g / cm^3
# Si number density = 23.724752 Si / 1000 Ang^3
#
#
#
# Elastic Constant Matrix: (Units=GPa)
#
#
# Indices 1 2 3 4 5 6 
#
# 1 65.2298 41.2278 2.8743 0.0000 0.0000 5.7823
# 2 41.2278 65.2298 2.8743 0.0000 0.0000 -5.7823
# 3 2.8743 2.8743 28.9812 0.0000 0.0000 0.0000
# 4 0.0000 0.0000 0.0000 45.5042 0.0000 0.0000
# 5 0.0000 0.0000 0.0000 0.0000 45.5042 0.0000
# 6 5.7823 -5.7823 0.0000 0.0000 0.0000 44.0173
#
#
#
# Elastic Compliance Matrix: (Units=1/GPa)
#
#
# Indices 1 2 3 4 5 6 
#
# 1 0.026961 -0.017517 -0.000937 0.000000 0.000000 -0.005843
# 2 -0.017517 0.026961 -0.000937 0.000000 0.000000 0.005843
# 3 -0.000937 -0.000937 0.034691 0.000000 0.000000 0.000000
# 4 0.000000 0.000000 0.000000 0.021976 0.000000 0.000000
# 5 0.000000 0.000000 0.000000 0.000000 0.021976 0.000000
# 6 -0.005843 0.005843 0.000000 0.000000 0.000000 0.024253
#
#
# Mechanical properties :
#
#
# Convention : Reuss Voigt Hill
#
# Bulk Modulus (GPa) = 20.06729 28.15486 24.11108
# Shear Modulus (GPa) = 23.56148 34.50273 29.03211
#
# Velocity S-wave (km/s) = 3.15480 3.81766 3.50194
# Velocity P-wave (km/s) = 4.66337 5.59694 5.15135
#
# Compressibility (1/GPa) = 0.04983235
#
# Stress axis : x y z
#
# Youngs Moduli (GPa) = 37.09030 37.09030 28.82595
#
# Poissons Ratio (x) = 0.64972 0.02700
# Poissons Ratio (y) = 0.64972 0.02700
# Poissons Ratio (z) = 0.03474 0.03474
#
# Static dielectric constant tensor:
#      x y z
#    x 1.948910 0.000000 0.000000 
#    y 0.000000 1.948910 0.000000 
#    z 0.000000 0.000000 1.871990 
# 
# From -- ./inp_files/798.got.cif
#   From: 2010.05.17/outbox.cif.g08.bks.cpg/sg84_1_cif.got.tgz:798.got - 2010.06.03 18:57:40.
