data_PCOD9544029
_publ_section_title
;
Structure prediction by ZEFSAII (Michael W. Deem and Ramdas Pophale) SiO2 
 PCOD9544029
Probable space group: P 42/M
;
_chemical_formula_sum "Si O2"
_cell_formula_units_Z 48
_cell_length_a 14.451015
_cell_length_b 14.451015
_cell_length_c 13.752133
_cell_angle_alpha 90.000000
_cell_angle_beta 90.000000
_cell_angle_gamma 90.000000
_cell_volume 2871.883163
_symmetry_space_group_name_H-M "P 42/M"
_symmetry_group_IT_number 84
_symmetry_cell_setting 'tetragonal'
loop_
_space_group_symop_operation_xyz
x,y,z
-y,x,1/2+z
-x,-y,z
y,-x,1/2+z
-x,-y,-z
y,-x,1/2-z
x,y,-z
-y,x,1/2-z
loop_
_atom_site_type_symbol
_atom_site_label
_atom_site_fract_x
_atom_site_fract_y
_atom_site_fract_z
Si Si1 0.208854 0.991448 0.113550
Si Si2 0.069167 0.289586 0.894010
Si Si3 0.421285 0.919929 0.893326
Si Si4 0.164357 0.158249 0.259739
Si Si5 0.326599 0.152004 0.388277
Si Si6 0.110380 0.477719 0.812254
O O1 0.317893 0.962012 0.120154
O O2 0.144342 0.906823 0.150647
O O3 0.189814 0.073652 0.189293
O O4 0.191458 0.013252 0.000000
O O5 0.110600 0.228605 0.809285
O O6 0.114891 0.390243 0.882592
O O7 0.958368 0.302021 0.885053
O O8 0.088870 0.249686 0.000000
O O9 0.447575 0.863003 0.797090
O O10 0.500000 0.000000 0.897526
O O11 0.422114 0.873702 0.000000
O O12 0.256153 0.196248 0.311828
O O13 0.315274 0.182217 0.500000
O O14 0.431727 0.159542 0.352573
O O15 0.000000 0.500000 0.808132
#
# Coordination Sequence:
#
# PCOD9544029 Si02
#       6
#     8   8   8   8   8   8
#     4  11  23  36  50  68  96 134 172 208 246 284
#     4  10  19  32  50  70  93 125 164 206 252 295
#     4   9  16  29  50  73  93 120 155 198 258 310
#     4  12  20  37  47  69  95 133 171 209 240 280
#     4  10  20  33  51  71  96 128 165 205 251 295
#     4   9  15  30  50  74  94 116 152 205 254 304
#
# _framework density 16.713771999999999
#
# number of rings (size 3 to 8) (size 9 to 14) (size 15 to 20)
#    0.000    1.833    3.333    3.500    0.000    2.333 
#    0.000    1.667    0.000    0.000    0.000    0.000 
#    0.000    0.667    0.000    3.167    1.000    0.000 
#
# Total GULP energy -267338.992130 kJ/mol
# GULP energy per Si atom -5569.562336 kJ/mol
# Density = 1.667573 g / cm^3
# Si number density = 16.713772 Si / 1000 Ang^3
#
#
#
# Elastic Constant Matrix: (Units=GPa)
#
#
# Indices 1 2 3 4 5 6 
#
# 1 28.2021 5.4415 21.0779 0.0000 0.0000 -3.4589
# 2 5.4415 28.2021 21.0779 0.0000 0.0000 3.4589
# 3 21.0779 21.0779 126.1630 0.0000 0.0000 0.0000
# 4 0.0000 0.0000 0.0000 20.6091 0.0000 0.0000
# 5 0.0000 0.0000 0.0000 0.0000 20.6091 0.0000
# 6 -3.4589 3.4589 0.0000 0.0000 0.0000 -0.5113
#
#
#
# Elastic Compliance Matrix: (Units=1/GPa)
#
#
# Indices 1 2 3 4 5 6 
#
# 1 0.025984 0.011609 -0.006281 0.000000 0.000000 -0.097257
# 2 0.011609 0.025984 -0.006281 0.000000 0.000000 0.097257
# 3 -0.006281 -0.006281 0.010025 0.000000 0.000000 0.000000
# 4 0.000000 0.000000 0.000000 0.048522 0.000000 0.000000
# 5 0.000000 0.000000 0.000000 0.000000 0.048522 0.000000
# 6 -0.097257 0.097257 0.000000 0.000000 0.000000 -0.639977
#
#
# Mechanical properties :
#
#
# Convention : Reuss Voigt Hill
#
# Bulk Modulus (GPa) = 16.64213 30.86241 23.75227
# Shear Modulus (GPa) = -10.89314 17.13937 3.12312
#
# Velocity S-wave (km/s) = -2.55570 3.20576 1.36845
# Velocity P-wave (km/s) = 1.12692 5.67520 4.09132
#
# Compressibility (1/GPa) = 0.06008846
#
# Stress axis : x y z
#
# Youngs Moduli (GPa) = 38.48494 38.48494 99.75211
#
# Poissons Ratio (x) = -0.44677 0.62651
# Poissons Ratio (y) = -0.44677 0.62651
# Poissons Ratio (z) = 0.24171 0.24171
#
# Static dielectric constant tensor:
#      x y z
#    x 1.575860 0.000000 0.000000 
#    y 0.000000 1.575860 0.000000 
#    z 0.000000 0.000000 1.620050 
# 
# From -- ./inp_files/3063.got.cif
#   From: 2010.05.17/outbox.cif.g08.bks.cpg/sg84_2_cif.got.tgz:3063.got - 2010.06.03 18:57:40.
