data_PCOD9544498
_publ_section_title
;
Structure prediction by ZEFSAII (Michael W. Deem and Ramdas Pophale) SiO2 
 PCOD9544498
Probable space group: P 4/N
;
_chemical_formula_sum "Si O2"
_cell_formula_units_Z 58
_cell_length_a 16.044444
_cell_length_b 16.044444
_cell_length_c 8.413463
_cell_angle_alpha 90.000000
_cell_angle_beta 90.000000
_cell_angle_gamma 90.000000
_cell_volume 2165.828841
_symmetry_space_group_name_H-M "P 4/N"
_symmetry_group_IT_number 85
_symmetry_cell_setting 'tetragonal'
loop_
_space_group_symop_operation_xyz
x,y,z
1/2-y,x,z
1/2-x,1/2-y,z
y,1/2-x,z
-x,-y,-z
1/2+y,-x,-z
1/2+x,1/2+y,-z
-y,1/2+x,-z
loop_
_atom_site_type_symbol
_atom_site_label
_atom_site_fract_x
_atom_site_fract_y
_atom_site_fract_z
Si Si1 0.151469 0.478410 0.225049
Si Si2 0.909137 0.395837 0.016856
Si Si3 0.936236 0.230562 0.486453
Si Si4 0.915425 0.637509 0.491303
Si Si5 0.095308 0.503562 0.722877
Si Si6 0.707711 0.882967 0.066205
Si Si7 0.250000 0.250000 0.562547
Si Si8 0.849585 0.257747 0.793933
O O1 0.095454 0.525791 0.098333
O O2 0.203400 0.556521 0.302794
O O3 0.111082 0.419564 0.358201
O O4 0.206076 0.417599 0.113582
O O5 0.909221 0.320102 0.894700
O O6 0.957474 0.432079 0.170322
O O7 0.827195 0.376058 0.119964
O O8 0.867814 0.269132 0.605240
O O9 0.014596 0.293063 0.489087
O O10 0.951444 0.144325 0.581337
O O11 0.951015 0.572711 0.360783
O O12 0.830324 0.684765 0.443354
O O13 0.168071 0.453941 0.822277
O O14 0.649392 0.801519 0.091084
O O15 0.750000 0.250000 0.811462
#
# Coordination Sequence:
#
# PCOD9544498 Si02
#       8
#     8   8   8   8   8   8   2   8
#     4  10  21  36  51  88 131 166 201 254 331 391
#     4  10  20  40  64  91 119 153 205 286 347 397
#     4  10  21  37  59  88 132 168 207 268 332 385
#     4  11  20  35  57  90 134 183 223 253 303 392
#     4   9  19  32  53  84 127 166 214 263 318 381
#     4  10  19  26  47  81 121 164 218 258 290 350
#     4  12  20  28  64  86 136 192 240 234 284 384
#     4  11  21  44  72  95 111 152 220 291 354 415
#
# _framework density 26.779586999999999
#
# number of rings (size 3 to 8) (size 9 to 14) (size 15 to 20)
#    0.000    1.793    4.138    1.655    0.000    0.000 
#    2.483    2.069    0.000    0.000    0.000    0.000 
#    0.000    0.000    0.000    0.000    0.000    0.000 
#
# Total GULP energy -323014.595943 kJ/mol
# GULP energy per Si atom -5569.217171 kJ/mol
# Density = 2.671864 g / cm^3
# Si number density = 26.779587 Si / 1000 Ang^3
#
#
#
# Elastic Constant Matrix: (Units=GPa)
#
#
# Indices 1 2 3 4 5 6 
#
# 1 76.4971 19.7631 15.8050 0.0000 0.0000 1.0068
# 2 19.7631 76.4971 15.8050 0.0000 0.0000 -1.0068
# 3 15.8050 15.8050 87.8320 0.0000 0.0000 0.0000
# 4 0.0000 0.0000 0.0000 23.1177 0.0000 0.0000
# 5 0.0000 0.0000 0.0000 0.0000 23.1177 0.0000
# 6 1.0068 -1.0068 0.0000 0.0000 0.0000 14.8718
#
#
#
# Elastic Compliance Matrix: (Units=1/GPa)
#
#
# Indices 1 2 3 4 5 6 
#
# 1 0.014355 -0.003314 -0.001987 0.000000 0.000000 -0.001196
# 2 -0.003314 0.014355 -0.001987 0.000000 0.000000 0.001196
# 3 -0.001987 -0.001987 0.012100 0.000000 0.000000 0.000000
# 4 0.000000 0.000000 0.000000 0.043257 0.000000 0.000000
# 5 0.000000 0.000000 0.000000 0.000000 0.043257 0.000000
# 6 -0.001196 0.001196 0.000000 0.000000 0.000000 0.067404
#
#
# Mechanical properties :
#
#
# Convention : Reuss Voigt Hill
#
# Bulk Modulus (GPa) = 38.11676 38.17470 38.14573
# Shear Modulus (GPa) = 22.93083 24.85163 23.89123
#
# Velocity S-wave (km/s) = 2.92940 3.04962 2.99012
# Velocity P-wave (km/s) = 5.07013 5.16589 5.11823
#
# Compressibility (1/GPa) = 0.02623518
#
# Stress axis : x y z
#
# Youngs Moduli (GPa) = 69.66340 69.66340 82.64191
#
# Poissons Ratio (x) = 0.23085 0.16419
# Poissons Ratio (y) = 0.23085 0.16419
# Poissons Ratio (z) = 0.13841 0.13841
#
# Static dielectric constant tensor:
#      x y z
#    x 2.191420 0.000000 0.000000 
#    y 0.000000 2.191420 0.000000 
#    z 0.000000 0.000000 2.171620 
# 
# From -- ./inp_files/1187.got.cif
#   From: 2010.05.17/outbox.cif.g08.bks.cpg/sg85_cif.got.tgz:1187.got - 2010.06.03 19:01:16.
