data_PCOD9544287
_publ_section_title
;
Structure prediction by ZEFSAII (Michael W. Deem and Ramdas Pophale) SiO2 
 PCOD9544287
Probable space group: P 42/M
;
_chemical_formula_sum "Si O2"
_cell_formula_units_Z 56
_cell_length_a 10.543696
_cell_length_b 10.543696
_cell_length_c 22.608505
_cell_angle_alpha 90.000000
_cell_angle_beta 90.000000
_cell_angle_gamma 90.000000
_cell_volume 2513.376770
_symmetry_space_group_name_H-M "P 42/M"
_symmetry_group_IT_number 84
_symmetry_cell_setting 'tetragonal'
loop_
_space_group_symop_operation_xyz
x,y,z
-y,x,1/2+z
-x,-y,z
y,-x,1/2+z
-x,-y,-z
y,-x,1/2-z
x,y,-z
-y,x,1/2-z
loop_
_atom_site_type_symbol
_atom_site_label
_atom_site_fract_x
_atom_site_fract_y
_atom_site_fract_z
Si Si1 0.401004 0.892954 0.068176
Si Si2 0.563084 0.632452 0.931600
Si Si3 0.897906 0.182851 0.744078
Si Si4 0.240883 0.749490 0.856114
Si Si5 0.694530 0.573702 0.256042
Si Si6 0.298121 0.800243 0.649311
Si Si7 0.647300 0.965800 0.432541
O O1 0.469593 0.754424 0.068047
O O2 0.276488 0.877353 0.108412
O O3 0.500000 0.000000 0.088838
O O4 0.368329 0.923328 0.000000
O O5 0.500000 0.500000 0.910553
O O6 0.685792 0.664144 0.893286
O O7 0.601129 0.611060 0.000000
O O8 0.857976 0.258624 0.801974
O O9 0.833742 0.225654 0.683531
O O10 0.046196 0.164601 0.742190
O O11 0.369416 0.726390 0.819533
O O12 0.175354 0.663264 0.905756
O O13 0.652756 0.430127 0.262477
O O14 0.796961 0.601496 0.204657
O O15 0.292131 0.928187 0.610741
O O16 0.696598 0.971100 0.500000
O O17 0.500000 0.000000 0.433803
#
# Coordination Sequence:
#
# PCOD9544287 Si02
#       7
#     8   8   8   8   8   8   8
#     4  10  23  42  64  93 128 167 214 271 329 399
#     4  10  23  40  65  96 129 172 218 268 331 398
#     4  10  22  42  64  89 122 168 217 274 334 390
#     4  11  22  41  64  92 126 173 215 272 333 411
#     4  10  22  37  59  92 125 165 210 267 331 391
#     4  11  22  39  64  89 127 168 215 274 320 405
#     4  11  24  40  63  94 131 171 217 275 335 404
#
# _framework density 22.280781999999999
#
# number of rings (size 3 to 8) (size 9 to 14) (size 15 to 20)
#    0.000    1.571    1.429    2.571    8.000    0.000 
#    0.000    1.429    0.000    0.857    0.000    0.000 
#    0.000    0.000    0.000    0.000    0.000    0.000 
#
# Total GULP energy -312567.188376 kJ/mol
# GULP energy per Si atom -5581.556935 kJ/mol
# Density = 2.223007 g / cm^3
# Si number density = 22.280782 Si / 1000 Ang^3
#
#
#
# Elastic Constant Matrix: (Units=GPa)
#
#
# Indices 1 2 3 4 5 6 
#
# 1 35.7396 9.7084 29.0221 0.0000 0.0000 -3.0400
# 2 9.7084 35.7396 29.0221 0.0000 0.0000 3.0400
# 3 29.0221 29.0221 147.1276 0.0000 0.0000 0.0000
# 4 0.0000 0.0000 0.0000 16.7441 0.0000 0.0000
# 5 0.0000 0.0000 0.0000 0.0000 16.7441 0.0000
# 6 -3.0400 3.0400 0.0000 0.0000 0.0000 31.8389
#
#
#
# Elastic Compliance Matrix: (Units=1/GPa)
#
#
# Indices 1 2 3 4 5 6 
#
# 1 0.034352 -0.004939 -0.005802 0.000000 0.000000 0.003752
# 2 -0.004939 0.034352 -0.005802 0.000000 0.000000 -0.003752
# 3 -0.005802 -0.005802 0.009086 0.000000 0.000000 0.000000
# 4 0.000000 0.000000 0.000000 0.059722 0.000000 0.000000
# 5 0.000000 0.000000 0.000000 0.000000 0.059722 0.000000
# 6 0.003752 -0.003752 0.000000 0.000000 0.000000 0.032125
#
#
# Mechanical properties :
#
#
# Convention : Reuss Voigt Hill
#
# Bulk Modulus (GPa) = 22.36921 39.34577 30.85749
# Shear Modulus (GPa) = 18.02789 23.12237 20.57513
#
# Velocity S-wave (km/s) = 2.84759 3.22494 3.04212
# Velocity P-wave (km/s) = 4.56872 5.61822 5.12043
#
# Compressibility (1/GPa) = 0.04470430
#
# Stress axis : x y z
#
# Youngs Moduli (GPa) = 29.10999 29.10999 110.06188
#
# Poissons Ratio (x) = 0.14378 0.63858
# Poissons Ratio (y) = 0.14378 0.63858
# Poissons Ratio (z) = 0.16890 0.16890
#
# Static dielectric constant tensor:
#      x y z
#    x 1.852540 0.000000 0.000000 
#    y 0.000000 1.852540 0.000000 
#    z 0.000000 0.000000 1.863060 
# 
# From -- ./inp_files/4502.got.cif
#   From: 2010.05.17/outbox.cif.g08.bks.cpg/sg84_3_cif.got.tgz:4502.got - 2010.06.03 18:57:40.
