data_PCOD9544230
_publ_section_title
;
Structure prediction by ZEFSAII (Michael W. Deem and Ramdas Pophale) SiO2 
 PCOD9544230
Probable space group: P 42/M
;
_chemical_formula_sum "Si O2"
_cell_formula_units_Z 40
_cell_length_a 15.257161
_cell_length_b 15.257161
_cell_length_c 8.572123
_cell_angle_alpha 90.000000
_cell_angle_beta 90.000000
_cell_angle_gamma 90.000000
_cell_volume 1995.427036
_symmetry_space_group_name_H-M "P 42/M"
_symmetry_group_IT_number 84
_symmetry_cell_setting 'tetragonal'
loop_
_space_group_symop_operation_xyz
x,y,z
-y,x,1/2+z
-x,-y,z
y,-x,1/2+z
-x,-y,-z
y,-x,1/2-z
x,y,-z
-y,x,1/2-z
loop_
_atom_site_type_symbol
_atom_site_label
_atom_site_fract_x
_atom_site_fract_y
_atom_site_fract_z
Si Si1 0.747149 0.417816 0.186728
Si Si2 0.414678 0.055702 0.814041
Si Si3 0.105041 0.920670 0.317956
Si Si4 0.906671 0.699442 0.812631
Si Si5 0.273654 0.386270 0.188196
O O1 0.847468 0.409498 0.243381
O O2 0.711677 0.513518 0.237705
O O3 0.683587 0.342412 0.248425
O O4 0.747743 0.415713 0.000000
O O5 0.500000 0.000000 0.758777
O O6 0.332578 0.995288 0.767596
O O7 0.419981 0.064080 0.000000
O O8 0.085344 0.903959 0.500000
O O9 0.199839 0.883493 0.277850
O O10 0.025203 0.889155 0.211948
O O11 0.824897 0.640087 0.763533
O O12 0.918104 0.692842 0.000000
O O13 0.276153 0.382348 0.000000
#
# Coordination Sequence:
#
# PCOD9544230 Si02
#       5
#     8   8   8   8   8
#     4  11  24  42  67  94 125 167 207 255 315 376
#     4  11  23  39  63  93 124 158 199 251 303 361
#     4  10  21  37  57  82 116 159 201 246 296 357
#     4  10  22  40  61  87 122 162 203 252 308 367
#     4  10  23  43  64  90 127 164 208 262 313 371
#
# _framework density 20.045835
#
# number of rings (size 3 to 8) (size 9 to 14) (size 15 to 20)
#    0.000    1.600    2.000    2.400    2.800    5.200 
#    0.000    2.000    0.000    0.000    0.000    0.000 
#    0.000    0.000    0.000    0.000    0.000    0.000 
#
# Total GULP energy -223523.558085 kJ/mol
# GULP energy per Si atom -5588.088952 kJ/mol
# Density = 2.000021 g / cm^3
# Si number density = 20.045835 Si / 1000 Ang^3
#
#
#
# Elastic Constant Matrix: (Units=GPa)
#
#
# Indices 1 2 3 4 5 6 
#
# 1 92.8178 42.9388 16.4350 0.0000 0.0000 -12.1147
# 2 42.9388 92.8178 16.4350 0.0000 0.0000 12.1147
# 3 16.4350 16.4350 19.2061 0.0000 0.0000 0.0000
# 4 0.0000 0.0000 0.0000 25.0996 0.0000 0.0000
# 5 0.0000 0.0000 0.0000 0.0000 25.0996 0.0000
# 6 -12.1147 12.1147 0.0000 0.0000 0.0000 33.1183
#
#
#
# Elastic Compliance Matrix: (Units=1/GPa)
#
#
# Indices 1 2 3 4 5 6 
#
# 1 0.016836 -0.007545 -0.007951 0.000000 0.000000 0.008919
# 2 -0.007545 0.016836 -0.007951 0.000000 0.000000 -0.008919
# 3 -0.007951 -0.007951 0.065674 0.000000 0.000000 0.000000
# 4 0.000000 0.000000 0.000000 0.039841 0.000000 0.000000
# 5 0.000000 0.000000 0.000000 0.000000 0.039841 0.000000
# 6 0.008919 -0.008919 0.000000 0.000000 0.000000 0.036720
#
#
# Mechanical properties :
#
#
# Convention : Reuss Voigt Hill
#
# Bulk Modulus (GPa) = 19.06443 39.60657 29.33550
# Shear Modulus (GPa) = 17.84922 25.26573 21.55747
#
# Velocity S-wave (km/s) = 2.98723 3.55406 3.28290
# Velocity P-wave (km/s) = 4.62916 6.05332 5.38850
#
# Compressibility (1/GPa) = 0.05245371
#
# Stress axis : x y z
#
# Youngs Moduli (GPa) = 59.39666 59.39666 15.22678
#
# Poissons Ratio (x) = 0.44814 0.12106
# Poissons Ratio (y) = 0.44814 0.12106
# Poissons Ratio (z) = 0.47224 0.47224
#
# Static dielectric constant tensor:
#      x y z
#    x 1.705090 0.000000 0.000000 
#    y 0.000000 1.705090 0.000000 
#    z 0.000000 0.000000 1.675970 
# 
# From -- ./inp_files/776.got.cif
#   From: 2010.05.17/outbox.cif.g08.bks.cpg/sg84_1_cif.got.tgz:776.got - 2010.06.03 18:57:40.
