data_PCOD9544431
_publ_section_title
;
Structure prediction by ZEFSAII (Michael W. Deem and Ramdas Pophale) SiO2 
 PCOD9544431
Probable space group: P 42/M
;
_chemical_formula_sum "Si O2"
_cell_formula_units_Z 40
_cell_length_a 9.050122
_cell_length_b 9.050122
_cell_length_c 22.323835
_cell_angle_alpha 90.000000
_cell_angle_beta 90.000000
_cell_angle_gamma 90.000000
_cell_volume 1828.427192
_symmetry_space_group_name_H-M "P 42/M"
_symmetry_group_IT_number 84
_symmetry_cell_setting 'tetragonal'
loop_
_space_group_symop_operation_xyz
x,y,z
-y,x,1/2+z
-x,-y,z
y,-x,1/2+z
-x,-y,-z
y,-x,1/2-z
x,y,-z
-y,x,1/2-z
loop_
_atom_site_type_symbol
_atom_site_label
_atom_site_fract_x
_atom_site_fract_y
_atom_site_fract_z
Si Si1 0.589306 0.347667 0.566189
Si Si2 0.872239 0.209244 0.738554
Si Si3 0.885208 0.125244 0.068897
Si Si4 0.914236 0.354823 0.612680
Si Si5 0.594235 0.855121 0.345560
O O1 0.500000 0.500000 0.565347
O O2 0.572108 0.276421 0.500000
O O3 0.762445 0.377882 0.577071
O O4 0.484724 0.747481 0.618712
O O5 0.867083 0.263195 0.670958
O O6 0.801022 0.325580 0.784903
O O7 0.046444 0.195136 0.754560
O O8 0.889111 0.268960 0.109790
O O9 0.732014 0.037676 0.074771
O O10 0.917409 0.162852 0.000000
O O11 0.000000 0.000000 0.089735
O O12 0.000000 0.500000 0.633445
O O13 0.500000 0.000000 0.331367
#
# Coordination Sequence:
#
# PCOD9544431 Si02
#       5
#     8   8   8   8   8
#     4  11  26  47  68  99 145 187 227 287 358 426
#     4  11  23  43  72 100 136 176 231 292 349 418
#     4  11  23  41  67  99 134 179 235 289 345 420
#     4  12  25  43  70 103 135 186 240 289 350 422
#     4  12  24  42  68 101 137 182 227 290 357 419
#
# _framework density 21.876725
#
# number of rings (size 3 to 8) (size 9 to 14) (size 15 to 20)
#    0.000    0.600    2.000    6.600    0.000    6.400 
#    0.000    0.000    0.000    0.000    0.000    0.000 
#    0.000    0.000    0.000    0.000    0.000    0.000 
#
# Total GULP energy -223835.173131 kJ/mol
# GULP energy per Si atom -5595.879328 kJ/mol
# Density = 2.182693 g / cm^3
# Si number density = 21.876725 Si / 1000 Ang^3
#
#
#
# Elastic Constant Matrix: (Units=GPa)
#
#
# Indices 1 2 3 4 5 6 
#
# 1 78.6261 -3.4764 10.5331 0.0000 0.0000 -8.5457
# 2 -3.4764 78.6261 10.5331 0.0000 0.0000 8.5457
# 3 10.5331 10.5331 80.4554 0.0000 0.0000 0.0000
# 4 0.0000 0.0000 0.0000 54.6032 0.0000 0.0000
# 5 0.0000 0.0000 0.0000 0.0000 54.6032 0.0000
# 6 -8.5457 8.5457 0.0000 0.0000 0.0000 36.5064
#
#
#
# Elastic Compliance Matrix: (Units=1/GPa)
#
#
# Indices 1 2 3 4 5 6 
#
# 1 0.013309 0.000505 -0.001808 0.000000 0.000000 0.002997
# 2 0.000505 0.013309 -0.001808 0.000000 0.000000 -0.002997
# 3 -0.001808 -0.001808 0.012903 0.000000 0.000000 0.000000
# 4 0.000000 0.000000 0.000000 0.018314 0.000000 0.000000
# 5 0.000000 0.000000 0.000000 0.000000 0.018314 0.000000
# 6 0.002997 -0.002997 0.000000 0.000000 0.000000 0.028796
#
#
# Mechanical properties :
#
#
# Convention : Reuss Voigt Hill
#
# Bulk Modulus (GPa) = 30.03335 30.32082 30.17708
# Shear Modulus (GPa) = 40.89422 43.81708 42.35565
#
# Velocity S-wave (km/s) = 4.32823 4.48024 4.40489
# Velocity P-wave (km/s) = 6.22386 6.37600 6.30039
#
# Compressibility (1/GPa) = 0.03329632
#
# Stress axis : x y z
#
# Youngs Moduli (GPa) = 75.13832 75.13832 77.50276
#
# Poissons Ratio (x) = -0.03794 0.14016
# Poissons Ratio (y) = -0.03794 0.14016
# Poissons Ratio (z) = 0.13589 0.13589
#
# Static dielectric constant tensor:
#      x y z
#    x -17.574200 0.000000 0.000000 
#    y 0.000000 -17.574200 0.000000 
#    z 0.000000 0.000000 1.783290 
# 
# From -- ./inp_files/4856.got.cif
#   From: 2010.05.17/outbox.cif.g08.bks.cpg/sg84_3_cif.got.tgz:4856.got - 2010.06.03 18:57:40.
