data_PCOD9544500
_publ_section_title
;
Structure prediction by ZEFSAII (Michael W. Deem and Ramdas Pophale) SiO2 
 PCOD9544500
Probable space group: P 4/N
;
_chemical_formula_sum "Si O2"
_cell_formula_units_Z 64
_cell_length_a 11.852668
_cell_length_b 11.852668
_cell_length_c 28.056578
_cell_angle_alpha 90.000000
_cell_angle_beta 90.000000
_cell_angle_gamma 90.000000
_cell_volume 3941.549086
_symmetry_space_group_name_H-M "P 4/N"
_symmetry_group_IT_number 85
_symmetry_cell_setting 'tetragonal'
loop_
_space_group_symop_operation_xyz
x,y,z
1/2-y,x,z
1/2-x,1/2-y,z
y,1/2-x,z
-x,-y,-z
1/2+y,-x,-z
1/2+x,1/2+y,-z
-y,1/2+x,-z
loop_
_atom_site_type_symbol
_atom_site_label
_atom_site_fract_x
_atom_site_fract_y
_atom_site_fract_z
Si Si1 0.933163 0.711700 0.299617
Si Si2 0.434874 0.209481 0.812986
Si Si3 0.269792 0.927918 0.985180
Si Si4 0.634889 0.175852 0.886069
Si Si5 0.800222 0.569328 0.927470
Si Si6 0.124672 0.745262 0.372886
Si Si7 0.557164 0.107569 0.440963
Si Si8 0.856366 0.437636 0.544804
O O1 0.878105 0.834357 0.308556
O O2 0.960551 0.705028 0.243539
O O3 0.036732 0.699124 0.335052
O O4 0.380109 0.333397 0.822769
O O5 0.547503 0.184671 0.842654
O O6 0.304773 0.035074 0.016262
O O7 0.369614 0.835605 0.987272
O O8 0.227909 0.933412 0.931316
O O9 0.750000 0.250000 0.880189
O O10 0.668531 0.046546 0.899724
O O11 0.884640 0.673589 0.917551
O O12 0.250000 0.750000 0.351640
O O13 0.092640 0.866750 0.394354
O O14 0.133533 0.667899 0.419894
O O15 0.630627 0.092082 0.489216
O O16 0.511747 0.234331 0.444662
O O17 0.456963 0.020406 0.442819
#
# Coordination Sequence:
#
# PCOD9544500 Si02
#       8
#     8   8   8   8   8   8   8   8
#     4   9  18  36  56  77 107 132 163 221 270 307
#     4   9  21  38  57  81 108 138 175 224 278 321
#     4   9  16  33  49  73 103 136 179 213 255 300
#     4  11  21  34  57  81 109 143 184 220 267 323
#     4  10  22  36  52  78 112 146 181 220 270 320
#     4  10  19  30  53  75  99 134 172 203 253 305
#     4  10  19  31  46  67  99 134 167 208 243 299
#     4  10  19  31  46  67  99 133 169 205 247 291
#
# _framework density 16.237272000000001
#
# number of rings (size 3 to 8) (size 9 to 14) (size 15 to 20)
#    0.000    2.250    3.750    1.500    1.750    3.750 
#    0.000    1.250    0.000    0.000    0.000    0.000 
#    0.000    0.000    0.000    0.000    0.000    0.000 
#
# Total GULP energy -356562.559745 kJ/mol
# GULP energy per Si atom -5571.289996 kJ/mol
# Density = 1.620032 g / cm^3
# Si number density = 16.237272 Si / 1000 Ang^3
#
#
#
# Elastic Constant Matrix: (Units=GPa)
#
#
# Indices 1 2 3 4 5 6 
#
# 1 68.2107 18.5648 25.1569 0.0000 0.0000 -0.7445
# 2 18.5648 68.2107 25.1569 0.0000 0.0000 0.7445
# 3 25.1569 25.1569 46.0868 0.0000 0.0000 0.0000
# 4 0.0000 0.0000 0.0000 13.1471 0.0000 0.0000
# 5 0.0000 0.0000 0.0000 0.0000 13.1471 0.0000
# 6 -0.7445 0.7445 0.0000 0.0000 0.0000 10.8533
#
#
#
# Elastic Compliance Matrix: (Units=1/GPa)
#
#
# Indices 1 2 3 4 5 6 
#
# 1 0.018522 -0.001662 -0.009203 0.000000 0.000000 0.001385
# 2 -0.001662 0.018522 -0.009203 0.000000 0.000000 -0.001385
# 3 -0.009203 -0.009203 0.031746 0.000000 0.000000 0.000000
# 4 0.000000 0.000000 0.000000 0.076062 0.000000 0.000000
# 5 0.000000 0.000000 0.000000 0.000000 0.076062 0.000000
# 6 0.001385 -0.001385 0.000000 0.000000 0.000000 0.092328
#
#
# Mechanical properties :
#
#
# Convention : Reuss Voigt Hill
#
# Bulk Modulus (GPa) = 34.90060 35.58506 35.24283
# Shear Modulus (GPa) = 13.77672 15.00480 14.39076
#
# Velocity S-wave (km/s) = 2.91600 3.04319 2.98027
# Velocity P-wave (km/s) = 5.73395 5.85758 5.79610
#
# Compressibility (1/GPa) = 0.02865280
#
# Stress axis : x y z
#
# Youngs Moduli (GPa) = 53.98923 53.98923 31.50040
#
# Poissons Ratio (x) = 0.08973 0.28991
# Poissons Ratio (y) = 0.08973 0.28991
# Poissons Ratio (z) = 0.49688 0.49688
#
# Static dielectric constant tensor:
#      x y z
#    x 1.546280 0.000000 0.000000 
#    y 0.000000 1.546280 0.000000 
#    z 0.000000 0.000000 1.537860 
# 
# From -- ./inp_files/2394.got.cif
#   From: 2010.05.17/outbox.cif.g08.bks.cpg/sg85_cif.got.tgz:2394.got - 2010.06.03 19:01:16.
