data_PCOD9544495
_publ_section_title
;
Structure prediction by ZEFSAII (Michael W. Deem and Ramdas Pophale) SiO2 
 PCOD9544495
Probable space group: P 4/N
;
_chemical_formula_sum "Si O2"
_cell_formula_units_Z 48
_cell_length_a 15.255986
_cell_length_b 15.255986
_cell_length_c 10.617858
_cell_angle_alpha 90.000000
_cell_angle_beta 90.000000
_cell_angle_gamma 90.000000
_cell_volume 2471.254516
_symmetry_space_group_name_H-M "P 4/N"
_symmetry_group_IT_number 85
_symmetry_cell_setting 'tetragonal'
loop_
_space_group_symop_operation_xyz
x,y,z
1/2-y,x,z
1/2-x,1/2-y,z
y,1/2-x,z
-x,-y,-z
1/2+y,-x,-z
1/2+x,1/2+y,-z
-y,1/2+x,-z
loop_
_atom_site_type_symbol
_atom_site_label
_atom_site_fract_x
_atom_site_fract_y
_atom_site_fract_z
Si Si1 0.626917 0.827774 0.473698
Si Si2 0.327292 0.682656 0.689067
Si Si3 0.503705 0.250320 0.155911
Si Si4 0.252947 0.882337 0.942952
Si Si5 0.431113 0.526226 0.609702
Si Si6 0.091976 0.088645 0.253671
O O1 0.633083 0.723823 0.460072
O O2 0.556799 0.868652 0.378971
O O3 0.595876 0.856206 0.613580
O O4 0.250000 0.750000 0.648539
O O5 0.411168 0.730889 0.754107
O O6 0.281486 0.626358 0.801825
O O7 0.370617 0.613246 0.591658
O O8 0.471544 0.151712 0.168363
O O9 0.427322 0.314907 0.202388
O O10 0.527263 0.270780 0.011463
O O11 0.336661 0.821472 0.969096
O O12 0.500000 0.500000 0.500000
O O13 0.495816 0.547862 0.724074
#
# Coordination Sequence:
#
# PCOD9544495 Si02
#       6
#     8   8   8   8   8   8
#     4  10  19  35  58  76 104 159 200 235 294 356
#     4  10  18  35  62  84 113 162 195 238 307 363
#     4  10  19  31  56  85 114 147 193 240 297 357
#     4   9  15  32  55  82 111 144 186 235 289 367
#     4   9  21  36  54  85 123 146 197 263 294 347
#     4  10  19  34  54  83 114 147 188 246 297 349
#
# _framework density 19.423331999999998
#
# number of rings (size 3 to 8) (size 9 to 14) (size 15 to 20)
#    0.000    2.333    5.000    0.000    0.000    1.667 
#    0.000    7.500    0.000    0.000    0.000    0.000 
#    0.000    0.000    0.000    0.000    0.000    0.000 
#
# Total GULP energy -267275.539174 kJ/mol
# GULP energy per Si atom -5568.240399 kJ/mol
# Density = 1.937912 g / cm^3
# Si number density = 19.423332 Si / 1000 Ang^3
#
#
#
# Elastic Constant Matrix: (Units=GPa)
#
#
# Indices 1 2 3 4 5 6 
#
# 1 76.6462 51.5991 15.7270 0.0000 0.0000 -11.5821
# 2 51.5991 76.6462 15.7270 0.0000 0.0000 11.5821
# 3 15.7270 15.7270 28.1620 0.0000 0.0000 0.0000
# 4 0.0000 0.0000 0.0000 18.2667 0.0000 0.0000
# 5 0.0000 0.0000 0.0000 0.0000 18.2667 0.0000
# 6 -11.5821 11.5821 0.0000 0.0000 0.0000 30.0790
#
#
#
# Elastic Compliance Matrix: (Units=1/GPa)
#
#
# Indices 1 2 3 4 5 6 
#
# 1 0.035520 -0.026485 -0.005046 0.000000 0.000000 0.023876
# 2 -0.026485 0.035520 -0.005046 0.000000 0.000000 -0.023876
# 3 -0.005046 -0.005046 0.041144 0.000000 0.000000 0.000000
# 4 0.000000 0.000000 0.000000 0.054744 0.000000 0.000000
# 5 0.000000 0.000000 0.000000 0.000000 0.054744 0.000000
# 6 0.023876 -0.023876 0.000000 0.000000 0.000000 0.051633
#
#
# Mechanical properties :
#
#
# Convention : Reuss Voigt Hill
#
# Bulk Modulus (GPa) = 25.62005 38.61787 32.11896
# Shear Modulus (GPa) = 13.90936 19.88257 16.89596
#
# Velocity S-wave (km/s) = 2.67894 3.20291 2.95257
# Velocity P-wave (km/s) = 4.77367 5.79686 5.30997
#
# Compressibility (1/GPa) = 0.03903192
#
# Stress axis : x y z
#
# Youngs Moduli (GPa) = 28.15291 28.15291 24.30474
#
# Poissons Ratio (x) = 0.74564 0.12263
# Poissons Ratio (y) = 0.74564 0.12263
# Poissons Ratio (z) = 0.14205 0.14205
#
# Static dielectric constant tensor:
#      x y z
#    x 1.715720 0.000000 0.000000 
#    y 0.000000 1.715720 0.000000 
#    z 0.000000 0.000000 1.719460 
# 
# From -- ./inp_files/1664.got.cif
#   From: 2010.05.17/outbox.cif.g08.bks.cpg/sg85_cif.got.tgz:1664.got - 2010.06.03 19:01:16.
