data_PCOD9544208
_publ_section_title
;
Structure prediction by ZEFSAII (Michael W. Deem and Ramdas Pophale) SiO2 
 PCOD9544208
Probable space group: P 42/M
;
_chemical_formula_sum "Si O2"
_cell_formula_units_Z 48
_cell_length_a 11.572896
_cell_length_b 11.572896
_cell_length_c 16.655353
_cell_angle_alpha 90.000000
_cell_angle_beta 90.000000
_cell_angle_gamma 90.000000
_cell_volume 2230.683436
_symmetry_space_group_name_H-M "P 42/M"
_symmetry_group_IT_number 84
_symmetry_cell_setting 'tetragonal'
loop_
_space_group_symop_operation_xyz
x,y,z
-y,x,1/2+z
-x,-y,z
y,-x,1/2+z
-x,-y,-z
y,-x,1/2-z
x,y,-z
-y,x,1/2-z
loop_
_atom_site_type_symbol
_atom_site_label
_atom_site_fract_x
_atom_site_fract_y
_atom_site_fract_z
Si Si1 0.065600 0.320393 0.591512
Si Si2 0.411540 0.343778 0.370453
Si Si3 0.361575 0.977644 0.730309
Si Si4 0.706724 0.657920 0.802950
Si Si5 0.466508 0.245026 0.913277
Si Si6 0.868709 0.263068 0.912041
O O1 0.015121 0.322160 0.500000
O O2 0.001042 0.325995 0.676825
O O3 0.146666 0.435538 0.595479
O O4 0.145657 0.205831 0.595505
O O5 0.544501 0.321483 0.354825
O O6 0.351348 0.354034 0.283449
O O7 0.363321 0.458709 0.411039
O O8 0.359519 0.231493 0.412112
O O9 0.334110 0.843187 0.710237
O O10 0.500000 0.000000 0.722138
O O11 0.293114 0.053260 0.664530
O O12 0.631855 0.755194 0.846885
O O13 0.411275 0.234893 0.000000
O O14 0.927747 0.263590 0.000000
#
# Coordination Sequence:
#
# PCOD9544208 Si02
#       6
#     8   8   8   8   8   8
#     4   9  20  42  66  89 120 160 210 264 312 366
#     4  11  19  35  56  82 122 167 206 249 300 357
#     4  12  23  37  61  90 126 165 208 255 315 373
#     4  12  21  33  55  86 123 163 210 254 299 358
#     4  10  21  34  55  84 118 165 213 253 302 361
#     4  10  22  39  59  85 122 164 204 248 308 374
#
# _framework density 21.518066999999999
#
# number of rings (size 3 to 8) (size 9 to 14) (size 15 to 20)
#    0.000    1.333    6.667    2.000    0.000    3.333 
#    0.000    0.000    0.000    1.500    0.000    2.333 
#    0.000    0.000    0.000    0.000    0.000    0.000 
#
# Total GULP energy -267970.400028 kJ/mol
# GULP energy per Si atom -5582.716667 kJ/mol
# Density = 2.146909 g / cm^3
# Si number density = 21.518067 Si / 1000 Ang^3
#
#
#
# Elastic Constant Matrix: (Units=GPa)
#
#
# Indices 1 2 3 4 5 6 
#
# 1 92.6813 22.6115 51.1880 0.0000 0.0000 -12.2434
# 2 22.6115 92.6813 51.1880 0.0000 0.0000 12.2434
# 3 51.1880 51.1880 188.9997 0.0000 0.0000 0.0000
# 4 0.0000 0.0000 0.0000 15.4028 0.0000 0.0000
# 5 0.0000 0.0000 0.0000 0.0000 15.4028 0.0000
# 6 -12.2434 12.2434 0.0000 0.0000 0.0000 1.2123
#
#
#
# Elastic Compliance Matrix: (Units=1/GPa)
#
#
# Indices 1 2 3 4 5 6 
#
# 1 0.002889 0.008531 -0.003093 0.000000 0.000000 -0.056983
# 2 0.008531 0.002889 -0.003093 0.000000 0.000000 0.056983
# 3 -0.003093 -0.003093 0.006966 0.000000 0.000000 0.000000
# 4 0.000000 0.000000 0.000000 0.064923 0.000000 0.000000
# 5 0.000000 0.000000 0.000000 0.000000 0.064923 0.000000
# 6 -0.056983 0.056983 0.000000 0.000000 0.000000 -0.326118
#
#
# Mechanical properties :
#
#
# Convention : Reuss Voigt Hill
#
# Bulk Modulus (GPa) = 57.35728 69.37080 63.36404
# Shear Modulus (GPa) = -27.41138 23.02854 -2.19142
#
# Velocity S-wave (km/s) = -3.57301 3.27493 -1.01026
# Velocity P-wave (km/s) = 3.11310 6.82705 5.30566
#
# Compressibility (1/GPa) = 0.01743458
#
# Stress axis : x y z
#
# Youngs Moduli (GPa) = 346.14589 346.14589 143.54656
#
# Poissons Ratio (x) = -2.95299 0.44398
# Poissons Ratio (y) = -2.95299 0.44398
# Poissons Ratio (z) = 1.07061 1.07061
#
# Static dielectric constant tensor:
#      x y z
#    x 1.798390 0.000000 0.000000 
#    y 0.000000 1.798390 0.000000 
#    z 0.000000 0.000000 1.818020 
# 
# From -- ./inp_files/3719.got.cif
#   From: 2010.05.17/outbox.cif.g08.bks.cpg/sg84_2_cif.got.tgz:3719.got - 2010.06.03 18:57:40.
