data_PCOD9544693
_publ_section_title
;
Structure prediction by ZEFSAII (Michael W. Deem and Ramdas Pophale) SiO2 
 PCOD9544693
Probable space group: P 4/N
;
_chemical_formula_sum "Si O2"
_cell_formula_units_Z 50
_cell_length_a 15.147215
_cell_length_b 15.147215
_cell_length_c 11.396603
_cell_angle_alpha 90.000000
_cell_angle_beta 90.000000
_cell_angle_gamma 90.000000
_cell_volume 2614.815192
_symmetry_space_group_name_H-M "P 4/N"
_symmetry_group_IT_number 85
_symmetry_cell_setting 'tetragonal'
loop_
_space_group_symop_operation_xyz
x,y,z
1/2-y,x,z
1/2-x,1/2-y,z
y,1/2-x,z
-x,-y,-z
1/2+y,-x,-z
1/2+x,1/2+y,-z
-y,1/2+x,-z
loop_
_atom_site_type_symbol
_atom_site_label
_atom_site_fract_x
_atom_site_fract_y
_atom_site_fract_z
Si Si1 0.250000 0.250000 0.855396
Si Si2 0.921919 0.053628 0.241079
Si Si3 0.631805 0.334093 0.466539
Si Si4 0.683300 0.044932 0.949679
Si Si5 0.879884 0.477538 0.321414
Si Si6 0.335252 0.814228 0.846329
Si Si7 0.058581 0.255975 0.838396
O O1 0.154181 0.297732 0.851984
O O2 0.886660 0.123539 0.338739
O O3 0.971752 0.100286 0.132912
O O4 0.835087 0.010181 0.184493
O O5 0.982667 0.975860 0.293616
O O6 0.727493 0.365361 0.517595
O O7 0.551628 0.369423 0.545558
O O8 0.759136 0.075360 0.860768
O O9 0.673853 0.131504 0.032307
O O10 0.708254 0.970021 0.041250
O O11 0.852015 0.388892 0.250321
O O12 0.807503 0.546510 0.274108
O O13 0.250000 0.750000 0.825220
#
# Coordination Sequence:
#
# PCOD9544693 Si02
#       7
#     2   8   8   8   8   8   8
#     4  12  24  44  60  84 122 176 212 252 296 370
#     4  12  23  42  61  93 131 164 212 261 317 385
#     4  11  24  40  65  96 126 164 209 271 337 379
#     4  11  20  35  62  94 123 164 198 255 317 378
#     4  11  24  38  62  91 124 166 211 263 312 378
#     4  11  19  34  60  92 130 158 199 253 328 380
#     4  11  23  39  62  88 124 164 211 253 306 371
#
# _framework density 19.12181
#
# number of rings (size 3 to 8) (size 9 to 14) (size 15 to 20)
#    0.000    0.800    6.400    2.400    2.240    3.840 
#    2.880    0.000    0.000    0.000    0.000    1.120 
#    0.000    0.000    0.000    0.000    0.000    0.000 
#
# Total GULP energy -278494.002051 kJ/mol
# GULP energy per Si atom -5569.880041 kJ/mol
# Density = 1.907829 g / cm^3
# Si number density = 19.121810 Si / 1000 Ang^3
#
#
#
# Elastic Constant Matrix: (Units=GPa)
#
#
# Indices 1 2 3 4 5 6 
#
# 1 90.2638 7.4995 35.1840 0.0000 0.0000 3.7470
# 2 7.4995 90.2638 35.1840 0.0000 0.0000 -3.7470
# 3 35.1840 35.1840 81.3280 0.0000 0.0000 0.0000
# 4 0.0000 0.0000 0.0000 18.1767 0.0000 0.0000
# 5 0.0000 0.0000 0.0000 0.0000 18.1767 0.0000
# 6 3.7470 -3.7470 0.0000 0.0000 0.0000 27.5893
#
#
#
# Elastic Compliance Matrix: (Units=1/GPa)
#
#
# Indices 1 2 3 4 5 6 
#
# 1 0.013544 0.001311 -0.006426 0.000000 0.000000 -0.001661
# 2 0.001311 0.013544 -0.006426 0.000000 0.000000 0.001661
# 3 -0.006426 -0.006426 0.017856 0.000000 0.000000 0.000000
# 4 0.000000 0.000000 0.000000 0.055015 0.000000 0.000000
# 5 0.000000 0.000000 0.000000 0.000000 0.055015 0.000000
# 6 -0.001661 0.001661 0.000000 0.000000 0.000000 0.036697
#
#
# Mechanical properties :
#
#
# Convention : Reuss Voigt Hill
#
# Bulk Modulus (GPa) = 45.74626 46.39893 46.07259
# Shear Modulus (GPa) = 22.51831 25.05442 23.78636
#
# Velocity S-wave (km/s) = 3.43538 3.62367 3.53078
# Velocity P-wave (km/s) = 6.30169 6.46727 6.38502
#
# Compressibility (1/GPa) = 0.02185971
#
# Stress axis : x y z
#
# Youngs Moduli (GPa) = 73.83566 73.83566 56.00330
#
# Poissons Ratio (x) = -0.09677 0.35989
# Poissons Ratio (y) = -0.09677 0.35989
# Poissons Ratio (z) = 0.47448 0.47448
#
# Static dielectric constant tensor:
#      x y z
#    x 1.691390 0.000000 0.000000 
#    y 0.000000 1.691390 0.000000 
#    z 0.000000 0.000000 1.717190 
# 
# From -- ./inp_files/1702.got.cif
#   From: 2010.05.17/outbox.cif.g08.bks.cpg/sg85_cif.got.tgz:1702.got - 2010.06.03 19:01:16.
