data_PCOD9544863
_publ_section_title
;
Structure prediction by ZEFSAII (Michael W. Deem and Ramdas Pophale) SiO2 
 PCOD9544863
Probable space group: P 42/N
;
_chemical_formula_sum "Si O2"
_cell_formula_units_Z 60
_cell_length_a 12.397803
_cell_length_b 12.397803
_cell_length_c 18.923300
_cell_angle_alpha 90.000000
_cell_angle_beta 90.000000
_cell_angle_gamma 90.000000
_cell_volume 2908.615652
_symmetry_space_group_name_H-M "P 42/N"
_symmetry_group_IT_number 86
_space_group.IT_coordinate_system_code '2'
_symmetry_cell_setting 'tetragonal'
loop_
_space_group_symop_operation_xyz
x,y,z
-y,1/2+x,1/2+z
1/2-x,1/2-y,z
1/2+y,-x,1/2+z
-x,-y,-z
y,1/2-x,1/2-z
1/2+x,1/2+y,-z
1/2-y,x,1/2-z
loop_
_atom_site_type_symbol
_atom_site_label
_atom_site_fract_x
_atom_site_fract_y
_atom_site_fract_z
Si Si1 0.881793 0.639541 0.741114
Si Si2 0.774569 0.132131 0.587341
Si Si3 0.250000 0.750000 0.667951
Si Si4 0.866068 0.613436 0.239603
Si Si5 0.671617 0.082425 0.949733
Si Si6 0.500600 0.973251 0.860256
Si Si7 0.907372 0.416604 0.332478
Si Si8 0.096827 0.919795 0.008390
O O1 0.757698 0.617964 0.722343
O O2 0.915531 0.549978 0.797575
O O3 0.973667 0.633712 0.680773
O O4 0.750000 0.250000 0.619007
O O5 0.836966 0.145701 0.512945
O O6 0.859773 0.061763 0.630425
O O7 0.659627 0.091184 0.558686
O O8 0.156636 0.801565 0.618374
O O9 0.182991 0.656658 0.706762
O O10 0.736535 0.604999 0.243482
O O11 0.918751 0.565732 0.167498
O O12 0.909505 0.534395 0.300044
O O13 0.783104 0.030669 0.979465
O O14 0.572690 0.007390 0.927151
O O15 0.869534 0.421023 0.413535
O O16 0.000000 0.000000 0.000000
#
# Coordination Sequence:
#
# PCOD9544863 Si02
#       8
#     8   8   4   8   8   8   8   8
#     4  10  22  39  55  85 122 154 198 259 311 366
#     4  10  21  40  59  90 126 157 208 261 308 379
#     4  10  16  34  62  84 112 154 208 242 290 376
#     4  10  23  41  59  89 125 159 207 266 317 372
#     4  10  18  38  61  86 121 157 205 251 308 373
#     4  11  23  39  64  90 116 173 209 257 321 387
#     4  10  20  37  62  86 113 164 200 249 307 378
#     4  10  21  36  62  91 123 161 199 257 316 371
#
# _framework density 20.62837
#
# number of rings (size 3 to 8) (size 9 to 14) (size 15 to 20)
#    0.000    1.867    3.333    2.800    1.867    3.200 
#    7.200    0.000    0.000    0.000    0.000    0.000 
#    0.000    0.000    0.000    0.000    0.000    0.000 
#
# Total GULP energy -334132.270219 kJ/mol
# GULP energy per Si atom -5568.871170 kJ/mol
# Density = 2.058142 g / cm^3
# Si number density = 20.628370 Si / 1000 Ang^3
#
#
#
# Elastic Constant Matrix: (Units=GPa)
#
#
# Indices 1 2 3 4 5 6 
#
# 1 99.8085 66.9369 6.7901 0.0000 0.0000 3.4370
# 2 66.9369 99.8085 6.7901 0.0000 0.0000 -3.4370
# 3 6.7901 6.7901 19.7346 0.0000 0.0000 0.0000
# 4 0.0000 0.0000 0.0000 18.8905 0.0000 0.0000
# 5 0.0000 0.0000 0.0000 0.0000 18.8905 0.0000
# 6 3.4370 -3.4370 0.0000 0.0000 0.0000 45.3775
#
#
#
# Elastic Compliance Matrix: (Units=1/GPa)
#
#
# Indices 1 2 3 4 5 6 
#
# 1 0.018541 -0.012370 -0.002123 0.000000 0.000000 -0.002341
# 2 -0.012370 0.018541 -0.002123 0.000000 0.000000 0.002341
# 3 -0.002123 -0.002123 0.052133 0.000000 0.000000 0.000000
# 4 0.000000 0.000000 0.000000 0.052937 0.000000 0.000000
# 5 0.000000 0.000000 0.000000 0.000000 0.052937 0.000000
# 6 -0.002341 0.002341 0.000000 0.000000 0.000000 0.022392
#
#
# Mechanical properties :
#
#
# Convention : Reuss Voigt Hill
#
# Bulk Modulus (GPa) = 17.86303 42.26511 30.06407
# Shear Modulus (GPa) = 18.56163 25.88733 22.22448
#
# Velocity S-wave (km/s) = 3.00294 3.54635 3.28590
# Velocity P-wave (km/s) = 4.54992 6.10755 5.38535
#
# Compressibility (1/GPa) = 0.05598154
#
# Stress axis : x y z
#
# Youngs Moduli (GPa) = 53.93586 53.93586 19.18164
#
# Poissons Ratio (x) = 0.66721 0.04072
# Poissons Ratio (y) = 0.66721 0.04072
# Poissons Ratio (z) = 0.11450 0.11450
#
# Static dielectric constant tensor:
#      x y z
#    x 1.904080 0.000000 0.000000 
#    y 0.000000 1.904080 0.000000 
#    z 0.000000 0.000000 1.785870 
# 
# From -- ./inp_files/4276.got.cif
#   From: 2010.05.17/outbox.cif.g08.bks.cpg/sg86_3_cif.got.tgz:4276.got - 2010.06.03 19:03:11.
