data_PCOD9544416
_publ_section_title
;
Structure prediction by ZEFSAII (Michael W. Deem and Ramdas Pophale) SiO2 
 PCOD9544416
Probable space group: P 42/M
;
_chemical_formula_sum "Si O2"
_cell_formula_units_Z 40
_cell_length_a 8.911216
_cell_length_b 8.911216
_cell_length_c 23.403363
_cell_angle_alpha 90.000000
_cell_angle_beta 90.000000
_cell_angle_gamma 90.000000
_cell_volume 1858.455687
_symmetry_space_group_name_H-M "P 42/M"
_symmetry_group_IT_number 84
_symmetry_cell_setting 'tetragonal'
loop_
_space_group_symop_operation_xyz
x,y,z
-y,x,1/2+z
-x,-y,z
y,-x,1/2+z
-x,-y,-z
y,-x,1/2-z
x,y,-z
-y,x,1/2-z
loop_
_atom_site_type_symbol
_atom_site_label
_atom_site_fract_x
_atom_site_fract_y
_atom_site_fract_z
Si Si1 0.867849 0.094946 0.607883
Si Si2 0.664089 0.064526 0.173198
Si Si3 0.350645 0.595140 0.833240
Si Si4 0.443498 0.827965 0.437286
Si Si5 0.667246 0.950511 0.293197
O O1 0.734933 0.158978 0.570078
O O2 0.956757 0.230105 0.637290
O O3 0.783569 0.989194 0.655873
O O4 0.000000 0.000000 0.578801
O O5 0.633998 0.230889 0.149340
O O6 0.500000 0.000000 0.177904
O O7 0.721732 0.044472 0.238654
O O8 0.500000 0.500000 0.818846
O O9 0.269643 0.510068 0.885646
O O10 0.226272 0.627816 0.783416
O O11 0.483854 0.767126 0.500000
O O12 0.500000 0.000000 0.435053
O O13 0.500000 0.000000 0.310046
#
# Coordination Sequence:
#
# PCOD9544416 Si02
#       5
#     8   8   8   8   8
#     4  12  21  39  66  94 136 170 221 295 343 412
#     4  11  25  39  62 100 135 176 221 275 348 414
#     4  12  23  45  68  95 140 182 226 285 342 417
#     4  11  23  44  71  96 130 183 240 293 352 414
#     4  11  22  42  62  98 134 180 228 267 339 426
#
# _framework density 21.523249
#
# number of rings (size 3 to 8) (size 9 to 14) (size 15 to 20)
#    0.000    0.600    6.000    2.400    0.000    0.800 
#    3.600    1.000    0.000    2.400    0.000    0.000 
#    0.000    0.000    0.000    0.000    0.000    0.000 
#
# Total GULP energy -222959.545686 kJ/mol
# GULP energy per Si atom -5573.988642 kJ/mol
# Density = 2.147426 g / cm^3
# Si number density = 21.523249 Si / 1000 Ang^3
#
#
#
# Elastic Constant Matrix: (Units=GPa)
#
#
# Indices 1 2 3 4 5 6 
#
# 1 119.7366 20.1206 25.0348 0.0000 0.0000 -15.1168
# 2 20.1206 119.7366 25.0348 0.0000 0.0000 15.1168
# 3 25.0348 25.0348 76.4510 0.0000 0.0000 0.0000
# 4 0.0000 0.0000 0.0000 -69.9785 0.0000 0.0000
# 5 0.0000 0.0000 0.0000 0.0000 -69.9785 0.0000
# 6 -15.1168 15.1168 0.0000 0.0000 0.0000 43.0492
#
#
#
# Elastic Compliance Matrix: (Units=1/GPa)
#
#
# Indices 1 2 3 4 5 6 
#
# 1 0.009668 -0.001568 -0.002652 0.000000 0.000000 0.003946
# 2 -0.001568 0.009668 -0.002652 0.000000 0.000000 -0.003946
# 3 -0.002652 -0.002652 0.014817 0.000000 0.000000 0.000000
# 4 0.000000 0.000000 0.000000 -0.014290 0.000000 0.000000
# 5 0.000000 0.000000 0.000000 0.000000 -0.014290 0.000000
# 6 0.003946 -0.003946 0.000000 0.000000 0.000000 0.026000
#
#
# Mechanical properties :
#
#
# Convention : Reuss Voigt Hill
#
# Bulk Modulus (GPa) = 49.00188 50.70052 49.85120
# Shear Modulus (GPa) = 95.93016 -2.99929 46.46544
#
# Velocity S-wave (km/s) = 6.68336 -1.18175 4.65138
# Velocity P-wave (km/s) = 9.07594 4.66318 7.21519
#
# Compressibility (1/GPa) = 0.02040738
#
# Stress axis : x y z
#
# Youngs Moduli (GPa) = 103.43549 103.43549 67.48843
#
# Poissons Ratio (x) = 0.16220 0.17900
# Poissons Ratio (y) = 0.16220 0.17900
# Poissons Ratio (z) = 0.27435 0.27435
#
# Static dielectric constant tensor:
#      x y z
#    x 1.883470 0.000000 0.000000 
#    y 0.000000 1.883470 0.000000 
#    z 0.000000 0.000000 1.833070 
# 
# From -- ./inp_files/4843.got.cif
#   From: 2010.05.17/outbox.cif.g08.bks.cpg/sg84_3_cif.got.tgz:4843.got - 2010.06.03 18:57:40.
