data_PCOD9544106
_publ_section_title
;
Structure prediction by ZEFSAII (Michael W. Deem and Ramdas Pophale) SiO2 
 PCOD9544106
Probable space group: P 42/M
;
_chemical_formula_sum "Si O2"
_cell_formula_units_Z 40
_cell_length_a 15.396341
_cell_length_b 15.396341
_cell_length_c 7.540650
_cell_angle_alpha 90.000000
_cell_angle_beta 90.000000
_cell_angle_gamma 90.000000
_cell_volume 1787.490845
_symmetry_space_group_name_H-M "P 42/M"
_symmetry_group_IT_number 84
_symmetry_cell_setting 'tetragonal'
loop_
_space_group_symop_operation_xyz
x,y,z
-y,x,1/2+z
-x,-y,z
y,-x,1/2+z
-x,-y,-z
y,-x,1/2-z
x,y,-z
-y,x,1/2-z
loop_
_atom_site_type_symbol
_atom_site_label
_atom_site_fract_x
_atom_site_fract_y
_atom_site_fract_z
Si Si1 0.729388 0.388579 0.288356
Si Si2 0.749482 0.579874 0.713148
Si Si3 0.909713 0.102416 0.299380
Si Si4 0.051311 0.412040 0.283555
Si Si5 0.708871 0.899287 0.217306
O O1 0.737671 0.395050 0.500000
O O2 0.655649 0.317857 0.255071
O O3 0.714791 0.486268 0.222083
O O4 0.822237 0.353836 0.223873
O O5 0.755000 0.577354 0.500000
O O6 0.848924 0.592218 0.777171
O O7 0.877711 0.091141 0.500000
O O8 0.889658 0.014637 0.197160
O O9 0.879124 0.193555 0.222679
O O10 0.052768 0.413057 0.500000
O O11 0.000000 0.500000 0.231004
O O12 0.991571 0.330875 0.228454
O O13 0.712422 0.899937 0.000000
#
# Coordination Sequence:
#
# PCOD9544106 Si02
#       5
#     8   8   8   8   8
#     4  10  21  38  57  80 112 144 180 226 279 328
#     4  10  21  36  59  86 108 141 184 227 272 323
#     4  10  20  34  51  73 105 142 179 215 261 316
#     4   9  15  30  56  81 104 131 173 221 261 308
#     4   9  18  32  52  78 106 138 174 220 272 321
#
# _framework density 22.377735999999999
#
# number of rings (size 3 to 8) (size 9 to 14) (size 15 to 20)
#    0.000    2.400    2.000    1.200    2.800    1.200 
#    0.000    3.000    0.000    1.800    0.000    0.000 
#    0.000    0.000    0.000    0.000    0.000    0.000 
#
# Total GULP energy -223382.187120 kJ/mol
# GULP energy per Si atom -5584.554678 kJ/mol
# Density = 2.232680 g / cm^3
# Si number density = 22.377736 Si / 1000 Ang^3
#
#
#
# Elastic Constant Matrix: (Units=GPa)
#
#
# Indices 1 2 3 4 5 6 
#
# 1 101.2334 38.6754 -5.9710 0.0000 0.0000 13.0133
# 2 38.6754 101.2334 -5.9710 0.0000 0.0000 -13.0133
# 3 -5.9710 -5.9710 54.7281 0.0000 0.0000 0.0000
# 4 0.0000 0.0000 0.0000 16.9077 0.0000 0.0000
# 5 0.0000 0.0000 0.0000 0.0000 16.9077 0.0000
# 6 13.0133 -13.0133 0.0000 0.0000 0.0000 33.4901
#
#
#
# Elastic Compliance Matrix: (Units=1/GPa)
#
#
# Indices 1 2 3 4 5 6 
#
# 1 0.013141 -0.005926 0.000787 0.000000 0.000000 -0.007409
# 2 -0.005926 0.013141 0.000787 0.000000 0.000000 0.007409
# 3 0.000787 0.000787 0.018444 0.000000 0.000000 0.000000
# 4 0.000000 0.000000 0.000000 0.059145 0.000000 0.000000
# 5 0.000000 0.000000 0.000000 0.000000 0.059145 0.000000
# 6 -0.007409 0.007409 0.000000 0.000000 0.000000 0.035618
#
#
# Mechanical properties :
#
#
# Convention : Reuss Voigt Hill
#
# Bulk Modulus (GPa) = 27.76092 34.51798 31.13945
# Shear Modulus (GPa) = 22.79516 28.82520 25.81018
#
# Velocity S-wave (km/s) = 3.19510 3.59293 3.39984
# Velocity P-wave (km/s) = 5.10334 5.71584 5.41825
#
# Compressibility (1/GPa) = 0.03602186
#
# Stress axis : x y z
#
# Youngs Moduli (GPa) = 76.09663 76.09663 54.21848
#
# Poissons Ratio (x) = 0.45099 -0.04268
# Poissons Ratio (y) = 0.45099 -0.04268
# Poissons Ratio (z) = -0.05990 -0.05990
#
# Static dielectric constant tensor:
#      x y z
#    x 1.811700 0.000000 0.000000 
#    y 0.000000 1.811700 0.000000 
#    z 0.000000 0.000000 1.858310 
# 
# From -- ./inp_files/741.got.cif
#   From: 2010.05.17/outbox.cif.g08.bks.cpg/sg84_1_cif.got.tgz:741.got - 2010.06.03 18:57:40.
