data_PCOD9544604
_publ_section_title
;
Structure prediction by ZEFSAII (Michael W. Deem and Ramdas Pophale) SiO2 
 PCOD9544604
Probable space group: P 4/N
;
_chemical_formula_sum "Si O2"
_cell_formula_units_Z 42
_cell_length_a 20.938289
_cell_length_b 20.938289
_cell_length_c 5.348186
_cell_angle_alpha 90.000000
_cell_angle_beta 90.000000
_cell_angle_gamma 90.000000
_cell_volume 2344.708633
_symmetry_space_group_name_H-M "P 4/N"
_symmetry_group_IT_number 85
_symmetry_cell_setting 'tetragonal'
loop_
_space_group_symop_operation_xyz
x,y,z
1/2-y,x,z
1/2-x,1/2-y,z
y,1/2-x,z
-x,-y,-z
1/2+y,-x,-z
1/2+x,1/2+y,-z
-y,1/2+x,-z
loop_
_atom_site_type_symbol
_atom_site_label
_atom_site_fract_x
_atom_site_fract_y
_atom_site_fract_z
Si Si1 0.485999 0.801880 0.498855
Si Si2 0.265568 0.444019 0.002501
Si Si3 0.339405 0.782922 0.392754
Si Si4 0.940590 0.951440 0.490578
Si Si5 0.378647 0.096410 0.013774
Si Si6 0.750000 0.250000 0.000000
O O1 0.521486 0.769073 0.265530
O O2 0.411418 0.797390 0.443872
O O3 0.507472 0.875519 0.498732
O O4 0.507272 0.772154 0.763697
O O5 0.329073 0.399966 0.018046
O O6 0.197682 0.409213 0.017591
O O7 0.323233 0.708140 0.432927
O O8 0.304915 0.792631 0.130485
O O9 0.935508 0.909470 0.235977
O O10 0.937296 0.907464 0.738541
O O11 0.000000 0.000000 0.500000
#
# Coordination Sequence:
#
# PCOD9544604 Si02
#       6
#     8   8   8   8   8   2
#     4  10  22  37  56  85 114 147 192 234 280 336
#     4  10  22  38  59  85 113 147 186 239 283 341
#     4   9  20  35  53  78 111 148 186 233 279 324
#     4  10  21  39  58  84 119 152 187 234 282 340
#     4  10  21  39  60  84 117 146 191 235 286 337
#     4   8  18  36  52  74 112 144 186 236 270 332
#
# _framework density 17.912675
#
# number of rings (size 3 to 8) (size 9 to 14) (size 15 to 20)
#    0.000    2.476    0.000    1.714    5.333    3.429 
#    0.000    0.000    0.000    6.857    0.000    0.000 
#    0.000    0.000    0.000    0.000    0.000    0.000 
#
# Total GULP energy -233867.199296 kJ/mol
# GULP energy per Si atom -5568.266650 kJ/mol
# Density = 1.787190 g / cm^3
# Si number density = 17.912675 Si / 1000 Ang^3
#
#
#
# Elastic Constant Matrix: (Units=GPa)
#
#
# Indices 1 2 3 4 5 6 
#
# 1 74.9318 21.3368 38.2021 0.0000 0.0000 14.7168
# 2 21.3368 74.9318 38.2021 0.0000 0.0000 -14.7168
# 3 38.2021 38.2021 125.8457 0.0000 0.0000 0.0000
# 4 0.0000 0.0000 0.0000 102.3464 0.0000 0.0000
# 5 0.0000 0.0000 0.0000 0.0000 102.3464 0.0000
# 6 14.7168 -14.7168 0.0000 0.0000 0.0000 7.5488
#
#
#
# Elastic Compliance Matrix: (Units=1/GPa)
#
#
# Indices 1 2 3 4 5 6 
#
# 1 -0.125172 0.138857 -0.004154 0.000000 0.000000 0.514739
# 2 0.138857 -0.125172 -0.004154 0.000000 0.000000 -0.514739
# 3 -0.004154 -0.004154 0.010468 0.000000 0.000000 0.000000
# 4 0.000000 0.000000 0.000000 0.009771 0.000000 0.000000
# 5 0.000000 0.000000 0.000000 0.000000 0.009771 0.000000
# 6 0.514739 -0.514739 0.000000 0.000000 0.000000 -1.874551
#
#
# Mechanical properties :
#
#
# Convention : Reuss Voigt Hill
#
# Bulk Modulus (GPa) = 47.12329 52.35457 49.73893
# Shear Modulus (GPa) = -2.12865 54.31288 26.09212
#
# Velocity S-wave (km/s) = -1.09130 5.51242 3.82072
# Velocity P-wave (km/s) = 4.97759 8.35505 6.87689
#
# Compressibility (1/GPa) = 0.02122093
#
# Stress axis : x y z
#
# Youngs Moduli (GPa) = -7.98899 -7.98899 95.52642
#
# Poissons Ratio (x) = 1.10933 0.39683
# Poissons Ratio (y) = 1.10933 0.39683
# Poissons Ratio (z) = -0.03319 -0.03319
#
# Static dielectric constant tensor:
#      x y z
#    x 1.570010 0.000000 0.000000 
#    y 0.000000 1.570010 0.000000 
#    z 0.000000 0.000000 0.372980 
# 
# From -- ./inp_files/434.got.cif
#   From: 2010.05.17/outbox.cif.g08.bks.cpg/sg85_cif.got.tgz:434.got - 2010.06.03 19:01:16.
