data_PCOD9544966
_publ_section_title
;
Structure prediction by ZEFSAII (Michael W. Deem and Ramdas Pophale) SiO2 
 PCOD9544966
Probable space group: P 42/N
;
_chemical_formula_sum "Si O2"
_cell_formula_units_Z 36
_cell_length_a 11.395207
_cell_length_b 11.395207
_cell_length_c 10.216784
_cell_angle_alpha 90.000000
_cell_angle_beta 90.000000
_cell_angle_gamma 90.000000
_cell_volume 1326.656989
_symmetry_space_group_name_H-M "P 42/N"
_symmetry_group_IT_number 86
_space_group.IT_coordinate_system_code '2'
_symmetry_cell_setting 'tetragonal'
loop_
_space_group_symop_operation_xyz
x,y,z
-y,1/2+x,1/2+z
1/2-x,1/2-y,z
1/2+y,-x,1/2+z
-x,-y,-z
y,1/2-x,1/2-z
1/2+x,1/2+y,-z
1/2-y,x,1/2-z
loop_
_atom_site_type_symbol
_atom_site_label
_atom_site_fract_x
_atom_site_fract_y
_atom_site_fract_z
Si Si1 0.725952 0.609275 0.030664
Si Si2 0.000033 0.813150 0.739068
Si Si3 0.793131 0.498487 0.466345
Si Si4 0.047733 0.454557 0.860975
Si Si5 0.750000 0.250000 0.369960
O O1 0.750000 0.750000 0.042465
O O2 0.757085 0.569699 0.882932
O O3 0.588848 0.602553 0.066904
O O4 0.812231 0.534754 0.125213
O O5 0.971067 0.766982 0.882348
O O6 0.137457 0.788801 0.712822
O O7 0.986405 0.955066 0.735429
O O8 0.684041 0.528136 0.373564
O O9 0.801283 0.358963 0.453474
O O10 0.000000 0.500000 0.000000
#
# Coordination Sequence:
#
# PCOD9544966 Si02
#       5
#     8   8   8   8   4
#     4   9  19  31  55  86 108 136 193 251 309 356
#     4  10  20  33  57  82 117 155 193 255 309 368
#     4  10  20  32  57  83 112 156 207 249 299 381
#     4   8  17  33  50  82 121 145 179 255 326 348
#     4  10  22  40  48  78 124 164 204 246 302 360
#
# _framework density 27.135874000000001
#
# number of rings (size 3 to 8) (size 9 to 14) (size 15 to 20)
#    0.000    2.667    0.000    0.667    9.333    0.889 
#    0.000    0.000    0.000    0.000    0.000    0.000 
#    0.000    0.000    0.000    0.000    0.000    0.000 
#
# Total GULP energy -201246.771862 kJ/mol
# GULP energy per Si atom -5590.188107 kJ/mol
# Density = 2.707411 g / cm^3
# Si number density = 27.135874 Si / 1000 Ang^3
#
#
#
# Elastic Constant Matrix: (Units=GPa)
#
#
# Indices 1 2 3 4 5 6 
#
# 1 155.4493 29.3046 23.7284 0.0000 0.0000 -24.0251
# 2 29.3046 155.4493 23.7284 0.0000 0.0000 24.0251
# 3 23.7284 23.7284 57.7881 0.0000 0.0000 0.0000
# 4 0.0000 0.0000 0.0000 31.5756 0.0000 0.0000
# 5 0.0000 0.0000 0.0000 0.0000 31.5756 0.0000
# 6 -24.0251 24.0251 0.0000 0.0000 0.0000 42.0506
#
#
#
# Elastic Compliance Matrix: (Units=1/GPa)
#
#
# Indices 1 2 3 4 5 6 
#
# 1 0.008092 -0.002041 -0.002485 0.000000 0.000000 0.005789
# 2 -0.002041 0.008092 -0.002485 0.000000 0.000000 -0.005789
# 3 -0.002485 -0.002485 0.019345 0.000000 0.000000 0.000000
# 4 0.000000 0.000000 0.000000 0.031670 0.000000 0.000000
# 5 0.000000 0.000000 0.000000 0.000000 0.031670 0.000000
# 6 0.005789 -0.005789 0.000000 0.000000 0.000000 0.030396
#
#
# Mechanical properties :
#
#
# Convention : Reuss Voigt Hill
#
# Bulk Modulus (GPa) = 46.49334 58.02327 52.25831
# Shear Modulus (GPa) = 33.23286 40.50206 36.86746
#
# Velocity S-wave (km/s) = 3.50334 3.86756 3.68995
# Velocity P-wave (km/s) = 5.79097 6.43218 6.11998
#
# Compressibility (1/GPa) = 0.02150846
#
# Stress axis : x y z
#
# Youngs Moduli (GPa) = 123.58382 123.58382 51.69310
#
# Poissons Ratio (x) = 0.25222 0.12843
# Poissons Ratio (y) = 0.25222 0.12843
# Poissons Ratio (z) = 0.30705 0.30705
#
# Static dielectric constant tensor:
#      x y z
#    x 2.301820 0.000000 0.000000 
#    y 0.000000 2.301820 0.000000 
#    z 0.000000 0.000000 2.163570 
# 
# From -- ./inp_files/2042.got.cif
#   From: 2010.05.17/outbox.cif.g08.bks.cpg/sg86_2_cif.got.tgz:2042.got - 2010.06.03 19:03:11.
