data_PCOD9544145
_publ_section_title
;
Structure prediction by ZEFSAII (Michael W. Deem and Ramdas Pophale) SiO2 
 PCOD9544145
Probable space group: P 42/M
;
_chemical_formula_sum "Si O2"
_cell_formula_units_Z 48
_cell_length_a 17.327770
_cell_length_b 17.327770
_cell_length_c 8.396864
_cell_angle_alpha 90.000000
_cell_angle_beta 90.000000
_cell_angle_gamma 90.000000
_cell_volume 2521.171962
_symmetry_space_group_name_H-M "P 42/M"
_symmetry_group_IT_number 84
_symmetry_cell_setting 'tetragonal'
loop_
_space_group_symop_operation_xyz
x,y,z
-y,x,1/2+z
-x,-y,z
y,-x,1/2+z
-x,-y,-z
y,-x,1/2-z
x,y,-z
-y,x,1/2-z
loop_
_atom_site_type_symbol
_atom_site_label
_atom_site_fract_x
_atom_site_fract_y
_atom_site_fract_z
Si Si1 0.107254 0.029771 0.822804
Si Si2 0.693483 0.847204 0.191514
Si Si3 0.996859 0.729348 0.188543
Si Si4 0.598968 0.298449 0.808028
Si Si5 0.731392 0.177943 0.191627
Si Si6 0.576309 0.712124 0.807999
O O1 0.195134 0.025461 0.781373
O O2 0.057433 0.076488 0.695957
O O3 0.092959 0.059717 0.000000
O O4 0.674695 0.931330 0.264774
O O5 0.774332 0.806316 0.246361
O O6 0.627444 0.785973 0.241304
O O7 0.695168 0.853058 0.000000
O O8 0.908500 0.718742 0.243105
O O9 0.996881 0.741015 0.000000
O O10 0.657849 0.230296 0.760486
O O11 0.511767 0.286257 0.750948
O O12 0.636907 0.377657 0.749074
O O13 0.598151 0.299359 0.000000
O O14 0.736776 0.174082 0.000000
O O15 0.575552 0.712075 0.000000
#
# Coordination Sequence:
#
# PCOD9544145 Si02
#       6
#     8   8   8   8   8   8
#     4  11  21  34  49  69  97 129 168 216 271 321
#     4  10  20  36  56  78 106 141 181 224 270 317
#     4  12  23  35  51  73 101 136 180 223 266 318
#     4   9  19  36  58  84 113 144 177 215 262 317
#     4  10  20  36  56  78 106 141 181 224 270 317
#     4   9  19  36  58  84 113 144 177 215 262 317
#
# _framework density 19.038765000000001
#
# number of rings (size 3 to 8) (size 9 to 14) (size 15 to 20)
#    0.000    1.833    0.000    5.500    0.000    2.333 
#    0.000    2.500    0.000    5.000    0.000    0.000 
#    0.000    0.000    0.000    0.000    0.000    0.000 
#
# Total GULP energy -267791.078931 kJ/mol
# GULP energy per Si atom -5578.980811 kJ/mol
# Density = 1.899543 g / cm^3
# Si number density = 19.038765 Si / 1000 Ang^3
#
#
#
# Elastic Constant Matrix: (Units=GPa)
#
#
# Indices 1 2 3 4 5 6 
#
# 1 124.6754 45.6565 16.4036 0.0000 0.0000 -21.5312
# 2 45.6565 124.6754 16.4036 0.0000 0.0000 21.5312
# 3 16.4036 16.4036 57.6410 0.0000 0.0000 0.0000
# 4 0.0000 0.0000 0.0000 22.8612 0.0000 0.0000
# 5 0.0000 0.0000 0.0000 0.0000 22.8612 0.0000
# 6 -21.5312 21.5312 0.0000 0.0000 0.0000 -333.5660
#
#
#
# Elastic Compliance Matrix: (Units=1/GPa)
#
#
# Indices 1 2 3 4 5 6 
#
# 1 0.009218 -0.003007 -0.001768 0.000000 0.000000 -0.000789
# 2 -0.003007 0.009218 -0.001768 0.000000 0.000000 0.000789
# 3 -0.001768 -0.001768 0.018355 0.000000 0.000000 0.000000
# 4 0.000000 0.000000 0.000000 0.043742 0.000000 0.000000
# 5 0.000000 0.000000 0.000000 0.000000 0.043742 0.000000
# 6 -0.000789 0.000789 0.000000 0.000000 0.000000 -0.002896
#
#
# Mechanical properties :
#
#
# Convention : Reuss Voigt Hill
#
# Bulk Modulus (GPa) = 42.18167 51.54657 46.86412
# Shear Modulus (GPa) = 35.12059 -42.33353 -3.60647
#
# Velocity S-wave (km/s) = 4.29964 -4.72056 -1.37782
# Velocity P-wave (km/s) = 6.84493 1.60571 4.70503
#
# Compressibility (1/GPa) = 0.02370698
#
# Stress axis : x y z
#
# Youngs Moduli (GPa) = 108.48037 108.48037 54.48156
#
# Poissons Ratio (x) = 0.32619 0.09630
# Poissons Ratio (y) = 0.32619 0.09630
# Poissons Ratio (z) = 0.19175 0.19175
#
# Static dielectric constant tensor:
#      x y z
#    x 1.709280 0.000000 0.000000 
#    y 0.000000 1.709280 0.000000 
#    z 0.000000 0.000000 1.679520 
# 
# From -- ./inp_files/989.got.cif
#   From: 2010.05.17/outbox.cif.g08.bks.cpg/sg84_1_cif.got.tgz:989.got - 2010.06.03 18:57:40.
