data_PCOD9544165
_publ_section_title
;
Structure prediction by ZEFSAII (Michael W. Deem and Ramdas Pophale) SiO2 
 PCOD9544165
Probable space group: P 42/M
;
_chemical_formula_sum "Si O2"
_cell_formula_units_Z 40
_cell_length_a 15.955937
_cell_length_b 15.955937
_cell_length_c 8.665178
_cell_angle_alpha 90.000000
_cell_angle_beta 90.000000
_cell_angle_gamma 90.000000
_cell_volume 2206.084352
_symmetry_space_group_name_H-M "P 42/M"
_symmetry_group_IT_number 84
_symmetry_cell_setting 'tetragonal'
loop_
_space_group_symop_operation_xyz
x,y,z
-y,x,1/2+z
-x,-y,z
y,-x,1/2+z
-x,-y,-z
y,-x,1/2-z
x,y,-z
-y,x,1/2-z
loop_
_atom_site_type_symbol
_atom_site_label
_atom_site_fract_x
_atom_site_fract_y
_atom_site_fract_z
Si Si1 0.376908 0.540795 0.183836
Si Si2 0.431678 0.924587 0.677162
Si Si3 0.305739 0.061657 0.313723
Si Si4 0.877480 0.955839 0.815344
Si Si5 0.193879 0.560811 0.317345
O O1 0.447008 0.599728 0.261263
O O2 0.284226 0.563140 0.238831
O O3 0.384284 0.546413 0.000000
O O4 0.422359 0.895504 0.500000
O O5 0.472605 0.851825 0.777461
O O6 0.500000 0.000000 0.675778
O O7 0.347533 0.971625 0.729373
O O8 0.304725 0.065179 0.500000
O O9 0.213785 0.068978 0.244513
O O10 0.366808 0.133899 0.250563
O O11 0.950151 0.898717 0.741421
O O12 0.882622 0.951320 0.000000
O O13 0.201245 0.570308 0.500000
#
# Coordination Sequence:
#
# PCOD9544165 Si02
#       5
#     8   8   8   8   8
#     4  11  22  40  62  84 113 150 192 234 285 341
#     4   8  16  32  54  79 111 150 185 225 280 333
#     4  10  20  37  59  85 117 151 191 237 286 336
#     4  11  22  39  61  84 113 151 193 234 286 343
#     4  11  21  35  57  87 119 151 190 234 285 339
#
# _framework density 18.131672999999999
#
# number of rings (size 3 to 8) (size 9 to 14) (size 15 to 20)
#    0.000    1.800    0.000    8.400    0.000    4.400 
#    3.600    0.000    0.000    0.000    0.000    0.000 
#    0.000    0.000    0.000    0.000    0.000    0.000 
#
# Total GULP energy -223350.756133 kJ/mol
# GULP energy per Si atom -5583.768903 kJ/mol
# Density = 1.809040 g / cm^3
# Si number density = 18.131673 Si / 1000 Ang^3
#
#
#
# Elastic Constant Matrix: (Units=GPa)
#
#
# Indices 1 2 3 4 5 6 
#
# 1 80.7724 36.9240 19.6253 0.0000 0.0000 -0.9380
# 2 36.9240 80.7724 19.6253 0.0000 0.0000 0.9380
# 3 19.6253 19.6253 95.8093 0.0000 0.0000 0.0000
# 4 0.0000 0.0000 0.0000 35.6791 0.0000 0.0000
# 5 0.0000 0.0000 0.0000 0.0000 35.6791 0.0000
# 6 -0.9380 0.9380 0.0000 0.0000 0.0000 7.4080
#
#
#
# Elastic Compliance Matrix: (Units=1/GPa)
#
#
# Indices 1 2 3 4 5 6 
#
# 1 0.016025 -0.006905 -0.001868 0.000000 0.000000 0.002903
# 2 -0.006905 0.016025 -0.001868 0.000000 0.000000 -0.002903
# 3 -0.001868 -0.001868 0.011203 0.000000 0.000000 0.000000
# 4 0.000000 0.000000 0.000000 0.028028 0.000000 0.000000
# 5 0.000000 0.000000 0.000000 0.000000 0.028028 0.000000
# 6 0.002903 -0.002903 0.000000 0.000000 0.000000 0.135724
#
#
# Mechanical properties :
#
#
# Convention : Reuss Voigt Hill
#
# Bulk Modulus (GPa) = 45.51765 45.52257 45.52011
# Shear Modulus (GPa) = 18.96545 27.83189 23.39867
#
# Velocity S-wave (km/s) = 3.23768 3.92214 3.59623
# Velocity P-wave (km/s) = 6.25581 6.75811 6.51181
#
# Compressibility (1/GPa) = 0.02196950
#
# Stress axis : x y z
#
# Youngs Moduli (GPa) = 62.40354 62.40354 89.26445
#
# Poissons Ratio (x) = 0.43092 0.16674
# Poissons Ratio (y) = 0.43092 0.16674
# Poissons Ratio (z) = 0.11657 0.11657
#
# Static dielectric constant tensor:
#      x y z
#    x 1.617300 0.000000 0.000000 
#    y 0.000000 1.617300 0.000000 
#    z 0.000000 0.000000 1.601920 
# 
# From -- ./inp_files/791.got.cif
#   From: 2010.05.17/outbox.cif.g08.bks.cpg/sg84_1_cif.got.tgz:791.got - 2010.06.03 18:57:40.
