data_PCOD9544384
_publ_section_title
;
Structure prediction by ZEFSAII (Michael W. Deem and Ramdas Pophale) SiO2 
 PCOD9544384
Probable space group: P 42/M
;
_chemical_formula_sum "Si O2"
_cell_formula_units_Z 24
_cell_length_a 10.011632
_cell_length_b 10.011632
_cell_length_c 12.563965
_cell_angle_alpha 90.000000
_cell_angle_beta 90.000000
_cell_angle_gamma 90.000000
_cell_volume 1259.321081
_symmetry_space_group_name_H-M "P 42/M"
_symmetry_group_IT_number 84
_symmetry_cell_setting 'tetragonal'
loop_
_space_group_symop_operation_xyz
x,y,z
-y,x,1/2+z
-x,-y,z
y,-x,1/2+z
-x,-y,-z
y,-x,1/2-z
x,y,-z
-y,x,1/2-z
loop_
_atom_site_type_symbol
_atom_site_label
_atom_site_fract_x
_atom_site_fract_y
_atom_site_fract_z
Si Si1 0.159840 0.977598 0.117150
Si Si2 0.763718 0.247434 0.716668
Si Si3 0.838730 0.485022 0.125060
O O1 0.212423 0.880157 0.207269
O O2 0.234572 0.117515 0.131545
O O3 0.182957 0.920255 0.000000
O O4 0.000000 0.000000 0.127089
O O5 0.623036 0.231420 0.658935
O O6 0.785497 0.373162 0.793744
O O7 0.000000 0.500000 0.137296
O O8 0.814348 0.454567 0.000000
#
# Coordination Sequence:
#
# PCOD9544384 Si02
#       3
#     8   8   8
#     4  11  20  35  62  93 123 159 217 277 322 367
#     4  12  21  41  62  96 124 170 214 262 318 378
#     4  11  24  43  68  95 131 173 211 263 328 381
#
# _framework density 19.057887000000001
#
# number of rings (size 3 to 8) (size 9 to 14) (size 15 to 20)
#    0.000    0.667    6.667    2.000    0.000    6.000 
#    0.000   10.000    0.000    0.000    0.000    0.000 
#    0.000    0.000    0.000    0.000    0.000    0.000 
#
# Total GULP energy -134070.077818 kJ/mol
# GULP energy per Si atom -5586.253242 kJ/mol
# Density = 1.901451 g / cm^3
# Si number density = 19.057887 Si / 1000 Ang^3
#
#
#
# Elastic Constant Matrix: (Units=GPa)
#
#
# Indices 1 2 3 4 5 6 
#
# 1 87.7617 -6.3547 8.3236 0.0000 0.0000 1.3850
# 2 -6.3547 87.7617 8.3236 0.0000 0.0000 -1.3850
# 3 8.3236 8.3236 90.1954 0.0000 0.0000 0.0000
# 4 0.0000 0.0000 0.0000 4.9010 0.0000 0.0000
# 5 0.0000 0.0000 0.0000 0.0000 4.9010 0.0000
# 6 1.3850 -1.3850 0.0000 0.0000 0.0000 23.0907
#
#
#
# Elastic Compliance Matrix: (Units=1/GPa)
#
#
# Indices 1 2 3 4 5 6 
#
# 1 0.011582 0.000938 -0.001155 0.000000 0.000000 -0.000638
# 2 0.000938 0.011582 -0.001155 0.000000 0.000000 0.000638
# 3 -0.001155 -0.001155 0.011300 0.000000 0.000000 0.000000
# 4 0.000000 0.000000 0.000000 0.204039 0.000000 0.000000
# 5 0.000000 0.000000 0.000000 0.000000 0.204039 0.000000
# 6 -0.000638 0.000638 0.000000 0.000000 0.000000 0.043384
#
#
# Mechanical properties :
#
#
# Convention : Reuss Voigt Hill
#
# Bulk Modulus (GPa) = 31.52677 31.81155 31.66916
# Shear Modulus (GPa) = 10.01512 23.60696 16.81104
#
# Velocity S-wave (km/s) = 2.29489 3.52333 2.97325
# Velocity P-wave (km/s) = 4.85804 5.76889 5.33295
#
# Compressibility (1/GPa) = 0.03171907
#
# Stress axis : x y z
#
# Youngs Moduli (GPa) = 86.34025 86.34025 88.49330
#
# Poissons Ratio (x) = -0.08100 0.10225
# Poissons Ratio (y) = -0.08100 0.10225
# Poissons Ratio (z) = 0.09976 0.09976
#
# Static dielectric constant tensor:
#      x y z
#    x 1.676480 0.000000 0.000000 
#    y 0.000000 1.676480 0.000000 
#    z 0.000000 0.000000 1.646300 
# 
# From -- ./inp_files/1665.got.cif
#   From: 2010.05.17/outbox.cif.g08.bks.cpg/sg84_1_cif.got.tgz:1665.got - 2010.06.03 18:57:40.
