data_PCOD9544842
_publ_section_title
;
Structure prediction by ZEFSAII (Michael W. Deem and Ramdas Pophale) SiO2 
 PCOD9544842
Probable space group: P 4/N
;
_chemical_formula_sum "Si O2"
_cell_formula_units_Z 24
_cell_length_a 14.109892
_cell_length_b 14.109892
_cell_length_c 5.000805
_cell_angle_alpha 90.000000
_cell_angle_beta 90.000000
_cell_angle_gamma 90.000000
_cell_volume 995.605528
_symmetry_space_group_name_H-M "P 4/N"
_symmetry_group_IT_number 85
_symmetry_cell_setting 'tetragonal'
loop_
_space_group_symop_operation_xyz
x,y,z
1/2-y,x,z
1/2-x,1/2-y,z
y,1/2-x,z
-x,-y,-z
1/2+y,-x,-z
1/2+x,1/2+y,-z
-y,1/2+x,-z
loop_
_atom_site_type_symbol
_atom_site_label
_atom_site_fract_x
_atom_site_fract_y
_atom_site_fract_z
Si Si1 0.845393 0.197802 0.168970
Si Si2 0.004851 0.112626 0.525968
Si Si3 0.677566 0.888393 0.976257
O O1 0.750000 0.250000 0.256386
O O2 0.910775 0.158001 0.397400
O O3 0.791613 0.114958 0.993339
O O4 0.029621 0.138476 0.829591
O O5 0.915193 0.844656 0.670409
O O6 0.000000 0.000000 0.500000
O O7 0.627097 0.788359 0.029485
#
# Coordination Sequence:
#
# PCOD9544842 Si02
#       3
#     8   8   8
#     4   6  18  42  71 103 158 206 239 308 412 450
#     4  12  24  45  81 112 148 195 274 318 373 476
#     4  11  27  50  75 106 153 204 249 316 392 461
#
# _framework density 24.105931000000002
#
# number of rings (size 3 to 8) (size 9 to 14) (size 15 to 20)
#    2.000    0.333    0.000    3.000    4.667    2.667 
#    6.000    1.667    7.333    0.000    0.000    0.000 
#    0.000    0.000    0.000    0.000    0.000    0.000 
#
# Total GULP energy -133753.514682 kJ/mol
# GULP energy per Si atom -5573.063112 kJ/mol
# Density = 2.405107 g / cm^3
# Si number density = 24.105931 Si / 1000 Ang^3
#
#
#
# Elastic Constant Matrix: (Units=GPa)
#
#
# Indices 1 2 3 4 5 6 
#
# 1 99.3121 16.7191 -16.3069 0.0000 0.0000 -4.4454
# 2 16.7191 99.3121 -16.3069 0.0000 0.0000 4.4454
# 3 -16.3069 -16.3069 64.3195 0.0000 0.0000 0.0000
# 4 0.0000 0.0000 0.0000 40.8969 0.0000 0.0000
# 5 0.0000 0.0000 0.0000 0.0000 40.8969 0.0000
# 6 -4.4454 4.4454 0.0000 0.0000 0.0000 27.3217
#
#
#
# Elastic Compliance Matrix: (Units=1/GPa)
#
#
# Indices 1 2 3 4 5 6 
#
# 1 0.010802 -0.001522 0.002353 0.000000 0.000000 0.002005
# 2 -0.001522 0.010802 0.002353 0.000000 0.000000 -0.002005
# 3 0.002353 0.002353 0.016740 0.000000 0.000000 0.000000
# 4 0.000000 0.000000 0.000000 0.024452 0.000000 0.000000
# 5 0.000000 0.000000 0.000000 0.000000 0.024452 0.000000
# 6 0.002005 -0.002005 0.000000 0.000000 0.000000 0.037253
#
#
# Mechanical properties :
#
#
# Convention : Reuss Voigt Hill
#
# Bulk Modulus (GPa) = 22.36620 25.68381 24.02500
# Shear Modulus (GPa) = 37.58358 40.41233 38.99796
#
# Velocity S-wave (km/s) = 3.95283 4.09889 4.02652
# Velocity P-wave (km/s) = 5.48922 5.75142 5.62185
#
# Compressibility (1/GPa) = 0.04471033
#
# Stress axis : x y z
#
# Youngs Moduli (GPa) = 92.57951 92.57951 59.73594
#
# Poissons Ratio (x) = 0.14089 -0.14054
# Poissons Ratio (y) = 0.14089 -0.14054
# Poissons Ratio (z) = -0.21781 -0.21781
#
# Static dielectric constant tensor:
#      x y z
#    x 1.668930 0.000000 0.000000 
#    y 0.000000 1.668930 0.000000 
#    z 0.000000 0.000000 2.250950 
# 
# From -- ./inp_files/121.got.cif
#   From: 2010.05.17/outbox.cif.g08.bks.cpg/sg85_cif.got.tgz:121.got - 2010.06.03 19:01:16.
