data_PCOD9544794
_publ_section_title
;
Structure prediction by ZEFSAII (Michael W. Deem and Ramdas Pophale) SiO2 
 PCOD9544794
Probable space group: P 4/N
;
_chemical_formula_sum "Si O2"
_cell_formula_units_Z 36
_cell_length_a 9.756243
_cell_length_b 9.756243
_cell_length_c 20.586027
_cell_angle_alpha 90.000000
_cell_angle_beta 90.000000
_cell_angle_gamma 90.000000
_cell_volume 1959.466106
_symmetry_space_group_name_H-M "P 4/N"
_symmetry_group_IT_number 85
_symmetry_cell_setting 'tetragonal'
loop_
_space_group_symop_operation_xyz
x,y,z
1/2-y,x,z
1/2-x,1/2-y,z
y,1/2-x,z
-x,-y,-z
1/2+y,-x,-z
1/2+x,1/2+y,-z
-y,1/2+x,-z
loop_
_atom_site_type_symbol
_atom_site_label
_atom_site_fract_x
_atom_site_fract_y
_atom_site_fract_z
Si Si1 0.250000 0.750000 0.500000
Si Si2 0.013806 0.013806 0.807661
Si Si3 0.750000 0.750000 0.183582
Si Si4 0.406257 0.750000 0.723813
Si Si5 0.750000 0.973567 0.582657
Si Si6 0.413269 0.413269 0.051626
O O1 0.384897 0.749999 0.544454
O O2 0.129376 0.129376 0.815493
O O3 0.883744 0.068627 0.767325
O O4 0.068627 0.883745 0.767325
O O5 0.961034 0.961034 0.877304
O O6 0.250000 0.750000 0.700876
O O7 0.499626 0.750000 0.659935
O O8 0.617355 0.882645 0.566143
O O9 0.250000 0.436967 0.043753
O O10 0.500000 0.500000 0.000000
#
# Coordination Sequence:
#
# PCOD9544794 Si02
#       6
#     2   8   2   8   8   8
#     4  12  24  44  64  92 148 180 210 280 340 396
#     4  12  25  44  70 100 132 174 231 280 338 402
#     4  12  28  40  64  96 140 176 208 268 354 424
#     4  12  23  41  71 103 135 172 222 290 337 394
#     4  11  24  41  68 100 130 177 231 271 329 400
#     4  11  27  46  69  98 132 176 227 276 338 402
#
# _framework density 18.372353
#
# number of rings (size 3 to 8) (size 9 to 14) (size 15 to 20)
#    0.000    0.444    7.778    0.667    3.111    0.889 
#    0.000    0.000    0.000    0.000    0.000    0.000 
#    0.000    0.000    0.000    0.000    0.000    0.000 
#
# Total GULP energy -200720.828049 kJ/mol
# GULP energy per Si atom -5575.578557 kJ/mol
# Density = 1.833054 g / cm^3
# Si number density = 18.372353 Si / 1000 Ang^3
#
#
#
# Elastic Constant Matrix: (Units=GPa)
#
#
# Indices 1 2 3 4 5 6 
#
# 1 172.6221 94.7574 59.8384 0.0000 0.0000 0.0000
# 2 94.7574 172.6221 59.8384 0.0000 0.0000 0.0000
# 3 59.8384 59.8384 111.6705 0.0000 0.0000 0.0000
# 4 0.0000 0.0000 0.0000 24.4174 0.0000 0.0000
# 5 0.0000 0.0000 0.0000 0.0000 24.4174 0.0000
# 6 0.0000 0.0000 0.0000 0.0000 0.0000 32.8796
#
#
#
# Elastic Compliance Matrix: (Units=1/GPa)
#
#
# Indices 1 2 3 4 5 6 
#
# 1 0.008881 -0.003961 -0.002636 0.000000 0.000000 0.000000
# 2 -0.003961 0.008881 -0.002636 0.000000 0.000000 0.000000
# 3 -0.002636 -0.002636 0.011780 0.000000 0.000000 0.000000
# 4 0.000000 0.000000 0.000000 0.040954 0.000000 0.000000
# 5 0.000000 0.000000 0.000000 0.000000 0.040954 0.000000
# 6 0.000000 0.000000 0.000000 0.000000 0.000000 0.030414
#
#
# Mechanical properties :
#
#
# Convention : Reuss Voigt Hill
#
# Bulk Modulus (GPa) = 90.29487 98.42036 94.35762
# Shear Modulus (GPa) = 30.48298 32.50823 31.49561
#
# Velocity S-wave (km/s) = 4.07772 4.21100 4.14489
# Velocity P-wave (km/s) = 8.45129 8.79372 8.62420
#
# Compressibility (1/GPa) = 0.01107483
#
# Stress axis : x y z
#
# Youngs Moduli (GPa) = 112.59472 112.59472 84.88732
#
# Poissons Ratio (x) = 0.44603 0.22380
# Poissons Ratio (y) = 0.44603 0.22380
# Poissons Ratio (z) = 0.29684 0.29684
#
# Static dielectric constant tensor:
#      x y z
#    x 1.609800 0.000000 0.000000 
#    y 0.000000 1.609800 0.000000 
#    z 0.000000 0.000000 1.599880 
# 
# From -- ./inp_files/2199.got.cif
#   From: 2010.05.17/outbox.cif.g08.bks.cpg/sg85_cif.got.tgz:2199.got - 2010.06.03 19:01:16.
