data_PCOD9544689
_publ_section_title
;
Structure prediction by ZEFSAII (Michael W. Deem and Ramdas Pophale) SiO2 
 PCOD9544689
Probable space group: P 4/N
;
_chemical_formula_sum "Si O2"
_cell_formula_units_Z 36
_cell_length_a 11.386236
_cell_length_b 11.386236
_cell_length_c 11.804229
_cell_angle_alpha 90.000000
_cell_angle_beta 90.000000
_cell_angle_gamma 90.000000
_cell_volume 1530.375443
_symmetry_space_group_name_H-M "P 4/N"
_symmetry_group_IT_number 85
_symmetry_cell_setting 'tetragonal'
loop_
_space_group_symop_operation_xyz
x,y,z
1/2-y,x,z
1/2-x,1/2-y,z
y,1/2-x,z
-x,-y,-z
1/2+y,-x,-z
1/2+x,1/2+y,-z
-y,1/2+x,-z
loop_
_atom_site_type_symbol
_atom_site_label
_atom_site_fract_x
_atom_site_fract_y
_atom_site_fract_z
Si Si1 0.343435 0.422841 0.001373
Si Si2 0.250000 0.750000 0.500000
Si Si3 0.498710 0.489301 0.806101
Si Si4 0.073816 0.159651 0.366082
Si Si5 0.510009 0.303237 0.609907
Si Si6 0.250000 0.250000 0.644577
O O1 0.205619 0.403099 0.012289
O O2 0.400104 0.501909 0.098511
O O3 0.380940 0.467801 0.877788
O O4 0.257257 0.633446 0.577817
O O5 0.497873 0.609357 0.735362
O O6 0.526634 0.390296 0.714466
O O7 0.201664 0.098519 0.357832
O O8 0.022275 0.136763 0.489443
O O9 0.393567 0.227093 0.638218
#
# Coordination Sequence:
#
# PCOD9544689 Si02
#       6
#     8   2   8   8   8   2
#     4  10  24  47  70  97 132 189 258 320 388 465
#     4  12  32  44  72 120 178 192 240 324 404 430
#     4  11  25  40  71 104 139 185 249 321 374 438
#     4  11  21  40  70 105 147 194 248 300 371 467
#     4  12  26  47  71 116 154 205 247 310 375 462
#     4  12  28  48  80 108 154 216 272 288 356 482
#
# _framework density 23.523638999999999
#
# number of rings (size 3 to 8) (size 9 to 14) (size 15 to 20)
#    0.000    0.889    2.222    3.333    6.222    1.778 
#    0.000    0.000    0.000   11.333    0.000    0.000 
#    0.000    0.000    0.000    0.000    0.000    0.000 
#
# Total GULP energy -201016.468437 kJ/mol
# GULP energy per Si atom -5583.790790 kJ/mol
# Density = 2.347010 g / cm^3
# Si number density = 23.523639 Si / 1000 Ang^3
#
#
#
# Elastic Constant Matrix: (Units=GPa)
#
#
# Indices 1 2 3 4 5 6 
#
# 1 105.1140 43.4795 34.0088 0.0000 0.0000 -8.9988
# 2 43.4795 105.1140 34.0088 0.0000 0.0000 8.9988
# 3 34.0088 34.0088 131.6355 0.0000 0.0000 0.0000
# 4 0.0000 0.0000 0.0000 33.6131 0.0000 0.0000
# 5 0.0000 0.0000 0.0000 0.0000 33.6131 0.0000
# 6 -8.9988 8.9988 0.0000 0.0000 0.0000 31.3056
#
#
#
# Elastic Compliance Matrix: (Units=1/GPa)
#
#
# Indices 1 2 3 4 5 6 
#
# 1 0.012672 -0.005039 -0.001972 0.000000 0.000000 0.005091
# 2 -0.005039 0.012672 -0.001972 0.000000 0.000000 -0.005091
# 3 -0.001972 -0.001972 0.008616 0.000000 0.000000 0.000000
# 4 0.000000 0.000000 0.000000 0.029750 0.000000 0.000000
# 5 0.000000 0.000000 0.000000 0.000000 0.029750 0.000000
# 6 0.005091 -0.005091 0.000000 0.000000 0.000000 0.034870
#
#
# Mechanical properties :
#
#
# Convention : Reuss Voigt Hill
#
# Bulk Modulus (GPa) = 62.52776 62.76199 62.64488
# Shear Modulus (GPa) = 32.97557 35.06412 34.01985
#
# Velocity S-wave (km/s) = 3.74813 3.86501 3.80702
# Velocity P-wave (km/s) = 6.73571 6.83052 6.78328
#
# Compressibility (1/GPa) = 0.01599290
#
# Stress axis : x y z
#
# Youngs Moduli (GPa) = 78.91506 78.91506 116.06823
#
# Poissons Ratio (x) = 0.39769 0.22887
# Poissons Ratio (y) = 0.39769 0.22887
# Poissons Ratio (z) = 0.15561 0.15561
#
# Static dielectric constant tensor:
#      x y z
#    x 1.916510 0.000000 0.000000 
#    y 0.000000 1.916510 0.000000 
#    z 0.000000 0.000000 1.882230 
# 
# From -- ./inp_files/1543.got.cif
#   From: 2010.05.17/outbox.cif.g08.bks.cpg/sg85_cif.got.tgz:1543.got - 2010.06.03 19:01:16.
