data_PCOD9544802
_publ_section_title
;
Structure prediction by ZEFSAII (Michael W. Deem and Ramdas Pophale) SiO2 
 PCOD9544802
Probable space group: P 4/N
;
_chemical_formula_sum "Si O2"
_cell_formula_units_Z 56
_cell_length_a 14.349636
_cell_length_b 14.349636
_cell_length_c 12.459239
_cell_angle_alpha 90.000000
_cell_angle_beta 90.000000
_cell_angle_gamma 90.000000
_cell_volume 2565.507485
_symmetry_space_group_name_H-M "P 4/N"
_symmetry_group_IT_number 85
_symmetry_cell_setting 'tetragonal'
loop_
_space_group_symop_operation_xyz
x,y,z
1/2-y,x,z
1/2-x,1/2-y,z
y,1/2-x,z
-x,-y,-z
1/2+y,-x,-z
1/2+x,1/2+y,-z
-y,1/2+x,-z
loop_
_atom_site_type_symbol
_atom_site_label
_atom_site_fract_x
_atom_site_fract_y
_atom_site_fract_z
Si Si1 0.876991 0.220526 0.939677
Si Si2 0.415736 0.986853 0.351473
Si Si3 0.155238 0.369710 0.179754
Si Si4 0.371734 0.008758 0.586000
Si Si5 0.092910 0.449993 0.962883
Si Si6 0.228895 0.858644 0.690748
Si Si7 0.139075 0.353357 0.762262
O O1 0.861626 0.254869 0.819054
O O2 0.802038 0.142288 0.974931
O O3 0.976113 0.175108 0.950621
O O4 0.358106 0.011947 0.459015
O O5 0.393938 0.876740 0.332604
O O6 0.390714 0.048572 0.248917
O O7 0.521439 0.014967 0.383682
O O8 0.123968 0.264945 0.204728
O O9 0.128399 0.381279 0.054842
O O10 0.301020 0.933012 0.637543
O O11 0.367502 0.110388 0.641489
O O12 0.075739 0.407633 0.845754
O O13 0.000000 0.500000 0.000000
O O14 0.250000 0.750000 0.656982
O O15 0.124293 0.246324 0.785283
#
# Coordination Sequence:
#
# PCOD9544802 Si02
#       7
#     8   8   8   8   8   8   8
#     4  11  24  43  65 101 139 185 232 287 359 438
#     4  11  28  47  76 106 148 192 251 313 374 452
#     4  11  27  47  70 101 146 198 248 302 373 453
#     4  11  26  47  72 107 142 190 245 308 376 441
#     4  12  26  40  71 102 141 190 240 302 374 440
#     4  12  26  46  74 108 149 192 248 309 382 444
#     4  11  24  44  71 100 138 187 243 304 363 444
#
# _framework density 21.828040000000001
#
# number of rings (size 3 to 8) (size 9 to 14) (size 15 to 20)
#    0.000    0.714    2.857    3.429    8.000    3.429 
#    0.000    1.429    0.000    0.000    0.000    0.000 
#    0.000    0.000    0.000    0.000    0.000    0.000 
#
# Total GULP energy -312977.749957 kJ/mol
# GULP energy per Si atom -5588.888392 kJ/mol
# Density = 2.177836 g / cm^3
# Si number density = 21.828040 Si / 1000 Ang^3
#
#
#
# Elastic Constant Matrix: (Units=GPa)
#
#
# Indices 1 2 3 4 5 6 
#
# 1 19.2273 62.4450 9.0324 0.0000 0.0000 29.3256
# 2 62.4450 19.2273 9.0324 0.0000 0.0000 -29.3256
# 3 9.0324 9.0324 91.0564 0.0000 0.0000 0.0000
# 4 0.0000 0.0000 0.0000 25.7647 0.0000 0.0000
# 5 0.0000 0.0000 0.0000 0.0000 25.7647 0.0000
# 6 29.3256 -29.3256 0.0000 0.0000 0.0000 12.4856
#
#
#
# Elastic Compliance Matrix: (Units=1/GPa)
#
#
# Indices 1 2 3 4 5 6 
#
# 1 0.003497 0.009022 -0.001242 0.000000 0.000000 0.012978
# 2 0.009022 0.003497 -0.001242 0.000000 0.000000 -0.012978
# 3 -0.001242 -0.001242 0.011229 0.000000 0.000000 0.000000
# 4 0.000000 0.000000 0.000000 0.038813 0.000000 0.000000
# 5 0.000000 0.000000 0.000000 0.000000 0.038813 0.000000
# 6 0.012978 -0.012978 0.000000 0.000000 0.000000 0.019126
#
#
# Mechanical properties :
#
#
# Convention : Reuss Voigt Hill
#
# Bulk Modulus (GPa) = 31.95008 32.28116 32.11562
# Shear Modulus (GPa) = 44.51187 16.06973 30.29080
#
# Velocity S-wave (km/s) = 4.52066 2.71624 3.72923
# Velocity P-wave (km/s) = 6.47436 4.96570 5.76956
#
# Compressibility (1/GPa) = 0.03129882
#
# Stress axis : x y z
#
# Youngs Moduli (GPa) = 285.99675 285.99675 89.05852
#
# Poissons Ratio (x) = -2.58032 0.11059
# Poissons Ratio (y) = -2.58032 0.11059
# Poissons Ratio (z) = 0.35515 0.35515
#
# Static dielectric constant tensor:
#      x y z
#    x 1.820230 0.000000 0.000000 
#    y 0.000000 1.820230 0.000000 
#    z 0.000000 0.000000 1.840130 
# 
# From -- ./inp_files/1738.got.cif
#   From: 2010.05.17/outbox.cif.g08.bks.cpg/sg85_cif.got.tgz:1738.got - 2010.06.03 19:01:16.
