data_PCOD9544554
_publ_section_title
;
Structure prediction by ZEFSAII (Michael W. Deem and Ramdas Pophale) SiO2 
 PCOD9544554
Probable space group: P 4/N
;
_chemical_formula_sum "Si O2"
_cell_formula_units_Z 38
_cell_length_a 8.067012
_cell_length_b 8.067012
_cell_length_c 27.240760
_cell_angle_alpha 90.000000
_cell_angle_beta 90.000000
_cell_angle_gamma 90.000000
_cell_volume 1772.738293
_symmetry_space_group_name_H-M "P 4/N"
_symmetry_group_IT_number 85
_symmetry_cell_setting 'tetragonal'
loop_
_space_group_symop_operation_xyz
x,y,z
1/2-y,x,z
1/2-x,1/2-y,z
y,1/2-x,z
-x,-y,-z
1/2+y,-x,-z
1/2+x,1/2+y,-z
-y,1/2+x,-z
loop_
_atom_site_type_symbol
_atom_site_label
_atom_site_fract_x
_atom_site_fract_y
_atom_site_fract_z
Si Si1 0.515896 0.336194 0.084744
Si Si2 0.004492 0.851723 0.241582
Si Si3 0.599420 0.511009 0.657945
Si Si4 0.041806 0.432705 0.446563
Si Si5 0.250000 0.750000 0.000000
Si Si6 0.750000 0.250000 0.832942
O O1 0.354715 0.451228 0.086472
O O2 0.639596 0.361222 0.130425
O O3 0.624162 0.348396 0.035385
O O4 0.839717 0.957326 0.234125
O O5 0.149693 0.874952 0.202433
O O6 0.054591 0.893702 0.297130
O O7 0.799644 0.531601 0.661200
O O8 0.525038 0.453170 0.605035
O O9 0.025731 0.235299 0.444282
O O10 0.000000 0.500000 0.500000
#
# Coordination Sequence:
#
# PCOD9544554 Si02
#       6
#     8   8   8   8   2   4
#     4  10  21  37  59  87 117 154 200 243 289 354
#     4  11  23  37  55  81 111 143 184 237 292 343
#     4   9  19  37  58  78 105 145 188 230 281 342
#     4   9  19  35  54  78 108 141 179 223 273 333
#     4  10  20  36  60  88 124 156 188 246 308 346
#     4  11  22  39  58  80 114 155 194 241 294 352
#
# _framework density 21.435765
#
# number of rings (size 3 to 8) (size 9 to 14) (size 15 to 20)
#    0.000    2.105    0.000    4.421    0.000    2.105 
#    0.000    8.421    0.000   10.105    0.000    0.000 
#    0.000    0.000    0.000    0.000    0.000    0.000 
#
# Total GULP energy -211874.780527 kJ/mol
# GULP energy per Si atom -5575.652119 kJ/mol
# Density = 2.138698 g / cm^3
# Si number density = 21.435765 Si / 1000 Ang^3
#
#
#
# Elastic Constant Matrix: (Units=GPa)
#
#
# Indices 1 2 3 4 5 6 
#
# 1 44.7983 -6.9248 32.8795 0.0000 0.0000 -3.6754
# 2 -6.9248 44.7983 32.8795 0.0000 0.0000 3.6754
# 3 32.8795 32.8795 192.8718 0.0000 0.0000 0.0000
# 4 0.0000 0.0000 0.0000 32.5650 0.0000 0.0000
# 5 0.0000 0.0000 0.0000 0.0000 32.5650 0.0000
# 6 -3.6754 3.6754 0.0000 0.0000 0.0000 17.8172
#
#
#
# Elastic Compliance Matrix: (Units=1/GPa)
#
#
# Indices 1 2 3 4 5 6 
#
# 1 0.028711 0.008793 -0.006394 0.000000 0.000000 0.004109
# 2 0.008793 0.028711 -0.006394 0.000000 0.000000 -0.004109
# 3 -0.006394 -0.006394 0.007365 0.000000 0.000000 0.000000
# 4 0.000000 0.000000 0.000000 0.030708 0.000000 0.000000
# 5 0.000000 0.000000 0.000000 0.000000 0.030708 0.000000
# 6 0.004109 -0.004109 0.000000 0.000000 0.000000 0.057821
#
#
# Mechanical properties :
#
#
# Convention : Reuss Voigt Hill
#
# Bulk Modulus (GPa) = 17.60573 44.45964 31.03269
# Shear Modulus (GPa) = 23.70303 31.49840 27.60072
#
# Velocity S-wave (km/s) = 3.32892 3.83748 3.59221
# Velocity P-wave (km/s) = 4.79653 6.35774 5.63150
#
# Compressibility (1/GPa) = 0.05679970
#
# Stress axis : x y z
#
# Youngs Moduli (GPa) = 34.82971 34.82971 135.78391
#
# Poissons Ratio (x) = -0.30627 0.86814
# Poissons Ratio (y) = -0.30627 0.86814
# Poissons Ratio (z) = 0.22268 0.22268
#
# Static dielectric constant tensor:
#      x y z
#    x 1.815360 0.000000 0.000000 
#    y 0.000000 1.815360 0.000000 
#    z 0.000000 0.000000 1.804160 
# 
# From -- ./inp_files/2327.got.cif
#   From: 2010.05.17/outbox.cif.g08.bks.cpg/sg85_cif.got.tgz:2327.got - 2010.06.03 19:01:16.
