data_PCOD9544081
_publ_section_title
;
Structure prediction by ZEFSAII (Michael W. Deem and Ramdas Pophale) SiO2 
 PCOD9544081
Probable space group: P 42/M
;
_chemical_formula_sum "Si O2"
_cell_formula_units_Z 40
_cell_length_a 15.267429
_cell_length_b 15.267429
_cell_length_c 7.831942
_cell_angle_alpha 90.000000
_cell_angle_beta 90.000000
_cell_angle_gamma 90.000000
_cell_volume 1825.581729
_symmetry_space_group_name_H-M "P 42/M"
_symmetry_group_IT_number 84
_symmetry_cell_setting 'tetragonal'
loop_
_space_group_symop_operation_xyz
x,y,z
-y,x,1/2+z
-x,-y,z
y,-x,1/2+z
-x,-y,-z
y,-x,1/2-z
x,y,-z
-y,x,1/2-z
loop_
_atom_site_type_symbol
_atom_site_label
_atom_site_fract_x
_atom_site_fract_y
_atom_site_fract_z
Si Si1 0.602000 0.210702 0.791917
Si Si2 0.087602 0.749689 0.800435
Si Si3 0.911173 0.453073 0.704020
Si Si4 0.774026 0.108090 0.206895
Si Si5 0.592420 0.399615 0.195681
O O1 0.509224 0.171969 0.732356
O O2 0.677437 0.142417 0.747277
O O3 0.626481 0.307988 0.732472
O O4 0.599947 0.218155 0.000000
O O5 0.092546 0.650276 0.734182
O O6 0.156430 0.820231 0.729481
O O7 0.989612 0.785048 0.773869
O O8 0.107025 0.742851 0.000000
O O9 0.912485 0.465080 0.500000
O O10 0.000000 0.500000 0.770167
O O11 0.778362 0.103527 0.000000
O O12 0.486781 0.388408 0.199909
O O13 0.620710 0.413533 0.000000
#
# Coordination Sequence:
#
# PCOD9544081 Si02
#       5
#     8   8   8   8   8
#     4   9  19  36  58  82 109 153 198 229 280 358
#     4  11  24  39  62  94 120 151 197 253 300 341
#     4  10  19  37  64  85 113 157 193 226 287 358
#     4  10  22  43  63  82 119 161 197 240 301 366
#     4  10  20  35  54  77 111 150 194 235 283 342
#
# _framework density 21.910826
#
# number of rings (size 3 to 8) (size 9 to 14) (size 15 to 20)
#    0.000    2.000    2.000    1.800    2.800    2.400 
#    0.000    5.000    0.000    0.000    0.000    0.000 
#    0.000    0.000    0.000    0.000    0.000    0.000 
#
# Total GULP energy -223393.709341 kJ/mol
# GULP energy per Si atom -5584.842734 kJ/mol
# Density = 2.186096 g / cm^3
# Si number density = 21.910826 Si / 1000 Ang^3
#
#
#
# Elastic Constant Matrix: (Units=GPa)
#
#
# Indices 1 2 3 4 5 6 
#
# 1 72.8912 10.8043 -15.2681 0.0000 0.0000 13.1520
# 2 10.8043 72.8912 -15.2681 0.0000 0.0000 -13.1520
# 3 -15.2681 -15.2681 24.9536 0.0000 0.0000 0.0000
# 4 0.0000 0.0000 0.0000 28.3052 0.0000 0.0000
# 5 0.0000 0.0000 0.0000 0.0000 28.3052 0.0000
# 6 13.1520 -13.1520 0.0000 0.0000 0.0000 36.2735
#
#
#
# Elastic Compliance Matrix: (Units=1/GPa)
#
#
# Indices 1 2 3 4 5 6 
#
# 1 0.017206 -0.001824 0.009412 0.000000 0.000000 -0.006900
# 2 -0.001824 0.017206 0.009412 0.000000 0.000000 0.006900
# 3 0.009412 0.009412 0.051591 0.000000 0.000000 0.000000
# 4 0.000000 0.000000 0.000000 0.035329 0.000000 0.000000
# 5 0.000000 0.000000 0.000000 0.000000 0.035329 0.000000
# 6 -0.006900 0.006900 0.000000 0.000000 0.000000 0.032572
#
#
# Mechanical properties :
#
#
# Convention : Reuss Voigt Hill
#
# Bulk Modulus (GPa) = 8.33325 14.58579 11.45952
# Shear Modulus (GPa) = 25.61014 31.27463 28.44238
#
# Velocity S-wave (km/s) = 3.42253 3.78214 3.60682
# Velocity P-wave (km/s) = 4.40793 5.07387 4.75257
#
# Compressibility (1/GPa) = 0.12000119
#
# Stress axis : x y z
#
# Youngs Moduli (GPa) = 58.12008 58.12008 19.38309
#
# Poissons Ratio (x) = 0.10600 -0.18242
# Poissons Ratio (y) = 0.10600 -0.18242
# Poissons Ratio (z) = -0.54700 -0.54700
#
# Static dielectric constant tensor:
#      x y z
#    x 1.804340 0.000000 0.000000 
#    y 0.000000 1.804340 0.000000 
#    z 0.000000 0.000000 1.794340 
# 
# From -- ./inp_files/759.got.cif
#   From: 2010.05.17/outbox.cif.g08.bks.cpg/sg84_1_cif.got.tgz:759.got - 2010.06.03 18:57:40.
