data_PCOD9544291
_publ_section_title
;
Structure prediction by ZEFSAII (Michael W. Deem and Ramdas Pophale) SiO2 
 PCOD9544291
Probable space group: P 42/M
;
_chemical_formula_sum "Si O2"
_cell_formula_units_Z 56
_cell_length_a 14.862191
_cell_length_b 14.862191
_cell_length_c 13.881530
_cell_angle_alpha 90.000000
_cell_angle_beta 90.000000
_cell_angle_gamma 90.000000
_cell_volume 3066.217886
_symmetry_space_group_name_H-M "P 42/M"
_symmetry_group_IT_number 84
_symmetry_cell_setting 'tetragonal'
loop_
_space_group_symop_operation_xyz
x,y,z
-y,x,1/2+z
-x,-y,z
y,-x,1/2+z
-x,-y,-z
y,-x,1/2-z
x,y,-z
-y,x,1/2-z
loop_
_atom_site_type_symbol
_atom_site_label
_atom_site_fract_x
_atom_site_fract_y
_atom_site_fract_z
Si Si1 0.573290 0.074806 0.271082
Si Si2 0.378669 0.782514 0.111317
Si Si3 0.095136 0.101635 0.781556
Si Si4 0.741627 0.022303 0.396773
Si Si5 0.790437 0.455772 0.114561
Si Si6 0.359677 0.468281 0.246923
Si Si7 0.176435 0.745133 0.159257
O O1 0.590737 0.133934 0.176552
O O2 0.668366 0.042235 0.314214
O O3 0.524976 0.131959 0.355455
O O4 0.500000 0.000000 0.247060
O O5 0.419200 0.698088 0.170613
O O6 0.270298 0.777613 0.115294
O O7 0.407295 0.784550 0.000000
O O8 0.062928 0.160990 0.871407
O O9 0.186002 0.150129 0.744961
O O10 0.006244 0.110010 0.711354
O O11 0.709451 0.056579 0.500000
O O12 0.750836 0.915006 0.400603
O O13 0.701601 0.501723 0.157525
O O14 0.807953 0.362063 0.171575
O O15 0.786903 0.438173 0.000000
O O16 0.404087 0.559703 0.285820
#
# Coordination Sequence:
#
# PCOD9544291 Si02
#       7
#     8   8   8   8   8   8   8
#     4  11  23  39  59  85 119 155 189 242 295 349
#     4  11  23  40  60  84 114 153 197 239 286 349
#     4   9  20  39  60  83 122 160 191 238 292 352
#     4  11  21  36  61  90 119 153 193 243 300 352
#     4  11  22  36  57  86 118 149 193 242 290 347
#     4  10  22  38  57  82 114 152 190 236 293 344
#     4  11  20  36  62  86 115 152 195 240 291 344
#
# _framework density 18.263542000000001
#
# number of rings (size 3 to 8) (size 9 to 14) (size 15 to 20)
#    0.000    1.429    4.286    1.714    0.000    1.429 
#    0.000    8.571    0.000    3.429    0.000    0.000 
#    0.000    0.000    0.000    0.000    0.000    0.000 
#
# Total GULP energy -311851.632817 kJ/mol
# GULP energy per Si atom -5568.779157 kJ/mol
# Density = 1.822197 g / cm^3
# Si number density = 18.263542 Si / 1000 Ang^3
#
#
#
# Elastic Constant Matrix: (Units=GPa)
#
#
# Indices 1 2 3 4 5 6 
#
# 1 100.0244 33.2328 38.7596 0.0000 0.0000 -0.0511
# 2 33.2328 100.0244 38.7596 0.0000 0.0000 0.0511
# 3 38.7596 38.7596 77.9445 0.0000 0.0000 0.0000
# 4 0.0000 0.0000 0.0000 -25.5080 0.0000 0.0000
# 5 0.0000 0.0000 0.0000 0.0000 -25.5080 0.0000
# 6 -0.0511 0.0511 0.0000 0.0000 0.0000 32.2626
#
#
#
# Elastic Compliance Matrix: (Units=1/GPa)
#
#
# Indices 1 2 3 4 5 6 
#
# 1 0.012765 -0.002207 -0.005251 0.000000 0.000000 0.000024
# 2 -0.002207 0.012765 -0.005251 0.000000 0.000000 -0.000024
# 3 -0.005251 -0.005251 0.018052 0.000000 0.000000 0.000000
# 4 0.000000 0.000000 0.000000 -0.039203 0.000000 0.000000
# 5 0.000000 0.000000 0.000000 0.000000 -0.039203 0.000000
# 6 0.000024 -0.000024 0.000000 0.000000 0.000000 0.030996
#
#
# Mechanical properties :
#
#
# Convention : Reuss Voigt Hill
#
# Bulk Modulus (GPa) = 55.04564 55.49968 55.27266
# Shear Modulus (GPa) = 180.88302 7.39872 94.14087
#
# Velocity S-wave (km/s) = 9.96271 2.01492 7.18733
# Velocity P-wave (km/s) = 12.74934 5.98894 9.96025
#
# Compressibility (1/GPa) = 0.01816674
#
# Stress axis : x y z
#
# Youngs Moduli (GPa) = 78.33726 78.33726 55.39698
#
# Poissons Ratio (x) = 0.17286 0.29086
# Poissons Ratio (y) = 0.17286 0.29086
# Poissons Ratio (z) = 0.41131 0.41131
#
# Static dielectric constant tensor:
#      x y z
#    x 1.645330 0.000000 0.000000 
#    y 0.000000 1.645330 0.000000 
#    z 0.000000 0.000000 1.606310 
# 
# From -- ./inp_files/2226.got.cif
#   From: 2010.05.17/outbox.cif.g08.bks.cpg/sg84_2_cif.got.tgz:2226.got - 2010.06.03 18:57:40.
