data_PCOD9544256
_publ_section_title
;
Structure prediction by ZEFSAII (Michael W. Deem and Ramdas Pophale) SiO2 
 PCOD9544256
Probable space group: P 42/M
;
_chemical_formula_sum "Si O2"
_cell_formula_units_Z 32
_cell_length_a 8.200448
_cell_length_b 8.200448
_cell_length_c 22.182061
_cell_angle_alpha 90.000000
_cell_angle_beta 90.000000
_cell_angle_gamma 90.000000
_cell_volume 1491.684762
_symmetry_space_group_name_H-M "P 42/M"
_symmetry_group_IT_number 84
_symmetry_cell_setting 'tetragonal'
loop_
_space_group_symop_operation_xyz
x,y,z
-y,x,1/2+z
-x,-y,z
y,-x,1/2+z
-x,-y,-z
y,-x,1/2-z
x,y,-z
-y,x,1/2-z
loop_
_atom_site_type_symbol
_atom_site_label
_atom_site_fract_x
_atom_site_fract_y
_atom_site_fract_z
Si Si1 0.826150 0.499062 0.889462
Si Si2 0.860336 0.307811 0.630691
Si Si3 0.661160 0.176773 0.929614
Si Si4 0.243317 0.590010 0.756252
O O1 0.776195 0.687667 0.883850
O O2 0.715159 0.363806 0.921008
O O3 0.836572 0.428406 0.821159
O O4 0.000000 0.500000 0.920214
O O5 0.835829 0.482084 0.598629
O O6 0.864107 0.335864 0.702751
O O7 0.032061 0.240530 0.605339
O O8 0.661781 0.136836 0.000000
O O9 0.409145 0.695476 0.762647
#
# Coordination Sequence:
#
# PCOD9544256 Si02
#       4
#     8   8   8   8
#     4  11  24  38  60  95 128 167 203 259 325 383
#     4  10  21  39  65  92 120 164 212 265 313 370
#     4  11  24  42  65  91 122 168 219 261 308 373
#     4   9  17  34  62  92 124 156 201 259 317 368
#
# _framework density 21.452255999999998
#
# number of rings (size 3 to 8) (size 9 to 14) (size 15 to 20)
#    0.000    1.750    2.500    2.250    3.500    4.500 
#    0.000    1.250    0.000    3.000    0.000    0.000 
#    0.000    0.000    0.000    0.000    0.000    0.000 
#
# Total GULP energy -178503.131394 kJ/mol
# GULP energy per Si atom -5578.222856 kJ/mol
# Density = 2.140343 g / cm^3
# Si number density = 21.452256 Si / 1000 Ang^3
#
#
#
# Elastic Constant Matrix: (Units=GPa)
#
#
# Indices 1 2 3 4 5 6 
#
# 1 43.4367 -4.4136 -10.9201 0.0000 0.0000 10.6587
# 2 -4.4136 43.4367 -10.9201 0.0000 0.0000 -10.6587
# 3 -10.9201 -10.9201 83.2296 0.0000 0.0000 0.0000
# 4 0.0000 0.0000 0.0000 38.4949 0.0000 0.0000
# 5 0.0000 0.0000 0.0000 0.0000 38.4949 0.0000
# 6 10.6587 -10.6587 0.0000 0.0000 0.0000 -0.6837
#
#
#
# Elastic Compliance Matrix: (Units=1/GPa)
#
#
# Indices 1 2 3 4 5 6 
#
# 1 0.015143 0.012513 0.003629 0.000000 0.000000 0.041006
# 2 0.012513 0.015143 0.003629 0.000000 0.000000 -0.041006
# 3 0.003629 0.003629 0.012967 0.000000 0.000000 0.000000
# 4 0.000000 0.000000 0.000000 0.025977 0.000000 0.000000
# 5 0.000000 0.000000 0.000000 0.000000 0.025977 0.000000
# 6 0.041006 -0.041006 0.000000 0.000000 0.000000 -0.184089
#
#
# Mechanical properties :
#
#
# Convention : Reuss Voigt Hill
#
# Bulk Modulus (GPa) = 12.07799 13.06617 12.57208
# Shear Modulus (GPa) = -49.59208 28.35167 -10.62020
#
# Velocity S-wave (km/s) = -4.81327 3.63935 -2.22741
# Velocity P-wave (km/s) = 5.02471 4.87482 0.86136
#
# Compressibility (1/GPa) = 0.08279526
#
# Stress axis : x y z
#
# Youngs Moduli (GPa) = 66.03518 66.03518 77.11795
#
# Poissons Ratio (x) = -0.82632 -0.27984
# Poissons Ratio (y) = -0.82632 -0.27984
# Poissons Ratio (z) = -0.23962 -0.23962
#
# Static dielectric constant tensor:
#      x y z
#    x 1.690790 0.000000 0.000000 
#    y 0.000000 1.690790 0.000000 
#    z 0.000000 0.000000 1.775350 
# 
# From -- ./inp_files/4109.got.cif
#   From: 2010.05.17/outbox.cif.g08.bks.cpg/sg84_3_cif.got.tgz:4109.got - 2010.06.03 18:57:40.
