data_PCOD9544971
_publ_section_title
;
Structure prediction by ZEFSAII (Michael W. Deem and Ramdas Pophale) SiO2 
 PCOD9544971
Probable space group: P 42/N
;
_chemical_formula_sum "Si O2"
_cell_formula_units_Z 48
_cell_length_a 13.602519
_cell_length_b 13.602519
_cell_length_c 11.814968
_cell_angle_alpha 90.000000
_cell_angle_beta 90.000000
_cell_angle_gamma 90.000000
_cell_volume 2186.106080
_symmetry_space_group_name_H-M "P 42/N"
_symmetry_group_IT_number 86
_space_group.IT_coordinate_system_code '2'
_symmetry_cell_setting 'tetragonal'
loop_
_space_group_symop_operation_xyz
x,y,z
-y,1/2+x,1/2+z
1/2-x,1/2-y,z
1/2+y,-x,1/2+z
-x,-y,-z
y,1/2-x,1/2-z
1/2+x,1/2+y,-z
1/2-y,x,1/2-z
loop_
_atom_site_type_symbol
_atom_site_label
_atom_site_fract_x
_atom_site_fract_y
_atom_site_fract_z
Si Si1 0.642651 0.299411 0.301325
Si Si2 0.450322 0.592751 0.065166
Si Si3 0.889210 0.072788 0.690759
Si Si4 0.208619 0.933157 0.898857
Si Si5 0.979518 0.329776 0.956962
Si Si6 0.674870 0.608513 0.248708
O O1 0.750000 0.250000 0.314686
O O2 0.570942 0.215631 0.255089
O O3 0.649055 0.368802 0.191253
O O4 0.634148 0.374868 0.405093
O O5 0.459246 0.567950 0.199164
O O6 0.500000 0.500000 0.000000
O O7 0.336455 0.590909 0.020183
O O8 0.478369 0.708463 0.041632
O O9 0.909015 0.179807 0.634916
O O10 0.877324 0.004437 0.580489
O O11 0.181870 0.043096 0.863157
O O12 0.056619 0.364535 0.861959
O O13 0.627670 0.711412 0.223396
#
# Coordination Sequence:
#
# PCOD9544971 Si02
#       6
#     8   8   8   8   8   8
#     4   9  16  30  56  83 115 146 182 234 293 368
#     4  12  23  36  56  87 129 159 193 258 317 363
#     4  11  21  35  57  93 119 160 191 242 319 374
#     4  10  20  33  60  88 120 152 200 240 306 367
#     4  11  21  36  60  87 119 151 205 251 299 373
#     4  10  21  41  64  82 112 163 216 251 289 358
#
# _framework density 21.956848000000001
#
# number of rings (size 3 to 8) (size 9 to 14) (size 15 to 20)
#    0.000    1.500    6.667    2.000    0.000    0.000 
#    0.000    2.500    0.000    0.000    0.000    2.333 
#    0.000    0.000    0.000    0.000    0.000    0.000 
#
# Total GULP energy -267435.717088 kJ/mol
# GULP energy per Si atom -5571.577439 kJ/mol
# Density = 2.190687 g / cm^3
# Si number density = 21.956848 Si / 1000 Ang^3
#
#
#
# Elastic Constant Matrix: (Units=GPa)
#
#
# Indices 1 2 3 4 5 6 
#
# 1 44.0138 -6.8181 15.5958 0.0000 0.0000 1.3345
# 2 -6.8181 44.0138 15.5958 0.0000 0.0000 -1.3345
# 3 15.5958 15.5958 180.3269 0.0000 0.0000 0.0000
# 4 0.0000 0.0000 0.0000 27.1968 0.0000 0.0000
# 5 0.0000 0.0000 0.0000 0.0000 27.1968 0.0000
# 6 1.3345 -1.3345 0.0000 0.0000 0.0000 14.2135
#
#
#
# Elastic Compliance Matrix: (Units=1/GPa)
#
#
# Indices 1 2 3 4 5 6 
#
# 1 0.024379 0.004608 -0.002507 0.000000 0.000000 -0.001856
# 2 0.004608 0.024379 -0.002507 0.000000 0.000000 0.001856
# 3 -0.002507 -0.002507 0.005979 0.000000 0.000000 0.000000
# 4 0.000000 0.000000 0.000000 0.036769 0.000000 0.000000
# 5 0.000000 0.000000 0.000000 0.000000 0.036769 0.000000
# 6 -0.001856 0.001856 0.000000 0.000000 0.000000 0.070704
#
#
# Mechanical properties :
#
#
# Convention : Reuss Voigt Hill
#
# Bulk Modulus (GPa) = 18.54415 35.23351 26.88883
# Shear Modulus (GPa) = 22.96054 29.98681 26.47367
#
# Velocity S-wave (km/s) = 3.23725 3.69957 3.47611
# Velocity P-wave (km/s) = 4.73679 5.85923 5.32765
#
# Compressibility (1/GPa) = 0.05392537
#
# Stress axis : x y z
#
# Youngs Moduli (GPa) = 41.01955 41.01955 167.24853
#
# Poissons Ratio (x) = -0.18904 0.41929
# Poissons Ratio (y) = -0.18904 0.41929
# Poissons Ratio (z) = 0.10284 0.10284
#
# Static dielectric constant tensor:
#      x y z
#    x 1.892110 0.000000 0.000000 
#    y 0.000000 1.892110 0.000000 
#    z 0.000000 0.000000 1.843450 
# 
# From -- ./inp_files/2289.got.cif
#   From: 2010.05.17/outbox.cif.g08.bks.cpg/sg86_2_cif.got.tgz:2289.got - 2010.06.03 19:03:11.
