data_PCOD9544312
_publ_section_title
;
Structure prediction by ZEFSAII (Michael W. Deem and Ramdas Pophale) SiO2 
 PCOD9544312
Probable space group: P 42/M
;
_chemical_formula_sum "Si O2"
_cell_formula_units_Z 48
_cell_length_a 9.078396
_cell_length_b 9.078396
_cell_length_c 27.991638
_cell_angle_alpha 90.000000
_cell_angle_beta 90.000000
_cell_angle_gamma 90.000000
_cell_volume 2306.994497
_symmetry_space_group_name_H-M "P 42/M"
_symmetry_group_IT_number 84
_symmetry_cell_setting 'tetragonal'
loop_
_space_group_symop_operation_xyz
x,y,z
-y,x,1/2+z
-x,-y,z
y,-x,1/2+z
-x,-y,-z
y,-x,1/2-z
x,y,-z
-y,x,1/2-z
loop_
_atom_site_type_symbol
_atom_site_label
_atom_site_fract_x
_atom_site_fract_y
_atom_site_fract_z
Si Si1 0.831844 0.482897 0.711893
Si Si2 0.527712 0.171722 0.598254
Si Si3 0.803814 0.346889 0.388560
Si Si4 0.632683 0.302615 0.945971
Si Si5 0.032261 0.168682 0.556172
Si Si6 0.417553 0.338592 0.309372
O O1 0.820877 0.368474 0.668193
O O2 0.734634 0.450532 0.758424
O O3 0.755886 0.628227 0.690148
O O4 0.000000 0.500000 0.725483
O O5 0.698330 0.209544 0.601068
O O6 0.460791 0.294086 0.562492
O O7 0.463019 0.227717 0.649079
O O8 0.500000 0.000000 0.588528
O O9 0.738405 0.498071 0.410984
O O10 0.951225 0.296980 0.414436
O O11 0.777398 0.199952 0.939702
O O12 0.578652 0.283943 0.000000
O O13 0.989584 0.177328 0.500000
O O14 0.000000 0.000000 0.571538
O O15 0.500000 0.500000 0.315206
#
# Coordination Sequence:
#
# PCOD9544312 Si02
#       6
#     8   8   8   8   8   8
#     4  12  23  38  68  97 122 162 214 263 320 382
#     4  12  25  41  63  94 128 167 216 274 337 388
#     4  12  23  40  64  95 125 170 219 275 324 395
#     4  11  23  40  64  94 128 171 222 272 323 400
#     4  10  22  41  63  92 133 177 216 268 338 399
#     4  12  21  44  68  90 127 168 213 264 318 397
#
# _framework density 20.806291000000002
#
# number of rings (size 3 to 8) (size 9 to 14) (size 15 to 20)
#    0.000    0.500    5.000    4.000    0.000    3.667 
#    0.000    0.000    0.000    0.000    0.000    0.000 
#    0.000    0.000    0.000    0.000    0.000    0.000 
#
# Total GULP energy -267925.464973 kJ/mol
# GULP energy per Si atom -5581.780520 kJ/mol
# Density = 2.075893 g / cm^3
# Si number density = 20.806291 Si / 1000 Ang^3
#
#
#
# Elastic Constant Matrix: (Units=GPa)
#
#
# Indices 1 2 3 4 5 6 
#
# 1 84.2098 -4.7209 -3.3712 0.0000 0.0000 -1.2493
# 2 -4.7209 84.2098 -3.3712 0.0000 0.0000 1.2493
# 3 -3.3712 -3.3712 55.8972 0.0000 0.0000 0.0000
# 4 0.0000 0.0000 0.0000 26.4267 0.0000 0.0000
# 5 0.0000 0.0000 0.0000 0.0000 26.4267 0.0000
# 6 -1.2493 1.2493 0.0000 0.0000 0.0000 32.6414
#
#
#
# Elastic Compliance Matrix: (Units=1/GPa)
#
#
# Indices 1 2 3 4 5 6 
#
# 1 0.011951 0.000694 0.000763 0.000000 0.000000 0.000431
# 2 0.000694 0.011951 0.000763 0.000000 0.000000 -0.000431
# 3 0.000763 0.000763 0.017982 0.000000 0.000000 0.000000
# 4 0.000000 0.000000 0.000000 0.037840 0.000000 0.000000
# 5 0.000000 0.000000 0.000000 0.000000 0.037840 0.000000
# 6 0.000431 -0.000431 0.000000 0.000000 0.000000 0.030669
#
#
# Mechanical properties :
#
#
# Convention : Reuss Voigt Hill
#
# Bulk Modulus (GPa) = 21.58770 22.37667 21.98218
# Shear Modulus (GPa) = 31.39999 32.81766 32.10883
#
# Velocity S-wave (km/s) = 3.88900 3.97583 3.93265
# Velocity P-wave (km/s) = 5.52846 5.64397 5.58651
#
# Compressibility (1/GPa) = 0.04632268
#
# Stress axis : x y z
#
# Youngs Moduli (GPa) = 83.67544 83.67544 55.61119
#
# Poissons Ratio (x) = -0.05808 -0.04241
# Poissons Ratio (y) = -0.05808 -0.04241
# Poissons Ratio (z) = -0.06381 -0.06381
#
# Static dielectric constant tensor:
#      x y z
#    x 1.838180 0.000000 0.000000 
#    y 0.000000 1.838180 0.000000 
#    z 0.000000 0.000000 1.787150 
# 
# From -- ./inp_files/5797.got.cif
#   From: 2010.05.17/outbox.cif.g08.bks.cpg/sg84_3_cif.got.tgz:5797.got - 2010.06.03 18:57:40.
