data_PCOD9544109
_publ_section_title
;
Structure prediction by ZEFSAII (Michael W. Deem and Ramdas Pophale) SiO2 
 PCOD9544109
Probable space group: P 42/M
;
_chemical_formula_sum "Si O2"
_cell_formula_units_Z 56
_cell_length_a 11.964021
_cell_length_b 11.964021
_cell_length_c 21.325025
_cell_angle_alpha 90.000000
_cell_angle_beta 90.000000
_cell_angle_gamma 90.000000
_cell_volume 3052.417131
_symmetry_space_group_name_H-M "P 42/M"
_symmetry_group_IT_number 84
_symmetry_cell_setting 'tetragonal'
loop_
_space_group_symop_operation_xyz
x,y,z
-y,x,1/2+z
-x,-y,z
y,-x,1/2+z
-x,-y,-z
y,-x,1/2-z
x,y,-z
-y,x,1/2-z
loop_
_atom_site_type_symbol
_atom_site_label
_atom_site_fract_x
_atom_site_fract_y
_atom_site_fract_z
Si Si1 0.860023 0.883785 0.741860
Si Si2 0.402961 0.651059 0.740586
Si Si3 0.103032 0.346607 0.925155
Si Si4 0.715938 0.780981 0.148770
Si Si5 0.867122 0.497025 0.571055
Si Si6 0.297065 0.777299 0.149032
Si Si7 0.151172 0.603616 0.075512
O O1 0.764066 0.851968 0.792459
O O2 0.844349 0.806854 0.680059
O O3 0.983290 0.857025 0.769457
O O4 0.533880 0.640115 0.731651
O O5 0.334968 0.672562 0.678058
O O6 0.371377 0.743773 0.790957
O O7 0.178657 0.252465 0.893884
O O8 0.147196 0.471638 0.909567
O O9 0.971866 0.347526 0.908226
O O10 0.109136 0.335843 0.000000
O O11 0.611917 0.832461 0.111366
O O12 0.821553 0.487560 0.500000
O O13 0.832442 0.614784 0.602031
O O14 0.000000 0.500000 0.568143
O O15 0.242631 0.671779 0.113702
O O16 0.166070 0.614567 0.000000
#
# Coordination Sequence:
#
# PCOD9544109 Si02
#       7
#     8   8   8   8   8   8   8
#     4  10  22  38  58  84 112 144 190 248 298 342
#     4  10  20  34  52  78 110 140 174 224 268 320
#     4   9  18  33  54  82 114 146 185 233 281 335
#     4  11  20  36  58  80 109 151 187 230 281 347
#     4  11  24  40  57  81 113 149 192 239 284 337
#     4  11  20  36  58  80 109 151 187 230 281 347
#     4   9  18  33  54  82 114 146 185 233 281 335
#
# _framework density 18.346115999999999
#
# number of rings (size 3 to 8) (size 9 to 14) (size 15 to 20)
#    0.000    1.857    1.429    4.286    0.000    0.000 
#    0.000    0.000    0.000    3.429    0.000   12.000 
#    0.000    0.000    0.000    0.000    0.000    0.000 
#
# Total GULP energy -312258.405578 kJ/mol
# GULP energy per Si atom -5576.042957 kJ/mol
# Density = 1.830436 g / cm^3
# Si number density = 18.346116 Si / 1000 Ang^3
#
#
#
# Elastic Constant Matrix: (Units=GPa)
#
#
# Indices 1 2 3 4 5 6 
#
# 1 52.6944 16.8103 30.0320 0.0000 0.0000 -1.5827
# 2 16.8103 52.6944 30.0320 0.0000 0.0000 1.5827
# 3 30.0320 30.0320 70.8573 0.0000 0.0000 0.0000
# 4 0.0000 0.0000 0.0000 20.5656 0.0000 0.0000
# 5 0.0000 0.0000 0.0000 0.0000 20.5656 0.0000
# 6 -1.5827 1.5827 0.0000 0.0000 0.0000 34.0252
#
#
#
# Elastic Compliance Matrix: (Units=1/GPa)
#
#
# Indices 1 2 3 4 5 6 
#
# 1 0.025343 -0.002640 -0.009622 0.000000 0.000000 0.001302
# 2 -0.002640 0.025343 -0.009622 0.000000 0.000000 -0.001302
# 3 -0.009622 -0.009622 0.022270 0.000000 0.000000 0.000000
# 4 0.000000 0.000000 0.000000 0.048625 0.000000 0.000000
# 5 0.000000 0.000000 0.000000 0.000000 0.048625 0.000000
# 6 0.001302 -0.001302 0.000000 0.000000 0.000000 0.029511
#
#
# Mechanical properties :
#
#
# Convention : Reuss Voigt Hill
#
# Bulk Modulus (GPa) = 34.26313 36.66607 35.46460
# Shear Modulus (GPa) = 19.74620 21.65605 20.70113
#
# Velocity S-wave (km/s) = 3.28428 3.43945 3.36276
# Velocity P-wave (km/s) = 5.75313 5.98349 5.86944
#
# Compressibility (1/GPa) = 0.02918589
#
# Stress axis : x y z
#
# Youngs Moduli (GPa) = 39.45922 39.45922 44.90446
#
# Poissons Ratio (x) = 0.10416 0.43209
# Poissons Ratio (y) = 0.10416 0.43209
# Poissons Ratio (z) = 0.37969 0.37969
#
# Static dielectric constant tensor:
#      x y z
#    x 1.632020 0.000000 0.000000 
#    y 0.000000 1.632020 0.000000 
#    z 0.000000 0.000000 1.643200 
# 
# From -- ./inp_files/4481.got.cif
#   From: 2010.05.17/outbox.cif.g08.bks.cpg/sg84_3_cif.got.tgz:4481.got - 2010.06.03 18:57:40.
