data_PCOD9544470
_publ_section_title
;
Structure prediction by ZEFSAII (Michael W. Deem and Ramdas Pophale) SiO2 
 PCOD9544470
Probable space group: P 42/M
;
_chemical_formula_sum "Si O2"
_cell_formula_units_Z 32
_cell_length_a 9.531836
_cell_length_b 9.531836
_cell_length_c 18.353192
_cell_angle_alpha 90.000000
_cell_angle_beta 90.000000
_cell_angle_gamma 90.000000
_cell_volume 1667.495732
_symmetry_space_group_name_H-M "P 42/M"
_symmetry_group_IT_number 84
_symmetry_cell_setting 'tetragonal'
loop_
_space_group_symop_operation_xyz
x,y,z
-y,x,1/2+z
-x,-y,z
y,-x,1/2+z
-x,-y,-z
y,-x,1/2-z
x,y,-z
-y,x,1/2-z
loop_
_atom_site_type_symbol
_atom_site_label
_atom_site_fract_x
_atom_site_fract_y
_atom_site_fract_z
Si Si1 0.542486 0.720061 0.774150
Si Si2 0.159850 0.991963 0.412545
Si Si3 0.300283 0.319278 0.085085
Si Si4 0.861185 0.422994 0.134426
O O1 0.652911 0.608867 0.739503
O O2 0.581741 0.730292 0.858388
O O3 0.558507 0.851409 0.721327
O O4 0.157869 0.002837 0.500000
O O5 0.231677 0.841386 0.395821
O O6 0.261261 0.115406 0.384277
O O7 0.000000 0.000000 0.385637
O O8 0.264631 0.483756 0.101032
O O9 0.331952 0.300555 0.000000
O O10 0.000000 0.500000 0.104656
#
# Coordination Sequence:
#
# PCOD9544470 Si02
#       4
#     8   8   8   8
#     4   9  18  34  51  71  99 124 160 212 250 287
#     4   9  17  31  49  74 104 130 163 208 249 294
#     4   9  17  32  53  73  97 133 169 203 246 300
#     4   9  17  32  52  74  95 132 170 204 245 300
#
# _framework density 19.190453999999999
#
# number of rings (size 3 to 8) (size 9 to 14) (size 15 to 20)
#    0.000    3.000    0.000    0.750    0.000    3.000 
#   13.500   11.250    0.000    0.750    0.000    0.000 
#    0.000    0.000    0.000    0.000    0.000    0.000 
#
# Total GULP energy -178165.791522 kJ/mol
# GULP energy per Si atom -5567.680985 kJ/mol
# Density = 1.914678 g / cm^3
# Si number density = 19.190454 Si / 1000 Ang^3
#
#
#
# Elastic Constant Matrix: (Units=GPa)
#
#
# Indices 1 2 3 4 5 6 
#
# 1 58.6913 11.7756 9.4164 0.0000 0.0000 -2.5252
# 2 11.7756 58.6913 9.4164 0.0000 0.0000 2.5252
# 3 9.4164 9.4164 77.8988 0.0000 0.0000 0.0000
# 4 0.0000 0.0000 0.0000 25.3821 0.0000 0.0000
# 5 0.0000 0.0000 0.0000 0.0000 25.3821 0.0000
# 6 -2.5252 2.5252 0.0000 0.0000 0.0000 8.2583
#
#
#
# Elastic Compliance Matrix: (Units=1/GPa)
#
#
# Indices 1 2 3 4 5 6 
#
# 1 0.018353 -0.003688 -0.001773 0.000000 0.000000 0.006739
# 2 -0.003688 0.018353 -0.001773 0.000000 0.000000 -0.006739
# 3 -0.001773 -0.001773 0.013266 0.000000 0.000000 0.000000
# 4 0.000000 0.000000 0.000000 0.039398 0.000000 0.000000
# 5 0.000000 0.000000 0.000000 0.000000 0.039398 0.000000
# 6 0.006739 -0.006739 0.000000 0.000000 0.000000 0.125212
#
#
# Mechanical properties :
#
#
# Convention : Reuss Voigt Hill
#
# Bulk Modulus (GPa) = 28.16536 28.49983 28.33259
# Shear Modulus (GPa) = 17.83931 22.78271 20.31101
#
# Velocity S-wave (km/s) = 3.05223 3.44930 3.25682
# Velocity P-wave (km/s) = 5.20866 5.54498 5.37945
#
# Compressibility (1/GPa) = 0.03550461
#
# Stress axis : x y z
#
# Youngs Moduli (GPa) = 54.48831 54.48831 75.38222
#
# Poissons Ratio (x) = 0.20094 0.13363
# Poissons Ratio (y) = 0.20094 0.13363
# Poissons Ratio (z) = 0.09659 0.09659
#
# Static dielectric constant tensor:
#      x y z
#    x 1.705460 0.000000 0.000000 
#    y 0.000000 1.705460 0.000000 
#    z 0.000000 0.000000 1.676810 
# 
# From -- ./inp_files/4091.got.cif
#   From: 2010.05.17/outbox.cif.g08.bks.cpg/sg84_3_cif.got.tgz:4091.got - 2010.06.03 18:57:40.
