data_PCOD9544639
_publ_section_title
;
Structure prediction by ZEFSAII (Michael W. Deem and Ramdas Pophale) SiO2 
 PCOD9544639
Probable space group: P 4/N
;
_chemical_formula_sum "Si O2"
_cell_formula_units_Z 58
_cell_length_a 19.078093
_cell_length_b 19.078093
_cell_length_c 8.121096
_cell_angle_alpha 90.000000
_cell_angle_beta 90.000000
_cell_angle_gamma 90.000000
_cell_volume 2955.864811
_symmetry_space_group_name_H-M "P 4/N"
_symmetry_group_IT_number 85
_symmetry_cell_setting 'tetragonal'
loop_
_space_group_symop_operation_xyz
x,y,z
1/2-y,x,z
1/2-x,1/2-y,z
y,1/2-x,z
-x,-y,-z
1/2+y,-x,-z
1/2+x,1/2+y,-z
-y,1/2+x,-z
loop_
_atom_site_type_symbol
_atom_site_label
_atom_site_fract_x
_atom_site_fract_y
_atom_site_fract_z
Si Si1 0.750000 0.250000 0.500000
Si Si2 0.735874 0.126290 0.761557
Si Si3 0.998024 0.144416 0.376035
Si Si4 0.205270 0.355633 0.269123
Si Si5 0.372168 0.622829 0.034127
Si Si6 0.015434 0.549945 0.155108
Si Si7 0.784179 0.640514 0.127566
Si Si8 0.987748 0.866129 0.248204
O O1 0.735748 0.184183 0.619104
O O2 0.701142 0.054963 0.698316
O O3 0.813617 0.114139 0.828611
O O4 0.686788 0.148176 0.915187
O O5 0.984545 0.071858 0.278428
O O6 0.076640 0.171487 0.349753
O O7 0.983041 0.137127 0.568388
O O8 0.161282 0.285909 0.312348
O O9 0.207110 0.365915 0.070695
O O10 0.447722 0.636289 0.119564
O O11 0.382213 0.553789 0.920554
O O12 0.939347 0.555063 0.234706
O O13 0.000000 0.500000 0.000000
O O14 0.834727 0.705872 0.170756
O O15 0.806112 0.568226 0.209481
#
# Coordination Sequence:
#
# PCOD9544639 Si02
#       8
#     2   8   8   8   8   8   8   8
#     4  12  24  42  64  88 120 154 192 264 324 358
#     4  11  23  41  63  87 117 153 201 252 306 368
#     4  11  23  37  58  90 122 155 196 249 308 363
#     4   9  19  37  59  83 115 156 198 239 291 357
#     4  10  22  40  62  86 113 158 204 244 298 367
#     4   9  20  38  59  82 115 154 197 243 293 356
#     4   9  19  37  60  84 114 156 202 244 292 363
#     4  11  22  38  59  89 124 157 197 249 306 363
#
# _framework density 19.622005999999999
#
# number of rings (size 3 to 8) (size 9 to 14) (size 15 to 20)
#    0.000    1.931    0.000    5.379    0.000    6.621 
#    0.000    6.897    0.000    0.000    0.000    0.000 
#    0.000    0.000    0.000    0.000    0.000    0.000 
#
# Total GULP energy -323888.442639 kJ/mol
# GULP energy per Si atom -5584.283494 kJ/mol
# Density = 1.957735 g / cm^3
# Si number density = 19.622006 Si / 1000 Ang^3
#
#
#
# Elastic Constant Matrix: (Units=GPa)
#
#
# Indices 1 2 3 4 5 6 
#
# 1 73.1067 20.1707 21.9800 0.0000 0.0000 9.2439
# 2 20.1707 73.1067 21.9800 0.0000 0.0000 -9.2439
# 3 21.9800 21.9800 73.2264 0.0000 0.0000 0.0000
# 4 0.0000 0.0000 0.0000 51.7393 0.0000 0.0000
# 5 0.0000 0.0000 0.0000 0.0000 51.7393 0.0000
# 6 9.2439 -9.2439 0.0000 0.0000 0.0000 14.0597
#
#
#
# Elastic Compliance Matrix: (Units=1/GPa)
#
#
# Indices 1 2 3 4 5 6 
#
# 1 0.018504 -0.006017 -0.003748 0.000000 0.000000 -0.016122
# 2 -0.006017 0.018504 -0.003748 0.000000 0.000000 0.016122
# 3 -0.003748 -0.003748 0.015906 0.000000 0.000000 0.000000
# 4 0.000000 0.000000 0.000000 0.019328 0.000000 0.000000
# 5 0.000000 0.000000 0.000000 0.000000 0.019328 0.000000
# 6 -0.016122 0.016122 0.000000 0.000000 0.000000 0.092325
#
#
# Mechanical properties :
#
#
# Convention : Reuss Voigt Hill
#
# Bulk Modulus (GPa) = 38.62804 38.63348 38.63076
# Shear Modulus (GPa) = 22.77369 33.86161 28.31765
#
# Velocity S-wave (km/s) = 3.41048 4.15866 3.80301
# Velocity P-wave (km/s) = 5.93610 6.54147 6.24613
#
# Compressibility (1/GPa) = 0.02588793
#
# Stress axis : x y z
#
# Youngs Moduli (GPa) = 54.04158 54.04158 62.86763
#
# Poissons Ratio (x) = 0.32517 0.23564
# Poissons Ratio (y) = 0.32517 0.23564
# Poissons Ratio (z) = 0.20256 0.20256
#
# Static dielectric constant tensor:
#      x y z
#    x 1.678740 0.000000 0.000000 
#    y 0.000000 1.678740 0.000000 
#    z 0.000000 0.000000 1.706240 
# 
# From -- ./inp_files/1218.got.cif
#   From: 2010.05.17/outbox.cif.g08.bks.cpg/sg85_cif.got.tgz:1218.got - 2010.06.03 19:01:16.
