data_PCOD9544258
_publ_section_title
;
Structure prediction by ZEFSAII (Michael W. Deem and Ramdas Pophale) SiO2 
 PCOD9544258
Probable space group: P 42/M
;
_chemical_formula_sum "Si O2"
_cell_formula_units_Z 48
_cell_length_a 8.326501
_cell_length_b 8.326501
_cell_length_c 31.322476
_cell_angle_alpha 90.000000
_cell_angle_beta 90.000000
_cell_angle_gamma 90.000000
_cell_volume 2171.606647
_symmetry_space_group_name_H-M "P 42/M"
_symmetry_group_IT_number 84
_symmetry_cell_setting 'tetragonal'
loop_
_space_group_symop_operation_xyz
x,y,z
-y,x,1/2+z
-x,-y,z
y,-x,1/2+z
-x,-y,-z
y,-x,1/2-z
x,y,-z
-y,x,1/2-z
loop_
_atom_site_type_symbol
_atom_site_label
_atom_site_fract_x
_atom_site_fract_y
_atom_site_fract_z
Si Si1 0.499901 0.805492 0.908425
Si Si2 0.149441 0.196970 0.082001
Si Si3 0.606889 0.152064 0.665217
Si Si4 0.786710 0.167070 0.750558
Si Si5 0.179141 0.838162 0.950484
Si Si6 0.642159 0.604318 0.324423
O O1 0.668899 0.747225 0.928161
O O2 0.339320 0.754284 0.933315
O O3 0.488063 0.747896 0.859349
O O4 0.500000 0.000000 0.909418
O O5 0.116919 0.260524 0.129633
O O6 0.992307 0.248393 0.055631
O O7 0.162462 0.004332 0.076221
O O8 0.695862 0.212783 0.707328
O O9 0.469739 0.272427 0.649097
O O10 0.500000 0.000000 0.677600
O O11 0.698701 0.250252 0.790427
O O12 0.973108 0.216808 0.747124
O O13 0.199226 0.881072 0.000000
O O14 0.500000 0.500000 0.303334
#
# Coordination Sequence:
#
# PCOD9544258 Si02
#       6
#     8   8   8   8   8   8
#     4  10  23  41  68 104 134 181 234 292 343 422
#     4  10  21  39  66  97 138 178 229 278 354 420
#     4  12  25  43  66 100 137 187 227 289 353 419
#     4  11  28  46  70  99 137 184 246 299 346 403
#     4  10  22  40  72 109 137 174 236 299 355 430
#     4  12  26  44  68  99 142 187 236 281 353 426
#
# _framework density 22.103452000000001
#
# number of rings (size 3 to 8) (size 9 to 14) (size 15 to 20)
#    0.000    1.167    3.333    2.000    7.000    5.667 
#    0.000    0.000    0.000    9.500    0.000    0.000 
#    0.000    0.000    0.000    0.000    0.000    0.000 
#
# Total GULP energy -267754.523754 kJ/mol
# GULP energy per Si atom -5578.219245 kJ/mol
# Density = 2.205314 g / cm^3
# Si number density = 22.103452 Si / 1000 Ang^3
#
#
#
# Elastic Constant Matrix: (Units=GPa)
#
#
# Indices 1 2 3 4 5 6 
#
# 1 114.0527 33.1046 34.0624 0.0000 0.0000 -1.9403
# 2 33.1046 114.0527 34.0624 0.0000 0.0000 1.9403
# 3 34.0624 34.0624 82.9587 0.0000 0.0000 0.0000
# 4 0.0000 0.0000 0.0000 19.9265 0.0000 0.0000
# 5 0.0000 0.0000 0.0000 0.0000 19.9265 0.0000
# 6 -1.9403 1.9403 0.0000 0.0000 0.0000 27.5653
#
#
#
# Elastic Compliance Matrix: (Units=1/GPa)
#
#
# Indices 1 2 3 4 5 6 
#
# 1 0.010393 -0.002003 -0.003445 0.000000 0.000000 0.000872
# 2 -0.002003 0.010393 -0.003445 0.000000 0.000000 -0.000872
# 3 -0.003445 -0.003445 0.014883 0.000000 0.000000 0.000000
# 4 0.000000 0.000000 0.000000 0.050185 0.000000 0.000000
# 5 0.000000 0.000000 0.000000 0.000000 0.050185 0.000000
# 6 0.000872 -0.000872 0.000000 0.000000 0.000000 0.036400
#
#
# Mechanical properties :
#
#
# Convention : Reuss Voigt Hill
#
# Bulk Modulus (GPa) = 55.91673 57.05808 56.48741
# Shear Modulus (GPa) = 25.48619 27.47262 26.47940
#
# Velocity S-wave (km/s) = 3.39933 3.52932 3.46493
# Velocity P-wave (km/s) = 6.38435 6.51754 6.45129
#
# Compressibility (1/GPa) = 0.01788373
#
# Stress axis : x y z
#
# Youngs Moduli (GPa) = 96.22002 96.22002 67.18990
#
# Poissons Ratio (x) = 0.19269 0.23147
# Poissons Ratio (y) = 0.19269 0.23147
# Poissons Ratio (z) = 0.33148 0.33148
#
# Static dielectric constant tensor:
#      x y z
#    x 1.885130 0.000000 0.000000 
#    y 0.000000 1.885130 0.000000 
#    z 0.000000 0.000000 1.741850 
# 
# From -- ./inp_files/5798.got.cif
#   From: 2010.05.17/outbox.cif.g08.bks.cpg/sg84_3_cif.got.tgz:5798.got - 2010.06.03 18:57:40.
