data_PCOD9544791
_publ_section_title
;
Structure prediction by ZEFSAII (Michael W. Deem and Ramdas Pophale) SiO2 
 PCOD9544791
Probable space group: P 4/N
;
_chemical_formula_sum "Si O2"
_cell_formula_units_Z 40
_cell_length_a 9.417244
_cell_length_b 9.417244
_cell_length_c 23.877938
_cell_angle_alpha 90.000000
_cell_angle_beta 90.000000
_cell_angle_gamma 90.000000
_cell_volume 2117.602624
_symmetry_space_group_name_H-M "P 4/N"
_symmetry_group_IT_number 85
_symmetry_cell_setting 'tetragonal'
loop_
_space_group_symop_operation_xyz
x,y,z
1/2-y,x,z
1/2-x,1/2-y,z
y,1/2-x,z
-x,-y,-z
1/2+y,-x,-z
1/2+x,1/2+y,-z
-y,1/2+x,-z
loop_
_atom_site_type_symbol
_atom_site_label
_atom_site_fract_x
_atom_site_fract_y
_atom_site_fract_z
Si Si1 0.628750 0.415235 0.476470
Si Si2 0.541178 0.629522 0.729725
Si Si3 0.102978 0.059995 0.823203
Si Si4 0.422788 0.088076 0.952587
Si Si5 0.657429 0.533047 0.352645
O O1 0.500000 0.500000 0.500000
O O2 0.751724 0.417166 0.523311
O O3 0.665744 0.482693 0.417195
O O4 0.700456 0.563192 0.727075
O O5 0.470937 0.556746 0.784458
O O6 0.430615 0.583956 0.681233
O O7 0.274392 0.058292 0.813515
O O8 0.062908 0.033222 0.888116
O O9 0.442774 0.256159 0.959185
O O10 0.500000 0.000000 0.000000
O O11 0.821013 0.571334 0.339947
#
# Coordination Sequence:
#
# PCOD9544791 Si02
#       5
#     8   8   8   8   8
#     4  11  24  41  64  94 124 158 197 240 295 353
#     4  11  26  42  59  89 123 156 195 248 304 355
#     4   9  19  39  63  86 115 157 205 249 297 356
#     4   9  19  35  56  85 121 159 201 248 298 352
#     4  11  24  43  66  91 120 157 199 244 295 356
#
# _framework density 18.889285000000001
#
# number of rings (size 3 to 8) (size 9 to 14) (size 15 to 20)
#    0.000    1.800    2.000    2.400    2.800    7.200 
#    0.000    6.000    0.000    0.000    0.000    0.000 
#    0.000    0.000    0.000    0.000    0.000    0.000 
#
# Total GULP energy -222943.735827 kJ/mol
# GULP energy per Si atom -5573.593396 kJ/mol
# Density = 1.884629 g / cm^3
# Si number density = 18.889285 Si / 1000 Ang^3
#
#
#
# Elastic Constant Matrix: (Units=GPa)
#
#
# Indices 1 2 3 4 5 6 
#
# 1 40.3540 33.8768 15.6376 0.0000 0.0000 0.5453
# 2 33.8768 40.3540 15.6376 0.0000 0.0000 -0.5453
# 3 15.6376 15.6376 67.0791 0.0000 0.0000 0.0000
# 4 0.0000 0.0000 0.0000 36.0978 0.0000 0.0000
# 5 0.0000 0.0000 0.0000 0.0000 36.0978 0.0000
# 6 0.5453 -0.5453 0.0000 0.0000 0.0000 38.2822
#
#
#
# Elastic Compliance Matrix: (Units=1/GPa)
#
#
# Indices 1 2 3 4 5 6 
#
# 1 0.084849 -0.069910 -0.003483 0.000000 0.000000 -0.002204
# 2 -0.069910 0.084849 -0.003483 0.000000 0.000000 0.002204
# 3 -0.003483 -0.003483 0.016531 0.000000 0.000000 0.000000
# 4 0.000000 0.000000 0.000000 0.027702 0.000000 0.000000
# 5 0.000000 0.000000 0.000000 0.000000 0.027702 0.000000
# 6 -0.002204 0.002204 0.000000 0.000000 0.000000 0.026185
#
#
# Mechanical properties :
#
#
# Convention : Reuss Voigt Hill
#
# Bulk Modulus (GPa) = 30.78930 30.89903 30.84416
# Shear Modulus (GPa) = 11.56349 27.60458 19.58403
#
# Velocity S-wave (km/s) = 2.47689 3.82696 3.22340
# Velocity P-wave (km/s) = 4.95129 5.99341 5.49710
#
# Compressibility (1/GPa) = 0.03247882
#
# Stress axis : x y z
#
# Youngs Moduli (GPa) = 11.78566 11.78566 60.49066
#
# Poissons Ratio (x) = 0.82394 0.21066
# Poissons Ratio (y) = 0.82394 0.21066
# Poissons Ratio (z) = 0.04104 0.04104
#
# Static dielectric constant tensor:
#      x y z
#    x 1.594450 0.000000 0.000000 
#    y 0.000000 1.594450 0.000000 
#    z 0.000000 0.000000 1.693200 
# 
# From -- ./inp_files/2307.got.cif
#   From: 2010.05.17/outbox.cif.g08.bks.cpg/sg85_cif.got.tgz:2307.got - 2010.06.03 19:01:16.
