data_PCOD9544661
_publ_section_title
;
Structure prediction by ZEFSAII (Michael W. Deem and Ramdas Pophale) SiO2 
 PCOD9544661
Probable space group: P 4/N
;
_chemical_formula_sum "Si O2"
_cell_formula_units_Z 32
_cell_length_a 13.630395
_cell_length_b 13.630395
_cell_length_c 6.663681
_cell_angle_alpha 90.000000
_cell_angle_beta 90.000000
_cell_angle_gamma 90.000000
_cell_volume 1238.029752
_symmetry_space_group_name_H-M "P 4/N"
_symmetry_group_IT_number 85
_symmetry_cell_setting 'tetragonal'
loop_
_space_group_symop_operation_xyz
x,y,z
1/2-y,x,z
1/2-x,1/2-y,z
y,1/2-x,z
-x,-y,-z
1/2+y,-x,-z
1/2+x,1/2+y,-z
-y,1/2+x,-z
loop_
_atom_site_type_symbol
_atom_site_label
_atom_site_fract_x
_atom_site_fract_y
_atom_site_fract_z
Si Si1 0.956164 0.080565 0.305565
Si Si2 0.241166 0.521008 0.622274
Si Si3 0.080876 0.605031 0.847675
Si Si4 0.735281 0.589885 0.977340
O O1 0.001498 0.169551 0.435655
O O2 0.989865 0.303317 0.121294
O O3 0.022557 0.984123 0.268431
O O4 0.930584 0.104009 0.073840
O O5 0.184442 0.609353 0.737277
O O6 0.352651 0.552311 0.589896
O O7 0.250776 0.434307 0.785974
O O8 0.834542 0.647258 0.927419
#
# Coordination Sequence:
#
# PCOD9544661 Si02
#       4
#     8   8   8   8
#     4  10  23  40  64  98 138 187 237 292 355 427
#     4  11  22  40  65  97 137 182 236 291 355 429
#     4  10  22  44  69  98 143 192 234 292 367 434
#     4  10  22  43  71 101 135 181 238 296 355 428
#
# _framework density 25.847521
#
# number of rings (size 3 to 8) (size 9 to 14) (size 15 to 20)
#    0.000    1.750    0.000    5.250    0.000    6.500 
#    0.000    7.500    0.000    9.000    0.000    0.000 
#    0.000    0.000    0.000    0.000    0.000    0.000 
#
# Total GULP energy -178872.264364 kJ/mol
# GULP energy per Si atom -5589.758261 kJ/mol
# Density = 2.578869 g / cm^3
# Si number density = 25.847521 Si / 1000 Ang^3
#
#
#
# Elastic Constant Matrix: (Units=GPa)
#
#
# Indices 1 2 3 4 5 6 
#
# 1 142.3101 54.2580 49.7851 0.0000 0.0000 -2.5099
# 2 54.2580 142.3101 49.7851 0.0000 0.0000 2.5099
# 3 49.7851 49.7851 123.7401 0.0000 0.0000 0.0000
# 4 0.0000 0.0000 0.0000 52.3914 0.0000 0.0000
# 5 0.0000 0.0000 0.0000 0.0000 52.3914 0.0000
# 6 -2.5099 2.5099 0.0000 0.0000 0.0000 28.4047
#
#
#
# Elastic Compliance Matrix: (Units=1/GPa)
#
#
# Indices 1 2 3 4 5 6 
#
# 1 0.008902 -0.002512 -0.002571 0.000000 0.000000 0.001009
# 2 -0.002512 0.008902 -0.002571 0.000000 0.000000 -0.001009
# 3 -0.002571 -0.002571 0.010150 0.000000 0.000000 0.000000
# 4 0.000000 0.000000 0.000000 0.019087 0.000000 0.000000
# 5 0.000000 0.000000 0.000000 0.000000 0.019087 0.000000
# 6 0.001009 -0.001009 0.000000 0.000000 0.000000 0.035384
#
#
# Mechanical properties :
#
#
# Convention : Reuss Voigt Hill
#
# Bulk Modulus (GPa) = 79.07561 79.55740 79.31650
# Shear Modulus (GPa) = 41.31037 43.60630 42.45834
#
# Velocity S-wave (km/s) = 4.00213 4.11184 4.05735
# Velocity P-wave (km/s) = 7.21218 7.30680 7.25964
#
# Compressibility (1/GPa) = 0.01264612
#
# Stress axis : x y z
#
# Youngs Moduli (GPa) = 112.33508 112.33508 98.52180
#
# Poissons Ratio (x) = 0.28224 0.25327
# Poissons Ratio (y) = 0.28224 0.25327
# Poissons Ratio (z) = 0.28878 0.28878
#
# Static dielectric constant tensor:
#      x y z
#    x 2.032650 0.000000 0.000000 
#    y 0.000000 2.032650 0.000000 
#    z 0.000000 0.000000 2.155110 
# 
# From -- ./inp_files/747.got.cif
#   From: 2010.05.17/outbox.cif.g08.bks.cpg/sg85_cif.got.tgz:747.got - 2010.06.03 19:01:16.
