data_PCOD9544462
_publ_section_title
;
Structure prediction by ZEFSAII (Michael W. Deem and Ramdas Pophale) SiO2 
 PCOD9544462
Probable space group: P 42/M
;
_chemical_formula_sum "Si O2"
_cell_formula_units_Z 18
_cell_length_a 5.323511
_cell_length_b 5.323511
_cell_length_c 26.149462
_cell_angle_alpha 90.000000
_cell_angle_beta 90.000000
_cell_angle_gamma 90.000000
_cell_volume 741.069722
_symmetry_space_group_name_H-M "P 42/M"
_symmetry_group_IT_number 84
_symmetry_cell_setting 'tetragonal'
loop_
_space_group_symop_operation_xyz
x,y,z
-y,x,1/2+z
-x,-y,z
y,-x,1/2+z
-x,-y,-z
y,-x,1/2-z
x,y,-z
-y,x,1/2-z
loop_
_atom_site_type_symbol
_atom_site_label
_atom_site_fract_x
_atom_site_fract_y
_atom_site_fract_z
Si Si1 0.500000 0.000000 0.316389
Si Si2 0.349024 0.755382 0.113955
Si Si3 0.500000 0.500000 0.750000
Si Si4 0.165895 0.751951 0.000000
O O1 0.719218 0.909531 0.355188
O O2 0.449035 0.757097 0.281370
O O3 0.500000 0.500000 0.124069
O O4 0.500000 0.000000 0.130720
O O5 0.314183 0.761124 0.052980
O O6 0.000000 0.500000 0.000000
O O7 0.000000 0.000000 0.000000
#
# Coordination Sequence:
#
# PCOD9544462 Si02
#       4
#     4   8   2   4
#     4  12  30  57  82 120 158 215 278 344 420 482
#     4  12  27  49  81 116 164 214 264 329 404 494
#     4  12  32  52  84 114 160 208 280 356 408 482
#     4  12  24  44  76 119 167 209 261 323 398 491
#
# _framework density 24.289216
#
# number of rings (size 3 to 8) (size 9 to 14) (size 15 to 20)
#    0.000    0.000    4.444    4.000    3.111    4.444 
#    0.000    0.000    0.000    0.000    0.000    0.000 
#    0.000    0.000    0.000    0.000    0.000    0.000 
#
# Total GULP energy -100841.766451 kJ/mol
# GULP energy per Si atom -5602.320358 kJ/mol
# Density = 2.423393 g / cm^3
# Si number density = 24.289216 Si / 1000 Ang^3
#
#
#
# Elastic Constant Matrix: (Units=GPa)
#
#
# Indices 1 2 3 4 5 6 
#
# 1 192.1341 87.3178 66.1024 0.0000 0.0000 -0.8442
# 2 87.3178 192.1341 66.1024 0.0000 0.0000 0.8442
# 3 66.1024 66.1024 161.1570 0.0000 0.0000 0.0000
# 4 0.0000 0.0000 0.0000 -303.4724 0.0000 0.0000
# 5 0.0000 0.0000 0.0000 0.0000 -303.4724 0.0000
# 6 -0.8442 0.8442 0.0000 0.0000 0.0000 65.2932
#
#
#
# Elastic Compliance Matrix: (Units=1/GPa)
#
#
# Indices 1 2 3 4 5 6 
#
# 1 0.006991 -0.002551 -0.001821 0.000000 0.000000 0.000123
# 2 -0.002551 0.006991 -0.001821 0.000000 0.000000 -0.000123
# 3 -0.001821 -0.001821 0.007699 0.000000 0.000000 0.000000
# 4 0.000000 0.000000 0.000000 -0.003295 0.000000 0.000000
# 5 0.000000 0.000000 0.000000 0.000000 -0.003295 0.000000
# 6 0.000123 -0.000123 0.000000 0.000000 0.000000 0.015319
#
#
# Mechanical properties :
#
#
# Convention : Reuss Voigt Hill
#
# Bulk Modulus (GPa) = 107.59124 109.38562 108.48843
# Shear Modulus (GPa) = 108.94367 -86.60348 11.17010
#
# Velocity S-wave (km/s) = 6.70448 -5.97767 2.14681
# Velocity P-wave (km/s) = 10.21398 1.58460 7.13493
#
# Compressibility (1/GPa) = 0.00929444
#
# Stress axis : x y z
#
# Youngs Moduli (GPa) = 143.03600 143.03600 129.88490
#
# Poissons Ratio (x) = 0.36492 0.23654
# Poissons Ratio (y) = 0.36492 0.23654
# Poissons Ratio (z) = 0.26049 0.26049
#
# Static dielectric constant tensor:
#      x y z
#    x 1.681690 0.000000 0.000000 
#    y 0.000000 1.681690 0.000000 
#    z 0.000000 0.000000 2.078350 
# 
# From -- ./inp_files/4615.got.cif
#   From: 2010.05.17/outbox.cif.g08.bks.cpg/sg84_3_cif.got.tgz:4615.got - 2010.06.03 18:57:40.
