data_PCOD9544561
_publ_section_title
;
Structure prediction by ZEFSAII (Michael W. Deem and Ramdas Pophale) SiO2 
 PCOD9544561
Probable space group: P 4/N
;
_chemical_formula_sum "Si O2"
_cell_formula_units_Z 42
_cell_length_a 14.877843
_cell_length_b 14.877843
_cell_length_c 9.031026
_cell_angle_alpha 90.000000
_cell_angle_beta 90.000000
_cell_angle_gamma 90.000000
_cell_volume 1999.019523
_symmetry_space_group_name_H-M "P 4/N"
_symmetry_group_IT_number 85
_symmetry_cell_setting 'tetragonal'
loop_
_space_group_symop_operation_xyz
x,y,z
1/2-y,x,z
1/2-x,1/2-y,z
y,1/2-x,z
-x,-y,-z
1/2+y,-x,-z
1/2+x,1/2+y,-z
-y,1/2+x,-z
loop_
_atom_site_type_symbol
_atom_site_label
_atom_site_fract_x
_atom_site_fract_y
_atom_site_fract_z
Si Si1 0.452071 0.766373 0.843615
Si Si2 0.250000 0.250000 0.725853
Si Si3 0.924998 0.858600 0.367011
Si Si4 0.936759 0.171063 0.867266
Si Si5 0.839483 0.310025 0.661276
Si Si6 0.185604 0.001631 0.458711
O O1 0.385493 0.846151 0.899020
O O2 0.398341 0.694558 0.742952
O O3 0.513808 0.811499 0.718235
O O4 0.483120 0.711088 0.986286
O O5 0.162918 0.181662 0.712410
O O6 0.892764 0.941375 0.465730
O O7 0.963532 0.779843 0.472937
O O8 0.996919 0.882249 0.240850
O O9 0.904564 0.256012 0.770747
O O10 0.750000 0.250000 0.647823
O O11 0.898040 0.326136 0.513347
#
# Coordination Sequence:
#
# PCOD9544561 Si02
#       6
#     8   2   8   8   8   8
#     4  11  21  35  56  89 125 165 201 253 315 383
#     4   8  16  40  72  78 108 160 216 246 308 380
#     4   9  20  41  63  89 117 164 212 264 313 376
#     4  10  20  37  58  86 129 163 204 248 319 383
#     4   9  20  33  56  87 118 157 201 245 314 382
#     4  10  22  38  63  88 119 161 215 261 311 374
#
# _framework density 21.010300000000001
#
# number of rings (size 3 to 8) (size 9 to 14) (size 15 to 20)
#    0.000    2.286    1.905    0.000    8.000    0.762 
#    0.000    6.667    0.000    4.571    0.000    0.000 
#    0.000    0.000    0.000    0.000    0.000    0.000 
#
# Total GULP energy -233816.344521 kJ/mol
# GULP energy per Si atom -5567.055822 kJ/mol
# Density = 2.096248 g / cm^3
# Si number density = 21.010300 Si / 1000 Ang^3
#
#
#
# Elastic Constant Matrix: (Units=GPa)
#
#
# Indices 1 2 3 4 5 6 
#
# 1 68.9774 9.6985 28.3173 0.0000 0.0000 -0.8680
# 2 9.6985 68.9774 28.3173 0.0000 0.0000 0.8680
# 3 28.3173 28.3173 139.4785 0.0000 0.0000 0.0000
# 4 0.0000 0.0000 0.0000 20.0386 0.0000 0.0000
# 5 0.0000 0.0000 0.0000 0.0000 20.0386 0.0000
# 6 -0.8680 0.8680 0.0000 0.0000 0.0000 20.0231
#
#
#
# Elastic Compliance Matrix: (Units=1/GPa)
#
#
# Indices 1 2 3 4 5 6 
#
# 1 0.015888 -0.001002 -0.003022 0.000000 0.000000 0.000732
# 2 -0.001002 0.015888 -0.003022 0.000000 0.000000 -0.000732
# 3 -0.003022 -0.003022 0.008397 0.000000 0.000000 0.000000
# 4 0.000000 0.000000 0.000000 0.049904 0.000000 0.000000
# 5 0.000000 0.000000 0.000000 0.000000 0.049904 0.000000
# 6 0.000732 -0.000732 0.000000 0.000000 0.000000 0.050006
#
#
# Mechanical properties :
#
#
# Convention : Reuss Voigt Hill
#
# Bulk Modulus (GPa) = 38.34392 45.56661 41.95526
# Shear Modulus (GPa) = 23.49918 26.09342 24.79630
#
# Velocity S-wave (km/s) = 3.34797 3.52793 3.43913
# Velocity P-wave (km/s) = 5.76497 6.19112 5.98184
#
# Compressibility (1/GPa) = 0.02607976
#
# Stress axis : x y z
#
# Youngs Moduli (GPa) = 62.93917 62.93917 119.09441
#
# Poissons Ratio (x) = 0.06310 0.35992
# Poissons Ratio (y) = 0.06310 0.35992
# Poissons Ratio (z) = 0.19021 0.19021
#
# Static dielectric constant tensor:
#      x y z
#    x 1.779210 0.000000 0.000000 
#    y 0.000000 1.779210 0.000000 
#    z 0.000000 0.000000 1.816800 
# 
# From -- ./inp_files/963.got.cif
#   From: 2010.05.17/outbox.cif.g08.bks.cpg/sg85_cif.got.tgz:963.got - 2010.06.03 19:01:16.
