data_PCOD9544859
_publ_section_title
;
Structure prediction by ZEFSAII (Michael W. Deem and Ramdas Pophale) SiO2 
 PCOD9544859
Probable space group: P 42/N
;
_chemical_formula_sum "Si O2"
_cell_formula_units_Z 54
_cell_length_a 11.411097
_cell_length_b 11.411097
_cell_length_c 22.255994
_cell_angle_alpha 90.000000
_cell_angle_beta 90.000000
_cell_angle_gamma 90.000000
_cell_volume 2898.022746
_symmetry_space_group_name_H-M "P 42/N"
_symmetry_group_IT_number 86
_space_group.IT_coordinate_system_code '2'
_symmetry_cell_setting 'tetragonal'
loop_
_space_group_symop_operation_xyz
x,y,z
-y,1/2+x,1/2+z
1/2-x,1/2-y,z
1/2+y,-x,1/2+z
-x,-y,-z
y,1/2-x,1/2-z
1/2+x,1/2+y,-z
1/2-y,x,1/2-z
loop_
_atom_site_type_symbol
_atom_site_label
_atom_site_fract_x
_atom_site_fract_y
_atom_site_fract_z
Si Si1 0.473698 0.102615 0.267314
Si Si2 0.505001 0.671247 0.534458
Si Si3 0.292152 0.882714 0.157730
Si Si4 0.750000 0.750000 0.941239
Si Si5 0.433373 0.089834 0.809726
Si Si6 0.922089 0.086789 0.584383
Si Si7 0.750000 0.750000 0.250000
Si Si8 0.745649 0.955150 0.655186
O O1 0.539665 0.209408 0.299467
O O2 0.419545 0.158358 0.205960
O O3 0.376613 0.044147 0.309852
O O4 0.562479 0.004024 0.244461
O O5 0.436221 0.722578 0.591115
O O6 0.629464 0.733901 0.523044
O O7 0.541804 0.541304 0.557937
O O8 0.427650 0.666320 0.474467
O O9 0.250000 0.750000 0.159705
O O10 0.429334 0.885545 0.176316
O O11 0.858935 0.764051 0.896344
O O12 0.354586 0.197850 0.790376
O O13 0.382218 0.022281 0.867609
O O14 0.802091 0.067979 0.621887
#
# Coordination Sequence:
#
# PCOD9544859 Si02
#       8
#     8   8   8   4   8   8   2   8
#     4  11  18  33  56  89 124 147 185 251 317 364
#     4   9  17  32  51  78 112 150 192 239 282 351
#     4  11  21  35  57  85 121 155 191 243 308 356
#     4  10  16  26  50  88 109 149 192 236 304 342
#     4  10  22  38  57  86 111 158 197 238 290 358
#     4   8  18  33  52  79 111 149 189 234 291 341
#     4  12  24  42  60  72 114 160 212 224 266 364
#     4  10  17  27  52  86 121 142 178 244 307 364
#
# _framework density 18.633392000000001
#
# number of rings (size 3 to 8) (size 9 to 14) (size 15 to 20)
#    0.000    2.074    2.963    2.667    0.000    0.593 
#    0.000    0.000    3.259    0.889    0.000    0.000 
#    0.000    0.000    0.000    0.000    0.000    0.000 
#
# Total GULP energy -300908.012029 kJ/mol
# GULP energy per Si atom -5572.370593 kJ/mol
# Density = 1.859098 g / cm^3
# Si number density = 18.633392 Si / 1000 Ang^3
#
#
#
# Elastic Constant Matrix: (Units=GPa)
#
#
# Indices 1 2 3 4 5 6 
#
# 1 70.4145 28.3650 36.0907 0.0000 0.0000 3.6972
# 2 28.3650 70.4145 36.0907 0.0000 0.0000 -3.6972
# 3 36.0907 36.0907 90.9004 0.0000 0.0000 0.0000
# 4 0.0000 0.0000 0.0000 11.3617 0.0000 0.0000
# 5 0.0000 0.0000 0.0000 0.0000 11.3617 0.0000
# 6 3.6972 -3.6972 0.0000 0.0000 0.0000 24.4649
#
#
#
# Elastic Compliance Matrix: (Units=1/GPa)
#
#
# Indices 1 2 3 4 5 6 
#
# 1 0.019346 -0.005085 -0.005662 0.000000 0.000000 -0.003692
# 2 -0.005085 0.019346 -0.005662 0.000000 0.000000 0.003692
# 3 -0.005662 -0.005662 0.015497 0.000000 0.000000 0.000000
# 4 0.000000 0.000000 0.000000 0.088015 0.000000 0.000000
# 5 0.000000 0.000000 0.000000 0.000000 0.088015 0.000000
# 6 -0.003692 0.003692 0.000000 0.000000 0.000000 0.041991
#
#
# Mechanical properties :
#
#
# Convention : Reuss Voigt Hill
#
# Bulk Modulus (GPa) = 46.79291 48.09132 47.44212
# Shear Modulus (GPa) = 16.01783 18.18318 17.10051
#
# Velocity S-wave (km/s) = 2.93513 3.12723 3.03270
# Velocity P-wave (km/s) = 6.05422 6.23736 6.14647
#
# Compressibility (1/GPa) = 0.02137076
#
# Stress axis : x y z
#
# Youngs Moduli (GPa) = 51.69049 51.69049 64.52775
#
# Poissons Ratio (x) = 0.26284 0.36537
# Poissons Ratio (y) = 0.26284 0.36537
# Poissons Ratio (z) = 0.29268 0.29268
#
# Static dielectric constant tensor:
#      x y z
#    x 1.665420 0.000000 0.000000 
#    y 0.000000 1.665420 0.000000 
#    z 0.000000 0.000000 1.654650 
# 
# From -- ./inp_files/4235.got.cif
#   From: 2010.05.17/outbox.cif.g08.bks.cpg/sg86_3_cif.got.tgz:4235.got - 2010.06.03 19:03:11.
