data_PCOD9544090
_publ_section_title
;
Structure prediction by ZEFSAII (Michael W. Deem and Ramdas Pophale) SiO2 
 PCOD9544090
Probable space group: P 42/M
;
_chemical_formula_sum "Si O2"
_cell_formula_units_Z 48
_cell_length_a 8.880606
_cell_length_b 8.880606
_cell_length_c 29.137055
_cell_angle_alpha 90.000000
_cell_angle_beta 90.000000
_cell_angle_gamma 90.000000
_cell_volume 2297.898590
_symmetry_space_group_name_H-M "P 42/M"
_symmetry_group_IT_number 84
_symmetry_cell_setting 'tetragonal'
loop_
_space_group_symop_operation_xyz
x,y,z
-y,x,1/2+z
-x,-y,z
y,-x,1/2+z
-x,-y,-z
y,-x,1/2-z
x,y,-z
-y,x,1/2-z
loop_
_atom_site_type_symbol
_atom_site_label
_atom_site_fract_x
_atom_site_fract_y
_atom_site_fract_z
Si Si1 0.659605 0.589761 0.131159
Si Si2 0.288846 0.213523 0.649792
Si Si3 0.069178 0.766936 0.235690
Si Si4 0.198751 0.655618 0.551638
Si Si5 0.162709 0.521673 0.691907
Si Si6 0.705186 0.147346 0.946605
O O1 0.500000 0.500000 0.124172
O O2 0.776336 0.467291 0.147149
O O3 0.707349 0.672752 0.085339
O O4 0.631473 0.721632 0.167106
O O5 0.241843 0.074887 0.680825
O O6 0.238839 0.359348 0.681253
O O7 0.225955 0.223405 0.598082
O O8 0.121592 0.611504 0.260892
O O9 0.903353 0.819636 0.250088
O O10 0.241105 0.690761 0.500000
O O11 0.184405 0.473702 0.556027
O O12 0.032311 0.719855 0.559903
O O13 0.000000 0.500000 0.668369
O O14 0.751162 0.182887 0.000000
#
# Coordination Sequence:
#
# PCOD9544090 Si02
#       6
#     8   8   8   8   8   8
#     4  10  20  30  49  86 117 154 199 238 310 366
#     4  11  22  37  58  87 123 159 200 259 307 361
#     4  11  26  43  60  86 116 163 210 250 303 369
#     4   9  16  27  46  77 121 158 196 241 305 376
#     4  11  21  39  59  81 118 160 192 249 306 355
#     4   9  17  30  52  82 116 161 204 247 310 365
#
# _framework density 20.888652
#
# number of rings (size 3 to 8) (size 9 to 14) (size 15 to 20)
#    0.000    1.833    5.000    2.000    2.333    1.000 
#    0.000    0.000    0.000    0.000    0.000    4.667 
#    0.000    3.333    0.000    0.000    0.000    0.000 
#
# Total GULP energy -267474.295507 kJ/mol
# GULP energy per Si atom -5572.381156 kJ/mol
# Density = 2.084111 g / cm^3
# Si number density = 20.888652 Si / 1000 Ang^3
#
#
#
# Elastic Constant Matrix: (Units=GPa)
#
#
# Indices 1 2 3 4 5 6 
#
# 1 60.8674 9.5007 53.9358 0.0000 0.0000 1.5973
# 2 9.5007 60.8674 53.9358 0.0000 0.0000 -1.5973
# 3 53.9358 53.9358 137.7635 0.0000 0.0000 0.0000
# 4 0.0000 0.0000 0.0000 23.6430 0.0000 0.0000
# 5 0.0000 0.0000 0.0000 0.0000 23.6430 0.0000
# 6 1.5973 -1.5973 0.0000 0.0000 0.0000 0.9366
#
#
#
# Elastic Compliance Matrix: (Units=1/GPa)
#
#
# Indices 1 2 3 4 5 6 
#
# 1 0.028660 0.006882 -0.013915 0.000000 0.000000 -0.037141
# 2 0.006882 0.028660 -0.013915 0.000000 0.000000 0.037141
# 3 -0.013915 -0.013915 0.018155 0.000000 0.000000 0.000000
# 4 0.000000 0.000000 0.000000 0.042296 0.000000 0.000000
# 5 0.000000 0.000000 0.000000 0.000000 0.042296 0.000000
# 6 -0.037141 0.037141 0.000000 0.000000 0.000000 1.194393
#
#
# Mechanical properties :
#
#
# Convention : Reuss Voigt Hill
#
# Bulk Modulus (GPa) = 29.78066 54.91587 42.34827
# Shear Modulus (GPa) = 3.55227 19.11957 11.33592
#
# Velocity S-wave (km/s) = 1.30548 3.02869 2.33208
# Velocity P-wave (km/s) = 4.06942 6.21108 5.25060
#
# Compressibility (1/GPa) = 0.03357884
#
# Stress axis : x y z
#
# Youngs Moduli (GPa) = 34.89160 34.89160 55.08187
#
# Poissons Ratio (x) = -0.24014 0.76648
# Poissons Ratio (y) = -0.24014 0.76648
# Poissons Ratio (z) = 0.48553 0.48553
#
# Static dielectric constant tensor:
#      x y z
#    x 1.838290 0.000000 0.000000 
#    y 0.000000 1.838290 0.000000 
#    z 0.000000 0.000000 1.770070 
# 
# From -- ./inp_files/5775.got.cif
#   From: 2010.05.17/outbox.cif.g08.bks.cpg/sg84_3_cif.got.tgz:5775.got - 2010.06.03 18:57:40.
