data_PCOD9544252
_publ_section_title
;
Structure prediction by ZEFSAII (Michael W. Deem and Ramdas Pophale) SiO2 
 PCOD9544252
Probable space group: P 42/M
;
_chemical_formula_sum "Si O2"
_cell_formula_units_Z 56
_cell_length_a 10.737370
_cell_length_b 10.737370
_cell_length_c 20.719724
_cell_angle_alpha 90.000000
_cell_angle_beta 90.000000
_cell_angle_gamma 90.000000
_cell_volume 2388.800072
_symmetry_space_group_name_H-M "P 42/M"
_symmetry_group_IT_number 84
_symmetry_cell_setting 'tetragonal'
loop_
_space_group_symop_operation_xyz
x,y,z
-y,x,1/2+z
-x,-y,z
y,-x,1/2+z
-x,-y,-z
y,-x,1/2-z
x,y,-z
-y,x,1/2-z
loop_
_atom_site_type_symbol
_atom_site_label
_atom_site_fract_x
_atom_site_fract_y
_atom_site_fract_z
Si Si1 0.731561 0.618019 0.682826
Si Si2 0.142690 0.209084 0.426770
Si Si3 0.383320 0.156294 0.758820
Si Si4 0.076950 0.631785 0.399798
Si Si5 0.649359 0.447686 0.428287
Si Si6 0.030653 0.687874 0.869533
Si Si7 0.544384 0.181799 0.574357
O O1 0.801155 0.699276 0.628140
O O2 0.662337 0.710851 0.731113
O O3 0.822432 0.528860 0.724098
O O4 0.648597 0.529504 0.636676
O O5 0.192880 0.222913 0.500000
O O6 0.181195 0.074765 0.398749
O O7 0.001665 0.256198 0.429035
O O8 0.332280 0.108611 0.826417
O O9 0.338621 0.060458 0.704646
O O10 0.210130 0.604489 0.430180
O O11 0.000000 0.500000 0.403873
O O12 0.630114 0.505539 0.500000
O O13 0.559994 0.328891 0.419820
O O14 0.123740 0.586623 0.903703
O O15 0.891509 0.648688 0.885667
O O16 0.563284 0.149304 0.500000
#
# Coordination Sequence:
#
# PCOD9544252 Si02
#       7
#     8   8   8   8   8   8   8
#     4  10  22  39  59  91 127 168 205 271 326 391
#     4  11  21  38  66  99 128 163 225 279 336 390
#     4  10  23  39  58  89 126 168 216 257 324 404
#     4  11  22  39  62  94 127 173 210 273 336 396
#     4  10  21  39  64  99 127 162 212 270 337 393
#     4  10  22  39  65  90 125 184 223 273 325 393
#     4  10  21  39  63  91 130 171 220 269 327 399
#
# _framework density 23.442733
#
# number of rings (size 3 to 8) (size 9 to 14) (size 15 to 20)
#    0.000    1.714    2.857    2.571    6.000    0.857 
#    7.714    0.714    0.000    6.857    0.000    0.000 
#    0.000    0.000    0.000    0.000    0.000    0.000 
#
# Total GULP energy -312896.901546 kJ/mol
# GULP energy per Si atom -5587.444670 kJ/mol
# Density = 2.338938 g / cm^3
# Si number density = 23.442733 Si / 1000 Ang^3
#
#
#
# Elastic Constant Matrix: (Units=GPa)
#
#
# Indices 1 2 3 4 5 6 
#
# 1 59.1125 8.3199 20.8123 0.0000 0.0000 -5.7061
# 2 8.3199 59.1125 20.8123 0.0000 0.0000 5.7061
# 3 20.8123 20.8123 158.4380 0.0000 0.0000 0.0000
# 4 0.0000 0.0000 0.0000 8.2527 0.0000 0.0000
# 5 0.0000 0.0000 0.0000 0.0000 8.2527 0.0000
# 6 -5.7061 5.7061 0.0000 0.0000 0.0000 39.0232
#
#
#
# Elastic Compliance Matrix: (Units=1/GPa)
#
#
# Indices 1 2 3 4 5 6 
#
# 1 0.018247 -0.002109 -0.002120 0.000000 0.000000 0.002977
# 2 -0.002109 0.018247 -0.002120 0.000000 0.000000 -0.002977
# 3 -0.002120 -0.002120 0.006869 0.000000 0.000000 0.000000
# 4 0.000000 0.000000 0.000000 0.121173 0.000000 0.000000
# 5 0.000000 0.000000 0.000000 0.000000 0.121173 0.000000
# 6 0.002977 -0.002977 0.000000 0.000000 0.000000 0.026496
#
#
# Mechanical properties :
#
#
# Convention : Reuss Voigt Hill
#
# Bulk Modulus (GPa) = 32.61002 41.83908 37.22455
# Shear Modulus (GPa) = 14.91977 26.22027 20.57002
#
# Velocity S-wave (km/s) = 2.52550 3.34800 2.96541
# Velocity P-wave (km/s) = 4.73761 5.72988 5.25721
#
# Compressibility (1/GPa) = 0.03066542
#
# Stress axis : x y z
#
# Youngs Moduli (GPa) = 54.80208 54.80208 145.59102
#
# Poissons Ratio (x) = 0.11559 0.30864
# Poissons Ratio (y) = 0.11559 0.30864
# Poissons Ratio (z) = 0.11618 0.11618
#
# Static dielectric constant tensor:
#      x y z
#    x 1.930840 0.000000 0.000000 
#    y 0.000000 1.930840 0.000000 
#    z 0.000000 0.000000 1.871000 
# 
# From -- ./inp_files/4504.got.cif
#   From: 2010.05.17/outbox.cif.g08.bks.cpg/sg84_3_cif.got.tgz:4504.got - 2010.06.03 18:57:40.
