data_PCOD9544902
_publ_section_title
;
Structure prediction by ZEFSAII (Michael W. Deem and Ramdas Pophale) SiO2 
 PCOD9544902
Probable space group: P 42/N
;
_chemical_formula_sum "Si O2"
_cell_formula_units_Z 54
_cell_length_a 15.422811
_cell_length_b 15.422811
_cell_length_c 9.522495
_cell_angle_alpha 90.000000
_cell_angle_beta 90.000000
_cell_angle_gamma 90.000000
_cell_volume 2265.050172
_symmetry_space_group_name_H-M "P 42/N"
_symmetry_group_IT_number 86
_space_group.IT_coordinate_system_code '2'
_symmetry_cell_setting 'tetragonal'
loop_
_space_group_symop_operation_xyz
x,y,z
-y,1/2+x,1/2+z
1/2-x,1/2-y,z
1/2+y,-x,1/2+z
-x,-y,-z
y,1/2-x,1/2-z
1/2+x,1/2+y,-z
1/2-y,x,1/2-z
loop_
_atom_site_type_symbol
_atom_site_label
_atom_site_fract_x
_atom_site_fract_y
_atom_site_fract_z
Si Si1 0.250000 0.250000 0.250000
Si Si2 0.477691 0.693315 0.063208
Si Si3 0.908390 0.541959 0.901477
Si Si4 0.955809 0.924359 0.306380
Si Si5 0.250000 0.750000 0.825079
Si Si6 0.845676 0.153969 0.426334
Si Si7 0.126419 0.363867 0.386341
Si Si8 0.097212 0.971997 0.950534
O O1 0.174311 0.276700 0.353552
O O2 0.500319 0.650809 0.214370
O O3 0.432535 0.785766 0.067833
O O4 0.568601 0.680910 0.981582
O O5 0.407544 0.628947 0.985127
O O6 0.865393 0.447065 0.913907
O O7 0.880018 0.588914 0.761943
O O8 0.010808 0.528795 0.866705
O O9 0.893601 0.588572 0.050472
O O10 0.899306 0.986436 0.203805
O O11 0.184093 0.794693 0.714138
O O12 0.205978 0.680675 0.931548
O O13 0.032043 0.345122 0.451206
O O14 0.000000 0.000000 0.000000
#
# Coordination Sequence:
#
# PCOD9544902 Si02
#       8
#     2   8   8   8   4   8   8   8
#     4  12  28  44  64 102 132 168 224 294 328 392
#     4  10  18  40  62  91 121 170 216 266 324 394
#     4  11  19  35  60  97 118 167 214 265 312 403
#     4   9  18  32  62  92 124 149 225 259 308 381
#     4  10  24  42  48  90 138 158 204 272 324 400
#     4  11  23  38  62  88 132 170 212 264 339 386
#     4  10  21  42  64  90 128 168 226 262 337 387
#     4   8  15  36  63  89 116 163 207 264 315 393
#
# _framework density 23.840532
#
# number of rings (size 3 to 8) (size 9 to 14) (size 15 to 20)
#    0.000    2.370    4.444    1.778    0.000    2.370 
#    8.000    2.963    0.000    3.556    0.000    0.000 
#    0.000    0.000    0.000    0.000    0.000    0.000 
#
# Total GULP energy -301526.806781 kJ/mol
# GULP energy per Si atom -5583.829755 kJ/mol
# Density = 2.378627 g / cm^3
# Si number density = 23.840532 Si / 1000 Ang^3
#
#
#
# Elastic Constant Matrix: (Units=GPa)
#
#
# Indices 1 2 3 4 5 6 
#
# 1 30.0988 9.9723 17.4949 0.0000 0.0000 6.1456
# 2 9.9723 30.0988 17.4949 0.0000 0.0000 -6.1456
# 3 17.4949 17.4949 188.0631 0.0000 0.0000 0.0000
# 4 0.0000 0.0000 0.0000 16.2901 0.0000 0.0000
# 5 0.0000 0.0000 0.0000 0.0000 16.2901 0.0000
# 6 6.1456 -6.1456 0.0000 0.0000 0.0000 25.8810
#
#
#
# Elastic Compliance Matrix: (Units=1/GPa)
#
#
# Indices 1 2 3 4 5 6 
#
# 1 0.042638 -0.015476 -0.002527 0.000000 0.000000 -0.013799
# 2 -0.015476 0.042638 -0.002527 0.000000 0.000000 0.013799
# 3 -0.002527 -0.002527 0.005787 0.000000 0.000000 0.000000
# 4 0.000000 0.000000 0.000000 0.061387 0.000000 0.000000
# 5 0.000000 0.000000 0.000000 0.000000 0.061387 0.000000
# 6 -0.013799 0.013799 0.000000 0.000000 0.000000 0.045192
#
#
# Mechanical properties :
#
#
# Convention : Reuss Voigt Hill
#
# Bulk Modulus (GPa) = 19.99826 37.57610 28.78718
# Shear Modulus (GPa) = 15.78505 25.24547 20.51526
#
# Velocity S-wave (km/s) = 2.57594 3.25765 2.93664
# Velocity P-wave (km/s) = 4.15378 5.47224 4.85794
#
# Compressibility (1/GPa) = 0.05000434
#
# Stress axis : x y z
#
# Youngs Moduli (GPa) = 23.45345 23.45345 172.78663
#
# Poissons Ratio (x) = 0.36296 0.43660
# Poissons Ratio (y) = 0.36296 0.43660
# Poissons Ratio (z) = 0.05926 0.05926
#
# Static dielectric constant tensor:
#      x y z
#    x 1.990110 0.000000 0.000000 
#    y 0.000000 1.990110 0.000000 
#    z 0.000000 0.000000 1.990330 
# 
# From -- ./inp_files/1441.got.cif
#   From: 2010.05.17/outbox.cif.g08.bks.cpg/sg86_1_cif.got.tgz:1441.got - 2010.06.03 19:03:11.
