data_PCOD9544754
_publ_section_title
;
Structure prediction by ZEFSAII (Michael W. Deem and Ramdas Pophale) SiO2 
 PCOD9544754
Probable space group: P 4/N
;
_chemical_formula_sum "Si O2"
_cell_formula_units_Z 34
_cell_length_a 9.996518
_cell_length_b 9.996518
_cell_length_c 18.203958
_cell_angle_alpha 90.000000
_cell_angle_beta 90.000000
_cell_angle_gamma 90.000000
_cell_volume 1819.128297
_symmetry_space_group_name_H-M "P 4/N"
_symmetry_group_IT_number 85
_symmetry_cell_setting 'tetragonal'
loop_
_space_group_symop_operation_xyz
x,y,z
1/2-y,x,z
1/2-x,1/2-y,z
y,1/2-x,z
-x,-y,-z
1/2+y,-x,-z
1/2+x,1/2+y,-z
-y,1/2+x,-z
loop_
_atom_site_type_symbol
_atom_site_label
_atom_site_fract_x
_atom_site_fract_y
_atom_site_fract_z
Si Si1 0.738132 0.095061 0.169727
Si Si2 0.516213 0.526632 0.913476
Si Si3 0.612809 0.099011 0.470295
Si Si4 0.802616 0.534608 0.327295
Si Si5 0.750000 0.750000 0.899384
O O1 0.750000 0.250000 0.190157
O O2 0.873746 0.051054 0.127636
O O3 0.610640 0.075726 0.118132
O O4 0.705142 0.013269 0.243636
O O5 0.616350 0.650325 0.900714
O O6 0.500000 0.500000 0.000000
O O7 0.572604 0.251413 0.484390
O O8 0.500000 0.000000 0.500000
O O9 0.653121 0.075784 0.385747
O O10 0.905519 0.655718 0.341050
#
# Coordination Sequence:
#
# PCOD9544754 Si02
#       5
#     8   8   8   8   2
#     4  12  26  43  70 103 138 191 245 291 367 428
#     4  12  26  45  72 100 142 188 243 299 363 436
#     4  11  24  42  69 102 138 181 230 282 352 417
#     4  11  23  43  68  98 139 183 235 294 343 423
#     4  12  24  48  64 100 140 180 228 306 360 416
#
# _framework density 18.690272
#
# number of rings (size 3 to 8) (size 9 to 14) (size 15 to 20)
#    0.000    0.471    7.059    1.412    3.294    0.941 
#    0.000    0.000    0.000    0.000    0.000    0.000 
#    0.000    0.000    0.000    0.000    0.000    0.000 
#
# Total GULP energy -189375.318386 kJ/mol
# GULP energy per Si atom -5569.862305 kJ/mol
# Density = 1.864773 g / cm^3
# Si number density = 18.690272 Si / 1000 Ang^3
#
#
#
# Elastic Constant Matrix: (Units=GPa)
#
#
# Indices 1 2 3 4 5 6 
#
# 1 97.1865 72.2012 36.6916 0.0000 0.0000 66.2145
# 2 72.2012 97.1865 36.6916 0.0000 0.0000 -66.2145
# 3 36.6916 36.6916 123.9614 0.0000 0.0000 0.0000
# 4 0.0000 0.0000 0.0000 22.2473 0.0000 0.0000
# 5 0.0000 0.0000 0.0000 0.0000 22.2473 0.0000
# 6 66.2145 -66.2145 0.0000 0.0000 0.0000 -90.9919
#
#
#
# Elastic Compliance Matrix: (Units=1/GPa)
#
#
# Indices 1 2 3 4 5 6 
#
# 1 0.007506 -0.000734 -0.002004 0.000000 0.000000 0.005997
# 2 -0.000734 0.007506 -0.002004 0.000000 0.000000 -0.005997
# 3 -0.002004 -0.002004 0.009254 0.000000 0.000000 0.000000
# 4 0.000000 0.000000 0.000000 0.044949 0.000000 0.000000
# 5 0.000000 0.000000 0.000000 0.000000 0.044949 0.000000
# 6 0.005997 -0.005997 0.000000 0.000000 0.000000 -0.002263
#
#
# Mechanical properties :
#
#
# Convention : Reuss Voigt Hill
#
# Bulk Modulus (GPa) = 67.65991 67.72258 67.69124
# Shear Modulus (GPa) = 39.58367 2.21721 20.90044
#
# Velocity S-wave (km/s) = 4.60703 1.09035 3.34766
# Velocity P-wave (km/s) = 8.03610 6.15613 7.15810
#
# Compressibility (1/GPa) = 0.01477980
#
# Stress axis : x y z
#
# Youngs Moduli (GPa) = 133.22329 133.22329 108.06563
#
# Poissons Ratio (x) = 0.09781 0.21661
# Poissons Ratio (y) = 0.09781 0.21661
# Poissons Ratio (z) = 0.26704 0.26704
#
# Static dielectric constant tensor:
#      x y z
#    x 1.524450 0.000000 0.000000 
#    y 0.000000 1.524450 0.000000 
#    z 0.000000 0.000000 1.697670 
# 
# From -- ./inp_files/2182.got.cif
#   From: 2010.05.17/outbox.cif.g08.bks.cpg/sg85_cif.got.tgz:2182.got - 2010.06.03 19:01:16.
