data_PCOD9544405
_publ_section_title
;
Structure prediction by ZEFSAII (Michael W. Deem and Ramdas Pophale) SiO2 
 PCOD9544405
Probable space group: P 42/M
;
_chemical_formula_sum "Si O2"
_cell_formula_units_Z 34
_cell_length_a 7.681037
_cell_length_b 7.681037
_cell_length_c 23.666483
_cell_angle_alpha 90.000000
_cell_angle_beta 90.000000
_cell_angle_gamma 90.000000
_cell_volume 1396.282960
_symmetry_space_group_name_H-M "P 42/M"
_symmetry_group_IT_number 84
_symmetry_cell_setting 'tetragonal'
loop_
_space_group_symop_operation_xyz
x,y,z
-y,x,1/2+z
-x,-y,z
y,-x,1/2+z
-x,-y,-z
y,-x,1/2-z
x,y,-z
-y,x,1/2-z
loop_
_atom_site_type_symbol
_atom_site_label
_atom_site_fract_x
_atom_site_fract_y
_atom_site_fract_z
Si Si1 0.276382 0.106442 0.061885
Si Si2 0.000000 0.500000 0.000000
Si Si3 0.890261 0.248373 0.917041
Si Si4 0.375619 0.255642 0.818908
Si Si5 0.627760 0.776965 0.697538
O O1 0.361334 0.168729 0.120097
O O2 0.080460 0.185522 0.062728
O O3 0.245764 0.899888 0.066294
O O4 0.351562 0.151096 0.000000
O O5 0.867069 0.425666 0.950704
O O6 0.883569 0.277212 0.850716
O O7 0.336515 0.153789 0.760565
O O8 0.576024 0.310052 0.808334
O O9 0.248799 0.423576 0.816565
#
# Coordination Sequence:
#
# PCOD9544405 Si02
#       5
#     8   2   8   8   8
#     4  11  22  41  56  90 127 166 195 266 311 373
#     4  12  20  38  60  88 112 162 202 258 284 392
#     4  11  22  37  62  86 121 159 213 245 315 365
#     4   9  20  41  64  86 131 151 211 258 316 366
#     4   9  20  40  64  93 112 170 204 259 307 382
#
# _framework density 24.350363999999999
#
# number of rings (size 3 to 8) (size 9 to 14) (size 15 to 20)
#    0.000    1.882    2.353    3.529    0.000    2.824 
#    2.118    9.412    0.000    0.000    0.000    0.000 
#    0.000    0.000    0.000    0.000    0.000    0.000 
#
# Total GULP energy -189523.681580 kJ/mol
# GULP energy per Si atom -5574.225929 kJ/mol
# Density = 2.429494 g / cm^3
# Si number density = 24.350364 Si / 1000 Ang^3
#
#
#
# Elastic Constant Matrix: (Units=GPa)
#
#
# Indices 1 2 3 4 5 6 
#
# 1 44.5483 -9.4718 43.8541 0.0000 0.0000 -8.2648
# 2 -9.4718 44.5483 43.8541 0.0000 0.0000 8.2648
# 3 43.8541 43.8541 296.5370 0.0000 0.0000 0.0000
# 4 0.0000 0.0000 0.0000 42.5056 0.0000 0.0000
# 5 0.0000 0.0000 0.0000 0.0000 42.5056 0.0000
# 6 -8.2648 8.2648 0.0000 0.0000 0.0000 25.2133
#
#
#
# Elastic Compliance Matrix: (Units=1/GPa)
#
#
# Indices 1 2 3 4 5 6 
#
# 1 0.032906 0.012331 -0.006690 0.000000 0.000000 0.006744
# 2 0.012331 0.032906 -0.006690 0.000000 0.000000 -0.006744
# 3 -0.006690 -0.006690 0.005351 0.000000 0.000000 0.000000
# 4 0.000000 0.000000 0.000000 0.023526 0.000000 0.000000
# 5 0.000000 0.000000 0.000000 0.000000 0.023526 0.000000
# 6 0.006744 -0.006744 0.000000 0.000000 0.000000 0.044083
#
#
# Mechanical properties :
#
#
# Convention : Reuss Voigt Hill
#
# Bulk Modulus (GPa) = 14.47895 60.23406 37.35651
# Shear Modulus (GPa) = 26.67808 42.53803 34.60805
#
# Velocity S-wave (km/s) = 3.31356 4.18415 3.77404
# Velocity P-wave (km/s) = 4.53857 6.93779 5.86223
#
# Compressibility (1/GPa) = 0.06906577
#
# Stress axis : x y z
#
# Youngs Moduli (GPa) = 30.38919 30.38919 186.88052
#
# Poissons Ratio (x) = -0.37473 1.25024
# Poissons Ratio (y) = -0.37473 1.25024
# Poissons Ratio (z) = 0.20331 0.20331
#
# Static dielectric constant tensor:
#      x y z
#    x 2.037720 0.000000 0.000000 
#    y 0.000000 2.037720 0.000000 
#    z 0.000000 0.000000 1.922500 
# 
# From -- ./inp_files/4283.got.cif
#   From: 2010.05.17/outbox.cif.g08.bks.cpg/sg84_3_cif.got.tgz:4283.got - 2010.06.03 18:57:40.
