data_PCOD9544590
_publ_section_title
;
Structure prediction by ZEFSAII (Michael W. Deem and Ramdas Pophale) SiO2 
 PCOD9544590
Probable space group: P 4/N
;
_chemical_formula_sum "Si O2"
_cell_formula_units_Z 56
_cell_length_a 13.631855
_cell_length_b 13.631855
_cell_length_c 15.192007
_cell_angle_alpha 90.000000
_cell_angle_beta 90.000000
_cell_angle_gamma 90.000000
_cell_volume 2823.092236
_symmetry_space_group_name_H-M "P 4/N"
_symmetry_group_IT_number 85
_symmetry_cell_setting 'tetragonal'
loop_
_space_group_symop_operation_xyz
x,y,z
1/2-y,x,z
1/2-x,1/2-y,z
y,1/2-x,z
-x,-y,-z
1/2+y,-x,-z
1/2+x,1/2+y,-z
-y,1/2+x,-z
loop_
_atom_site_type_symbol
_atom_site_label
_atom_site_fract_x
_atom_site_fract_y
_atom_site_fract_z
Si Si1 0.480092 0.551297 0.735850
Si Si2 0.687182 0.119140 0.393981
Si Si3 0.693702 0.086166 0.883679
Si Si4 0.762592 0.026701 0.065274
Si Si5 0.086006 0.817985 0.580125
Si Si6 0.623908 0.105521 0.207179
Si Si7 0.894997 0.676297 0.212550
O O1 0.470505 0.624338 0.817265
O O2 0.474539 0.616702 0.648237
O O3 0.570931 0.481712 0.758975
O O4 0.386235 0.477327 0.736759
O O5 0.665754 0.052381 0.479201
O O6 0.798354 0.152369 0.415146
O O7 0.602228 0.203525 0.395552
O O8 0.690170 0.087795 0.292992
O O9 0.625471 0.172300 0.923177
O O10 0.783175 0.126428 0.825576
O O11 0.735297 0.021689 0.963635
O O12 0.665738 0.044781 0.124650
O O13 0.819848 0.936896 0.111608
O O14 0.874742 0.790807 0.230481
#
# Coordination Sequence:
#
# PCOD9544590 Si02
#       7
#     8   8   8   8   8   8   8
#     4  11  23  37  59  89 119 152 197 239 296 358
#     4   9  18  34  60  85 116 151 186 241 297 343
#     4  11  23  37  58  84 119 147 198 249 290 343
#     4  11  22  36  59  86 111 156 196 243 296 340
#     4   9  18  34  57  90 117 144 188 242 296 349
#     4  12  22  35  57  88 114 155 193 239 296 349
#     4  10  21  38  55  79 120 159 190 233 287 351
#
# _framework density 19.836404999999999
#
# number of rings (size 3 to 8) (size 9 to 14) (size 15 to 20)
#    0.000    1.571    4.286    3.000    2.000    2.286 
#    0.000    0.000    0.000    0.429    0.000    0.000 
#    0.000    0.000    0.000    0.000    0.000    0.000 
#
# Total GULP energy -311974.967974 kJ/mol
# GULP energy per Si atom -5570.981571 kJ/mol
# Density = 1.979126 g / cm^3
# Si number density = 19.836405 Si / 1000 Ang^3
#
#
#
# Elastic Constant Matrix: (Units=GPa)
#
#
# Indices 1 2 3 4 5 6 
#
# 1 44.4543 -1.3172 4.9494 0.0000 0.0000 7.4426
# 2 -1.3172 44.4543 4.9494 0.0000 0.0000 -7.4426
# 3 4.9494 4.9494 108.8819 0.0000 0.0000 0.0000
# 4 0.0000 0.0000 0.0000 12.2223 0.0000 0.0000
# 5 0.0000 0.0000 0.0000 0.0000 12.2223 0.0000
# 6 7.4426 -7.4426 0.0000 0.0000 0.0000 25.0059
#
#
#
# Elastic Compliance Matrix: (Units=1/GPa)
#
#
# Indices 1 2 3 4 5 6 
#
# 1 0.023808 -0.000381 -0.001065 0.000000 0.000000 -0.007199
# 2 -0.000381 0.023808 -0.001065 0.000000 0.000000 0.007199
# 3 -0.001065 -0.001065 0.009281 0.000000 0.000000 0.000000
# 4 0.000000 0.000000 0.000000 0.081818 0.000000 0.000000
# 5 0.000000 0.000000 0.000000 0.000000 0.081818 0.000000
# 6 -0.007199 0.007199 0.000000 0.000000 0.000000 0.044276
#
#
# Mechanical properties :
#
#
# Convention : Reuss Voigt Hill
#
# Bulk Modulus (GPa) = 19.27743 23.88373 21.58058
# Shear Modulus (GPa) = 17.41420 22.50401 19.95910
#
# Velocity S-wave (km/s) = 2.96614 3.37186 3.17548
# Velocity P-wave (km/s) = 4.63357 5.21783 4.93435
#
# Compressibility (1/GPa) = 0.05187415
#
# Stress axis : x y z
#
# Youngs Moduli (GPa) = 42.00334 42.00334 107.74618
#
# Poissons Ratio (x) = 0.01602 0.11474
# Poissons Ratio (y) = 0.01602 0.11474
# Poissons Ratio (z) = 0.04473 0.04473
#
# Static dielectric constant tensor:
#      x y z
#    x 1.731660 0.000000 0.000000 
#    y 0.000000 1.731660 0.000000 
#    z 0.000000 0.000000 1.736840 
# 
# From -- ./inp_files/1992.got.cif
#   From: 2010.05.17/outbox.cif.g08.bks.cpg/sg85_cif.got.tgz:1992.got - 2010.06.03 19:01:16.
