data_PCOD9544262
_publ_section_title
;
Structure prediction by ZEFSAII (Michael W. Deem and Ramdas Pophale) SiO2 
 PCOD9544262
Probable space group: P 42/M
;
_chemical_formula_sum "Si O2"
_cell_formula_units_Z 34
_cell_length_a 9.664635
_cell_length_b 9.664635
_cell_length_c 19.819654
_cell_angle_alpha 90.000000
_cell_angle_beta 90.000000
_cell_angle_gamma 90.000000
_cell_volume 1851.258145
_symmetry_space_group_name_H-M "P 42/M"
_symmetry_group_IT_number 84
_symmetry_cell_setting 'tetragonal'
loop_
_space_group_symop_operation_xyz
x,y,z
-y,x,1/2+z
-x,-y,z
y,-x,1/2+z
-x,-y,-z
y,-x,1/2-z
x,y,-z
-y,x,1/2-z
loop_
_atom_site_type_symbol
_atom_site_label
_atom_site_fract_x
_atom_site_fract_y
_atom_site_fract_z
Si Si1 0.901160 0.133575 0.576848
Si Si2 0.304482 0.253508 0.701525
Si Si3 0.500000 0.500000 0.250000
Si Si4 0.941390 0.347298 0.079057
Si Si5 0.993133 0.343288 0.308670
O O1 0.899130 0.187303 0.500000
O O2 0.950289 0.242855 0.630954
O O3 0.753543 0.069051 0.595053
O O4 0.000000 0.000000 0.578293
O O5 0.409959 0.382022 0.711108
O O6 0.316169 0.187614 0.627036
O O7 0.146625 0.300329 0.715363
O O8 0.336593 0.125093 0.751421
O O9 0.000000 0.500000 0.088906
O O10 0.906359 0.326260 0.000000
O O11 0.000000 0.500000 0.333287
#
# Coordination Sequence:
#
# PCOD9544262 Si02
#       5
#     8   8   2   8   8
#     4  10  21  40  63  92 126 160 207 262 309 362
#     4  12  25  43  64  93 127 164 212 262 311 377
#     4  12  28  44  62  88 136 168 196 266 324 368
#     4  10  22  40  67  96 126 166 209 258 314 373
#     4  12  25  39  62  93 123 166 212 257 318 371
#
# _framework density 18.36589
#
# number of rings (size 3 to 8) (size 9 to 14) (size 15 to 20)
#    0.000    0.941    4.706    2.118    3.294    0.471 
#    0.000    0.588    0.000    0.000    0.000    0.000 
#    0.000    0.000    0.000    0.000    0.000    0.000 
#
# Total GULP energy -189889.309682 kJ/mol
# GULP energy per Si atom -5584.979697 kJ/mol
# Density = 1.832409 g / cm^3
# Si number density = 18.365890 Si / 1000 Ang^3
#
#
#
# Elastic Constant Matrix: (Units=GPa)
#
#
# Indices 1 2 3 4 5 6 
#
# 1 124.5400 56.2078 49.5145 0.0000 0.0000 8.1216
# 2 56.2078 124.5400 49.5145 0.0000 0.0000 -8.1216
# 3 49.5145 49.5145 77.5972 0.0000 0.0000 0.0000
# 4 0.0000 0.0000 0.0000 15.5609 0.0000 0.0000
# 5 0.0000 0.0000 0.0000 0.0000 15.5609 0.0000
# 6 8.1216 -8.1216 0.0000 0.0000 0.0000 26.1628
#
#
#
# Elastic Compliance Matrix: (Units=1/GPa)
#
#
# Indices 1 2 3 4 5 6 
#
# 1 0.012153 -0.003647 -0.005428 0.000000 0.000000 -0.004905
# 2 -0.003647 0.012153 -0.005428 0.000000 0.000000 0.004905
# 3 -0.005428 -0.005428 0.019814 0.000000 0.000000 0.000000
# 4 0.000000 0.000000 0.000000 0.064264 0.000000 0.000000
# 5 0.000000 0.000000 0.000000 0.000000 0.064264 0.000000
# 6 -0.004905 0.004905 0.000000 0.000000 0.000000 0.041267
#
#
# Mechanical properties :
#
#
# Convention : Reuss Voigt Hill
#
# Bulk Modulus (GPa) = 66.15808 70.79454 68.47631
# Shear Modulus (GPa) = 20.16455 22.88628 21.52542
#
# Velocity S-wave (km/s) = 3.31710 3.53389 3.42721
# Velocity P-wave (km/s) = 7.12540 7.43516 7.28193
#
# Compressibility (1/GPa) = 0.01511531
#
# Stress axis : x y z
#
# Youngs Moduli (GPa) = 82.28171 82.28171 50.46901
#
# Poissons Ratio (x) = 0.30007 0.27394
# Poissons Ratio (y) = 0.30007 0.27394
# Poissons Ratio (z) = 0.44662 0.44662
#
# Static dielectric constant tensor:
#      x y z
#    x 1.484080 0.000000 0.000000 
#    y 0.000000 1.484080 0.000000 
#    z 0.000000 0.000000 1.630310 
# 
# From -- ./inp_files/4228.got.cif
#   From: 2010.05.17/outbox.cif.g08.bks.cpg/sg84_3_cif.got.tgz:4228.got - 2010.06.03 18:57:40.
