data_PCOD9544817
_publ_section_title
;
Structure prediction by ZEFSAII (Michael W. Deem and Ramdas Pophale) SiO2 
 PCOD9544817
Probable space group: P 4/N
;
_chemical_formula_sum "Si O2"
_cell_formula_units_Z 40
_cell_length_a 16.244627
_cell_length_b 16.244627
_cell_length_c 6.386075
_cell_angle_alpha 90.000000
_cell_angle_beta 90.000000
_cell_angle_gamma 90.000000
_cell_volume 1685.207962
_symmetry_space_group_name_H-M "P 4/N"
_symmetry_group_IT_number 85
_symmetry_cell_setting 'tetragonal'
loop_
_space_group_symop_operation_xyz
x,y,z
1/2-y,x,z
1/2-x,1/2-y,z
y,1/2-x,z
-x,-y,-z
1/2+y,-x,-z
1/2+x,1/2+y,-z
-y,1/2+x,-z
loop_
_atom_site_type_symbol
_atom_site_label
_atom_site_fract_x
_atom_site_fract_y
_atom_site_fract_z
Si Si1 0.606009 0.993284 0.623589
Si Si2 0.377061 0.287177 0.123861
Si Si3 0.863746 0.029281 0.577062
Si Si4 0.032511 0.231437 0.724401
Si Si5 0.382054 0.774594 0.967632
O O1 0.673480 0.960402 0.786113
O O2 0.525896 0.938063 0.668849
O O3 0.583267 0.088365 0.597894
O O4 0.645658 0.975042 0.396903
O O5 0.303593 0.348111 0.188541
O O6 0.390464 0.276827 0.876549
O O7 0.800979 0.970541 0.453319
O O8 0.817461 0.081843 0.755951
O O9 0.955191 0.255284 0.870407
O O10 0.334818 0.687984 0.938002
#
# Coordination Sequence:
#
# PCOD9544817 Si02
#       5
#     8   8   8   8   8
#     4  11  24  46  71 105 147 190 250 307 374 454
#     4  11  25  46  72 106 148 197 258 317 373 447
#     4  11  26  45  72 110 145 196 248 309 379 458
#     4  12  24  42  74 103 146 192 243 303 379 445
#     4  11  25  45  70 106 146 192 245 306 375 454
#
# _framework density 23.735941
#
# number of rings (size 3 to 8) (size 9 to 14) (size 15 to 20)
#    0.000    0.800    2.000    4.800    5.600    0.000 
#    0.000    9.000    0.000    0.000    0.000    0.000 
#    0.000    0.000    0.000    0.000    0.000    0.000 
#
# Total GULP energy -223454.118474 kJ/mol
# GULP energy per Si atom -5586.352962 kJ/mol
# Density = 2.368192 g / cm^3
# Si number density = 23.735941 Si / 1000 Ang^3
#
#
#
# Elastic Constant Matrix: (Units=GPa)
#
#
# Indices 1 2 3 4 5 6 
#
# 1 112.5512 59.1362 62.4976 0.0000 0.0000 6.5503
# 2 59.1362 112.5512 62.4976 0.0000 0.0000 -6.5503
# 3 62.4976 62.4976 96.4855 0.0000 0.0000 0.0000
# 4 0.0000 0.0000 0.0000 42.2134 0.0000 0.0000
# 5 0.0000 0.0000 0.0000 0.0000 42.2134 0.0000
# 6 6.5503 -6.5503 0.0000 0.0000 0.0000 51.1973
#
#
#
# Elastic Compliance Matrix: (Units=1/GPa)
#
#
# Indices 1 2 3 4 5 6 
#
# 1 0.015175 -0.004153 -0.007140 0.000000 0.000000 -0.002473
# 2 -0.004153 0.015175 -0.007140 0.000000 0.000000 0.002473
# 3 -0.007140 -0.007140 0.019614 0.000000 0.000000 0.000000
# 4 0.000000 0.000000 0.000000 0.023689 0.000000 0.000000
# 5 0.000000 0.000000 0.000000 0.000000 0.023689 0.000000
# 6 -0.002473 0.002473 0.000000 0.000000 0.000000 0.020165
#
#
# Mechanical properties :
#
#
# Convention : Reuss Voigt Hill
#
# Bulk Modulus (GPa) = 76.33728 76.65007 76.49367
# Shear Modulus (GPa) = 31.49839 36.28860 33.89350
#
# Velocity S-wave (km/s) = 3.64680 3.91429 3.78291
# Velocity P-wave (km/s) = 7.06846 7.26580 7.16781
#
# Compressibility (1/GPa) = 0.01309976
#
# Stress axis : x y z
#
# Youngs Moduli (GPa) = 65.89707 65.89707 50.98481
#
# Poissons Ratio (x) = 0.27365 0.36402
# Poissons Ratio (y) = 0.27365 0.36402
# Poissons Ratio (z) = 0.47049 0.47049
#
# Static dielectric constant tensor:
#      x y z
#    x 1.941590 0.000000 0.000000 
#    y 0.000000 1.941590 0.000000 
#    z 0.000000 0.000000 1.888160 
# 
# From -- ./inp_files/327.got.cif
#   From: 2010.05.17/outbox.cif.g08.bks.cpg/sg85_cif.got.tgz:327.got - 2010.06.03 19:01:16.
