data_PCOD9544660
_publ_section_title
;
Structure prediction by ZEFSAII (Michael W. Deem and Ramdas Pophale) SiO2 
 PCOD9544660
Probable space group: P 4/N
;
_chemical_formula_sum "Si O2"
_cell_formula_units_Z 50
_cell_length_a 19.693254
_cell_length_b 19.693254
_cell_length_c 5.385409
_cell_angle_alpha 90.000000
_cell_angle_beta 90.000000
_cell_angle_gamma 90.000000
_cell_volume 2088.592223
_symmetry_space_group_name_H-M "P 4/N"
_symmetry_group_IT_number 85
_symmetry_cell_setting 'tetragonal'
loop_
_space_group_symop_operation_xyz
x,y,z
1/2-y,x,z
1/2-x,1/2-y,z
y,1/2-x,z
-x,-y,-z
1/2+y,-x,-z
1/2+x,1/2+y,-z
-y,1/2+x,-z
loop_
_atom_site_type_symbol
_atom_site_label
_atom_site_fract_x
_atom_site_fract_y
_atom_site_fract_z
Si Si1 0.055954 0.973752 0.809303
Si Si2 0.379861 0.179919 0.095400
Si Si3 0.141753 0.785440 0.493619
Si Si4 0.162363 0.576287 0.014674
Si Si5 0.750000 0.750000 0.703680
Si Si6 0.932552 0.802101 0.166101
Si Si7 0.436082 0.407797 0.462138
O O1 0.099650 0.915748 0.942149
O O2 0.011748 0.932139 0.605445
O O3 0.086315 0.039478 0.677648
O O4 0.000000 0.000000 0.000000
O O5 0.330403 0.223956 0.273454
O O6 0.414380 0.120188 0.251035
O O7 0.329371 0.141779 0.906940
O O8 0.429897 0.226100 0.933425
O O9 0.208441 0.832362 0.521730
O O10 0.097926 0.796519 0.741634
O O11 0.105539 0.806448 0.238065
O O12 0.162538 0.494854 0.977738
O O13 0.940363 0.830239 0.443547
#
# Coordination Sequence:
#
# PCOD9544660 Si02
#       7
#     8   8   8   8   2   8   8
#     4  11  23  42  70 103 152 197 240 305 399 444
#     4  10  22  43  67  97 146 201 254 305 374 440
#     4  11  27  53  77 107 148 195 246 314 396 469
#     4  12  24  46  79 112 149 193 255 313 376 467
#     4   8  20  40  66  88 132 198 252 300 370 436
#     4  11  24  44  65 106 149 196 257 309 367 447
#     4  11  22  42  69 101 146 207 242 317 380 459
#
# _framework density 23.939571999999998
#
# number of rings (size 3 to 8) (size 9 to 14) (size 15 to 20)
#    0.000    1.120    3.200    1.920    2.240    5.120 
#    8.640    3.200    0.000    0.000    0.000    0.000 
#    0.000    0.000    0.000    0.000    0.000    0.000 
#
# Total GULP energy -278970.007634 kJ/mol
# GULP energy per Si atom -5579.400153 kJ/mol
# Density = 2.388508 g / cm^3
# Si number density = 23.939572 Si / 1000 Ang^3
#
#
#
# Elastic Constant Matrix: (Units=GPa)
#
#
# Indices 1 2 3 4 5 6 
#
# 1 76.5054 19.6131 27.2212 0.0000 0.0000 -2.9287
# 2 19.6131 76.5054 27.2212 0.0000 0.0000 2.9287
# 3 27.2212 27.2212 115.8115 0.0000 0.0000 0.0000
# 4 0.0000 0.0000 0.0000 37.0937 0.0000 0.0000
# 5 0.0000 0.0000 0.0000 0.0000 37.0937 0.0000
# 6 -2.9287 2.9287 0.0000 0.0000 0.0000 33.2468
#
#
#
# Elastic Compliance Matrix: (Units=1/GPa)
#
#
# Indices 1 2 3 4 5 6 
#
# 1 0.014870 -0.002868 -0.002821 0.000000 0.000000 0.001563
# 2 -0.002868 0.014870 -0.002821 0.000000 0.000000 -0.001563
# 3 -0.002821 -0.002821 0.009961 0.000000 0.000000 0.000000
# 4 0.000000 0.000000 0.000000 0.026959 0.000000 0.000000
# 5 0.000000 0.000000 0.000000 0.000000 0.026959 0.000000
# 6 0.001563 -0.001563 0.000000 0.000000 0.000000 0.030353
#
#
# Mechanical properties :
#
#
# Convention : Reuss Voigt Hill
#
# Bulk Modulus (GPa) = 44.09112 46.32590 45.20851
# Shear Modulus (GPa) = 33.65838 34.47133 34.06485
#
# Velocity S-wave (km/s) = 3.75370 3.79876 3.77630
# Velocity P-wave (km/s) = 6.10284 6.21562 6.15949
#
# Compressibility (1/GPa) = 0.02268030
#
# Stress axis : x y z
#
# Youngs Moduli (GPa) = 67.25046 67.25046 100.39324
#
# Poissons Ratio (x) = 0.19288 0.28320
# Poissons Ratio (y) = 0.19288 0.28320
# Poissons Ratio (z) = 0.18971 0.18971
#
# Static dielectric constant tensor:
#      x y z
#    x 1.934910 0.000000 0.000000 
#    y 0.000000 1.934910 0.000000 
#    z 0.000000 0.000000 1.990370 
# 
# From -- ./inp_files/483.got.cif
#   From: 2010.05.17/outbox.cif.g08.bks.cpg/sg85_cif.got.tgz:483.got - 2010.06.03 19:01:16.
