data_PCOD9544909
_publ_section_title
;
Structure prediction by ZEFSAII (Michael W. Deem and Ramdas Pophale) SiO2 
 PCOD9544909
Probable space group: P 42/N
;
_chemical_formula_sum "Si O2"
_cell_formula_units_Z 56
_cell_length_a 23.423453
_cell_length_b 23.423453
_cell_length_c 6.333942
_cell_angle_alpha 90.000000
_cell_angle_beta 90.000000
_cell_angle_gamma 90.000000
_cell_volume 3475.168903
_symmetry_space_group_name_H-M "P 42/N"
_symmetry_group_IT_number 86
_space_group.IT_coordinate_system_code '2'
_symmetry_cell_setting 'tetragonal'
loop_
_space_group_symop_operation_xyz
x,y,z
-y,1/2+x,1/2+z
1/2-x,1/2-y,z
1/2+y,-x,1/2+z
-x,-y,-z
y,1/2-x,1/2-z
1/2+x,1/2+y,-z
1/2-y,x,1/2-z
loop_
_atom_site_type_symbol
_atom_site_label
_atom_site_fract_x
_atom_site_fract_y
_atom_site_fract_z
Si Si1 0.642354 0.329941 0.115652
Si Si2 0.471828 0.811989 0.895131
Si Si3 0.490186 0.086332 0.845914
Si Si4 0.486570 0.589571 0.422879
Si Si5 0.906990 0.057569 0.947876
Si Si6 0.543757 0.286661 0.403060
Si Si7 0.388602 0.757704 0.216747
O O1 0.616805 0.393121 0.097461
O O2 0.604448 0.298990 0.290465
O O3 0.707503 0.337612 0.178211
O O4 0.632808 0.299850 0.891899
O O5 0.456413 0.857075 0.715237
O O6 0.489013 0.754040 0.766546
O O7 0.509898 0.849687 0.057506
O O8 0.416214 0.795116 0.030057
O O9 0.503053 0.082700 0.596191
O O10 0.434721 0.050497 0.911126
O O11 0.543885 0.051268 0.945559
O O12 0.481942 0.652352 0.525205
O O13 0.459207 0.583170 0.188120
O O14 0.561174 0.253814 0.616023
#
# Coordination Sequence:
#
# PCOD9544909 Si02
#       7
#     8   8   8   8   8   8   8
#     4  11  21  33  51  64  90 128 172 219 260 300
#     4  10  20  32  53  69  92 135 163 203 247 311
#     4  10  19  33  49  75 105 126 164 205 260 306
#     4  10  20  30  50  78 101 128 162 212 251 312
#     4  11  17  33  52  69  94 129 167 204 264 304
#     4  11  20  34  52  70  94 130 171 204 256 308
#     4  11  22  35  51  64  90 126 177 220 256 299
#
# _framework density 16.114325000000001
#
# number of rings (size 3 to 8) (size 9 to 14) (size 15 to 20)
#    0.000    1.429    5.714    1.286    0.000    0.000 
#    0.000    2.143    0.000    0.000    0.000    0.000 
#    0.000    0.571    0.000    0.143    0.000    0.143 
#
# Total GULP energy -311886.053287 kJ/mol
# GULP energy per Si atom -5569.393809 kJ/mol
# Density = 1.607765 g / cm^3
# Si number density = 16.114325 Si / 1000 Ang^3
#
#
#
# Elastic Constant Matrix: (Units=GPa)
#
#
# Indices 1 2 3 4 5 6 
#
# 1 53.5448 30.8533 14.0390 0.0000 0.0000 -1.7958
# 2 30.8533 53.5448 14.0390 0.0000 0.0000 1.7958
# 3 14.0390 14.0390 61.8013 0.0000 0.0000 0.0000
# 4 0.0000 0.0000 0.0000 20.1251 0.0000 0.0000
# 5 0.0000 0.0000 0.0000 0.0000 20.1251 0.0000
# 6 -1.7958 1.7958 0.0000 0.0000 0.0000 21.4088
#
#
#
# Elastic Compliance Matrix: (Units=1/GPa)
#
#
# Indices 1 2 3 4 5 6 
#
# 1 0.028740 -0.015923 -0.002912 0.000000 0.000000 0.003746
# 2 -0.015923 0.028740 -0.002912 0.000000 0.000000 -0.003746
# 3 -0.002912 -0.002912 0.017504 0.000000 0.000000 0.000000
# 4 0.000000 0.000000 0.000000 0.049689 0.000000 0.000000
# 5 0.000000 0.000000 0.000000 0.000000 0.049689 0.000000
# 6 0.003746 -0.003746 0.000000 0.000000 0.000000 0.047338
#
#
# Mechanical properties :
#
#
# Convention : Reuss Voigt Hill
#
# Bulk Modulus (GPa) = 31.75434 31.86152 31.80793
# Shear Modulus (GPa) = 18.13636 19.66242 18.89939
#
# Velocity S-wave (km/s) = 3.35846 3.49690 3.42838
# Velocity P-wave (km/s) = 5.89809 6.00995 5.95428
#
# Compressibility (1/GPa) = 0.03149176
#
# Stress axis : x y z
#
# Youngs Moduli (GPa) = 34.79485 34.79485 57.13067
#
# Poissons Ratio (x) = 0.55403 0.16634
# Poissons Ratio (y) = 0.55403 0.16634
# Poissons Ratio (z) = 0.10131 0.10131
#
# Static dielectric constant tensor:
#      x y z
#    x 1.546890 0.000000 0.000000 
#    y 0.000000 1.546890 0.000000 
#    z 0.000000 0.000000 1.600130 
# 
# From -- ./inp_files/519.got.cif
#   From: 2010.05.17/outbox.cif.g08.bks.cpg/sg86_1_cif.got.tgz:519.got - 2010.06.03 19:03:11.
