data_PCOD9544009
_publ_section_title
;
Structure prediction by ZEFSAII (Michael W. Deem and Ramdas Pophale) SiO2 
 PCOD9544009
Probable space group: P 42/M
;
_chemical_formula_sum "Si O2"
_cell_formula_units_Z 64
_cell_length_a 20.049563
_cell_length_b 20.049563
_cell_length_c 9.024771
_cell_angle_alpha 90.000000
_cell_angle_beta 90.000000
_cell_angle_gamma 90.000000
_cell_volume 3627.822358
_symmetry_space_group_name_H-M "P 42/M"
_symmetry_group_IT_number 84
_symmetry_cell_setting 'tetragonal'
loop_
_space_group_symop_operation_xyz
x,y,z
-y,x,1/2+z
-x,-y,z
y,-x,1/2+z
-x,-y,-z
y,-x,1/2-z
x,y,-z
-y,x,1/2-z
loop_
_atom_site_type_symbol
_atom_site_label
_atom_site_fract_x
_atom_site_fract_y
_atom_site_fract_z
Si Si1 0.671719 0.431047 0.331412
Si Si2 0.811948 0.714747 0.177012
Si Si3 0.655639 0.576715 0.336713
Si Si4 0.437789 0.189677 0.324691
Si Si5 0.173213 0.921715 0.677674
Si Si6 0.816135 0.574064 0.330493
Si Si7 0.176186 0.074400 0.678183
Si Si8 0.183499 0.713313 0.821420
O O1 0.697538 0.426234 0.500000
O O2 0.632251 0.500668 0.319861
O O3 0.623806 0.371233 0.289682
O O4 0.732254 0.434343 0.217278
O O5 0.873290 0.764598 0.212268
O O6 0.829069 0.642032 0.241264
O O7 0.746527 0.750553 0.248308
O O8 0.803184 0.711177 0.000000
O O9 0.635207 0.601949 0.500000
O O10 0.735386 0.572012 0.334898
O O11 0.445571 0.179947 0.500000
O O12 0.503882 0.162188 0.243072
O O13 0.363075 0.167244 0.279313
O O14 0.165026 0.920661 0.500000
O O15 0.108888 0.888570 0.752214
O O16 0.184220 0.997868 0.724800
O O17 0.839978 0.578616 0.500000
O O18 0.170942 0.076033 0.500000
O O19 0.238624 0.121754 0.718380
O O20 0.193084 0.714552 0.000000
#
# Coordination Sequence:
#
# PCOD9544009 Si02
#       8
#     8   8   8   8   8   8   8   8
#     4  10  20  31  43  60  82 111 147 187 237 294
#     4  10  19  31  50  75 101 130 167 210 253 297
#     4   9  19  32  42  56  80 109 143 185 232 287
#     4  10  19  31  48  69  92 118 154 201 249 296
#     4   9  19  34  52  78 109 139 173 209 243 288
#     4  10  20  33  48  68  94 123 158 200 249 301
#     4   9  18  34  54  76 107 143 173 204 246 293
#     4   9  18  32  51  74  99 131 169 208 253 304
#
# _framework density 17.641437
#
# number of rings (size 3 to 8) (size 9 to 14) (size 15 to 20)
#    0.000    2.500    0.000    3.000    0.000    8.500 
#    0.000    2.500    0.000    0.750    0.000    5.250 
#    0.000    0.000    0.000    0.000    0.000    0.000 
#
# Total GULP energy -356616.924361 kJ/mol
# GULP energy per Si atom -5572.139443 kJ/mol
# Density = 1.760128 g / cm^3
# Si number density = 17.641437 Si / 1000 Ang^3
#
#
#
# Elastic Constant Matrix: (Units=GPa)
#
#
# Indices 1 2 3 4 5 6 
#
# 1 96.7991 28.5377 31.1181 0.0000 0.0000 -0.5474
# 2 28.5377 96.7991 31.1181 0.0000 0.0000 0.5474
# 3 31.1181 31.1181 39.4857 0.0000 0.0000 0.0000
# 4 0.0000 0.0000 0.0000 22.2921 0.0000 0.0000
# 5 0.0000 0.0000 0.0000 0.0000 22.2921 0.0000
# 6 -0.5474 0.5474 0.0000 0.0000 0.0000 12.6199
#
#
#
# Elastic Compliance Matrix: (Units=1/GPa)
#
#
# Indices 1 2 3 4 5 6 
#
# 1 0.013884 -0.000776 -0.010330 0.000000 0.000000 0.000636
# 2 -0.000776 0.013884 -0.010330 0.000000 0.000000 -0.000636
# 3 -0.010330 -0.010330 0.041608 0.000000 0.000000 0.000000
# 4 0.000000 0.000000 0.000000 0.044859 0.000000 0.000000
# 5 0.000000 0.000000 0.000000 0.000000 0.044859 0.000000
# 6 0.000636 -0.000636 0.000000 0.000000 0.000000 0.079295
#
#
# Mechanical properties :
#
#
# Convention : Reuss Voigt Hill
#
# Bulk Modulus (GPa) = 37.73171 46.07019 41.90095
# Shear Modulus (GPa) = 17.23572 20.92817 19.08194
#
# Velocity S-wave (km/s) = 3.12909 3.44802 3.29242
# Velocity P-wave (km/s) = 5.87278 6.48253 6.18517
#
# Compressibility (1/GPa) = 0.02650291
#
# Stress axis : x y z
#
# Youngs Moduli (GPa) = 72.02598 72.02598 24.03397
#
# Poissons Ratio (x) = 0.05588 0.24828
# Poissons Ratio (y) = 0.05588 0.24828
# Poissons Ratio (z) = 0.74404 0.74404
#
# Static dielectric constant tensor:
#      x y z
#    x 1.611020 0.000000 0.000000 
#    y 0.000000 1.611020 0.000000 
#    z 0.000000 0.000000 1.626450 
# 
# From -- ./inp_files/1390.got.cif
#   From: 2010.05.17/outbox.cif.g08.bks.cpg/sg84_1_cif.got.tgz:1390.got - 2010.06.03 18:57:40.
