data_PCOD9544680
_publ_section_title
;
Structure prediction by ZEFSAII (Michael W. Deem and Ramdas Pophale) SiO2 
 PCOD9544680
Probable space group: P 4/N
;
_chemical_formula_sum "Si O2"
_cell_formula_units_Z 64
_cell_length_a 11.025301
_cell_length_b 11.025301
_cell_length_c 26.240125
_cell_angle_alpha 90.000000
_cell_angle_beta 90.000000
_cell_angle_gamma 90.000000
_cell_volume 3189.677753
_symmetry_space_group_name_H-M "P 4/N"
_symmetry_group_IT_number 85
_symmetry_cell_setting 'tetragonal'
loop_
_space_group_symop_operation_xyz
x,y,z
1/2-y,x,z
1/2-x,1/2-y,z
y,1/2-x,z
-x,-y,-z
1/2+y,-x,-z
1/2+x,1/2+y,-z
-y,1/2+x,-z
loop_
_atom_site_type_symbol
_atom_site_label
_atom_site_fract_x
_atom_site_fract_y
_atom_site_fract_z
Si Si1 0.076052 0.845279 0.508643
Si Si2 0.873404 0.482803 0.711456
Si Si3 0.138266 0.935324 0.232463
Si Si4 0.314325 0.064781 0.397731
Si Si5 0.612309 0.593739 0.982288
Si Si6 0.396312 0.734004 0.321066
Si Si7 0.565814 0.663201 0.408163
Si Si8 0.649070 0.576334 0.861548
O O1 0.201878 0.905895 0.496682
O O2 0.041459 0.862362 0.567191
O O3 0.981711 0.873548 0.464126
O O4 0.779292 0.430832 0.752656
O O5 0.811460 0.538033 0.661753
O O6 0.945420 0.369424 0.687765
O O7 0.948187 0.584835 0.739062
O O8 0.084800 0.826814 0.265701
O O9 0.110600 0.963001 0.173637
O O10 0.397114 0.178892 0.411096
O O11 0.761491 0.581583 0.995306
O O12 0.621808 0.568021 0.921495
O O13 0.500000 0.500000 0.000000
O O14 0.250000 0.750000 0.331927
O O15 0.460310 0.654224 0.364908
O O16 0.694066 0.597482 0.403107
O O17 0.792322 0.591489 0.849458
#
# Coordination Sequence:
#
# PCOD9544680 Si02
#       8
#     8   8   8   8   8   8   8   8
#     4  11  26  40  58  80 107 136 168 220 291 355
#     4  11  21  35  56  83 112 146 182 233 293 351
#     4  11  20  34  58  84 118 149 188 237 296 356
#     4  11  23  38  56  81 104 129 174 230 285 343
#     4   9  19  37  63  96 138 186 238 290 344 402
#     4  10  24  37  55  81 113 148 186 230 290 347
#     4  11  24  43  63  80 101 142 191 227 273 350
#     4   9  17  32  58  91 126 164 207 259 315 369
#
# _framework density 20.064723999999998
#
# number of rings (size 3 to 8) (size 9 to 14) (size 15 to 20)
#    0.000    1.625    2.500    3.000    5.250    4.500 
#    0.000    1.250    2.750    0.000    0.000    1.750 
#    0.000    0.000    0.000    0.000    0.000    0.000 
#
# Total GULP energy -356359.715483 kJ/mol
# GULP energy per Si atom -5568.120554 kJ/mol
# Density = 2.001906 g / cm^3
# Si number density = 20.064724 Si / 1000 Ang^3
#
#
#
# Elastic Constant Matrix: (Units=GPa)
#
#
# Indices 1 2 3 4 5 6 
#
# 1 49.1469 2.5303 9.2445 0.0000 0.0000 5.0210
# 2 2.5303 49.1469 9.2445 0.0000 0.0000 -5.0210
# 3 9.2445 9.2445 67.0875 0.0000 0.0000 0.0000
# 4 0.0000 0.0000 0.0000 29.4708 0.0000 0.0000
# 5 0.0000 0.0000 0.0000 0.0000 29.4708 0.0000
# 6 5.0210 -5.0210 0.0000 0.0000 0.0000 48.6987
#
#
#
# Elastic Compliance Matrix: (Units=1/GPa)
#
#
# Indices 1 2 3 4 5 6 
#
# 1 0.021147 -0.000792 -0.002805 0.000000 0.000000 -0.002262
# 2 -0.000792 0.021147 -0.002805 0.000000 0.000000 0.002262
# 3 -0.002805 -0.002805 0.015679 0.000000 0.000000 0.000000
# 4 0.000000 0.000000 0.000000 0.033932 0.000000 0.000000
# 5 0.000000 0.000000 0.000000 0.000000 0.033932 0.000000
# 6 -0.002262 0.002262 0.000000 0.000000 0.000000 0.021001
#
#
# Mechanical properties :
#
#
# Convention : Reuss Voigt Hill
#
# Bulk Modulus (GPa) = 22.13931 23.04665 22.59298
# Shear Modulus (GPa) = 28.62105 31.15218 29.88661
#
# Velocity S-wave (km/s) = 3.78092 3.94456 3.86360
# Velocity P-wave (km/s) = 5.48802 5.67954 5.58460
#
# Compressibility (1/GPa) = 0.04516852
#
# Stress axis : x y z
#
# Youngs Moduli (GPa) = 47.28886 47.28886 63.78001
#
# Poissons Ratio (x) = 0.03746 0.17889
# Poissons Ratio (y) = 0.03746 0.17889
# Poissons Ratio (z) = 0.13263 0.13263
#
# Static dielectric constant tensor:
#      x y z
#    x 1.774550 0.000000 0.000000 
#    y 0.000000 1.774550 0.000000 
#    z 0.000000 0.000000 1.638670 
# 
# From -- ./inp_files/2369.got.cif
#   From: 2010.05.17/outbox.cif.g08.bks.cpg/sg85_cif.got.tgz:2369.got - 2010.06.03 19:01:16.
