data_PCOD9544451
_publ_section_title
;
Structure prediction by ZEFSAII (Michael W. Deem and Ramdas Pophale) SiO2 
 PCOD9544451
Probable space group: P 42/M
;
_chemical_formula_sum "Si O2"
_cell_formula_units_Z 20
_cell_length_a 9.265119
_cell_length_b 9.265119
_cell_length_c 9.983529
_cell_angle_alpha 90.000000
_cell_angle_beta 90.000000
_cell_angle_gamma 90.000000
_cell_volume 857.010390
_symmetry_space_group_name_H-M "P 42/M"
_symmetry_group_IT_number 84
_symmetry_cell_setting 'tetragonal'
loop_
_space_group_symop_operation_xyz
x,y,z
-y,x,1/2+z
-x,-y,z
y,-x,1/2+z
-x,-y,-z
y,-x,1/2-z
x,y,-z
-y,x,1/2-z
loop_
_atom_site_type_symbol
_atom_site_label
_atom_site_fract_x
_atom_site_fract_y
_atom_site_fract_z
Si Si1 0.606478 0.126822 0.805845
Si Si2 0.332982 0.536511 0.500000
Si Si3 0.117874 0.126609 0.500000
Si Si4 0.335957 0.867377 0.500000
O O1 0.766465 0.107122 0.871010
O O2 0.595816 0.134253 0.646736
O O3 0.500000 0.000000 0.850599
O O4 0.543363 0.269374 0.871109
O O5 0.500000 0.500000 0.500000
O O6 0.274996 0.701813 0.500000
O O7 0.257570 0.024148 0.500000
O O8 0.000000 0.000000 0.500000
#
# Coordination Sequence:
#
# PCOD9544451 Si02
#       4
#     8   4   4   4
#     4  11  27  51  78 113 159 203 257 323 395 464
#     4  11  28  51  80 112 154 209 256 323 391 467
#     4  11  26  48  76 112 157 209 256 317 392 461
#     4  12  29  43  85 112 154 202 272 318 387 470
#
# _framework density 23.336943999999999
#
# number of rings (size 3 to 8) (size 9 to 14) (size 15 to 20)
#    0.000    0.800    0.000    5.400   16.800    3.200 
#    0.000    0.000    0.000    0.000    0.000    0.000 
#    0.000    0.000    0.000    0.000    0.000    0.000 
#
# Total GULP energy -111601.434216 kJ/mol
# GULP energy per Si atom -5580.071711 kJ/mol
# Density = 2.328383 g / cm^3
# Si number density = 23.336944 Si / 1000 Ang^3
#
#
#
# Elastic Constant Matrix: (Units=GPa)
#
#
# Indices 1 2 3 4 5 6 
#
# 1 170.7675 49.5536 64.5656 0.0000 0.0000 4.3010
# 2 49.5536 170.7675 64.5656 0.0000 0.0000 -4.3010
# 3 64.5656 64.5656 220.8879 0.0000 0.0000 0.0000
# 4 0.0000 0.0000 0.0000 8.4557 0.0000 0.0000
# 5 0.0000 0.0000 0.0000 0.0000 8.4557 0.0000
# 6 4.3010 -4.3010 0.0000 0.0000 0.0000 45.2246
#
#
#
# Elastic Compliance Matrix: (Units=1/GPa)
#
#
# Indices 1 2 3 4 5 6 
#
# 1 0.006892 -0.001414 -0.001601 0.000000 0.000000 -0.000790
# 2 -0.001414 0.006892 -0.001601 0.000000 0.000000 0.000790
# 3 -0.001601 -0.001601 0.005463 0.000000 0.000000 0.000000
# 4 0.000000 0.000000 0.000000 0.118263 0.000000 0.000000
# 5 0.000000 0.000000 0.000000 0.000000 0.118263 0.000000
# 6 -0.000790 0.000790 0.000000 0.000000 0.000000 0.022262
#
#
# Mechanical properties :
#
#
# Convention : Reuss Voigt Hill
#
# Bulk Modulus (GPa) = 99.86474 102.19915 101.03194
# Shear Modulus (GPa) = 17.20551 38.00976 27.60764
#
# Velocity S-wave (km/s) = 2.71821 4.04014 3.44321
# Velocity P-wave (km/s) = 7.26202 8.10257 7.69378
#
# Compressibility (1/GPa) = 0.01001354
#
# Stress axis : x y z
#
# Youngs Moduli (GPa) = 145.10523 145.10523 183.04575
#
# Poissons Ratio (x) = 0.20523 0.29305
# Poissons Ratio (y) = 0.20523 0.29305
# Poissons Ratio (z) = 0.23231 0.23231
#
# Static dielectric constant tensor:
#      x y z
#    x 1.864310 0.000000 0.000000 
#    y 0.000000 1.864310 0.000000 
#    z 0.000000 0.000000 1.853210 
# 
# From -- ./inp_files/1627.got.cif
#   From: 2010.05.17/outbox.cif.g08.bks.cpg/sg84_1_cif.got.tgz:1627.got - 2010.06.03 18:57:40.
