data_PCOD9544882
_publ_section_title
;
Structure prediction by ZEFSAII (Michael W. Deem and Ramdas Pophale) SiO2 
 PCOD9544882
Probable space group: P 42/N
;
_chemical_formula_sum "Si O2"
_cell_formula_units_Z 60
_cell_length_a 17.283627
_cell_length_b 17.283627
_cell_length_c 9.711597
_cell_angle_alpha 90.000000
_cell_angle_beta 90.000000
_cell_angle_gamma 90.000000
_cell_volume 2901.084794
_symmetry_space_group_name_H-M "P 42/N"
_symmetry_group_IT_number 86
_space_group.IT_coordinate_system_code '2'
_symmetry_cell_setting 'tetragonal'
loop_
_space_group_symop_operation_xyz
x,y,z
-y,1/2+x,1/2+z
1/2-x,1/2-y,z
1/2+y,-x,1/2+z
-x,-y,-z
y,1/2-x,1/2-z
1/2+x,1/2+y,-z
1/2-y,x,1/2-z
loop_
_atom_site_type_symbol
_atom_site_label
_atom_site_fract_x
_atom_site_fract_y
_atom_site_fract_z
Si Si1 0.912246 0.304183 0.641124
Si Si2 0.250000 0.750000 0.946298
Si Si3 0.090316 0.698138 0.042060
Si Si4 0.409356 0.979117 0.311968
Si Si5 0.046136 0.082610 0.733767
Si Si6 0.039550 0.192611 0.977089
Si Si7 0.345495 0.965961 0.011313
Si Si8 0.855001 0.706364 0.201630
O O1 0.825593 0.269984 0.639610
O O2 0.936811 0.304529 0.800370
O O3 0.908602 0.395857 0.607583
O O4 0.956694 0.242901 0.543065
O O5 0.174120 0.736268 0.035586
O O6 0.106203 0.613283 0.982848
O O7 0.026480 0.749627 0.968127
O O8 0.498313 0.986831 0.265379
O O9 0.356802 0.975623 0.174408
O O10 0.374800 0.045307 0.410099
O O11 0.013217 0.146307 0.839579
O O12 0.138927 0.088521 0.752784
O O13 0.029501 0.110944 0.579615
O O14 0.110281 0.246209 0.926444
O O15 0.772599 0.663279 0.185070
#
# Coordination Sequence:
#
# PCOD9544882 Si02
#       8
#     8   4   8   8   8   8   8   8
#     4  10  19  35  55  85 121 167 213 244 302 381
#     4  10  18  30  52  82 122 164 204 244 298 366
#     4  10  19  34  55  85 123 168 206 253 300 378
#     4  11  23  38  60  94 131 166 207 268 332 380
#     4  11  22  40  68  91 126 164 221 269 326 386
#     4  11  21  40  61  91 128 160 215 267 320 380
#     4  10  22  37  62  90 131 167 213 260 320 385
#     4   9  20  38  68  94 115 162 218 272 312 377
#
# _framework density 20.681919000000001
#
# number of rings (size 3 to 8) (size 9 to 14) (size 15 to 20)
#    0.000    1.733    2.667    2.800    1.867    0.000 
#    2.400    0.000    2.933    0.000    0.000    1.867 
#    0.000    0.000    0.000    0.000    0.000    0.000 
#
# Total GULP energy -334273.650717 kJ/mol
# GULP energy per Si atom -5571.227512 kJ/mol
# Density = 2.063485 g / cm^3
# Si number density = 20.681919 Si / 1000 Ang^3
#
#
#
# Elastic Constant Matrix: (Units=GPa)
#
#
# Indices 1 2 3 4 5 6 
#
# 1 72.9959 19.2039 17.9770 0.0000 0.0000 5.9650
# 2 19.2039 72.9959 17.9770 0.0000 0.0000 -5.9650
# 3 17.9770 17.9770 46.4232 0.0000 0.0000 0.0000
# 4 0.0000 0.0000 0.0000 19.3826 0.0000 0.0000
# 5 0.0000 0.0000 0.0000 0.0000 19.3826 0.0000
# 6 5.9650 -5.9650 0.0000 0.0000 0.0000 27.5491
#
#
#
# Elastic Compliance Matrix: (Units=1/GPa)
#
#
# Indices 1 2 3 4 5 6 
#
# 1 0.016152 -0.003376 -0.004947 0.000000 0.000000 -0.004228
# 2 -0.003376 0.016152 -0.004947 0.000000 0.000000 0.004228
# 3 -0.004947 -0.004947 0.025372 0.000000 0.000000 0.000000
# 4 0.000000 0.000000 0.000000 0.051593 0.000000 0.000000
# 5 0.000000 0.000000 0.000000 0.000000 0.051593 0.000000
# 6 -0.004228 0.004228 0.000000 0.000000 0.000000 0.038130
#
#
# Mechanical properties :
#
#
# Convention : Reuss Voigt Hill
#
# Bulk Modulus (GPa) = 32.11879 33.63674 32.87777
# Shear Modulus (GPa) = 21.19455 22.41334 21.80394
#
# Velocity S-wave (km/s) = 3.20470 3.29556 3.25045
# Velocity P-wave (km/s) = 5.40898 5.54798 5.47892
#
# Compressibility (1/GPa) = 0.03113442
#
# Stress axis : x y z
#
# Youngs Moduli (GPa) = 61.91370 61.91370 39.41292
#
# Poissons Ratio (x) = 0.20904 0.19498
# Poissons Ratio (y) = 0.20904 0.19498
# Poissons Ratio (z) = 0.30629 0.30629
#
# Static dielectric constant tensor:
#      x y z
#    x 1.816020 0.000000 0.000000 
#    y 0.000000 1.816020 0.000000 
#    z 0.000000 0.000000 1.723260 
# 
# From -- ./inp_files/1485.got.cif
#   From: 2010.05.17/outbox.cif.g08.bks.cpg/sg86_1_cif.got.tgz:1485.got - 2010.06.03 19:03:11.
