data_PCOD9544918
_publ_section_title
;
Structure prediction by ZEFSAII (Michael W. Deem and Ramdas Pophale) SiO2 
 PCOD9544918
Probable space group: P 42/N
;
_chemical_formula_sum "Si O2"
_cell_formula_units_Z 44
_cell_length_a 13.073168
_cell_length_b 13.073168
_cell_length_c 10.138861
_cell_angle_alpha 90.000000
_cell_angle_beta 90.000000
_cell_angle_gamma 90.000000
_cell_volume 1732.809633
_symmetry_space_group_name_H-M "P 42/N"
_symmetry_group_IT_number 86
_space_group.IT_coordinate_system_code '2'
_symmetry_cell_setting 'tetragonal'
loop_
_space_group_symop_operation_xyz
x,y,z
-y,1/2+x,1/2+z
1/2-x,1/2-y,z
1/2+y,-x,1/2+z
-x,-y,-z
y,1/2-x,1/2-z
1/2+x,1/2+y,-z
1/2-y,x,1/2-z
loop_
_atom_site_type_symbol
_atom_site_label
_atom_site_fract_x
_atom_site_fract_y
_atom_site_fract_z
Si Si1 0.966794 0.426992 0.171918
Si Si2 0.750000 0.750000 0.436915
Si Si3 0.155615 0.042792 0.600255
Si Si4 0.883578 0.686080 0.675983
Si Si5 0.242117 0.629730 0.969544
Si Si6 0.825594 0.155225 0.279476
O O1 0.972124 0.548505 0.174817
O O2 0.853134 0.400718 0.123714
O O3 0.014098 0.377916 0.302071
O O4 0.035119 0.378087 0.052850
O O5 0.788802 0.852392 0.367696
O O6 0.845179 0.715247 0.530554
O O7 0.217991 0.942232 0.640483
O O8 0.789830 0.619638 0.737594
O O9 0.250000 0.750000 0.998669
O O10 0.339199 0.613347 0.871501
O O11 0.203019 0.592291 0.115367
O O12 0.750000 0.250000 0.254782
#
# Coordination Sequence:
#
# PCOD9544918 Si02
#       6
#     8   4   8   8   8   8
#     4  10  19  34  57  92 120 164 230 274 342 412
#     4  10  19  38  56  91 132 174 224 285 361 414
#     4  10  20  35  59  89 127 174 228 277 347 424
#     4   9  16  30  51  86 118 162 213 275 338 402
#     4   9  19  37  58  87 128 167 218 276 345 411
#     4   9  19  38  59  92 128 178 227 280 352 411
#
# _framework density 25.392285000000001
#
# number of rings (size 3 to 8) (size 9 to 14) (size 15 to 20)
#    0.000    2.727    3.636    0.000    0.000    2.909 
#   13.091    1.818    0.000    1.091    0.000    0.000 
#    0.000    0.000    0.000    0.000    0.000    0.000 
#
# Total GULP energy -244971.772463 kJ/mol
# GULP energy per Si atom -5567.540283 kJ/mol
# Density = 2.533449 g / cm^3
# Si number density = 25.392285 Si / 1000 Ang^3
#
#
#
# Elastic Constant Matrix: (Units=GPa)
#
#
# Indices 1 2 3 4 5 6 
#
# 1 97.9754 43.8205 22.4451 0.0000 0.0000 -10.1917
# 2 43.8205 97.9754 22.4451 0.0000 0.0000 10.1917
# 3 22.4451 22.4451 105.0106 0.0000 0.0000 0.0000
# 4 0.0000 0.0000 0.0000 26.8615 0.0000 0.0000
# 5 0.0000 0.0000 0.0000 0.0000 26.8615 0.0000
# 6 -10.1917 10.1917 0.0000 0.0000 0.0000 26.2506
#
#
#
# Elastic Compliance Matrix: (Units=1/GPa)
#
#
# Indices 1 2 3 4 5 6 
#
# 1 0.014595 -0.007031 -0.001617 0.000000 0.000000 0.008396
# 2 -0.007031 0.014595 -0.001617 0.000000 0.000000 -0.008396
# 3 -0.001617 -0.001617 0.010214 0.000000 0.000000 0.000000
# 4 0.000000 0.000000 0.000000 0.037228 0.000000 0.000000
# 5 0.000000 0.000000 0.000000 0.000000 0.037228 0.000000
# 6 0.008396 -0.008396 0.000000 0.000000 0.000000 0.044614
#
#
# Mechanical properties :
#
#
# Convention : Reuss Voigt Hill
#
# Bulk Modulus (GPa) = 52.97925 53.15365 53.06645
# Shear Modulus (GPa) = 26.98408 30.14474 28.56441
#
# Velocity S-wave (km/s) = 3.26343 3.44926 3.35763
# Velocity P-wave (km/s) = 5.92533 6.06973 5.99796
#
# Compressibility (1/GPa) = 0.01887531
#
# Stress axis : x y z
#
# Youngs Moduli (GPa) = 68.51659 68.51659 97.90480
#
# Poissons Ratio (x) = 0.48172 0.15829
# Poissons Ratio (y) = 0.48172 0.15829
# Poissons Ratio (z) = 0.11078 0.11078
#
# Static dielectric constant tensor:
#      x y z
#    x 2.909340 0.000000 0.000000 
#    y 0.000000 2.909340 0.000000 
#    z 0.000000 0.000000 2.223090 
# 
# From -- ./inp_files/2209.got.cif
#   From: 2010.05.17/outbox.cif.g08.bks.cpg/sg86_2_cif.got.tgz:2209.got - 2010.06.03 19:03:11.
