data_PCOD9544601
_publ_section_title
;
Structure prediction by ZEFSAII (Michael W. Deem and Ramdas Pophale) SiO2 
 PCOD9544601
Probable space group: P 4/N
;
_chemical_formula_sum "Si O2"
_cell_formula_units_Z 60
_cell_length_a 11.234700
_cell_length_b 11.234700
_cell_length_c 20.986468
_cell_angle_alpha 90.000000
_cell_angle_beta 90.000000
_cell_angle_gamma 90.000000
_cell_volume 2648.880177
_symmetry_space_group_name_H-M "P 4/N"
_symmetry_group_IT_number 85
_symmetry_cell_setting 'tetragonal'
loop_
_space_group_symop_operation_xyz
x,y,z
1/2-y,x,z
1/2-x,1/2-y,z
y,1/2-x,z
-x,-y,-z
1/2+y,-x,-z
1/2+x,1/2+y,-z
-y,1/2+x,-z
loop_
_atom_site_type_symbol
_atom_site_label
_atom_site_fract_x
_atom_site_fract_y
_atom_site_fract_z
Si Si1 0.654432 0.044719 0.848113
Si Si2 0.612080 0.604883 0.735847
Si Si3 0.434988 0.728536 0.474588
Si Si4 0.247150 0.059009 0.406151
Si Si5 0.937127 0.282675 0.020426
Si Si6 0.601909 0.377744 0.659577
Si Si7 0.332117 0.424182 0.904911
Si Si8 0.750000 0.250000 0.242231
O O1 0.737263 0.028141 0.909906
O O2 0.538940 0.114685 0.872216
O O3 0.721348 0.135133 0.800143
O O4 0.605729 0.930602 0.809564
O O5 0.753698 0.588395 0.724330
O O6 0.551166 0.491290 0.699823
O O7 0.352890 0.634616 0.514621
O O8 0.548720 0.745312 0.518053
O O9 0.457152 0.681392 0.403229
O O10 0.362854 0.132309 0.388667
O O11 0.221282 0.932097 0.374666
O O12 0.879524 0.169679 0.982057
O O13 0.046887 0.333625 0.980464
O O14 0.640491 0.281698 0.711329
O O15 0.194890 0.401779 0.888138
#
# Coordination Sequence:
#
# PCOD9544601 Si02
#       8
#     8   8   8   8   8   8   8   4
#     4  11  24  40  66  94 134 178 224 280 334 416
#     4  11  24  43  63  96 136 177 228 280 342 394
#     4   9  19  38  61  90 122 162 219 274 328 394
#     4  10  21  38  63  93 127 167 211 277 346 395
#     4   9  19  39  65  95 123 163 219 283 346 405
#     4  11  22  39  63  92 132 176 217 275 325 408
#     4  10  23  41  64  94 130 172 222 282 349 414
#     4  12  24  42  62  92 132 176 226 260 326 408
#
# _framework density 22.651081999999999
#
# number of rings (size 3 to 8) (size 9 to 14) (size 15 to 20)
#    0.000    1.733    1.333    4.000    1.867    7.467 
#    2.400    1.333    0.000    0.000    0.000    0.000 
#    0.000    0.000    0.000    0.000    0.000    0.000 
#
# Total GULP energy -334563.842313 kJ/mol
# GULP energy per Si atom -5576.064039 kJ/mol
# Density = 2.259953 g / cm^3
# Si number density = 22.651082 Si / 1000 Ang^3
#
#
#
# Elastic Constant Matrix: (Units=GPa)
#
#
# Indices 1 2 3 4 5 6 
#
# 1 37.5980 -11.7350 14.4836 0.0000 0.0000 -2.6474
# 2 -11.7350 37.5980 14.4836 0.0000 0.0000 2.6474
# 3 14.4836 14.4836 130.9315 0.0000 0.0000 0.0000
# 4 0.0000 0.0000 0.0000 42.2578 0.0000 0.0000
# 5 0.0000 0.0000 0.0000 0.0000 42.2578 0.0000
# 6 -2.6474 2.6474 0.0000 0.0000 0.0000 -20.2415
#
#
#
# Elastic Compliance Matrix: (Units=1/GPa)
#
#
# Indices 1 2 3 4 5 6 
#
# 1 0.032061 0.012072 -0.004882 0.000000 0.000000 -0.002614
# 2 0.012072 0.032061 -0.004882 0.000000 0.000000 0.002614
# 3 -0.004882 -0.004882 0.008718 0.000000 0.000000 0.000000
# 4 0.000000 0.000000 0.000000 0.023664 0.000000 0.000000
# 5 0.000000 0.000000 0.000000 0.000000 0.023664 0.000000
# 6 -0.002614 0.002614 0.000000 0.000000 0.000000 -0.048719
#
#
# Mechanical properties :
#
#
# Convention : Reuss Voigt Hill
#
# Bulk Modulus (GPa) = 12.91056 26.73243 19.82149
# Shear Modulus (GPa) = 53.96483 25.44784 39.70633
#
# Velocity S-wave (km/s) = 4.88632 3.35546 4.19137
# Velocity P-wave (km/s) = 6.12756 5.18069 5.67391
#
# Compressibility (1/GPa) = 0.07745600
#
# Stress axis : x y z
#
# Youngs Moduli (GPa) = 31.19009 31.19009 114.70953
#
# Poissons Ratio (x) = -0.37652 0.56001
# Poissons Ratio (y) = -0.37652 0.56001
# Poissons Ratio (z) = 0.15227 0.15227
#
# Static dielectric constant tensor:
#      x y z
#    x 1.865460 0.000000 0.000000 
#    y 0.000000 1.865460 0.000000 
#    z 0.000000 0.000000 1.965410 
# 
# From -- ./inp_files/2288.got.cif
#   From: 2010.05.17/outbox.cif.g08.bks.cpg/sg85_cif.got.tgz:2288.got - 2010.06.03 19:01:16.
