data_PCOD9544064
_publ_section_title
;
Structure prediction by ZEFSAII (Michael W. Deem and Ramdas Pophale) SiO2 
 PCOD9544064
Probable space group: P 42/M
;
_chemical_formula_sum "Si O2"
_cell_formula_units_Z 40
_cell_length_a 9.973059
_cell_length_b 9.973059
_cell_length_c 23.675479
_cell_angle_alpha 90.000000
_cell_angle_beta 90.000000
_cell_angle_gamma 90.000000
_cell_volume 2354.808262
_symmetry_space_group_name_H-M "P 42/M"
_symmetry_group_IT_number 84
_symmetry_cell_setting 'tetragonal'
loop_
_space_group_symop_operation_xyz
x,y,z
-y,x,1/2+z
-x,-y,z
y,-x,1/2+z
-x,-y,-z
y,-x,1/2-z
x,y,-z
-y,x,1/2-z
loop_
_atom_site_type_symbol
_atom_site_label
_atom_site_fract_x
_atom_site_fract_y
_atom_site_fract_z
Si Si1 0.998273 0.339713 0.067669
Si Si2 0.161234 0.498302 0.436878
Si Si3 0.155934 0.226065 0.374007
Si Si4 0.145786 0.169623 0.751138
Si Si5 0.831459 0.228230 0.376005
O O1 0.887127 0.252989 0.101053
O O2 0.000000 0.500000 0.081271
O O3 0.132148 0.261598 0.086679
O O4 0.978704 0.328146 0.000000
O O5 0.217689 0.510068 0.500000
O O6 0.192825 0.359017 0.407686
O O7 0.194253 0.623356 0.398016
O O8 0.000000 0.500000 0.441584
O O9 0.177664 0.244328 0.306934
O O10 0.993782 0.196918 0.381085
O O11 0.213326 0.205508 0.810152
O O12 0.986287 0.178069 0.760744
#
# Coordination Sequence:
#
# PCOD9544064 Si02
#       5
#     8   8   8   8   8
#     4  11  23  37  53  81 113 143 186 231 278 331
#     4   9  18  32  53  83 111 137 182 229 269 325
#     4  10  19  35  56  82 110 145 182 227 275 328
#     4   9  16  30  52  80 113 136 178 227 268 324
#     4  10  19  35  56  82 110 145 182 227 275 328
#
# _framework density 16.986519999999999
#
# number of rings (size 3 to 8) (size 9 to 14) (size 15 to 20)
#    0.000    2.200    2.000    1.800    0.000    3.200 
#    3.600    1.000    0.000    3.600    0.000    0.000 
#    0.000    0.000    0.000    0.000    0.000    0.000 
#
# Total GULP energy -222784.168187 kJ/mol
# GULP energy per Si atom -5569.604205 kJ/mol
# Density = 1.694786 g / cm^3
# Si number density = 16.986520 Si / 1000 Ang^3
#
#
#
# Elastic Constant Matrix: (Units=GPa)
#
#
# Indices 1 2 3 4 5 6 
#
# 1 40.2609 0.1118 -5.9375 0.0000 0.0000 -0.9577
# 2 0.1118 40.2609 -5.9375 0.0000 0.0000 0.9577
# 3 -5.9375 -5.9375 78.9939 0.0000 0.0000 0.0000
# 4 0.0000 0.0000 0.0000 -221.4093 0.0000 0.0000
# 5 0.0000 0.0000 0.0000 0.0000 -221.4093 0.0000
# 6 -0.9577 0.9577 0.0000 0.0000 0.0000 6.5735
#
#
#
# Elastic Compliance Matrix: (Units=1/GPa)
#
#
# Indices 1 2 3 4 5 6 
#
# 1 0.025205 0.000124 0.001904 0.000000 0.000000 0.003654
# 2 0.000124 0.025205 0.001904 0.000000 0.000000 -0.003654
# 3 0.001904 0.001904 0.012945 0.000000 0.000000 0.000000
# 4 0.000000 0.000000 0.000000 -0.004517 0.000000 0.000000
# 5 0.000000 0.000000 0.000000 0.000000 -0.004517 0.000000
# 6 0.003654 -0.003654 0.000000 0.000000 0.000000 0.153191
#
#
# Mechanical properties :
#
#
# Convention : Reuss Voigt Hill
#
# Bulk Modulus (GPa) = 14.04116 15.10993 14.57555
# Shear Modulus (GPa) = 22.38226 -75.83046 -26.72410
#
# Velocity S-wave (km/s) = 3.63388 -6.68868 -3.97073
# Velocity P-wave (km/s) = 5.08830 7.12297 3.52462
#
# Compressibility (1/GPa) = 0.07121917
#
# Stress axis : x y z
#
# Youngs Moduli (GPa) = 39.67411 39.67411 77.24745
#
# Poissons Ratio (x) = -0.00491 -0.14707
# Poissons Ratio (y) = -0.00491 -0.14707
# Poissons Ratio (z) = -0.07553 -0.07553
#
# Static dielectric constant tensor:
#      x y z
#    x 1.580040 0.000000 0.000000 
#    y 0.000000 1.580040 0.000000 
#    z 0.000000 0.000000 1.586150 
# 
# From -- ./inp_files/4867.got.cif
#   From: 2010.05.17/outbox.cif.g08.bks.cpg/sg84_3_cif.got.tgz:4867.got - 2010.06.03 18:57:40.
