data_PCOD9544651
_publ_section_title
;
Structure prediction by ZEFSAII (Michael W. Deem and Ramdas Pophale) SiO2 
 PCOD9544651
Probable space group: P 4/N
;
_chemical_formula_sum "Si O2"
_cell_formula_units_Z 56
_cell_length_a 16.303228
_cell_length_b 16.303228
_cell_length_c 11.489465
_cell_angle_alpha 90.000000
_cell_angle_beta 90.000000
_cell_angle_gamma 90.000000
_cell_volume 3053.845144
_symmetry_space_group_name_H-M "P 4/N"
_symmetry_group_IT_number 85
_symmetry_cell_setting 'tetragonal'
loop_
_space_group_symop_operation_xyz
x,y,z
1/2-y,x,z
1/2-x,1/2-y,z
y,1/2-x,z
-x,-y,-z
1/2+y,-x,-z
1/2+x,1/2+y,-z
-y,1/2+x,-z
loop_
_atom_site_type_symbol
_atom_site_label
_atom_site_fract_x
_atom_site_fract_y
_atom_site_fract_z
Si Si1 0.012215 0.778511 0.430137
Si Si2 0.994677 0.032652 0.632657
Si Si3 0.769587 0.346263 0.617306
Si Si4 0.854860 0.057410 0.256543
Si Si5 0.123691 0.689719 0.005009
Si Si6 0.468108 0.828190 0.767238
Si Si7 0.111498 0.254411 0.359883
O O1 0.001001 0.870305 0.386404
O O2 0.942614 0.751267 0.522294
O O3 0.098925 0.769692 0.499932
O O4 0.013544 0.720959 0.318778
O O5 0.911693 0.009259 0.700407
O O6 0.066812 0.996390 0.711232
O O7 0.000000 0.000000 0.500000
O O8 0.750000 0.250000 0.614839
O O9 0.856359 0.363557 0.676486
O O10 0.702881 0.388029 0.699084
O O11 0.837345 0.080381 0.124173
O O12 0.144700 0.787466 0.005842
O O13 0.062673 0.667764 0.899072
O O14 0.543473 0.766204 0.741432
O O15 0.168392 0.173622 0.355108
#
# Coordination Sequence:
#
# PCOD9544651 Si02
#       7
#     8   8   8   8   8   8   8
#     4  11  23  37  61  92 129 163 200 260 322 389
#     4  12  23  41  60  97 132 159 208 264 327 383
#     4  11  22  36  58  92 125 162 203 252 320 385
#     4  12  25  38  63  91 127 170 206 259 319 382
#     4  11  23  43  62  90 129 170 215 258 311 382
#     4  11  24  39  63  89 125 171 211 264 312 374
#     4  10  22  41  65  91 123 168 217 264 320 379
#
# _framework density 18.337536
#
# number of rings (size 3 to 8) (size 9 to 14) (size 15 to 20)
#    0.000    0.857    2.857    6.000    4.000    0.571 
#    0.000    1.429    0.000    0.000    0.000    2.000 
#    0.000    0.000    0.000    0.000    0.000    0.000 
#
# Total GULP energy -312846.754221 kJ/mol
# GULP energy per Si atom -5586.549183 kJ/mol
# Density = 1.829580 g / cm^3
# Si number density = 18.337536 Si / 1000 Ang^3
#
#
#
# Elastic Constant Matrix: (Units=GPa)
#
#
# Indices 1 2 3 4 5 6 
#
# 1 77.2657 38.2439 21.4049 0.0000 0.0000 -5.5313
# 2 38.2439 77.2657 21.4049 0.0000 0.0000 5.5313
# 3 21.4049 21.4049 105.0481 0.0000 0.0000 0.0000
# 4 0.0000 0.0000 0.0000 14.2167 0.0000 0.0000
# 5 0.0000 0.0000 0.0000 0.0000 14.2167 0.0000
# 6 -5.5313 5.5313 0.0000 0.0000 0.0000 24.8338
#
#
#
# Elastic Compliance Matrix: (Units=1/GPa)
#
#
# Indices 1 2 3 4 5 6 
#
# 1 0.018359 -0.008995 -0.001908 0.000000 0.000000 0.006093
# 2 -0.008995 0.018359 -0.001908 0.000000 0.000000 -0.006093
# 3 -0.001908 -0.001908 0.010297 0.000000 0.000000 0.000000
# 4 0.000000 0.000000 0.000000 0.070340 0.000000 0.000000
# 5 0.000000 0.000000 0.000000 0.000000 0.070340 0.000000
# 6 0.006093 -0.006093 0.000000 0.000000 0.000000 0.042982
#
#
# Mechanical properties :
#
#
# Convention : Reuss Voigt Hill
#
# Bulk Modulus (GPa) = 46.74322 46.85411 46.79866
# Shear Modulus (GPa) = 18.98038 22.55515 20.76776
#
# Velocity S-wave (km/s) = 3.22072 3.51094 3.36896
# Velocity P-wave (km/s) = 6.27507 6.48398 6.38038
#
# Compressibility (1/GPa) = 0.02139348
#
# Stress axis : x y z
#
# Youngs Moduli (GPa) = 54.46852 54.46852 97.11504
#
# Poissons Ratio (x) = 0.48993 0.18531
# Poissons Ratio (y) = 0.48993 0.18531
# Poissons Ratio (z) = 0.10393 0.10393
#
# Static dielectric constant tensor:
#      x y z
#    x 1.698720 0.000000 0.000000 
#    y 0.000000 1.698720 0.000000 
#    z 0.000000 0.000000 1.643020 
# 
# From -- ./inp_files/1761.got.cif
#   From: 2010.05.17/outbox.cif.g08.bks.cpg/sg85_cif.got.tgz:1761.got - 2010.06.03 19:01:16.
