data_PCOD9544912
_publ_section_title
;
Structure prediction by ZEFSAII (Michael W. Deem and Ramdas Pophale) SiO2 
 PCOD9544912
Probable space group: P 42/N
;
_chemical_formula_sum "Si O2"
_cell_formula_units_Z 64
_cell_length_a 12.628593
_cell_length_b 12.628593
_cell_length_c 23.097818
_cell_angle_alpha 90.000000
_cell_angle_beta 90.000000
_cell_angle_gamma 90.000000
_cell_volume 3683.671454
_symmetry_space_group_name_H-M "P 42/N"
_symmetry_group_IT_number 86
_space_group.IT_coordinate_system_code '2'
_symmetry_cell_setting 'tetragonal'
loop_
_space_group_symop_operation_xyz
x,y,z
-y,1/2+x,1/2+z
1/2-x,1/2-y,z
1/2+y,-x,1/2+z
-x,-y,-z
y,1/2-x,1/2-z
1/2+x,1/2+y,-z
1/2-y,x,1/2-z
loop_
_atom_site_type_symbol
_atom_site_label
_atom_site_fract_x
_atom_site_fract_y
_atom_site_fract_z
Si Si1 0.931982 0.913086 0.278176
Si Si2 0.224632 0.128230 0.160938
Si Si3 0.929853 0.222934 0.634036
Si Si4 0.626205 0.722733 0.167209
Si Si5 0.621738 0.570752 0.062615
Si Si6 0.136952 0.463892 0.249046
Si Si7 0.599079 0.931749 0.566728
Si Si8 0.229676 0.581116 0.354313
O O1 0.893974 0.856801 0.219793
O O2 0.830480 0.935158 0.318630
O O3 0.002840 0.828579 0.313864
O O4 0.986267 0.021444 0.258332
O O5 0.250000 0.250000 0.145950
O O6 0.322929 0.063872 0.185273
O O7 0.144737 0.129821 0.215252
O O8 0.164673 0.071869 0.108928
O O9 0.858606 0.325987 0.647653
O O10 0.839952 0.132577 0.625105
O O11 0.009080 0.271137 0.584583
O O12 0.750000 0.750000 0.167295
O O13 0.601717 0.664709 0.107651
O O14 0.522986 0.489706 0.066144
O O15 0.616157 0.612710 0.997039
O O16 0.217324 0.532462 0.289563
O O17 0.695692 0.991400 0.599423
#
# Coordination Sequence:
#
# PCOD9544912 Si02
#       8
#     8   8   8   8   8   8   8   8
#     4  12  21  32  55  82 116 150 179 226 282 345
#     4  11  20  36  55  82 110 146 183 231 279 332
#     4  10  19  33  56  83 114 145 188 233 280 340
#     4  12  20  35  54  80 116 144 183 223 278 333
#     4  10  20  39  58  84 106 151 194 235 281 335
#     4  11  20  34  55  80 117 148 183 226 287 342
#     4   9  21  38  61  78 110 147 197 233 281 340
#     4   9  19  34  55  84 110 147 187 231 285 341
#
# _framework density 17.373971000000001
#
# number of rings (size 3 to 8) (size 9 to 14) (size 15 to 20)
#    0.000    1.500    3.750    3.750    1.750    0.500 
#    0.000    1.250    0.000    3.000    0.000    0.000 
#    0.000    0.000    0.000    0.000    0.000    0.000 
#
# Total GULP energy -356502.067644 kJ/mol
# GULP energy per Si atom -5570.344807 kJ/mol
# Density = 1.733443 g / cm^3
# Si number density = 17.373971 Si / 1000 Ang^3
#
#
#
# Elastic Constant Matrix: (Units=GPa)
#
#
# Indices 1 2 3 4 5 6 
#
# 1 69.1590 -5.0976 30.2333 0.0000 0.0000 0.7945
# 2 -5.0976 69.1590 30.2333 0.0000 0.0000 -0.7945
# 3 30.2333 30.2333 122.0081 0.0000 0.0000 0.0000
# 4 0.0000 0.0000 0.0000 19.0901 0.0000 0.0000
# 5 0.0000 0.0000 0.0000 0.0000 19.0901 0.0000
# 6 0.7945 -0.7945 0.0000 0.0000 0.0000 20.9015
#
#
#
# Elastic Compliance Matrix: (Units=1/GPa)
#
#
# Indices 1 2 3 4 5 6 
#
# 1 0.016927 0.003449 -0.005049 0.000000 0.000000 -0.000512
# 2 0.003449 0.016927 -0.005049 0.000000 0.000000 0.000512
# 3 -0.005049 -0.005049 0.010698 0.000000 0.000000 0.000000
# 4 0.000000 0.000000 0.000000 0.052383 0.000000 0.000000
# 5 0.000000 0.000000 0.000000 0.000000 0.052383 0.000000
# 6 -0.000512 0.000512 0.000000 0.000000 0.000000 0.047882
#
#
# Mechanical properties :
#
#
# Convention : Reuss Voigt Hill
#
# Bulk Modulus (GPa) = 31.99619 41.22937 36.61278
# Shear Modulus (GPa) = 22.63291 25.48012 24.05652
#
# Velocity S-wave (km/s) = 3.61320 3.83374 3.72510
# Velocity P-wave (km/s) = 5.98858 6.58626 6.29451
#
# Compressibility (1/GPa) = 0.03125372
#
# Stress axis : x y z
#
# Youngs Moduli (GPa) = 59.07800 59.07800 93.47126
#
# Poissons Ratio (x) = -0.20376 0.47194
# Poissons Ratio (y) = -0.20376 0.47194
# Poissons Ratio (z) = 0.29829 0.29829
#
# Static dielectric constant tensor:
#      x y z
#    x 1.620630 0.000000 0.000000 
#    y 0.000000 1.620630 0.000000 
#    z 0.000000 0.000000 1.580490 
# 
# From -- ./inp_files/4686.got.cif
#   From: 2010.05.17/outbox.cif.g08.bks.cpg/sg86_3_cif.got.tgz:4686.got - 2010.06.03 19:03:11.
