data_PCOD9544524
_publ_section_title
;
Structure prediction by ZEFSAII (Michael W. Deem and Ramdas Pophale) SiO2 
 PCOD9544524
Probable space group: P 4/N
;
_chemical_formula_sum "Si O2"
_cell_formula_units_Z 40
_cell_length_a 14.226055
_cell_length_b 14.226055
_cell_length_c 9.040383
_cell_angle_alpha 90.000000
_cell_angle_beta 90.000000
_cell_angle_gamma 90.000000
_cell_volume 1829.598505
_symmetry_space_group_name_H-M "P 4/N"
_symmetry_group_IT_number 85
_symmetry_cell_setting 'tetragonal'
loop_
_space_group_symop_operation_xyz
x,y,z
1/2-y,x,z
1/2-x,1/2-y,z
y,1/2-x,z
-x,-y,-z
1/2+y,-x,-z
1/2+x,1/2+y,-z
-y,1/2+x,-z
loop_
_atom_site_type_symbol
_atom_site_label
_atom_site_fract_x
_atom_site_fract_y
_atom_site_fract_z
Si Si1 0.012851 0.784103 0.924754
Si Si2 0.088696 0.563866 0.463816
Si Si3 0.326619 0.818021 0.729518
Si Si4 0.294697 0.103209 0.350355
Si Si5 0.657303 0.430168 0.145746
O O1 0.092231 0.731076 0.824446
O O2 0.068954 0.883899 0.941699
O O3 0.923285 0.801815 0.822303
O O4 0.988136 0.708364 0.052647
O O5 0.122082 0.622819 0.604131
O O6 0.173133 0.491470 0.429904
O O7 0.062885 0.622074 0.314961
O O8 0.000000 0.500000 0.500000
O O9 0.250000 0.750000 0.655485
O O10 0.253469 0.868626 0.840615
O O11 0.363597 0.189598 0.385767
#
# Coordination Sequence:
#
# PCOD9544524 Si02
#       5
#     8   8   8   8   8
#     4  10  19  39  60  92 123 160 207 255 319 371
#     4  11  25  40  62  98 128 163 213 264 319 384
#     4  10  22  35  63  92 129 160 205 259 322 373
#     4  10  23  43  65  82 120 172 212 253 310 385
#     4  10  21  35  60  92 128 162 199 265 315 373
#
# _framework density 21.862721000000001
#
# number of rings (size 3 to 8) (size 9 to 14) (size 15 to 20)
#    0.000    1.800    2.000    1.200   11.200    0.000 
#    3.600    3.000    0.000    0.000    0.000    0.000 
#    0.000    0.000    0.000    0.000    0.000    0.000 
#
# Total GULP energy -222837.235000 kJ/mol
# GULP energy per Si atom -5570.930875 kJ/mol
# Density = 2.181296 g / cm^3
# Si number density = 21.862721 Si / 1000 Ang^3
#
#
#
# Elastic Constant Matrix: (Units=GPa)
#
#
# Indices 1 2 3 4 5 6 
#
# 1 49.1832 10.6756 10.7802 0.0000 0.0000 2.5220
# 2 10.6756 49.1832 10.7802 0.0000 0.0000 -2.5220
# 3 10.7802 10.7802 49.5471 0.0000 0.0000 0.0000
# 4 0.0000 0.0000 0.0000 22.7176 0.0000 0.0000
# 5 0.0000 0.0000 0.0000 0.0000 22.7176 0.0000
# 6 2.5220 -2.5220 0.0000 0.0000 0.0000 34.4456
#
#
#
# Elastic Compliance Matrix: (Units=1/GPa)
#
#
# Indices 1 2 3 4 5 6 
#
# 1 0.022173 -0.004047 -0.003944 0.000000 0.000000 -0.001920
# 2 -0.004047 0.022173 -0.003944 0.000000 0.000000 0.001920
# 3 -0.003944 -0.003944 0.021899 0.000000 0.000000 0.000000
# 4 0.000000 0.000000 0.000000 0.044019 0.000000 0.000000
# 5 0.000000 0.000000 0.000000 0.000000 0.044019 0.000000
# 6 -0.001920 0.001920 0.000000 0.000000 0.000000 0.029312
#
#
# Mechanical properties :
#
#
# Convention : Reuss Voigt Hill
#
# Bulk Modulus (GPa) = 23.59799 23.59841 23.59820
# Shear Modulus (GPa) = 22.56413 23.68799 23.12606
#
# Velocity S-wave (km/s) = 3.21609 3.29521 3.25589
# Velocity P-wave (km/s) = 4.96066 5.02943 4.99516
#
# Compressibility (1/GPa) = 0.04237649
#
# Stress axis : x y z
#
# Youngs Moduli (GPa) = 45.09903 45.09903 45.66417
#
# Poissons Ratio (x) = 0.18251 0.18009
# Poissons Ratio (y) = 0.18251 0.18009
# Poissons Ratio (z) = 0.17787 0.17787
#
# Static dielectric constant tensor:
#      x y z
#    x 1.877710 0.000000 0.000000 
#    y 0.000000 1.877710 0.000000 
#    z 0.000000 0.000000 1.964920 
# 
# From -- ./inp_files/894.got.cif
#   From: 2010.05.17/outbox.cif.g08.bks.cpg/sg85_cif.got.tgz:894.got - 2010.06.03 19:01:16.
