data_PCOD9544055
_publ_section_title
;
Structure prediction by ZEFSAII (Michael W. Deem and Ramdas Pophale) SiO2 
 PCOD9544055
Probable space group: P 42/M
;
_chemical_formula_sum "Si O2"
_cell_formula_units_Z 56
_cell_length_a 14.731577
_cell_length_b 14.731577
_cell_length_c 13.414277
_cell_angle_alpha 90.000000
_cell_angle_beta 90.000000
_cell_angle_gamma 90.000000
_cell_volume 2911.157822
_symmetry_space_group_name_H-M "P 42/M"
_symmetry_group_IT_number 84
_symmetry_cell_setting 'tetragonal'
loop_
_space_group_symop_operation_xyz
x,y,z
-y,x,1/2+z
-x,-y,z
y,-x,1/2+z
-x,-y,-z
y,-x,1/2-z
x,y,-z
-y,x,1/2-z
loop_
_atom_site_type_symbol
_atom_site_label
_atom_site_fract_x
_atom_site_fract_y
_atom_site_fract_z
Si Si1 0.827395 0.640387 0.201853
Si Si2 0.595663 0.972993 0.229071
Si Si3 0.452340 0.188323 0.383787
Si Si4 0.710798 0.280474 0.114498
Si Si5 0.114029 0.836475 0.883047
Si Si6 0.783711 0.983842 0.119463
Si Si7 0.091996 0.186272 0.118621
O O1 0.789254 0.557283 0.138158
O O2 0.773753 0.651242 0.305799
O O3 0.835663 0.738949 0.153815
O O4 0.933899 0.617929 0.213985
O O5 0.576049 0.891110 0.305894
O O6 0.685281 0.958215 0.163071
O O7 0.500000 0.000000 0.175485
O O8 0.441424 0.159533 0.500000
O O9 0.387275 0.275242 0.368230
O O10 0.814869 0.244930 0.123803
O O11 0.682492 0.262613 0.000000
O O12 0.013285 0.814091 0.844751
O O13 0.172634 0.921331 0.843288
O O14 0.100228 0.857898 0.000000
O O15 0.860453 0.909302 0.138648
O O16 0.771493 0.991752 0.000000
O O17 0.084869 0.199468 0.000000
#
# Coordination Sequence:
#
# PCOD9544055 Si02
#       7
#     8   8   8   8   8   8   8
#     4  11  21  35  58  83 113 148 193 246 292 346
#     4  10  21  34  52  79 109 149 194 244 288 339
#     4  10  22  39  60  86 117 154 195 243 296 351
#     4  10  20  37  60  82 111 149 191 237 290 353
#     4   9  17  32  53  76 110 155 197 235 281 339
#     4  10  19  34  52  76 116 156 196 240 288 344
#     4  10  20  31  50  80 114 155 196 239 286 337
#
# _framework density 19.236333999999999
#
# number of rings (size 3 to 8) (size 9 to 14) (size 15 to 20)
#    0.000    2.000    1.429    2.571    0.000    6.286 
#    0.000    2.143    3.143    2.143    0.000    2.000 
#    0.000    1.143    0.000    0.000    0.000    0.000 
#
# Total GULP energy -312218.462868 kJ/mol
# GULP energy per Si atom -5575.329694 kJ/mol
# Density = 1.919255 g / cm^3
# Si number density = 19.236334 Si / 1000 Ang^3
#
#
#
# Elastic Constant Matrix: (Units=GPa)
#
#
# Indices 1 2 3 4 5 6 
#
# 1 61.8718 -6.4152 28.5935 0.0000 0.0000 -5.0085
# 2 -6.4152 61.8718 28.5935 0.0000 0.0000 5.0085
# 3 28.5935 28.5935 63.2372 0.0000 0.0000 0.0000
# 4 0.0000 0.0000 0.0000 30.9769 0.0000 0.0000
# 5 0.0000 0.0000 0.0000 0.0000 30.9769 0.0000
# 6 -5.0085 5.0085 0.0000 0.0000 0.0000 -4.9513
#
#
#
# Elastic Compliance Matrix: (Units=1/GPa)
#
#
# Indices 1 2 3 4 5 6 
#
# 1 0.023269 0.010517 -0.015276 0.000000 0.000000 -0.012899
# 2 0.010517 0.023269 -0.015276 0.000000 0.000000 0.012899
# 3 -0.015276 -0.015276 0.029628 0.000000 0.000000 0.000000
# 4 0.000000 0.000000 0.000000 0.032282 0.000000 0.000000
# 5 0.000000 0.000000 0.000000 0.000000 0.032282 0.000000
# 6 -0.012899 0.012899 0.000000 0.000000 0.000000 -0.175872
#
#
# Mechanical properties :
#
#
# Convention : Reuss Voigt Hill
#
# Bulk Modulus (GPa) = 27.70611 32.05826 29.88219
# Shear Modulus (GPa) = 294.80040 20.48111 157.64076
#
# Velocity S-wave (km/s) = 12.39292 3.26653 9.06242
# Velocity P-wave (km/s) = 14.80587 5.56135 11.18352
#
# Compressibility (1/GPa) = 0.03609312
#
# Stress axis : x y z
#
# Youngs Moduli (GPa) = 42.97646 42.97646 33.75151
#
# Poissons Ratio (x) = -0.45197 0.51560
# Poissons Ratio (y) = -0.45197 0.51560
# Poissons Ratio (z) = 0.65653 0.65653
#
# Static dielectric constant tensor:
#      x y z
#    x 1.696370 0.000000 0.000000 
#    y 0.000000 1.696370 0.000000 
#    z 0.000000 0.000000 1.739250 
# 
# From -- ./inp_files/3140.got.cif
#   From: 2010.05.17/outbox.cif.g08.bks.cpg/sg84_2_cif.got.tgz:3140.got - 2010.06.03 18:57:40.
