data_PCOD9544667
_publ_section_title
;
Structure prediction by ZEFSAII (Michael W. Deem and Ramdas Pophale) SiO2 
 PCOD9544667
Probable space group: P 4/N
;
_chemical_formula_sum "Si O2"
_cell_formula_units_Z 34
_cell_length_a 10.718688
_cell_length_b 10.718688
_cell_length_c 11.583416
_cell_angle_alpha 90.000000
_cell_angle_beta 90.000000
_cell_angle_gamma 90.000000
_cell_volume 1330.821820
_symmetry_space_group_name_H-M "P 4/N"
_symmetry_group_IT_number 85
_symmetry_cell_setting 'tetragonal'
loop_
_space_group_symop_operation_xyz
x,y,z
1/2-y,x,z
1/2-x,1/2-y,z
y,1/2-x,z
-x,-y,-z
1/2+y,-x,-z
1/2+x,1/2+y,-z
-y,1/2+x,-z
loop_
_atom_site_type_symbol
_atom_site_label
_atom_site_fract_x
_atom_site_fract_y
_atom_site_fract_z
Si Si1 0.627132 0.529998 0.436213
Si Si2 0.558119 0.816223 0.788060
Si Si3 0.221437 0.950791 0.977057
Si Si4 0.250000 0.250000 0.454923
Si Si5 0.314311 0.963611 0.723927
O O1 0.500000 0.500000 0.500000
O O2 0.715441 0.601524 0.525202
O O3 0.585467 0.622283 0.332008
O O4 0.708001 0.426683 0.368528
O O5 0.598242 0.676121 0.755086
O O6 0.425865 0.864803 0.742722
O O7 0.548442 0.822288 0.927921
O O8 0.256922 0.990498 0.849132
O O9 0.343329 0.883123 0.030487
#
# Coordination Sequence:
#
# PCOD9544667 Si02
#       5
#     8   8   8   2   8
#     4  10  22  46  75 105 140 190 262 326 383 459
#     4  10  23  42  64 108 157 199 250 308 387 486
#     4   9  20  38  64 101 150 190 248 313 375 478
#     4   8  20  48  72 100 140 170 244 316 384 452
#     4  10  23  43  73 103 144 200 254 318 399 455
#
# _framework density 25.548124999999999
#
# number of rings (size 3 to 8) (size 9 to 14) (size 15 to 20)
#    0.000    2.353    0.000    0.000    6.588    1.882 
#    8.471    0.000    0.000    0.000    0.000    0.000 
#    0.000    0.000    0.000    0.000    0.000    0.000 
#
# Total GULP energy -189790.615194 kJ/mol
# GULP energy per Si atom -5582.076917 kJ/mol
# Density = 2.548998 g / cm^3
# Si number density = 25.548125 Si / 1000 Ang^3
#
#
#
# Elastic Constant Matrix: (Units=GPa)
#
#
# Indices 1 2 3 4 5 6 
#
# 1 106.3293 54.5658 71.1604 0.0000 0.0000 -1.7745
# 2 54.5658 106.3293 71.1604 0.0000 0.0000 1.7745
# 3 71.1604 71.1604 176.0051 0.0000 0.0000 0.0000
# 4 0.0000 0.0000 0.0000 47.4645 0.0000 0.0000
# 5 0.0000 0.0000 0.0000 0.0000 47.4645 0.0000
# 6 -1.7745 1.7745 0.0000 0.0000 0.0000 27.1846
#
#
#
# Elastic Compliance Matrix: (Units=1/GPa)
#
#
# Indices 1 2 3 4 5 6 
#
# 1 0.014541 -0.004865 -0.003912 0.000000 0.000000 0.001267
# 2 -0.004865 0.014541 -0.003912 0.000000 0.000000 -0.001267
# 3 -0.003912 -0.003912 0.008845 0.000000 0.000000 0.000000
# 4 0.000000 0.000000 0.000000 0.021068 0.000000 0.000000
# 5 0.000000 0.000000 0.000000 0.000000 0.021068 0.000000
# 6 0.001267 -0.001267 0.000000 0.000000 0.000000 0.036951
#
#
# Mechanical properties :
#
#
# Convention : Reuss Voigt Hill
#
# Bulk Modulus (GPa) = 79.69186 86.93745 83.31465
# Shear Modulus (GPa) = 34.11247 37.20784 35.66016
#
# Velocity S-wave (km/s) = 3.65804 3.82040 3.74010
# Velocity P-wave (km/s) = 7.00730 7.31870 7.16469
#
# Compressibility (1/GPa) = 0.01254833
#
# Stress axis : x y z
#
# Youngs Moduli (GPa) = 68.77340 68.77340 113.05964
#
# Poissons Ratio (x) = 0.33458 0.44228
# Poissons Ratio (y) = 0.33458 0.44228
# Poissons Ratio (z) = 0.26903 0.26903
#
# Static dielectric constant tensor:
#      x y z
#    x 2.045660 0.000000 0.000000 
#    y 0.000000 2.045660 0.000000 
#    z 0.000000 0.000000 2.139450 
# 
# From -- ./inp_files/1491.got.cif
#   From: 2010.05.17/outbox.cif.g08.bks.cpg/sg85_cif.got.tgz:1491.got - 2010.06.03 19:01:16.
