data_PCOD9544996
_publ_section_title
;
Structure prediction by ZEFSAII (Michael W. Deem and Ramdas Pophale) SiO2 
 PCOD9544996
Probable space group: P 42/N
;
_chemical_formula_sum "Si O2"
_cell_formula_units_Z 54
_cell_length_a 14.932789
_cell_length_b 14.932789
_cell_length_c 9.455787
_cell_angle_alpha 90.000000
_cell_angle_beta 90.000000
_cell_angle_gamma 90.000000
_cell_volume 2108.528803
_symmetry_space_group_name_H-M "P 42/N"
_symmetry_group_IT_number 86
_space_group.IT_coordinate_system_code '2'
_symmetry_cell_setting 'tetragonal'
loop_
_space_group_symop_operation_xyz
x,y,z
-y,1/2+x,1/2+z
1/2-x,1/2-y,z
1/2+y,-x,1/2+z
-x,-y,-z
y,1/2-x,1/2-z
1/2+x,1/2+y,-z
1/2-y,x,1/2-z
loop_
_atom_site_type_symbol
_atom_site_label
_atom_site_fract_x
_atom_site_fract_y
_atom_site_fract_z
Si Si1 0.576952 0.350052 0.126879
Si Si2 0.250000 0.750000 0.447600
Si Si3 0.007078 0.365276 0.433573
Si Si4 0.586139 0.321759 0.431807
Si Si5 0.635079 0.835420 0.307672
Si Si6 0.250000 0.250000 0.250000
Si Si7 0.544989 0.578738 0.414865
Si Si8 0.067388 0.306664 0.138670
O O1 0.679806 0.313740 0.131057
O O2 0.572276 0.433119 0.016282
O O3 0.560717 0.374934 0.290951
O O4 0.509859 0.265846 0.098559
O O5 0.309939 0.683609 0.540129
O O6 0.947351 0.277492 0.406766
O O7 0.091284 0.337442 0.535267
O O8 0.041097 0.372850 0.270848
O O9 0.534295 0.350072 0.573127
O O10 0.736790 0.867589 0.267062
O O11 0.573507 0.910718 0.235195
O O12 0.154926 0.250015 0.174168
O O13 0.500000 0.500000 0.500000
O O14 0.630247 0.599656 0.512562
#
# Coordination Sequence:
#
# PCOD9544996 Si02
#       8
#     8   4   8   8   8   2   8   8
#     4  10  21  41  67 104 146 184 248 297 372 447
#     4  10  20  36  72 100 142 196 236 296 360 462
#     4  10  22  44  69 102 147 188 243 308 359 454
#     4  10  20  40  63 100 140 185 233 290 370 427
#     4  11  25  44  71 104 144 191 246 302 370 437
#     4  12  28  44  76  94 148 200 268 322 376 464
#     4  12  25  46  71 103 147 187 244 309 376 450
#     4  11  26  46  75 109 143 207 253 310 389 446
#
# _framework density 25.610271999999998
#
# number of rings (size 3 to 8) (size 9 to 14) (size 15 to 20)
#    0.000    1.333    1.481    4.000    2.074    0.000 
#    2.667    5.185    0.000    0.000    0.000    0.000 
#    0.000    0.000    0.000    0.000    0.000    0.000 
#
# Total GULP energy -301086.340755 kJ/mol
# GULP energy per Si atom -5575.672977 kJ/mol
# Density = 2.555198 g / cm^3
# Si number density = 25.610272 Si / 1000 Ang^3
#
#
#
# Elastic Constant Matrix: (Units=GPa)
#
#
# Indices 1 2 3 4 5 6 
#
# 1 110.8940 37.5104 28.7652 0.0000 0.0000 -12.7071
# 2 37.5104 110.8940 28.7652 0.0000 0.0000 12.7071
# 3 28.7652 28.7652 99.2036 0.0000 0.0000 0.0000
# 4 0.0000 0.0000 0.0000 158.4469 0.0000 0.0000
# 5 0.0000 0.0000 0.0000 0.0000 158.4469 0.0000
# 6 -12.7071 12.7071 0.0000 0.0000 0.0000 44.3861
#
#
#
# Elastic Compliance Matrix: (Units=1/GPa)
#
#
# Indices 1 2 3 4 5 6 
#
# 1 0.011359 -0.003768 -0.002201 0.000000 0.000000 0.004331
# 2 -0.003768 0.011359 -0.002201 0.000000 0.000000 -0.004331
# 3 -0.002201 -0.002201 0.011357 0.000000 0.000000 0.000000
# 4 0.000000 0.000000 0.000000 0.006311 0.000000 0.000000
# 5 0.000000 0.000000 0.000000 0.000000 0.006311 0.000000
# 6 0.004331 -0.004331 0.000000 0.000000 0.000000 0.025009
#
#
# Mechanical properties :
#
#
# Convention : Reuss Voigt Hill
#
# Bulk Modulus (GPa) = 56.38548 56.78592 56.58570
# Shear Modulus (GPa) = 53.21472 87.31935 70.26703
#
# Velocity S-wave (km/s) = 4.56331 5.84546 5.24372
# Velocity P-wave (km/s) = 7.05901 8.23289 7.66844
#
# Compressibility (1/GPa) = 0.01773506
#
# Stress axis : x y z
#
# Youngs Moduli (GPa) = 88.03401 88.03401 88.05250
#
# Poissons Ratio (x) = 0.33167 0.19383
# Poissons Ratio (y) = 0.33167 0.19383
# Poissons Ratio (z) = 0.19379 0.19379
#
# Static dielectric constant tensor:
#      x y z
#    x 1.984110 0.000000 0.000000 
#    y 0.000000 1.984110 0.000000 
#    z 0.000000 0.000000 2.096270 
# 
# From -- ./inp_files/1451.got.cif
#   From: 2010.05.17/outbox.cif.g08.bks.cpg/sg86_1_cif.got.tgz:1451.got - 2010.06.03 19:03:11.
