data_PCOD9544207
_publ_section_title
;
Structure prediction by ZEFSAII (Michael W. Deem and Ramdas Pophale) SiO2 
 PCOD9544207
Probable space group: P 42/M
;
_chemical_formula_sum "Si O2"
_cell_formula_units_Z 34
_cell_length_a 10.312196
_cell_length_b 10.312196
_cell_length_c 14.743001
_cell_angle_alpha 90.000000
_cell_angle_beta 90.000000
_cell_angle_gamma 90.000000
_cell_volume 1567.791165
_symmetry_space_group_name_H-M "P 42/M"
_symmetry_group_IT_number 84
_symmetry_cell_setting 'tetragonal'
loop_
_space_group_symop_operation_xyz
x,y,z
-y,x,1/2+z
-x,-y,z
y,-x,1/2+z
-x,-y,-z
y,-x,1/2-z
x,y,-z
-y,x,1/2-z
loop_
_atom_site_type_symbol
_atom_site_label
_atom_site_fract_x
_atom_site_fract_y
_atom_site_fract_z
Si Si1 0.627926 0.361543 0.295290
Si Si2 0.749954 0.146768 0.191401
Si Si3 0.806075 0.419092 0.500000
Si Si4 0.301656 0.429249 0.000000
Si Si5 0.500000 0.000000 0.844190
Si Si6 0.000000 0.000000 0.250000
Si Si7 0.297189 0.714183 0.000000
O O1 0.506513 0.331166 0.229435
O O2 0.737789 0.260033 0.266657
O O3 0.572024 0.356081 0.396557
O O4 0.621868 0.059024 0.207985
O O5 0.738004 0.209516 0.091364
O O6 0.881365 0.066142 0.196577
O O7 0.728597 0.283763 0.500000
O O8 0.893532 0.438996 0.587657
O O9 0.708294 0.544273 0.500000
O O10 0.235674 0.570524 0.000000
#
# Coordination Sequence:
#
# PCOD9544207 Si02
#       7
#     8   8   4   4   4   2   4
#     4  11  24  39  70 107 147 188 229 300 366 425
#     4  11  25  47  68 101 139 195 241 302 356 437
#     4   9  19  32  62 107 131 184 233 291 351 426
#     4  12  22  35  66 109 148 176 235 302 367 429
#     4   9  20  40  70  93 138 188 242 291 350 431
#     4  12  32  46  72 100 148 194 252 298 364 436
#     4  10  20  42  70  96 147 182 240 293 367 429
#
# _framework density 21.68656
#
# number of rings (size 3 to 8) (size 9 to 14) (size 15 to 20)
#    0.000    1.412    2.353    3.882    9.882    0.471 
#    0.000    1.176    0.000    2.118    0.000    0.000 
#    0.000    0.000    0.000    0.000    0.000    0.000 
#
# Total GULP energy -189368.129283 kJ/mol
# GULP energy per Si atom -5569.650861 kJ/mol
# Density = 2.163720 g / cm^3
# Si number density = 21.686560 Si / 1000 Ang^3
#
#
#
# Elastic Constant Matrix: (Units=GPa)
#
#
# Indices 1 2 3 4 5 6 
#
# 1 99.2502 46.5405 24.8237 0.0000 0.0000 3.8227
# 2 46.5405 99.2502 24.8237 0.0000 0.0000 -3.8227
# 3 24.8237 24.8237 141.6506 0.0000 0.0000 0.0000
# 4 0.0000 0.0000 0.0000 2.3530 0.0000 0.0000
# 5 0.0000 0.0000 0.0000 0.0000 2.3530 0.0000
# 6 3.8227 -3.8227 0.0000 0.0000 0.0000 33.9677
#
#
#
# Elastic Compliance Matrix: (Units=1/GPa)
#
#
# Indices 1 2 3 4 5 6 
#
# 1 0.013291 -0.005996 -0.001278 0.000000 0.000000 -0.002171
# 2 -0.005996 0.013291 -0.001278 0.000000 0.000000 0.002171
# 3 -0.001278 -0.001278 0.007508 0.000000 0.000000 0.000000
# 4 0.000000 0.000000 0.000000 0.424991 0.000000 0.000000
# 5 0.000000 0.000000 0.000000 0.000000 0.424991 0.000000
# 6 -0.002171 0.002171 0.000000 0.000000 0.000000 0.029928
#
#
# Mechanical properties :
#
#
# Convention : Reuss Voigt Hill
#
# Bulk Modulus (GPa) = 58.88140 59.16967 59.02554
# Shear Modulus (GPa) = 5.33751 23.99893 14.66822
#
# Velocity S-wave (km/s) = 1.57053 3.33021 2.60354
# Velocity P-wave (km/s) = 5.52257 6.49079 6.02616
#
# Compressibility (1/GPa) = 0.01698329
#
# Stress axis : x y z
#
# Youngs Moduli (GPa) = 75.24135 75.24135 133.19715
#
# Poissons Ratio (x) = 0.45115 0.17027
# Poissons Ratio (y) = 0.45115 0.17027
# Poissons Ratio (z) = 0.09618 0.09618
#
# Static dielectric constant tensor:
#      x y z
#    x 1.861380 0.000000 0.000000 
#    y 0.000000 1.861380 0.000000 
#    z 0.000000 0.000000 1.789610 
# 
# From -- ./inp_files/2866.got.cif
#   From: 2010.05.17/outbox.cif.g08.bks.cpg/sg84_2_cif.got.tgz:2866.got - 2010.06.03 18:57:40.
