data_PCOD9544820
_publ_section_title
;
Structure prediction by ZEFSAII (Michael W. Deem and Ramdas Pophale) SiO2 
 PCOD9544820
Probable space group: P 4/N
;
_chemical_formula_sum "Si O2"
_cell_formula_units_Z 48
_cell_length_a 11.262332
_cell_length_b 11.262332
_cell_length_c 15.571741
_cell_angle_alpha 90.000000
_cell_angle_beta 90.000000
_cell_angle_gamma 90.000000
_cell_volume 1975.121529
_symmetry_space_group_name_H-M "P 4/N"
_symmetry_group_IT_number 85
_symmetry_cell_setting 'tetragonal'
loop_
_space_group_symop_operation_xyz
x,y,z
1/2-y,x,z
1/2-x,1/2-y,z
y,1/2-x,z
-x,-y,-z
1/2+y,-x,-z
1/2+x,1/2+y,-z
-y,1/2+x,-z
loop_
_atom_site_type_symbol
_atom_site_label
_atom_site_fract_x
_atom_site_fract_y
_atom_site_fract_z
Si Si1 0.826697 0.932172 0.225721
Si Si2 0.975723 0.057569 0.092146
Si Si3 0.690312 0.943896 0.462766
Si Si4 0.381312 0.726540 0.318798
Si Si5 0.555865 0.706344 0.649514
Si Si6 0.050191 0.705610 0.821917
O O1 0.689690 0.896161 0.236417
O O2 0.868704 0.985164 0.136096
O O3 0.839493 0.037017 0.294566
O O4 0.941032 0.196554 0.102209
O O5 0.097431 0.030113 0.144749
O O6 0.000000 0.000000 0.000000
O O7 0.608836 0.825469 0.454902
O O8 0.684046 0.003380 0.557143
O O9 0.661003 0.040602 0.390329
O O10 0.250000 0.750000 0.352585
O O11 0.355412 0.662282 0.226487
O O12 0.663028 0.614313 0.646680
O O13 0.497925 0.716989 0.742238
#
# Coordination Sequence:
#
# PCOD9544820 Si02
#       6
#     8   8   8   8   8   8
#     4  11  24  47  76 105 146 200 255 317 395 478
#     4  12  29  48  77 115 148 199 261 328 402 482
#     4   9  20  41  73 110 148 202 263 318 369 464
#     4  12  24  42  68 107 154 203 251 311 391 451
#     4   9  18  40  72 105 146 199 255 310 388 467
#     4  12  25  47  74 108 157 201 252 324 406 472
#
# _framework density 24.302303999999999
#
# number of rings (size 3 to 8) (size 9 to 14) (size 15 to 20)
#    0.000    1.167    5.000    2.000    2.333    1.667 
#    3.000    1.667    0.000    0.000    0.000    0.000 
#    0.000    0.000    0.000    0.000    0.000    0.000 
#
# Total GULP energy -267852.030944 kJ/mol
# GULP energy per Si atom -5580.250645 kJ/mol
# Density = 2.424699 g / cm^3
# Si number density = 24.302304 Si / 1000 Ang^3
#
#
#
# Elastic Constant Matrix: (Units=GPa)
#
#
# Indices 1 2 3 4 5 6 
#
# 1 111.1162 31.6323 41.5528 0.0000 0.0000 3.9991
# 2 31.6323 111.1162 41.5528 0.0000 0.0000 -3.9991
# 3 41.5528 41.5528 136.9407 0.0000 0.0000 0.0000
# 4 0.0000 0.0000 0.0000 36.9612 0.0000 0.0000
# 5 0.0000 0.0000 0.0000 0.0000 36.9612 0.0000
# 6 3.9991 -3.9991 0.0000 0.0000 0.0000 38.3307
#
#
#
# Elastic Compliance Matrix: (Units=1/GPa)
#
#
# Indices 1 2 3 4 5 6 
#
# 1 0.010612 -0.002103 -0.002582 0.000000 0.000000 -0.001327
# 2 -0.002103 0.010612 -0.002582 0.000000 0.000000 0.001327
# 3 -0.002582 -0.002582 0.008869 0.000000 0.000000 0.000000
# 4 0.000000 0.000000 0.000000 0.027055 0.000000 0.000000
# 5 0.000000 0.000000 0.000000 0.000000 0.027055 0.000000
# 6 -0.001327 0.001327 0.000000 0.000000 0.000000 0.026366
#
#
# Mechanical properties :
#
#
# Convention : Reuss Voigt Hill
#
# Bulk Modulus (GPa) = 64.27161 65.40545 64.83853
# Shear Modulus (GPa) = 38.37646 38.74630 38.56138
#
# Velocity S-wave (km/s) = 3.97814 3.99726 3.98771
# Velocity P-wave (km/s) = 6.89963 6.94808 6.92390
#
# Compressibility (1/GPa) = 0.01555897
#
# Stress axis : x y z
#
# Youngs Moduli (GPa) = 94.23731 94.23731 112.74940
#
# Poissons Ratio (x) = 0.19819 0.29109
# Poissons Ratio (y) = 0.19819 0.29109
# Poissons Ratio (z) = 0.24330 0.24330
#
# Static dielectric constant tensor:
#      x y z
#    x 1.995320 0.000000 0.000000 
#    y 0.000000 1.995320 0.000000 
#    z 0.000000 0.000000 1.959400 
# 
# From -- ./inp_files/2087.got.cif
#   From: 2010.05.17/outbox.cif.g08.bks.cpg/sg85_cif.got.tgz:2087.got - 2010.06.03 19:01:16.
