data_PCOD9544361
_publ_section_title
;
Structure prediction by ZEFSAII (Michael W. Deem and Ramdas Pophale) SiO2 
 PCOD9544361
Probable space group: P 42/M
;
_chemical_formula_sum "Si O2"
_cell_formula_units_Z 48
_cell_length_a 9.181495
_cell_length_b 9.181495
_cell_length_c 26.972501
_cell_angle_alpha 90.000000
_cell_angle_beta 90.000000
_cell_angle_gamma 90.000000
_cell_volume 2273.777800
_symmetry_space_group_name_H-M "P 42/M"
_symmetry_group_IT_number 84
_symmetry_cell_setting 'tetragonal'
loop_
_space_group_symop_operation_xyz
x,y,z
-y,x,1/2+z
-x,-y,z
y,-x,1/2+z
-x,-y,-z
y,-x,1/2-z
x,y,-z
-y,x,1/2-z
loop_
_atom_site_type_symbol
_atom_site_label
_atom_site_fract_x
_atom_site_fract_y
_atom_site_fract_z
Si Si1 0.068545 0.844453 0.908836
Si Si2 0.362185 0.899417 0.343306
Si Si3 0.423521 0.345442 0.110840
Si Si4 0.338164 0.946698 0.500000
Si Si5 0.110401 0.376582 0.637015
Si Si6 0.595268 0.651254 0.000000
Si Si7 0.940775 0.764587 0.742293
O O1 0.240922 0.856760 0.899260
O O2 0.988710 0.779784 0.860650
O O3 0.015521 0.740899 0.952659
O O4 0.000000 0.000000 0.919478
O O5 0.359055 0.742253 0.370018
O O6 0.349758 0.890245 0.284100
O O7 0.500000 0.000000 0.357313
O O8 0.500000 0.500000 0.108151
O O9 0.526386 0.252290 0.146327
O O10 0.434515 0.281885 0.054492
O O11 0.500000 0.000000 0.500000
O O12 0.352013 0.771737 0.500000
O O13 0.055426 0.305561 0.687975
O O14 0.000000 0.500000 0.618003
O O15 0.500000 0.500000 0.000000
O O16 0.099876 0.829319 0.754714
#
# Coordination Sequence:
#
# PCOD9544361 Si02
#       7
#     8   8   8   4   8   4   8
#     4  12  25  46  71 105 144 187 241 299 357 443
#     4  12  24  43  73 104 142 190 246 298 367 448
#     4  11  25  45  69 104 146 183 236 299 371 437
#     4  12  27  45  78 109 136 189 249 302 365 442
#     4  12  26  45  69 104 147 189 238 305 372 432
#     4  10  24  43  74  98 143 182 236 291 369 434
#     4  11  23  43  73 103 137 190 247 298 363 440
#
# _framework density 21.110242
#
# number of rings (size 3 to 8) (size 9 to 14) (size 15 to 20)
#    0.000    0.500    3.333    5.250    4.667    0.000 
#    0.000    0.833    0.000    0.000    0.000    0.000 
#    0.000    0.000    0.000    0.000    0.000    0.000 
#
# Total GULP energy -268092.421724 kJ/mol
# GULP energy per Si atom -5585.258786 kJ/mol
# Density = 2.106219 g / cm^3
# Si number density = 21.110242 Si / 1000 Ang^3
#
#
#
# Elastic Constant Matrix: (Units=GPa)
#
#
# Indices 1 2 3 4 5 6 
#
# 1 144.2377 51.6526 34.2905 0.0000 0.0000 9.3801
# 2 51.6526 144.2377 34.2905 0.0000 0.0000 -9.3801
# 3 34.2905 34.2905 72.1924 0.0000 0.0000 0.0000
# 4 0.0000 0.0000 0.0000 15.7527 0.0000 0.0000
# 5 0.0000 0.0000 0.0000 0.0000 15.7527 0.0000
# 6 9.3801 -9.3801 0.0000 0.0000 0.0000 39.7592
#
#
#
# Elastic Compliance Matrix: (Units=1/GPa)
#
#
# Indices 1 2 3 4 5 6 
#
# 1 0.008733 -0.002610 -0.002908 0.000000 0.000000 -0.002676
# 2 -0.002610 0.008733 -0.002908 0.000000 0.000000 0.002676
# 3 -0.002908 -0.002908 0.016615 0.000000 0.000000 0.000000
# 4 0.000000 0.000000 0.000000 0.063481 0.000000 0.000000
# 5 0.000000 0.000000 0.000000 0.000000 0.063481 0.000000
# 6 -0.002676 0.002676 0.000000 0.000000 0.000000 0.026414
#
#
# Mechanical properties :
#
#
# Convention : Reuss Voigt Hill
#
# Bulk Modulus (GPa) = 58.04706 66.79279 62.41992
# Shear Modulus (GPa) = 23.80349 30.28190 27.04269
#
# Velocity S-wave (km/s) = 3.36159 3.79154 3.58302
# Velocity P-wave (km/s) = 6.52869 7.13277 6.83741
#
# Compressibility (1/GPa) = 0.01722740
#
# Stress axis : x y z
#
# Youngs Moduli (GPa) = 114.50657 114.50657 60.18737
#
# Poissons Ratio (x) = 0.29886 0.17505
# Poissons Ratio (y) = 0.29886 0.17505
# Poissons Ratio (z) = 0.33303 0.33303
#
# Static dielectric constant tensor:
#      x y z
#    x 3.234000 0.000000 0.000000 
#    y 0.000000 3.234000 0.000000 
#    z 0.000000 0.000000 1.815910 
# 
# From -- ./inp_files/5877.got.cif
#   From: 2010.05.17/outbox.cif.g08.bks.cpg/sg84_3_cif.got.tgz:5877.got - 2010.06.03 18:57:40.
