data_PCOD9544932
_publ_section_title
;
Structure prediction by ZEFSAII (Michael W. Deem and Ramdas Pophale) SiO2 
 PCOD9544932
Probable space group: P 42/N
;
_chemical_formula_sum "Si O2"
_cell_formula_units_Z 34
_cell_length_a 11.202004
_cell_length_b 11.202004
_cell_length_c 12.980331
_cell_angle_alpha 90.000000
_cell_angle_beta 90.000000
_cell_angle_gamma 90.000000
_cell_volume 1628.835455
_symmetry_space_group_name_H-M "P 42/N"
_symmetry_group_IT_number 86
_space_group.IT_coordinate_system_code '2'
_symmetry_cell_setting 'tetragonal'
loop_
_space_group_symop_operation_xyz
x,y,z
-y,1/2+x,1/2+z
1/2-x,1/2-y,z
1/2+y,-x,1/2+z
-x,-y,-z
y,1/2-x,1/2-z
1/2+x,1/2+y,-z
1/2-y,x,1/2-z
loop_
_atom_site_type_symbol
_atom_site_label
_atom_site_fract_x
_atom_site_fract_y
_atom_site_fract_z
Si Si1 0.322893 0.629680 0.890399
Si Si2 0.250000 0.250000 0.750000
Si Si3 0.464776 0.390604 0.684337
Si Si4 0.899465 0.123727 0.896056
Si Si5 0.859892 0.400925 0.841060
O O1 0.250000 0.750000 0.914657
O O2 0.217179 0.534510 0.869903
O O3 0.388383 0.647412 0.782334
O O4 0.414871 0.603783 0.982285
O O5 0.327543 0.347257 0.688736
O O6 0.511483 0.406377 0.802652
O O7 0.474236 0.520879 0.633523
O O8 0.881165 0.266150 0.880702
O O9 0.770558 0.061246 0.877182
#
# Coordination Sequence:
#
# PCOD9544932 Si02
#       5
#     8   2   8   8   8
#     4  11  19  36  61  89 114 154 200 240 289 355
#     4  12  20  36  56  88 120 154 192 240 312 336
#     4  11  22  37  60  85 123 153 193 253 291 349
#     4  10  20  36  59  86 115 151 202 237 293 352
#     4  10  19  36  56  84 117 155 191 243 290 348
#
# _framework density 20.873809999999999
#
# number of rings (size 3 to 8) (size 9 to 14) (size 15 to 20)
#    0.000    1.412   11.765    0.000    0.000    1.882 
#    0.000    0.000    0.000    0.706    0.000    0.000 
#    0.000    0.000    0.000    0.000    0.000    0.000 
#
# Total GULP energy -189496.176444 kJ/mol
# GULP energy per Si atom -5573.416954 kJ/mol
# Density = 2.082630 g / cm^3
# Si number density = 20.873810 Si / 1000 Ang^3
#
#
#
# Elastic Constant Matrix: (Units=GPa)
#
#
# Indices 1 2 3 4 5 6 
#
# 1 41.9241 -17.1157 1.0672 0.0000 0.0000 7.9541
# 2 -17.1157 41.9241 1.0672 0.0000 0.0000 -7.9541
# 3 1.0672 1.0672 119.1909 0.0000 0.0000 0.0000
# 4 0.0000 0.0000 0.0000 3.5309 0.0000 0.0000
# 5 0.0000 0.0000 0.0000 0.0000 3.5309 0.0000
# 6 7.9541 -7.9541 0.0000 0.0000 0.0000 32.4026
#
#
#
# Elastic Compliance Matrix: (Units=1/GPa)
#
#
# Indices 1 2 3 4 5 6 
#
# 1 0.029239 0.011101 -0.000361 0.000000 0.000000 -0.004452
# 2 0.011101 0.029239 -0.000361 0.000000 0.000000 0.004452
# 3 -0.000361 -0.000361 0.008396 0.000000 0.000000 0.000000
# 4 0.000000 0.000000 0.000000 0.283214 0.000000 0.000000
# 5 0.000000 0.000000 0.000000 0.000000 0.283214 0.000000
# 6 -0.004452 0.004452 0.000000 0.000000 0.000000 0.033048
#
#
# Mechanical properties :
#
#
# Convention : Reuss Voigt Hill
#
# Bulk Modulus (GPa) = 11.41141 19.23074 15.32108
# Shear Modulus (GPa) = 7.40958 22.42757 14.91858
#
# Velocity S-wave (km/s) = 1.88611 3.28142 2.67629
# Velocity P-wave (km/s) = 3.19718 4.85693 4.11167
#
# Compressibility (1/GPa) = 0.08763157
#
# Stress axis : x y z
#
# Youngs Moduli (GPa) = 34.20124 34.20124 119.09910
#
# Poissons Ratio (x) = -0.37968 0.04302
# Poissons Ratio (y) = -0.37968 0.04302
# Poissons Ratio (z) = 0.01235 0.01235
#
# Static dielectric constant tensor:
#      x y z
#    x 1.801440 0.000000 0.000000 
#    y 0.000000 1.801440 0.000000 
#    z 0.000000 0.000000 1.789960 
# 
# From -- ./inp_files/2810.got.cif
#   From: 2010.05.17/outbox.cif.g08.bks.cpg/sg86_2_cif.got.tgz:2810.got - 2010.06.03 19:03:11.
