data_PCOD9544146
_publ_section_title
;
Structure prediction by ZEFSAII (Michael W. Deem and Ramdas Pophale) SiO2 
 PCOD9544146
Probable space group: P 42/M
;
_chemical_formula_sum "Si O2"
_cell_formula_units_Z 48
_cell_length_a 17.310406
_cell_length_b 17.310406
_cell_length_c 8.995415
_cell_angle_alpha 90.000000
_cell_angle_beta 90.000000
_cell_angle_gamma 90.000000
_cell_volume 2695.477507
_symmetry_space_group_name_H-M "P 42/M"
_symmetry_group_IT_number 84
_symmetry_cell_setting 'tetragonal'
loop_
_space_group_symop_operation_xyz
x,y,z
-y,x,1/2+z
-x,-y,z
y,-x,1/2+z
-x,-y,-z
y,-x,1/2-z
x,y,-z
-y,x,1/2-z
loop_
_atom_site_type_symbol
_atom_site_label
_atom_site_fract_x
_atom_site_fract_y
_atom_site_fract_z
Si Si1 0.381962 0.498670 0.179960
Si Si2 0.207333 0.088517 0.823776
Si Si3 0.081939 0.626522 0.177431
Si Si4 0.799397 0.507546 0.178093
Si Si5 0.380951 0.919572 0.825578
Si Si6 0.803538 0.085894 0.173754
O O1 0.425426 0.572595 0.250973
O O2 0.291031 0.496970 0.217025
O O3 0.390544 0.499606 0.000000
O O4 0.288514 0.097894 0.740655
O O5 0.146591 0.151902 0.773340
O O6 0.176077 0.002602 0.788660
O O7 0.221746 0.090575 0.000000
O O8 0.152369 0.569691 0.215226
O O9 0.000467 0.598732 0.246066
O O10 0.073959 0.629160 0.000000
O O11 0.846938 0.575371 0.256445
O O12 0.803736 0.518187 0.000000
O O13 0.288841 0.908849 0.808830
O O14 0.398449 0.926368 0.000000
O O15 0.821824 0.099970 0.000000
#
# Coordination Sequence:
#
# PCOD9544146 Si02
#       6
#     8   8   8   8   8   8
#     4  10  21  39  59  80 108 140 177 220 270 323
#     4  10  21  36  55  80 107 140 185 228 268 319
#     4  10  20  36  56  78 111 148 178 218 273 322
#     4  10  22  37  56  83 110 141 180 218 264 325
#     4  10  21  36  55  81 112 144 181 224 267 316
#     4   9  20  37  53  75 108 142 177 221 273 319
#
# _framework density 17.807604999999999
#
# number of rings (size 3 to 8) (size 9 to 14) (size 15 to 20)
#    0.000    2.167    0.000    4.000    0.000   10.333 
#    0.000    6.667    0.000    0.000    0.000    0.000 
#    0.000    0.000    0.000    0.000    0.000    0.000 
#
# Total GULP energy -267961.842883 kJ/mol
# GULP energy per Si atom -5582.538393 kJ/mol
# Density = 1.776707 g / cm^3
# Si number density = 17.807605 Si / 1000 Ang^3
#
#
#
# Elastic Constant Matrix: (Units=GPa)
#
#
# Indices 1 2 3 4 5 6 
#
# 1 107.8633 62.3197 55.3026 0.0000 0.0000 -2.2735
# 2 62.3197 107.8633 55.3026 0.0000 0.0000 2.2735
# 3 55.3026 55.3026 55.0335 0.0000 0.0000 0.0000
# 4 0.0000 0.0000 0.0000 28.4159 0.0000 0.0000
# 5 0.0000 0.0000 0.0000 0.0000 28.4159 0.0000
# 6 -2.2735 2.2735 0.0000 0.0000 0.0000 28.8592
#
#
#
# Elastic Compliance Matrix: (Units=1/GPa)
#
#
# Indices 1 2 3 4 5 6 
#
# 1 0.019535 -0.002596 -0.017021 0.000000 0.000000 0.001743
# 2 -0.002596 0.019535 -0.017021 0.000000 0.000000 -0.001743
# 3 -0.017021 -0.017021 0.052380 0.000000 0.000000 0.000000
# 4 0.000000 0.000000 0.000000 0.035192 0.000000 0.000000
# 5 0.000000 0.000000 0.000000 0.000000 0.035192 0.000000
# 6 0.001743 -0.001743 0.000000 0.000000 0.000000 0.034926
#
#
# Mechanical properties :
#
#
# Convention : Reuss Voigt Hill
#
# Bulk Modulus (GPa) = 55.03103 68.51221 61.77162
# Shear Modulus (GPa) = 18.10983 23.66056 20.88520
#
# Velocity S-wave (km/s) = 3.19246 3.64906 3.42837
# Velocity P-wave (km/s) = 6.67527 7.50408 7.10178
#
# Compressibility (1/GPa) = 0.01817157
#
# Stress axis : x y z
#
# Youngs Moduli (GPa) = 51.19076 51.19076 19.09132
#
# Poissons Ratio (x) = 0.13291 0.32496
# Poissons Ratio (y) = 0.13291 0.32496
# Poissons Ratio (z) = 0.87133 0.87133
#
# Static dielectric constant tensor:
#      x y z
#    x 1.590980 0.000000 0.000000 
#    y 0.000000 1.590980 0.000000 
#    z 0.000000 0.000000 1.594360 
# 
# From -- ./inp_files/964.got.cif
#   From: 2010.05.17/outbox.cif.g08.bks.cpg/sg84_1_cif.got.tgz:964.got - 2010.06.03 18:57:40.
