data_PCOD9544280
_publ_section_title
;
Structure prediction by ZEFSAII (Michael W. Deem and Ramdas Pophale) SiO2 
 PCOD9544280
Probable space group: P 42/M
;
_chemical_formula_sum "Si O2"
_cell_formula_units_Z 22
_cell_length_a 5.356315
_cell_length_b 5.356315
_cell_length_c 30.925553
_cell_angle_alpha 90.000000
_cell_angle_beta 90.000000
_cell_angle_gamma 90.000000
_cell_volume 887.257529
_symmetry_space_group_name_H-M "P 42/M"
_symmetry_group_IT_number 84
_symmetry_cell_setting 'tetragonal'
loop_
_space_group_symop_operation_xyz
x,y,z
-y,x,1/2+z
-x,-y,z
y,-x,1/2+z
-x,-y,-z
y,-x,1/2-z
x,y,-z
-y,x,1/2-z
loop_
_atom_site_type_symbol
_atom_site_label
_atom_site_fract_x
_atom_site_fract_y
_atom_site_fract_z
Si Si1 0.245297 0.664249 0.000000
Si Si2 0.000000 0.000000 0.250000
Si Si3 0.242956 0.342756 0.594138
Si Si4 0.760161 0.343674 0.812294
O O1 0.500000 0.500000 0.000000
O O2 0.237590 0.803532 0.046003
O O3 0.000000 0.500000 0.000000
O O4 0.784700 0.102693 0.217983
O O5 0.500000 0.500000 0.590937
O O6 0.277597 0.185002 0.637375
O O7 0.000000 0.500000 0.604368
O O8 0.500000 0.500000 0.809251
O O9 0.000000 0.500000 0.798561
#
# Coordination Sequence:
#
# PCOD9544280 Si02
#       4
#     4   2   8   8
#     4  10  21  44  74 110 150 198 246 304 374 461
#     4  12  32  48  84 110 160 204 280 324 416 466
#     4  10  23  46  75 110 153 197 250 311 383 460
#     4  11  29  51  77 112 154 202 260 325 395 468
#
# _framework density 24.795503
#
# number of rings (size 3 to 8) (size 9 to 14) (size 15 to 20)
#    0.000    1.455    0.000    1.636   15.273    0.000 
#    0.000    7.273    0.000    0.000    0.000    0.000 
#    0.000    0.000    0.000    0.000    0.000    0.000 
#
# Total GULP energy -122907.074533 kJ/mol
# GULP energy per Si atom -5586.685206 kJ/mol
# Density = 2.473907 g / cm^3
# Si number density = 24.795503 Si / 1000 Ang^3
#
#
#
# Elastic Constant Matrix: (Units=GPa)
#
#
# Indices 1 2 3 4 5 6 
#
# 1 109.6973 29.2043 21.2958 0.0000 0.0000 -2.8164
# 2 29.2043 109.6973 21.2958 0.0000 0.0000 2.8164
# 3 21.2958 21.2958 240.4440 0.0000 0.0000 0.0000
# 4 0.0000 0.0000 0.0000 47.6309 0.0000 0.0000
# 5 0.0000 0.0000 0.0000 0.0000 47.6309 0.0000
# 6 -2.8164 2.8164 0.0000 0.0000 0.0000 44.8770
#
#
#
# Elastic Compliance Matrix: (Units=1/GPa)
#
#
# Indices 1 2 3 4 5 6 
#
# 1 0.009939 -0.002539 -0.000655 0.000000 0.000000 0.000783
# 2 -0.002539 0.009939 -0.000655 0.000000 0.000000 -0.000783
# 3 -0.000655 -0.000655 0.004275 0.000000 0.000000 0.000000
# 4 0.000000 0.000000 0.000000 0.020995 0.000000 0.000000
# 5 0.000000 0.000000 0.000000 0.000000 0.020995 0.000000
# 6 0.000783 -0.000783 0.000000 0.000000 0.000000 0.022381
#
#
# Mechanical properties :
#
#
# Convention : Reuss Voigt Hill
#
# Bulk Modulus (GPa) = 60.77563 67.04783 63.91173
# Shear Modulus (GPa) = 49.15989 53.89728 51.52858
#
# Velocity S-wave (km/s) = 4.45748 4.66732 4.56361
# Velocity P-wave (km/s) = 7.14536 7.49294 7.32122
#
# Compressibility (1/GPa) = 0.01645396
#
# Stress axis : x y z
#
# Youngs Moduli (GPa) = 100.61095 100.61095 233.91408
#
# Poissons Ratio (x) = 0.25545 0.15332
# Poissons Ratio (y) = 0.25545 0.15332
# Poissons Ratio (z) = 0.06594 0.06594
#
# Static dielectric constant tensor:
#      x y z
#    x 2.970530 0.000000 0.000000 
#    y 0.000000 2.970530 0.000000 
#    z 0.000000 0.000000 2.795410 
# 
# From -- ./inp_files/5553.got.cif
#   From: 2010.05.17/outbox.cif.g08.bks.cpg/sg84_3_cif.got.tgz:5553.got - 2010.06.03 18:57:40.
