data_PCOD9544314
_publ_section_title
;
Structure prediction by ZEFSAII (Michael W. Deem and Ramdas Pophale) SiO2 
 PCOD9544314
Probable space group: P 42/M
;
_chemical_formula_sum "Si O2"
_cell_formula_units_Z 24
_cell_length_a 11.121405
_cell_length_b 11.121405
_cell_length_c 9.298435
_cell_angle_alpha 90.000000
_cell_angle_beta 90.000000
_cell_angle_gamma 90.000000
_cell_volume 1150.082969
_symmetry_space_group_name_H-M "P 42/M"
_symmetry_group_IT_number 84
_symmetry_cell_setting 'tetragonal'
loop_
_space_group_symop_operation_xyz
x,y,z
-y,x,1/2+z
-x,-y,z
y,-x,1/2+z
-x,-y,-z
y,-x,1/2-z
x,y,-z
-y,x,1/2-z
loop_
_atom_site_type_symbol
_atom_site_label
_atom_site_fract_x
_atom_site_fract_y
_atom_site_fract_z
Si Si1 0.861752 0.460667 0.500000
Si Si2 0.390532 0.407926 0.500000
Si Si3 0.838572 0.610003 0.000000
Si Si4 0.258846 0.687286 0.255880
Si Si5 0.681094 0.892314 0.500000
O O1 0.750285 0.553771 0.500000
O O2 0.830749 0.384186 0.359442
O O3 0.000000 0.500000 0.500000
O O4 0.500000 0.500000 0.500000
O O5 0.396470 0.340340 0.653262
O O6 0.766981 0.657433 0.859310
O O7 0.861482 0.465401 0.000000
O O8 0.965534 0.678212 0.000000
O O9 0.170001 0.743079 0.136992
#
# Coordination Sequence:
#
# PCOD9544314 Si02
#       5
#     4   4   4   8   4
#     4  11  26  40  67  98 140 190 233 277 350 437
#     4  11  26  40  66  99 148 180 226 294 366 417
#     4  10  22  43  66  95 130 175 229 272 341 417
#     4  10  24  41  62  99 130 179 224 285 341 416
#     4  10  22  41  71  88 131 176 222 282 339 416
#
# _framework density 20.868061000000001
#
# number of rings (size 3 to 8) (size 9 to 14) (size 15 to 20)
#    0.000    1.667    0.000    2.000   23.333    0.000 
#    0.000    0.833    0.000    3.000    0.000    0.000 
#    0.000    0.000    0.000    0.000    0.000    0.000 
#
# Total GULP energy -133732.409737 kJ/mol
# GULP energy per Si atom -5572.183739 kJ/mol
# Density = 2.082056 g / cm^3
# Si number density = 20.868061 Si / 1000 Ang^3
#
#
#
# Elastic Constant Matrix: (Units=GPa)
#
#
# Indices 1 2 3 4 5 6 
#
# 1 96.5340 56.0871 51.1749 0.0000 0.0000 8.1515
# 2 56.0871 96.5340 51.1749 0.0000 0.0000 -8.1515
# 3 51.1749 51.1749 185.6539 0.0000 0.0000 0.0000
# 4 0.0000 0.0000 0.0000 1.5379 0.0000 0.0000
# 5 0.0000 0.0000 0.0000 0.0000 1.5379 0.0000
# 6 8.1515 -8.1515 0.0000 0.0000 0.0000 20.6217
#
#
#
# Elastic Compliance Matrix: (Units=1/GPa)
#
#
# Indices 1 2 3 4 5 6 
#
# 1 0.018724 -0.010686 -0.002216 0.000000 0.000000 -0.011625
# 2 -0.010686 0.018724 -0.002216 0.000000 0.000000 0.011625
# 3 -0.002216 -0.002216 0.006608 0.000000 0.000000 0.000000
# 4 0.000000 0.000000 0.000000 0.650252 0.000000 0.000000
# 5 0.000000 0.000000 0.000000 0.000000 0.650252 0.000000
# 6 -0.011625 0.011625 0.000000 0.000000 0.000000 0.057683
#
#
# Mechanical properties :
#
#
# Convention : Reuss Voigt Hill
#
# Bulk Modulus (GPa) = 72.35225 77.28840 74.82032
# Shear Modulus (GPa) = 3.47927 19.42515 11.45221
#
# Velocity S-wave (km/s) = 1.29263 3.05430 2.34517
# Velocity P-wave (km/s) = 6.08066 7.03956 6.57761
#
# Compressibility (1/GPa) = 0.01382127
#
# Stress axis : x y z
#
# Youngs Moduli (GPa) = 53.40796 53.40796 151.33531
#
# Poissons Ratio (x) = 0.57071 0.33531
# Poissons Ratio (y) = 0.57071 0.33531
# Poissons Ratio (z) = 0.11833 0.11833
#
# Static dielectric constant tensor:
#      x y z
#    x 1.857860 0.000000 0.000000 
#    y 0.000000 1.857860 0.000000 
#    z 0.000000 0.000000 1.792530 
# 
# From -- ./inp_files/463.got.cif
#   From: 2010.05.17/outbox.cif.g08.bks.cpg/sg84_1_cif.got.tgz:463.got - 2010.06.03 18:57:40.
