data_PCOD9544260
_publ_section_title
;
Structure prediction by ZEFSAII (Michael W. Deem and Ramdas Pophale) SiO2 
 PCOD9544260
Probable space group: P 42/M
;
_chemical_formula_sum "Si O2"
_cell_formula_units_Z 40
_cell_length_a 14.891311
_cell_length_b 14.891311
_cell_length_c 10.202927
_cell_angle_alpha 90.000000
_cell_angle_beta 90.000000
_cell_angle_gamma 90.000000
_cell_volume 2262.510727
_symmetry_space_group_name_H-M "P 42/M"
_symmetry_group_IT_number 84
_symmetry_cell_setting 'tetragonal'
loop_
_space_group_symop_operation_xyz
x,y,z
-y,x,1/2+z
-x,-y,z
y,-x,1/2+z
-x,-y,-z
y,-x,1/2-z
x,y,-z
-y,x,1/2-z
loop_
_atom_site_type_symbol
_atom_site_label
_atom_site_fract_x
_atom_site_fract_y
_atom_site_fract_z
Si Si1 0.861939 0.242210 0.757308
Si Si2 0.069983 0.573776 0.847474
Si Si3 0.915311 0.133733 0.500000
Si Si4 0.267561 0.488284 0.852732
Si Si5 0.122154 0.077865 0.500000
Si Si6 0.332162 0.686251 0.844568
O O1 0.920077 0.333885 0.768735
O O2 0.880065 0.188444 0.625014
O O3 0.890762 0.176737 0.873906
O O4 0.759257 0.272283 0.784211
O O5 0.166345 0.525753 0.849323
O O6 0.000000 0.500000 0.798121
O O7 0.047252 0.596154 0.000000
O O8 0.023404 0.122240 0.500000
O O9 0.883380 0.030277 0.500000
O O10 0.326295 0.578074 0.834761
O O11 0.281643 0.415939 0.740359
O O12 0.284336 0.451567 0.000000
O O13 0.336283 0.708384 0.000000
#
# Coordination Sequence:
#
# PCOD9544260 Si02
#       6
#     8   8   4   8   4   8
#     4  11  21  41  60  86 121 156 192 242 294 345
#     4   9  18  37  61  85 115 155 197 239 290 350
#     4  11  26  36  61  92 116 151 205 242 284 344
#     4   9  20  36  59  85 115 151 197 241 286 351
#     4  11  22  44  59  82 122 159 193 244 290 342
#     4  10  21  40  59  85 120 156 189 240 301 346
#
# _framework density 17.679473000000002
#
# number of rings (size 3 to 8) (size 9 to 14) (size 15 to 20)
#    0.000    2.000    2.000    2.400    1.400    6.000 
#    5.400    2.500    0.000    0.000    0.000    0.000 
#    0.000    0.000    0.000    0.000    0.000    0.000 
#
# Total GULP energy -223158.790676 kJ/mol
# GULP energy per Si atom -5578.969767 kJ/mol
# Density = 1.763923 g / cm^3
# Si number density = 17.679473 Si / 1000 Ang^3
#
#
#
# Elastic Constant Matrix: (Units=GPa)
#
#
# Indices 1 2 3 4 5 6 
#
# 1 83.4000 46.8788 65.4117 0.0000 0.0000 13.2745
# 2 46.8788 83.4000 65.4117 0.0000 0.0000 -13.2745
# 3 65.4117 65.4117 151.6133 0.0000 0.0000 0.0000
# 4 0.0000 0.0000 0.0000 31.2330 0.0000 0.0000
# 5 0.0000 0.0000 0.0000 0.0000 31.2330 0.0000
# 6 13.2745 -13.2745 0.0000 0.0000 0.0000 22.7366
#
#
#
# Elastic Compliance Matrix: (Units=1/GPa)
#
#
# Indices 1 2 3 4 5 6 
#
# 1 0.030558 -0.017014 -0.005843 0.000000 0.000000 -0.027774
# 2 -0.017014 0.030558 -0.005843 0.000000 0.000000 0.027774
# 3 -0.005843 -0.005843 0.011638 0.000000 0.000000 0.000000
# 4 0.000000 0.000000 0.000000 0.032017 0.000000 0.000000
# 5 0.000000 0.000000 0.000000 0.000000 0.032017 0.000000
# 6 -0.027774 0.027774 0.000000 0.000000 0.000000 0.076414
#
#
# Mechanical properties :
#
#
# Convention : Reuss Voigt Hill
#
# Bulk Modulus (GPa) = 65.13852 74.86863 70.00357
# Shear Modulus (GPa) = 18.13434 26.42126 22.27780
#
# Velocity S-wave (km/s) = 3.20617 3.87002 3.55363
# Velocity P-wave (km/s) = 7.11549 7.89994 7.51796
#
# Compressibility (1/GPa) = 0.01535190
#
# Stress axis : x y z
#
# Youngs Moduli (GPa) = 32.72497 32.72497 85.92805
#
# Poissons Ratio (x) = 0.55679 0.50209
# Poissons Ratio (y) = 0.55679 0.50209
# Poissons Ratio (z) = 0.19122 0.19122
#
# Static dielectric constant tensor:
#      x y z
#    x 1.599030 0.000000 0.000000 
#    y 0.000000 1.599030 0.000000 
#    z 0.000000 0.000000 1.468270 
# 
# From -- ./inp_files/815.got.cif
#   From: 2010.05.17/outbox.cif.g08.bks.cpg/sg84_1_cif.got.tgz:815.got - 2010.06.03 18:57:40.
