data_PCOD9544687
_publ_section_title
;
Structure prediction by ZEFSAII (Michael W. Deem and Ramdas Pophale) SiO2 
 PCOD9544687
Probable space group: P 4/N
;
_chemical_formula_sum "Si O2"
_cell_formula_units_Z 26
_cell_length_a 14.934738
_cell_length_b 14.934738
_cell_length_c 4.824121
_cell_angle_alpha 90.000000
_cell_angle_beta 90.000000
_cell_angle_gamma 90.000000
_cell_volume 1076.002818
_symmetry_space_group_name_H-M "P 4/N"
_symmetry_group_IT_number 85
_symmetry_cell_setting 'tetragonal'
loop_
_space_group_symop_operation_xyz
x,y,z
1/2-y,x,z
1/2-x,1/2-y,z
y,1/2-x,z
-x,-y,-z
1/2+y,-x,-z
1/2+x,1/2+y,-z
-y,1/2+x,-z
loop_
_atom_site_type_symbol
_atom_site_label
_atom_site_fract_x
_atom_site_fract_y
_atom_site_fract_z
Si Si1 0.250000 0.750000 0.000000
Si Si2 0.289542 0.493969 0.106369
Si Si3 0.842190 0.098675 0.393058
Si Si4 0.586040 0.968922 0.813290
O O1 0.208359 0.825335 0.788913
O O2 0.302104 0.580638 0.306433
O O3 0.364400 0.430389 0.244250
O O4 0.186525 0.470327 0.070038
O O5 0.321744 0.513698 0.798601
O O6 0.950675 0.098214 0.411958
O O7 0.500000 0.000000 0.000000
#
# Coordination Sequence:
#
# PCOD9544687 Si02
#       4
#     2   8   8   8
#     4  12  24  42  72 110 140 174 236 290 380 426
#     4  11  25  43  68  96 139 186 234 286 353 416
#     4  11  25  41  68 101 139 177 226 295 358 428
#     4  10  24  46  70 103 143 189 240 295 358 426
#
# _framework density 24.163505000000001
#
# number of rings (size 3 to 8) (size 9 to 14) (size 15 to 20)
#    0.000    1.231    3.077    0.923    4.308    6.769 
#    0.000    0.000    0.000    7.385    0.000    0.000 
#    0.000    0.000    0.000    0.000    0.000    0.000 
#
# Total GULP energy -144798.305567 kJ/mol
# GULP energy per Si atom -5569.165599 kJ/mol
# Density = 2.410851 g / cm^3
# Si number density = 24.163505 Si / 1000 Ang^3
#
#
#
# Elastic Constant Matrix: (Units=GPa)
#
#
# Indices 1 2 3 4 5 6 
#
# 1 153.0582 34.1224 19.7360 0.0000 0.0000 -7.6653
# 2 34.1224 153.0582 19.7360 0.0000 0.0000 7.6653
# 3 19.7360 19.7360 110.7030 0.0000 0.0000 0.0000
# 4 0.0000 0.0000 0.0000 17.6139 0.0000 0.0000
# 5 0.0000 0.0000 0.0000 0.0000 17.6139 0.0000
# 6 -7.6653 7.6653 0.0000 0.0000 0.0000 39.0287
#
#
#
# Elastic Compliance Matrix: (Units=1/GPa)
#
#
# Indices 1 2 3 4 5 6 
#
# 1 0.007089 -0.001538 -0.000990 0.000000 0.000000 0.001694
# 2 -0.001538 0.007089 -0.000990 0.000000 0.000000 -0.001694
# 3 -0.000990 -0.000990 0.009386 0.000000 0.000000 0.000000
# 4 0.000000 0.000000 0.000000 0.056773 0.000000 0.000000
# 5 0.000000 0.000000 0.000000 0.000000 0.056773 0.000000
# 6 0.001694 -0.001694 0.000000 0.000000 0.000000 0.026288
#
#
# Mechanical properties :
#
#
# Convention : Reuss Voigt Hill
#
# Bulk Modulus (GPa) = 60.49714 62.66757 61.58236
# Shear Modulus (GPa) = 28.41858 37.73297 33.07577
#
# Velocity S-wave (km/s) = 3.43314 3.95596 3.70379
# Velocity P-wave (km/s) = 6.38798 6.84523 6.62055
#
# Compressibility (1/GPa) = 0.01652971
#
# Stress axis : x y z
#
# Youngs Moduli (GPa) = 141.06951 141.06951 106.54116
#
# Poissons Ratio (x) = 0.21691 0.10544
# Poissons Ratio (y) = 0.21691 0.10544
# Poissons Ratio (z) = 0.13961 0.13961
#
# Static dielectric constant tensor:
#      x y z
#    x 2.035940 0.000000 0.000000 
#    y 0.000000 2.035940 0.000000 
#    z 0.000000 0.000000 1.946920 
# 
# From -- ./inp_files/211.got.cif
#   From: 2010.05.17/outbox.cif.g08.bks.cpg/sg85_cif.got.tgz:211.got - 2010.06.03 19:01:16.
