data_PCOD9544073
_publ_section_title
;
Structure prediction by ZEFSAII (Michael W. Deem and Ramdas Pophale) SiO2 
 PCOD9544073
Probable space group: P 42/M
;
_chemical_formula_sum "Si O2"
_cell_formula_units_Z 40
_cell_length_a 10.497370
_cell_length_b 10.497370
_cell_length_c 16.015656
_cell_angle_alpha 90.000000
_cell_angle_beta 90.000000
_cell_angle_gamma 90.000000
_cell_volume 1764.841640
_symmetry_space_group_name_H-M "P 42/M"
_symmetry_group_IT_number 84
_symmetry_cell_setting 'tetragonal'
loop_
_space_group_symop_operation_xyz
x,y,z
-y,x,1/2+z
-x,-y,z
y,-x,1/2+z
-x,-y,-z
y,-x,1/2-z
x,y,-z
-y,x,1/2-z
loop_
_atom_site_type_symbol
_atom_site_label
_atom_site_fract_x
_atom_site_fract_y
_atom_site_fract_z
Si Si1 0.400642 0.836448 0.118724
Si Si2 0.191550 0.086181 0.255012
Si Si3 0.465212 0.704262 0.724549
Si Si4 0.638369 0.820319 0.594860
Si Si5 0.679996 0.874268 0.912283
O O1 0.418422 0.819908 0.217925
O O2 0.300403 0.732886 0.090172
O O3 0.542066 0.810158 0.086469
O O4 0.355464 0.975642 0.093238
O O5 0.288795 0.095142 0.333543
O O6 0.247156 0.152800 0.172490
O O7 0.057089 0.154532 0.272333
O O8 0.591529 0.637750 0.765410
O O9 0.509915 0.762666 0.636575
O O10 0.623200 0.871338 0.500000
O O11 0.748566 0.849067 0.000000
#
# Coordination Sequence:
#
# PCOD9544073 Si02
#       5
#     8   8   8   8   8
#     4  10  19  35  62  87 115 147 195 248 295 348
#     4  11  24  40  59  85 120 163 203 249 303 356
#     4   9  19  36  59  87 122 157 187 237 300 362
#     4  11  21  38  61  88 120 160 199 242 300 361
#     4  11  21  36  59  89 113 145 200 258 301 344
#
# _framework density 22.664922000000001
#
# number of rings (size 3 to 8) (size 9 to 14) (size 15 to 20)
#    0.000    1.600    4.000    2.400    0.000    0.800 
#    0.000   12.000    0.000    2.400    0.000    0.000 
#    0.000    0.000    0.000    0.000    0.000    0.000 
#
# Total GULP energy -223155.602979 kJ/mol
# GULP energy per Si atom -5578.890074 kJ/mol
# Density = 2.261334 g / cm^3
# Si number density = 22.664922 Si / 1000 Ang^3
#
#
#
# Elastic Constant Matrix: (Units=GPa)
#
#
# Indices 1 2 3 4 5 6 
#
# 1 23.9105 8.9908 17.5347 0.0000 0.0000 1.7200
# 2 8.9908 23.9105 17.5347 0.0000 0.0000 -1.7200
# 3 17.5347 17.5347 169.3903 0.0000 0.0000 0.0000
# 4 0.0000 0.0000 0.0000 -396.3458 0.0000 0.0000
# 5 0.0000 0.0000 0.0000 0.0000 -396.3458 0.0000
# 6 1.7200 -1.7200 0.0000 0.0000 0.0000 29.5063
#
#
#
# Elastic Compliance Matrix: (Units=1/GPa)
#
#
# Indices 1 2 3 4 5 6 
#
# 1 0.051051 -0.016888 -0.003536 0.000000 0.000000 -0.003960
# 2 -0.016888 0.051051 -0.003536 0.000000 0.000000 0.003960
# 3 -0.003536 -0.003536 0.006636 0.000000 0.000000 0.000000
# 4 0.000000 0.000000 0.000000 -0.002523 0.000000 0.000000
# 5 0.000000 0.000000 0.000000 0.000000 -0.002523 0.000000
# 6 -0.003960 0.003960 0.000000 0.000000 0.000000 0.034353
#
#
# Mechanical properties :
#
#
# Convention : Reuss Voigt Hill
#
# Bulk Modulus (GPa) = 16.44285 33.92576 25.18430
# Shear Modulus (GPa) = 24.24384 -141.09366 -58.42491
#
# Velocity S-wave (km/s) = 3.27412 -7.89855 -5.08268
# Velocity P-wave (km/s) = 4.64367 8.25724 4.82796
#
# Compressibility (1/GPa) = 0.06081671
#
# Stress axis : x y z
#
# Youngs Moduli (GPa) = 19.58823 19.58823 150.69997
#
# Poissons Ratio (x) = 0.33080 0.53295
# Poissons Ratio (y) = 0.33080 0.53295
# Poissons Ratio (z) = 0.06927 0.06927
#
# Static dielectric constant tensor:
#      x y z
#    x 1.852020 0.000000 0.000000 
#    y 0.000000 1.852020 0.000000 
#    z 0.000000 0.000000 1.939520 
# 
# From -- ./inp_files/2894.got.cif
#   From: 2010.05.17/outbox.cif.g08.bks.cpg/sg84_2_cif.got.tgz:2894.got - 2010.06.03 18:57:40.
