data_PCOD9544668
_publ_section_title
;
Structure prediction by ZEFSAII (Michael W. Deem and Ramdas Pophale) SiO2 
 PCOD9544668
Probable space group: P 4/N
;
_chemical_formula_sum "Si O2"
_cell_formula_units_Z 26
_cell_length_a 10.456790
_cell_length_b 10.456790
_cell_length_c 8.968641
_cell_angle_alpha 90.000000
_cell_angle_beta 90.000000
_cell_angle_gamma 90.000000
_cell_volume 980.671181
_symmetry_space_group_name_H-M "P 4/N"
_symmetry_group_IT_number 85
_symmetry_cell_setting 'tetragonal'
loop_
_space_group_symop_operation_xyz
x,y,z
1/2-y,x,z
1/2-x,1/2-y,z
y,1/2-x,z
-x,-y,-z
1/2+y,-x,-z
1/2+x,1/2+y,-z
-y,1/2+x,-z
loop_
_atom_site_type_symbol
_atom_site_label
_atom_site_fract_x
_atom_site_fract_y
_atom_site_fract_z
Si Si1 0.536840 0.717576 0.884294
Si Si2 0.125424 0.466061 0.584633
Si Si3 0.305311 0.549974 0.789783
Si Si4 0.250000 0.250000 0.436761
O O1 0.648734 0.611528 0.854498
O O2 0.411269 0.658355 0.809208
O O3 0.488583 0.741208 0.053876
O O4 0.196374 0.579551 0.669912
O O5 0.221693 0.401805 0.467220
O O6 0.000000 0.500000 0.500000
O O7 0.077533 0.371612 0.718647
#
# Coordination Sequence:
#
# PCOD9544668 Si02
#       4
#     8   8   8   2
#     4  11  24  45  76 116 160 211 269 347 430 504
#     4  10  22  46  79 108 148 217 271 321 410 496
#     4  11  23  47  76 110 161 211 270 339 421 495
#     4   8  20  44  76  96 138 204 248 320 388 458
#
# _framework density 26.512450999999999
#
# number of rings (size 3 to 8) (size 9 to 14) (size 15 to 20)
#    0.000    1.538    3.077    0.923    0.000    0.615 
#   11.077    0.000    0.000    0.000    0.000    0.000 
#    0.000    0.000    0.000    0.000    0.000    0.000 
#
# Total GULP energy -144891.194095 kJ/mol
# GULP energy per Si atom -5572.738234 kJ/mol
# Density = 2.645211 g / cm^3
# Si number density = 26.512451 Si / 1000 Ang^3
#
#
#
# Elastic Constant Matrix: (Units=GPa)
#
#
# Indices 1 2 3 4 5 6 
#
# 1 145.4813 72.4777 65.1247 0.0000 0.0000 11.3016
# 2 72.4777 145.4813 65.1247 0.0000 0.0000 -11.3016
# 3 65.1247 65.1247 99.8597 0.0000 0.0000 0.0000
# 4 0.0000 0.0000 0.0000 41.7458 0.0000 0.0000
# 5 0.0000 0.0000 0.0000 0.0000 41.7458 0.0000
# 6 11.3016 -11.3016 0.0000 0.0000 0.0000 48.6467
#
#
#
# Elastic Compliance Matrix: (Units=1/GPa)
#
#
# Indices 1 2 3 4 5 6 
#
# 1 0.011139 -0.003621 -0.004903 0.000000 0.000000 -0.003429
# 2 -0.003621 0.011139 -0.004903 0.000000 0.000000 0.003429
# 3 -0.004903 -0.004903 0.016409 0.000000 0.000000 0.000000
# 4 0.000000 0.000000 0.000000 0.023954 0.000000 0.000000
# 5 0.000000 0.000000 0.000000 0.000000 0.023954 0.000000
# 6 -0.003429 0.003429 0.000000 0.000000 0.000000 0.022150
#
#
# Mechanical properties :
#
#
# Convention : Reuss Voigt Hill
#
# Bulk Modulus (GPa) = 84.50758 88.47517 86.49138
# Shear Modulus (GPa) = 35.83127 38.96736 37.39931
#
# Velocity S-wave (km/s) = 3.68025 3.83792 3.75991
# Velocity P-wave (km/s) = 7.07127 7.28582 7.17935
#
# Compressibility (1/GPa) = 0.01183326
#
# Stress axis : x y z
#
# Youngs Moduli (GPa) = 89.77644 89.77644 60.94205
#
# Poissons Ratio (x) = 0.32507 0.29879
# Poissons Ratio (y) = 0.32507 0.29879
# Poissons Ratio (z) = 0.44017 0.44017
#
# Static dielectric constant tensor:
#      x y z
#    x 2.142880 0.000000 0.000000 
#    y 0.000000 2.142880 0.000000 
#    z 0.000000 0.000000 2.281000 
# 
# From -- ./inp_files/678.got.cif
#   From: 2010.05.17/outbox.cif.g08.bks.cpg/sg85_cif.got.tgz:678.got - 2010.06.03 19:01:16.
