data_PCOD9544169
_publ_section_title
;
Structure prediction by ZEFSAII (Michael W. Deem and Ramdas Pophale) SiO2 
 PCOD9544169
Probable space group: P 42/M
;
_chemical_formula_sum "Si O2"
_cell_formula_units_Z 48
_cell_length_a 17.017671
_cell_length_b 17.017671
_cell_length_c 8.785372
_cell_angle_alpha 90.000000
_cell_angle_beta 90.000000
_cell_angle_gamma 90.000000
_cell_volume 2544.253626
_symmetry_space_group_name_H-M "P 42/M"
_symmetry_group_IT_number 84
_symmetry_cell_setting 'tetragonal'
loop_
_space_group_symop_operation_xyz
x,y,z
-y,x,1/2+z
-x,-y,z
y,-x,1/2+z
-x,-y,-z
y,-x,1/2-z
x,y,-z
-y,x,1/2-z
loop_
_atom_site_type_symbol
_atom_site_label
_atom_site_fract_x
_atom_site_fract_y
_atom_site_fract_z
Si Si1 0.218427 0.760616 0.321897
Si Si2 0.698353 0.490733 0.666829
Si Si3 0.932154 0.325180 0.181950
Si Si4 0.900006 0.673946 0.683377
Si Si5 0.667451 0.349841 0.831129
Si Si6 0.116757 0.510228 0.675867
O O1 0.205318 0.774750 0.500000
O O2 0.137720 0.731034 0.243801
O O3 0.267554 0.833298 0.249179
O O4 0.276716 0.687462 0.293861
O O5 0.667662 0.467403 0.500000
O O6 0.658054 0.441433 0.797976
O O7 0.689027 0.583221 0.678921
O O8 0.790515 0.474758 0.675329
O O9 0.918930 0.416859 0.231357
O O10 0.014798 0.300707 0.256524
O O11 0.935011 0.320941 0.000000
O O12 0.894763 0.675598 0.500000
O O13 0.892532 0.580723 0.728097
O O14 0.700833 0.335892 0.000000
O O15 0.088927 0.515420 0.500000
#
# Coordination Sequence:
#
# PCOD9544169 Si02
#       6
#     8   8   8   8   8   8
#     4  12  24  40  63  89 120 159 200 244 300 359
#     4  10  21  37  56  81 115 155 202 252 305 358
#     4  12  25  40  61  93 127 160 203 247 296 358
#     4  11  23  42  65  91 125 161 200 248 303 358
#     4  11  22  38  58  82 113 156 206 254 303 355
#     4  10  20  37  60  88 124 162 197 244 306 360
#
# _framework density 18.866043999999999
#
# number of rings (size 3 to 8) (size 9 to 14) (size 15 to 20)
#    0.000    1.000    3.333    4.500    0.000    5.000 
#    0.000    1.667    0.000    0.500    0.000    3.500 
#    0.000    0.000    0.000    0.000    0.000    0.000 
#
# Total GULP energy -267905.393506 kJ/mol
# GULP energy per Si atom -5581.362365 kJ/mol
# Density = 1.882310 g / cm^3
# Si number density = 18.866044 Si / 1000 Ang^3
#
#
#
# Elastic Constant Matrix: (Units=GPa)
#
#
# Indices 1 2 3 4 5 6 
#
# 1 141.8815 2.8401 42.4226 0.0000 0.0000 -67.5944
# 2 2.8401 141.8815 42.4226 0.0000 0.0000 67.5944
# 3 42.4226 42.4226 87.7123 0.0000 0.0000 0.0000
# 4 0.0000 0.0000 0.0000 14.5674 0.0000 0.0000
# 5 0.0000 0.0000 0.0000 0.0000 14.5674 0.0000
# 6 -67.5944 67.5944 0.0000 0.0000 0.0000 113.3934
#
#
#
# Elastic Compliance Matrix: (Units=1/GPa)
#
#
# Indices 1 2 3 4 5 6 
#
# 1 0.013376 -0.003731 -0.004665 0.000000 0.000000 0.010198
# 2 -0.003731 0.013376 -0.004665 0.000000 0.000000 -0.010198
# 3 -0.004665 -0.004665 0.015913 0.000000 0.000000 0.000000
# 4 0.000000 0.000000 0.000000 0.068647 0.000000 0.000000
# 5 0.000000 0.000000 0.000000 0.000000 0.068647 0.000000
# 6 0.010198 -0.010198 0.000000 0.000000 0.000000 0.020977
#
#
# Mechanical properties :
#
#
# Convention : Reuss Voigt Hill
#
# Bulk Modulus (GPa) = 60.44638 60.76064 60.60351
# Shear Modulus (GPa) = 21.49884 47.42495 34.46189
#
# Velocity S-wave (km/s) = 3.37939 5.01919 4.27858
# Velocity P-wave (km/s) = 6.88014 8.11579 7.52338
#
# Compressibility (1/GPa) = 0.01654359
#
# Stress axis : x y z
#
# Youngs Moduli (GPa) = 74.76124 74.76124 62.84142
#
# Poissons Ratio (x) = 0.27896 0.29313
# Poissons Ratio (y) = 0.27896 0.29313
# Poissons Ratio (z) = 0.34873 0.34873
#
# Static dielectric constant tensor:
#      x y z
#    x 1.667080 0.000000 0.000000 
#    y 0.000000 1.667080 0.000000 
#    z 0.000000 0.000000 1.672430 
# 
# From -- ./inp_files/1024.got.cif
#   From: 2010.05.17/outbox.cif.g08.bks.cpg/sg84_1_cif.got.tgz:1024.got - 2010.06.03 18:57:40.
