data_PCOD9544235
_publ_section_title
;
Structure prediction by ZEFSAII (Michael W. Deem and Ramdas Pophale) SiO2 
 PCOD9544235
Probable space group: P 42/M
;
_chemical_formula_sum "Si O2"
_cell_formula_units_Z 40
_cell_length_a 14.571441
_cell_length_b 14.571441
_cell_length_c 7.687835
_cell_angle_alpha 90.000000
_cell_angle_beta 90.000000
_cell_angle_gamma 90.000000
_cell_volume 1632.334118
_symmetry_space_group_name_H-M "P 42/M"
_symmetry_group_IT_number 84
_symmetry_cell_setting 'tetragonal'
loop_
_space_group_symop_operation_xyz
x,y,z
-y,x,1/2+z
-x,-y,z
y,-x,1/2+z
-x,-y,-z
y,-x,1/2-z
x,y,-z
-y,x,1/2-z
loop_
_atom_site_type_symbol
_atom_site_label
_atom_site_fract_x
_atom_site_fract_y
_atom_site_fract_z
Si Si1 0.867412 0.299420 0.794789
Si Si2 0.403715 0.609643 0.798307
Si Si3 0.890688 0.502807 0.791997
Si Si4 0.991132 0.145171 0.200609
Si Si5 0.792718 0.682140 0.805159
O O1 0.854292 0.403396 0.725869
O O2 0.954537 0.241652 0.725749
O O3 0.780071 0.232431 0.776287
O O4 0.885005 0.311115 0.000000
O O5 0.512961 0.619400 0.786580
O O6 0.361967 0.692181 0.693754
O O7 0.373558 0.611408 0.000000
O O8 0.852102 0.599662 0.721045
O O9 0.000000 0.500000 0.771311
O O10 0.869071 0.506597 0.000000
O O11 0.073488 0.093541 0.294216
O O12 0.017934 0.156493 0.000000
O O13 0.827884 0.699148 0.000000
#
# Coordination Sequence:
#
# PCOD9544235 Si02
#       5
#     8   8   8   8   8
#     4  10  22  39  62  90 123 163 208 260 320 378
#     4  11  21  35  56  82 116 151 196 248 303 363
#     4   9  20  39  62  87 117 159 208 255 308 377
#     4  10  21  37  61  90 122 159 202 258 323 383
#     4  11  22  36  60  88 117 159 207 253 309 374
#
# _framework density 24.504788999999999
#
# number of rings (size 3 to 8) (size 9 to 14) (size 15 to 20)
#    0.000    1.800    0.000    5.400    2.800    3.200 
#    0.000    1.000    0.000    3.000    0.000    0.000 
#    0.000    0.000    0.000    0.000    0.000    0.000 
#
# Total GULP energy -223436.856282 kJ/mol
# GULP energy per Si atom -5585.921407 kJ/mol
# Density = 2.444901 g / cm^3
# Si number density = 24.504789 Si / 1000 Ang^3
#
#
#
# Elastic Constant Matrix: (Units=GPa)
#
#
# Indices 1 2 3 4 5 6 
#
# 1 16.5837 135.6248 2.3414 0.0000 0.0000 63.7459
# 2 135.6248 16.5837 2.3414 0.0000 0.0000 -63.7459
# 3 2.3414 2.3414 71.2167 0.0000 0.0000 0.0000
# 4 0.0000 0.0000 0.0000 13.6200 0.0000 0.0000
# 5 0.0000 0.0000 0.0000 0.0000 13.6200 0.0000
# 6 63.7459 -63.7459 0.0000 0.0000 0.0000 -4.7763
#
#
#
# Elastic Compliance Matrix: (Units=1/GPa)
#
#
# Indices 1 2 3 4 5 6 
#
# 1 0.003604 0.002972 -0.000216 0.000000 0.000000 0.008434
# 2 0.002972 0.003604 -0.000216 0.000000 0.000000 -0.008434
# 3 -0.000216 -0.000216 0.014056 0.000000 0.000000 0.000000
# 4 0.000000 0.000000 0.000000 0.073422 0.000000 0.000000
# 5 0.000000 0.000000 0.000000 0.000000 0.073422 0.000000
# 6 0.008434 -0.008434 0.000000 0.000000 0.000000 0.015749
#
#
# Mechanical properties :
#
#
# Convention : Reuss Voigt Hill
#
# Bulk Modulus (GPa) = 37.95903 42.77767 40.36835
# Shear Modulus (GPa) = 26.65833 2.09782 14.37807
#
# Velocity S-wave (km/s) = 3.30188 0.92625 2.42491
# Velocity P-wave (km/s) = 5.48276 4.31725 4.93454
#
# Compressibility (1/GPa) = 0.02634419
#
# Stress axis : x y z
#
# Youngs Moduli (GPa) = 277.44999 277.44999 71.14463
#
# Poissons Ratio (x) = -0.82467 0.01538
# Poissons Ratio (y) = -0.82467 0.01538
# Poissons Ratio (z) = 0.05999 0.05999
#
# Static dielectric constant tensor:
#      x y z
#    x 1.971160 0.000000 0.000000 
#    y 0.000000 1.971160 0.000000 
#    z 0.000000 0.000000 1.933220 
# 
# From -- ./inp_files/780.got.cif
#   From: 2010.05.17/outbox.cif.g08.bks.cpg/sg84_1_cif.got.tgz:780.got - 2010.06.03 18:57:40.
