data_PCOD9544479
_publ_section_title
;
Structure prediction by ZEFSAII (Michael W. Deem and Ramdas Pophale) SiO2 
 PCOD9544479
Probable space group: P 42/M
;
_chemical_formula_sum "Si O2"
_cell_formula_units_Z 48
_cell_length_a 9.000000
_cell_length_b 9.000000
_cell_length_c 30.000000
_cell_angle_alpha 90.000000
_cell_angle_beta 90.000000
_cell_angle_gamma 90.000000
_cell_volume 2430.000000
_symmetry_space_group_name_H-M "P 42/M"
_symmetry_group_IT_number 84
_symmetry_cell_setting 'tetragonal'
loop_
_space_group_symop_operation_xyz
x,y,z
-y,x,1/2+z
-x,-y,z
y,-x,1/2+z
-x,-y,-z
y,-x,1/2-z
x,y,-z
-y,x,1/2-z
loop_
_atom_site_type_symbol
_atom_site_label
_atom_site_fract_x
_atom_site_fract_y
_atom_site_fract_z
Si Si1 0.424994 0.660343 0.911555
Si Si2 0.425165 0.840820 0.000000
Si Si3 0.324388 0.457252 0.311412
Si Si4 0.664633 0.933046 0.408243
Si Si5 0.163323 0.067245 0.500000
Si Si6 0.293574 0.205896 0.755884
Si Si7 0.968978 0.677476 0.808851
O O1 0.500000 0.500000 0.916669
O O2 0.467643 0.755751 0.954585
O O3 0.472854 0.718121 0.862861
O O4 0.245954 0.651224 0.908579
O O5 0.500000 0.000000 0.000000
O O6 0.246217 0.848677 0.000000
O O7 0.500000 0.500000 0.306610
O O8 0.216195 0.547514 0.279188
O O9 0.309347 0.295298 0.290567
O O10 0.754289 0.975298 0.453414
O O11 0.500000 0.000000 0.412021
O O12 0.725448 0.986897 0.359453
O O13 0.000000 0.000000 0.500000
O O14 0.197338 0.280142 0.795156
O O15 0.252900 0.049019 0.735026
O O16 0.000000 0.500000 0.807979
#
# Coordination Sequence:
#
# PCOD9544479 Si02
#       7
#     8   4   8   8   4   8   8
#     4  10  22  38  65  93 121 156 198 255 308 360
#     4  10  23  46  62  90 130 150 195 258 312 370
#     4  11  19  35  62  87 118 158 209 241 291 358
#     4  10  22  40  64  92 121 153 207 258 301 358
#     4  10  23  46  66  86 118 166 203 250 304 376
#     4  12  21  39  59  86 126 165 199 250 295 356
#     4  11  23  39  60  90 124 158 205 252 297 355
#
# _framework density 19.753086
#
# number of rings (size 3 to 8) (size 9 to 14) (size 15 to 20)
#    0.000    1.333    5.000    0.500    7.000    1.667 
#    6.000    0.000    0.000    0.000    0.000    0.000 
#    0.000    0.000    0.000    0.000    0.000    0.000 
#
# Total GULP energy -267459.442618 kJ/mol
# GULP energy per Si atom -5572.071721 kJ/mol
# Density = 1.970813 g / cm^3
# Si number density = 19.753086 Si / 1000 Ang^3
#
#
#
# Elastic Constant Matrix: (Units=GPa)
#
#
# Indices 1 2 3 4 5 6 
#
# 1 27.7104 8.4598 34.4245 0.0000 0.0000 0.2249
# 2 8.4598 27.7104 34.4245 0.0000 0.0000 -0.2249
# 3 34.4245 34.4245 197.9756 0.0000 0.0000 0.0000
# 4 0.0000 0.0000 0.0000 22.9806 0.0000 0.0000
# 5 0.0000 0.0000 0.0000 0.0000 22.9806 0.0000
# 6 0.2249 -0.2249 0.0000 0.0000 0.0000 25.8219
#
#
#
# Elastic Compliance Matrix: (Units=1/GPa)
#
#
# Indices 1 2 3 4 5 6 
#
# 1 0.046641 -0.005316 -0.007186 0.000000 0.000000 -0.000453
# 2 -0.005316 0.046641 -0.007186 0.000000 0.000000 0.000453
# 3 -0.007186 -0.007186 0.007550 0.000000 0.000000 0.000000
# 4 0.000000 0.000000 0.000000 0.043515 0.000000 0.000000
# 5 0.000000 0.000000 0.000000 0.000000 0.043515 0.000000
# 6 -0.000453 0.000453 0.000000 0.000000 0.000000 0.038735
#
#
# Mechanical properties :
#
#
# Convention : Reuss Voigt Hill
#
# Bulk Modulus (GPa) = 16.27155 45.33489 30.80322
# Shear Modulus (GPa) = 17.45464 26.09580 21.77522
#
# Velocity S-wave (km/s) = 2.97583 3.63864 3.32380
# Velocity P-wave (km/s) = 4.47915 6.37601 5.50982
#
# Compressibility (1/GPa) = 0.06145695
#
# Stress axis : x y z
#
# Youngs Moduli (GPa) = 21.44044 21.44044 132.44951
#
# Poissons Ratio (x) = 0.11398 0.95174
# Poissons Ratio (y) = 0.11398 0.95174
# Poissons Ratio (z) = 0.15406 0.15406
#
# Static dielectric constant tensor:
#      x y z
#    x 1.706330 0.000000 0.000000 
#    y 0.000000 1.706330 0.000000 
#    z 0.000000 0.000000 1.678420 
# 
# From -- ./inp_files/5852.got.cif
#   From: 2010.05.17/outbox.ucp.g08.bks.cvg/sg84_3_cif.got.tgz:5852.got - 2010.06.11 10:34:57.
