data_PCOD9544437
_publ_section_title
;
Structure prediction by ZEFSAII (Michael W. Deem and Ramdas Pophale) SiO2 
 PCOD9544437
Probable space group: P 42/M
;
_chemical_formula_sum "Si O2"
_cell_formula_units_Z 14
_cell_length_a 5.011816
_cell_length_b 5.011816
_cell_length_c 23.693893
_cell_angle_alpha 90.000000
_cell_angle_beta 90.000000
_cell_angle_gamma 90.000000
_cell_volume 595.150303
_symmetry_space_group_name_H-M "P 42/M"
_symmetry_group_IT_number 84
_symmetry_cell_setting 'tetragonal'
loop_
_space_group_symop_operation_xyz
x,y,z
-y,x,1/2+z
-x,-y,z
y,-x,1/2+z
-x,-y,-z
y,-x,1/2-z
x,y,-z
-y,x,1/2-z
loop_
_atom_site_type_symbol
_atom_site_label
_atom_site_fract_x
_atom_site_fract_y
_atom_site_fract_z
Si Si1 0.500000 0.000000 0.675070
Si Si2 0.000000 0.000000 0.750000
Si Si3 0.252671 0.811468 0.000000
Si Si4 0.500000 0.500000 0.101528
O O1 0.751203 0.907537 0.712029
O O2 0.390105 0.736785 0.641518
O O3 0.303041 0.650367 0.057180
O O4 0.500000 0.000000 0.000000
O O5 0.000000 0.000000 0.000000
#
# Coordination Sequence:
#
# PCOD9544437 Si02
#       4
#     4   2   4   4
#     4  12  26  47  74 102 144 191 244 312 370 438
#     4  12  28  48  72 106 140 188 256 308 368 438
#     4  11  24  43  70 107 147 188 240 297 360 467
#     4  11  26  43  72 108 142 193 242 299 378 442
#
# _framework density 23.523465000000002
#
# number of rings (size 3 to 8) (size 9 to 14) (size 15 to 20)
#    0.000    0.571    0.000    6.857   12.000    4.571 
#    0.000    0.000    0.000    0.000    0.000    0.000 
#    0.000    0.000    0.000    0.000    0.000    0.000 
#
# Total GULP energy -77997.185495 kJ/mol
# GULP energy per Si atom -5571.227535 kJ/mol
# Density = 2.346992 g / cm^3
# Si number density = 23.523465 Si / 1000 Ang^3
#
#
#
# Elastic Constant Matrix: (Units=GPa)
#
#
# Indices 1 2 3 4 5 6 
#
# 1 140.1919 17.2179 35.5668 0.0000 0.0000 -7.3140
# 2 17.2179 140.1919 35.5668 0.0000 0.0000 7.3140
# 3 35.5668 35.5668 88.5684 0.0000 0.0000 0.0000
# 4 0.0000 0.0000 0.0000 55.9817 0.0000 0.0000
# 5 0.0000 0.0000 0.0000 0.0000 55.9817 0.0000
# 6 -7.3140 7.3140 0.0000 0.0000 0.0000 54.0166
#
#
#
# Elastic Compliance Matrix: (Units=1/GPa)
#
#
# Indices 1 2 3 4 5 6 
#
# 1 0.008013 -0.000252 -0.003117 0.000000 0.000000 0.001119
# 2 -0.000252 0.008013 -0.003117 0.000000 0.000000 -0.001119
# 3 -0.003117 -0.003117 0.013794 0.000000 0.000000 0.000000
# 4 0.000000 0.000000 0.000000 0.017863 0.000000 0.000000
# 5 0.000000 0.000000 0.000000 0.000000 0.017863 0.000000
# 6 0.001119 -0.001119 0.000000 0.000000 0.000000 0.018816
#
#
# Mechanical properties :
#
#
# Convention : Reuss Voigt Hill
#
# Bulk Modulus (GPa) = 59.34876 60.62837 59.98856
# Shear Modulus (GPa) = 48.56769 51.90270 50.23520
#
# Velocity S-wave (km/s) = 4.54877 4.70235 4.62620
# Velocity P-wave (km/s) = 7.27137 7.43723 7.35476
#
# Compressibility (1/GPa) = 0.01684955
#
# Stress axis : x y z
#
# Youngs Moduli (GPa) = 124.79543 124.79543 72.49573
#
# Poissons Ratio (x) = 0.03142 0.22595
# Poissons Ratio (y) = 0.03142 0.22595
# Poissons Ratio (z) = 0.38896 0.38896
#
# Static dielectric constant tensor:
#      x y z
#    x 1.898300 0.000000 0.000000 
#    y 0.000000 1.898300 0.000000 
#    z 0.000000 0.000000 1.634470 
# 
# From -- ./inp_files/3938.got.cif
#   From: 2010.05.17/outbox.cif.g08.bks.cpg/sg84_2_cif.got.tgz:3938.got - 2010.06.03 18:57:40.
