data_PCOD9544640
_publ_section_title
;
Structure prediction by ZEFSAII (Michael W. Deem and Ramdas Pophale) SiO2 
 PCOD9544640
Probable space group: P 4/N
;
_chemical_formula_sum "Si O2"
_cell_formula_units_Z 56
_cell_length_a 11.210589
_cell_length_b 11.210589
_cell_length_c 19.484246
_cell_angle_alpha 90.000000
_cell_angle_beta 90.000000
_cell_angle_gamma 90.000000
_cell_volume 2448.727541
_symmetry_space_group_name_H-M "P 4/N"
_symmetry_group_IT_number 85
_symmetry_cell_setting 'tetragonal'
loop_
_space_group_symop_operation_xyz
x,y,z
1/2-y,x,z
1/2-x,1/2-y,z
y,1/2-x,z
-x,-y,-z
1/2+y,-x,-z
1/2+x,1/2+y,-z
-y,1/2+x,-z
loop_
_atom_site_type_symbol
_atom_site_label
_atom_site_fract_x
_atom_site_fract_y
_atom_site_fract_z
Si Si1 0.753763 0.545951 0.300196
Si Si2 0.656745 0.928193 0.496981
Si Si3 0.438374 0.528637 0.614393
Si Si4 0.404621 0.379922 0.262004
Si Si5 0.131609 0.412841 0.111133
Si Si6 0.422345 0.656373 0.012100
Si Si7 0.447300 0.294509 0.848005
O O1 0.862363 0.640227 0.303018
O O2 0.696209 0.457891 0.356452
O O3 0.782811 0.488996 0.226152
O O4 0.596004 0.796897 0.503903
O O5 0.598067 0.962835 0.424044
O O6 0.618554 0.022156 0.554168
O O7 0.525231 0.556178 0.677717
O O8 0.264240 0.411026 0.267329
O O9 0.455727 0.409949 0.186262
O O10 0.092817 0.275465 0.109570
O O11 0.099499 0.490068 0.044999
O O12 0.470818 0.668793 0.089011
O O13 0.293781 0.597127 0.010057
O O14 0.335580 0.385171 0.852819
#
# Coordination Sequence:
#
# PCOD9544640 Si02
#       7
#     8   8   8   8   8   8   8
#     4   9  19  37  59  85 119 152 195 252 300 352
#     4  10  22  40  62  88 124 160 198 246 292 348
#     4  11  20  32  64  96 113 150 204 240 290 361
#     4   9  19  37  59  85 119 152 195 252 300 352
#     4   9  19  37  60  84 110 149 205 261 305 361
#     4  11  24  37  52  80 124 161 198 255 320 380
#     4   9  19  37  60  84 110 149 205 261 305 361
#
# _framework density 22.869019999999999
#
# number of rings (size 3 to 8) (size 9 to 14) (size 15 to 20)
#    0.000    2.286    0.000    4.286    2.000    5.714 
#    7.714    0.000    0.000   35.143    0.000    0.000 
#    0.000    0.000    0.000    0.000    0.000    0.000 
#
# Total GULP energy -312341.570308 kJ/mol
# GULP energy per Si atom -5577.528041 kJ/mol
# Density = 2.281697 g / cm^3
# Si number density = 22.869020 Si / 1000 Ang^3
#
#
#
# Elastic Constant Matrix: (Units=GPa)
#
#
# Indices 1 2 3 4 5 6 
#
# 1 53.1903 10.7126 32.1477 0.0000 0.0000 -0.0001
# 2 10.7126 53.1903 32.1477 0.0000 0.0000 0.0001
# 3 32.1477 32.1477 168.3966 0.0000 0.0000 0.0000
# 4 0.0000 0.0000 0.0000 33.6861 0.0000 0.0000
# 5 0.0000 0.0000 0.0000 0.0000 33.6861 0.0000
# 6 -0.0001 0.0001 0.0000 0.0000 0.0000 25.4445
#
#
#
# Elastic Compliance Matrix: (Units=1/GPa)
#
#
# Indices 1 2 3 4 5 6 
#
# 1 0.021455 -0.002086 -0.003698 0.000000 0.000000 0.000000
# 2 -0.002086 0.021455 -0.003698 0.000000 0.000000 0.000000
# 3 -0.003698 -0.003698 0.007350 0.000000 0.000000 0.000000
# 4 0.000000 0.000000 0.000000 0.029686 0.000000 0.000000
# 5 0.000000 0.000000 0.000000 0.000000 0.029686 0.000000
# 6 0.000000 0.000000 0.000000 0.000000 0.000000 0.039301
#
#
# Mechanical properties :
#
#
# Convention : Reuss Voigt Hill
#
# Bulk Modulus (GPa) = 31.95114 47.19925 39.57519
# Shear Modulus (GPa) = 28.03793 31.88128 29.95961
#
# Velocity S-wave (km/s) = 3.50526 3.73779 3.62339
# Velocity P-wave (km/s) = 5.51218 6.26992 5.90322
#
# Compressibility (1/GPa) = 0.03129779
#
# Stress axis : x y z
#
# Youngs Moduli (GPa) = 46.60819 46.60819 136.05141
#
# Poissons Ratio (x) = 0.09724 0.50307
# Poissons Ratio (y) = 0.09724 0.50307
# Poissons Ratio (z) = 0.17234 0.17234
#
# Static dielectric constant tensor:
#      x y z
#    x 1.888250 0.000000 0.000000 
#    y 0.000000 1.888250 0.000000 
#    z 0.000000 0.000000 1.937330 
# 
# From -- ./inp_files/2253.got.cif
#   From: 2010.05.17/outbox.cif.g08.bks.cpg/sg85_cif.got.tgz:2253.got - 2010.06.03 19:01:16.
