data_PCOD9544769
_publ_section_title
;
Structure prediction by ZEFSAII (Michael W. Deem and Ramdas Pophale) SiO2 
 PCOD9544769
Probable space group: P 4/N
;
_chemical_formula_sum "Si O2"
_cell_formula_units_Z 50
_cell_length_a 8.851033
_cell_length_b 8.851033
_cell_length_c 31.614367
_cell_angle_alpha 90.000000
_cell_angle_beta 90.000000
_cell_angle_gamma 90.000000
_cell_volume 2476.694333
_symmetry_space_group_name_H-M "P 4/N"
_symmetry_group_IT_number 85
_symmetry_cell_setting 'tetragonal'
loop_
_space_group_symop_operation_xyz
x,y,z
1/2-y,x,z
1/2-x,1/2-y,z
y,1/2-x,z
-x,-y,-z
1/2+y,-x,-z
1/2+x,1/2+y,-z
-y,1/2+x,-z
loop_
_atom_site_type_symbol
_atom_site_label
_atom_site_fract_x
_atom_site_fract_y
_atom_site_fract_z
Si Si1 0.601333 0.543624 0.876471
Si Si2 0.750000 0.750000 0.628664
Si Si3 0.088163 0.446834 0.541711
Si Si4 0.835825 0.087499 0.620474
Si Si5 0.979838 0.856101 0.294077
Si Si6 0.376332 0.472470 0.217600
Si Si7 0.082699 0.438831 0.958496
O O1 0.782585 0.548153 0.878970
O O2 0.574218 0.477386 0.829578
O O3 0.523144 0.466246 0.915885
O O4 0.562207 0.735499 0.628179
O O5 0.047571 0.270114 0.542878
O O6 0.049925 0.555771 0.580673
O O7 0.000000 0.500000 0.500000
O O8 0.750000 0.250000 0.612754
O O9 0.932894 0.112295 0.662742
O O10 0.820846 0.943424 0.292770
O O11 0.072036 0.915256 0.253879
O O12 0.195975 0.447071 0.221557
O O13 0.045197 0.262220 0.959210
O O14 0.000000 0.500000 0.000000
#
# Coordination Sequence:
#
# PCOD9544769 Si02
#       7
#     8   2   8   8   8   8   8
#     4   9  19  39  62  89 125 166 215 275 334 402
#     4  12  28  44  80 108 136 188 244 284 344 440
#     4  11  27  47  73 105 145 187 235 293 352 425
#     4  12  28  49  75 110 146 187 239 296 358 419
#     4  11  25  43  65  97 140 181 227 285 352 413
#     4   9  21  39  64  95 130 174 227 279 336 409
#     4  11  24  39  58  87 121 162 213 274 338 408
#
# _framework density 20.188200999999999
#
# number of rings (size 3 to 8) (size 9 to 14) (size 15 to 20)
#    0.000    1.440    0.000    4.800    8.960    6.080 
#    0.000    4.800    0.000    0.000    0.000    0.000 
#    0.000    0.000    0.000    0.000    0.000    0.000 
#
# Total GULP energy -278727.813043 kJ/mol
# GULP energy per Si atom -5574.556261 kJ/mol
# Density = 2.014225 g / cm^3
# Si number density = 20.188201 Si / 1000 Ang^3
#
#
#
# Elastic Constant Matrix: (Units=GPa)
#
#
# Indices 1 2 3 4 5 6 
#
# 1 49.2410 36.0823 43.0379 0.0000 0.0000 17.9778
# 2 36.0823 49.2410 43.0379 0.0000 0.0000 -17.9778
# 3 43.0379 43.0379 168.1189 0.0000 0.0000 0.0000
# 4 0.0000 0.0000 0.0000 36.2385 0.0000 0.0000
# 5 0.0000 0.0000 0.0000 0.0000 36.2385 0.0000
# 6 17.9778 -17.9778 0.0000 0.0000 0.0000 42.5898
#
#
#
# Elastic Compliance Matrix: (Units=1/GPa)
#
#
# Indices 1 2 3 4 5 6 
#
# 1 -0.239782 0.255582 -0.004045 0.000000 0.000000 0.209101
# 2 0.255582 -0.239782 -0.004045 0.000000 0.000000 -0.209101
# 3 -0.004045 -0.004045 0.008019 0.000000 0.000000 0.000000
# 4 0.000000 0.000000 0.000000 0.027595 0.000000 0.000000
# 5 0.000000 0.000000 0.000000 0.000000 0.027595 0.000000
# 6 0.209101 -0.209101 0.000000 0.000000 0.000000 -0.153049
#
#
# Mechanical properties :
#
#
# Convention : Reuss Voigt Hill
#
# Bulk Modulus (GPa) = 42.66052 56.76859 49.71455
# Shear Modulus (GPa) = -4.73227 32.64286 13.95529
#
# Velocity S-wave (km/s) = -1.53270 4.02547 2.63203
# Velocity P-wave (km/s) = 4.24795 7.05596 5.82373
#
# Compressibility (1/GPa) = 0.02344088
#
# Stress axis : x y z
#
# Youngs Moduli (GPa) = -4.17046 -4.17046 124.70137
#
# Poissons Ratio (x) = 1.06590 0.50441
# Poissons Ratio (y) = 1.06590 0.50441
# Poissons Ratio (z) = -0.01687 -0.01687
#
# Static dielectric constant tensor:
#      x y z
#    x 1.759650 0.000000 0.000000 
#    y 0.000000 1.759650 0.000000 
#    z 0.000000 0.000000 1.703180 
# 
# From -- ./inp_files/2463.got.cif
#   From: 2010.05.17/outbox.cif.g08.bks.cpg/sg85_cif.got.tgz:2463.got - 2010.06.03 19:01:16.
