data_PCOD9544461
_publ_section_title
;
Structure prediction by ZEFSAII (Michael W. Deem and Ramdas Pophale) SiO2 
 PCOD9544461
Probable space group: P 42/M
;
_chemical_formula_sum "Si O2"
_cell_formula_units_Z 18
_cell_length_a 5.332824
_cell_length_b 5.332824
_cell_length_c 24.043674
_cell_angle_alpha 90.000000
_cell_angle_beta 90.000000
_cell_angle_gamma 90.000000
_cell_volume 683.778329
_symmetry_space_group_name_H-M "P 42/M"
_symmetry_group_IT_number 84
_symmetry_cell_setting 'tetragonal'
loop_
_space_group_symop_operation_xyz
x,y,z
-y,x,1/2+z
-x,-y,z
y,-x,1/2+z
-x,-y,-z
y,-x,1/2-z
x,y,-z
-y,x,1/2-z
loop_
_atom_site_type_symbol
_atom_site_label
_atom_site_fract_x
_atom_site_fract_y
_atom_site_fract_z
Si Si1 0.166897 0.249891 0.000000
Si Si2 0.356665 0.249486 0.123296
Si Si3 0.000000 0.500000 0.798911
Si Si4 0.000000 0.000000 0.250000
O O1 0.320631 0.248781 0.943073
O O2 0.000000 0.500000 0.000000
O O3 0.000000 0.000000 0.000000
O O4 0.500000 0.500000 0.139501
O O5 0.101194 0.290888 0.155830
O O6 0.500000 0.000000 0.138561
O O7 0.128609 0.716700 0.761371
#
# Coordination Sequence:
#
# PCOD9544461 Si02
#       4
#     4   8   4   2
#     4  12  24  44  72 113 161 198 250 313 392 483
#     4  12  26  47  79 111 155 206 256 318 399 486
#     4  12  30  53  78 114 152 205 270 342 408 480
#     4  12  32  52  84 114 160 208 280 356 408 482
#
# _framework density 26.324318999999999
#
# number of rings (size 3 to 8) (size 9 to 14) (size 15 to 20)
#    0.000    0.000    2.222    6.667   12.444    0.000 
#    0.000    0.000    0.000    0.000    0.000    0.000 
#    0.000    0.000    0.000    0.000    0.000    0.000 
#
# Total GULP energy -100248.988249 kJ/mol
# GULP energy per Si atom -5569.388236 kJ/mol
# Density = 2.626440 g / cm^3
# Si number density = 26.324319 Si / 1000 Ang^3
#
#
#
# Elastic Constant Matrix: (Units=GPa)
#
#
# Indices 1 2 3 4 5 6 
#
# 1 179.3592 38.7884 -3.3201 0.0000 0.0000 6.7219
# 2 38.7884 179.3592 -3.3201 0.0000 0.0000 -6.7219
# 3 -3.3201 -3.3201 91.4011 0.0000 0.0000 0.0000
# 4 0.0000 0.0000 0.0000 20.0699 0.0000 0.0000
# 5 0.0000 0.0000 0.0000 0.0000 20.0699 0.0000
# 6 6.7219 -6.7219 0.0000 0.0000 0.0000 60.6920
#
#
#
# Elastic Compliance Matrix: (Units=1/GPa)
#
#
# Indices 1 2 3 4 5 6 
#
# 1 0.005890 -0.001300 0.000167 0.000000 0.000000 -0.000796
# 2 -0.001300 0.005890 0.000167 0.000000 0.000000 0.000796
# 3 0.000167 0.000167 0.010953 0.000000 0.000000 0.000000
# 4 0.000000 0.000000 0.000000 0.049826 0.000000 0.000000
# 5 0.000000 0.000000 0.000000 0.000000 0.049826 0.000000
# 6 -0.000796 0.000796 0.000000 0.000000 0.000000 0.016653
#
#
# Mechanical properties :
#
#
# Convention : Reuss Voigt Hill
#
# Bulk Modulus (GPa) = 48.08165 57.15730 52.61948
# Shear Modulus (GPa) = 33.80584 48.03112 40.91848
#
# Velocity S-wave (km/s) = 3.58747 4.27616 3.94686
# Velocity P-wave (km/s) = 5.95522 6.79269 6.38769
#
# Compressibility (1/GPa) = 0.02079795
#
# Stress axis : x y z
#
# Youngs Moduli (GPa) = 169.79171 169.79171 91.30001
#
# Poissons Ratio (x) = 0.22080 -0.01522
# Poissons Ratio (y) = 0.22080 -0.01522
# Poissons Ratio (z) = -0.02830 -0.02830
#
# Static dielectric constant tensor:
#      x y z
#    x 1.856470 0.000000 0.000000 
#    y 0.000000 1.856470 0.000000 
#    z 0.000000 0.000000 2.168030 
# 
# From -- ./inp_files/4611.got.cif
#   From: 2010.05.17/outbox.cif.g08.bks.cpg/sg84_3_cif.got.tgz:4611.got - 2010.06.03 18:57:40.
