data_PCOD9544821
_publ_section_title
;
Structure prediction by ZEFSAII (Michael W. Deem and Ramdas Pophale) SiO2 
 PCOD9544821
Probable space group: P 4/N
;
_chemical_formula_sum "Si O2"
_cell_formula_units_Z 24
_cell_length_a 10.117753
_cell_length_b 10.117753
_cell_length_c 11.145851
_cell_angle_alpha 90.000000
_cell_angle_beta 90.000000
_cell_angle_gamma 90.000000
_cell_volume 1140.988794
_symmetry_space_group_name_H-M "P 4/N"
_symmetry_group_IT_number 85
_symmetry_cell_setting 'tetragonal'
loop_
_space_group_symop_operation_xyz
x,y,z
1/2-y,x,z
1/2-x,1/2-y,z
y,1/2-x,z
-x,-y,-z
1/2+y,-x,-z
1/2+x,1/2+y,-z
-y,1/2+x,-z
loop_
_atom_site_type_symbol
_atom_site_label
_atom_site_fract_x
_atom_site_fract_y
_atom_site_fract_z
Si Si1 0.619484 0.410258 0.544177
Si Si2 0.104339 0.696220 0.808349
Si Si3 0.459137 0.316702 0.983515
O O1 0.500000 0.500000 0.500000
O O2 0.755392 0.421301 0.467915
O O3 0.653111 0.450188 0.680528
O O4 0.250000 0.750000 0.782911
O O5 0.017360 0.803044 0.881381
O O6 0.133532 0.574091 0.897238
O O7 0.332249 0.407721 0.962989
#
# Coordination Sequence:
#
# PCOD9544821 Si02
#       3
#     8   8   8
#     4  11  27  47  68 100 136 184 230 278 338 405
#     4  12  23  42  70  92 135 170 218 272 332 398
#     4  11  25  40  64 100 131 169 212 270 338 395
#
# _framework density 21.034386999999999
#
# number of rings (size 3 to 8) (size 9 to 14) (size 15 to 20)
#    0.000    0.667    6.667    1.000    9.333    0.667 
#    0.000    0.000    0.000    0.000    0.000    0.000 
#    0.000    0.000    0.000    0.000    0.000    0.000 
#
# Total GULP energy -134124.477771 kJ/mol
# GULP energy per Si atom -5588.519907 kJ/mol
# Density = 2.098651 g / cm^3
# Si number density = 21.034387 Si / 1000 Ang^3
#
#
#
# Elastic Constant Matrix: (Units=GPa)
#
#
# Indices 1 2 3 4 5 6 
#
# 1 84.1483 27.2986 -0.8733 0.0000 0.0000 -2.6315
# 2 27.2986 84.1483 -0.8733 0.0000 0.0000 2.6315
# 3 -0.8733 -0.8733 101.7784 0.0000 0.0000 0.0000
# 4 0.0000 0.0000 0.0000 19.2763 0.0000 0.0000
# 5 0.0000 0.0000 0.0000 0.0000 19.2763 0.0000
# 6 -2.6315 2.6315 0.0000 0.0000 0.0000 32.1801
#
#
#
# Elastic Compliance Matrix: (Units=1/GPa)
#
#
# Indices 1 2 3 4 5 6 
#
# 1 0.013349 -0.004375 0.000077 0.000000 0.000000 0.001449
# 2 -0.004375 0.013349 0.000077 0.000000 0.000000 -0.001449
# 3 0.000077 0.000077 0.009827 0.000000 0.000000 0.000000
# 4 0.000000 0.000000 0.000000 0.051877 0.000000 0.000000
# 5 0.000000 0.000000 0.000000 0.000000 0.051877 0.000000
# 6 0.001449 -0.001449 0.000000 0.000000 0.000000 0.031312
#
#
# Mechanical properties :
#
#
# Convention : Reuss Voigt Hill
#
# Bulk Modulus (GPa) = 35.60900 35.68654 35.64777
# Shear Modulus (GPa) = 26.39991 30.44809 28.42400
#
# Velocity S-wave (km/s) = 3.54656 3.80878 3.68001
# Velocity P-wave (km/s) = 5.80831 6.02869 5.91952
#
# Compressibility (1/GPa) = 0.02808278
#
# Stress axis : x y z
#
# Youngs Moduli (GPa) = 74.91050 74.91050 101.76470
#
# Poissons Ratio (x) = 0.32775 -0.00784
# Poissons Ratio (y) = 0.32775 -0.00784
# Poissons Ratio (z) = -0.00577 -0.00577
#
# Static dielectric constant tensor:
#      x y z
#    x 1.761300 0.000000 0.000000 
#    y 0.000000 1.761300 0.000000 
#    z 0.000000 0.000000 1.811840 
# 
# From -- ./inp_files/1347.got.cif
#   From: 2010.05.17/outbox.cif.g08.bks.cpg/sg85_cif.got.tgz:1347.got - 2010.06.03 19:01:16.
