data_PCOD9544734
_publ_section_title
;
Structure prediction by ZEFSAII (Michael W. Deem and Ramdas Pophale) SiO2 
 PCOD9544734
Probable space group: P 4/N
;
_chemical_formula_sum "Si O2"
_cell_formula_units_Z 56
_cell_length_a 15.774394
_cell_length_b 15.774394
_cell_length_c 11.045906
_cell_angle_alpha 90.000000
_cell_angle_beta 90.000000
_cell_angle_gamma 90.000000
_cell_volume 2748.569426
_symmetry_space_group_name_H-M "P 4/N"
_symmetry_group_IT_number 85
_symmetry_cell_setting 'tetragonal'
loop_
_space_group_symop_operation_xyz
x,y,z
1/2-y,x,z
1/2-x,1/2-y,z
y,1/2-x,z
-x,-y,-z
1/2+y,-x,-z
1/2+x,1/2+y,-z
-y,1/2+x,-z
loop_
_atom_site_type_symbol
_atom_site_label
_atom_site_fract_x
_atom_site_fract_y
_atom_site_fract_z
Si Si1 0.696489 0.494798 0.477418
Si Si2 0.013819 0.420300 0.086167
Si Si3 0.862597 0.840732 0.756194
Si Si4 0.349499 0.765091 0.304164
Si Si5 0.095671 0.924163 0.331649
Si Si6 0.809145 0.126108 0.037439
Si Si7 0.382271 0.053011 0.500844
O O1 0.693982 0.404665 0.409936
O O2 0.679963 0.468998 0.617181
O O3 0.627167 0.563268 0.438741
O O4 0.785818 0.539850 0.459440
O O5 0.110281 0.397679 0.124701
O O6 0.970783 0.439438 0.215439
O O7 0.000000 0.500000 0.000000
O O8 0.958594 0.344709 0.024699
O O9 0.761943 0.864500 0.751763
O O10 0.917211 0.873704 0.639581
O O11 0.250000 0.750000 0.326379
O O12 0.385388 0.670603 0.292519
O O13 0.368473 0.816352 0.182266
O O14 0.033338 0.923561 0.447468
O O15 0.709712 0.142044 0.010329
#
# Coordination Sequence:
#
# PCOD9544734 Si02
#       7
#     8   8   8   8   8   8   8
#     4  11  25  40  69  98 139 178 222 291 347 424
#     4  12  27  42  69  99 134 182 229 288 350 406
#     4  11  24  45  72 102 133 178 235 284 336 418
#     4  11  24  41  67  97 135 181 228 276 350 422
#     4  11  24  42  58 102 138 167 226 286 346 412
#     4  11  22  46  69  94 132 183 228 285 334 416
#     4  11  22  42  67  98 137 175 224 282 353 414
#
# _framework density 20.374234000000001
#
# number of rings (size 3 to 8) (size 9 to 14) (size 15 to 20)
#    0.000    0.857    5.714    0.429    8.000    0.286 
#    0.000    0.000    0.000    0.000    0.000    0.000 
#    0.000    0.000    0.000    0.000    0.000    0.000 
#
# Total GULP energy -312306.592486 kJ/mol
# GULP energy per Si atom -5576.903437 kJ/mol
# Density = 2.032786 g / cm^3
# Si number density = 20.374234 Si / 1000 Ang^3
#
#
#
# Elastic Constant Matrix: (Units=GPa)
#
#
# Indices 1 2 3 4 5 6 
#
# 1 93.4782 22.8873 53.3984 0.0000 0.0000 3.7727
# 2 22.8873 93.4782 53.3984 0.0000 0.0000 -3.7727
# 3 53.3984 53.3984 107.3131 0.0000 0.0000 0.0000
# 4 0.0000 0.0000 0.0000 33.7071 0.0000 0.0000
# 5 0.0000 0.0000 0.0000 0.0000 33.7071 0.0000
# 6 3.7727 -3.7727 0.0000 0.0000 0.0000 23.5909
#
#
#
# Elastic Compliance Matrix: (Units=1/GPa)
#
#
# Indices 1 2 3 4 5 6 
#
# 1 0.015115 0.000702 -0.007870 0.000000 0.000000 -0.002305
# 2 0.000702 0.015115 -0.007870 0.000000 0.000000 0.002305
# 3 -0.007870 -0.007870 0.017151 0.000000 0.000000 0.000000
# 4 0.000000 0.000000 0.000000 0.029667 0.000000 0.000000
# 5 0.000000 0.000000 0.000000 0.000000 0.029667 0.000000
# 6 -0.002305 0.002305 0.000000 0.000000 0.000000 0.043126
#
#
# Mechanical properties :
#
#
# Convention : Reuss Voigt Hill
#
# Bulk Modulus (GPa) = 57.79281 61.51531 59.65406
# Shear Modulus (GPa) = 26.92716 29.17340 28.05028
#
# Velocity S-wave (km/s) = 3.63936 3.78812 3.71449
# Velocity P-wave (km/s) = 6.78875 7.02790 6.90936
#
# Compressibility (1/GPa) = 0.01730319
#
# Stress axis : x y z
#
# Youngs Moduli (GPa) = 66.16106 66.16106 58.30566
#
# Poissons Ratio (x) = -0.04645 0.45889
# Poissons Ratio (y) = -0.04645 0.45889
# Poissons Ratio (z) = 0.52071 0.52071
#
# Static dielectric constant tensor:
#      x y z
#    x 1.755760 0.000000 0.000000 
#    y 0.000000 1.755760 0.000000 
#    z 0.000000 0.000000 1.762720 
# 
# From -- ./inp_files/1788.got.cif
#   From: 2010.05.17/outbox.cif.g08.bks.cpg/sg85_cif.got.tgz:1788.got - 2010.06.03 19:01:16.
