data_PCOD9544378
_publ_section_title
;
Structure prediction by ZEFSAII (Michael W. Deem and Ramdas Pophale) SiO2 
 PCOD9544378
Probable space group: P 42/M
;
_chemical_formula_sum "Si O2"
_cell_formula_units_Z 40
_cell_length_a 10.008097
_cell_length_b 10.008097
_cell_length_c 23.947739
_cell_angle_alpha 90.000000
_cell_angle_beta 90.000000
_cell_angle_gamma 90.000000
_cell_volume 2398.653567
_symmetry_space_group_name_H-M "P 42/M"
_symmetry_group_IT_number 84
_symmetry_cell_setting 'tetragonal'
loop_
_space_group_symop_operation_xyz
x,y,z
-y,x,1/2+z
-x,-y,z
y,-x,1/2+z
-x,-y,-z
y,-x,1/2-z
x,y,-z
-y,x,1/2-z
loop_
_atom_site_type_symbol
_atom_site_label
_atom_site_fract_x
_atom_site_fract_y
_atom_site_fract_z
Si Si1 0.867618 0.589780 0.061662
Si Si2 0.838275 0.523811 0.185277
Si Si3 0.248292 0.227413 0.261198
Si Si4 0.000533 0.837275 0.676431
Si Si5 0.129428 0.096386 0.939559
O O1 0.799676 0.548126 0.120176
O O2 0.905554 0.746893 0.066365
O O3 0.000000 0.500000 0.059616
O O4 0.800794 0.573892 0.000000
O O5 0.795220 0.651032 0.221722
O O6 0.771581 0.395789 0.214090
O O7 0.000000 0.500000 0.186776
O O8 0.221146 0.095114 0.224317
O O9 0.146943 0.214677 0.312732
O O10 0.054735 0.795086 0.616172
O O11 0.000000 0.000000 0.679808
O O12 0.197007 0.080096 0.000000
O O13 0.000000 0.000000 0.940487
#
# Coordination Sequence:
#
# PCOD9544378 Si02
#       5
#     8   8   8   8   8
#     4   9  18  31  47  73 110 146 179 223 276 328
#     4  11  22  35  54  82 111 145 184 225 276 326
#     4  12  21  35  53  79 109 144 179 225 271 328
#     4  11  18  31  52  77 104 141 182 218 271 325
#     4   9  18  29  46  75 109 141 178 225 274 322
#
# _framework density 16.676023000000001
#
# number of rings (size 3 to 8) (size 9 to 14) (size 15 to 20)
#    0.000    1.600    6.000    0.000    8.400    0.400 
#    0.000    0.000    0.000    0.000    0.000    8.400 
#    0.000    0.000    0.000    0.000    0.000    0.000 
#
# Total GULP energy -222676.295061 kJ/mol
# GULP energy per Si atom -5566.907377 kJ/mol
# Density = 1.663807 g / cm^3
# Si number density = 16.676023 Si / 1000 Ang^3
#
#
#
# Elastic Constant Matrix: (Units=GPa)
#
#
# Indices 1 2 3 4 5 6 
#
# 1 54.3321 0.7574 20.2307 0.0000 0.0000 -2.6735
# 2 0.7574 54.3321 20.2307 0.0000 0.0000 2.6735
# 3 20.2307 20.2307 129.7260 0.0000 0.0000 0.0000
# 4 0.0000 0.0000 0.0000 -7.8212 0.0000 0.0000
# 5 0.0000 0.0000 0.0000 0.0000 -7.8212 0.0000
# 6 -2.6735 2.6735 0.0000 0.0000 0.0000 15.2336
#
#
#
# Elastic Compliance Matrix: (Units=1/GPa)
#
#
# Indices 1 2 3 4 5 6 
#
# 1 0.019749 0.000751 -0.003197 0.000000 0.000000 0.003334
# 2 0.000751 0.019749 -0.003197 0.000000 0.000000 -0.003334
# 3 -0.003197 -0.003197 0.008706 0.000000 0.000000 0.000000
# 4 0.000000 0.000000 0.000000 -0.127858 0.000000 0.000000
# 5 0.000000 0.000000 0.000000 0.000000 -0.127858 0.000000
# 6 0.003334 -0.003334 0.000000 0.000000 0.000000 0.066815
#
#
# Mechanical properties :
#
#
# Convention : Reuss Voigt Hill
#
# Bulk Modulus (GPa) = 27.08676 35.64754 31.36715
# Shear Modulus (GPa) = -42.69664 13.06301 -14.81682
#
# Velocity S-wave (km/s) = -5.06549 2.80186 -2.98402
# Velocity P-wave (km/s) = 4.23486 5.64714 2.64160
#
# Compressibility (1/GPa) = 0.03691840
#
# Stress axis : x y z
#
# Youngs Moduli (GPa) = 50.63457 50.63457 114.86724
#
# Poissons Ratio (x) = -0.03803 0.36723
# Poissons Ratio (y) = -0.03803 0.36723
# Poissons Ratio (z) = 0.16188 0.16188
#
# Static dielectric constant tensor:
#      x y z
#    x 1.394170 0.000000 0.000000 
#    y 0.000000 1.394170 0.000000 
#    z 0.000000 0.000000 1.626020 
# 
# From -- ./inp_files/4803.got.cif
#   From: 2010.05.17/outbox.cif.g08.bks.cpg/sg84_3_cif.got.tgz:4803.got - 2010.06.03 18:57:40.
