data_PCOD9544884
_publ_section_title
;
Structure prediction by ZEFSAII (Michael W. Deem and Ramdas Pophale) SiO2 
 PCOD9544884
Probable space group: P 42/N
;
_chemical_formula_sum "Si O2"
_cell_formula_units_Z 32
_cell_length_a 12.776543
_cell_length_b 12.776543
_cell_length_c 7.127336
_cell_angle_alpha 90.000000
_cell_angle_beta 90.000000
_cell_angle_gamma 90.000000
_cell_volume 1163.466692
_symmetry_space_group_name_H-M "P 42/N"
_symmetry_group_IT_number 86
_space_group.IT_coordinate_system_code '2'
_symmetry_cell_setting 'tetragonal'
loop_
_space_group_symop_operation_xyz
x,y,z
-y,1/2+x,1/2+z
1/2-x,1/2-y,z
1/2+y,-x,1/2+z
-x,-y,-z
y,1/2-x,1/2-z
1/2+x,1/2+y,-z
1/2-y,x,1/2-z
loop_
_atom_site_type_symbol
_atom_site_label
_atom_site_fract_x
_atom_site_fract_y
_atom_site_fract_z
Si Si1 0.287493 0.632522 0.250408
Si Si2 0.365029 0.338737 0.355557
Si Si3 0.550173 0.431059 0.165147
Si Si4 0.490897 0.739376 0.375855
O O1 0.250000 0.750000 0.197517
O O2 0.190222 0.588248 0.375198
O O3 0.405356 0.652801 0.320232
O O4 0.283231 0.557543 0.071983
O O5 0.375799 0.250867 0.188683
O O6 0.456915 0.419176 0.313039
O O7 0.394394 0.294408 0.559202
O O8 0.500000 0.500000 0.000000
O O9 0.655499 0.484707 0.246392
#
# Coordination Sequence:
#
# PCOD9544884 Si02
#       4
#     8   8   8   8
#     4   9  18  31  55  82 115 147 193 240 296 342
#     4  10  20  35  58  84 116 154 195 244 306 367
#     4  10  18  32  54  81 112 146 194 237 293 348
#     4  10  19  35  57  86 114 154 193 248 296 356
#
# _framework density 27.504011999999999
#
# number of rings (size 3 to 8) (size 9 to 14) (size 15 to 20)
#    0.000    2.250    2.500    2.250    0.000    0.000 
#    0.000    5.000   11.000    0.000    0.000    3.500 
#    0.000    0.000    0.000    0.000    0.000    0.000 
#
# Total GULP energy -178620.619706 kJ/mol
# GULP energy per Si atom -5581.894366 kJ/mol
# Density = 2.744141 g / cm^3
# Si number density = 27.504012 Si / 1000 Ang^3
#
#
#
# Elastic Constant Matrix: (Units=GPa)
#
#
# Indices 1 2 3 4 5 6 
#
# 1 132.7713 13.6738 11.6533 0.0000 0.0000 13.7101
# 2 13.6738 132.7713 11.6533 0.0000 0.0000 -13.7101
# 3 11.6533 11.6533 28.7882 0.0000 0.0000 0.0000
# 4 0.0000 0.0000 0.0000 39.7547 0.0000 0.0000
# 5 0.0000 0.0000 0.0000 0.0000 39.7547 0.0000
# 6 13.7101 -13.7101 0.0000 0.0000 0.0000 47.4542
#
#
#
# Elastic Compliance Matrix: (Units=1/GPa)
#
#
# Indices 1 2 3 4 5 6 
#
# 1 0.008147 -0.000848 -0.002954 0.000000 0.000000 -0.002599
# 2 -0.000848 0.008147 -0.002954 0.000000 0.000000 0.002599
# 3 -0.002954 -0.002954 0.037128 0.000000 0.000000 0.000000
# 4 0.000000 0.000000 0.000000 0.025154 0.000000 0.000000
# 5 0.000000 0.000000 0.000000 0.000000 0.025154 0.000000
# 6 -0.002599 0.002599 0.000000 0.000000 0.000000 0.022575
#
#
# Mechanical properties :
#
#
# Convention : Reuss Voigt Hill
#
# Bulk Modulus (GPa) = 25.05772 40.92130 32.98951
# Shear Modulus (GPa) = 32.65383 42.54943 37.60163
#
# Velocity S-wave (km/s) = 3.44937 3.93749 3.70149
# Velocity P-wave (km/s) = 4.99946 5.96510 5.50350
#
# Compressibility (1/GPa) = 0.03990786
#
# Stress axis : x y z
#
# Youngs Moduli (GPa) = 122.74847 122.74847 26.93361
#
# Poissons Ratio (x) = 0.10410 0.07957
# Poissons Ratio (y) = 0.10410 0.07957
# Poissons Ratio (z) = 0.36266 0.36266
#
# Static dielectric constant tensor:
#      x y z
#    x 2.288290 0.000000 0.000000 
#    y 0.000000 2.288290 0.000000 
#    z 0.000000 0.000000 2.261770 
# 
# From -- ./inp_files/928.got.cif
#   From: 2010.05.17/outbox.cif.g08.bks.cpg/sg86_1_cif.got.tgz:928.got - 2010.06.03 19:03:11.
