data_PCOD9544151
_publ_section_title
;
Structure prediction by ZEFSAII (Michael W. Deem and Ramdas Pophale) SiO2 
 PCOD9544151
Probable space group: P 42/M
;
_chemical_formula_sum "Si O2"
_cell_formula_units_Z 48
_cell_length_a 15.449738
_cell_length_b 15.449738
_cell_length_c 10.961354
_cell_angle_alpha 90.000000
_cell_angle_beta 90.000000
_cell_angle_gamma 90.000000
_cell_volume 2616.413863
_symmetry_space_group_name_H-M "P 42/M"
_symmetry_group_IT_number 84
_symmetry_cell_setting 'tetragonal'
loop_
_space_group_symop_operation_xyz
x,y,z
-y,x,1/2+z
-x,-y,z
y,-x,1/2+z
-x,-y,-z
y,-x,1/2-z
x,y,-z
-y,x,1/2-z
loop_
_atom_site_type_symbol
_atom_site_label
_atom_site_fract_x
_atom_site_fract_y
_atom_site_fract_z
Si Si1 0.202797 0.796434 0.364719
Si Si2 0.452606 0.751866 0.237210
Si Si3 0.136086 0.301785 0.364970
Si Si4 0.371707 0.326677 0.863449
Si Si5 0.663402 0.934332 0.137032
Si Si6 0.096129 0.541375 0.863572
O O1 0.214229 0.836991 0.500000
O O2 0.237655 0.847996 0.248623
O O3 0.259200 0.708085 0.364718
O O4 0.105920 0.759458 0.352949
O O5 0.384090 0.800464 0.150471
O O6 0.405200 0.666370 0.285847
O O7 0.542872 0.720649 0.182486
O O8 0.473930 0.825784 0.338618
O O9 0.150071 0.263092 0.500000
O O10 0.037668 0.334247 0.358269
O O11 0.387412 0.357528 0.000000
O O12 0.607399 0.901673 0.250564
O O13 0.630477 0.909603 0.000000
O O14 0.000000 0.500000 0.859757
O O15 0.107478 0.578691 0.000000
#
# Coordination Sequence:
#
# PCOD9544151 Si02
#       6
#     8   8   8   8   8   8
#     4   9  19  36  57  80 113 149 181 223 283 339
#     4  11  21  38  55  78 111 148 190 235 283 333
#     4  10  21  35  57  86 114 142 185 234 275 329
#     4  10  21  37  56  75 104 147 190 232 284 337
#     4  10  20  36  58  85 112 147 185 228 281 338
#     4  11  22  35  54  84 116 145 181 234 290 337
#
# _framework density 18.345721999999999
#
# number of rings (size 3 to 8) (size 9 to 14) (size 15 to 20)
#    0.000    1.833    3.333    1.000    0.000    3.333 
#    0.000    3.333    0.000    0.500    0.000    3.500 
#    0.000    0.000    0.000    0.000    0.000    0.000 
#
# Total GULP energy -267449.512512 kJ/mol
# GULP energy per Si atom -5571.864844 kJ/mol
# Density = 1.830397 g / cm^3
# Si number density = 18.345722 Si / 1000 Ang^3
#
#
#
# Elastic Constant Matrix: (Units=GPa)
#
#
# Indices 1 2 3 4 5 6 
#
# 1 29.7413 10.6368 30.4798 0.0000 0.0000 5.2356
# 2 10.6368 29.7413 30.4798 0.0000 0.0000 -5.2356
# 3 30.4798 30.4798 155.9359 0.0000 0.0000 0.0000
# 4 0.0000 0.0000 0.0000 21.5848 0.0000 0.0000
# 5 0.0000 0.0000 0.0000 0.0000 21.5848 0.0000
# 6 5.2356 -5.2356 0.0000 0.0000 0.0000 13.3720
#
#
#
# Elastic Compliance Matrix: (Units=1/GPa)
#
#
# Indices 1 2 3 4 5 6 
#
# 1 0.050890 -0.015756 -0.006867 0.000000 0.000000 -0.026094
# 2 -0.015756 0.050890 -0.006867 0.000000 0.000000 0.026094
# 3 -0.006867 -0.006867 0.009098 0.000000 0.000000 0.000000
# 4 0.000000 0.000000 0.000000 0.046329 0.000000 0.000000
# 5 0.000000 0.000000 0.000000 0.000000 0.046329 0.000000
# 6 -0.026094 0.026094 0.000000 0.000000 0.000000 0.095217
#
#
# Mechanical properties :
#
#
# Convention : Reuss Voigt Hill
#
# Bulk Modulus (GPa) = 19.26949 39.84569 29.55759
# Shear Modulus (GPa) = 13.33221 20.89649 17.11435
#
# Velocity S-wave (km/s) = 2.69870 3.37863 3.05762
# Velocity P-wave (km/s) = 4.49855 6.08166 5.34900
#
# Compressibility (1/GPa) = 0.05189551
#
# Stress axis : x y z
#
# Youngs Moduli (GPa) = 19.65028 19.65028 109.92001
#
# Poissons Ratio (x) = 0.30961 0.75486
# Poissons Ratio (y) = 0.30961 0.75486
# Poissons Ratio (z) = 0.13495 0.13495
#
# Static dielectric constant tensor:
#      x y z
#    x 1.650600 0.000000 0.000000 
#    y 0.000000 1.650600 0.000000 
#    z 0.000000 0.000000 1.670640 
# 
# From -- ./inp_files/2189.got.cif
#   From: 2010.05.17/outbox.cif.g08.bks.cpg/sg84_2_cif.got.tgz:2189.got - 2010.06.03 18:57:40.
