data_PCOD9544435
_publ_section_title
;
Structure prediction by ZEFSAII (Michael W. Deem and Ramdas Pophale) SiO2 
 PCOD9544435
Probable space group: P 42/M
;
_chemical_formula_sum "Si O2"
_cell_formula_units_Z 22
_cell_length_a 5.489027
_cell_length_b 5.489027
_cell_length_c 30.706487
_cell_angle_alpha 90.000000
_cell_angle_beta 90.000000
_cell_angle_gamma 90.000000
_cell_volume 925.168564
_symmetry_space_group_name_H-M "P 42/M"
_symmetry_group_IT_number 84
_symmetry_cell_setting 'tetragonal'
loop_
_space_group_symop_operation_xyz
x,y,z
-y,x,1/2+z
-x,-y,z
y,-x,1/2+z
-x,-y,-z
y,-x,1/2-z
x,y,-z
-y,x,1/2-z
loop_
_atom_site_type_symbol
_atom_site_label
_atom_site_fract_x
_atom_site_fract_y
_atom_site_fract_z
Si Si1 0.000000 0.000000 0.250000
Si Si2 0.354199 0.248406 0.500000
Si Si3 0.648519 0.261339 0.188490
Si Si4 0.751827 0.144043 0.903348
O O1 0.202247 0.123323 0.280754
O O2 0.500000 0.500000 0.500000
O O3 0.224631 0.240016 0.453404
O O4 0.500000 0.000000 0.500000
O O5 0.500000 0.500000 0.202255
O O6 0.731455 0.317875 0.138609
O O7 0.500000 0.000000 0.189007
O O8 0.500000 0.000000 0.901314
O O9 0.000000 0.000000 0.895330
#
# Coordination Sequence:
#
# PCOD9544435 Si02
#       4
#     2   4   8   8
#     4  12  28  52  80 118 160 212 284 336 428 482
#     4  12  24  40  70 110 154 206 257 319 392 479
#     4  11  28  50  80 115 161 209 270 336 409 485
#     4  11  23  47  72 110 151 208 260 325 394 477
#
# _framework density 23.779447999999999
#
# number of rings (size 3 to 8) (size 9 to 14) (size 15 to 20)
#    0.000    0.727    1.818    4.364    5.091    2.909 
#    0.000    0.000    0.000    0.000    0.000    0.000 
#    0.000    0.000    0.000    0.000    0.000    0.000 
#
# Total GULP energy -122946.282587 kJ/mol
# GULP energy per Si atom -5588.467390 kJ/mol
# Density = 2.372533 g / cm^3
# Si number density = 23.779448 Si / 1000 Ang^3
#
#
#
# Elastic Constant Matrix: (Units=GPa)
#
#
# Indices 1 2 3 4 5 6 
#
# 1 138.0720 57.2163 44.4207 0.0000 0.0000 4.6990
# 2 57.2163 138.0720 44.4207 0.0000 0.0000 -4.6990
# 3 44.4207 44.4207 230.9314 0.0000 0.0000 0.0000
# 4 0.0000 0.0000 0.0000 -35.1659 0.0000 0.0000
# 5 0.0000 0.0000 0.0000 0.0000 -35.1659 0.0000
# 6 4.6990 -4.6990 0.0000 0.0000 0.0000 60.5873
#
#
#
# Elastic Compliance Matrix: (Units=1/GPa)
#
#
# Indices 1 2 3 4 5 6 
#
# 1 0.009046 -0.003434 -0.001079 0.000000 0.000000 -0.000968
# 2 -0.003434 0.009046 -0.001079 0.000000 0.000000 0.000968
# 3 -0.001079 -0.001079 0.004746 0.000000 0.000000 0.000000
# 4 0.000000 0.000000 0.000000 -0.028437 0.000000 0.000000
# 5 0.000000 0.000000 0.000000 0.000000 -0.028437 0.000000
# 6 -0.000968 0.000968 0.000000 0.000000 0.000000 0.016655
#
#
# Mechanical properties :
#
#
# Convention : Reuss Voigt Hill
#
# Bulk Modulus (GPa) = 85.82801 88.79899 87.31350
# Shear Modulus (GPa) = -2163.95879 22.11896 -1070.91991
#
# Velocity S-wave (km/s) = -30.19913 3.05318 -21.24460
# Velocity P-wave (km/s) = 34.34839 7.06067 23.76930
#
# Compressibility (1/GPa) = 0.01165121
#
# Stress axis : x y z
#
# Youngs Moduli (GPa) = 110.54662 110.54662 210.72336
#
# Poissons Ratio (x) = 0.37965 0.22746
# Poissons Ratio (y) = 0.37965 0.22746
# Poissons Ratio (z) = 0.11933 0.11933
#
# Static dielectric constant tensor:
#      x y z
#    x 1.910210 0.000000 0.000000 
#    y 0.000000 1.910210 0.000000 
#    z 0.000000 0.000000 2.440790 
# 
# From -- ./inp_files/5534.got.cif
#   From: 2010.05.17/outbox.cif.g08.bks.cpg/sg84_3_cif.got.tgz:5534.got - 2010.06.03 18:57:40.
