data_PCOD9544760
_publ_section_title
;
Structure prediction by ZEFSAII (Michael W. Deem and Ramdas Pophale) SiO2 
 PCOD9544760
Probable space group: P 4/N
;
_chemical_formula_sum "Si O2"
_cell_formula_units_Z 50
_cell_length_a 8.797910
_cell_length_b 8.797910
_cell_length_c 33.332473
_cell_angle_alpha 90.000000
_cell_angle_beta 90.000000
_cell_angle_gamma 90.000000
_cell_volume 2580.040753
_symmetry_space_group_name_H-M "P 4/N"
_symmetry_group_IT_number 85
_symmetry_cell_setting 'tetragonal'
loop_
_space_group_symop_operation_xyz
x,y,z
1/2-y,x,z
1/2-x,1/2-y,z
y,1/2-x,z
-x,-y,-z
1/2+y,-x,-z
1/2+x,1/2+y,-z
-y,1/2+x,-z
loop_
_atom_site_type_symbol
_atom_site_label
_atom_site_fract_x
_atom_site_fract_y
_atom_site_fract_z
Si Si1 0.879456 0.973375 0.292009
Si Si2 0.560760 0.581708 0.539617
Si Si3 0.822865 0.994968 0.058978
Si Si4 0.250000 0.750000 0.000000
Si Si5 0.043962 0.400641 0.617982
Si Si6 0.163938 0.009272 0.848483
Si Si7 0.152863 0.486866 0.219028
O O1 0.697224 0.949150 0.287156
O O2 0.927461 0.019078 0.337237
O O3 0.935619 0.094626 0.259863
O O4 0.738083 0.543858 0.538871
O O5 0.500000 0.500000 0.500000
O O6 0.478290 0.533395 0.580410
O O7 0.650765 0.931612 0.053508
O O8 0.845710 0.042713 0.105289
O O9 0.840350 0.132968 0.028458
O O10 0.046556 0.218610 0.615443
O O11 0.337348 0.063591 0.842599
O O12 0.099282 0.890012 0.817165
O O13 0.058812 0.328799 0.216890
#
# Coordination Sequence:
#
# PCOD9544760 Si02
#       7
#     8   8   8   2   8   8   8
#     4   9  19  37  60  84 110 144 186 226 268 325
#     4  11  24  39  56  81 112 146 186 232 280 331
#     4   9  20  37  55  81 114 145 183 228 272 326
#     4  12  20  32  60  88 112 148 184 224 280 332
#     4   9  19  37  60  85 112 142 181 229 275 325
#     4   9  19  37  59  79 103 140 185 228 269 322
#     4  11  24  37  51  79 116 146 178 226 277 324
#
# _framework density 19.379536999999999
#
# number of rings (size 3 to 8) (size 9 to 14) (size 15 to 20)
#    0.000    2.240    0.000    4.320    0.000   11.200 
#    0.000    4.800    0.000    1.920    0.000    0.000 
#    0.000    0.000    0.000    0.000    0.000    0.000 
#
# Total GULP energy -279128.267418 kJ/mol
# GULP energy per Si atom -5582.565348 kJ/mol
# Density = 1.933543 g / cm^3
# Si number density = 19.379537 Si / 1000 Ang^3
#
#
#
# Elastic Constant Matrix: (Units=GPa)
#
#
# Indices 1 2 3 4 5 6 
#
# 1 12.3813 48.0315 54.3605 0.0000 0.0000 1.0458
# 2 48.0315 12.3813 54.3605 0.0000 0.0000 -1.0458
# 3 54.3605 54.3605 145.4385 0.0000 0.0000 0.0000
# 4 0.0000 0.0000 0.0000 27.3590 0.0000 0.0000
# 5 0.0000 0.0000 0.0000 0.0000 27.3590 0.0000
# 6 1.0458 -1.0458 0.0000 0.0000 0.0000 29.4465
#
#
#
# Elastic Compliance Matrix: (Units=1/GPa)
#
#
# Indices 1 2 3 4 5 6 
#
# 1 0.011287 0.039279 -0.018900 0.000000 0.000000 0.000994
# 2 0.039279 0.011287 -0.018900 0.000000 0.000000 -0.000994
# 3 -0.018900 -0.018900 0.021004 0.000000 0.000000 0.000000
# 4 0.000000 0.000000 0.000000 0.036551 0.000000 0.000000
# 5 0.000000 0.000000 0.000000 0.000000 0.036551 0.000000
# 6 0.000994 -0.000994 0.000000 0.000000 0.000000 0.033889
#
#
# Mechanical properties :
#
#
# Convention : Reuss Voigt Hill
#
# Bulk Modulus (GPa) = 21.48869 53.74513 37.61691
# Shear Modulus (GPa) = 30.65160 17.72950 24.19055
#
# Velocity S-wave (km/s) = 3.98131 3.02794 3.53689
# Velocity P-wave (km/s) = 5.67863 6.32595 6.01101
#
# Compressibility (1/GPa) = 0.04653611
#
# Stress axis : x y z
#
# Youngs Moduli (GPa) = 88.59763 88.59763 47.60932
#
# Poissons Ratio (x) = -3.48003 0.89982
# Poissons Ratio (y) = -3.48003 0.89982
# Poissons Ratio (z) = 1.67450 1.67450
#
# Static dielectric constant tensor:
#      x y z
#    x 1.779560 0.000000 0.000000 
#    y 0.000000 1.779560 0.000000 
#    z 0.000000 0.000000 1.678310 
# 
# From -- ./inp_files/2480.got.cif
#   From: 2010.05.17/outbox.cif.g08.bks.cpg/sg85_cif.got.tgz:2480.got - 2010.06.03 19:01:16.
