data_PCOD9544184
_publ_section_title
;
Structure prediction by ZEFSAII (Michael W. Deem and Ramdas Pophale) SiO2 
 PCOD9544184
Probable space group: P 42/M
;
_chemical_formula_sum "Si O2"
_cell_formula_units_Z 32
_cell_length_a 9.905322
_cell_length_b 9.905322
_cell_length_c 15.500394
_cell_angle_alpha 90.000000
_cell_angle_beta 90.000000
_cell_angle_gamma 90.000000
_cell_volume 1520.827418
_symmetry_space_group_name_H-M "P 42/M"
_symmetry_group_IT_number 84
_symmetry_cell_setting 'tetragonal'
loop_
_space_group_symop_operation_xyz
x,y,z
-y,x,1/2+z
-x,-y,z
y,-x,1/2+z
-x,-y,-z
y,-x,1/2-z
x,y,-z
-y,x,1/2-z
loop_
_atom_site_type_symbol
_atom_site_label
_atom_site_fract_x
_atom_site_fract_y
_atom_site_fract_z
Si Si1 0.684151 0.553725 0.713988
Si Si2 0.840594 0.028889 0.595415
Si Si3 0.030675 0.354022 0.758354
Si Si4 0.836141 0.348823 0.597567
O O1 0.646173 0.448194 0.791013
O O2 0.810661 0.645380 0.738510
O O3 0.726963 0.454448 0.636101
O O4 0.803695 0.974154 0.500000
O O5 0.760760 0.977531 0.678379
O O6 0.804891 0.188813 0.594244
O O7 0.000000 0.000000 0.605765
O O8 0.000000 0.500000 0.799391
O O9 0.955928 0.353786 0.666940
O O10 0.871543 0.388187 0.500000
#
# Coordination Sequence:
#
# PCOD9544184 Si02
#       4
#     8   8   8   8
#     4  10  20  38  61  86 122 165 211 259 322 378
#     4  10  22  39  61  93 130 171 217 269 331 397
#     4  10  22  37  63  92 126 171 211 270 328 384
#     4  10  22  39  62  92 127 165 216 269 319 389
#
# _framework density 21.041177000000001
#
# number of rings (size 3 to 8) (size 9 to 14) (size 15 to 20)
#    0.000    2.000    2.500    0.000    3.500    5.000 
#    0.000    3.750    0.000    1.500    0.000    0.000 
#    0.000    0.000    0.000    0.000    0.000    0.000 
#
# Total GULP energy -178351.516052 kJ/mol
# GULP energy per Si atom -5573.484877 kJ/mol
# Density = 2.099329 g / cm^3
# Si number density = 21.041177 Si / 1000 Ang^3
#
#
#
# Elastic Constant Matrix: (Units=GPa)
#
#
# Indices 1 2 3 4 5 6 
#
# 1 67.2285 -3.1473 57.0309 0.0000 0.0000 -0.9772
# 2 -3.1473 67.2285 57.0309 0.0000 0.0000 0.9772
# 3 57.0309 57.0309 175.9215 0.0000 0.0000 0.0000
# 4 0.0000 0.0000 0.0000 28.2922 0.0000 0.0000
# 5 0.0000 0.0000 0.0000 0.0000 28.2922 0.0000
# 6 -0.9772 0.9772 0.0000 0.0000 0.0000 24.7689
#
#
#
# Elastic Compliance Matrix: (Units=1/GPa)
#
#
# Indices 1 2 3 4 5 6 
#
# 1 0.025560 0.011335 -0.011961 0.000000 0.000000 0.000561
# 2 0.011335 0.025560 -0.011961 0.000000 0.000000 -0.000561
# 3 -0.011961 -0.011961 0.013439 0.000000 0.000000 0.000000
# 4 0.000000 0.000000 0.000000 0.035345 0.000000 0.000000
# 5 0.000000 0.000000 0.000000 0.000000 0.035345 0.000000
# 6 0.000561 -0.000561 0.000000 0.000000 0.000000 0.040417
#
#
# Mechanical properties :
#
#
# Convention : Reuss Voigt Hill
#
# Bulk Modulus (GPa) = 25.38971 59.13415 42.26193
# Shear Modulus (GPa) = 23.36788 29.56827 26.46807
#
# Velocity S-wave (km/s) = 3.33615 3.75274 3.55056
# Velocity P-wave (km/s) = 5.18968 6.85146 6.07763
#
# Compressibility (1/GPa) = 0.03938603
#
# Stress axis : x y z
#
# Youngs Moduli (GPa) = 39.12383 39.12383 74.40882
#
# Poissons Ratio (x) = -0.44346 0.88998
# Poissons Ratio (y) = -0.44346 0.88998
# Poissons Ratio (z) = 0.46795 0.46795
#
# Static dielectric constant tensor:
#      x y z
#    x 1.814680 0.000000 0.000000 
#    y 0.000000 1.814680 0.000000 
#    z 0.000000 0.000000 1.754480 
# 
# From -- ./inp_files/2751.got.cif
#   From: 2010.05.17/outbox.cif.g08.bks.cpg/sg84_2_cif.got.tgz:2751.got - 2010.06.03 18:57:40.
