data_PCOD9544925
_publ_section_title
;
Structure prediction by ZEFSAII (Michael W. Deem and Ramdas Pophale) SiO2 
 PCOD9544925
Probable space group: P 42/N
;
_chemical_formula_sum "Si O2"
_cell_formula_units_Z 40
_cell_length_a 9.080742
_cell_length_b 9.080742
_cell_length_c 25.409071
_cell_angle_alpha 90.000000
_cell_angle_beta 90.000000
_cell_angle_gamma 90.000000
_cell_volume 2095.228825
_symmetry_space_group_name_H-M "P 42/N"
_symmetry_group_IT_number 86
_space_group.IT_coordinate_system_code '2'
_symmetry_cell_setting 'tetragonal'
loop_
_space_group_symop_operation_xyz
x,y,z
-y,1/2+x,1/2+z
1/2-x,1/2-y,z
1/2+y,-x,1/2+z
-x,-y,-z
y,1/2-x,1/2-z
1/2+x,1/2+y,-z
1/2-y,x,1/2-z
loop_
_atom_site_type_symbol
_atom_site_label
_atom_site_fract_x
_atom_site_fract_y
_atom_site_fract_z
Si Si1 0.715565 0.920102 0.957575
Si Si2 0.070647 0.088257 0.571825
Si Si3 0.418468 0.726581 0.211828
Si Si4 0.652787 0.099712 0.398640
Si Si5 0.333612 0.092771 0.817713
O O1 0.750000 0.750000 0.948107
O O2 0.559400 0.971833 0.932322
O O3 0.848954 0.018137 0.934634
O O4 0.684449 0.944686 0.019531
O O5 0.033197 0.182705 0.623662
O O6 0.239252 0.026035 0.577982
O O7 0.250000 0.750000 0.222578
O O8 0.438279 0.614207 0.162472
O O9 0.498022 0.702215 0.266999
O O10 0.493203 0.871380 0.187364
O O11 0.750000 0.250000 0.394981
O O12 0.250000 0.250000 0.813918
#
# Coordination Sequence:
#
# PCOD9544925 Si02
#       5
#     8   8   8   8   8
#     4  10  19  36  55  81 117 154 189 237 291 353
#     4   9  20  35  57  81 111 150 199 236 282 343
#     4  10  19  35  59  82 114 147 188 239 295 343
#     4   8  17  34  55  74 110 156 184 226 298 346
#     4  11  19  38  62  87 107 148 202 245 279 341
#
# _framework density 19.090994999999999
#
# number of rings (size 3 to 8) (size 9 to 14) (size 15 to 20)
#    0.000    2.400    2.000    1.800    0.000    0.800 
#    3.600    5.000    0.000    0.000    0.000    0.000 
#    0.000    0.000    0.000    0.000    0.000    0.000 
#
# Total GULP energy -222803.053938 kJ/mol
# GULP energy per Si atom -5570.076348 kJ/mol
# Density = 1.904754 g / cm^3
# Si number density = 19.090995 Si / 1000 Ang^3
#
#
#
# Elastic Constant Matrix: (Units=GPa)
#
#
# Indices 1 2 3 4 5 6 
#
# 1 63.0710 14.9248 46.9921 0.0000 0.0000 7.9146
# 2 14.9248 63.0710 46.9921 0.0000 0.0000 -7.9146
# 3 46.9921 46.9921 190.8016 0.0000 0.0000 0.0000
# 4 0.0000 0.0000 0.0000 26.1075 0.0000 0.0000
# 5 0.0000 0.0000 0.0000 0.0000 26.1075 0.0000
# 6 7.9146 -7.9146 0.0000 0.0000 0.0000 19.1266
#
#
#
# Elastic Compliance Matrix: (Units=1/GPa)
#
#
# Indices 1 2 3 4 5 6 
#
# 1 0.021136 -0.002904 -0.004490 0.000000 0.000000 -0.009948
# 2 -0.002904 0.021136 -0.004490 0.000000 0.000000 0.009948
# 3 -0.004490 -0.004490 0.007453 0.000000 0.000000 0.000000
# 4 0.000000 0.000000 0.000000 0.038303 0.000000 0.000000
# 5 0.000000 0.000000 0.000000 0.000000 0.038303 0.000000
# 6 -0.009948 0.009948 0.000000 0.000000 0.000000 0.060516
#
#
# Mechanical properties :
#
#
# Convention : Reuss Voigt Hill
#
# Bulk Modulus (GPa) = 38.52738 59.41797 48.97268
# Shear Modulus (GPa) = 22.80290 28.13728 25.47009
#
# Velocity S-wave (km/s) = 3.45981 3.84324 3.65655
# Velocity P-wave (km/s) = 6.01540 7.13338 6.59811
#
# Compressibility (1/GPa) = 0.02595557
#
# Stress axis : x y z
#
# Youngs Moduli (GPa) = 47.31178 47.31178 134.17657
#
# Poissons Ratio (x) = 0.13741 0.60249
# Poissons Ratio (y) = 0.13741 0.60249
# Poissons Ratio (z) = 0.21244 0.21244
#
# Static dielectric constant tensor:
#      x y z
#    x 1.694940 0.000000 0.000000 
#    y 0.000000 1.694940 0.000000 
#    z 0.000000 0.000000 1.756450 
# 
# From -- ./inp_files/4815.got.cif
#   From: 2010.05.17/outbox.cif.g08.bks.cpg/sg86_3_cif.got.tgz:4815.got - 2010.06.03 19:03:11.
