data_PCOD9544200
_publ_section_title
;
Structure prediction by ZEFSAII (Michael W. Deem and Ramdas Pophale) SiO2 
 PCOD9544200
Probable space group: P 42/M
;
_chemical_formula_sum "Si O2"
_cell_formula_units_Z 34
_cell_length_a 11.701234
_cell_length_b 11.701234
_cell_length_c 11.001223
_cell_angle_alpha 90.000000
_cell_angle_beta 90.000000
_cell_angle_gamma 90.000000
_cell_volume 1506.275100
_symmetry_space_group_name_H-M "P 42/M"
_symmetry_group_IT_number 84
_symmetry_cell_setting 'tetragonal'
loop_
_space_group_symop_operation_xyz
x,y,z
-y,x,1/2+z
-x,-y,z
y,-x,1/2+z
-x,-y,-z
y,-x,1/2-z
x,y,-z
-y,x,1/2-z
loop_
_atom_site_type_symbol
_atom_site_label
_atom_site_fract_x
_atom_site_fract_y
_atom_site_fract_z
Si Si1 0.182906 0.498900 0.500000
Si Si2 0.844261 0.301173 0.142656
Si Si3 0.475934 0.319099 0.759745
Si Si4 0.000000 0.000000 0.250000
Si Si5 0.010627 0.695082 0.500000
Si Si6 0.230779 0.935332 0.744201
O O1 0.255991 0.482362 0.380014
O O2 0.083176 0.406041 0.500000
O O3 0.129708 0.626596 0.500000
O O4 0.772324 0.413804 0.174710
O O5 0.785786 0.199340 0.226381
O O6 0.979480 0.319429 0.176870
O O7 0.833068 0.273193 0.000000
O O8 0.385005 0.416854 0.796599
O O9 0.975748 0.885059 0.177921
O O10 0.988208 0.765354 0.379402
#
# Coordination Sequence:
#
# PCOD9544200 Si02
#       6
#     4   8   8   2   4   8
#     4  11  24  43  68  96 122 178 220 278 329 394
#     4  11  23  43  66  96 135 179 220 280 336 394
#     4  11  26  43  67  97 131 173 227 274 334 398
#     4   8  20  34  56  92 134 156 206 252 332 382
#     4  11  20  39  70  90 131 164 225 268 324 396
#     4  10  20  40  62  97 127 175 216 266 326 400
#
# _framework density 22.572236
#
# number of rings (size 3 to 8) (size 9 to 14) (size 15 to 20)
#    0.000    1.412    3.529    1.412    3.294    1.412 
#   14.824    0.000    0.000    5.647    0.000    0.000 
#    0.000    0.000    0.000    0.000    0.000    0.000 
#
# Total GULP energy -189391.733608 kJ/mol
# GULP energy per Si atom -5570.345106 kJ/mol
# Density = 2.252086 g / cm^3
# Si number density = 22.572236 Si / 1000 Ang^3
#
#
#
# Elastic Constant Matrix: (Units=GPa)
#
#
# Indices 1 2 3 4 5 6 
#
# 1 57.7455 15.9091 25.9989 0.0000 0.0000 0.1884
# 2 15.9091 57.7455 25.9989 0.0000 0.0000 -0.1884
# 3 25.9989 25.9989 72.9824 0.0000 0.0000 0.0000
# 4 0.0000 0.0000 0.0000 -27.6832 0.0000 0.0000
# 5 0.0000 0.0000 0.0000 0.0000 -27.6832 0.0000
# 6 0.1884 -0.1884 0.0000 0.0000 0.0000 42.0288
#
#
#
# Elastic Compliance Matrix: (Units=1/GPa)
#
#
# Indices 1 2 3 4 5 6 
#
# 1 0.021021 -0.002883 -0.006462 0.000000 0.000000 -0.000107
# 2 -0.002883 0.021021 -0.006462 0.000000 0.000000 0.000107
# 3 -0.006462 -0.006462 0.018306 0.000000 0.000000 0.000000
# 4 0.000000 0.000000 0.000000 -0.036123 0.000000 0.000000
# 5 0.000000 0.000000 0.000000 0.000000 -0.036123 0.000000
# 6 -0.000107 0.000107 0.000000 0.000000 0.000000 0.023794
#
#
# Mechanical properties :
#
#
# Convention : Reuss Voigt Hill
#
# Bulk Modulus (GPa) = 34.79910 36.03191 35.41550
# Shear Modulus (GPa) = 94.18646 5.37026 49.77836
#
# Velocity S-wave (km/s) = 6.46663 1.54412 4.70115
# Velocity P-wave (km/s) = 8.43840 4.37912 6.72247
#
# Compressibility (1/GPa) = 0.02873638
#
# Stress axis : x y z
#
# Youngs Moduli (GPa) = 47.57126 47.57126 54.62793
#
# Poissons Ratio (x) = 0.13712 0.35298
# Poissons Ratio (y) = 0.13712 0.35298
# Poissons Ratio (z) = 0.30739 0.30739
#
# Static dielectric constant tensor:
#      x y z
#    x 1.920970 0.000000 0.000000 
#    y 0.000000 1.920970 0.000000 
#    z 0.000000 0.000000 1.784070 
# 
# From -- ./inp_files/1986.got.cif
#   From: 2010.05.17/outbox.cif.g08.bks.cpg/sg84_1_cif.got.tgz:1986.got - 2010.06.03 18:57:40.
