data_PCOD9544422
_publ_section_title
;
Structure prediction by ZEFSAII (Michael W. Deem and Ramdas Pophale) SiO2 
 PCOD9544422
Probable space group: P 42/M
;
_chemical_formula_sum "Si O2"
_cell_formula_units_Z 40
_cell_length_a 15.533680
_cell_length_b 15.533680
_cell_length_c 8.807104
_cell_angle_alpha 90.000000
_cell_angle_beta 90.000000
_cell_angle_gamma 90.000000
_cell_volume 2125.112047
_symmetry_space_group_name_H-M "P 42/M"
_symmetry_group_IT_number 84
_symmetry_cell_setting 'tetragonal'
loop_
_space_group_symop_operation_xyz
x,y,z
-y,x,1/2+z
-x,-y,z
y,-x,1/2+z
-x,-y,-z
y,-x,1/2-z
x,y,-z
-y,x,1/2-z
loop_
_atom_site_type_symbol
_atom_site_label
_atom_site_fract_x
_atom_site_fract_y
_atom_site_fract_z
Si Si1 0.808177 0.831200 0.182064
Si Si2 0.671198 0.695704 0.681695
Si Si3 0.431825 0.923169 0.324936
Si Si4 0.747102 0.510740 0.680618
Si Si5 0.975024 0.749572 0.317998
O O1 0.739713 0.761353 0.244125
O O2 0.901103 0.811703 0.253604
O O3 0.778342 0.928054 0.220010
O O4 0.812602 0.823357 0.000000
O O5 0.677787 0.704769 0.500000
O O6 0.694642 0.597180 0.721268
O O7 0.575371 0.716786 0.736557
O O8 0.418081 0.895936 0.500000
O O9 0.468654 0.844297 0.229315
O O10 0.342970 0.955281 0.254141
O O11 0.500000 0.000000 0.323213
O O12 0.741454 0.497783 0.500000
O O13 0.967510 0.744641 0.500000
#
# Coordination Sequence:
#
# PCOD9544422 Si02
#       5
#     8   8   8   8   8
#     4  11  24  42  66  94 128 171 215 266 324 384
#     4  11  24  42  65  94 129 169 215 268 322 382
#     4  11  23  39  63  95 127 165 214 266 321 380
#     4  11  24  41  64  93 127 170 214 264 322 381
#     4  11  24  41  63  93 128 168 214 265 321 384
#
# _framework density 18.822537000000001
#
# number of rings (size 3 to 8) (size 9 to 14) (size 15 to 20)
#    0.000    1.000    2.000    4.200    0.000   11.200 
#    0.000    4.000    0.000    0.000    0.000    0.000 
#    0.000    0.000    0.000    0.000    0.000    0.000 
#
# Total GULP energy -223750.364655 kJ/mol
# GULP energy per Si atom -5593.759116 kJ/mol
# Density = 1.877970 g / cm^3
# Si number density = 18.822537 Si / 1000 Ang^3
#
#
#
# Elastic Constant Matrix: (Units=GPa)
#
#
# Indices 1 2 3 4 5 6 
#
# 1 91.0608 19.2385 9.4361 0.0000 0.0000 -2.9682
# 2 19.2385 91.0608 9.4361 0.0000 0.0000 2.9682
# 3 9.4361 9.4361 20.2133 0.0000 0.0000 0.0000
# 4 0.0000 0.0000 0.0000 42.8899 0.0000 0.0000
# 5 0.0000 0.0000 0.0000 0.0000 42.8899 0.0000
# 6 -2.9682 2.9682 0.0000 0.0000 0.0000 34.8075
#
#
#
# Elastic Compliance Matrix: (Units=1/GPa)
#
#
# Indices 1 2 3 4 5 6 
#
# 1 0.011938 -0.002084 -0.004600 0.000000 0.000000 0.001196
# 2 -0.002084 0.011938 -0.004600 0.000000 0.000000 -0.001196
# 3 -0.004600 -0.004600 0.053767 0.000000 0.000000 0.000000
# 4 0.000000 0.000000 0.000000 0.023316 0.000000 0.000000
# 5 0.000000 0.000000 0.000000 0.000000 0.023316 0.000000
# 6 0.001196 -0.001196 0.000000 0.000000 0.000000 0.028933
#
#
# Mechanical properties :
#
#
# Convention : Reuss Voigt Hill
#
# Bulk Modulus (GPa) = 18.15727 30.95071 24.55399
# Shear Modulus (GPa) = 25.75560 35.06575 30.41068
#
# Velocity S-wave (km/s) = 3.70312 4.32089 4.02388
# Velocity P-wave (km/s) = 5.28693 6.43215 5.88745
#
# Compressibility (1/GPa) = 0.05507437
#
# Stress axis : x y z
#
# Youngs Moduli (GPa) = 83.76843 83.76843 18.59881
#
# Poissons Ratio (x) = 0.17461 0.08555
# Poissons Ratio (y) = 0.17461 0.08555
# Poissons Ratio (z) = 0.38531 0.38531
#
# Static dielectric constant tensor:
#      x y z
#    x 1.626890 0.000000 0.000000 
#    y 0.000000 1.626890 0.000000 
#    z 0.000000 0.000000 1.640400 
# 
# From -- ./inp_files/749.got.cif
#   From: 2010.05.17/outbox.cif.g08.bks.cpg/sg84_1_cif.got.tgz:749.got - 2010.06.03 18:57:40.
