data_PCOD9544648
_publ_section_title
;
Structure prediction by ZEFSAII (Michael W. Deem and Ramdas Pophale) SiO2 
 PCOD9544648
Probable space group: P 4/N
;
_chemical_formula_sum "Si O2"
_cell_formula_units_Z 40
_cell_length_a 16.161640
_cell_length_b 16.161640
_cell_length_c 6.427638
_cell_angle_alpha 90.000000
_cell_angle_beta 90.000000
_cell_angle_gamma 90.000000
_cell_volume 1678.890095
_symmetry_space_group_name_H-M "P 4/N"
_symmetry_group_IT_number 85
_symmetry_cell_setting 'tetragonal'
loop_
_space_group_symop_operation_xyz
x,y,z
1/2-y,x,z
1/2-x,1/2-y,z
y,1/2-x,z
-x,-y,-z
1/2+y,-x,-z
1/2+x,1/2+y,-z
-y,1/2+x,-z
loop_
_atom_site_type_symbol
_atom_site_label
_atom_site_fract_x
_atom_site_fract_y
_atom_site_fract_z
Si Si1 0.861090 0.323292 0.534956
Si Si2 0.167387 0.142135 0.507073
Si Si3 0.009462 0.321954 0.202981
Si Si4 0.461573 0.060372 0.816201
Si Si5 0.632094 0.037150 0.857448
O O1 0.853459 0.224812 0.570279
O O2 0.859392 0.371180 0.755851
O O3 0.938682 0.339851 0.379726
O O4 0.265163 0.138976 0.544763
O O5 0.159679 0.102676 0.280227
O O6 0.115184 0.083875 0.652212
O O7 0.004793 0.374459 0.991491
O O8 0.000677 0.222811 0.173856
O O9 0.396638 0.996349 0.916735
O O10 0.544904 0.014516 0.738975
#
# Coordination Sequence:
#
# PCOD9544648 Si02
#       5
#     8   8   8   8   8
#     4   9  19  38  62  90 126 169 215 264 327 405
#     4  11  24  43  66  94 129 175 226 278 340 401
#     4  11  22  41  65  93 126 173 216 269 336 407
#     4  11  23  41  61  95 130 167 221 276 336 397
#     4  10  22  41  60  95 130 166 221 270 333 398
#
# _framework density 23.825261999999999
#
# number of rings (size 3 to 8) (size 9 to 14) (size 15 to 20)
#    0.000    1.600    2.000    2.400    0.000    2.400 
#   14.400    2.000    0.000    0.000    0.000    0.000 
#    0.000    0.000    0.000    0.000    0.000    0.000 
#
# Total GULP energy -222857.596081 kJ/mol
# GULP energy per Si atom -5571.439902 kJ/mol
# Density = 2.377104 g / cm^3
# Si number density = 23.825262 Si / 1000 Ang^3
#
#
#
# Elastic Constant Matrix: (Units=GPa)
#
#
# Indices 1 2 3 4 5 6 
#
# 1 150.3061 12.0813 40.8390 0.0000 0.0000 0.6364
# 2 12.0813 150.3061 40.8390 0.0000 0.0000 -0.6364
# 3 40.8390 40.8390 41.4803 0.0000 0.0000 0.0000
# 4 0.0000 0.0000 0.0000 35.4449 0.0000 0.0000
# 5 0.0000 0.0000 0.0000 0.0000 35.4449 0.0000
# 6 0.6364 -0.6364 0.0000 0.0000 0.0000 37.1007
#
#
#
# Elastic Compliance Matrix: (Units=1/GPa)
#
#
# Indices 1 2 3 4 5 6 
#
# 1 0.009717 0.002482 -0.012011 0.000000 0.000000 -0.000124
# 2 0.002482 0.009717 -0.012011 0.000000 0.000000 0.000124
# 3 -0.012011 -0.012011 0.047758 0.000000 0.000000 0.000000
# 4 0.000000 0.000000 0.000000 0.028213 0.000000 0.000000
# 5 0.000000 0.000000 0.000000 0.000000 0.028213 0.000000
# 6 -0.000124 0.000124 0.000000 0.000000 0.000000 0.026958
#
#
# Mechanical properties :
#
#
# Convention : Reuss Voigt Hill
#
# Bulk Modulus (GPa) = 41.47027 58.84567 50.15797
# Shear Modulus (GPa) = 24.79012 38.15363 31.47188
#
# Velocity S-wave (km/s) = 3.22917 4.00608 3.63842
# Velocity P-wave (km/s) = 5.59886 6.79343 6.22487
#
# Compressibility (1/GPa) = 0.02411366
#
# Stress axis : x y z
#
# Youngs Moduli (GPa) = 102.90716 102.90716 20.93901
#
# Poissons Ratio (x) = -0.25539 0.25149
# Poissons Ratio (y) = -0.25539 0.25149
# Poissons Ratio (z) = 1.23598 1.23598
#
# Static dielectric constant tensor:
#      x y z
#    x 1.958000 0.000000 0.000000 
#    y 0.000000 1.958000 0.000000 
#    z 0.000000 0.000000 1.914140 
# 
# From -- ./inp_files/348.got.cif
#   From: 2010.05.17/outbox.cif.g08.bks.cpg/sg85_cif.got.tgz:348.got - 2010.06.03 19:01:16.
