data_PCOD9544092
_publ_section_title
;
Structure prediction by ZEFSAII (Michael W. Deem and Ramdas Pophale) SiO2 
 PCOD9544092
Probable space group: P 42/M
;
_chemical_formula_sum "Si O2"
_cell_formula_units_Z 32
_cell_length_a 14.045307
_cell_length_b 14.045307
_cell_length_c 8.633912
_cell_angle_alpha 90.000000
_cell_angle_beta 90.000000
_cell_angle_gamma 90.000000
_cell_volume 1703.217421
_symmetry_space_group_name_H-M "P 42/M"
_symmetry_group_IT_number 84
_symmetry_cell_setting 'tetragonal'
loop_
_space_group_symop_operation_xyz
x,y,z
-y,x,1/2+z
-x,-y,z
y,-x,1/2+z
-x,-y,-z
y,-x,1/2-z
x,y,-z
-y,x,1/2-z
loop_
_atom_site_type_symbol
_atom_site_label
_atom_site_fract_x
_atom_site_fract_y
_atom_site_fract_z
Si Si1 0.743873 0.246568 0.821702
Si Si2 0.385425 0.432644 0.329779
Si Si3 0.903439 0.610343 0.815067
Si Si4 0.594380 0.883659 0.814908
O O1 0.647376 0.307802 0.823074
O O2 0.705770 0.153178 0.733805
O O3 0.820536 0.317064 0.744557
O O4 0.771154 0.225646 0.000000
O O5 0.381561 0.513837 0.201540
O O6 0.382564 0.477716 0.500000
O O7 0.857798 0.509940 0.755235
O O8 0.007872 0.611941 0.738630
O O9 0.910760 0.604824 0.000000
O O10 0.587606 0.877031 0.000000
#
# Coordination Sequence:
#
# PCOD9544092 Si02
#       4
#     8   8   8   8
#     4  11  22  36  55  81 109 142 185 232 278 332
#     4  10  20  31  46  68 101 139 175 214 259 313
#     4  11  22  38  59  84 114 150 189 234 283 335
#     4  11  22  38  59  84 114 150 189 234 283 335
#
# _framework density 18.787970999999999
#
# number of rings (size 3 to 8) (size 9 to 14) (size 15 to 20)
#    0.000    1.250    0.000    9.750    0.000    8.000 
#    0.000    0.000    0.000    0.750    0.000    5.250 
#    0.000    0.000    0.000    0.000    0.000    0.000 
#
# Total GULP energy -178611.607881 kJ/mol
# GULP energy per Si atom -5581.612746 kJ/mol
# Density = 1.874521 g / cm^3
# Si number density = 18.787971 Si / 1000 Ang^3
#
#
#
# Elastic Constant Matrix: (Units=GPa)
#
#
# Indices 1 2 3 4 5 6 
#
# 1 58.3595 40.8066 16.6810 0.0000 0.0000 -0.0219
# 2 40.8066 58.3595 16.6810 0.0000 0.0000 0.0219
# 3 16.6810 16.6810 119.7518 0.0000 0.0000 0.0000
# 4 0.0000 0.0000 0.0000 23.1245 0.0000 0.0000
# 5 0.0000 0.0000 0.0000 0.0000 23.1245 0.0000
# 6 -0.0219 0.0219 0.0000 0.0000 0.0000 38.3573
#
#
#
# Elastic Compliance Matrix: (Units=1/GPa)
#
#
# Indices 1 2 3 4 5 6 
#
# 1 0.033775 -0.023195 -0.001474 0.000000 0.000000 0.000033
# 2 -0.023195 0.033775 -0.001474 0.000000 0.000000 -0.000033
# 3 -0.001474 -0.001474 0.008761 0.000000 0.000000 0.000000
# 4 0.000000 0.000000 0.000000 0.043244 0.000000 0.000000
# 5 0.000000 0.000000 0.000000 0.000000 0.043244 0.000000
# 6 0.000033 -0.000033 0.000000 0.000000 0.000000 0.026071
#
#
# Mechanical properties :
#
#
# Convention : Reuss Voigt Hill
#
# Bulk Modulus (GPa) = 41.62158 42.75646 42.18902
# Shear Modulus (GPa) = 20.06702 27.74142 23.90422
#
# Velocity S-wave (km/s) = 3.27169 3.84676 3.57082
# Velocity P-wave (km/s) = 6.03932 6.52203 6.28531
#
# Compressibility (1/GPa) = 0.02402600
#
# Stress axis : x y z
#
# Youngs Moduli (GPa) = 29.60744 29.60744 114.13989
#
# Poissons Ratio (x) = 0.68676 0.16821
# Poissons Ratio (y) = 0.68676 0.16821
# Poissons Ratio (z) = 0.04363 0.04363
#
# Static dielectric constant tensor:
#      x y z
#    x 1.671040 0.000000 0.000000 
#    y 0.000000 1.671040 0.000000 
#    z 0.000000 0.000000 1.673760 
# 
# From -- ./inp_files/597.got.cif
#   From: 2010.05.17/outbox.cif.g08.bks.cpg/sg84_1_cif.got.tgz:597.got - 2010.06.03 18:57:40.
