data_PCOD9544840
_publ_section_title
;
Structure prediction by ZEFSAII (Michael W. Deem and Ramdas Pophale) SiO2 
 PCOD9544840
Probable space group: P 4/N
;
_chemical_formula_sum "Si O2"
_cell_formula_units_Z 36
_cell_length_a 8.804247
_cell_length_b 8.804247
_cell_length_c 22.871020
_cell_angle_alpha 90.000000
_cell_angle_beta 90.000000
_cell_angle_gamma 90.000000
_cell_volume 1772.841746
_symmetry_space_group_name_H-M "P 4/N"
_symmetry_group_IT_number 85
_symmetry_cell_setting 'tetragonal'
loop_
_space_group_symop_operation_xyz
x,y,z
1/2-y,x,z
1/2-x,1/2-y,z
y,1/2-x,z
-x,-y,-z
1/2+y,-x,-z
1/2+x,1/2+y,-z
-y,1/2+x,-z
loop_
_atom_site_type_symbol
_atom_site_label
_atom_site_fract_x
_atom_site_fract_y
_atom_site_fract_z
Si Si1 0.506943 0.670984 0.720392
Si Si2 0.750000 0.750000 0.172904
Si Si3 0.944321 0.914043 0.942366
Si Si4 0.750000 0.250000 0.500000
Si Si5 0.002741 0.180381 0.411479
Si Si6 0.590055 0.169640 0.836522
O O1 0.656629 0.566405 0.725198
O O2 0.443301 0.656103 0.654692
O O3 0.400029 0.629830 0.773424
O O4 0.562244 0.732760 0.171909
O O5 0.767556 0.953325 0.942410
O O6 0.044411 0.949940 0.885833
O O7 0.000000 0.000000 0.000000
O O8 0.629100 0.335283 0.458677
O O9 0.148358 0.070163 0.417456
O O10 0.750000 0.250000 0.855328
#
# Coordination Sequence:
#
# PCOD9544840 Si02
#       6
#     8   2   8   2   8   8
#     4   9  18  38  67  94 130 177 234 285 354 433
#     4  12  28  44  72 112 144 180 240 296 338 436
#     4  11  27  45  69  99 132 178 232 281 345 425
#     4  12  20  32  60  92 132 172 240 282 352 404
#     4   9  20  37  59  88 127 179 228 283 345 421
#     4  12  26  45  72 102 144 185 225 290 368 415
#
# _framework density 20.306383
#
# number of rings (size 3 to 8) (size 9 to 14) (size 15 to 20)
#    0.000    1.556    0.000    6.000    7.778    1.778 
#    0.000    0.000    0.000    0.000    0.000    0.000 
#    0.000    0.000    0.000    0.000    0.000    0.000 
#
# Total GULP energy -200420.308481 kJ/mol
# GULP energy per Si atom -5567.230791 kJ/mol
# Density = 2.026016 g / cm^3
# Si number density = 20.306383 Si / 1000 Ang^3
#
#
#
# Elastic Constant Matrix: (Units=GPa)
#
#
# Indices 1 2 3 4 5 6 
#
# 1 62.4000 40.7551 62.1288 0.0000 0.0000 8.9814
# 2 40.7551 62.4000 62.1288 0.0000 0.0000 -8.9814
# 3 62.1288 62.1288 162.4010 0.0000 0.0000 0.0000
# 4 0.0000 0.0000 0.0000 34.7115 0.0000 0.0000
# 5 0.0000 0.0000 0.0000 0.0000 34.7115 0.0000
# 6 8.9814 -8.9814 0.0000 0.0000 0.0000 33.3388
#
#
#
# Elastic Compliance Matrix: (Units=1/GPa)
#
#
# Indices 1 2 3 4 5 6 
#
# 1 0.038742 -0.020762 -0.006878 0.000000 0.000000 -0.016030
# 2 -0.020762 0.038742 -0.006878 0.000000 0.000000 0.016030
# 3 -0.006878 -0.006878 0.011420 0.000000 0.000000 0.000000
# 4 0.000000 0.000000 0.000000 0.028809 0.000000 0.000000
# 5 0.000000 0.000000 0.000000 0.000000 0.028809 0.000000
# 6 -0.016030 0.016030 0.000000 0.000000 0.000000 0.038632
#
#
# Mechanical properties :
#
#
# Convention : Reuss Voigt Hill
#
# Bulk Modulus (GPa) = 50.33668 68.58071 59.45870
# Shear Modulus (GPa) = 19.17085 28.69825 23.93455
#
# Velocity S-wave (km/s) = 3.07592 3.76342 3.43690
# Velocity P-wave (km/s) = 6.12025 7.26159 6.71521
#
# Compressibility (1/GPa) = 0.01986623
#
# Stress axis : x y z
#
# Youngs Moduli (GPa) = 25.81208 25.81208 87.56241
#
# Poissons Ratio (x) = 0.53591 0.60229
# Poissons Ratio (y) = 0.53591 0.60229
# Poissons Ratio (z) = 0.17754 0.17754
#
# Static dielectric constant tensor:
#      x y z
#    x 1.736500 0.000000 0.000000 
#    y 0.000000 1.736500 0.000000 
#    z 0.000000 0.000000 1.700280 
# 
# From -- ./inp_files/2200.got.cif
#   From: 2010.05.17/outbox.cif.g08.bks.cpg/sg85_cif.got.tgz:2200.got - 2010.06.03 19:01:16.
