data_PCOD9544143
_publ_section_title
;
Structure prediction by ZEFSAII (Michael W. Deem and Ramdas Pophale) SiO2 
 PCOD9544143
Probable space group: P 42/M
;
_chemical_formula_sum "Si O2"
_cell_formula_units_Z 40
_cell_length_a 8.663938
_cell_length_b 8.663938
_cell_length_c 26.498350
_cell_angle_alpha 90.000000
_cell_angle_beta 90.000000
_cell_angle_gamma 90.000000
_cell_volume 1989.067419
_symmetry_space_group_name_H-M "P 42/M"
_symmetry_group_IT_number 84
_symmetry_cell_setting 'tetragonal'
loop_
_space_group_symop_operation_xyz
x,y,z
-y,x,1/2+z
-x,-y,z
y,-x,1/2+z
-x,-y,-z
y,-x,1/2-z
x,y,-z
-y,x,1/2-z
loop_
_atom_site_type_symbol
_atom_site_label
_atom_site_fract_x
_atom_site_fract_y
_atom_site_fract_z
Si Si1 0.652772 0.890259 0.942506
Si Si2 0.671959 0.006267 0.682275
Si Si3 0.694060 0.843586 0.787785
Si Si4 0.508608 0.316831 0.136540
Si Si5 0.796032 0.104046 0.132604
O O1 0.608098 0.747609 0.906490
O O2 0.500000 0.000000 0.941809
O O3 0.782530 0.994053 0.915771
O O4 0.686131 0.847857 0.000000
O O5 0.674313 0.891638 0.730280
O O6 0.810237 0.953455 0.645932
O O7 0.500000 0.000000 0.660217
O O8 0.719230 0.171790 0.703633
O O9 0.544425 0.766957 0.812151
O O10 0.740620 0.994717 0.820877
O O11 0.500000 0.500000 0.139959
O O12 0.675363 0.244884 0.125294
#
# Coordination Sequence:
#
# PCOD9544143 Si02
#       5
#     8   8   8   8   8
#     4   8  16  33  59  85 111 149 194 241 300 362
#     4  12  23  36  54  80 108 150 197 238 288 348
#     4  11  22  37  54  76 111 153 195 233 286 353
#     4  10  20  36  55  84 119 148 186 247 299 346
#     4  10  20  36  57  80 113 148 194 242 283 348
#
# _framework density 20.109925
#
# number of rings (size 3 to 8) (size 9 to 14) (size 15 to 20)
#    0.000    1.800    2.000    4.800    0.000    0.400 
#    0.000    0.000    0.000   10.200    0.000    0.000 
#    0.000    0.000    0.000    0.000    0.000    0.000 
#
# Total GULP energy -223442.544248 kJ/mol
# GULP energy per Si atom -5586.063606 kJ/mol
# Density = 2.006415 g / cm^3
# Si number density = 20.109925 Si / 1000 Ang^3
#
#
#
# Elastic Constant Matrix: (Units=GPa)
#
#
# Indices 1 2 3 4 5 6 
#
# 1 80.1393 7.8522 0.5006 0.0000 0.0000 -1.4477
# 2 7.8522 80.1393 0.5006 0.0000 0.0000 1.4477
# 3 0.5006 0.5006 69.0662 0.0000 0.0000 0.0000
# 4 0.0000 0.0000 0.0000 14.8110 0.0000 0.0000
# 5 0.0000 0.0000 0.0000 0.0000 14.8110 0.0000
# 6 -1.4477 1.4477 0.0000 0.0000 0.0000 28.6773
#
#
#
# Elastic Compliance Matrix: (Units=1/GPa)
#
#
# Indices 1 2 3 4 5 6 
#
# 1 0.012614 -0.001248 -0.000082 0.000000 0.000000 0.000700
# 2 -0.001248 0.012614 -0.000082 0.000000 0.000000 -0.000700
# 3 -0.000082 -0.000082 0.014480 0.000000 0.000000 0.000000
# 4 0.000000 0.000000 0.000000 0.067517 0.000000 0.000000
# 5 0.000000 0.000000 0.000000 0.000000 0.067517 0.000000
# 6 0.000700 -0.000700 0.000000 0.000000 0.000000 0.034941
#
#
# Mechanical properties :
#
#
# Convention : Reuss Voigt Hill
#
# Bulk Modulus (GPa) = 27.11358 27.45018 27.28188
# Shear Modulus (GPa) = 22.24172 26.35932 24.30052
#
# Velocity S-wave (km/s) = 3.32928 3.62437 3.47995
# Velocity P-wave (km/s) = 5.31890 5.58520 5.45368
#
# Compressibility (1/GPa) = 0.03688189
#
# Stress axis : x y z
#
# Youngs Moduli (GPa) = 79.27883 79.27883 69.06048
#
# Poissons Ratio (x) = 0.09894 0.00569
# Poissons Ratio (y) = 0.09894 0.00569
# Poissons Ratio (z) = 0.00653 0.00653
#
# Static dielectric constant tensor:
#      x y z
#    x 1.728550 0.000000 0.000000 
#    y 0.000000 1.728550 0.000000 
#    z 0.000000 0.000000 1.697430 
# 
# From -- ./inp_files/5330.got.cif
#   From: 2010.05.17/outbox.cif.g08.bks.cpg/sg84_3_cif.got.tgz:5330.got - 2010.06.03 18:57:40.
