data_PCOD9544723
_publ_section_title
;
Structure prediction by ZEFSAII (Michael W. Deem and Ramdas Pophale) SiO2 
 PCOD9544723
Probable space group: P 4/N
;
_chemical_formula_sum "Si O2"
_cell_formula_units_Z 48
_cell_length_a 9.687992
_cell_length_b 9.687992
_cell_length_c 29.414072
_cell_angle_alpha 90.000000
_cell_angle_beta 90.000000
_cell_angle_gamma 90.000000
_cell_volume 2760.722115
_symmetry_space_group_name_H-M "P 4/N"
_symmetry_group_IT_number 85
_symmetry_cell_setting 'tetragonal'
loop_
_space_group_symop_operation_xyz
x,y,z
1/2-y,x,z
1/2-x,1/2-y,z
y,1/2-x,z
-x,-y,-z
1/2+y,-x,-z
1/2+x,1/2+y,-z
-y,1/2+x,-z
loop_
_atom_site_type_symbol
_atom_site_label
_atom_site_fract_x
_atom_site_fract_y
_atom_site_fract_z
Si Si1 0.897507 0.394424 0.521062
Si Si2 0.958764 0.652850 0.389827
Si Si3 0.090757 0.085330 0.965313
Si Si4 0.902620 0.924867 0.141574
Si Si5 0.937804 0.891302 0.786296
Si Si6 0.945241 0.625440 0.283162
O O1 0.931132 0.253065 0.495436
O O2 0.000000 0.500000 0.500000
O O3 0.922723 0.386252 0.574871
O O4 0.926086 0.814353 0.398464
O O5 0.983225 0.624231 0.336678
O O6 0.253083 0.062124 0.972848
O O7 0.068656 0.053707 0.911976
O O8 0.000000 0.000000 0.000000
O O9 0.737260 0.937975 0.150797
O O10 0.989095 0.033697 0.170810
O O11 0.776112 0.936827 0.785708
O O12 0.031560 0.949606 0.744971
O O13 0.933381 0.790255 0.273449
#
# Coordination Sequence:
#
# PCOD9544723 Si02
#       6
#     8   8   8   8   8   8
#     4  11  22  36  56  83 114 147 185 225 269 323
#     4   9  17  35  60  82 109 143 180 224 272 321
#     4   9  19  35  54  80 114 149 187 234 282 329
#     4   9  19  37  60  82 107 144 193 239 276 327
#     4  11  24  39  53  79 118 149 178 224 283 338
#     4   9  19  37  62  86 105 137 185 229 271 329
#
# _framework density 17.386755999999998
#
# number of rings (size 3 to 8) (size 9 to 14) (size 15 to 20)
#    0.000    2.333    1.667    3.000    0.000    6.000 
#    3.000    5.000    0.000    0.000    0.000    0.000 
#    0.000    0.000    0.000    0.000    0.000    0.000 
#
# Total GULP energy -267437.714416 kJ/mol
# GULP energy per Si atom -5571.619050 kJ/mol
# Density = 1.734718 g / cm^3
# Si number density = 17.386756 Si / 1000 Ang^3
#
#
#
# Elastic Constant Matrix: (Units=GPa)
#
#
# Indices 1 2 3 4 5 6 
#
# 1 -167.2164 332.1618 68.4561 0.0000 0.0000 11.8350
# 2 332.1618 -167.2164 68.4561 0.0000 0.0000 -11.8350
# 3 68.4561 68.4561 120.4458 0.0000 0.0000 0.0000
# 4 0.0000 0.0000 0.0000 31.6364 0.0000 0.0000
# 5 0.0000 0.0000 0.0000 0.0000 31.6364 0.0000
# 6 11.8350 -11.8350 0.0000 0.0000 0.0000 35.2338
#
#
#
# Elastic Compliance Matrix: (Units=1/GPa)
#
#
# Indices 1 2 3 4 5 6 
#
# 1 0.004753 0.006724 -0.006523 0.000000 0.000000 0.000662
# 2 0.006724 0.004753 -0.006523 0.000000 0.000000 -0.000662
# 3 -0.006523 -0.006523 0.015717 0.000000 0.000000 0.000000
# 4 0.000000 0.000000 0.000000 0.031609 0.000000 0.000000
# 5 0.000000 0.000000 0.000000 0.000000 0.031609 0.000000
# 6 0.000662 -0.000662 0.000000 0.000000 0.000000 0.027937
#
#
# Mechanical properties :
#
#
# Convention : Reuss Voigt Hill
#
# Bulk Modulus (GPa) = 79.49622 80.46231 79.97926
# Shear Modulus (GPa) = 37.53312 -25.83608 5.84852
#
# Velocity S-wave (km/s) = 4.65124 -3.85900 1.83605
# Velocity P-wave (km/s) = 8.64100 5.15000 7.11300
#
# Compressibility (1/GPa) = 0.01257921
#
# Stress axis : x y z
#
# Youngs Moduli (GPa) = 210.39528 210.39528 63.62419
#
# Poissons Ratio (x) = -1.41471 0.41502
# Poissons Ratio (y) = -1.41471 0.41502
# Poissons Ratio (z) = 1.37242 1.37242
#
# Static dielectric constant tensor:
#      x y z
#    x 1.571260 0.000000 0.000000 
#    y 0.000000 1.571260 0.000000 
#    z 0.000000 0.000000 1.588100 
# 
# From -- ./inp_files/2421.got.cif
#   From: 2010.05.17/outbox.cif.g08.bks.cpg/sg85_cif.got.tgz:2421.got - 2010.06.03 19:01:16.
