data_PCOD9544212
_publ_section_title
;
Structure prediction by ZEFSAII (Michael W. Deem and Ramdas Pophale) SiO2 
 PCOD9544212
Probable space group: P 42/M
;
_chemical_formula_sum "Si O2"
_cell_formula_units_Z 32
_cell_length_a 7.537486
_cell_length_b 7.537486
_cell_length_c 22.940697
_cell_angle_alpha 90.000000
_cell_angle_beta 90.000000
_cell_angle_gamma 90.000000
_cell_volume 1303.345767
_symmetry_space_group_name_H-M "P 42/M"
_symmetry_group_IT_number 84
_symmetry_cell_setting 'tetragonal'
loop_
_space_group_symop_operation_xyz
x,y,z
-y,x,1/2+z
-x,-y,z
y,-x,1/2+z
-x,-y,-z
y,-x,1/2-z
x,y,-z
-y,x,1/2-z
loop_
_atom_site_type_symbol
_atom_site_label
_atom_site_fract_x
_atom_site_fract_y
_atom_site_fract_z
Si Si1 0.218543 0.312083 0.935661
Si Si2 0.783986 0.970065 0.158180
Si Si3 0.776186 0.398090 0.760612
Si Si4 0.816305 0.327942 0.106855
O O1 0.273977 0.193921 0.881735
O O2 0.279558 0.514142 0.926636
O O3 0.003003 0.305964 0.926745
O O4 0.262700 0.247282 0.000000
O O5 0.695015 0.921316 0.219429
O O6 0.727680 0.140362 0.120057
O O7 0.000000 0.000000 0.164794
O O8 0.594973 0.283506 0.757057
O O9 0.841392 0.396359 0.826941
#
# Coordination Sequence:
#
# PCOD9544212 Si02
#       4
#     8   8   8   8
#     4  10  21  40  62  97 142 182 235 287 348 426
#     4  10  23  37  63 100 133 178 232 294 355 414
#     4  11  24  42  65  95 143 186 231 291 368 436
#     4  10  21  34  62  93 130 178 229 287 352 406
#
# _framework density 24.552194
#
# number of rings (size 3 to 8) (size 9 to 14) (size 15 to 20)
#    0.000    1.750    2.500    1.500    7.000    6.500 
#    0.000    0.000    0.000    4.500    0.000   17.500 
#    0.000    0.000    0.000    0.000    0.000    0.000 
#
# Total GULP energy -178836.872078 kJ/mol
# GULP energy per Si atom -5588.652252 kJ/mol
# Density = 2.449631 g / cm^3
# Si number density = 24.552194 Si / 1000 Ang^3
#
#
#
# Elastic Constant Matrix: (Units=GPa)
#
#
# Indices 1 2 3 4 5 6 
#
# 1 114.2856 0.3834 -6.9060 0.0000 0.0000 6.5757
# 2 0.3834 114.2856 -6.9060 0.0000 0.0000 -6.5757
# 3 -6.9060 -6.9060 114.3064 0.0000 0.0000 0.0000
# 4 0.0000 0.0000 0.0000 -17.0177 0.0000 0.0000
# 5 0.0000 0.0000 0.0000 0.0000 -17.0177 0.0000
# 6 6.5757 -6.5757 0.0000 0.0000 0.0000 23.9368
#
#
#
# Elastic Compliance Matrix: (Units=1/GPa)
#
#
# Indices 1 2 3 4 5 6 
#
# 1 0.008926 -0.000141 0.000531 0.000000 0.000000 -0.002491
# 2 -0.000141 0.008926 0.000531 0.000000 0.000000 0.002491
# 3 0.000531 0.000531 0.008813 0.000000 0.000000 0.000000
# 4 0.000000 0.000000 0.000000 -0.058762 0.000000 0.000000
# 5 0.000000 0.000000 0.000000 0.000000 -0.058762 0.000000
# 6 -0.002491 0.002491 0.000000 0.000000 0.000000 0.043145
#
#
# Mechanical properties :
#
#
# Convention : Reuss Voigt Hill
#
# Bulk Modulus (GPa) = 35.08172 35.11337 35.09754
# Shear Modulus (GPa) = -124.83199 21.73401 -51.54899
#
# Velocity S-wave (km/s) = -7.13820 2.97849 -4.58707
# Velocity P-wave (km/s) = 7.32249 5.11479 3.70525
#
# Compressibility (1/GPa) = 0.02850488
#
# Stress axis : x y z
#
# Youngs Moduli (GPa) = 112.03388 112.03388 113.47452
#
# Poissons Ratio (x) = 0.01582 -0.06023
# Poissons Ratio (y) = 0.01582 -0.06023
# Poissons Ratio (z) = -0.05946 -0.05946
#
# Static dielectric constant tensor:
#      x y z
#    x 2.018500 0.000000 0.000000 
#    y 0.000000 2.018500 0.000000 
#    z 0.000000 0.000000 1.830590 
# 
# From -- ./inp_files/4111.got.cif
#   From: 2010.05.17/outbox.cif.g08.bks.cpg/sg84_3_cif.got.tgz:4111.got - 2010.06.03 18:57:40.
