data_PCOD9544978
_publ_section_title
;
Structure prediction by ZEFSAII (Michael W. Deem and Ramdas Pophale) SiO2 
 PCOD9544978
Probable space group: P 42/N
;
_chemical_formula_sum "Si O2"
_cell_formula_units_Z 50
_cell_length_a 14.638886
_cell_length_b 14.638886
_cell_length_c 11.747095
_cell_angle_alpha 90.000000
_cell_angle_beta 90.000000
_cell_angle_gamma 90.000000
_cell_volume 2517.367021
_symmetry_space_group_name_H-M "P 42/N"
_symmetry_group_IT_number 86
_space_group.IT_coordinate_system_code '2'
_symmetry_cell_setting 'tetragonal'
loop_
_space_group_symop_operation_xyz
x,y,z
-y,1/2+x,1/2+z
1/2-x,1/2-y,z
1/2+y,-x,1/2+z
-x,-y,-z
y,1/2-x,1/2-z
1/2+x,1/2+y,-z
1/2-y,x,1/2-z
loop_
_atom_site_type_symbol
_atom_site_label
_atom_site_fract_x
_atom_site_fract_y
_atom_site_fract_z
Si Si1 0.564287 0.126144 0.676953
Si Si2 0.448919 0.655133 0.337623
Si Si3 0.705306 0.350747 0.823648
Si Si4 0.407225 0.609650 0.573218
Si Si5 0.594355 0.636051 0.137543
Si Si6 0.706570 0.059808 0.508764
Si Si7 0.250000 0.250000 0.750000
O O1 0.571908 0.235671 0.663078
O O2 0.552983 0.094644 0.809029
O O3 0.471384 0.100895 0.612419
O O4 0.655077 0.080131 0.626115
O O5 0.355804 0.615280 0.281191
O O6 0.471246 0.613363 0.461654
O O7 0.530638 0.644695 0.249116
O O8 0.750000 0.250000 0.800247
O O9 0.787927 0.407277 0.876062
O O10 0.630676 0.341633 0.922570
O O11 0.311029 0.585446 0.513412
O O12 0.541586 0.687259 0.036666
O O13 0.689643 0.682116 0.172290
#
# Coordination Sequence:
#
# PCOD9544978 Si02
#       7
#     8   8   8   8   8   8   2
#     4  12  21  35  56  81 117 152 187 233 285 340
#     4  11  21  33  52  83 115 136 191 230 275 344
#     4   9  16  28  49  78 111 140 169 214 276 341
#     4  11  20  32  56  85 114 150 175 225 293 352
#     4  11  23  40  55  85 107 153 195 243 272 322
#     4  10  20  34  56  85 116 143 186 230 287 342
#     4  12  20  40  68  76 110 156 216 232 264 330
#
# _framework density 19.862022
#
# number of rings (size 3 to 8) (size 9 to 14) (size 15 to 20)
#    0.000    1.280    8.000    1.440    0.000    0.640 
#    0.000    0.000    0.000    0.000    0.000    1.120 
#    0.000    0.000    0.000    0.000    0.000    0.000 
#
# Total GULP energy -278544.245193 kJ/mol
# GULP energy per Si atom -5570.884904 kJ/mol
# Density = 1.981682 g / cm^3
# Si number density = 19.862022 Si / 1000 Ang^3
#
#
#
# Elastic Constant Matrix: (Units=GPa)
#
#
# Indices 1 2 3 4 5 6 
#
# 1 48.4407 -4.2320 2.7021 0.0000 0.0000 4.4722
# 2 -4.2320 48.4407 2.7021 0.0000 0.0000 -4.4722
# 3 2.7021 2.7021 98.3671 0.0000 0.0000 0.0000
# 4 0.0000 0.0000 0.0000 -5.0531 0.0000 0.0000
# 5 0.0000 0.0000 0.0000 0.0000 -5.0531 0.0000
# 6 4.4722 -4.4722 0.0000 0.0000 0.0000 1.4089
#
#
#
# Elastic Compliance Matrix: (Units=1/GPa)
#
#
# Indices 1 2 3 4 5 6 
#
# 1 0.031940 -0.009244 -0.000623 0.000000 0.000000 -0.130725
# 2 -0.009244 0.031940 -0.000623 0.000000 0.000000 0.130725
# 3 -0.000623 -0.000623 0.010200 0.000000 0.000000 0.000000
# 4 0.000000 0.000000 0.000000 -0.197897 0.000000 0.000000
# 5 0.000000 0.000000 0.000000 0.000000 -0.197897 0.000000
# 6 -0.130725 0.130725 0.000000 0.000000 0.000000 1.539662
#
#
# Mechanical properties :
#
#
# Convention : Reuss Voigt Hill
#
# Bulk Modulus (GPa) = 18.83280 21.95477 20.39378
# Shear Modulus (GPa) = 3.97890 11.19895 7.58892
#
# Velocity S-wave (km/s) = 1.41690 2.37710 1.95681
# Velocity P-wave (km/s) = 3.48987 4.31414 3.92371
#
# Compressibility (1/GPa) = 0.05309884
#
# Stress axis : x y z
#
# Youngs Moduli (GPa) = 31.30877 31.30877 98.03679
#
# Poissons Ratio (x) = 0.28941 0.06112
# Poissons Ratio (y) = 0.28941 0.06112
# Poissons Ratio (z) = 0.01952 0.01952
#
# Static dielectric constant tensor:
#      x y z
#    x 1.721410 0.000000 0.000000 
#    y 0.000000 1.721410 0.000000 
#    z 0.000000 0.000000 1.782260 
# 
# From -- ./inp_files/2312.got.cif
#   From: 2010.05.17/outbox.cif.g08.bks.cpg/sg86_2_cif.got.tgz:2312.got - 2010.06.03 19:03:11.
