data_PCOD9544841
_publ_section_title
;
Structure prediction by ZEFSAII (Michael W. Deem and Ramdas Pophale) SiO2 
 PCOD9544841
Probable space group: P 4/N
;
_chemical_formula_sum "Si O2"
_cell_formula_units_Z 26
_cell_length_a 14.359489
_cell_length_b 14.359489
_cell_length_c 5.497472
_cell_angle_alpha 90.000000
_cell_angle_beta 90.000000
_cell_angle_gamma 90.000000
_cell_volume 1133.550823
_symmetry_space_group_name_H-M "P 4/N"
_symmetry_group_IT_number 85
_symmetry_cell_setting 'tetragonal'
loop_
_space_group_symop_operation_xyz
x,y,z
1/2-y,x,z
1/2-x,1/2-y,z
y,1/2-x,z
-x,-y,-z
1/2+y,-x,-z
1/2+x,1/2+y,-z
-y,1/2+x,-z
loop_
_atom_site_type_symbol
_atom_site_label
_atom_site_fract_x
_atom_site_fract_y
_atom_site_fract_z
Si Si1 0.886944 0.282603 0.890179
Si Si2 0.750000 0.250000 0.500000
Si Si3 0.627419 0.655041 0.559262
Si Si4 0.939435 0.588763 0.066046
O O1 0.850041 0.248766 0.631592
O O2 0.987912 0.324879 0.917009
O O3 0.861286 0.192324 0.051398
O O4 0.734600 0.623966 0.530713
O O5 0.576020 0.608281 0.329420
O O6 0.601185 0.627857 0.834530
O O7 0.000000 0.500000 0.000000
#
# Coordination Sequence:
#
# PCOD9544841 Si02
#       4
#     8   2   8   8
#     4   9  22  39  63  95 136 184 215 281 356 417
#     4   8  18  40  64  90 132 192 226 252 378 416
#     4  11  27  50  73  99 142 194 233 286 350 414
#     4  12  27  43  73 109 136 176 242 294 346 405
#
# _framework density 22.936775999999998
#
# number of rings (size 3 to 8) (size 9 to 14) (size 15 to 20)
#    0.000    1.846    0.000    2.769   17.231    2.462 
#    0.000    0.000    0.000    0.000    0.000    0.000 
#    0.000    0.000    0.000    0.000    0.000    0.000 
#
# Total GULP energy -145190.867835 kJ/mol
# GULP energy per Si atom -5584.264147 kJ/mol
# Density = 2.288457 g / cm^3
# Si number density = 22.936776 Si / 1000 Ang^3
#
#
#
# Elastic Constant Matrix: (Units=GPa)
#
#
# Indices 1 2 3 4 5 6 
#
# 1 -25.4046 74.7639 13.0603 0.0000 0.0000 -35.7263
# 2 74.7639 -25.4046 13.0603 0.0000 0.0000 35.7263
# 3 13.0603 13.0603 116.8831 0.0000 0.0000 0.0000
# 4 0.0000 0.0000 0.0000 8.9904 0.0000 0.0000
# 5 0.0000 0.0000 0.0000 0.0000 8.9904 0.0000
# 6 -35.7263 35.7263 0.0000 0.0000 0.0000 4.3792
#
#
#
# Elastic Compliance Matrix: (Units=1/GPa)
#
#
# Indices 1 2 3 4 5 6 
#
# 1 0.010034 0.011498 -0.002406 0.000000 0.000000 -0.011943
# 2 0.011498 0.010034 -0.002406 0.000000 0.000000 0.011943
# 3 -0.002406 -0.002406 0.009093 0.000000 0.000000 0.000000
# 4 0.000000 0.000000 0.000000 0.111230 0.000000 0.000000
# 5 0.000000 0.000000 0.000000 0.000000 0.111230 0.000000
# 6 -0.011943 0.011943 0.000000 0.000000 0.000000 0.033486
#
#
# Mechanical properties :
#
#
# Convention : Reuss Voigt Hill
#
# Bulk Modulus (GPa) = 23.51013 29.76030 26.63521
# Shear Modulus (GPa) = 17.48778 2.15127 9.81953
#
# Velocity S-wave (km/s) = 2.76422 0.96951 2.07133
# Velocity P-wave (km/s) = 4.52328 3.77576 4.16632
#
# Compressibility (1/GPa) = 0.04253485
#
# Stress axis : x y z
#
# Youngs Moduli (GPa) = 99.65641 99.65641 109.97171
#
# Poissons Ratio (x) = -1.14589 0.26460
# Poissons Ratio (y) = -1.14589 0.26460
# Poissons Ratio (z) = 0.23978 0.23978
#
# Static dielectric constant tensor:
#      x y z
#    x 1.867550 0.000000 0.000000 
#    y 0.000000 1.867550 0.000000 
#    z 0.000000 0.000000 2.006560 
# 
# From -- ./inp_files/194.got.cif
#   From: 2010.05.17/outbox.cif.g08.bks.cpg/sg85_cif.got.tgz:194.got - 2010.06.03 19:01:16.
