data_PCOD9544787
_publ_section_title
;
Structure prediction by ZEFSAII (Michael W. Deem and Ramdas Pophale) SiO2 
 PCOD9544787
Probable space group: P 4/N
;
_chemical_formula_sum "Si O2"
_cell_formula_units_Z 48
_cell_length_a 9.175394
_cell_length_b 9.175394
_cell_length_c 29.097644
_cell_angle_alpha 90.000000
_cell_angle_beta 90.000000
_cell_angle_gamma 90.000000
_cell_volume 2449.668236
_symmetry_space_group_name_H-M "P 4/N"
_symmetry_group_IT_number 85
_symmetry_cell_setting 'tetragonal'
loop_
_space_group_symop_operation_xyz
x,y,z
1/2-y,x,z
1/2-x,1/2-y,z
y,1/2-x,z
-x,-y,-z
1/2+y,-x,-z
1/2+x,1/2+y,-z
-y,1/2+x,-z
loop_
_atom_site_type_symbol
_atom_site_label
_atom_site_fract_x
_atom_site_fract_y
_atom_site_fract_z
Si Si1 0.417634 0.866462 0.519754
Si Si2 0.664706 0.526279 0.621664
Si Si3 0.058634 0.092877 0.853669
Si Si4 0.426927 0.417826 0.958146
Si Si5 0.471348 0.360156 0.689219
Si Si6 0.386129 0.455779 0.229402
O O1 0.414756 0.749305 0.478566
O O2 0.487951 0.824520 0.567668
O O3 0.500000 0.000000 0.500000
O O4 0.829858 0.569453 0.633763
O O5 0.579819 0.398510 0.647361
O O6 0.230659 0.052664 0.847255
O O7 0.023187 0.048030 0.906168
O O8 0.949572 0.015768 0.818635
O O9 0.255169 0.447847 0.961652
O O10 0.500000 0.500000 0.000000
O O11 0.312204 0.437779 0.688631
O O12 0.551831 0.431208 0.733028
O O13 0.210700 0.444825 0.234143
#
# Coordination Sequence:
#
# PCOD9544787 Si02
#       6
#     8   8   8   8   8   8
#     4  11  24  41  64  94 126 164 204 246 298 350
#     4  11  24  43  66  93 126 163 201 248 299 350
#     4   9  19  37  60  84 115 156 202 251 301 357
#     4   9  19  35  54  80 116 157 201 251 304 356
#     4  11  26  44  65  94 123 156 198 247 297 355
#     4  11  24  41  61  90 123 156 195 243 300 360
#
# _framework density 19.59449
#
# number of rings (size 3 to 8) (size 9 to 14) (size 15 to 20)
#    0.000    1.667    1.667    3.000    2.333    9.333 
#    0.000    5.000    0.000    0.000    0.000    0.000 
#    0.000    0.000    0.000    0.000    0.000    0.000 
#
# Total GULP energy -267678.262693 kJ/mol
# GULP energy per Si atom -5576.630473 kJ/mol
# Density = 1.954989 g / cm^3
# Si number density = 19.594490 Si / 1000 Ang^3
#
#
#
# Elastic Constant Matrix: (Units=GPa)
#
#
# Indices 1 2 3 4 5 6 
#
# 1 29.5369 23.1753 9.4758 0.0000 0.0000 -1.4727
# 2 23.1753 29.5369 9.4758 0.0000 0.0000 1.4727
# 3 9.4758 9.4758 72.5546 0.0000 0.0000 0.0000
# 4 0.0000 0.0000 0.0000 35.7992 0.0000 0.0000
# 5 0.0000 0.0000 0.0000 0.0000 35.7992 0.0000
# 6 -1.4727 1.4727 0.0000 0.0000 0.0000 37.4950
#
#
#
# Elastic Compliance Matrix: (Units=1/GPa)
#
#
# Indices 1 2 3 4 5 6 
#
# 1 0.090005 -0.070100 -0.002600 0.000000 0.000000 0.006288
# 2 -0.070100 0.090005 -0.002600 0.000000 0.000000 -0.006288
# 3 -0.002600 -0.002600 0.014462 0.000000 0.000000 0.000000
# 4 0.000000 0.000000 0.000000 0.027934 0.000000 0.000000
# 5 0.000000 0.000000 0.000000 0.000000 0.027934 0.000000
# 6 0.006288 -0.006288 0.000000 0.000000 0.000000 0.027164
#
#
# Mechanical properties :
#
#
# Convention : Reuss Voigt Hill
#
# Bulk Modulus (GPa) = 22.79245 23.98690 23.38968
# Shear Modulus (GPa) = 11.29365 27.78545 19.53955
#
# Velocity S-wave (km/s) = 2.40337 3.76975 3.16127
# Velocity P-wave (km/s) = 4.39988 5.58715 5.02868
#
# Compressibility (1/GPa) = 0.04387417
#
# Stress axis : x y z
#
# Youngs Moduli (GPa) = 11.11046 11.11046 69.14775
#
# Poissons Ratio (x) = 0.77884 0.17977
# Poissons Ratio (y) = 0.77884 0.17977
# Poissons Ratio (z) = 0.02888 0.02888
#
# Static dielectric constant tensor:
#      x y z
#    x 1.620800 0.000000 0.000000 
#    y 0.000000 1.620800 0.000000 
#    z 0.000000 0.000000 1.712090 
# 
# From -- ./inp_files/2427.got.cif
#   From: 2010.05.17/outbox.cif.g08.bks.cpg/sg85_cif.got.tgz:2427.got - 2010.06.03 19:01:16.
