data_PCOD9544765
_publ_section_title
;
Structure prediction by ZEFSAII (Michael W. Deem and Ramdas Pophale) SiO2 
 PCOD9544765
Probable space group: P 4/N
;
_chemical_formula_sum "Si O2"
_cell_formula_units_Z 48
_cell_length_a 9.332943
_cell_length_b 9.332943
_cell_length_c 28.426314
_cell_angle_alpha 90.000000
_cell_angle_beta 90.000000
_cell_angle_gamma 90.000000
_cell_volume 2476.040681
_symmetry_space_group_name_H-M "P 4/N"
_symmetry_group_IT_number 85
_symmetry_cell_setting 'tetragonal'
loop_
_space_group_symop_operation_xyz
x,y,z
1/2-y,x,z
1/2-x,1/2-y,z
y,1/2-x,z
-x,-y,-z
1/2+y,-x,-z
1/2+x,1/2+y,-z
-y,1/2+x,-z
loop_
_atom_site_type_symbol
_atom_site_label
_atom_site_fract_x
_atom_site_fract_y
_atom_site_fract_z
Si Si1 0.465882 0.139146 0.307385
Si Si2 0.414430 0.425062 0.042087
Si Si3 0.028808 0.163589 0.624194
Si Si4 0.885752 0.554405 0.232589
Si Si5 0.084380 0.869895 0.480059
Si Si6 0.597809 0.931230 0.120584
O O1 0.435890 0.308970 0.310395
O O2 0.580056 0.092775 0.347222
O O3 0.536702 0.072582 0.260281
O O4 0.243984 0.444805 0.039100
O O5 0.467862 0.497375 0.090241
O O6 0.500000 0.500000 0.000000
O O7 0.172745 0.071709 0.634816
O O8 0.982240 0.170111 0.569589
O O9 0.942511 0.715331 0.244189
O O10 0.909040 0.542359 0.176547
O O11 0.248955 0.916635 0.479605
O O12 0.000000 0.000000 0.500000
O O13 0.555557 0.766739 0.109312
#
# Coordination Sequence:
#
# PCOD9544765 Si02
#       6
#     8   8   8   8   8   8
#     4  11  26  42  59  89 125 160 198 248 300 351
#     4  11  24  39  56  83 119 159 204 254 306 359
#     4  11  24  43  66  91 120 157 199 245 296 353
#     4   9  19  39  65  92 120 156 200 246 298 358
#     4  11  24  41  64  94 124 158 197 240 292 348
#     4   9  19  37  62  90 120 154 198 249 300 359
#
# _framework density 19.38579
#
# number of rings (size 3 to 8) (size 9 to 14) (size 15 to 20)
#    0.000    1.667    1.667    3.000    2.333    9.333 
#    0.000    5.000    0.000    0.000    0.000    0.000 
#    0.000    0.000    0.000    0.000    0.000    0.000 
#
# Total GULP energy -267856.936134 kJ/mol
# GULP energy per Si atom -5580.352836 kJ/mol
# Density = 1.934167 g / cm^3
# Si number density = 19.385790 Si / 1000 Ang^3
#
#
#
# Elastic Constant Matrix: (Units=GPa)
#
#
# Indices 1 2 3 4 5 6 
#
# 1 58.6065 44.8563 24.3780 0.0000 0.0000 1.6750
# 2 44.8563 58.6065 24.3780 0.0000 0.0000 -1.6750
# 3 24.3780 24.3780 64.0983 0.0000 0.0000 0.0000
# 4 0.0000 0.0000 0.0000 34.5694 0.0000 0.0000
# 5 0.0000 0.0000 0.0000 0.0000 34.5694 0.0000
# 6 1.6750 -1.6750 0.0000 0.0000 0.0000 38.3840
#
#
#
# Elastic Compliance Matrix: (Units=1/GPa)
#
#
# Indices 1 2 3 4 5 6 
#
# 1 0.042642 -0.030866 -0.004479 0.000000 0.000000 -0.003208
# 2 -0.030866 0.042642 -0.004479 0.000000 0.000000 0.003208
# 3 -0.004479 -0.004479 0.019008 0.000000 0.000000 0.000000
# 4 0.000000 0.000000 0.000000 0.028927 0.000000 0.000000
# 5 0.000000 0.000000 0.000000 0.000000 0.028927 0.000000
# 6 -0.003208 0.003208 0.000000 0.000000 0.000000 0.026333
#
#
# Mechanical properties :
#
#
# Convention : Reuss Voigt Hill
#
# Bulk Modulus (GPa) = 40.57639 40.94844 40.76242
# Shear Modulus (GPa) = 18.09364 27.35113 22.72239
#
# Velocity S-wave (km/s) = 3.05838 3.76025 3.42733
# Velocity P-wave (km/s) = 5.78343 6.32625 6.06092
#
# Compressibility (1/GPa) = 0.02464487
#
# Stress axis : x y z
#
# Youngs Moduli (GPa) = 23.45112 23.45112 52.61035
#
# Poissons Ratio (x) = 0.72384 0.23562
# Poissons Ratio (y) = 0.72384 0.23562
# Poissons Ratio (z) = 0.10503 0.10503
#
# Static dielectric constant tensor:
#      x y z
#    x 1.623710 0.000000 0.000000 
#    y 0.000000 1.623710 0.000000 
#    z 0.000000 0.000000 1.685110 
# 
# From -- ./inp_files/2429.got.cif
#   From: 2010.05.17/outbox.cif.g08.bks.cpg/sg85_cif.got.tgz:2429.got - 2010.06.03 19:01:16.
