data_PCOD9544181
_publ_section_title
;
Structure prediction by ZEFSAII (Michael W. Deem and Ramdas Pophale) SiO2 
 PCOD9544181
Probable space group: P 42/M
;
_chemical_formula_sum "Si O2"
_cell_formula_units_Z 52
_cell_length_a 16.641482
_cell_length_b 16.641482
_cell_length_c 7.669192
_cell_angle_alpha 90.000000
_cell_angle_beta 90.000000
_cell_angle_gamma 90.000000
_cell_volume 2123.897774
_symmetry_space_group_name_H-M "P 42/M"
_symmetry_group_IT_number 84
_symmetry_cell_setting 'tetragonal'
loop_
_space_group_symop_operation_xyz
x,y,z
-y,x,1/2+z
-x,-y,z
y,-x,1/2+z
-x,-y,-z
y,-x,1/2-z
x,y,-z
-y,x,1/2-z
loop_
_atom_site_type_symbol
_atom_site_label
_atom_site_fract_x
_atom_site_fract_y
_atom_site_fract_z
Si Si1 0.487730 0.259178 0.702691
Si Si2 0.869791 0.011430 0.204707
Si Si3 0.407073 0.097672 0.810835
Si Si4 0.347739 0.359448 0.303002
Si Si5 0.190511 0.743787 0.803291
Si Si6 0.971487 0.607590 0.000000
Si Si7 0.280972 0.905799 0.786951
O O1 0.465369 0.247298 0.500000
O O2 0.464341 0.175830 0.792819
O O3 0.578032 0.289567 0.712461
O O4 0.433693 0.333668 0.772693
O O5 0.916968 0.929993 0.242962
O O6 0.779156 0.021194 0.269709
O O7 0.861615 0.017993 0.000000
O O8 0.315381 0.131905 0.799479
O O9 0.418711 0.037676 0.651871
O O10 0.418402 0.059811 0.000000
O O11 0.359070 0.389993 0.500000
O O12 0.304345 0.273943 0.310568
O O13 0.222885 0.830167 0.746137
O O14 0.157670 0.752055 0.000000
O O15 0.912737 0.644203 0.842120
O O16 0.297085 0.904234 0.000000
#
# Coordination Sequence:
#
# PCOD9544181 Si02
#       7
#     8   8   8   8   8   4   8
#     4  10  20  38  59  94 130 168 202 251 298 358
#     4  10  21  34  51  72 104 145 186 234 306 381
#     4  11  22  38  65  88 120 162 211 252 309 363
#     4   9  19  35  61  89 130 166 205 248 300 357
#     4   9  19  40  60  88 122 162 206 261 306 367
#     4  12  24  40  58  88 122 151 202 270 295 370
#     4  10  24  38  58  84 114 153 199 255 317 361
#
# _framework density 24.483287000000001
#
# number of rings (size 3 to 8) (size 9 to 14) (size 15 to 20)
#    0.000    2.000    1.538    2.769    5.385    3.385 
#    0.000    1.538    0.000    1.846    0.000    4.308 
#    0.000    0.000    0.000    0.000    0.000    0.000 
#
# Total GULP energy -289493.372265 kJ/mol
# GULP energy per Si atom -5567.180236 kJ/mol
# Density = 2.442756 g / cm^3
# Si number density = 24.483287 Si / 1000 Ang^3
#
#
#
# Elastic Constant Matrix: (Units=GPa)
#
#
# Indices 1 2 3 4 5 6 
#
# 1 83.1898 5.2223 21.9327 0.0000 0.0000 -4.2667
# 2 5.2223 83.1898 21.9327 0.0000 0.0000 4.2667
# 3 21.9327 21.9327 143.7480 0.0000 0.0000 0.0000
# 4 0.0000 0.0000 0.0000 56.1264 0.0000 0.0000
# 5 0.0000 0.0000 0.0000 0.0000 56.1264 0.0000
# 6 -4.2667 4.2667 0.0000 0.0000 0.0000 21.8653
#
#
#
# Elastic Compliance Matrix: (Units=1/GPa)
#
#
# Indices 1 2 3 4 5 6 
#
# 1 0.012671 -0.000434 -0.001867 0.000000 0.000000 0.002557
# 2 -0.000434 0.012671 -0.001867 0.000000 0.000000 -0.002557
# 3 -0.001867 -0.001867 0.007526 0.000000 0.000000 0.000000
# 4 0.000000 0.000000 0.000000 0.017817 0.000000 0.000000
# 5 0.000000 0.000000 0.000000 0.000000 0.017817 0.000000
# 6 0.002557 -0.002557 0.000000 0.000000 0.000000 0.046733
#
#
# Mechanical properties :
#
#
# Convention : Reuss Voigt Hill
#
# Bulk Modulus (GPa) = 40.76304 45.36701 43.06502
# Shear Modulus (GPa) = 37.95067 44.22630 41.08849
#
# Velocity S-wave (km/s) = 3.94136 4.25477 4.10106
# Velocity P-wave (km/s) = 6.11538 6.53509 6.32872
#
# Compressibility (1/GPa) = 0.02453203
#
# Stress axis : x y z
#
# Youngs Moduli (GPa) = 78.91799 78.91799 132.86619
#
# Poissons Ratio (x) = 0.03428 0.24807
# Poissons Ratio (y) = 0.03428 0.24807
# Poissons Ratio (z) = 0.14735 0.14735
#
# Static dielectric constant tensor:
#      x y z
#    x 1.910400 0.000000 0.000000 
#    y 0.000000 1.910400 0.000000 
#    z 0.000000 0.000000 1.926690 
# 
# From -- ./inp_files/1086.got.cif
#   From: 2010.05.17/outbox.cif.g08.bks.cpg/sg84_1_cif.got.tgz:1086.got - 2010.06.03 18:57:40.
