data_PCOD9544428
_publ_section_title
;
Structure prediction by ZEFSAII (Michael W. Deem and Ramdas Pophale) SiO2 
 PCOD9544428
Probable space group: P 42/M
;
_chemical_formula_sum "Si O2"
_cell_formula_units_Z 40
_cell_length_a 9.252661
_cell_length_b 9.252661
_cell_length_c 22.985891
_cell_angle_alpha 90.000000
_cell_angle_beta 90.000000
_cell_angle_gamma 90.000000
_cell_volume 1967.862022
_symmetry_space_group_name_H-M "P 42/M"
_symmetry_group_IT_number 84
_symmetry_cell_setting 'tetragonal'
loop_
_space_group_symop_operation_xyz
x,y,z
-y,x,1/2+z
-x,-y,z
y,-x,1/2+z
-x,-y,-z
y,-x,1/2-z
x,y,-z
-y,x,1/2-z
loop_
_atom_site_type_symbol
_atom_site_label
_atom_site_fract_x
_atom_site_fract_y
_atom_site_fract_z
Si Si1 0.487177 0.172332 0.067511
Si Si2 0.691702 0.248864 0.634755
Si Si3 0.806102 0.849108 0.748841
Si Si4 0.982547 0.327413 0.062740
Si Si5 0.282580 0.654852 0.864887
O O1 0.328308 0.231198 0.081112
O O2 0.572190 0.265363 0.116126
O O3 0.500000 0.000000 0.076937
O O4 0.526173 0.201936 0.000000
O O5 0.775742 0.267545 0.694895
O O6 0.520437 0.286925 0.638970
O O7 0.711616 0.082399 0.616597
O O8 0.722168 0.786582 0.693009
O O9 0.976197 0.803964 0.746822
O O10 0.820028 0.302173 0.081247
O O11 0.000000 0.500000 0.058225
O O12 0.017893 0.262716 0.000000
#
# Coordination Sequence:
#
# PCOD9544428 Si02
#       5
#     8   8   8   8   8
#     4  11  25  45  67  97 137 177 218 273 338 399
#     4  11  23  41  66  97 130 173 221 276 333 393
#     4  11  24  42  63  90 136 180 223 272 335 408
#     4   9  18  36  63  95 127 159 206 265 328 395
#     4  11  23  41  66  97 130 173 221 276 333 393
#
# _framework density 20.326630000000002
#
# number of rings (size 3 to 8) (size 9 to 14) (size 15 to 20)
#    0.000    1.400    2.000    3.000    2.800    3.200 
#    0.000    0.000    0.000    4.800    0.000    0.000 
#    0.000    0.000    0.000    0.000    0.000    0.000 
#
# Total GULP energy -222966.150677 kJ/mol
# GULP energy per Si atom -5574.153767 kJ/mol
# Density = 2.028037 g / cm^3
# Si number density = 20.326630 Si / 1000 Ang^3
#
#
#
# Elastic Constant Matrix: (Units=GPa)
#
#
# Indices 1 2 3 4 5 6 
#
# 1 64.6393 18.5454 21.6295 0.0000 0.0000 4.4775
# 2 18.5454 64.6393 21.6295 0.0000 0.0000 -4.4775
# 3 21.6295 21.6295 117.0764 0.0000 0.0000 0.0000
# 4 0.0000 0.0000 0.0000 55.9929 0.0000 0.0000
# 5 0.0000 0.0000 0.0000 0.0000 55.9929 0.0000
# 6 4.4775 -4.4775 0.0000 0.0000 0.0000 23.6534
#
#
#
# Elastic Compliance Matrix: (Units=1/GPa)
#
#
# Indices 1 2 3 4 5 6 
#
# 1 0.017911 -0.004612 -0.002457 0.000000 0.000000 -0.004264
# 2 -0.004612 0.017911 -0.002457 0.000000 0.000000 0.004264
# 3 -0.002457 -0.002457 0.009449 0.000000 0.000000 0.000000
# 4 0.000000 0.000000 0.000000 0.017859 0.000000 0.000000
# 5 0.000000 0.000000 0.000000 0.000000 0.017859 0.000000
# 6 -0.004264 0.004264 0.000000 0.000000 0.000000 0.043891
#
#
# Mechanical properties :
#
#
# Convention : Reuss Voigt Hill
#
# Bulk Modulus (GPa) = 38.13932 41.10710 39.62321
# Shear Modulus (GPa) = 32.74960 39.43122 36.09041
#
# Velocity S-wave (km/s) = 4.01829 4.40918 4.21827
# Velocity P-wave (km/s) = 6.35081 6.79620 6.57728
#
# Compressibility (1/GPa) = 0.02621966
#
# Stress axis : x y z
#
# Youngs Moduli (GPa) = 55.83112 55.83112 105.82831
#
# Poissons Ratio (x) = 0.25749 0.26002
# Poissons Ratio (y) = 0.25749 0.26002
# Poissons Ratio (z) = 0.13718 0.13718
#
# Static dielectric constant tensor:
#      x y z
#    x 2.002260 0.000000 0.000000 
#    y 0.000000 2.002260 0.000000 
#    z 0.000000 0.000000 1.691280 
# 
# From -- ./inp_files/4802.got.cif
#   From: 2010.05.17/outbox.cif.g08.bks.cpg/sg84_3_cif.got.tgz:4802.got - 2010.06.03 18:57:40.
