data_PCOD9544701
_publ_section_title
;
Structure prediction by ZEFSAII (Michael W. Deem and Ramdas Pophale) SiO2 
 PCOD9544701
Probable space group: P 4/N
;
_chemical_formula_sum "Si O2"
_cell_formula_units_Z 56
_cell_length_a 14.763612
_cell_length_b 14.763612
_cell_length_c 13.238328
_cell_angle_alpha 90.000000
_cell_angle_beta 90.000000
_cell_angle_gamma 90.000000
_cell_volume 2885.482092
_symmetry_space_group_name_H-M "P 4/N"
_symmetry_group_IT_number 85
_symmetry_cell_setting 'tetragonal'
loop_
_space_group_symop_operation_xyz
x,y,z
1/2-y,x,z
1/2-x,1/2-y,z
y,1/2-x,z
-x,-y,-z
1/2+y,-x,-z
1/2+x,1/2+y,-z
-y,1/2+x,-z
loop_
_atom_site_type_symbol
_atom_site_label
_atom_site_fract_x
_atom_site_fract_y
_atom_site_fract_z
Si Si1 0.145381 0.143256 0.491493
Si Si2 0.128817 0.343402 0.084938
Si Si3 0.132767 0.036393 0.293163
Si Si4 0.738038 0.104002 0.622224
Si Si5 0.848931 0.866813 0.139028
Si Si6 0.251514 0.900386 0.617154
Si Si7 0.469479 0.399337 0.675215
O O1 0.251266 0.128380 0.510229
O O2 0.128803 0.115259 0.376440
O O3 0.084825 0.089341 0.570890
O O4 0.128488 0.234024 0.091249
O O5 0.073017 0.376352 0.180529
O O6 0.097731 0.372891 0.973068
O O7 0.226106 0.979987 0.312378
O O8 0.050914 0.969351 0.317991
O O9 0.641035 0.152300 0.642245
O O10 0.815388 0.180769 0.634376
O O11 0.742937 0.080100 0.503085
O O12 0.740370 0.871716 0.145544
O O13 0.902030 0.910426 0.231254
O O14 0.299037 0.983512 0.673972
#
# Coordination Sequence:
#
# PCOD9544701 Si02
#       7
#     8   8   8   8   8   8   8
#     4  11  23  38  54  74 107 149 188 224 270 323
#     4   9  19  38  60  76  97 137 184 223 266 323
#     4  11  21  33  54  84 114 140 175 226 276 325
#     4   8  15  29  48  72 108 151 182 203 244 316
#     4   9  19  38  60  76  97 137 184 223 266 323
#     4   8  15  29  48  72 108 151 182 203 244 316
#     4  11  21  33  54  84 114 140 175 226 276 325
#
# _framework density 19.407502000000001
#
# number of rings (size 3 to 8) (size 9 to 14) (size 15 to 20)
#    0.000    2.429    0.000    4.714    0.000    2.857 
#    0.000    8.571    0.000    1.714    0.000    0.000 
#    0.000    0.000    0.000    1.143    0.000    0.000 
#
# Total GULP energy -312498.781890 kJ/mol
# GULP energy per Si atom -5580.335391 kJ/mol
# Density = 1.936333 g / cm^3
# Si number density = 19.407502 Si / 1000 Ang^3
#
#
#
# Elastic Constant Matrix: (Units=GPa)
#
#
# Indices 1 2 3 4 5 6 
#
# 1 53.0853 5.3108 6.2642 0.0000 0.0000 -4.3319
# 2 5.3108 53.0853 6.2642 0.0000 0.0000 4.3319
# 3 6.2642 6.2642 59.5735 0.0000 0.0000 0.0000
# 4 0.0000 0.0000 0.0000 13.9549 0.0000 0.0000
# 5 0.0000 0.0000 0.0000 0.0000 13.9549 0.0000
# 6 -4.3319 4.3319 0.0000 0.0000 0.0000 6.7608
#
#
#
# Elastic Compliance Matrix: (Units=1/GPa)
#
#
# Indices 1 2 3 4 5 6 
#
# 1 0.020602 -0.003082 -0.001842 0.000000 0.000000 0.015175
# 2 -0.003082 0.020602 -0.001842 0.000000 0.000000 -0.015175
# 3 -0.001842 -0.001842 0.017173 0.000000 0.000000 0.000000
# 4 0.000000 0.000000 0.000000 0.071659 0.000000 0.000000
# 5 0.000000 0.000000 0.000000 0.000000 0.071659 0.000000
# 6 0.015175 -0.015175 0.000000 0.000000 0.000000 0.167357
#
#
# Mechanical properties :
#
#
# Convention : Reuss Voigt Hill
#
# Bulk Modulus (GPa) = 22.29960 22.38031 22.33995
# Shear Modulus (GPa) = 12.57755 16.79444 14.68600
#
# Velocity S-wave (km/s) = 2.54850 2.94489 2.75383
# Velocity P-wave (km/s) = 4.49165 4.80832 4.65268
#
# Compressibility (1/GPa) = 0.04484385
#
# Stress axis : x y z
#
# Youngs Moduli (GPa) = 48.53984 48.53984 58.22960
#
# Poissons Ratio (x) = 0.14960 0.10727
# Poissons Ratio (y) = 0.14960 0.10727
# Poissons Ratio (z) = 0.08942 0.08942
#
# Static dielectric constant tensor:
#      x y z
#    x 1.710970 0.000000 0.000000 
#    y 0.000000 1.710970 0.000000 
#    z 0.000000 0.000000 1.654140 
# 
# From -- ./inp_files/1772.got.cif
#   From: 2010.05.17/outbox.cif.g08.bks.cpg/sg85_cif.got.tgz:1772.got - 2010.06.03 19:01:16.
