data_PCOD9544914
_publ_section_title
;
Structure prediction by ZEFSAII (Michael W. Deem and Ramdas Pophale) SiO2 
 PCOD9544914
Probable space group: P 42/N
;
_chemical_formula_sum "Si O2"
_cell_formula_units_Z 64
_cell_length_a 12.440429
_cell_length_b 12.440429
_cell_length_c 23.078476
_cell_angle_alpha 90.000000
_cell_angle_beta 90.000000
_cell_angle_gamma 90.000000
_cell_volume 3571.723576
_symmetry_space_group_name_H-M "P 42/N"
_symmetry_group_IT_number 86
_space_group.IT_coordinate_system_code '2'
_symmetry_cell_setting 'tetragonal'
loop_
_space_group_symop_operation_xyz
x,y,z
-y,1/2+x,1/2+z
1/2-x,1/2-y,z
1/2+y,-x,1/2+z
-x,-y,-z
y,1/2-x,1/2-z
1/2+x,1/2+y,-z
1/2-y,x,1/2-z
loop_
_atom_site_type_symbol
_atom_site_label
_atom_site_fract_x
_atom_site_fract_y
_atom_site_fract_z
Si Si1 0.740909 0.122747 0.539881
Si Si2 0.919313 0.471665 0.729471
Si Si3 0.483024 0.877983 0.392919
Si Si4 0.384977 0.540495 0.647873
Si Si5 0.672790 0.021032 0.424742
Si Si6 0.626018 0.225323 0.369411
Si Si7 0.634255 0.064872 0.127932
Si Si8 0.171975 0.939690 0.259074
O O1 0.750000 0.250000 0.523779
O O2 0.628481 0.102391 0.572959
O O3 0.735273 0.047978 0.483656
O O4 0.842256 0.104789 0.581923
O O5 0.973282 0.434015 0.669974
O O6 0.947550 0.390925 0.782405
O O7 0.791038 0.474683 0.722229
O O8 0.964435 0.587194 0.749296
O O9 0.483856 0.750273 0.384901
O O10 0.589455 0.923455 0.423778
O O11 0.266053 0.514308 0.624156
O O12 0.425385 0.657386 0.624713
O O13 0.470020 0.451736 0.629196
O O14 0.599170 0.126541 0.410721
O O15 0.750000 0.250000 0.380822
O O16 0.614364 0.186695 0.303425
O O17 0.634697 0.122302 0.190953
#
# Coordination Sequence:
#
# PCOD9544914 Si02
#       8
#     8   8   8   8   8   8   8   8
#     4  10  21  38  60  85 112 151 196 245 278 336
#     4  10  20  34  57  86 116 149 187 235 290 335
#     4  11  22  35  58  87 114 155 187 241 287 342
#     4   9  21  35  55  86 113 152 190 238 285 344
#     4  11  21  38  58  84 116 149 195 235 289 336
#     4   9  18  31  56  81 107 145 189 238 271 332
#     4  10  22  36  56  84 117 149 194 232 289 345
#     4  10  19  34  55  83 115 145 187 232 286 340
#
# _framework density 17.918520999999998
#
# number of rings (size 3 to 8) (size 9 to 14) (size 15 to 20)
#    0.000    2.000    2.500    1.500    5.250    1.250 
#    0.000    0.000    0.000    3.750    0.000    0.000 
#    0.000    0.000    0.000    0.000    0.000    0.000 
#
# Total GULP energy -356779.459396 kJ/mol
# GULP energy per Si atom -5574.679053 kJ/mol
# Density = 1.787774 g / cm^3
# Si number density = 17.918521 Si / 1000 Ang^3
#
#
#
# Elastic Constant Matrix: (Units=GPa)
#
#
# Indices 1 2 3 4 5 6 
#
# 1 75.5985 44.4301 27.7636 0.0000 0.0000 8.2035
# 2 44.4301 75.5985 27.7636 0.0000 0.0000 -8.2035
# 3 27.7636 27.7636 45.8509 0.0000 0.0000 0.0000
# 4 0.0000 0.0000 0.0000 19.2335 0.0000 0.0000
# 5 0.0000 0.0000 0.0000 0.0000 19.2335 0.0000
# 6 8.2035 -8.2035 0.0000 0.0000 0.0000 -0.0627
#
#
#
# Elastic Compliance Matrix: (Units=1/GPa)
#
#
# Indices 1 2 3 4 5 6 
#
# 1 0.006016 0.005557 -0.007008 0.000000 0.000000 0.060078
# 2 0.005557 0.006016 -0.007008 0.000000 0.000000 -0.060078
# 3 -0.007008 -0.007008 0.030297 0.000000 0.000000 0.000000
# 4 0.000000 0.000000 0.000000 0.051993 0.000000 0.000000
# 5 0.000000 0.000000 0.000000 0.000000 0.051993 0.000000
# 6 0.060078 -0.060078 0.000000 0.000000 0.000000 -0.228261
#
#
# Mechanical properties :
#
#
# Convention : Reuss Voigt Hill
#
# Bulk Modulus (GPa) = 39.35183 44.10697 41.72940
# Shear Modulus (GPa) = -88.40397 14.15354 -37.12521
#
# Velocity S-wave (km/s) = -7.03162 2.81354 -4.55674
# Velocity P-wave (km/s) = 6.62690 5.93493 2.08476
#
# Compressibility (1/GPa) = 0.02541178
#
# Stress axis : x y z
#
# Youngs Moduli (GPa) = 166.21789 166.21789 33.00695
#
# Poissons Ratio (x) = -0.92369 0.23131
# Poissons Ratio (y) = -0.92369 0.23131
# Poissons Ratio (z) = 1.16483 1.16483
#
# Static dielectric constant tensor:
#      x y z
#    x 1.613670 0.000000 0.000000 
#    y 0.000000 1.613670 0.000000 
#    z 0.000000 0.000000 1.641240 
# 
# From -- ./inp_files/4705.got.cif
#   From: 2010.05.17/outbox.cif.g08.bks.cpg/sg86_3_cif.got.tgz:4705.got - 2010.06.03 19:03:11.
