data_PCOD9544070
_publ_section_title
;
Structure prediction by ZEFSAII (Michael W. Deem and Ramdas Pophale) SiO2 
 PCOD9544070
Probable space group: P 42/M
;
_chemical_formula_sum "Si O2"
_cell_formula_units_Z 40
_cell_length_a 8.966724
_cell_length_b 8.966724
_cell_length_c 23.652088
_cell_angle_alpha 90.000000
_cell_angle_beta 90.000000
_cell_angle_gamma 90.000000
_cell_volume 1901.678474
_symmetry_space_group_name_H-M "P 42/M"
_symmetry_group_IT_number 84
_symmetry_cell_setting 'tetragonal'
loop_
_space_group_symop_operation_xyz
x,y,z
-y,x,1/2+z
-x,-y,z
y,-x,1/2+z
-x,-y,-z
y,-x,1/2-z
x,y,-z
-y,x,1/2-z
loop_
_atom_site_type_symbol
_atom_site_label
_atom_site_fract_x
_atom_site_fract_y
_atom_site_fract_z
Si Si1 0.339519 0.083763 0.936030
Si Si2 0.339611 0.459223 0.431644
Si Si3 0.829584 0.773423 0.634886
Si Si4 0.800667 0.044925 0.284452
Si Si5 0.595572 0.269417 0.243654
O O1 0.398142 0.240500 0.914201
O O2 0.500000 0.000000 0.939579
O O3 0.238616 0.990500 0.894166
O O4 0.279167 0.091793 0.000000
O O5 0.500000 0.500000 0.408715
O O6 0.337923 0.458862 0.500000
O O7 0.281297 0.298298 0.411643
O O8 0.807351 0.935837 0.661907
O O9 0.800518 0.652666 0.684673
O O10 0.649657 0.139120 0.285405
O O11 0.930466 0.166367 0.268751
O O12 0.423165 0.313141 0.246779
#
# Coordination Sequence:
#
# PCOD9544070 Si02
#       5
#     8   8   8   8   8
#     4   8  15  32  55  87 119 158 208 249 306 376
#     4   9  18  34  58  94 130 158 210 271 318 373
#     4  10  19  35  58  86 124 166 201 256 312 372
#     4   9  20  41  56  82 122 162 211 246 306 365
#     4  10  23  42  62  88 123 162 211 264 305 371
#
# _framework density 21.034050000000001
#
# number of rings (size 3 to 8) (size 9 to 14) (size 15 to 20)
#    0.000    2.800    0.000    1.800    2.800    3.200 
#   54.000    2.000    0.000    0.000    0.000   61.600 
#    0.000    0.000    0.000    0.000    0.000    0.000 
#
# Total GULP energy -222749.618108 kJ/mol
# GULP energy per Si atom -5568.740453 kJ/mol
# Density = 2.098618 g / cm^3
# Si number density = 21.034050 Si / 1000 Ang^3
#
#
#
# Elastic Constant Matrix: (Units=GPa)
#
#
# Indices 1 2 3 4 5 6 
#
# 1 114.9188 63.8415 44.5819 0.0000 0.0000 2.6563
# 2 63.8415 114.9188 44.5819 0.0000 0.0000 -2.6563
# 3 44.5819 44.5819 65.9269 0.0000 0.0000 0.0000
# 4 0.0000 0.0000 0.0000 15.6785 0.0000 0.0000
# 5 0.0000 0.0000 0.0000 0.0000 15.6785 0.0000
# 6 2.6563 -2.6563 0.0000 0.0000 0.0000 31.1691
#
#
#
# Elastic Compliance Matrix: (Units=1/GPa)
#
#
# Indices 1 2 3 4 5 6 
#
# 1 0.014097 -0.005656 -0.005708 0.000000 0.000000 -0.001683
# 2 -0.005656 0.014097 -0.005708 0.000000 0.000000 0.001683
# 3 -0.005708 -0.005708 0.022889 0.000000 0.000000 0.000000
# 4 0.000000 0.000000 0.000000 0.063781 0.000000 0.000000
# 5 0.000000 0.000000 0.000000 0.000000 0.063781 0.000000
# 6 -0.001683 0.001683 0.000000 0.000000 0.000000 0.032370
#
#
# Mechanical properties :
#
#
# Convention : Reuss Voigt Hill
#
# Bulk Modulus (GPa) = 59.03870 66.86391 62.95131
# Shear Modulus (GPa) = 19.93563 22.02251 20.97907
#
# Velocity S-wave (km/s) = 3.08194 3.23924 3.16157
# Velocity P-wave (km/s) = 6.38698 6.77109 6.58184
#
# Compressibility (1/GPa) = 0.01693804
#
# Stress axis : x y z
#
# Youngs Moduli (GPa) = 70.93564 70.93564 43.68986
#
# Poissons Ratio (x) = 0.40121 0.24940
# Poissons Ratio (y) = 0.40121 0.24940
# Poissons Ratio (z) = 0.40492 0.40492
#
# Static dielectric constant tensor:
#      x y z
#    x 1.842240 0.000000 0.000000 
#    y 0.000000 1.842240 0.000000 
#    z 0.000000 0.000000 1.839860 
# 
# From -- ./inp_files/5637.got.cif
#   From: 2010.05.17/outbox.cif.g08.bks.cpg/sg84_3_cif.got.tgz:5637.got - 2010.06.03 18:57:40.
