data_PCOD9544317
_publ_section_title
;
Structure prediction by ZEFSAII (Michael W. Deem and Ramdas Pophale) SiO2 
 PCOD9544317
Probable space group: P 42/M
;
_chemical_formula_sum "Si O2"
_cell_formula_units_Z 48
_cell_length_a 11.503378
_cell_length_b 11.503378
_cell_length_c 17.339123
_cell_angle_alpha 90.000000
_cell_angle_beta 90.000000
_cell_angle_gamma 90.000000
_cell_volume 2294.446360
_symmetry_space_group_name_H-M "P 42/M"
_symmetry_group_IT_number 84
_symmetry_cell_setting 'tetragonal'
loop_
_space_group_symop_operation_xyz
x,y,z
-y,x,1/2+z
-x,-y,z
y,-x,1/2+z
-x,-y,-z
y,-x,1/2-z
x,y,-z
-y,x,1/2-z
loop_
_atom_site_type_symbol
_atom_site_label
_atom_site_fract_x
_atom_site_fract_y
_atom_site_fract_z
Si Si1 0.750901 0.674089 0.090604
Si Si2 0.200473 0.784492 0.086389
Si Si3 0.360762 0.996816 0.666563
Si Si4 0.452920 0.277424 0.812400
Si Si5 0.576284 0.650051 0.636280
Si Si6 0.388223 0.937696 0.837668
O O1 0.873880 0.681387 0.133171
O O2 0.657296 0.753057 0.135466
O O3 0.702150 0.542591 0.102814
O O4 0.759162 0.698895 0.000000
O O5 0.293921 0.680094 0.087643
O O6 0.272673 0.895378 0.118688
O O7 0.095632 0.724110 0.133251
O O8 0.160651 0.809374 0.000000
O O9 0.357134 0.004772 0.759253
O O10 0.500000 0.000000 0.645448
O O11 0.418035 0.308826 0.725842
O O12 0.516142 0.385561 0.854449
O O13 0.550425 0.180127 0.807864
O O14 0.500000 0.000000 0.878268
#
# Coordination Sequence:
#
# PCOD9544317 Si02
#       6
#     8   8   8   8   8   8
#     4  12  23  33  54  86 124 167 208 263 330 389
#     4  11  23  38  62  96 130 161 213 281 335 388
#     4  11  21  39  63  91 126 170 218 267 330 401
#     4  11  21  35  56  84 123 167 217 260 314 398
#     4  11  19  34  54  81 124 170 206 253 325 397
#     4  10  22  42  68  90 121 173 220 264 324 401
#
# _framework density 20.920079000000001
#
# number of rings (size 3 to 8) (size 9 to 14) (size 15 to 20)
#    0.000    1.000    5.000    3.500    0.000    5.000 
#    0.000    0.000    0.000    3.500    0.000    5.833 
#    0.000    0.000    0.000    0.000    0.000    0.000 
#
# Total GULP energy -267691.970306 kJ/mol
# GULP energy per Si atom -5576.916048 kJ/mol
# Density = 2.087246 g / cm^3
# Si number density = 20.920079 Si / 1000 Ang^3
#
#
#
# Elastic Constant Matrix: (Units=GPa)
#
#
# Indices 1 2 3 4 5 6 
#
# 1 76.7342 16.6977 25.5551 0.0000 0.0000 2.2643
# 2 16.6977 76.7342 25.5551 0.0000 0.0000 -2.2643
# 3 25.5551 25.5551 72.5359 0.0000 0.0000 0.0000
# 4 0.0000 0.0000 0.0000 26.8044 0.0000 0.0000
# 5 0.0000 0.0000 0.0000 0.0000 26.8044 0.0000
# 6 2.2643 -2.2643 0.0000 0.0000 0.0000 39.0346
#
#
#
# Elastic Compliance Matrix: (Units=1/GPa)
#
#
# Indices 1 2 3 4 5 6 
#
# 1 0.014994 -0.001736 -0.004671 0.000000 0.000000 -0.000970
# 2 -0.001736 0.014994 -0.004671 0.000000 0.000000 0.000970
# 3 -0.004671 -0.004671 0.017078 0.000000 0.000000 0.000000
# 4 0.000000 0.000000 0.000000 0.037307 0.000000 0.000000
# 5 0.000000 0.000000 0.000000 0.000000 0.037307 0.000000
# 6 -0.000970 0.000970 0.000000 0.000000 0.000000 0.025731
#
#
# Mechanical properties :
#
#
# Convention : Reuss Voigt Hill
#
# Bulk Modulus (GPa) = 40.14459 40.17998 40.16229
# Shear Modulus (GPa) = 28.11048 29.07512 28.59280
#
# Velocity S-wave (km/s) = 3.66964 3.73207 3.70099
# Velocity P-wave (km/s) = 6.09805 6.14974 6.12395
#
# Compressibility (1/GPa) = 0.02490996
#
# Stress axis : x y z
#
# Youngs Moduli (GPa) = 66.69360 66.69360 58.55652
#
# Poissons Ratio (x) = 0.11577 0.27352
# Poissons Ratio (y) = 0.11577 0.27352
# Poissons Ratio (z) = 0.31152 0.31152
#
# Static dielectric constant tensor:
#      x y z
#    x 1.817300 0.000000 0.000000 
#    y 0.000000 1.817300 0.000000 
#    z 0.000000 0.000000 1.728680 
# 
# From -- ./inp_files/3725.got.cif
#   From: 2010.05.17/outbox.cif.g08.bks.cpg/sg84_2_cif.got.tgz:3725.got - 2010.06.03 18:57:40.
