data_PCOD9544442
_publ_section_title
;
Structure prediction by ZEFSAII (Michael W. Deem and Ramdas Pophale) SiO2 
 PCOD9544442
Probable space group: P 42/M
;
_chemical_formula_sum "Si O2"
_cell_formula_units_Z 40
_cell_length_a 11.424143
_cell_length_b 11.424143
_cell_length_c 13.265761
_cell_angle_alpha 90.000000
_cell_angle_beta 90.000000
_cell_angle_gamma 90.000000
_cell_volume 1731.328308
_symmetry_space_group_name_H-M "P 42/M"
_symmetry_group_IT_number 84
_symmetry_cell_setting 'tetragonal'
loop_
_space_group_symop_operation_xyz
x,y,z
-y,x,1/2+z
-x,-y,z
y,-x,1/2+z
-x,-y,-z
y,-x,1/2-z
x,y,-z
-y,x,1/2-z
loop_
_atom_site_type_symbol
_atom_site_label
_atom_site_fract_x
_atom_site_fract_y
_atom_site_fract_z
Si Si1 0.934687 0.124707 0.615802
Si Si2 0.801983 0.546291 0.878472
Si Si3 0.710978 0.694011 0.379570
Si Si4 0.921514 0.722565 0.760017
Si Si5 0.373220 0.552317 0.620118
O O1 0.952244 0.160219 0.500000
O O2 0.802097 0.093546 0.641441
O O3 0.972446 0.226517 0.693670
O O4 0.000000 0.000000 0.632666
O O5 0.755311 0.414271 0.858398
O O6 0.905015 0.594089 0.807547
O O7 0.688214 0.629155 0.852640
O O8 0.825060 0.552859 0.000000
O O9 0.727776 0.703564 0.500000
O O10 0.816351 0.747243 0.318315
O O11 0.710469 0.554599 0.353002
O O12 0.500000 0.500000 0.646530
O O13 0.369960 0.556024 0.500000
#
# Coordination Sequence:
#
# PCOD9544442 Si02
#       5
#     8   8   8   8   8
#     4  11  24  46  69  88 107 141 202 266 302 338
#     4   9  19  34  56  89 127 163 199 239 284 340
#     4   9  19  34  56  89 127 163 199 239 284 340
#     4  12  21  38  65  92 114 152 196 248 295 358
#     4   7  12  28  50  77 118 163 202 235 267 316
#
# _framework density 23.103646000000001
#
# number of rings (size 3 to 8) (size 9 to 14) (size 15 to 20)
#    0.000    2.400    2.000    3.600    2.800    0.000 
#    0.000    1.000    0.000    3.600    0.000    0.000 
#    0.000    0.000    0.000    0.000    0.000    0.000 
#
# Total GULP energy -223049.813595 kJ/mol
# GULP energy per Si atom -5576.245340 kJ/mol
# Density = 2.305106 g / cm^3
# Si number density = 23.103646 Si / 1000 Ang^3
#
#
#
# Elastic Constant Matrix: (Units=GPa)
#
#
# Indices 1 2 3 4 5 6 
#
# 1 35.5588 17.1890 11.2067 0.0000 0.0000 2.4329
# 2 17.1890 35.5588 11.2067 0.0000 0.0000 -2.4329
# 3 11.2067 11.2067 113.9119 0.0000 0.0000 0.0000
# 4 0.0000 0.0000 0.0000 25.5036 0.0000 0.0000
# 5 0.0000 0.0000 0.0000 0.0000 25.5036 0.0000
# 6 2.4329 -2.4329 0.0000 0.0000 0.0000 24.4503
#
#
#
# Elastic Compliance Matrix: (Units=1/GPa)
#
#
# Indices 1 2 3 4 5 6 
#
# 1 0.037848 -0.018063 -0.001946 0.000000 0.000000 -0.005563
# 2 -0.018063 0.037848 -0.001946 0.000000 0.000000 0.005563
# 3 -0.001946 -0.001946 0.009162 0.000000 0.000000 0.000000
# 4 0.000000 0.000000 0.000000 0.039210 0.000000 0.000000
# 5 0.000000 0.000000 0.000000 0.000000 0.039210 0.000000
# 6 -0.005563 0.005563 0.000000 0.000000 0.000000 0.042007
#
#
# Mechanical properties :
#
#
# Convention : Reuss Voigt Hill
#
# Bulk Modulus (GPa) = 24.42225 29.35935 26.89080
# Shear Modulus (GPa) = 19.02265 24.78664 21.90464
#
# Velocity S-wave (km/s) = 2.87254 3.27899 3.08247
# Velocity P-wave (km/s) = 4.64711 5.20297 4.93288
#
# Compressibility (1/GPa) = 0.04094627
#
# Stress axis : x y z
#
# Youngs Moduli (GPa) = 26.42149 26.42149 109.15003
#
# Poissons Ratio (x) = 0.47724 0.21246
# Poissons Ratio (y) = 0.47724 0.21246
# Poissons Ratio (z) = 0.05143 0.05143
#
# Static dielectric constant tensor:
#      x y z
#    x 1.941120 0.000000 0.000000 
#    y 0.000000 1.941120 0.000000 
#    z 0.000000 0.000000 1.876670 
# 
# From -- ./inp_files/2906.got.cif
#   From: 2010.05.17/outbox.cif.g08.bks.cpg/sg84_2_cif.got.tgz:2906.got - 2010.06.03 18:57:40.
