data_PCOD9544284
_publ_section_title
;
Structure prediction by ZEFSAII (Michael W. Deem and Ramdas Pophale) SiO2 
 PCOD9544284
Probable space group: P 42/M
;
_chemical_formula_sum "Si O2"
_cell_formula_units_Z 56
_cell_length_a 15.764991
_cell_length_b 15.764991
_cell_length_c 12.356218
_cell_angle_alpha 90.000000
_cell_angle_beta 90.000000
_cell_angle_gamma 90.000000
_cell_volume 3070.951914
_symmetry_space_group_name_H-M "P 42/M"
_symmetry_group_IT_number 84
_symmetry_cell_setting 'tetragonal'
loop_
_space_group_symop_operation_xyz
x,y,z
-y,x,1/2+z
-x,-y,z
y,-x,1/2+z
-x,-y,-z
y,-x,1/2-z
x,y,-z
-y,x,1/2-z
loop_
_atom_site_type_symbol
_atom_site_label
_atom_site_fract_x
_atom_site_fract_y
_atom_site_fract_z
Si Si1 0.898151 0.984925 0.618497
Si Si2 0.329875 0.202766 0.127144
Si Si3 0.855386 0.687278 0.630387
Si Si4 0.409145 0.029208 0.869068
Si Si5 0.509075 0.602380 0.379259
Si Si6 0.629538 0.319240 0.774924
Si Si7 0.151537 0.153350 0.788680
O O1 0.884059 0.945686 0.500000
O O2 0.850080 0.073614 0.629232
O O3 0.861830 0.930130 0.716329
O O4 0.000000 0.000000 0.627467
O O5 0.387773 0.124437 0.167274
O O6 0.332994 0.287598 0.198899
O O7 0.236636 0.163040 0.143724
O O8 0.346048 0.220815 0.000000
O O9 0.847715 0.696911 0.500000
O O10 0.775022 0.632163 0.674186
O O11 0.849732 0.772807 0.699528
O O12 0.949627 0.651660 0.654247
O O13 0.500000 0.000000 0.828379
O O14 0.411220 0.035344 0.000000
O O15 0.500000 0.500000 0.364204
O O16 0.478967 0.620660 0.500000
O O17 0.606989 0.627762 0.364664
O O18 0.452451 0.656153 0.296383
#
# Coordination Sequence:
#
# PCOD9544284 Si02
#       7
#     8   8   8   8   8   8   8
#     4  11  21  32  52  80 110 146 186 233 290 346
#     4  10  22  36  56  82 113 148 189 239 280 332
#     4  10  22  36  56  82 113 148 189 239 280 332
#     4   9  19  34  52  77 104 140 184 226 275 314
#     4  11  22  38  60  89 122 151 187 234 292 355
#     4  11  21  38  58  86 119 153 190 228 296 347
#     4  11  19  36  52  76 113 143 188 226 282 339
#
# _framework density 18.235388
#
# number of rings (size 3 to 8) (size 9 to 14) (size 15 to 20)
#    0.000    1.571    2.857    2.571    2.000    0.000 
#    0.000    0.000    0.000    0.000    0.000    1.000 
#    0.000    0.000    0.000    0.000    0.000    0.000 
#
# Total GULP energy -312059.404754 kJ/mol
# GULP energy per Si atom -5572.489371 kJ/mol
# Density = 1.819388 g / cm^3
# Si number density = 18.235388 Si / 1000 Ang^3
#
#
#
# Elastic Constant Matrix: (Units=GPa)
#
#
# Indices 1 2 3 4 5 6 
#
# 1 36.8072 -14.7472 -3.6379 0.0000 0.0000 1.8225
# 2 -14.7472 36.8072 -3.6379 0.0000 0.0000 -1.8225
# 3 -3.6379 -3.6379 67.0170 0.0000 0.0000 0.0000
# 4 0.0000 0.0000 0.0000 11.7872 0.0000 0.0000
# 5 0.0000 0.0000 0.0000 0.0000 11.7872 0.0000
# 6 1.8225 -1.8225 0.0000 0.0000 0.0000 29.2204
#
#
#
# Elastic Compliance Matrix: (Units=1/GPa)
#
#
# Indices 1 2 3 4 5 6 
#
# 1 0.032820 0.013337 0.002506 0.000000 0.000000 -0.001215
# 2 0.013337 0.032820 0.002506 0.000000 0.000000 0.001215
# 3 0.002506 0.002506 0.015194 0.000000 0.000000 0.000000
# 4 0.000000 0.000000 0.000000 0.084838 0.000000 0.000000
# 5 0.000000 0.000000 0.000000 0.000000 0.084838 0.000000
# 6 -0.001215 0.001215 0.000000 0.000000 0.000000 0.034374
#
#
# Mechanical properties :
#
#
# Convention : Reuss Voigt Hill
#
# Bulk Modulus (GPa) = 8.50843 10.73171 9.62007
# Shear Modulus (GPa) = 17.39954 21.40259 19.40106
#
# Velocity S-wave (km/s) = 3.09231 3.42962 3.26532
# Velocity P-wave (km/s) = 4.17442 4.64553 4.41626
#
# Compressibility (1/GPa) = 0.11753052
#
# Stress axis : x y z
#
# Youngs Moduli (GPa) = 30.46913 30.46913 65.81717
#
# Poissons Ratio (x) = -0.40637 -0.16491
# Poissons Ratio (y) = -0.40637 -0.16491
# Poissons Ratio (z) = -0.07634 -0.07634
#
# Static dielectric constant tensor:
#      x y z
#    x 1.688740 0.000000 0.000000 
#    y 0.000000 1.688740 0.000000 
#    z 0.000000 0.000000 1.621680 
# 
# From -- ./inp_files/2240.got.cif
#   From: 2010.05.17/outbox.cif.g08.bks.cpg/sg84_2_cif.got.tgz:2240.got - 2010.06.03 18:57:40.
