data_PCOD9544502
_publ_section_title
;
Structure prediction by ZEFSAII (Michael W. Deem and Ramdas Pophale) SiO2 
 PCOD9544502
Probable space group: P 4/N
;
_chemical_formula_sum "Si O2"
_cell_formula_units_Z 64
_cell_length_a 12.326315
_cell_length_b 12.326315
_cell_length_c 25.234360
_cell_angle_alpha 90.000000
_cell_angle_beta 90.000000
_cell_angle_gamma 90.000000
_cell_volume 3834.059236
_symmetry_space_group_name_H-M "P 4/N"
_symmetry_group_IT_number 85
_symmetry_cell_setting 'tetragonal'
loop_
_space_group_symop_operation_xyz
x,y,z
1/2-y,x,z
1/2-x,1/2-y,z
y,1/2-x,z
-x,-y,-z
1/2+y,-x,-z
1/2+x,1/2+y,-z
-y,1/2+x,-z
loop_
_atom_site_type_symbol
_atom_site_label
_atom_site_fract_x
_atom_site_fract_y
_atom_site_fract_z
Si Si1 0.134898 0.555184 0.053751
Si Si2 0.542492 0.360741 0.389887
Si Si3 0.754962 0.125255 0.312666
Si Si4 0.456616 0.888631 0.619677
Si Si5 0.268912 0.436240 0.773686
Si Si6 0.861349 0.392429 0.494772
Si Si7 0.875450 0.250779 0.861466
Si Si8 0.618377 0.449229 0.938173
O O1 0.124246 0.656627 0.093365
O O2 0.257377 0.513463 0.058328
O O3 0.047687 0.464113 0.067873
O O4 0.110794 0.592025 0.993664
O O5 0.658207 0.369359 0.360771
O O6 0.508916 0.236181 0.385731
O O7 0.461246 0.443557 0.363445
O O8 0.544548 0.391013 0.452056
O O9 0.750000 0.250000 0.290033
O O10 0.638486 0.104434 0.338136
O O11 0.779060 0.022675 0.274901
O O12 0.407939 0.922163 0.562278
O O13 0.155599 0.365254 0.773513
O O14 0.269994 0.522442 0.822563
O O15 0.894335 0.268650 0.506769
O O16 0.750000 0.250000 0.839375
O O17 0.892019 0.136254 0.890763
#
# Coordination Sequence:
#
# PCOD9544502 Si02
#       8
#     8   8   8   8   8   8   8   8
#     4  10  19  32  51  75 106 141 179 220 261 310
#     4  10  19  31  50  74 100 133 169 213 261 308
#     4  10  20  37  56  77  99 135 181 222 253 312
#     4  10  19  31  50  74 100 133 169 213 261 308
#     4  11  23  38  56  80 111 141 174 222 276 317
#     4   9  15  28  48  72  98 128 172 212 250 306
#     4  10  20  35  58  79 105 141 181 222 257 312
#     4  10  19  32  51  75 106 141 179 220 261 310
#
# _framework density 16.692492999999999
#
# number of rings (size 3 to 8) (size 9 to 14) (size 15 to 20)
#    0.000    2.000    2.500    2.250    0.000    0.500 
#    0.000    0.000    0.000    0.000    0.000    0.000 
#    0.000   18.000    0.000    0.000    0.000    0.000 
#
# Total GULP energy -356380.602534 kJ/mol
# GULP energy per Si atom -5568.446915 kJ/mol
# Density = 1.665450 g / cm^3
# Si number density = 16.692493 Si / 1000 Ang^3
#
#
#
# Elastic Constant Matrix: (Units=GPa)
#
#
# Indices 1 2 3 4 5 6 
#
# 1 52.5434 23.2634 1.4898 0.0000 0.0000 -0.5074
# 2 23.2634 52.5434 1.4898 0.0000 0.0000 0.5074
# 3 1.4898 1.4898 38.9175 0.0000 0.0000 0.0000
# 4 0.0000 0.0000 0.0000 17.3063 0.0000 0.0000
# 5 0.0000 0.0000 0.0000 0.0000 17.3063 0.0000
# 6 -0.5074 0.5074 0.0000 0.0000 0.0000 30.3950
#
#
#
# Elastic Compliance Matrix: (Units=1/GPa)
#
#
# Indices 1 2 3 4 5 6 
#
# 1 0.023692 -0.010481 -0.000506 0.000000 0.000000 0.000570
# 2 -0.010481 0.023692 -0.000506 0.000000 0.000000 -0.000570
# 3 -0.000506 -0.000506 0.025734 0.000000 0.000000 0.000000
# 4 0.000000 0.000000 0.000000 0.057782 0.000000 0.000000
# 5 0.000000 0.000000 0.000000 0.000000 0.057782 0.000000
# 6 0.000570 -0.000570 0.000000 0.000000 0.000000 0.032919
#
#
# Mechanical properties :
#
#
# Convention : Reuss Voigt Hill
#
# Bulk Modulus (GPa) = 19.94664 21.83226 20.88945
# Shear Modulus (GPa) = 19.13528 20.85230 19.99379
#
# Velocity S-wave (km/s) = 3.38944 3.53824 3.46464
# Velocity P-wave (km/s) = 5.22428 5.45891 5.34288
#
# Compressibility (1/GPa) = 0.05013375
#
# Stress axis : x y z
#
# Youngs Moduli (GPa) = 42.20833 42.20833 38.85890
#
# Poissons Ratio (x) = 0.44237 0.01965
# Poissons Ratio (y) = 0.44237 0.01965
# Poissons Ratio (z) = 0.02135 0.02135
#
# Static dielectric constant tensor:
#      x y z
#    x 1.547760 0.000000 0.000000 
#    y 0.000000 1.547760 0.000000 
#    z 0.000000 0.000000 1.568630 
# 
# From -- ./inp_files/2356.got.cif
#   From: 2010.05.17/outbox.cif.g08.bks.cpg/sg85_cif.got.tgz:2356.got - 2010.06.03 19:01:16.
