data_PCOD9544595
_publ_section_title
;
Structure prediction by ZEFSAII (Michael W. Deem and Ramdas Pophale) SiO2 
 PCOD9544595
Probable space group: P 4/N
;
_chemical_formula_sum "Si O2"
_cell_formula_units_Z 48
_cell_length_a 10.914470
_cell_length_b 10.914470
_cell_length_c 17.149157
_cell_angle_alpha 90.000000
_cell_angle_beta 90.000000
_cell_angle_gamma 90.000000
_cell_volume 2042.904567
_symmetry_space_group_name_H-M "P 4/N"
_symmetry_group_IT_number 85
_symmetry_cell_setting 'tetragonal'
loop_
_space_group_symop_operation_xyz
x,y,z
1/2-y,x,z
1/2-x,1/2-y,z
y,1/2-x,z
-x,-y,-z
1/2+y,-x,-z
1/2+x,1/2+y,-z
-y,1/2+x,-z
loop_
_atom_site_type_symbol
_atom_site_label
_atom_site_fract_x
_atom_site_fract_y
_atom_site_fract_z
Si Si1 0.648977 0.328703 0.768237
Si Si2 0.936710 0.556313 0.120290
Si Si3 0.552204 0.685688 0.478144
Si Si4 0.074707 0.153123 0.053289
Si Si5 0.705077 0.564334 0.268595
Si Si6 0.887768 0.300848 0.395852
O O1 0.750000 0.250000 0.812165
O O2 0.556898 0.396181 0.825302
O O3 0.577774 0.217380 0.721458
O O4 0.689767 0.412798 0.696838
O O5 0.924936 0.674744 0.175514
O O6 0.077136 0.531191 0.095346
O O7 0.862816 0.559722 0.039862
O O8 0.673647 0.602019 0.464936
O O9 0.438557 0.623732 0.431665
O O10 0.486485 0.712740 0.562225
O O11 0.204699 0.088391 0.072513
O O12 0.836154 0.611609 0.298202
O O13 0.750000 0.250000 0.408939
#
# Coordination Sequence:
#
# PCOD9544595 Si02
#       6
#     8   8   8   8   8   8
#     4  10  23  38  60  95 130 168 210 265 330 390
#     4  10  21  38  62  90 122 166 203 271 328 376
#     4  11  23  41  69  98 131 178 227 278 333 397
#     4  10  21  38  61  87 118 164 214 257 321 396
#     4   9  18  36  60  85 118 156 199 256 314 368
#     4  11  22  42  65  96 136 178 219 280 341 393
#
# _framework density 23.495961000000001
#
# number of rings (size 3 to 8) (size 9 to 14) (size 15 to 20)
#    0.000    1.833    1.667    2.500    2.333    5.333 
#    6.000    3.333    0.000    2.000    0.000    0.000 
#    0.000    0.000    0.000    0.000    0.000    0.000 
#
# Total GULP energy -267281.214821 kJ/mol
# GULP energy per Si atom -5568.358642 kJ/mol
# Density = 2.344248 g / cm^3
# Si number density = 23.495961 Si / 1000 Ang^3
#
#
#
# Elastic Constant Matrix: (Units=GPa)
#
#
# Indices 1 2 3 4 5 6 
#
# 1 47.7269 2.2456 13.0060 0.0000 0.0000 -8.9344
# 2 2.2456 47.7269 13.0060 0.0000 0.0000 8.9344
# 3 13.0060 13.0060 82.1865 0.0000 0.0000 0.0000
# 4 0.0000 0.0000 0.0000 24.9576 0.0000 0.0000
# 5 0.0000 0.0000 0.0000 0.0000 24.9576 0.0000
# 6 -8.9344 8.9344 0.0000 0.0000 0.0000 39.1197
#
#
#
# Elastic Compliance Matrix: (Units=1/GPa)
#
#
# Indices 1 2 3 4 5 6 
#
# 1 0.022981 -0.001174 -0.003451 0.000000 0.000000 0.005517
# 2 -0.001174 0.022981 -0.003451 0.000000 0.000000 -0.005517
# 3 -0.003451 -0.003451 0.013260 0.000000 0.000000 0.000000
# 4 0.000000 0.000000 0.000000 0.040068 0.000000 0.000000
# 5 0.000000 0.000000 0.000000 0.000000 0.040068 0.000000
# 6 0.005517 -0.005517 0.000000 0.000000 0.000000 0.028082
#
#
# Mechanical properties :
#
#
# Convention : Reuss Voigt Hill
#
# Bulk Modulus (GPa) = 23.21782 26.01729 24.61755
# Shear Modulus (GPa) = 25.25921 27.76583 26.51252
#
# Velocity S-wave (km/s) = 3.28234 3.44136 3.36279
# Velocity P-wave (km/s) = 4.92627 5.18534 5.05746
#
# Compressibility (1/GPa) = 0.04307036
#
# Stress axis : x y z
#
# Youngs Moduli (GPa) = 43.51440 43.51440 75.41645
#
# Poissons Ratio (x) = 0.05106 0.26026
# Poissons Ratio (y) = 0.05106 0.26026
# Poissons Ratio (z) = 0.15017 0.15017
#
# Static dielectric constant tensor:
#      x y z
#    x 1.913000 0.000000 0.000000 
#    y 0.000000 1.913000 0.000000 
#    z 0.000000 0.000000 1.985670 
# 
# From -- ./inp_files/2093.got.cif
#   From: 2010.05.17/outbox.cif.g08.bks.cpg/sg85_cif.got.tgz:2093.got - 2010.06.03 19:01:16.
