data_PCOD9544335
_publ_section_title
;
Structure prediction by ZEFSAII (Michael W. Deem and Ramdas Pophale) SiO2 
 PCOD9544335
Probable space group: P 42/M
;
_chemical_formula_sum "Si O2"
_cell_formula_units_Z 32
_cell_length_a 7.467678
_cell_length_b 7.467678
_cell_length_c 22.999548
_cell_angle_alpha 90.000000
_cell_angle_beta 90.000000
_cell_angle_gamma 90.000000
_cell_volume 1282.597732
_symmetry_space_group_name_H-M "P 42/M"
_symmetry_group_IT_number 84
_symmetry_cell_setting 'tetragonal'
loop_
_space_group_symop_operation_xyz
x,y,z
-y,x,1/2+z
-x,-y,z
y,-x,1/2+z
-x,-y,-z
y,-x,1/2-z
x,y,-z
-y,x,1/2-z
loop_
_atom_site_type_symbol
_atom_site_label
_atom_site_fract_x
_atom_site_fract_y
_atom_site_fract_z
Si Si1 0.552492 0.696274 0.608511
Si Si2 0.662808 0.858625 0.718299
Si Si3 0.930144 0.794411 0.563194
Si Si4 0.181123 0.193707 0.157443
O O1 0.500000 0.500000 0.587975
O O2 0.620331 0.696081 0.675488
O O3 0.717771 0.774487 0.572410
O O4 0.370084 0.808723 0.616332
O O5 0.715023 0.797616 0.781761
O O6 0.500000 0.000000 0.722665
O O7 0.809961 0.977085 0.682668
O O8 0.977356 0.717355 0.500000
O O9 0.041634 0.726551 0.618263
O O10 0.000000 0.000000 0.562639
#
# Coordination Sequence:
#
# PCOD9544335 Si02
#       4
#     8   8   8   8
#     4  11  26  43  67 106 149 184 237 306 383 455
#     4  10  23  40  67 106 143 186 233 297 384 462
#     4  11  25  47  73  99 137 196 257 311 364 437
#     4  11  24  42  71 103 144 189 244 303 373 460
#
# _framework density 24.949363999999999
#
# number of rings (size 3 to 8) (size 9 to 14) (size 15 to 20)
#    0.000    1.250    2.500    1.500   10.500    1.500 
#    0.000    3.750    0.000    0.000    0.000    0.000 
#    0.000    0.000    0.000    0.000    0.000    0.000 
#
# Total GULP energy -178700.588414 kJ/mol
# GULP energy per Si atom -5584.393388 kJ/mol
# Density = 2.489258 g / cm^3
# Si number density = 24.949364 Si / 1000 Ang^3
#
#
#
# Elastic Constant Matrix: (Units=GPa)
#
#
# Indices 1 2 3 4 5 6 
#
# 1 120.6177 29.7167 22.9419 0.0000 0.0000 -0.4824
# 2 29.7167 120.6177 22.9419 0.0000 0.0000 0.4824
# 3 22.9419 22.9419 119.7972 0.0000 0.0000 0.0000
# 4 0.0000 0.0000 0.0000 -14.9724 0.0000 0.0000
# 5 0.0000 0.0000 0.0000 0.0000 -14.9724 0.0000
# 6 -0.4824 0.4824 0.0000 0.0000 0.0000 29.5336
#
#
#
# Elastic Compliance Matrix: (Units=1/GPa)
#
#
# Indices 1 2 3 4 5 6 
#
# 1 0.009034 -0.001969 -0.001353 0.000000 0.000000 0.000180
# 2 -0.001969 0.009034 -0.001353 0.000000 0.000000 -0.000180
# 3 -0.001353 -0.001353 0.008866 0.000000 0.000000 0.000000
# 4 0.000000 0.000000 0.000000 -0.066790 0.000000 0.000000
# 5 0.000000 0.000000 0.000000 0.000000 -0.066790 0.000000
# 6 0.000180 -0.000180 0.000000 0.000000 0.000000 0.033866
#
#
# Mechanical properties :
#
#
# Convention : Reuss Voigt Hill
#
# Bulk Modulus (GPa) = 56.87184 56.91484 56.89334
# Shear Modulus (GPa) = -86.85166 18.94658 -33.95254
#
# Velocity S-wave (km/s) = -5.90650 2.75871 -3.69298
# Velocity P-wave (km/s) = 4.86531 5.74535 2.16076
#
# Compressibility (1/GPa) = 0.01758339
#
# Stress axis : x y z
#
# Youngs Moduli (GPa) = 110.69498 110.69498 112.79511
#
# Poissons Ratio (x) = 0.21796 0.15261
# Poissons Ratio (y) = 0.21796 0.15261
# Poissons Ratio (z) = 0.14976 0.14976
#
# Static dielectric constant tensor:
#      x y z
#    x 2.086820 0.000000 0.000000 
#    y 0.000000 2.086820 0.000000 
#    z 0.000000 0.000000 1.961180 
# 
# From -- ./inp_files/4722.got.cif
#   From: 2010.05.17/outbox.cif.g08.bks.cpg/sg84_3_cif.got.tgz:4722.got - 2010.06.03 18:57:40.
