data_PCOD9544617
_publ_section_title
;
Structure prediction by ZEFSAII (Michael W. Deem and Ramdas Pophale) SiO2 
 PCOD9544617
Probable space group: P 4/N
;
_chemical_formula_sum "Si O2"
_cell_formula_units_Z 32
_cell_length_a 9.611576
_cell_length_b 9.611576
_cell_length_c 12.464747
_cell_angle_alpha 90.000000
_cell_angle_beta 90.000000
_cell_angle_gamma 90.000000
_cell_volume 1151.523159
_symmetry_space_group_name_H-M "P 4/N"
_symmetry_group_IT_number 85
_symmetry_cell_setting 'tetragonal'
loop_
_space_group_symop_operation_xyz
x,y,z
1/2-y,x,z
1/2-x,1/2-y,z
y,1/2-x,z
-x,-y,-z
1/2+y,-x,-z
1/2+x,1/2+y,-z
-y,1/2+x,-z
loop_
_atom_site_type_symbol
_atom_site_label
_atom_site_fract_x
_atom_site_fract_y
_atom_site_fract_z
Si Si1 0.528234 0.255170 0.008326
Si Si2 0.972432 0.724443 0.545874
Si Si3 0.582622 0.301169 0.677044
Si Si4 0.062873 0.971945 0.827661
O O1 0.452011 0.159923 0.919353
O O2 0.633608 0.365589 0.950776
O O3 0.476552 0.351516 0.107258
O O4 0.899251 0.867911 0.576132
O O5 0.010192 0.266251 0.581947
O O6 0.823835 0.111469 0.241720
O O7 0.507953 0.419292 0.749233
O O8 0.693772 0.385937 0.606074
#
# Coordination Sequence:
#
# PCOD9544617 Si02
#       4
#     8   8   8   8
#     4   7  16  39  62 102 139 172 255 308 342 490
#     4  11  26  49  69 109 156 193 278 321 363 497
#     4  12  25  44  77 105 157 215 244 332 404 435
#     4  10  21  41  72 104 146 204 247 316 394 448
#
# _framework density 27.789279000000001
#
# number of rings (size 3 to 8) (size 9 to 14) (size 15 to 20)
#    1.500    0.500    2.500    0.750    0.000    6.000 
#    0.000    0.000    0.000    0.000    0.000    0.000 
#    0.000    0.000    0.000    0.000    0.000    0.000 
#
# Total GULP energy -178741.492966 kJ/mol
# GULP energy per Si atom -5585.671655 kJ/mol
# Density = 2.772603 g / cm^3
# Si number density = 27.789279 Si / 1000 Ang^3
#
#
#
# Elastic Constant Matrix: (Units=GPa)
#
#
# Indices 1 2 3 4 5 6 
#
# 1 102.0046 33.6099 61.9783 0.0000 0.0000 -1.0584
# 2 33.6099 102.0046 61.9783 0.0000 0.0000 1.0584
# 3 61.9783 61.9783 187.0927 0.0000 0.0000 0.0000
# 4 0.0000 0.0000 0.0000 67.0814 0.0000 0.0000
# 5 0.0000 0.0000 0.0000 0.0000 67.0814 0.0000
# 6 -1.0584 1.0584 0.0000 0.0000 0.0000 35.7116
#
#
#
# Elastic Compliance Matrix: (Units=1/GPa)
#
#
# Indices 1 2 3 4 5 6 
#
# 1 0.012605 -0.002029 -0.003504 0.000000 0.000000 0.000434
# 2 -0.002029 0.012605 -0.003504 0.000000 0.000000 -0.000434
# 3 -0.003504 -0.003504 0.007666 0.000000 0.000000 0.000000
# 4 0.000000 0.000000 0.000000 0.014907 0.000000 0.000000
# 5 0.000000 0.000000 0.000000 0.000000 0.014907 0.000000
# 6 0.000434 -0.000434 0.000000 0.000000 0.000000 0.028028
#
#
# Mechanical properties :
#
#
# Convention : Reuss Voigt Hill
#
# Bulk Modulus (GPa) = 67.54779 78.47057 73.00918
# Shear Modulus (GPa) = 43.96507 49.54392 46.75450
#
# Velocity S-wave (km/s) = 3.98186 4.22695 4.10624
# Velocity P-wave (km/s) = 6.74538 7.21955 6.98649
#
# Compressibility (1/GPa) = 0.01480433
#
# Stress axis : x y z
#
# Youngs Moduli (GPa) = 79.33138 79.33138 130.44224
#
# Poissons Ratio (x) = 0.16097 0.45702
# Poissons Ratio (y) = 0.16097 0.45702
# Poissons Ratio (z) = 0.27795 0.27795
#
# Static dielectric constant tensor:
#      x y z
#    x 2.229230 0.000000 0.000000 
#    y 0.000000 2.229230 0.000000 
#    z 0.000000 0.000000 2.186220 
# 
# From -- ./inp_files/1400.got.cif
#   From: 2010.05.17/outbox.cif.g08.bks.cpg/sg85_cif.got.tgz:1400.got - 2010.06.03 19:01:16.
