data_PCOD9544806
_publ_section_title
;
Structure prediction by ZEFSAII (Michael W. Deem and Ramdas Pophale) SiO2 
 PCOD9544806
Probable space group: P 4/N
;
_chemical_formula_sum "Si O2"
_cell_formula_units_Z 50
_cell_length_a 8.854575
_cell_length_b 8.854575
_cell_length_c 31.631647
_cell_angle_alpha 90.000000
_cell_angle_beta 90.000000
_cell_angle_gamma 90.000000
_cell_volume 2480.031786
_symmetry_space_group_name_H-M "P 4/N"
_symmetry_group_IT_number 85
_symmetry_cell_setting 'tetragonal'
loop_
_space_group_symop_operation_xyz
x,y,z
1/2-y,x,z
1/2-x,1/2-y,z
y,1/2-x,z
-x,-y,-z
1/2+y,-x,-z
1/2+x,1/2+y,-z
-y,1/2+x,-z
loop_
_atom_site_type_symbol
_atom_site_label
_atom_site_fract_x
_atom_site_fract_y
_atom_site_fract_z
Si Si1 0.397206 0.042903 0.374437
Si Si2 0.970933 0.620323 0.293303
Si Si3 0.750000 0.750000 0.196557
Si Si4 0.957895 0.891588 0.877335
Si Si5 0.940845 0.584621 0.041396
Si Si6 0.340301 0.589313 0.795233
Si Si7 0.580312 0.559676 0.457776
O O1 0.452900 0.216049 0.372411
O O2 0.454062 0.942459 0.335440
O O3 0.466108 0.979485 0.417791
O O4 0.947782 0.801648 0.292469
O O5 0.067394 0.586676 0.251314
O O6 0.759843 0.562713 0.198178
O O7 0.788334 0.951568 0.880752
O O8 0.039353 0.916315 0.832920
O O9 0.038788 0.971824 0.916328
O O10 0.953920 0.764431 0.041036
O O11 0.000000 0.500000 0.000000
O O12 0.250000 0.750000 0.796864
O O13 0.761659 0.545011 0.456631
O O14 0.500000 0.500000 0.500000
#
# Coordination Sequence:
#
# PCOD9544806 Si02
#       7
#     8   8   2   8   8   8   8
#     4  11  26  43  64  99 140 185 238 298 364 442
#     4  11  24  44  68  99 136 181 240 299 361 441
#     4  12  24  48  68 104 148 180 252 300 352 468
#     4  11  27  46  68 103 143 184 244 303 362 442
#     4  11  26  45  72 104 142 187 238 297 362 443
#     4  12  26  44  74 106 143 195 244 309 383 439
#     4  11  24  43  68  99 135 177 232 295 361 442
#
# _framework density 20.161033
#
# number of rings (size 3 to 8) (size 9 to 14) (size 15 to 20)
#    0.000    0.800    1.600    3.840    6.720    8.960 
#    0.000    1.600    0.000    0.000    0.000    0.000 
#    0.000    0.000    0.000    0.000    0.000    0.000 
#
# Total GULP energy -278949.322452 kJ/mol
# GULP energy per Si atom -5578.986449 kJ/mol
# Density = 2.011515 g / cm^3
# Si number density = 20.161033 Si / 1000 Ang^3
#
#
#
# Elastic Constant Matrix: (Units=GPa)
#
#
# Indices 1 2 3 4 5 6 
#
# 1 100.3360 113.3623 88.9575 0.0000 0.0000 5.5299
# 2 113.3623 100.3360 88.9575 0.0000 0.0000 -5.5299
# 3 88.9575 88.9575 198.2339 0.0000 0.0000 0.0000
# 4 0.0000 0.0000 0.0000 40.7198 0.0000 0.0000
# 5 0.0000 0.0000 0.0000 0.0000 40.7198 0.0000
# 6 5.5299 -5.5299 0.0000 0.0000 0.0000 34.1504
#
#
#
# Elastic Compliance Matrix: (Units=1/GPa)
#
#
# Indices 1 2 3 4 5 6 
#
# 1 -0.030009 0.037480 -0.003352 0.000000 0.000000 0.010928
# 2 0.037480 -0.030009 -0.003352 0.000000 0.000000 -0.010928
# 3 -0.003352 -0.003352 0.008053 0.000000 0.000000 0.000000
# 4 0.000000 0.000000 0.000000 0.024558 0.000000 0.000000
# 5 0.000000 0.000000 0.000000 0.000000 0.024558 0.000000
# 6 0.010928 -0.010928 0.000000 0.000000 0.000000 0.025743
#
#
# Mechanical properties :
#
#
# Convention : Reuss Voigt Hill
#
# Bulk Modulus (GPa) = 104.33194 109.05119 106.69157
# Shear Modulus (GPa) = -141.00037 30.29323 -55.35357
#
# Velocity S-wave (km/s) = -8.37191 3.88050 -5.24551
# Velocity P-wave (km/s) = 6.44905 8.61888 4.04320
#
# Compressibility (1/GPa) = 0.00958479
#
# Stress axis : x y z
#
# Youngs Moduli (GPa) = -33.32308 -33.32308 124.17211
#
# Poissons Ratio (x) = 1.24894 0.41628
# Poissons Ratio (y) = 1.24894 0.41628
# Poissons Ratio (z) = -0.11171 -0.11171
#
# Static dielectric constant tensor:
#      x y z
#    x 1.376820 0.000000 0.000000 
#    y 0.000000 1.376820 0.000000 
#    z 0.000000 0.000000 1.608390 
# 
# From -- ./inp_files/2484.got.cif
#   From: 2010.05.17/outbox.cif.g08.bks.cpg/sg85_cif.got.tgz:2484.got - 2010.06.03 19:01:16.
