data_PCOD9544501
_publ_section_title
;
Structure prediction by ZEFSAII (Michael W. Deem and Ramdas Pophale) SiO2 
 PCOD9544501
Probable space group: P 4/N
;
_chemical_formula_sum "Si O2"
_cell_formula_units_Z 56
_cell_length_a 15.097424
_cell_length_b 15.097424
_cell_length_c 12.141381
_cell_angle_alpha 90.000000
_cell_angle_beta 90.000000
_cell_angle_gamma 90.000000
_cell_volume 2767.411821
_symmetry_space_group_name_H-M "P 4/N"
_symmetry_group_IT_number 85
_symmetry_cell_setting 'tetragonal'
loop_
_space_group_symop_operation_xyz
x,y,z
1/2-y,x,z
1/2-x,1/2-y,z
y,1/2-x,z
-x,-y,-z
1/2+y,-x,-z
1/2+x,1/2+y,-z
-y,1/2+x,-z
loop_
_atom_site_type_symbol
_atom_site_label
_atom_site_fract_x
_atom_site_fract_y
_atom_site_fract_z
Si Si1 0.863014 0.653867 0.898315
Si Si2 0.434133 0.092377 0.871314
Si Si3 0.538107 0.541112 0.733487
Si Si4 0.686168 0.072011 0.604954
Si Si5 0.749838 0.895220 0.497170
Si Si6 0.369480 0.629662 0.366179
Si Si7 0.022597 0.235115 0.741854
O O1 0.870336 0.759571 0.904568
O O2 0.901469 0.616818 0.784676
O O3 0.913041 0.611923 0.002568
O O4 0.341748 0.071307 0.809918
O O5 0.477538 0.178310 0.815755
O O6 0.495487 0.010860 0.836967
O O7 0.466519 0.603427 0.672684
O O8 0.577832 0.462168 0.658990
O O9 0.651180 0.122034 0.496159
O O10 0.765582 0.125134 0.663729
O O11 0.738727 0.985099 0.562779
O O12 0.663852 0.835218 0.520734
O O13 0.751937 0.921660 0.368999
O O14 0.426331 0.701849 0.298475
#
# Coordination Sequence:
#
# PCOD9544501 Si02
#       7
#     8   8   8   8   8   8   8
#     4  11  23  40  67  98 126 156 203 263 324 379
#     4  11  21  38  63  91 125 163 206 261 312 375
#     4  11  24  41  63  91 127 172 203 252 321 376
#     4  11  23  40  59  83 127 167 217 255 297 375
#     4  10  19  30  54  87 120 156 198 258 323 369
#     4  10  24  40  62  89 121 166 216 258 306 368
#     4  10  20  35  60  91 123 155 207 263 318 358
#
# _framework density 20.235513000000001
#
# number of rings (size 3 to 8) (size 9 to 14) (size 15 to 20)
#    0.000    1.429    2.857    2.571    4.000    0.571 
#    0.000    1.429    0.000    0.000    0.000    0.000 
#    0.000    0.000    0.000    0.000    0.000    0.000 
#
# Total GULP energy -313029.315936 kJ/mol
# GULP energy per Si atom -5589.809213 kJ/mol
# Density = 2.018946 g / cm^3
# Si number density = 20.235513 Si / 1000 Ang^3
#
#
#
# Elastic Constant Matrix: (Units=GPa)
#
#
# Indices 1 2 3 4 5 6 
#
# 1 77.1982 38.4548 24.3692 0.0000 0.0000 0.6758
# 2 38.4548 77.1982 24.3692 0.0000 0.0000 -0.6758
# 3 24.3692 24.3692 58.7209 0.0000 0.0000 0.0000
# 4 0.0000 0.0000 0.0000 22.2997 0.0000 0.0000
# 5 0.0000 0.0000 0.0000 0.0000 22.2997 0.0000
# 6 0.6758 -0.6758 0.0000 0.0000 0.0000 16.0102
#
#
#
# Elastic Compliance Matrix: (Units=1/GPa)
#
#
# Indices 1 2 3 4 5 6 
#
# 1 0.018164 -0.007685 -0.004349 0.000000 0.000000 -0.001091
# 2 -0.007685 0.018164 -0.004349 0.000000 0.000000 0.001091
# 3 -0.004349 -0.004349 0.020639 0.000000 0.000000 0.000000
# 4 0.000000 0.000000 0.000000 0.044844 0.000000 0.000000
# 5 0.000000 0.000000 0.000000 0.000000 0.044844 0.000000
# 6 -0.001091 0.001091 0.000000 0.000000 0.000000 0.062552
#
#
# Mechanical properties :
#
#
# Convention : Reuss Voigt Hill
#
# Bulk Modulus (GPa) = 41.31850 43.05596 42.18723
# Shear Modulus (GPa) = 19.99684 20.51687 20.25685
#
# Velocity S-wave (km/s) = 3.14698 3.18764 3.16738
# Velocity P-wave (km/s) = 5.80240 5.90523 5.85404
#
# Compressibility (1/GPa) = 0.02420224
#
# Stress axis : x y z
#
# Youngs Moduli (GPa) = 55.05369 55.05369 48.45126
#
# Poissons Ratio (x) = 0.42308 0.21071
# Poissons Ratio (y) = 0.42308 0.21071
# Poissons Ratio (z) = 0.23942 0.23942
#
# Static dielectric constant tensor:
#      x y z
#    x 1.721130 0.000000 0.000000 
#    y 0.000000 1.721130 0.000000 
#    z 0.000000 0.000000 1.680640 
# 
# From -- ./inp_files/1771.got.cif
#   From: 2010.05.17/outbox.cif.g08.bks.cpg/sg85_cif.got.tgz:1771.got - 2010.06.03 19:01:16.
