data_PCOD9544987
_publ_section_title
;
Structure prediction by ZEFSAII (Michael W. Deem and Ramdas Pophale) SiO2 
 PCOD9544987
Probable space group: P 42/N
;
_chemical_formula_sum "Si O2"
_cell_formula_units_Z 64
_cell_length_a 16.423468
_cell_length_b 16.423468
_cell_length_c 11.565521
_cell_angle_alpha 90.000000
_cell_angle_beta 90.000000
_cell_angle_gamma 90.000000
_cell_volume 3119.571462
_symmetry_space_group_name_H-M "P 42/N"
_symmetry_group_IT_number 86
_space_group.IT_coordinate_system_code '2'
_symmetry_cell_setting 'tetragonal'
loop_
_space_group_symop_operation_xyz
x,y,z
-y,1/2+x,1/2+z
1/2-x,1/2-y,z
1/2+y,-x,1/2+z
-x,-y,-z
y,1/2-x,1/2-z
1/2+x,1/2+y,-z
1/2-y,x,1/2-z
loop_
_atom_site_type_symbol
_atom_site_label
_atom_site_fract_x
_atom_site_fract_y
_atom_site_fract_z
Si Si1 0.322944 0.004898 0.630070
Si Si2 0.130499 0.679090 0.895902
Si Si3 0.756457 0.085499 0.831298
Si Si4 0.211168 0.875813 0.753738
Si Si5 0.892851 0.477071 0.943765
Si Si6 0.637524 0.122245 0.530983
Si Si7 0.446583 0.441282 0.673146
Si Si8 0.784003 0.860073 0.295519
O O1 0.252667 0.941275 0.670380
O O2 0.362634 0.969974 0.514242
O O3 0.389385 0.003372 0.733137
O O4 0.280737 0.093474 0.622884
O O5 0.069492 0.698574 0.789610
O O6 0.213962 0.652399 0.834287
O O7 0.104337 0.608235 0.982974
O O8 0.142919 0.767010 0.952277
O O9 0.698811 0.165516 0.809573
O O10 0.692148 0.020251 0.877356
O O11 0.821533 0.103360 0.929685
O O12 0.144142 0.904576 0.848012
O O13 0.967056 0.474141 0.853369
O O14 0.902666 0.543440 0.044390
O O15 0.355080 0.425843 0.716377
O O16 0.834069 0.775393 0.311743
#
# Coordination Sequence:
#
# PCOD9544987 Si02
#       8
#     8   8   8   8   8   8   8   8
#     4  11  20  34  52  75 104 135 172 225 274 320
#     4  11  21  28  44  76 104 146 180 207 243 312
#     4  11  20  29  45  71 110 143 178 206 247 309
#     4  11  21  27  44  75 106 147 177 206 242 319
#     4  11  21  33  51  74 108 145 173 222 264 317
#     4  11  20  28  46  70 110 142 175 210 247 307
#     4  10  20  36  52  75 101 131 182 221 277 320
#     4   9  19  35  57  76  93 124 174 231 278 312
#
# _framework density 20.515637999999999
#
# number of rings (size 3 to 8) (size 9 to 14) (size 15 to 20)
#    0.000    1.375    3.750    3.750    3.500    0.000 
#    0.000    0.000    0.000   13.500    0.000   24.500 
#    0.000    0.000    0.000    0.500    0.000    0.000 
#
# Total GULP energy -356507.728767 kJ/mol
# GULP energy per Si atom -5570.433262 kJ/mol
# Density = 2.046894 g / cm^3
# Si number density = 20.515638 Si / 1000 Ang^3
#
#
#
# Elastic Constant Matrix: (Units=GPa)
#
#
# Indices 1 2 3 4 5 6 
#
# 1 57.7235 7.3873 11.3721 0.0000 0.0000 6.2569
# 2 7.3873 57.7235 11.3721 0.0000 0.0000 -6.2569
# 3 11.3721 11.3721 61.6991 0.0000 0.0000 0.0000
# 4 0.0000 0.0000 0.0000 23.0311 0.0000 0.0000
# 5 0.0000 0.0000 0.0000 0.0000 23.0311 0.0000
# 6 6.2569 -6.2569 0.0000 0.0000 0.0000 24.2055
#
#
#
# Elastic Compliance Matrix: (Units=1/GPa)
#
#
# Indices 1 2 3 4 5 6 
#
# 1 0.018823 -0.002408 -0.003026 0.000000 0.000000 -0.005488
# 2 -0.002408 0.018823 -0.003026 0.000000 0.000000 0.005488
# 3 -0.003026 -0.003026 0.017323 0.000000 0.000000 0.000000
# 4 0.000000 0.000000 0.000000 0.043420 0.000000 0.000000
# 5 0.000000 0.000000 0.000000 0.000000 0.043420 0.000000
# 6 -0.005488 0.005488 0.000000 0.000000 0.000000 0.044150
#
#
# Mechanical properties :
#
#
# Convention : Reuss Voigt Hill
#
# Bulk Modulus (GPa) = 26.28034 26.37880 26.32957
# Shear Modulus (GPa) = 23.19540 23.85450 23.52495
#
# Velocity S-wave (km/s) = 3.36612 3.41361 3.38995
# Velocity P-wave (km/s) = 5.28634 5.33130 5.30887
#
# Compressibility (1/GPa) = 0.03805126
#
# Stress axis : x y z
#
# Youngs Moduli (GPa) = 53.12636 53.12636 57.72660
#
# Poissons Ratio (x) = 0.12791 0.17466
# Poissons Ratio (y) = 0.12791 0.17466
# Poissons Ratio (z) = 0.16074 0.16074
#
# Static dielectric constant tensor:
#      x y z
#    x 1.806770 0.000000 0.000000 
#    y 0.000000 1.806770 0.000000 
#    z 0.000000 0.000000 1.772350 
# 
# From -- ./inp_files/2470.got.cif
#   From: 2010.05.17/outbox.cif.g08.bks.cpg/sg86_2_cif.got.tgz:2470.got - 2010.06.03 19:03:11.
