data_PCOD9544629
_publ_section_title
;
Structure prediction by ZEFSAII (Michael W. Deem and Ramdas Pophale) SiO2 
 PCOD9544629
Probable space group: P 4/N
;
_chemical_formula_sum "Si O2"
_cell_formula_units_Z 50
_cell_length_a 10.003837
_cell_length_b 10.003837
_cell_length_c 26.747160
_cell_angle_alpha 90.000000
_cell_angle_beta 90.000000
_cell_angle_gamma 90.000000
_cell_volume 2676.768971
_symmetry_space_group_name_H-M "P 4/N"
_symmetry_group_IT_number 85
_symmetry_cell_setting 'tetragonal'
loop_
_space_group_symop_operation_xyz
x,y,z
1/2-y,x,z
1/2-x,1/2-y,z
y,1/2-x,z
-x,-y,-z
1/2+y,-x,-z
1/2+x,1/2+y,-z
-y,1/2+x,-z
loop_
_atom_site_type_symbol
_atom_site_label
_atom_site_fract_x
_atom_site_fract_y
_atom_site_fract_z
Si Si1 0.401687 0.091013 0.531379
Si Si2 0.121045 0.066994 0.284574
Si Si3 0.250000 0.250000 0.767553
Si Si4 0.025629 0.049872 0.806086
Si Si5 0.376107 0.587928 0.981924
Si Si6 0.390362 0.077657 0.650772
Si Si7 0.904896 0.278204 0.872998
O O1 0.432222 0.245827 0.519788
O O2 0.411346 0.068120 0.591015
O O3 0.500000 0.000000 0.500000
O O4 0.280619 0.069947 0.291111
O O5 0.086362 0.009552 0.229813
O O6 0.036647 0.974100 0.322181
O O7 0.130224 0.136534 0.773592
O O8 0.975604 0.148317 0.849865
O O9 0.105919 0.932508 0.833150
O O10 0.324817 0.545088 0.927265
O O11 0.500000 0.500000 0.000000
O O12 0.244674 0.581526 0.017223
O O13 0.430260 0.231671 0.663129
O O14 0.750000 0.250000 0.877965
#
# Coordination Sequence:
#
# PCOD9544629 Si02
#       7
#     8   8   2   8   8   8   8
#     4   9  19  37  59  90 125 166 211 264 318 369
#     4  11  25  42  58  87 128 163 201 254 315 373
#     4   8  20  36  56  92 116 144 200 236 292 344
#     4  10  22  38  61  89 120 154 199 247 300 355
#     4  11  23  42  65  92 125 157 196 243 296 357
#     4   9  21  40  65  88 121 166 217 264 308 370
#     4  11  21  38  63  89 116 155 199 243 294 355
#
# _framework density 18.679236
#
# number of rings (size 3 to 8) (size 9 to 14) (size 15 to 20)
#    0.000    1.920    1.600    2.880    4.480    2.560 
#    0.000    6.400    0.000    0.000    0.000    0.000 
#    0.000    0.000    0.000    0.000    0.000    0.000 
#
# Total GULP energy -278568.564305 kJ/mol
# GULP energy per Si atom -5571.371286 kJ/mol
# Density = 1.863672 g / cm^3
# Si number density = 18.679236 Si / 1000 Ang^3
#
#
#
# Elastic Constant Matrix: (Units=GPa)
#
#
# Indices 1 2 3 4 5 6 
#
# 1 95.5998 66.2101 56.6852 0.0000 0.0000 -2.8571
# 2 66.2101 95.5998 56.6852 0.0000 0.0000 2.8571
# 3 56.6852 56.6852 89.6142 0.0000 0.0000 0.0000
# 4 0.0000 0.0000 0.0000 38.6658 0.0000 0.0000
# 5 0.0000 0.0000 0.0000 0.0000 38.6658 0.0000
# 6 -2.8571 2.8571 0.0000 0.0000 0.0000 51.2743
#
#
#
# Elastic Compliance Matrix: (Units=1/GPa)
#
#
# Indices 1 2 3 4 5 6 
#
# 1 0.022749 -0.011650 -0.007021 0.000000 0.000000 0.001917
# 2 -0.011650 0.022749 -0.007021 0.000000 0.000000 -0.001917
# 3 -0.007021 -0.007021 0.020041 0.000000 0.000000 0.000000
# 4 0.000000 0.000000 0.000000 0.025863 0.000000 0.000000
# 5 0.000000 0.000000 0.000000 0.000000 0.025863 0.000000
# 6 0.001917 -0.001917 0.000000 0.000000 0.000000 0.019717
#
#
# Mechanical properties :
#
#
# Convention : Reuss Voigt Hill
#
# Bulk Modulus (GPa) = 70.64058 71.10832 70.87445
# Shear Modulus (GPa) = 25.89595 32.47009 29.18302
#
# Velocity S-wave (km/s) = 3.72741 4.17381 3.95691
# Velocity P-wave (km/s) = 7.51163 7.83444 7.67473
#
# Compressibility (1/GPa) = 0.01415617
#
# Stress axis : x y z
#
# Youngs Moduli (GPa) = 43.95870 43.95870 49.89828
#
# Poissons Ratio (x) = 0.51210 0.35032
# Poissons Ratio (y) = 0.51210 0.35032
# Poissons Ratio (z) = 0.30862 0.30862
#
# Static dielectric constant tensor:
#      x y z
#    x 1.629880 0.000000 0.000000 
#    y 0.000000 1.629880 0.000000 
#    z 0.000000 0.000000 1.694080 
# 
# From -- ./inp_files/2474.got.cif
#   From: 2010.05.17/outbox.cif.g08.bks.cpg/sg85_cif.got.tgz:2474.got - 2010.06.03 19:01:16.
