data_PCOD9544814
_publ_section_title
;
Structure prediction by ZEFSAII (Michael W. Deem and Ramdas Pophale) SiO2 
 PCOD9544814
Probable space group: P 4/N
;
_chemical_formula_sum "Si O2"
_cell_formula_units_Z 50
_cell_length_a 8.844436
_cell_length_b 8.844436
_cell_length_c 32.122179
_cell_angle_alpha 90.000000
_cell_angle_beta 90.000000
_cell_angle_gamma 90.000000
_cell_volume 2512.726877
_symmetry_space_group_name_H-M "P 4/N"
_symmetry_group_IT_number 85
_symmetry_cell_setting 'tetragonal'
loop_
_space_group_symop_operation_xyz
x,y,z
1/2-y,x,z
1/2-x,1/2-y,z
y,1/2-x,z
-x,-y,-z
1/2+y,-x,-z
1/2+x,1/2+y,-z
-y,1/2+x,-z
loop_
_atom_site_type_symbol
_atom_site_label
_atom_site_fract_x
_atom_site_fract_y
_atom_site_fract_z
Si Si1 0.840265 0.409993 0.792763
Si Si2 0.041038 0.101236 0.123319
Si Si3 0.972775 0.631926 0.290992
Si Si4 0.080984 0.060302 0.958635
Si Si5 0.250000 0.250000 0.216004
Si Si6 0.963251 0.891860 0.631450
Si Si7 0.581026 0.939909 0.540756
O O1 0.750000 0.250000 0.796958
O O2 0.932811 0.443221 0.835501
O O3 0.740124 0.562373 0.785691
O O4 0.942242 0.399379 0.751868
O O5 0.215699 0.048530 0.124097
O O6 0.975391 0.030198 0.081655
O O7 0.947385 0.810412 0.292615
O O8 0.059342 0.568175 0.330944
O O9 0.261723 0.044690 0.958226
O O10 0.000000 0.000000 0.000000
O O11 0.790088 0.950005 0.634257
O O12 0.012364 0.954020 0.585932
O O13 0.545881 0.761832 0.539909
O O14 0.500000 0.000000 0.500000
#
# Coordination Sequence:
#
# PCOD9544814 Si02
#       7
#     8   8   8   8   2   8   8
#     4  12  26  44  72 104 138 186 239 294 361 429
#     4  11  24  44  70 103 136 175 232 289 347 426
#     4  11  27  44  60  93 135 173 224 287 356 421
#     4  11  26  45  68 102 142 187 237 292 354 425
#     4  12  24  48  68 104 140 180 244 284 348 440
#     4   9  21  39  64  90 120 167 226 281 340 421
#     4   9  19  37  58  88 123 163 213 271 337 410
#
# _framework density 19.898700999999999
#
# number of rings (size 3 to 8) (size 9 to 14) (size 15 to 20)
#    0.000    1.440    1.600    2.880    6.720    4.480 
#    0.000    6.400    0.000    0.000    0.000    0.000 
#    0.000    0.000    0.000    0.000    0.000    0.000 
#
# Total GULP energy -278535.668044 kJ/mol
# GULP energy per Si atom -5570.713361 kJ/mol
# Density = 1.985341 g / cm^3
# Si number density = 19.898701 Si / 1000 Ang^3
#
#
#
# Elastic Constant Matrix: (Units=GPa)
#
#
# Indices 1 2 3 4 5 6 
#
# 1 89.1393 43.8603 73.4498 0.0000 0.0000 13.0732
# 2 43.8603 89.1393 73.4498 0.0000 0.0000 -13.0732
# 3 73.4498 73.4498 224.5189 0.0000 0.0000 0.0000
# 4 0.0000 0.0000 0.0000 36.9588 0.0000 0.0000
# 5 0.0000 0.0000 0.0000 0.0000 36.9588 0.0000
# 6 13.0732 -13.0732 0.0000 0.0000 0.0000 43.3722
#
#
#
# Elastic Compliance Matrix: (Units=1/GPa)
#
#
# Indices 1 2 3 4 5 6 
#
# 1 0.019256 -0.007483 -0.003851 0.000000 0.000000 -0.008060
# 2 -0.007483 0.019256 -0.003851 0.000000 0.000000 0.008060
# 3 -0.003851 -0.003851 0.006974 0.000000 0.000000 0.000000
# 4 0.000000 0.000000 0.000000 0.027057 0.000000 0.000000
# 5 0.000000 0.000000 0.000000 0.000000 0.027057 0.000000
# 6 -0.008060 0.008060 0.000000 0.000000 0.000000 0.027915
#
#
# Mechanical properties :
#
#
# Convention : Reuss Voigt Hill
#
# Bulk Modulus (GPa) = 66.16465 87.14637 76.65551
# Shear Modulus (GPa) = 30.68887 37.59379 34.14133
#
# Velocity S-wave (km/s) = 3.93142 4.35128 4.14666
# Velocity P-wave (km/s) = 7.34377 8.31474 7.84429
#
# Compressibility (1/GPa) = 0.01511381
#
# Stress axis : x y z
#
# Youngs Moduli (GPa) = 51.93161 51.93161 143.39274
#
# Poissons Ratio (x) = 0.38863 0.55226
# Poissons Ratio (y) = 0.38863 0.55226
# Poissons Ratio (z) = 0.20001 0.20001
#
# Static dielectric constant tensor:
#      x y z
#    x 1.703910 0.000000 0.000000 
#    y 0.000000 1.703910 0.000000 
#    z 0.000000 0.000000 1.698290 
# 
# From -- ./inp_files/2460.got.cif
#   From: 2010.05.17/outbox.cif.g08.bks.cpg/sg85_cif.got.tgz:2460.got - 2010.06.03 19:01:16.
