data_PCOD9544673
_publ_section_title
;
Structure prediction by ZEFSAII (Michael W. Deem and Ramdas Pophale) SiO2 
 PCOD9544673
Probable space group: P 4/N
;
_chemical_formula_sum "Si O2"
_cell_formula_units_Z 40
_cell_length_a 11.671793
_cell_length_b 11.671793
_cell_length_c 12.752648
_cell_angle_alpha 90.000000
_cell_angle_beta 90.000000
_cell_angle_gamma 90.000000
_cell_volume 1737.302825
_symmetry_space_group_name_H-M "P 4/N"
_symmetry_group_IT_number 85
_symmetry_cell_setting 'tetragonal'
loop_
_space_group_symop_operation_xyz
x,y,z
1/2-y,x,z
1/2-x,1/2-y,z
y,1/2-x,z
-x,-y,-z
1/2+y,-x,-z
1/2+x,1/2+y,-z
-y,1/2+x,-z
loop_
_atom_site_type_symbol
_atom_site_label
_atom_site_fract_x
_atom_site_fract_y
_atom_site_fract_z
Si Si1 0.078535 0.688728 0.034610
Si Si2 0.560694 0.252754 0.723504
Si Si3 0.366167 0.402872 0.132130
Si Si4 0.113145 0.661396 0.558052
Si Si5 0.015520 0.489442 0.682652
O O1 0.064429 0.722063 0.155242
O O2 0.110417 0.808804 0.977942
O O3 0.968748 0.629910 0.980131
O O4 0.664543 0.327879 0.674644
O O5 0.464433 0.348944 0.700638
O O6 0.544033 0.131599 0.667344
O O7 0.228806 0.401995 0.147783
O O8 0.443696 0.471535 0.214600
O O9 0.099762 0.784950 0.507741
O O10 0.007877 0.580011 0.586780
#
# Coordination Sequence:
#
# PCOD9544673 Si02
#       5
#     8   8   8   8   8
#     4  11  22  38  65  97 134 180 234 272 321 392
#     4  10  23  40  67  99 133 176 222 277 333 400
#     4  11  25  42  64  99 143 185 226 272 329 394
#     4   9  21  40  67  97 125 166 221 278 334 402
#     4  10  23  45  67 100 134 179 219 281 334 396
#
# _framework density 23.024196
#
# number of rings (size 3 to 8) (size 9 to 14) (size 15 to 20)
#    1.200    0.600    2.000    1.200    2.800   12.400 
#    0.000    0.000    0.000    0.000    0.000    0.000 
#    0.000    0.000    0.000    0.000    0.000    0.000 
#
# Total GULP energy -222783.253764 kJ/mol
# GULP energy per Si atom -5569.581344 kJ/mol
# Density = 2.297179 g / cm^3
# Si number density = 23.024196 Si / 1000 Ang^3
#
#
#
# Elastic Constant Matrix: (Units=GPa)
#
#
# Indices 1 2 3 4 5 6 
#
# 1 83.6172 13.4363 11.2707 0.0000 0.0000 7.4550
# 2 13.4363 83.6172 11.2707 0.0000 0.0000 -7.4550
# 3 11.2707 11.2707 73.1993 0.0000 0.0000 0.0000
# 4 0.0000 0.0000 0.0000 31.6162 0.0000 0.0000
# 5 0.0000 0.0000 0.0000 0.0000 31.6162 0.0000
# 6 7.4550 -7.4550 0.0000 0.0000 0.0000 26.6595
#
#
#
# Elastic Compliance Matrix: (Units=1/GPa)
#
#
# Indices 1 2 3 4 5 6 
#
# 1 0.012917 -0.002232 -0.001645 0.000000 0.000000 -0.004236
# 2 -0.002232 0.012917 -0.001645 0.000000 0.000000 0.004236
# 3 -0.001645 -0.001645 0.014168 0.000000 0.000000 0.000000
# 4 0.000000 0.000000 0.000000 0.031629 0.000000 0.000000
# 5 0.000000 0.000000 0.000000 0.000000 0.031629 0.000000
# 6 -0.004236 0.004236 0.000000 0.000000 0.000000 0.039879
#
#
# Mechanical properties :
#
#
# Convention : Reuss Voigt Hill
#
# Bulk Modulus (GPa) = 34.53250 34.70988 34.62119
# Shear Modulus (GPa) = 30.51801 31.60879 31.06340
#
# Velocity S-wave (km/s) = 3.64466 3.70922 3.67708
# Velocity P-wave (km/s) = 5.72209 5.78382 5.75303
#
# Compressibility (1/GPa) = 0.02895823
#
# Stress axis : x y z
#
# Youngs Moduli (GPa) = 77.41562 77.41562 70.58157
#
# Poissons Ratio (x) = 0.17276 0.11613
# Poissons Ratio (y) = 0.17276 0.11613
# Poissons Ratio (z) = 0.12737 0.12737
#
# Static dielectric constant tensor:
#      x y z
#    x 1.939640 0.000000 0.000000 
#    y 0.000000 1.939640 0.000000 
#    z 0.000000 0.000000 1.962330 
# 
# From -- ./inp_files/1926.got.cif
#   From: 2010.05.17/outbox.cif.g08.bks.cpg/sg85_cif.got.tgz:1926.got - 2010.06.03 19:01:16.
