data_PCOD9544271
_publ_section_title
;
Structure prediction by ZEFSAII (Michael W. Deem and Ramdas Pophale) SiO2 
 PCOD9544271
Probable space group: P 42/M
;
_chemical_formula_sum "Si O2"
_cell_formula_units_Z 40
_cell_length_a 8.319793
_cell_length_b 8.319793
_cell_length_c 26.929466
_cell_angle_alpha 90.000000
_cell_angle_beta 90.000000
_cell_angle_gamma 90.000000
_cell_volume 1864.029510
_symmetry_space_group_name_H-M "P 42/M"
_symmetry_group_IT_number 84
_symmetry_cell_setting 'tetragonal'
loop_
_space_group_symop_operation_xyz
x,y,z
-y,x,1/2+z
-x,-y,z
y,-x,1/2+z
-x,-y,-z
y,-x,1/2-z
x,y,-z
-y,x,1/2-z
loop_
_atom_site_type_symbol
_atom_site_label
_atom_site_fract_x
_atom_site_fract_y
_atom_site_fract_z
Si Si1 0.802920 0.221816 0.167474
Si Si2 0.213092 0.280641 0.057929
Si Si3 0.311651 0.680664 0.736599
Si Si4 0.500000 0.000000 0.377645
Si Si5 0.000000 0.000000 0.599384
Si Si6 0.456114 0.187437 0.137959
O O1 0.777233 0.198745 0.226097
O O2 0.932621 0.358062 0.156074
O O3 0.864137 0.072527 0.135435
O O4 0.626871 0.273384 0.147415
O O5 0.374911 0.226477 0.085836
O O6 0.139549 0.432596 0.086784
O O7 0.082313 0.138733 0.067009
O O8 0.235551 0.309678 0.000000
O O9 0.501935 0.712713 0.739595
O O10 0.245283 0.664781 0.681332
O O11 0.500000 0.000000 0.143645
#
# Coordination Sequence:
#
# PCOD9544271 Si02
#       6
#     8   8   8   4   4   8
#     4  10  21  41  64  91 127 164 205 255 320 375
#     4  11  23  42  64  90 126 168 211 265 321 370
#     4   9  19  36  62  89 121 164 198 247 312 369
#     4  10  23  40  66  92 122 162 217 262 312 380
#     4  10  21  42  61  94 124 168 206 262 314 388
#     4  11  22  40  61  94 129 160 211 256 306 381
#
# _framework density 21.458888999999999
#
# number of rings (size 3 to 8) (size 9 to 14) (size 15 to 20)
#    0.000    1.800    2.000    1.800    1.400    2.800 
#    3.600    4.000    0.000    0.000    0.000    0.000 
#    0.000    0.000    0.000    0.000    0.000    0.000 
#
# Total GULP energy -223651.159906 kJ/mol
# GULP energy per Si atom -5591.278998 kJ/mol
# Density = 2.141005 g / cm^3
# Si number density = 21.458889 Si / 1000 Ang^3
#
#
#
# Elastic Constant Matrix: (Units=GPa)
#
#
# Indices 1 2 3 4 5 6 
#
# 1 35.1773 -9.2033 7.8539 0.0000 0.0000 4.7614
# 2 -9.2033 35.1773 7.8539 0.0000 0.0000 -4.7614
# 3 7.8539 7.8539 94.7491 0.0000 0.0000 0.0000
# 4 0.0000 0.0000 0.0000 21.5032 0.0000 0.0000
# 5 0.0000 0.0000 0.0000 0.0000 21.5032 0.0000
# 6 4.7614 -4.7614 0.0000 0.0000 0.0000 26.8508
#
#
#
# Elastic Compliance Matrix: (Units=1/GPa)
#
#
# Indices 1 2 3 4 5 6 
#
# 1 0.031978 0.008554 -0.003360 0.000000 0.000000 -0.004154
# 2 0.008554 0.031978 -0.003360 0.000000 0.000000 0.004154
# 3 -0.003360 -0.003360 0.011111 0.000000 0.000000 0.000000
# 4 0.000000 0.000000 0.000000 0.046505 0.000000 0.000000
# 5 0.000000 0.000000 0.000000 0.000000 0.046505 0.000000
# 6 -0.004154 0.004154 0.000000 0.000000 0.000000 0.038716
#
#
# Mechanical properties :
#
#
# Convention : Reuss Voigt Hill
#
# Bulk Modulus (GPa) = 12.70069 19.79028 16.24548
# Shear Modulus (GPa) = 21.79904 24.54473 23.17188
#
# Velocity S-wave (km/s) = 3.19070 3.38568 3.28964
# Velocity P-wave (km/s) = 4.41651 4.95240 4.69211
#
# Compressibility (1/GPa) = 0.07873590
#
# Stress axis : x y z
#
# Youngs Moduli (GPa) = 31.27179 31.27179 89.99946
#
# Poissons Ratio (x) = -0.26750 0.30237
# Poissons Ratio (y) = -0.26750 0.30237
# Poissons Ratio (z) = 0.10506 0.10506
#
# Static dielectric constant tensor:
#      x y z
#    x 1.799370 0.000000 0.000000 
#    y 0.000000 1.799370 0.000000 
#    z 0.000000 0.000000 1.737490 
# 
# From -- ./inp_files/5388.got.cif
#   From: 2010.05.17/outbox.cif.g08.bks.cpg/sg84_3_cif.got.tgz:5388.got - 2010.06.03 18:57:40.
