data_PCOD9544988
_publ_section_title
;
Structure prediction by ZEFSAII (Michael W. Deem and Ramdas Pophale) SiO2 
 PCOD9544988
Probable space group: P 42/N
;
_chemical_formula_sum "Si O2"
_cell_formula_units_Z 28
_cell_length_a 9.795982
_cell_length_b 9.795982
_cell_length_c 18.009305
_cell_angle_alpha 90.000000
_cell_angle_beta 90.000000
_cell_angle_gamma 90.000000
_cell_volume 1728.195660
_symmetry_space_group_name_H-M "P 42/N"
_symmetry_group_IT_number 86
_space_group.IT_coordinate_system_code '2'
_symmetry_cell_setting 'tetragonal'
loop_
_space_group_symop_operation_xyz
x,y,z
-y,1/2+x,1/2+z
1/2-x,1/2-y,z
1/2+y,-x,1/2+z
-x,-y,-z
y,1/2-x,1/2-z
1/2+x,1/2+y,-z
1/2-y,x,1/2-z
loop_
_atom_site_type_symbol
_atom_site_label
_atom_site_fract_x
_atom_site_fract_y
_atom_site_fract_z
Si Si1 0.036963 0.221503 0.720755
Si Si2 0.836255 0.374889 0.943063
Si Si3 0.616597 0.658201 0.445075
Si Si4 0.750000 0.250000 0.799110
O O1 0.109827 0.366231 0.738809
O O2 0.045633 0.191783 0.633456
O O3 0.884218 0.220052 0.751757
O O4 0.750000 0.250000 0.977811
O O5 0.786352 0.371587 0.857490
O O6 0.997828 0.346059 0.944577
O O7 0.814167 0.512926 0.987836
O O8 0.750000 0.750000 0.450888
#
# Coordination Sequence:
#
# PCOD9544988 Si02
#       4
#     8   8   8   4
#     4  11  19  36  58  81 104 141 185 219 264 315
#     4   9  21  38  51  81 113 138 175 224 269 313
#     4  11  20  36  59  80 106 143 184 220 260 324
#     4  10  20  36  54  78 116 134 176 230 266 310
#
# _framework density 16.201868000000001
#
# number of rings (size 3 to 8) (size 9 to 14) (size 15 to 20)
#    0.857    0.857    5.714    0.000    2.000    1.143 
#    0.000    0.000    0.000    0.000    0.000    0.000 
#    0.000    0.000    0.000    0.000    0.000    0.000 
#
# Total GULP energy -155955.479313 kJ/mol
# GULP energy per Si atom -5569.838547 kJ/mol
# Density = 1.616499 g / cm^3
# Si number density = 16.201868 Si / 1000 Ang^3
#
#
#
# Elastic Constant Matrix: (Units=GPa)
#
#
# Indices 1 2 3 4 5 6 
#
# 1 128.1383 81.2934 70.7580 0.0000 0.0000 4.2587
# 2 81.2934 128.1383 70.7580 0.0000 0.0000 -4.2587
# 3 70.7580 70.7580 102.4004 0.0000 0.0000 0.0000
# 4 0.0000 0.0000 0.0000 0.9416 0.0000 0.0000
# 5 0.0000 0.0000 0.0000 0.0000 0.9416 0.0000
# 6 4.2587 -4.2587 0.0000 0.0000 0.0000 19.9549
#
#
#
# Elastic Compliance Matrix: (Units=1/GPa)
#
#
# Indices 1 2 3 4 5 6 
#
# 1 0.015583 -0.006626 -0.006189 0.000000 0.000000 -0.004740
# 2 -0.006626 0.015583 -0.006189 0.000000 0.000000 0.004740
# 3 -0.006189 -0.006189 0.018319 0.000000 0.000000 0.000000
# 4 0.000000 0.000000 0.000000 1.061980 0.000000 0.000000
# 5 0.000000 0.000000 0.000000 0.000000 1.061980 0.000000
# 6 -0.004740 0.004740 0.000000 0.000000 0.000000 0.052136
#
#
# Mechanical properties :
#
#
# Convention : Reuss Voigt Hill
#
# Bulk Modulus (GPa) = 87.13762 89.36620 88.25191
# Shear Modulus (GPa) = 2.20515 13.42548 7.81531
#
# Velocity S-wave (km/s) = 1.16791 2.88173 2.19868
# Velocity P-wave (km/s) = 7.46444 8.14556 7.81243
#
# Compressibility (1/GPa) = 0.01147610
#
# Stress axis : x y z
#
# Youngs Moduli (GPa) = 64.17294 64.17294 54.58818
#
# Poissons Ratio (x) = 0.42521 0.33786
# Poissons Ratio (y) = 0.42521 0.33786
# Poissons Ratio (z) = 0.39718 0.39718
#
# Static dielectric constant tensor:
#      x y z
#    x 1.526940 0.000000 0.000000 
#    y 0.000000 1.526940 0.000000 
#    z 0.000000 0.000000 1.549930 
# 
# From -- ./inp_files/3269.got.cif
#   From: 2010.05.17/outbox.cif.g08.bks.cpg/sg86_2_cif.got.tgz:3269.got - 2010.06.03 19:03:11.
