data_PCOD9544776
_publ_section_title
;
Structure prediction by ZEFSAII (Michael W. Deem and Ramdas Pophale) SiO2 
 PCOD9544776
Probable space group: P 4/N
;
_chemical_formula_sum "Si O2"
_cell_formula_units_Z 42
_cell_length_a 8.346979
_cell_length_b 8.346979
_cell_length_c 29.018635
_cell_angle_alpha 90.000000
_cell_angle_beta 90.000000
_cell_angle_gamma 90.000000
_cell_volume 2021.788033
_symmetry_space_group_name_H-M "P 4/N"
_symmetry_group_IT_number 85
_symmetry_cell_setting 'tetragonal'
loop_
_space_group_symop_operation_xyz
x,y,z
1/2-y,x,z
1/2-x,1/2-y,z
y,1/2-x,z
-x,-y,-z
1/2+y,-x,-z
1/2+x,1/2+y,-z
-y,1/2+x,-z
loop_
_atom_site_type_symbol
_atom_site_label
_atom_site_fract_x
_atom_site_fract_y
_atom_site_fract_z
Si Si1 0.045532 0.075487 0.548496
Si Si2 0.493088 0.667613 0.074683
Si Si3 0.384711 0.014533 0.645854
Si Si4 0.750000 0.250000 0.000000
Si Si5 0.643667 0.503241 0.736603
Si Si6 0.497004 0.851692 0.837960
O O1 0.232999 0.034353 0.549701
O O2 0.954851 0.040512 0.596861
O O3 0.000000 0.000000 0.500000
O O4 0.649872 0.555791 0.072469
O O5 0.404592 0.621556 0.121958
O O6 0.368527 0.650189 0.032935
O O7 0.458255 0.193476 0.647501
O O8 0.418371 0.908338 0.690164
O O9 0.829748 0.547701 0.735946
O O10 0.614720 0.426914 0.786854
O O11 0.549887 0.665247 0.841745
#
# Coordination Sequence:
#
# PCOD9544776 Si02
#       6
#     8   8   8   2   8   8
#     4   9  19  35  52  72 101 137 177 223 275 329
#     4  11  24  40  61  90 118 148 191 237 279 329
#     4   9  19  35  52  73 105 142 179 222 273 326
#     4  12  24  44  64  84 120 160 188 228 284 342
#     4   9  19  35  55  81 111 143 181 222 267 324
#     4   9  19  38  61  83 113 153 189 226 280 338
#
# _framework density 20.773689999999998
#
# number of rings (size 3 to 8) (size 9 to 14) (size 15 to 20)
#    0.000    2.476    0.000    4.000    0.000    4.190 
#    0.000   13.333    0.000    0.000    0.000    0.000 
#    0.000    0.000    0.000    0.000    0.000    0.000 
#
# Total GULP energy -234140.112021 kJ/mol
# GULP energy per Si atom -5574.764572 kJ/mol
# Density = 2.072641 g / cm^3
# Si number density = 20.773690 Si / 1000 Ang^3
#
#
#
# Elastic Constant Matrix: (Units=GPa)
#
#
# Indices 1 2 3 4 5 6 
#
# 1 47.4769 -2.8553 43.8574 0.0000 0.0000 4.0931
# 2 -2.8553 47.4769 43.8574 0.0000 0.0000 -4.0931
# 3 43.8574 43.8574 200.1185 0.0000 0.0000 0.0000
# 4 0.0000 0.0000 0.0000 31.7419 0.0000 0.0000
# 5 0.0000 0.0000 0.0000 0.0000 31.7419 0.0000
# 6 4.0931 -4.0931 0.0000 0.0000 0.0000 32.4257
#
#
#
# Elastic Compliance Matrix: (Units=1/GPa)
#
#
# Indices 1 2 3 4 5 6 
#
# 1 0.029829 0.009544 -0.008629 0.000000 0.000000 -0.002560
# 2 0.009544 0.029829 -0.008629 0.000000 0.000000 0.002560
# 3 -0.008629 -0.008629 0.008779 0.000000 0.000000 0.000000
# 4 0.000000 0.000000 0.000000 0.031504 0.000000 0.000000
# 5 0.000000 0.000000 0.000000 0.000000 0.031504 0.000000
# 6 -0.002560 0.002560 0.000000 0.000000 0.000000 0.031486
#
#
# Mechanical properties :
#
#
# Convention : Reuss Voigt Hill
#
# Bulk Modulus (GPa) = 18.86454 51.64348 35.25401
# Shear Modulus (GPa) = 25.50661 33.19609 29.35135
#
# Velocity S-wave (km/s) = 3.50785 4.00182 3.76295
# Velocity P-wave (km/s) = 5.05048 6.80197 5.99058
#
# Compressibility (1/GPa) = 0.05300951
#
# Stress axis : x y z
#
# Youngs Moduli (GPa) = 33.52481 33.52481 113.90580
#
# Poissons Ratio (x) = -0.31997 0.98288
# Poissons Ratio (y) = -0.31997 0.98288
# Poissons Ratio (z) = 0.28928 0.28928
#
# Static dielectric constant tensor:
#      x y z
#    x 1.749650 0.000000 0.000000 
#    y 0.000000 1.749650 0.000000 
#    z 0.000000 0.000000 1.809820 
# 
# From -- ./inp_files/2378.got.cif
#   From: 2010.05.17/outbox.cif.g08.bks.cpg/sg85_cif.got.tgz:2378.got - 2010.06.03 19:01:16.
