data_PCOD9544610
_publ_section_title
;
Structure prediction by ZEFSAII (Michael W. Deem and Ramdas Pophale) SiO2 
 PCOD9544610
Probable space group: P 4/N
;
_chemical_formula_sum "Si O2"
_cell_formula_units_Z 40
_cell_length_a 13.282909
_cell_length_b 13.282909
_cell_length_c 11.481105
_cell_angle_alpha 90.000000
_cell_angle_beta 90.000000
_cell_angle_gamma 90.000000
_cell_volume 2025.676470
_symmetry_space_group_name_H-M "P 4/N"
_symmetry_group_IT_number 85
_symmetry_cell_setting 'tetragonal'
loop_
_space_group_symop_operation_xyz
x,y,z
1/2-y,x,z
1/2-x,1/2-y,z
y,1/2-x,z
-x,-y,-z
1/2+y,-x,-z
1/2+x,1/2+y,-z
-y,1/2+x,-z
loop_
_atom_site_type_symbol
_atom_site_label
_atom_site_fract_x
_atom_site_fract_y
_atom_site_fract_z
Si Si1 0.018553 0.101191 0.646109
Si Si2 0.233472 0.415896 0.167382
Si Si3 0.878866 0.497218 0.628034
Si Si4 0.091111 0.731304 0.011860
Si Si5 0.971645 0.314465 0.736511
O O1 0.015990 0.125837 0.508892
O O2 0.973417 0.197398 0.707860
O O3 0.130075 0.074263 0.694504
O O4 0.965037 0.992230 0.663898
O O5 0.144073 0.336249 0.148726
O O6 0.209889 0.454643 0.297719
O O7 0.233557 0.506836 0.077504
O O8 0.888963 0.379488 0.664917
O O9 0.177589 0.953385 0.873993
O O10 0.155604 0.829471 0.047178
#
# Coordination Sequence:
#
# PCOD9544610 Si02
#       5
#     8   8   8   8   8
#     4   9  21  38  65  94 129 166 215 264 332 387
#     4  11  26  42  65  92 125 174 221 268 319 397
#     4   9  21  43  62  94 132 167 216 266 333 385
#     4  11  24  43  65  96 132 171 220 266 328 391
#     4  10  21  40  63  97 123 177 206 275 318 385
#
# _framework density 19.746490000000001
#
# number of rings (size 3 to 8) (size 9 to 14) (size 15 to 20)
#    1.200    0.800    2.000    0.000    8.400    1.200 
#    0.000    0.000    0.000    0.000    0.000    0.000 
#    0.000    0.000    0.000    0.000    0.000    0.000 
#
# Total GULP energy -222714.952293 kJ/mol
# GULP energy per Si atom -5567.873807 kJ/mol
# Density = 1.970155 g / cm^3
# Si number density = 19.746490 Si / 1000 Ang^3
#
#
#
# Elastic Constant Matrix: (Units=GPa)
#
#
# Indices 1 2 3 4 5 6 
#
# 1 52.8933 31.1985 35.6890 0.0000 0.0000 -3.2699
# 2 31.1985 52.8933 35.6890 0.0000 0.0000 3.2699
# 3 35.6890 35.6890 109.8802 0.0000 0.0000 0.0000
# 4 0.0000 0.0000 0.0000 23.7003 0.0000 0.0000
# 5 0.0000 0.0000 0.0000 0.0000 23.7003 0.0000
# 6 -3.2699 3.2699 0.0000 0.0000 0.0000 9.6597
#
#
#
# Elastic Compliance Matrix: (Units=1/GPa)
#
#
# Indices 1 2 3 4 5 6 
#
# 1 0.033875 -0.017457 -0.005333 0.000000 0.000000 0.017376
# 2 -0.017457 0.033875 -0.005333 0.000000 0.000000 -0.017376
# 3 -0.005333 -0.005333 0.012565 0.000000 0.000000 0.000000
# 4 0.000000 0.000000 0.000000 0.042194 0.000000 0.000000
# 5 0.000000 0.000000 0.000000 0.000000 0.042194 0.000000
# 6 0.017376 -0.017376 0.000000 0.000000 0.000000 0.115286
#
#
# Mechanical properties :
#
#
# Convention : Reuss Voigt Hill
#
# Bulk Modulus (GPa) = 41.54423 46.75776 44.15099
# Shear Modulus (GPa) = 14.52407 18.95140 16.73774
#
# Velocity S-wave (km/s) = 2.71500 3.10132 2.91457
# Velocity P-wave (km/s) = 5.55993 6.04605 5.80807
#
# Compressibility (1/GPa) = 0.02407073
#
# Stress axis : x y z
#
# Youngs Moduli (GPa) = 29.52032 29.52032 79.58700
#
# Poissons Ratio (x) = 0.51533 0.42440
# Poissons Ratio (y) = 0.51533 0.42440
# Poissons Ratio (z) = 0.15742 0.15742
#
# Static dielectric constant tensor:
#      x y z
#    x 1.707990 0.000000 0.000000 
#    y 0.000000 1.707990 0.000000 
#    z 0.000000 0.000000 1.664060 
# 
# From -- ./inp_files/1565.got.cif
#   From: 2010.05.17/outbox.cif.g08.bks.cpg/sg85_cif.got.tgz:1565.got - 2010.06.03 19:01:16.
