data_PCOD9544576
_publ_section_title
;
Structure prediction by ZEFSAII (Michael W. Deem and Ramdas Pophale) SiO2 
 PCOD9544576
Probable space group: P 4/N
;
_chemical_formula_sum "Si O2"
_cell_formula_units_Z 48
_cell_length_a 14.905150
_cell_length_b 14.905150
_cell_length_c 9.338016
_cell_angle_alpha 90.000000
_cell_angle_beta 90.000000
_cell_angle_gamma 90.000000
_cell_volume 2074.566285
_symmetry_space_group_name_H-M "P 4/N"
_symmetry_group_IT_number 85
_symmetry_cell_setting 'tetragonal'
loop_
_space_group_symop_operation_xyz
x,y,z
1/2-y,x,z
1/2-x,1/2-y,z
y,1/2-x,z
-x,-y,-z
1/2+y,-x,-z
1/2+x,1/2+y,-z
-y,1/2+x,-z
loop_
_atom_site_type_symbol
_atom_site_label
_atom_site_fract_x
_atom_site_fract_y
_atom_site_fract_z
Si Si1 0.244856 0.011478 0.273094
Si Si2 0.915922 0.103167 0.810350
Si Si3 0.388644 0.691779 0.490441
Si Si4 0.103211 0.062897 0.813027
Si Si5 0.472363 0.276678 0.972404
Si Si6 0.883562 0.681965 0.473660
O O1 0.181469 0.937587 0.198943
O O2 0.311234 0.959908 0.380713
O O3 0.286537 0.058967 0.135604
O O4 0.178661 0.070596 0.371401
O O5 0.927437 0.154740 0.658183
O O6 0.999415 0.033514 0.820406
O O7 0.935004 0.171516 0.939149
O O8 0.296572 0.639108 0.523527
O O9 0.141880 0.057722 0.653656
O O10 0.093978 0.166939 0.867522
O O11 0.175211 0.021141 0.918748
O O12 0.865030 0.787842 0.461009
#
# Coordination Sequence:
#
# PCOD9544576 Si02
#       6
#     8   8   8   8   8   8
#     4  11  23  39  62  97 129 154 221 274 310 371
#     4   9  22  41  62  92 124 173 206 254 335 382
#     4   9  18  37  63  89 121 165 215 263 312 376
#     4  10  20  42  61  85 124 167 208 240 323 386
#     4  10  23  38  60  88 124 171 200 254 317 381
#     4  11  22  38  63  91 121 168 215 262 312 383
#
# _framework density 23.137366
#
# number of rings (size 3 to 8) (size 9 to 14) (size 15 to 20)
#    1.000    1.000    1.667    2.000    2.333    3.000 
#    0.000    1.667    0.000    0.000    0.000    0.000 
#    0.000    0.000    0.000    0.000    0.000    0.000 
#
# Total GULP energy -267806.969966 kJ/mol
# GULP energy per Si atom -5579.311874 kJ/mol
# Density = 2.308470 g / cm^3
# Si number density = 23.137366 Si / 1000 Ang^3
#
#
#
# Elastic Constant Matrix: (Units=GPa)
#
#
# Indices 1 2 3 4 5 6 
#
# 1 44.0889 -13.2559 7.5933 0.0000 0.0000 1.8014
# 2 -13.2559 44.0889 7.5933 0.0000 0.0000 -1.8014
# 3 7.5933 7.5933 141.2718 0.0000 0.0000 0.0000
# 4 0.0000 0.0000 0.0000 22.6220 0.0000 0.0000
# 5 0.0000 0.0000 0.0000 0.0000 22.6220 0.0000
# 6 1.8014 -1.8014 0.0000 0.0000 0.0000 18.0962
#
#
#
# Elastic Compliance Matrix: (Units=1/GPa)
#
#
# Indices 1 2 3 4 5 6 
#
# 1 0.025431 0.007883 -0.001791 0.000000 0.000000 -0.001747
# 2 0.007883 0.025431 -0.001791 0.000000 0.000000 0.001747
# 3 -0.001791 -0.001791 0.007271 0.000000 0.000000 0.000000
# 4 0.000000 0.000000 0.000000 0.044205 0.000000 0.000000
# 5 0.000000 0.000000 0.000000 0.000000 0.044205 0.000000
# 6 -0.001747 0.001747 0.000000 0.000000 0.000000 0.055608
#
#
# Mechanical properties :
#
#
# Convention : Reuss Voigt Hill
#
# Bulk Modulus (GPa) = 14.98399 25.92346 20.45372
# Shear Modulus (GPa) = 23.17032 27.83598 25.50315
#
# Velocity S-wave (km/s) = 3.16796 3.47230 3.32362
# Velocity P-wave (km/s) = 4.45774 5.22535 4.85674
#
# Compressibility (1/GPa) = 0.06673792
#
# Stress axis : x y z
#
# Youngs Moduli (GPa) = 39.32140 39.32140 137.53173
#
# Poissons Ratio (x) = -0.30998 0.24627
# Poissons Ratio (y) = -0.30998 0.24627
# Poissons Ratio (z) = 0.07041 0.07041
#
# Static dielectric constant tensor:
#      x y z
#    x 1.888210 0.000000 0.000000 
#    y 0.000000 1.888210 0.000000 
#    z 0.000000 0.000000 1.903370 
# 
# From -- ./inp_files/1093.got.cif
#   From: 2010.05.17/outbox.cif.g08.bks.cpg/sg85_cif.got.tgz:1093.got - 2010.06.03 19:01:16.
