data_PCOD9544391
_publ_section_title
;
Structure prediction by ZEFSAII (Michael W. Deem and Ramdas Pophale) SiO2 
 PCOD9544391
Probable space group: P 42/M
;
_chemical_formula_sum "Si O2"
_cell_formula_units_Z 48
_cell_length_a 9.033725
_cell_length_b 9.033725
_cell_length_c 29.337557
_cell_angle_alpha 90.000000
_cell_angle_beta 90.000000
_cell_angle_gamma 90.000000
_cell_volume 2394.184849
_symmetry_space_group_name_H-M "P 42/M"
_symmetry_group_IT_number 84
_symmetry_cell_setting 'tetragonal'
loop_
_space_group_symop_operation_xyz
x,y,z
-y,x,1/2+z
-x,-y,z
y,-x,1/2+z
-x,-y,-z
y,-x,1/2-z
x,y,-z
-y,x,1/2-z
loop_
_atom_site_type_symbol
_atom_site_label
_atom_site_fract_x
_atom_site_fract_y
_atom_site_fract_z
Si Si1 0.164807 0.527095 0.849630
Si Si2 0.050678 0.262344 0.500000
Si Si3 0.751034 0.462544 0.500000
Si Si4 0.834224 0.972207 0.902241
Si Si5 0.356764 0.812261 0.845317
Si Si6 0.553577 0.256360 0.251789
Si Si7 0.690003 0.362694 0.402463
O O1 0.221675 0.694369 0.845510
O O2 0.171808 0.453816 0.799386
O O3 0.292746 0.452696 0.879633
O O4 0.000000 0.500000 0.867952
O O5 0.192479 0.369148 0.500000
O O6 0.042332 0.173719 0.452964
O O7 0.903680 0.366034 0.500000
O O8 0.669728 0.421522 0.453575
O O9 0.709537 0.049076 0.871384
O O10 0.775134 0.805068 0.904607
O O11 0.000000 0.000000 0.884696
O O12 0.402188 0.834610 0.792868
O O13 0.500524 0.751415 0.872335
O O14 0.393578 0.332398 0.243881
#
# Coordination Sequence:
#
# PCOD9544391 Si02
#       7
#     8   4   4   8   8   8   8
#     4  11  23  39  59  85 123 154 192 252 313 357
#     4   9  17  34  57  86 115 159 198 246 296 361
#     4   9  18  34  59  87 114 152 210 252 287 357
#     4  11  22  36  59  90 125 153 196 250 310 361
#     4  11  21  38  62  87 114 158 204 244 295 364
#     4   9  18  36  60  83 107 147 202 242 282 355
#     4  11  21  39  62  86 117 159 205 249 294 364
#
# _framework density 20.048579
#
# number of rings (size 3 to 8) (size 9 to 14) (size 15 to 20)
#    0.000    1.667    3.333    2.250    0.000    1.333 
#    0.000    2.917    0.000    0.000    0.000    0.000 
#    0.000    0.000    0.000    0.000    0.000    0.000 
#
# Total GULP energy -268042.412283 kJ/mol
# GULP energy per Si atom -5584.216923 kJ/mol
# Density = 2.000295 g / cm^3
# Si number density = 20.048579 Si / 1000 Ang^3
#
#
#
# Elastic Constant Matrix: (Units=GPa)
#
#
# Indices 1 2 3 4 5 6 
#
# 1 62.9071 -1.3950 1.5327 0.0000 0.0000 0.5172
# 2 -1.3950 62.9071 1.5327 0.0000 0.0000 -0.5172
# 3 1.5327 1.5327 103.8160 0.0000 0.0000 0.0000
# 4 0.0000 0.0000 0.0000 23.9253 0.0000 0.0000
# 5 0.0000 0.0000 0.0000 0.0000 23.9253 0.0000
# 6 0.5172 -0.5172 0.0000 0.0000 0.0000 25.3809
#
#
#
# Elastic Compliance Matrix: (Units=1/GPa)
#
#
# Indices 1 2 3 4 5 6 
#
# 1 0.015913 0.000356 -0.000240 0.000000 0.000000 -0.000317
# 2 0.000356 0.015913 -0.000240 0.000000 0.000000 0.000317
# 3 -0.000240 -0.000240 0.009640 0.000000 0.000000 0.000000
# 4 0.000000 0.000000 0.000000 0.041797 0.000000 0.000000
# 5 0.000000 0.000000 0.000000 0.000000 0.041797 0.000000
# 6 -0.000317 0.000317 0.000000 0.000000 0.000000 0.039413
#
#
# Mechanical properties :
#
#
# Convention : Reuss Voigt Hill
#
# Bulk Modulus (GPa) = 24.26204 25.88566 25.07385
# Shear Modulus (GPa) = 28.01770 29.84363 28.93067
#
# Velocity S-wave (km/s) = 3.74236 3.86238 3.80284
# Velocity P-wave (km/s) = 5.54992 5.72976 5.64055
#
# Compressibility (1/GPa) = 0.04121665
#
# Stress axis : x y z
#
# Youngs Moduli (GPa) = 62.84241 62.84241 103.73962
#
# Poissons Ratio (x) = -0.02238 0.02492
# Poissons Ratio (y) = -0.02238 0.02492
# Poissons Ratio (z) = 0.01509 0.01509
#
# Static dielectric constant tensor:
#      x y z
#    x 1.709800 0.000000 0.000000 
#    y 0.000000 1.709800 0.000000 
#    z 0.000000 0.000000 1.703170 
# 
# From -- ./inp_files/5861.got.cif
#   From: 2010.05.17/outbox.cif.g08.bks.cpg/sg84_3_cif.got.tgz:5861.got - 2010.06.03 18:57:40.
