data_PCOD9544848
_publ_section_title
;
Structure prediction by ZEFSAII (Michael W. Deem and Ramdas Pophale) SiO2 
 PCOD9544848
Probable space group: P 4/N
;
_chemical_formula_sum "Si O2"
_cell_formula_units_Z 34
_cell_length_a 12.987879
_cell_length_b 12.987879
_cell_length_c 10.015708
_cell_angle_alpha 90.000000
_cell_angle_beta 90.000000
_cell_angle_gamma 90.000000
_cell_volume 1689.499713
_symmetry_space_group_name_H-M "P 4/N"
_symmetry_group_IT_number 85
_symmetry_cell_setting 'tetragonal'
loop_
_space_group_symop_operation_xyz
x,y,z
1/2-y,x,z
1/2-x,1/2-y,z
y,1/2-x,z
-x,-y,-z
1/2+y,-x,-z
1/2+x,1/2+y,-z
-y,1/2+x,-z
loop_
_atom_site_type_symbol
_atom_site_label
_atom_site_fract_x
_atom_site_fract_y
_atom_site_fract_z
Si Si1 0.084113 0.947848 0.903542
Si Si2 0.165718 0.097561 0.677258
Si Si3 0.592016 0.824352 0.624386
Si Si4 0.750000 0.750000 0.943455
Si Si5 0.729991 0.505777 0.881703
O O1 0.041009 0.840814 0.850615
O O2 0.118178 0.021879 0.784202
O O3 0.180312 0.937551 0.003047
O O4 0.000000 0.000000 0.000000
O O5 0.288559 0.116341 0.693078
O O6 0.151662 0.057697 0.525382
O O7 0.620628 0.702757 0.637762
O O8 0.516455 0.840195 0.748248
O O9 0.740957 0.622740 0.936349
#
# Coordination Sequence:
#
# PCOD9544848 Si02
#       5
#     8   8   8   2   8
#     4  12  24  38  59  95 126 165 206 255 316 378
#     4   9  20  36  63  95 127 158 211 265 305 358
#     4   9  15  34  62  90 115 158 209 260 304 358
#     4  12  20  40  72  86 112 168 220 266 300 372
#     4  12  23  39  65  90 126 162 209 259 318 380
#
# _framework density 20.124300999999999
#
# number of rings (size 3 to 8) (size 9 to 14) (size 15 to 20)
#    0.000    1.412    4.706    2.824    0.000    0.471 
#    0.000   12.941    0.000    0.000    0.000    0.000 
#    0.000    0.000    0.000    0.000    0.000    0.000 
#
# Total GULP energy -189364.931085 kJ/mol
# GULP energy per Si atom -5569.556797 kJ/mol
# Density = 2.007850 g / cm^3
# Si number density = 20.124301 Si / 1000 Ang^3
#
#
#
# Elastic Constant Matrix: (Units=GPa)
#
#
# Indices 1 2 3 4 5 6 
#
# 1 54.6477 25.3799 34.4843 0.0000 0.0000 -6.9379
# 2 25.3799 54.6477 34.4843 0.0000 0.0000 6.9379
# 3 34.4843 34.4843 131.4936 0.0000 0.0000 0.0000
# 4 0.0000 0.0000 0.0000 29.1872 0.0000 0.0000
# 5 0.0000 0.0000 0.0000 0.0000 29.1872 0.0000
# 6 -6.9379 6.9379 0.0000 0.0000 0.0000 57.1083
#
#
#
# Elastic Compliance Matrix: (Units=1/GPa)
#
#
# Indices 1 2 3 4 5 6 
#
# 1 0.026200 -0.010056 -0.004234 0.000000 0.000000 0.004405
# 2 -0.010056 0.026200 -0.004234 0.000000 0.000000 -0.004405
# 3 -0.004234 -0.004234 0.009826 0.000000 0.000000 0.000000
# 4 0.000000 0.000000 0.000000 0.034262 0.000000 0.000000
# 5 0.000000 0.000000 0.000000 0.000000 0.034262 0.000000
# 6 0.004405 -0.004405 0.000000 0.000000 0.000000 0.018581
#
#
# Mechanical properties :
#
#
# Convention : Reuss Voigt Hill
#
# Bulk Modulus (GPa) = 39.71563 47.72069 43.71816
# Shear Modulus (GPa) = 25.67140 32.85924 29.26532
#
# Velocity S-wave (km/s) = 3.57549 4.04519 3.81757
# Velocity P-wave (km/s) = 6.06824 6.75149 6.41896
#
# Compressibility (1/GPa) = 0.02517900
#
# Stress axis : x y z
#
# Youngs Moduli (GPa) = 38.16790 38.16790 101.77465
#
# Poissons Ratio (x) = 0.38380 0.43091
# Poissons Ratio (y) = 0.38380 0.43091
# Poissons Ratio (z) = 0.16160 0.16160
#
# Static dielectric constant tensor:
#      x y z
#    x 1.720990 0.000000 0.000000 
#    y 0.000000 1.720990 0.000000 
#    z 0.000000 0.000000 1.815340 
# 
# From -- ./inp_files/1448.got.cif
#   From: 2010.05.17/outbox.cif.g08.bks.cpg/sg85_cif.got.tgz:1448.got - 2010.06.03 19:01:16.
