data_PCOD9544690
_publ_section_title
;
Structure prediction by ZEFSAII (Michael W. Deem and Ramdas Pophale) SiO2 
 PCOD9544690
Probable space group: P 4/N
;
_chemical_formula_sum "Si O2"
_cell_formula_units_Z 58
_cell_length_a 12.133399
_cell_length_b 12.133399
_cell_length_c 20.170797
_cell_angle_alpha 90.000000
_cell_angle_beta 90.000000
_cell_angle_gamma 90.000000
_cell_volume 2969.532053
_symmetry_space_group_name_H-M "P 4/N"
_symmetry_group_IT_number 85
_symmetry_cell_setting 'tetragonal'
loop_
_space_group_symop_operation_xyz
x,y,z
1/2-y,x,z
1/2-x,1/2-y,z
y,1/2-x,z
-x,-y,-z
1/2+y,-x,-z
1/2+x,1/2+y,-z
-y,1/2+x,-z
loop_
_atom_site_type_symbol
_atom_site_label
_atom_site_fract_x
_atom_site_fract_y
_atom_site_fract_z
Si Si1 0.990481 0.363241 0.631691
Si Si2 0.212127 0.067779 0.488746
Si Si3 0.969716 0.142458 0.697733
Si Si4 0.240965 0.876264 0.385770
Si Si5 0.750000 0.750000 0.137370
Si Si6 0.095337 0.642105 0.934639
Si Si7 0.429695 0.057343 0.839705
Si Si8 0.141684 0.883512 0.918123
O O1 0.018533 0.305653 0.561992
O O2 0.074806 0.460322 0.644097
O O3 0.001680 0.270056 0.688199
O O4 0.865791 0.405517 0.632814
O O5 0.332698 0.124001 0.480772
O O6 0.199555 0.967000 0.437734
O O7 0.842557 0.130098 0.676332
O O8 0.008698 0.096261 0.767670
O O9 0.250000 0.750000 0.412396
O O10 0.669837 0.861532 0.139892
O O11 0.053541 0.548741 0.886419
O O12 0.073908 0.769260 0.915876
O O13 0.228107 0.636279 0.927655
O O14 0.062004 0.616596 0.010266
O O15 0.542528 0.122951 0.853810
#
# Coordination Sequence:
#
# PCOD9544690 Si02
#       8
#     8   8   8   8   2   8   8   8
#     4  11  23  41  61  86 124 155 204 253 305 375
#     4  11  23  41  66  92 118 157 204 255 320 377
#     4  11  25  40  59  88 122 165 197 249 311 368
#     4  10  25  41  61  90 118 157 202 257 311 361
#     4  12  24  36  56 100 120 164 204 260 314 360
#     4   9  19  37  61  92 123 160 211 253 299 370
#     4  12  22  39  61  89 129 164 207 256 312 374
#     4   9  19  37  62  89 122 167 206 253 310 359
#
# _framework density 19.531697999999999
#
# number of rings (size 3 to 8) (size 9 to 14) (size 15 to 20)
#    0.000    1.517    2.759    2.897    3.862    2.483 
#    4.966    0.000    0.000    0.414    0.000    1.931 
#    0.000    0.000    0.000    0.000    0.000    0.000 
#
# Total GULP energy -323014.364217 kJ/mol
# GULP energy per Si atom -5569.213176 kJ/mol
# Density = 1.948724 g / cm^3
# Si number density = 19.531698 Si / 1000 Ang^3
#
#
#
# Elastic Constant Matrix: (Units=GPa)
#
#
# Indices 1 2 3 4 5 6 
#
# 1 73.5314 13.1929 17.0708 0.0000 0.0000 -0.3134
# 2 13.1929 73.5314 17.0708 0.0000 0.0000 0.3134
# 3 17.0708 17.0708 66.6151 0.0000 0.0000 0.0000
# 4 0.0000 0.0000 0.0000 21.4214 0.0000 0.0000
# 5 0.0000 0.0000 0.0000 0.0000 21.4214 0.0000
# 6 -0.3134 0.3134 0.0000 0.0000 0.0000 19.2679
#
#
#
# Elastic Compliance Matrix: (Units=1/GPa)
#
#
# Indices 1 2 3 4 5 6 
#
# 1 0.014700 -0.001876 -0.003286 0.000000 0.000000 0.000270
# 2 -0.001876 0.014700 -0.003286 0.000000 0.000000 -0.000270
# 3 -0.003286 -0.003286 0.016696 0.000000 0.000000 0.000000
# 4 0.000000 0.000000 0.000000 0.046682 0.000000 0.000000
# 5 0.000000 0.000000 0.000000 0.000000 0.046682 0.000000
# 6 0.000270 -0.000270 0.000000 0.000000 0.000000 0.051909
#
#
# Mechanical properties :
#
#
# Convention : Reuss Voigt Hill
#
# Bulk Modulus (GPa) = 34.24725 34.26078 34.25401
# Shear Modulus (GPa) = 22.93579 23.51170 23.22374
#
# Velocity S-wave (km/s) = 3.43050 3.47330 3.45197
# Velocity P-wave (km/s) = 5.76744 5.80210 5.78480
#
# Compressibility (1/GPa) = 0.02919942
#
# Stress axis : x y z
#
# Youngs Moduli (GPa) = 68.02590 68.02590 59.89474
#
# Poissons Ratio (x) = 0.12760 0.19684
# Poissons Ratio (y) = 0.12760 0.19684
# Poissons Ratio (z) = 0.22356 0.22356
#
# Static dielectric constant tensor:
#      x y z
#    x 1.715110 0.000000 0.000000 
#    y 0.000000 1.715110 0.000000 
#    z 0.000000 0.000000 1.697160 
# 
# From -- ./inp_files/2295.got.cif
#   From: 2010.05.17/outbox.cif.g08.bks.cpg/sg85_cif.got.tgz:2295.got - 2010.06.03 19:01:16.
