data_PCOD9544608
_publ_section_title
;
Structure prediction by ZEFSAII (Michael W. Deem and Ramdas Pophale) SiO2 
 PCOD9544608
Probable space group: P 4/N
;
_chemical_formula_sum "Si O2"
_cell_formula_units_Z 40
_cell_length_a 19.087889
_cell_length_b 19.087889
_cell_length_c 5.166913
_cell_angle_alpha 90.000000
_cell_angle_beta 90.000000
_cell_angle_gamma 90.000000
_cell_volume 1882.551868
_symmetry_space_group_name_H-M "P 4/N"
_symmetry_group_IT_number 85
_symmetry_cell_setting 'tetragonal'
loop_
_space_group_symop_operation_xyz
x,y,z
1/2-y,x,z
1/2-x,1/2-y,z
y,1/2-x,z
-x,-y,-z
1/2+y,-x,-z
1/2+x,1/2+y,-z
-y,1/2+x,-z
loop_
_atom_site_type_symbol
_atom_site_label
_atom_site_fract_x
_atom_site_fract_y
_atom_site_fract_z
Si Si1 0.505357 0.155165 0.266143
Si Si2 0.899227 0.533412 0.756988
Si Si3 0.755099 0.977750 0.224710
Si Si4 0.711271 0.861894 0.573590
Si Si5 0.447174 0.619061 0.244126
O O1 0.460742 0.085589 0.320150
O O2 0.497144 0.203721 0.513951
O O3 0.583976 0.128145 0.218338
O O4 0.474015 0.192128 0.012917
O O5 0.828184 0.580617 0.750975
O O6 0.890960 0.475278 0.535114
O O7 0.914850 0.499037 0.031982
O O8 0.715464 0.904908 0.301531
O O9 0.700104 0.040068 0.177072
O O10 0.664904 0.791352 0.601517
#
# Coordination Sequence:
#
# PCOD9544608 Si02
#       5
#     8   8   8   8   8
#     4  12  23  42  67  91 128 167 216 276 325 373
#     4  11  22  40  63  95 125 168 225 259 320 380
#     4  11  24  41  63  95 127 169 220 260 324 394
#     4  10  21  40  61  91 136 180 213 254 306 386
#     4  11  24  41  65  94 127 166 215 276 325 375
#
# _framework density 21.247755000000002
#
# number of rings (size 3 to 8) (size 9 to 14) (size 15 to 20)
#    0.000    1.000    2.000    6.000    2.800    0.000 
#    0.000    0.000    0.000    3.600    0.000    0.000 
#    0.000    0.000    0.000    0.000    0.000    0.000 
#
# Total GULP energy -223374.278608 kJ/mol
# GULP energy per Si atom -5584.356965 kJ/mol
# Density = 2.119939 g / cm^3
# Si number density = 21.247755 Si / 1000 Ang^3
#
#
#
# Elastic Constant Matrix: (Units=GPa)
#
#
# Indices 1 2 3 4 5 6 
#
# 1 54.5004 30.4528 18.9841 0.0000 0.0000 -6.9131
# 2 30.4528 54.5004 18.9841 0.0000 0.0000 6.9131
# 3 18.9841 18.9841 78.0105 0.0000 0.0000 0.0000
# 4 0.0000 0.0000 0.0000 23.0079 0.0000 0.0000
# 5 0.0000 0.0000 0.0000 0.0000 23.0079 0.0000
# 6 -6.9131 6.9131 0.0000 0.0000 0.0000 43.5690
#
#
#
# Elastic Compliance Matrix: (Units=1/GPa)
#
#
# Indices 1 2 3 4 5 6 
#
# 1 0.029483 -0.016276 -0.003214 0.000000 0.000000 0.007261
# 2 -0.016276 0.029483 -0.003214 0.000000 0.000000 -0.007261
# 3 -0.003214 -0.003214 0.014383 0.000000 0.000000 0.000000
# 4 0.000000 0.000000 0.000000 0.043463 0.000000 0.000000
# 5 0.000000 0.000000 0.000000 0.000000 0.043463 0.000000
# 6 0.007261 -0.007261 0.000000 0.000000 0.000000 0.025256
#
#
# Mechanical properties :
#
#
# Convention : Reuss Voigt Hill
#
# Bulk Modulus (GPa) = 35.78845 35.98369 35.88607
# Shear Modulus (GPa) = 20.81130 25.82296 23.31713
#
# Velocity S-wave (km/s) = 3.13303 3.48994 3.31629
# Velocity P-wave (km/s) = 5.47428 5.76295 5.62047
#
# Compressibility (1/GPa) = 0.02794197
#
# Stress axis : x y z
#
# Youngs Moduli (GPa) = 33.91761 33.91761 69.52595
#
# Poissons Ratio (x) = 0.55203 0.22346
# Poissons Ratio (y) = 0.55203 0.22346
# Poissons Ratio (z) = 0.10902 0.10902
#
# Static dielectric constant tensor:
#      x y z
#    x 1.811910 0.000000 0.000000 
#    y 0.000000 1.811910 0.000000 
#    z 0.000000 0.000000 1.752200 
# 
# From -- ./inp_files/338.got.cif
#   From: 2010.05.17/outbox.cif.g08.bks.cpg/sg85_cif.got.tgz:338.got - 2010.06.03 19:01:16.
