data_PCOD9544155
_publ_section_title
;
Structure prediction by ZEFSAII (Michael W. Deem and Ramdas Pophale) SiO2 
 PCOD9544155
Probable space group: P 42/M
;
_chemical_formula_sum "Si O2"
_cell_formula_units_Z 48
_cell_length_a 8.738752
_cell_length_b 8.738752
_cell_length_c 28.498883
_cell_angle_alpha 90.000000
_cell_angle_beta 90.000000
_cell_angle_gamma 90.000000
_cell_volume 2176.339615
_symmetry_space_group_name_H-M "P 42/M"
_symmetry_group_IT_number 84
_symmetry_cell_setting 'tetragonal'
loop_
_space_group_symop_operation_xyz
x,y,z
-y,x,1/2+z
-x,-y,z
y,-x,1/2+z
-x,-y,-z
y,-x,1/2-z
x,y,-z
-y,x,1/2-z
loop_
_atom_site_type_symbol
_atom_site_label
_atom_site_fract_x
_atom_site_fract_y
_atom_site_fract_z
Si Si1 0.027085 0.688642 0.500000
Si Si2 0.554824 0.678406 0.000000
Si Si3 0.243746 0.070989 0.258842
Si Si4 0.326853 0.446584 0.603728
Si Si5 0.811426 0.116774 0.903035
Si Si6 0.025081 0.327223 0.860966
Si Si7 0.320350 0.151322 0.161455
O O1 0.952627 0.764588 0.453527
O O2 0.000000 0.500000 0.500000
O O3 0.213086 0.706864 0.500000
O O4 0.500000 0.500000 0.000000
O O5 0.494231 0.718019 0.051196
O O6 0.348709 0.124005 0.216203
O O7 0.096047 0.180204 0.255320
O O8 0.309142 0.062655 0.310950
O O9 0.500000 0.500000 0.612894
O O10 0.282441 0.270774 0.604853
O O11 0.206158 0.527593 0.636977
O O12 0.980939 0.181594 0.894152
O O13 0.752731 0.997330 0.863857
O O14 0.200549 0.289679 0.847578
O O15 0.000000 0.500000 0.878883
#
# Coordination Sequence:
#
# PCOD9544155 Si02
#       7
#     4   4   8   8   8   8   8
#     4  12  20  40  63  96 124 165 217 272 308 392
#     4  10  20  36  59  91 125 164 203 260 324 382
#     4   9  18  37  62  85 111 156 214 254 300 381
#     4  11  22  37  61  93 128 160 206 264 324 380
#     4  12  22  39  65  93 121 165 220 260 313 386
#     4  11  24  41  60  88 131 166 203 268 334 380
#     4  11  21  39  64  89 120 165 213 259 316 388
#
# _framework density 22.055381000000001
#
# number of rings (size 3 to 8) (size 9 to 14) (size 15 to 20)
#    0.000    1.167    5.000    2.000    0.000    1.333 
#    0.000    2.917    0.000    0.000    0.000    0.000 
#    0.000    0.000    0.000    0.000    0.000    0.000 
#
# Total GULP energy -267398.517372 kJ/mol
# GULP energy per Si atom -5570.802445 kJ/mol
# Density = 2.200518 g / cm^3
# Si number density = 22.055381 Si / 1000 Ang^3
#
#
#
# Elastic Constant Matrix: (Units=GPa)
#
#
# Indices 1 2 3 4 5 6 
#
# 1 84.7787 12.1573 16.6632 0.0000 0.0000 0.0256
# 2 12.1573 84.7787 16.6632 0.0000 0.0000 -0.0256
# 3 16.6632 16.6632 124.4601 0.0000 0.0000 0.0000
# 4 0.0000 0.0000 0.0000 81.8363 0.0000 0.0000
# 5 0.0000 0.0000 0.0000 0.0000 81.8363 0.0000
# 6 0.0256 -0.0256 0.0000 0.0000 0.0000 28.0670
#
#
#
# Elastic Compliance Matrix: (Units=1/GPa)
#
#
# Indices 1 2 3 4 5 6 
#
# 1 0.012292 -0.001478 -0.001448 0.000000 0.000000 -0.000013
# 2 -0.001478 0.012292 -0.001448 0.000000 0.000000 0.000013
# 3 -0.001448 -0.001448 0.008422 0.000000 0.000000 0.000000
# 4 0.000000 0.000000 0.000000 0.012220 0.000000 0.000000
# 5 0.000000 0.000000 0.000000 0.000000 0.012220 0.000000
# 6 -0.000013 0.000013 0.000000 0.000000 0.000000 0.035629
#
#
# Mechanical properties :
#
#
# Convention : Reuss Voigt Hill
#
# Bulk Modulus (GPa) = 41.22209 42.77612 41.99910
# Shear Modulus (GPa) = 45.49257 54.91685 50.20471
#
# Velocity S-wave (km/s) = 4.54657 4.99536 4.77624
# Velocity P-wave (km/s) = 6.80386 7.26006 7.03566
#
# Compressibility (1/GPa) = 0.02425884
#
# Stress axis : x y z
#
# Youngs Moduli (GPa) = 81.35410 81.35410 118.73133
#
# Poissons Ratio (x) = 0.12025 0.17190
# Poissons Ratio (y) = 0.12025 0.17190
# Poissons Ratio (z) = 0.11778 0.11778
#
# Static dielectric constant tensor:
#      x y z
#    x 1.849030 0.000000 0.000000 
#    y 0.000000 1.849030 0.000000 
#    z 0.000000 0.000000 1.742970 
# 
# From -- ./inp_files/5886.got.cif
#   From: 2010.05.17/outbox.cif.g08.bks.cpg/sg84_3_cif.got.tgz:5886.got - 2010.06.03 18:57:40.
