data_PCOD9544408
_publ_section_title
;
Structure prediction by ZEFSAII (Michael W. Deem and Ramdas Pophale) SiO2 
 PCOD9544408
Probable space group: P 42/M
;
_chemical_formula_sum "Si O2"
_cell_formula_units_Z 48
_cell_length_a 8.698105
_cell_length_b 8.698105
_cell_length_c 29.505333
_cell_angle_alpha 90.000000
_cell_angle_beta 90.000000
_cell_angle_gamma 90.000000
_cell_volume 2232.285881
_symmetry_space_group_name_H-M "P 42/M"
_symmetry_group_IT_number 84
_symmetry_cell_setting 'tetragonal'
loop_
_space_group_symop_operation_xyz
x,y,z
-y,x,1/2+z
-x,-y,z
y,-x,1/2+z
-x,-y,-z
y,-x,1/2-z
x,y,-z
-y,x,1/2-z
loop_
_atom_site_type_symbol
_atom_site_label
_atom_site_fract_x
_atom_site_fract_y
_atom_site_fract_z
Si Si1 0.745555 0.585450 0.000000
Si Si2 0.847151 0.240101 0.899953
Si Si3 0.738854 0.927144 0.500000
Si Si4 0.618224 0.271136 0.249717
Si Si5 0.443631 0.664121 0.598559
Si Si6 0.938464 0.672735 0.667811
Si Si7 0.760655 0.145833 0.336340
O O1 0.821837 0.415490 0.000000
O O2 0.652019 0.605261 0.046098
O O3 0.893898 0.694499 0.000000
O O4 0.784660 0.415036 0.900058
O O5 0.714391 0.132237 0.880625
O O6 0.988279 0.233194 0.864501
O O7 0.893020 0.190097 0.950780
O O8 0.437078 0.302960 0.243203
O O9 0.684932 0.194711 0.204862
O O10 0.653253 0.159473 0.292094
O O11 0.500000 0.500000 0.615935
O O12 0.308151 0.729772 0.628687
O O13 0.000000 0.500000 0.669701
O O14 0.072235 0.794572 0.677810
#
# Coordination Sequence:
#
# PCOD9544408 Si02
#       7
#     4   8   4   8   8   8   8
#     4   9  17  36  63 102 137 173 234 286 346 409
#     4  11  24  44  71  99 143 186 238 282 352 416
#     4   9  18  40  67 101 136 186 230 290 335 428
#     4  11  26  47  73 101 133 176 227 285 352 417
#     4  11  22  38  69 104 138 179 229 295 349 409
#     4  12  26  47  65 101 139 180 230 295 343 424
#     4  12  25  42  69 100 136 184 230 279 355 422
#
# _framework density 21.50262
#
# number of rings (size 3 to 8) (size 9 to 14) (size 15 to 20)
#    0.000    1.000    3.333    3.250    4.667    1.333 
#    0.000    2.917    0.000    0.000    0.000    0.000 
#    0.000    0.000    0.000    0.000    0.000    0.000 
#
# Total GULP energy -268495.051415 kJ/mol
# GULP energy per Si atom -5593.646904 kJ/mol
# Density = 2.145368 g / cm^3
# Si number density = 21.502620 Si / 1000 Ang^3
#
#
#
# Elastic Constant Matrix: (Units=GPa)
#
#
# Indices 1 2 3 4 5 6 
#
# 1 59.1977 12.9649 23.2092 0.0000 0.0000 -1.4831
# 2 12.9649 59.1977 23.2092 0.0000 0.0000 1.4831
# 3 23.2092 23.2092 91.2864 0.0000 0.0000 0.0000
# 4 0.0000 0.0000 0.0000 2.1698 0.0000 0.0000
# 5 0.0000 0.0000 0.0000 0.0000 2.1698 0.0000
# 6 -1.4831 1.4831 0.0000 0.0000 0.0000 28.1629
#
#
#
# Elastic Compliance Matrix: (Units=1/GPa)
#
#
# Indices 1 2 3 4 5 6 
#
# 1 0.019135 -0.002568 -0.004212 0.000000 0.000000 0.001143
# 2 -0.002568 0.019135 -0.004212 0.000000 0.000000 -0.001143
# 3 -0.004212 -0.004212 0.013096 0.000000 0.000000 0.000000
# 4 0.000000 0.000000 0.000000 0.460862 0.000000 0.000000
# 5 0.000000 0.000000 0.000000 0.000000 0.460862 0.000000
# 6 0.001143 -0.001143 0.000000 0.000000 0.000000 0.035628
#
#
# Mechanical properties :
#
#
# Convention : Reuss Voigt Hill
#
# Bulk Modulus (GPa) = 34.03444 36.49425 35.26434
# Shear Modulus (GPa) = 4.80539 16.52042 10.66291
#
# Velocity S-wave (km/s) = 1.49654 2.77483 2.22927
# Velocity P-wave (km/s) = 4.34150 5.22255 4.80227
#
# Compressibility (1/GPa) = 0.02938200
#
# Stress axis : x y z
#
# Youngs Moduli (GPa) = 52.26025 52.26025 76.35714
#
# Poissons Ratio (x) = 0.13420 0.32162
# Poissons Ratio (y) = 0.13420 0.32162
# Poissons Ratio (z) = 0.22013 0.22013
#
# Static dielectric constant tensor:
#      x y z
#    x 1.781730 0.000000 0.000000 
#    y 0.000000 1.781730 0.000000 
#    z 0.000000 0.000000 1.786110 
# 
# From -- ./inp_files/5875.got.cif
#   From: 2010.05.17/outbox.cif.g08.bks.cpg/sg84_3_cif.got.tgz:5875.got - 2010.06.03 18:57:40.
