data_PCOD9544481
_publ_section_title
;
Structure prediction by ZEFSAII (Michael W. Deem and Ramdas Pophale) SiO2 
 PCOD9544481
Probable space group: P 4/N
;
_chemical_formula_sum "Si O2"
_cell_formula_units_Z 56
_cell_length_a 14.582087
_cell_length_b 14.582087
_cell_length_c 12.355510
_cell_angle_alpha 90.000000
_cell_angle_beta 90.000000
_cell_angle_gamma 90.000000
_cell_volume 2627.241808
_symmetry_space_group_name_H-M "P 4/N"
_symmetry_group_IT_number 85
_symmetry_cell_setting 'tetragonal'
loop_
_space_group_symop_operation_xyz
x,y,z
1/2-y,x,z
1/2-x,1/2-y,z
y,1/2-x,z
-x,-y,-z
1/2+y,-x,-z
1/2+x,1/2+y,-z
-y,1/2+x,-z
loop_
_atom_site_type_symbol
_atom_site_label
_atom_site_fract_x
_atom_site_fract_y
_atom_site_fract_z
Si Si1 0.376178 0.827889 0.246769
Si Si2 0.858032 0.507922 0.600779
Si Si3 0.280183 0.579014 0.129173
Si Si4 0.301368 0.873301 0.555913
Si Si5 0.546661 0.836327 0.700189
Si Si6 0.512528 0.116335 0.932635
Si Si7 0.065900 0.120978 0.096926
O O1 0.290399 0.843238 0.165659
O O2 0.368822 0.743926 0.327659
O O3 0.465422 0.822439 0.171074
O O4 0.376929 0.920471 0.320530
O O5 0.848242 0.466326 0.481648
O O6 0.762009 0.552687 0.642342
O O7 0.935648 0.583567 0.615404
O O8 0.335059 0.549618 0.236511
O O9 0.213893 0.491773 0.100229
O O10 0.348658 0.581576 0.028496
O O11 0.362235 0.784866 0.528383
O O12 0.613209 0.865923 0.801145
O O13 0.543670 0.014711 0.895205
O O14 0.412373 0.114054 0.986626
#
# Coordination Sequence:
#
# PCOD9544481 Si02
#       7
#     8   8   8   8   8   8   8
#     4   9  17  35  52  72 107 141 177 227 268 319
#     4  10  19  32  55  80 106 135 180 223 271 320
#     4   9  17  29  51  78 106 137 174 218 269 326
#     4   9  19  37  56  71 102 147 180 219 273 324
#     4  10  16  31  51  78 110 131 169 224 266 310
#     4   9  16  28  52  69 103 145 170 213 265 323
#     4   9  16  30  46  75 110 139 165 212 275 310
#
# _framework density 21.315131000000001
#
# number of rings (size 3 to 8) (size 9 to 14) (size 15 to 20)
#    0.000    2.714    4.286    0.000    0.000    0.286 
#    0.000   21.429    3.143    0.429    0.000    0.000 
#    0.000    0.000    0.000    0.000    0.000    0.000 
#
# Total GULP energy -312002.427002 kJ/mol
# GULP energy per Si atom -5571.471911 kJ/mol
# Density = 2.126662 g / cm^3
# Si number density = 21.315131 Si / 1000 Ang^3
#
#
#
# Elastic Constant Matrix: (Units=GPa)
#
#
# Indices 1 2 3 4 5 6 
#
# 1 69.4784 29.6396 34.9728 0.0000 0.0000 -7.4025
# 2 29.6396 69.4784 34.9728 0.0000 0.0000 7.4025
# 3 34.9728 34.9728 83.1224 0.0000 0.0000 0.0000
# 4 0.0000 0.0000 0.0000 28.9977 0.0000 0.0000
# 5 0.0000 0.0000 0.0000 0.0000 28.9977 0.0000
# 6 -7.4025 7.4025 0.0000 0.0000 0.0000 16.6647
#
#
#
# Elastic Compliance Matrix: (Units=1/GPa)
#
#
# Indices 1 2 3 4 5 6 
#
# 1 0.022207 -0.007857 -0.006037 0.000000 0.000000 0.013354
# 2 -0.007857 0.022207 -0.006037 0.000000 0.000000 -0.013354
# 3 -0.006037 -0.006037 0.017111 0.000000 0.000000 0.000000
# 4 0.000000 0.000000 0.000000 0.034485 0.000000 0.000000
# 5 0.000000 0.000000 0.000000 0.000000 0.034485 0.000000
# 6 0.013354 -0.013354 0.000000 0.000000 0.000000 0.071871
#
#
# Mechanical properties :
#
#
# Convention : Reuss Voigt Hill
#
# Bulk Modulus (GPa) = 46.16766 46.80549 46.48658
# Shear Modulus (GPa) = 20.04411 23.09831 21.57121
#
# Velocity S-wave (km/s) = 3.06987 3.29547 3.18467
# Velocity P-wave (km/s) = 5.85424 6.04042 5.94805
#
# Compressibility (1/GPa) = 0.02166018
#
# Stress axis : x y z
#
# Youngs Moduli (GPa) = 45.03154 45.03154 58.44286
#
# Poissons Ratio (x) = 0.35382 0.35284
# Poissons Ratio (y) = 0.35382 0.35284
# Poissons Ratio (z) = 0.27187 0.27187
#
# Static dielectric constant tensor:
#      x y z
#    x 1.825090 0.000000 0.000000 
#    y 0.000000 1.825090 0.000000 
#    z 0.000000 0.000000 1.838440 
# 
# From -- ./inp_files/1827.got.cif
#   From: 2010.05.17/outbox.cif.g08.bks.cpg/sg85_cif.got.tgz:1827.got - 2010.06.03 19:01:16.
