data_PCOD9544976
_publ_section_title
;
Structure prediction by ZEFSAII (Michael W. Deem and Ramdas Pophale) SiO2 
 PCOD9544976
Probable space group: P 42/N
;
_chemical_formula_sum "Si O2"
_cell_formula_units_Z 44
_cell_length_a 8.162894
_cell_length_b 8.162894
_cell_length_c 31.980916
_cell_angle_alpha 90.000000
_cell_angle_beta 90.000000
_cell_angle_gamma 90.000000
_cell_volume 2130.979209
_symmetry_space_group_name_H-M "P 42/N"
_symmetry_group_IT_number 86
_space_group.IT_coordinate_system_code '2'
_symmetry_cell_setting 'tetragonal'
loop_
_space_group_symop_operation_xyz
x,y,z
-y,1/2+x,1/2+z
1/2-x,1/2-y,z
1/2+y,-x,1/2+z
-x,-y,-z
y,1/2-x,1/2-z
1/2+x,1/2+y,-z
1/2-y,x,1/2-z
loop_
_atom_site_type_symbol
_atom_site_label
_atom_site_fract_x
_atom_site_fract_y
_atom_site_fract_z
Si Si1 0.997006 0.637908 0.248253
Si Si2 0.832464 0.488266 0.925973
Si Si3 0.750000 0.750000 0.514279
Si Si4 0.477977 0.345402 0.942244
Si Si5 0.007906 0.502319 0.161102
Si Si6 0.750000 0.250000 0.684280
Si Si7 0.750000 0.750000 0.373355
O O1 0.827537 0.550112 0.261093
O O2 0.068277 0.542100 0.207971
O O3 0.122568 0.654570 0.285977
O O4 0.863823 0.643443 0.955143
O O5 0.642838 0.447026 0.935508
O O6 0.952146 0.340922 0.939532
O O7 0.863071 0.507349 0.876452
O O8 0.855180 0.632542 0.483624
O O9 0.352937 0.368493 0.903870
O O10 0.890152 0.345374 0.159658
O O11 0.882149 0.651524 0.152688
#
# Coordination Sequence:
#
# PCOD9544976 Si02
#       7
#     8   8   4   8   8   4   4
#     4   9  18  35  58  80 105 146 186 216 260 324
#     4  10  21  36  56  83 110 141 180 231 280 312
#     4  11  20  36  56  80 112 146 182 220 270 332
#     4   9  20  37  56  79 107 144 185 221 268 329
#     4  10  20  36  55  82 110 139 183 226 269 325
#     4  10  20  34  56  82 108 140 176 226 278 320
#     4   9  18  34  59  78 101 142 185 224 261 312
#
# _framework density 20.647784000000001
#
# number of rings (size 3 to 8) (size 9 to 14) (size 15 to 20)
#    0.000    2.364    0.000    3.273    0.000    4.364 
#    0.000    9.091    0.000    4.909    0.000    0.000 
#    0.000    0.000    0.000    0.000    0.000    0.000 
#
# Total GULP energy -245394.231661 kJ/mol
# GULP energy per Si atom -5577.141629 kJ/mol
# Density = 2.060079 g / cm^3
# Si number density = 20.647784 Si / 1000 Ang^3
#
#
#
# Elastic Constant Matrix: (Units=GPa)
#
#
# Indices 1 2 3 4 5 6 
#
# 1 47.8346 0.5848 25.0924 0.0000 0.0000 -2.3057
# 2 0.5848 47.8346 25.0924 0.0000 0.0000 2.3057
# 3 25.0924 25.0924 86.8107 0.0000 0.0000 0.0000
# 4 0.0000 0.0000 0.0000 40.6299 0.0000 0.0000
# 5 0.0000 0.0000 0.0000 0.0000 40.6299 0.0000
# 6 -2.3057 2.3057 0.0000 0.0000 0.0000 9.4616
#
#
#
# Elastic Compliance Matrix: (Units=1/GPa)
#
#
# Indices 1 2 3 4 5 6 
#
# 1 0.025583 0.003903 -0.008523 0.000000 0.000000 0.005283
# 2 0.003903 0.025583 -0.008523 0.000000 0.000000 -0.005283
# 3 -0.008523 -0.008523 0.016446 0.000000 0.000000 0.000000
# 4 0.000000 0.000000 0.000000 0.024612 0.000000 0.000000
# 5 0.000000 0.000000 0.000000 0.000000 0.024612 0.000000
# 6 0.005283 -0.005283 0.000000 0.000000 0.000000 0.108265
#
#
# Mechanical properties :
#
#
# Convention : Reuss Voigt Hill
#
# Bulk Modulus (GPa) = 24.19690 31.55770 27.87730
# Shear Modulus (GPa) = 18.85625 26.92496 22.89061
#
# Velocity S-wave (km/s) = 3.02525 3.61503 3.33321
# Velocity P-wave (km/s) = 4.89359 5.72203 5.32394
#
# Compressibility (1/GPa) = 0.04132761
#
# Stress axis : x y z
#
# Youngs Moduli (GPa) = 39.08815 39.08815 60.80339
#
# Poissons Ratio (x) = -0.15258 0.51823
# Poissons Ratio (y) = -0.15258 0.51823
# Poissons Ratio (z) = 0.33315 0.33315
#
# Static dielectric constant tensor:
#      x y z
#    x 1.759500 0.000000 0.000000 
#    y 0.000000 1.759500 0.000000 
#    z 0.000000 0.000000 1.756560 
# 
# From -- ./inp_files/5067.got.cif
#   From: 2010.05.17/outbox.cif.g08.bks.cpg/sg86_3_cif.got.tgz:5067.got - 2010.06.03 19:03:11.
