data_PCOD9544977
_publ_section_title
;
Structure prediction by ZEFSAII (Michael W. Deem and Ramdas Pophale) SiO2 
 PCOD9544977
Probable space group: P 42/N
;
_chemical_formula_sum "Si O2"
_cell_formula_units_Z 36
_cell_length_a 8.953518
_cell_length_b 8.953518
_cell_length_c 22.158907
_cell_angle_alpha 90.000000
_cell_angle_beta 90.000000
_cell_angle_gamma 90.000000
_cell_volume 1776.379517
_symmetry_space_group_name_H-M "P 42/N"
_symmetry_group_IT_number 86
_space_group.IT_coordinate_system_code '2'
_symmetry_cell_setting 'tetragonal'
loop_
_space_group_symop_operation_xyz
x,y,z
-y,1/2+x,1/2+z
1/2-x,1/2-y,z
1/2+y,-x,1/2+z
-x,-y,-z
y,1/2-x,1/2-z
1/2+x,1/2+y,-z
1/2-y,x,1/2-z
loop_
_atom_site_type_symbol
_atom_site_label
_atom_site_fract_x
_atom_site_fract_y
_atom_site_fract_z
Si Si1 0.297064 0.447926 0.637496
Si Si2 0.250000 0.250000 0.454123
Si Si3 0.750000 0.750000 0.750000
Si Si4 0.750000 0.750000 0.250000
Si Si5 0.750000 0.250000 0.611419
Si Si6 0.891872 0.948963 0.648060
Si Si7 0.058043 0.334091 0.564644
O O1 0.259594 0.388598 0.704301
O O2 0.429055 0.565263 0.642788
O O3 0.143607 0.466839 0.600486
O O4 0.381710 0.314985 0.599870
O O5 0.177872 0.126628 0.411203
O O6 0.123860 0.319843 0.497957
O O7 0.835084 0.864012 0.706599
O O8 0.670157 0.381071 0.649396
O O9 0.618570 0.174040 0.572060
#
# Coordination Sequence:
#
# PCOD9544977 Si02
#       7
#     8   4   2   2   4   8   8
#     4   8  16  30  52  77 103 139 180 217 269 332
#     4   9  19  37  54  71 107 147 178 218 278 339
#     4  10  24  40  54  76 112 154 188 226 288 330
#     4   8  14  28  50  80 106 132 176 230 272 320
#     4  10  20  34  56  84 110 134 176 230 276 328
#     4  10  21  37  54  75 106 145 184 228 276 328
#     4   8  17  32  54  83 107 136 176 220 274 332
#
# _framework density 20.265938999999999
#
# number of rings (size 3 to 8) (size 9 to 14) (size 15 to 20)
#    0.000    3.556    0.000    0.000    0.000   14.222 
#    0.000    0.000    0.000    5.333    0.000    0.000 
#    0.000    0.000    0.000    0.000    0.000    0.000 
#
# Total GULP energy -200452.313407 kJ/mol
# GULP energy per Si atom -5568.119817 kJ/mol
# Density = 2.021981 g / cm^3
# Si number density = 20.265939 Si / 1000 Ang^3
#
#
#
# Elastic Constant Matrix: (Units=GPa)
#
#
# Indices 1 2 3 4 5 6 
#
# 1 103.3268 29.1301 40.9721 0.0000 0.0000 7.7766
# 2 29.1301 103.3268 40.9721 0.0000 0.0000 -7.7766
# 3 40.9721 40.9721 135.9641 0.0000 0.0000 0.0000
# 4 0.0000 0.0000 0.0000 -1.3680 0.0000 0.0000
# 5 0.0000 0.0000 0.0000 0.0000 -1.3680 0.0000
# 6 7.7766 -7.7766 0.0000 0.0000 0.0000 22.4206
#
#
#
# Elastic Compliance Matrix: (Units=1/GPa)
#
#
# Indices 1 2 3 4 5 6 
#
# 1 0.011907 -0.002627 -0.002796 0.000000 0.000000 -0.005041
# 2 -0.002627 0.011907 -0.002796 0.000000 0.000000 0.005041
# 3 -0.002796 -0.002796 0.009040 0.000000 0.000000 0.000000
# 4 0.000000 0.000000 0.000000 -0.731004 0.000000 0.000000
# 5 0.000000 0.000000 0.000000 0.000000 -0.731004 0.000000
# 6 -0.005041 0.005041 0.000000 0.000000 0.000000 0.048099
#
#
# Mechanical properties :
#
#
# Convention : Reuss Voigt Hill
#
# Bulk Modulus (GPa) = 60.92373 62.75179 61.83776
# Shear Modulus (GPa) = -3.67879 19.37315 7.84718
#
# Velocity S-wave (km/s) = -1.34878 3.09519 1.96990
# Velocity P-wave (km/s) = 5.26325 6.61854 5.97941
#
# Compressibility (1/GPa) = 0.01641397
#
# Stress axis : x y z
#
# Youngs Moduli (GPa) = 83.98410 83.98410 110.61682
#
# Poissons Ratio (x) = 0.22066 0.30932
# Poissons Ratio (y) = 0.22066 0.30932
# Poissons Ratio (z) = 0.23485 0.23485
#
# Static dielectric constant tensor:
#      x y z
#    x 1.790460 0.000000 0.000000 
#    y 0.000000 1.790460 0.000000 
#    z 0.000000 0.000000 1.678760 
# 
# From -- ./inp_files/4076.got.cif
#   From: 2010.05.17/outbox.cif.g08.bks.cpg/sg86_3_cif.got.tgz:4076.got - 2010.06.03 19:03:11.
