data_PCOD9544681
_publ_section_title
;
Structure prediction by ZEFSAII (Michael W. Deem and Ramdas Pophale) SiO2 
 PCOD9544681
Probable space group: P 4/N
;
_chemical_formula_sum "Si O2"
_cell_formula_units_Z 56
_cell_length_a 14.442037
_cell_length_b 14.442037
_cell_length_c 12.149440
_cell_angle_alpha 90.000000
_cell_angle_beta 90.000000
_cell_angle_gamma 90.000000
_cell_volume 2534.038257
_symmetry_space_group_name_H-M "P 4/N"
_symmetry_group_IT_number 85
_symmetry_cell_setting 'tetragonal'
loop_
_space_group_symop_operation_xyz
x,y,z
1/2-y,x,z
1/2-x,1/2-y,z
y,1/2-x,z
-x,-y,-z
1/2+y,-x,-z
1/2+x,1/2+y,-z
-y,1/2+x,-z
loop_
_atom_site_type_symbol
_atom_site_label
_atom_site_fract_x
_atom_site_fract_y
_atom_site_fract_z
Si Si1 0.103931 0.528847 0.354586
Si Si2 0.109879 0.184450 0.520370
Si Si3 0.653942 0.362747 0.536117
Si Si4 0.721132 0.463819 0.005363
Si Si5 0.597724 0.018334 0.291566
Si Si6 0.799857 0.341709 0.824730
Si Si7 0.051399 0.089406 0.953145
O O1 0.161255 0.446567 0.409881
O O2 0.071649 0.594106 0.456767
O O3 0.158138 0.592394 0.268302
O O4 0.012315 0.489018 0.301131
O O5 0.207202 0.131606 0.524401
O O6 0.048778 0.150718 0.623309
O O7 0.760687 0.373121 0.508049
O O8 0.619080 0.375576 0.660033
O O9 0.694996 0.387392 0.099991
O O10 0.655320 0.552375 0.029901
O O11 0.820734 0.512380 0.987053
O O12 0.723511 0.397129 0.897893
O O13 0.615286 0.981354 0.169959
O O14 0.750000 0.250000 0.780074
O O15 0.000000 0.000000 0.000000
#
# Coordination Sequence:
#
# PCOD9544681 Si02
#       7
#     8   8   8   8   8   8   8
#     4  11  25  41  67 100 141 182 233 293 368 423
#     4  10  24  46  69  98 139 188 241 293 354 444
#     4  10  24  39  60 100 138 179 237 292 347 422
#     4  12  24  47  71 107 146 186 247 309 372 447
#     4  11  25  41  71  97 142 183 230 294 365 424
#     4  12  23  46  75 105 140 195 252 306 372 451
#     4  12  26  46  74 106 149 190 244 308 378 446
#
# _framework density 22.099115000000001
#
# number of rings (size 3 to 8) (size 9 to 14) (size 15 to 20)
#    0.000    0.857    4.286    1.714   14.000    1.429 
#    2.571    0.000    0.000    0.000    0.000    0.000 
#    0.000    0.000    0.000    0.000    0.000    0.000 
#
# Total GULP energy -312774.599999 kJ/mol
# GULP energy per Si atom -5585.260714 kJ/mol
# Density = 2.204882 g / cm^3
# Si number density = 22.099115 Si / 1000 Ang^3
#
#
#
# Elastic Constant Matrix: (Units=GPa)
#
#
# Indices 1 2 3 4 5 6 
#
# 1 96.8226 29.8016 34.3708 0.0000 0.0000 1.3268
# 2 29.8016 96.8226 34.3708 0.0000 0.0000 -1.3268
# 3 34.3708 34.3708 93.6080 0.0000 0.0000 0.0000
# 4 0.0000 0.0000 0.0000 31.2818 0.0000 0.0000
# 5 0.0000 0.0000 0.0000 0.0000 31.2818 0.0000
# 6 1.3268 -1.3268 0.0000 0.0000 0.0000 37.1374
#
#
#
# Elastic Compliance Matrix: (Units=1/GPa)
#
#
# Indices 1 2 3 4 5 6 
#
# 1 0.012403 -0.002539 -0.003622 0.000000 0.000000 -0.000534
# 2 -0.002539 0.012403 -0.003622 0.000000 0.000000 0.000534
# 3 -0.003622 -0.003622 0.013342 0.000000 0.000000 0.000000
# 4 0.000000 0.000000 0.000000 0.031967 0.000000 0.000000
# 5 0.000000 0.000000 0.000000 0.000000 0.031967 0.000000
# 6 -0.000534 0.000534 0.000000 0.000000 0.000000 0.026965
#
#
# Mechanical properties :
#
#
# Convention : Reuss Voigt Hill
#
# Bulk Modulus (GPa) = 53.81323 53.81555 53.81439
# Shear Modulus (GPa) = 32.29823 32.52085 32.40954
#
# Velocity S-wave (km/s) = 3.82713 3.84029 3.83372
# Velocity P-wave (km/s) = 6.62819 6.63842 6.63331
#
# Compressibility (1/GPa) = 0.01858279
#
# Stress axis : x y z
#
# Youngs Moduli (GPa) = 80.62778 80.62778 74.94878
#
# Poissons Ratio (x) = 0.20473 0.27144
# Poissons Ratio (y) = 0.20473 0.27144
# Poissons Ratio (z) = 0.29201 0.29201
#
# Static dielectric constant tensor:
#      x y z
#    x -0.268090 0.000000 0.000000 
#    y 0.000000 -0.268090 0.000000 
#    z 0.000000 0.000000 1.639570 
# 
# From -- ./inp_files/1756.got.cif
#   From: 2010.05.17/outbox.cif.g08.bks.cpg/sg85_cif.got.tgz:1756.got - 2010.06.03 19:01:16.
