data_PCOD9544130
_publ_section_title
;
Structure prediction by ZEFSAII (Michael W. Deem and Ramdas Pophale) SiO2 
 PCOD9544130
Probable space group: P 42/M
;
_chemical_formula_sum "Si O2"
_cell_formula_units_Z 32
_cell_length_a 14.421712
_cell_length_b 14.421712
_cell_length_c 9.020538
_cell_angle_alpha 90.000000
_cell_angle_beta 90.000000
_cell_angle_gamma 90.000000
_cell_volume 1876.143605
_symmetry_space_group_name_H-M "P 42/M"
_symmetry_group_IT_number 84
_symmetry_cell_setting 'tetragonal'
loop_
_space_group_symop_operation_xyz
x,y,z
-y,x,1/2+z
-x,-y,z
y,-x,1/2+z
-x,-y,-z
y,-x,1/2-z
x,y,-z
-y,x,1/2-z
loop_
_atom_site_type_symbol
_atom_site_label
_atom_site_fract_x
_atom_site_fract_y
_atom_site_fract_z
Si Si1 0.248376 0.609474 0.822411
Si Si2 0.254931 0.103277 0.823094
Si Si3 0.606851 0.255799 0.677700
Si Si4 0.750617 0.096165 0.676600
O O1 0.160344 0.661814 0.752334
O O2 0.338306 0.662670 0.760086
O O3 0.250642 0.500974 0.783580
O O4 0.244842 0.617647 0.000000
O O5 0.160993 0.160818 0.788771
O O6 0.249640 0.999482 0.763492
O O7 0.266808 0.105308 0.000000
O O8 0.615422 0.270378 0.500000
O O9 0.661506 0.160445 0.711123
O O10 0.750500 0.077707 0.500000
#
# Coordination Sequence:
#
# PCOD9544130 Si02
#       4
#     8   8   8   8
#     4  10  20  35  56  78 104 140 176 213 260 311
#     4  10  21  36  54  78 107 136 172 218 260 306
#     4   9  20  37  54  77 108 139 174 216 260 307
#     4   9  19  36  54  73 103 139 172 211 260 312
#
# _framework density 17.056263999999999
#
# number of rings (size 3 to 8) (size 9 to 14) (size 15 to 20)
#    0.000    2.500    0.000    3.000    0.000    9.000 
#    0.000   10.000    0.000    0.000    0.000    0.000 
#    0.000    0.000    0.000    0.000    0.000    0.000 
#
# Total GULP energy -178561.007927 kJ/mol
# GULP energy per Si atom -5580.031498 kJ/mol
# Density = 1.701744 g / cm^3
# Si number density = 17.056264 Si / 1000 Ang^3
#
#
#
# Elastic Constant Matrix: (Units=GPa)
#
#
# Indices 1 2 3 4 5 6 
#
# 1 174.7199 96.7298 73.7666 0.0000 0.0000 -0.0915
# 2 96.7298 174.7199 73.7666 0.0000 0.0000 0.0915
# 3 73.7666 73.7666 56.8940 0.0000 0.0000 0.0000
# 4 0.0000 0.0000 0.0000 27.0684 0.0000 0.0000
# 5 0.0000 0.0000 0.0000 0.0000 27.0684 0.0000
# 6 -0.0915 0.0915 0.0000 0.0000 0.0000 4.0459
#
#
#
# Elastic Compliance Matrix: (Units=1/GPa)
#
#
# Indices 1 2 3 4 5 6 
#
# 1 0.012649 -0.000174 -0.016174 0.000000 0.000000 0.000290
# 2 -0.000174 0.012649 -0.016174 0.000000 0.000000 -0.000290
# 3 -0.016174 -0.016174 0.059517 0.000000 0.000000 0.000000
# 4 0.000000 0.000000 0.000000 0.036943 0.000000 0.000000
# 5 0.000000 0.000000 0.000000 0.000000 0.036943 0.000000
# 6 0.000290 -0.000290 0.000000 0.000000 0.000000 0.247177
#
#
# Mechanical properties :
#
#
# Convention : Reuss Voigt Hill
#
# Bulk Modulus (GPa) = 50.57977 99.42887 75.00432
# Shear Modulus (GPa) = 10.47092 22.44126 16.45609
#
# Velocity S-wave (km/s) = 2.48040 3.63122 3.10951
# Velocity P-wave (km/s) = 6.15810 8.71792 7.54733
#
# Compressibility (1/GPa) = 0.01977075
#
# Stress axis : x y z
#
# Youngs Moduli (GPa) = 79.05992 79.05992 16.80181
#
# Poissons Ratio (x) = 0.01377 0.27175
# Poissons Ratio (y) = 0.01377 0.27175
# Poissons Ratio (z) = 1.27871 1.27871
#
# Static dielectric constant tensor:
#      x y z
#    x 1.554780 0.000000 0.000000 
#    y 0.000000 1.554780 0.000000 
#    z 0.000000 0.000000 1.570580 
# 
# From -- ./inp_files/590.got.cif
#   From: 2010.05.17/outbox.cif.g08.bks.cpg/sg84_1_cif.got.tgz:590.got - 2010.06.03 18:57:40.
