data_PCOD9544558
_publ_section_title
;
Structure prediction by ZEFSAII (Michael W. Deem and Ramdas Pophale) SiO2 
 PCOD9544558
Probable space group: P 4/N
;
_chemical_formula_sum "Si O2"
_cell_formula_units_Z 36
_cell_length_a 8.346914
_cell_length_b 8.346914
_cell_length_c 23.484648
_cell_angle_alpha 90.000000
_cell_angle_beta 90.000000
_cell_angle_gamma 90.000000
_cell_volume 1636.198284
_symmetry_space_group_name_H-M "P 4/N"
_symmetry_group_IT_number 85
_symmetry_cell_setting 'tetragonal'
loop_
_space_group_symop_operation_xyz
x,y,z
1/2-y,x,z
1/2-x,1/2-y,z
y,1/2-x,z
-x,-y,-z
1/2+y,-x,-z
1/2+x,1/2+y,-z
-y,1/2+x,-z
loop_
_atom_site_type_symbol
_atom_site_label
_atom_site_fract_x
_atom_site_fract_y
_atom_site_fract_z
Si Si1 0.056721 0.944154 0.091907
Si Si2 0.489717 0.678864 0.596918
Si Si3 0.250000 0.250000 0.922847
Si Si4 0.990454 0.172675 0.786516
Si Si5 0.250000 0.250000 0.098839
Si Si6 0.750000 0.250000 0.692717
Si Si7 0.750000 0.250000 0.000000
Si Si8 0.750000 0.250000 0.500000
O O1 0.153457 0.871432 0.039700
O O2 0.869794 0.905658 0.080118
O O3 0.092178 0.866643 0.153763
O O4 0.092970 0.131903 0.097462
O O5 0.640104 0.560322 0.597640
O O6 0.374550 0.660391 0.651337
O O7 0.379423 0.666039 0.541031
O O8 0.146406 0.058828 0.784514
O O9 0.871267 0.155983 0.733872
#
# Coordination Sequence:
#
# PCOD9544558 Si02
#       8
#     8   8   2   8   2   4   2   2
#     4  12  26  50  72 113 139 193 230 308 355 449
#     4  10  21  39  58  95 134 173 223 283 340 397
#     4  12  24  53  88 100 148 188 244 285 376 426
#     4  11  23  45  69  96 134 182 231 286 350 427
#     4  12  32  49  76 112 152 176 248 293 372 434
#     4  11  23  37  68  95 133 175 228 278 348 415
#     4  12  30  48  82 104 158 180 248 290 380 436
#     4  10  20  36  66  88 124 186 228 274 328 406
#
# _framework density 22.002223000000001
#
# number of rings (size 3 to 8) (size 9 to 14) (size 15 to 20)
#    0.000    0.889    2.222    4.000    3.111    4.444 
#    0.000    0.000    0.000   10.667    0.000    0.000 
#    0.000    0.000    0.000    0.000    0.000    0.000 
#
# Total GULP energy -200508.485903 kJ/mol
# GULP energy per Si atom -5569.680164 kJ/mol
# Density = 2.195215 g / cm^3
# Si number density = 22.002223 Si / 1000 Ang^3
#
#
#
# Elastic Constant Matrix: (Units=GPa)
#
#
# Indices 1 2 3 4 5 6 
#
# 1 75.6270 17.2613 26.3412 0.0000 0.0000 -8.0277
# 2 17.2613 75.6270 26.3412 0.0000 0.0000 8.0277
# 3 26.3412 26.3412 149.8967 0.0000 0.0000 0.0000
# 4 0.0000 0.0000 0.0000 15.7958 0.0000 0.0000
# 5 0.0000 0.0000 0.0000 0.0000 15.7958 0.0000
# 6 -8.0277 8.0277 0.0000 0.0000 0.0000 51.1933
#
#
#
# Elastic Compliance Matrix: (Units=1/GPa)
#
#
# Indices 1 2 3 4 5 6 
#
# 1 0.014932 -0.002974 -0.002101 0.000000 0.000000 0.002808
# 2 -0.002974 0.014932 -0.002101 0.000000 0.000000 -0.002808
# 3 -0.002101 -0.002101 0.007410 0.000000 0.000000 0.000000
# 4 0.000000 0.000000 0.000000 0.063308 0.000000 0.000000
# 5 0.000000 0.000000 0.000000 0.000000 0.063308 0.000000
# 6 0.002808 -0.002808 0.000000 0.000000 0.000000 0.020414
#
#
# Mechanical properties :
#
#
# Convention : Reuss Voigt Hill
#
# Bulk Modulus (GPa) = 43.63099 49.00421 46.31760
# Shear Modulus (GPa) = 24.23692 31.97076 28.10384
#
# Velocity S-wave (km/s) = 3.32259 3.81605 3.57784
# Velocity P-wave (km/s) = 5.88156 6.46042 6.17778
#
# Compressibility (1/GPa) = 0.02291949
#
# Stress axis : x y z
#
# Youngs Moduli (GPa) = 66.97224 66.97224 134.95701
#
# Poissons Ratio (x) = 0.19919 0.28358
# Poissons Ratio (y) = 0.19919 0.28358
# Poissons Ratio (z) = 0.14073 0.14073
#
# Static dielectric constant tensor:
#      x y z
#    x 1.801980 0.000000 0.000000 
#    y 0.000000 1.801980 0.000000 
#    z 0.000000 0.000000 1.809170 
# 
# From -- ./inp_files/2221.got.cif
#   From: 2010.05.17/outbox.cif.g08.bks.cpg/sg85_cif.got.tgz:2221.got - 2010.06.03 19:01:16.
