data_PCOD9544864
_publ_section_title
;
Structure prediction by ZEFSAII (Michael W. Deem and Ramdas Pophale) SiO2 
 PCOD9544864
Probable space group: P 42/N
;
_chemical_formula_sum "Si O2"
_cell_formula_units_Z 56
_cell_length_a 14.589963
_cell_length_b 14.589963
_cell_length_c 13.991070
_cell_angle_alpha 90.000000
_cell_angle_beta 90.000000
_cell_angle_gamma 90.000000
_cell_volume 2978.237382
_symmetry_space_group_name_H-M "P 42/N"
_symmetry_group_IT_number 86
_space_group.IT_coordinate_system_code '2'
_symmetry_cell_setting 'tetragonal'
loop_
_space_group_symop_operation_xyz
x,y,z
-y,1/2+x,1/2+z
1/2-x,1/2-y,z
1/2+y,-x,1/2+z
-x,-y,-z
y,1/2-x,1/2-z
1/2+x,1/2+y,-z
1/2-y,x,1/2-z
loop_
_atom_site_type_symbol
_atom_site_label
_atom_site_fract_x
_atom_site_fract_y
_atom_site_fract_z
Si Si1 0.660883 0.699558 0.502397
Si Si2 0.610761 0.133820 0.139811
Si Si3 0.661142 0.565418 0.865571
Si Si4 0.052110 0.038375 0.593562
Si Si5 0.248898 0.432025 0.339447
Si Si6 0.135589 0.666898 0.076976
Si Si7 0.666044 0.357024 0.845478
O O1 0.750000 0.750000 0.459508
O O2 0.591320 0.774997 0.544486
O O3 0.610702 0.627265 0.434609
O O4 0.700721 0.641751 0.592552
O O5 0.530178 0.209065 0.135227
O O6 0.668795 0.152852 0.234223
O O7 0.566342 0.033525 0.158068
O O8 0.652158 0.137935 0.033639
O O9 0.581681 0.641290 0.856912
O O10 0.722990 0.581641 0.770602
O O11 0.630798 0.459858 0.864637
O O12 0.117536 0.954090 0.618849
O O13 0.000000 0.000000 0.500000
O O14 0.225624 0.638329 0.134214
O O15 0.126801 0.776317 0.088833
#
# Coordination Sequence:
#
# PCOD9544864 Si02
#       7
#     8   8   8   8   8   8   8
#     4  10  18  28  51  85 115 147 190 239 289 334
#     4  10  21  36  62  83 108 149 201 227 295 357
#     4  10  18  28  47  82 125 142 179 234 304 327
#     4  10  18  35  62  80 105 153 196 231 279 360
#     4  10  17  27  48  84 114 150 176 236 286 355
#     4  10  21  39  58  78 114 148 196 238 273 346
#     4  10  23  35  55  84 111 150 186 242 285 343
#
# _framework density 18.803068
#
# number of rings (size 3 to 8) (size 9 to 14) (size 15 to 20)
#    0.000    2.000    4.286    1.714    0.000    3.429 
#    0.000    0.714    3.143    0.000    0.000    0.000 
#    0.000    0.000    0.000    0.000    0.000    0.000 
#
# Total GULP energy -312121.640600 kJ/mol
# GULP energy per Si atom -5573.600725 kJ/mol
# Density = 1.876027 g / cm^3
# Si number density = 18.803068 Si / 1000 Ang^3
#
#
#
# Elastic Constant Matrix: (Units=GPa)
#
#
# Indices 1 2 3 4 5 6 
#
# 1 85.6186 28.7247 14.0667 0.0000 0.0000 -4.2309
# 2 28.7247 85.6186 14.0667 0.0000 0.0000 4.2309
# 3 14.0667 14.0667 48.9356 0.0000 0.0000 0.0000
# 4 0.0000 0.0000 0.0000 23.5061 0.0000 0.0000
# 5 0.0000 0.0000 0.0000 0.0000 23.5061 0.0000
# 6 -4.2309 4.2309 0.0000 0.0000 0.0000 28.6707
#
#
#
# Elastic Compliance Matrix: (Units=1/GPa)
#
#
# Indices 1 2 3 4 5 6 
#
# 1 0.013691 -0.004280 -0.002705 0.000000 0.000000 0.002652
# 2 -0.004280 0.013691 -0.002705 0.000000 0.000000 -0.002652
# 3 -0.002705 -0.002705 0.021990 0.000000 0.000000 0.000000
# 4 0.000000 0.000000 0.000000 0.042542 0.000000 0.000000
# 5 0.000000 0.000000 0.000000 0.000000 0.042542 0.000000
# 6 0.002652 -0.002652 0.000000 0.000000 0.000000 0.035662
#
#
# Mechanical properties :
#
#
# Convention : Reuss Voigt Hill
#
# Bulk Modulus (GPa) = 33.34268 37.09877 35.22073
# Shear Modulus (GPa) = 25.06310 26.02422 25.54366
#
# Velocity S-wave (km/s) = 3.65489 3.72431 3.68976
# Velocity P-wave (km/s) = 5.96506 6.18603 6.07655
#
# Compressibility (1/GPa) = 0.02999159
#
# Stress axis : x y z
#
# Youngs Moduli (GPa) = 73.04010 73.04010 45.47464
#
# Poissons Ratio (x) = 0.31260 0.12302
# Poissons Ratio (y) = 0.31260 0.12302
# Poissons Ratio (z) = 0.19759 0.19759
#
# Static dielectric constant tensor:
#      x y z
#    x 1.704440 0.000000 0.000000 
#    y 0.000000 1.704440 0.000000 
#    z 0.000000 0.000000 1.676010 
# 
# From -- ./inp_files/3053.got.cif
#   From: 2010.05.17/outbox.cif.g08.bks.cpg/sg86_2_cif.got.tgz:3053.got - 2010.06.03 19:03:11.
