data_PCOD9544933
_publ_section_title
;
Structure prediction by ZEFSAII (Michael W. Deem and Ramdas Pophale) SiO2 
 PCOD9544933
Probable space group: P 42/N
;
_chemical_formula_sum "Si O2"
_cell_formula_units_Z 48
_cell_length_a 11.963600
_cell_length_b 11.963600
_cell_length_c 18.638894
_cell_angle_alpha 90.000000
_cell_angle_beta 90.000000
_cell_angle_gamma 90.000000
_cell_volume 2667.742494
_symmetry_space_group_name_H-M "P 42/N"
_symmetry_group_IT_number 86
_space_group.IT_coordinate_system_code '2'
_symmetry_cell_setting 'tetragonal'
loop_
_space_group_symop_operation_xyz
x,y,z
-y,1/2+x,1/2+z
1/2-x,1/2-y,z
1/2+y,-x,1/2+z
-x,-y,-z
y,1/2-x,1/2-z
1/2+x,1/2+y,-z
1/2-y,x,1/2-z
loop_
_atom_site_type_symbol
_atom_site_label
_atom_site_fract_x
_atom_site_fract_y
_atom_site_fract_z
Si Si1 0.073795 0.253511 0.223012
Si Si2 0.286450 0.572804 0.151632
Si Si3 0.308934 0.129647 0.580654
Si Si4 0.180557 0.086498 0.774602
Si Si5 0.838406 0.646158 0.581010
Si Si6 0.298594 0.571894 0.651267
O O1 0.155290 0.360166 0.233706
O O2 0.065322 0.214405 0.141354
O O3 0.961694 0.278238 0.265001
O O4 0.321391 0.461149 0.109717
O O5 0.370023 0.676848 0.147951
O O6 0.164953 0.614484 0.126695
O O7 0.250000 0.250000 0.581055
O O8 0.401902 0.137534 0.643968
O O9 0.348593 0.105203 0.500359
O O10 0.217970 0.037979 0.603809
O O11 0.118103 0.188215 0.732987
O O12 0.167606 0.972953 0.730353
O O13 0.750000 0.750000 0.581389
#
# Coordination Sequence:
#
# PCOD9544933 Si02
#       6
#     8   8   8   8   8   8
#     4   9  15  32  54  79 102 138 181 218 264 310
#     4  10  21  36  55  81 112 144 180 228 279 321
#     4  10  19  36  58  81 111 145 185 224 269 327
#     4   9  15  32  54  79 102 138 181 218 264 310
#     4  10  19  36  58  81 111 145 185 224 269 327
#     4  10  21  36  55  81 112 144 180 228 279 321
#
# _framework density 17.992740000000001
#
# number of rings (size 3 to 8) (size 9 to 14) (size 15 to 20)
#    0.000    2.333    6.667    0.000    0.000    6.000 
#    0.000    5.000    0.000    4.000    0.000    0.000 
#    0.000    0.000    0.000    0.000    0.000    0.000 
#
# Total GULP energy -267271.572296 kJ/mol
# GULP energy per Si atom -5568.157756 kJ/mol
# Density = 1.795179 g / cm^3
# Si number density = 17.992740 Si / 1000 Ang^3
#
#
#
# Elastic Constant Matrix: (Units=GPa)
#
#
# Indices 1 2 3 4 5 6 
#
# 1 30.4235 -22.9439 2.5456 0.0000 0.0000 -3.1126
# 2 -22.9439 30.4235 2.5456 0.0000 0.0000 3.1126
# 3 2.5456 2.5456 144.2293 0.0000 0.0000 0.0000
# 4 0.0000 0.0000 0.0000 7.3152 0.0000 0.0000
# 5 0.0000 0.0000 0.0000 0.0000 7.3152 0.0000
# 6 -3.1126 3.1126 0.0000 0.0000 0.0000 3.1798
#
#
#
# Elastic Compliance Matrix: (Units=1/GPa)
#
#
# Indices 1 2 3 4 5 6 
#
# 1 0.078238 0.057085 -0.002388 0.000000 0.000000 0.020706
# 2 0.057085 0.078238 -0.002388 0.000000 0.000000 -0.020706
# 3 -0.002388 -0.002388 0.007018 0.000000 0.000000 0.000000
# 4 0.000000 0.000000 0.000000 0.136702 0.000000 0.000000
# 5 0.000000 0.000000 0.000000 0.000000 0.136702 0.000000
# 6 0.020706 -0.020706 0.000000 0.000000 0.000000 0.355017
#
#
# Mechanical properties :
#
#
# Convention : Reuss Voigt Hill
#
# Bulk Modulus (GPa) = 3.72982 18.81901 11.27441
# Shear Modulus (GPa) = 6.43774 18.42397 12.43086
#
# Velocity S-wave (km/s) = 1.89360 3.20342 2.63131
# Velocity P-wave (km/s) = 2.61886 4.91574 3.93846
#
# Compressibility (1/GPa) = 0.26810974
#
# Stress axis : x y z
#
# Youngs Moduli (GPa) = 12.78150 12.78150 142.49654
#
# Poissons Ratio (x) = -0.72963 0.34034
# Poissons Ratio (y) = -0.72963 0.34034
# Poissons Ratio (z) = 0.03053 0.03053
#
# Static dielectric constant tensor:
#      x y z
#    x 1.632040 0.000000 0.000000 
#    y 0.000000 1.632040 0.000000 
#    z 0.000000 0.000000 1.652160 
# 
# From -- ./inp_files/4119.got.cif
#   From: 2010.05.17/outbox.cif.g08.bks.cpg/sg86_3_cif.got.tgz:4119.got - 2010.06.03 19:03:11.
