data_PCOD9544627
_publ_section_title
;
Structure prediction by ZEFSAII (Michael W. Deem and Ramdas Pophale) SiO2 
 PCOD9544627
Probable space group: P 4/N
;
_chemical_formula_sum "Si O2"
_cell_formula_units_Z 60
_cell_length_a 12.183318
_cell_length_b 12.183318
_cell_length_c 19.575664
_cell_angle_alpha 90.000000
_cell_angle_beta 90.000000
_cell_angle_gamma 90.000000
_cell_volume 2905.679184
_symmetry_space_group_name_H-M "P 4/N"
_symmetry_group_IT_number 85
_symmetry_cell_setting 'tetragonal'
loop_
_space_group_symop_operation_xyz
x,y,z
1/2-y,x,z
1/2-x,1/2-y,z
y,1/2-x,z
-x,-y,-z
1/2+y,-x,-z
1/2+x,1/2+y,-z
-y,1/2+x,-z
loop_
_atom_site_type_symbol
_atom_site_label
_atom_site_fract_x
_atom_site_fract_y
_atom_site_fract_z
Si Si1 0.075767 0.300160 0.424220
Si Si2 0.582685 0.834052 0.870946
Si Si3 0.250000 0.750000 0.777625
Si Si4 0.492455 0.567682 0.214800
Si Si5 0.456868 0.804837 0.151606
Si Si6 0.773237 0.086596 0.468629
Si Si7 0.316761 0.575634 0.000115
Si Si8 0.128422 0.614745 0.661719
O O1 0.119529 0.177655 0.412472
O O2 0.029927 0.308551 0.501741
O O3 0.973327 0.331307 0.377033
O O4 0.608053 0.703019 0.868718
O O5 0.512562 0.894504 0.811540
O O6 0.507443 0.847552 0.939110
O O7 0.315491 0.671072 0.828384
O O8 0.172467 0.686968 0.724663
O O9 0.483431 0.680863 0.172596
O O10 0.608630 0.517459 0.197519
O O11 0.488981 0.587323 0.295883
O O12 0.479158 0.832275 0.073520
O O13 0.674429 0.130674 0.517973
O O14 0.723819 0.092734 0.393196
O O15 0.188603 0.613328 0.000263
#
# Coordination Sequence:
#
# PCOD9544627 Si02
#       8
#     8   8   4   8   8   8   8   8
#     4  10  22  38  59  94 130 162 202 258 323 385
#     4  11  26  44  67 101 136 172 225 289 356 407
#     4  10  22  42  64  94 128 166 222 270 314 392
#     4  11  26  45  65  98 134 182 221 278 336 404
#     4  11  25  42  67  96 131 176 225 280 335 400
#     4   9  18  38  63  92 119 158 208 262 309 374
#     4  11  22  39  69  97 127 172 225 280 338 405
#     4  10  22  38  65  94 121 174 211 261 322 392
#
# _framework density 20.649217
#
# number of rings (size 3 to 8) (size 9 to 14) (size 15 to 20)
#    0.000    1.600    1.333    3.200    9.333    3.467 
#    4.800    1.333    0.000    0.000    0.000    0.000 
#    0.000    0.000    0.000    0.000    0.000    0.000 
#
# Total GULP energy -334960.040203 kJ/mol
# GULP energy per Si atom -5582.667337 kJ/mol
# Density = 2.060222 g / cm^3
# Si number density = 20.649217 Si / 1000 Ang^3
#
#
#
# Elastic Constant Matrix: (Units=GPa)
#
#
# Indices 1 2 3 4 5 6 
#
# 1 58.8352 5.2674 11.0068 0.0000 0.0000 -3.6373
# 2 5.2674 58.8352 11.0068 0.0000 0.0000 3.6373
# 3 11.0068 11.0068 84.6849 0.0000 0.0000 0.0000
# 4 0.0000 0.0000 0.0000 31.5683 0.0000 0.0000
# 5 0.0000 0.0000 0.0000 0.0000 31.5683 0.0000
# 6 -3.6373 3.6373 0.0000 0.0000 0.0000 8.7630
#
#
#
# Elastic Compliance Matrix: (Units=1/GPa)
#
#
# Indices 1 2 3 4 5 6 
#
# 1 0.018056 -0.001727 -0.002122 0.000000 0.000000 0.008211
# 2 -0.001727 0.018056 -0.002122 0.000000 0.000000 -0.008211
# 3 -0.002122 -0.002122 0.012360 0.000000 0.000000 0.000000
# 4 0.000000 0.000000 0.000000 0.031677 0.000000 0.000000
# 5 0.000000 0.000000 0.000000 0.000000 0.031677 0.000000
# 6 0.008211 -0.008211 0.000000 0.000000 0.000000 0.120932
#
#
# Mechanical properties :
#
#
# Convention : Reuss Voigt Hill
#
# Bulk Modulus (GPa) = 27.37582 28.54634 27.96108
# Shear Modulus (GPa) = 19.46445 26.05154 22.75799
#
# Velocity S-wave (km/s) = 3.07355 3.55579 3.32343
# Velocity P-wave (km/s) = 5.08743 5.54189 5.31952
#
# Compressibility (1/GPa) = 0.03652859
#
# Stress axis : x y z
#
# Youngs Moduli (GPa) = 55.38344 55.38344 80.90506
#
# Poissons Ratio (x) = 0.09565 0.17171
# Poissons Ratio (y) = 0.09565 0.17171
# Poissons Ratio (z) = 0.11754 0.11754
#
# Static dielectric constant tensor:
#      x y z
#    x 1.497700 0.000000 0.000000 
#    y 0.000000 1.497700 0.000000 
#    z 0.000000 0.000000 1.741340 
# 
# From -- ./inp_files/2268.got.cif
#   From: 2010.05.17/outbox.cif.g08.bks.cpg/sg85_cif.got.tgz:2268.got - 2010.06.03 19:01:16.
