data_PCOD9544342
_publ_section_title
;
Structure prediction by ZEFSAII (Michael W. Deem and Ramdas Pophale) SiO2 
 PCOD9544342
Probable space group: P 42/M
;
_chemical_formula_sum "Si O2"
_cell_formula_units_Z 40
_cell_length_a 9.563831
_cell_length_b 9.563831
_cell_length_c 22.743296
_cell_angle_alpha 90.000000
_cell_angle_beta 90.000000
_cell_angle_gamma 90.000000
_cell_volume 2080.257948
_symmetry_space_group_name_H-M "P 42/M"
_symmetry_group_IT_number 84
_symmetry_cell_setting 'tetragonal'
loop_
_space_group_symop_operation_xyz
x,y,z
-y,x,1/2+z
-x,-y,z
y,-x,1/2+z
-x,-y,-z
y,-x,1/2-z
x,y,-z
-y,x,1/2-z
loop_
_atom_site_type_symbol
_atom_site_label
_atom_site_fract_x
_atom_site_fract_y
_atom_site_fract_z
Si Si1 0.354575 0.582450 0.000000
Si Si2 0.915939 0.643266 0.500000
Si Si3 0.234629 0.166499 0.693846
Si Si4 0.722548 0.154056 0.678993
Si Si5 0.012619 0.844954 0.397467
Si Si6 0.666976 0.469048 0.868609
O O1 0.500000 0.500000 0.000000
O O2 0.287786 0.542131 0.937325
O O3 0.377410 0.749184 0.000000
O O4 0.000000 0.500000 0.500000
O O5 0.961187 0.731099 0.443108
O O6 0.207204 0.206156 0.761011
O O7 0.326508 0.286424 0.663061
O O8 0.088485 0.156080 0.659194
O O9 0.302949 0.012450 0.686692
O O10 0.831399 0.175630 0.625800
O O11 0.588179 0.245310 0.664075
O O12 0.000000 0.000000 0.424058
O O13 0.500000 0.500000 0.865606
#
# Coordination Sequence:
#
# PCOD9544342 Si02
#       6
#     4   4   8   8   8   8
#     4  10  24  47  64  89 137 171 212 273 329 380
#     4  12  25  43  71 100 126 170 230 278 327 385
#     4  11  22  44  65  99 133 172 217 267 332 386
#     4  11  24  41  68  99 134 172 216 268 331 390
#     4  10  23  42  70  97 133 171 217 273 327 387
#     4  11  26  44  67  94 135 176 217 269 327 390
#
# _framework density 19.228386
#
# number of rings (size 3 to 8) (size 9 to 14) (size 15 to 20)
#    0.000    1.200    4.000    0.900    8.400    0.000 
#    0.000    3.000    0.000    0.000    0.000    0.000 
#    0.000    0.000    0.000    0.000    0.000    0.000 
#
# Total GULP energy -223416.368418 kJ/mol
# GULP energy per Si atom -5585.409210 kJ/mol
# Density = 1.918462 g / cm^3
# Si number density = 19.228386 Si / 1000 Ang^3
#
#
#
# Elastic Constant Matrix: (Units=GPa)
#
#
# Indices 1 2 3 4 5 6 
#
# 1 84.6681 28.0429 24.9303 0.0000 0.0000 2.5774
# 2 28.0429 84.6681 24.9303 0.0000 0.0000 -2.5774
# 3 24.9303 24.9303 99.2109 0.0000 0.0000 0.0000
# 4 0.0000 0.0000 0.0000 17.4385 0.0000 0.0000
# 5 0.0000 0.0000 0.0000 0.0000 17.4385 0.0000
# 6 2.5774 -2.5774 0.0000 0.0000 0.0000 27.8911
#
#
#
# Elastic Compliance Matrix: (Units=1/GPa)
#
#
# Indices 1 2 3 4 5 6 
#
# 1 0.013896 -0.003914 -0.002508 0.000000 0.000000 -0.001646
# 2 -0.003914 0.013896 -0.002508 0.000000 0.000000 0.001646
# 3 -0.002508 -0.002508 0.011340 0.000000 0.000000 0.000000
# 4 0.000000 0.000000 0.000000 0.057344 0.000000 0.000000
# 5 0.000000 0.000000 0.000000 0.000000 0.057344 0.000000
# 6 -0.001646 0.001646 0.000000 0.000000 0.000000 0.036158
#
#
# Mechanical properties :
#
#
# Convention : Reuss Voigt Hill
#
# Bulk Modulus (GPa) = 47.01314 47.15047 47.08181
# Shear Modulus (GPa) = 23.26343 25.26320 24.26331
#
# Velocity S-wave (km/s) = 3.48206 3.62864 3.55610
# Velocity P-wave (km/s) = 6.37725 6.49080 6.43428
#
# Compressibility (1/GPa) = 0.02127065
#
# Stress axis : x y z
#
# Youngs Moduli (GPa) = 71.96404 71.96404 88.18230
#
# Poissons Ratio (x) = 0.28166 0.22119
# Poissons Ratio (y) = 0.28166 0.22119
# Poissons Ratio (z) = 0.18051 0.18051
#
# Static dielectric constant tensor:
#      x y z
#    x 1.525860 0.000000 0.000000 
#    y 0.000000 1.525860 0.000000 
#    z 0.000000 0.000000 1.663280 
# 
# From -- ./inp_files/4891.got.cif
#   From: 2010.05.17/outbox.cif.g08.bks.cpg/sg84_3_cif.got.tgz:4891.got - 2010.06.03 18:57:40.
