data_PCOD9544319
_publ_section_title
;
Structure prediction by ZEFSAII (Michael W. Deem and Ramdas Pophale) SiO2 
 PCOD9544319
Probable space group: P 42/M
;
_chemical_formula_sum "Si O2"
_cell_formula_units_Z 48
_cell_length_a 8.574562
_cell_length_b 8.574562
_cell_length_c 27.510143
_cell_angle_alpha 90.000000
_cell_angle_beta 90.000000
_cell_angle_gamma 90.000000
_cell_volume 2022.631366
_symmetry_space_group_name_H-M "P 42/M"
_symmetry_group_IT_number 84
_symmetry_cell_setting 'tetragonal'
loop_
_space_group_symop_operation_xyz
x,y,z
-y,x,1/2+z
-x,-y,z
y,-x,1/2+z
-x,-y,-z
y,-x,1/2-z
x,y,-z
-y,x,1/2-z
loop_
_atom_site_type_symbol
_atom_site_label
_atom_site_fract_x
_atom_site_fract_y
_atom_site_fract_z
Si Si1 0.283120 0.614355 0.446950
Si Si2 0.420467 0.166647 0.445012
Si Si3 0.843000 0.695669 0.193727
Si Si4 0.340270 0.791501 0.873036
Si Si5 0.189174 0.667192 0.781900
Si Si6 0.835783 0.910131 0.896595
O O1 0.270095 0.536082 0.500000
O O2 0.451249 0.695755 0.443307
O O3 0.249813 0.495791 0.402939
O O4 0.160376 0.756774 0.444300
O O5 0.355143 0.161587 0.500000
O O6 0.297428 0.206139 0.403875
O O7 0.500000 0.000000 0.436326
O O8 0.707108 0.766873 0.226994
O O9 0.824886 0.511145 0.201131
O O10 0.840202 0.763587 0.139900
O O11 0.017069 0.739856 0.211398
O O12 0.319762 0.739284 0.817603
O O13 0.291261 0.970027 0.875532
O O14 0.000000 0.000000 0.901025
#
# Coordination Sequence:
#
# PCOD9544319 Si02
#       6
#     8   8   8   8   8   8
#     4  11  26  46  70 105 149 195 249 314 380 452
#     4  10  22  42  70 102 140 186 242 302 367 442
#     4  11  26  48  71 105 141 188 243 301 369 449
#     4  12  24  41  71 102 141 190 238 299 371 445
#     4  11  26  46  75 103 144 186 241 301 369 446
#     4  12  25  45  73 102 144 190 249 309 375 448
#
# _framework density 23.731463000000002
#
# number of rings (size 3 to 8) (size 9 to 14) (size 15 to 20)
#    0.000    0.833    1.667    4.500    4.667    4.000 
#    0.000    0.000    0.000    0.000    0.000    0.000 
#    0.000    0.000    0.000    0.000    0.000    0.000 
#
# Total GULP energy -268587.640936 kJ/mol
# GULP energy per Si atom -5595.575853 kJ/mol
# Density = 2.367745 g / cm^3
# Si number density = 23.731463 Si / 1000 Ang^3
#
#
#
# Elastic Constant Matrix: (Units=GPa)
#
#
# Indices 1 2 3 4 5 6 
#
# 1 88.6067 12.4277 22.0165 0.0000 0.0000 -2.3689
# 2 12.4277 88.6067 22.0165 0.0000 0.0000 2.3689
# 3 22.0165 22.0165 77.6513 0.0000 0.0000 0.0000
# 4 0.0000 0.0000 0.0000 10.0486 0.0000 0.0000
# 5 0.0000 0.0000 0.0000 0.0000 10.0486 0.0000
# 6 -2.3689 2.3689 0.0000 0.0000 0.0000 33.5043
#
#
#
# Elastic Compliance Matrix: (Units=1/GPa)
#
#
# Indices 1 2 3 4 5 6 
#
# 1 0.012239 -0.000946 -0.003202 0.000000 0.000000 0.000932
# 2 -0.000946 0.012239 -0.003202 0.000000 0.000000 -0.000932
# 3 -0.003202 -0.003202 0.014694 0.000000 0.000000 0.000000
# 4 0.000000 0.000000 0.000000 0.099516 0.000000 0.000000
# 5 0.000000 0.000000 0.000000 0.000000 0.099516 0.000000
# 6 0.000932 -0.000932 0.000000 0.000000 0.000000 0.029979
#
#
# Mechanical properties :
#
#
# Convention : Reuss Voigt Hill
#
# Bulk Modulus (GPa) = 40.86264 40.86511 40.86388
# Shear Modulus (GPa) = 17.17979 23.94725 20.56352
#
# Velocity S-wave (km/s) = 2.69350 3.18007 2.94685
# Velocity P-wave (km/s) = 5.18936 5.54445 5.36984
#
# Compressibility (1/GPa) = 0.02447223
#
# Stress axis : x y z
#
# Youngs Moduli (GPa) = 81.70585 81.70585 68.05605
#
# Poissons Ratio (x) = 0.07729 0.21791
# Poissons Ratio (y) = 0.07729 0.21791
# Poissons Ratio (z) = 0.26162 0.26162
#
# Static dielectric constant tensor:
#      x y z
#    x 1.935690 0.000000 0.000000 
#    y 0.000000 1.935690 0.000000 
#    z 0.000000 0.000000 1.851320 
# 
# From -- ./inp_files/5815.got.cif
#   From: 2010.05.17/outbox.cif.g08.bks.cpg/sg84_3_cif.got.tgz:5815.got - 2010.06.03 18:57:40.
