data_PCOD9544921
_publ_section_title
;
Structure prediction by ZEFSAII (Michael W. Deem and Ramdas Pophale) SiO2 
 PCOD9544921
Probable space group: P 42/N
;
_chemical_formula_sum "Si O2"
_cell_formula_units_Z 34
_cell_length_a 10.207326
_cell_length_b 10.207326
_cell_length_c 13.067974
_cell_angle_alpha 90.000000
_cell_angle_beta 90.000000
_cell_angle_gamma 90.000000
_cell_volume 1361.545730
_symmetry_space_group_name_H-M "P 42/N"
_symmetry_group_IT_number 86
_space_group.IT_coordinate_system_code '2'
_symmetry_cell_setting 'tetragonal'
loop_
_space_group_symop_operation_xyz
x,y,z
-y,1/2+x,1/2+z
1/2-x,1/2-y,z
1/2+y,-x,1/2+z
-x,-y,-z
y,1/2-x,1/2-z
1/2+x,1/2+y,-z
1/2-y,x,1/2-z
loop_
_atom_site_type_symbol
_atom_site_label
_atom_site_fract_x
_atom_site_fract_y
_atom_site_fract_z
Si Si1 0.250000 0.250000 0.250000
Si Si2 0.105827 0.892907 0.468592
Si Si3 0.458532 0.321169 0.942939
Si Si4 0.406550 0.326719 0.687086
Si Si5 0.178851 0.001976 0.105602
O O1 0.221332 0.116437 0.184490
O O2 0.251116 0.949627 0.470067
O O3 0.050047 0.847853 0.358875
O O4 0.089538 0.793693 0.563173
O O5 0.000000 0.000000 0.500000
O O6 0.380925 0.195720 0.898629
O O7 0.559625 0.402293 0.871315
O O8 0.366790 0.418772 0.004585
O O9 0.326689 0.394982 0.781864
#
# Coordination Sequence:
#
# PCOD9544921 Si02
#       5
#     2   8   8   8   8
#     4  12  24  40  64  92 130 172 224 288 336 384
#     4  10  21  40  64  89 127 177 219 268 338 412
#     4  10  23  41  64  92 131 179 224 272 340 422
#     4  10  19  34  62  96 125 162 217 277 333 398
#     4  11  23  41  63  93 130 176 226 275 343 412
#
# _framework density 24.971620000000001
#
# number of rings (size 3 to 8) (size 9 to 14) (size 15 to 20)
#    0.000    1.647    0.000    6.353    0.000    5.647 
#    0.000    0.000    0.000   14.118    0.000    0.000 
#    0.000    0.000    0.000    0.000    0.000    0.000 
#
# Total GULP energy -189342.510950 kJ/mol
# GULP energy per Si atom -5568.897381 kJ/mol
# Density = 2.491478 g / cm^3
# Si number density = 24.971620 Si / 1000 Ang^3
#
#
#
# Elastic Constant Matrix: (Units=GPa)
#
#
# Indices 1 2 3 4 5 6 
#
# 1 89.8342 10.0130 8.8407 0.0000 0.0000 11.5194
# 2 10.0130 89.8342 8.8407 0.0000 0.0000 -11.5194
# 3 8.8407 8.8407 76.0721 0.0000 0.0000 0.0000
# 4 0.0000 0.0000 0.0000 33.0105 0.0000 0.0000
# 5 0.0000 0.0000 0.0000 0.0000 33.0105 0.0000
# 6 11.5194 -11.5194 0.0000 0.0000 0.0000 41.8825
#
#
#
# Elastic Compliance Matrix: (Units=1/GPa)
#
#
# Indices 1 2 3 4 5 6 
#
# 1 0.011917 -0.001691 -0.001188 0.000000 0.000000 -0.003743
# 2 -0.001691 0.011917 -0.001188 0.000000 0.000000 0.003743
# 3 -0.001188 -0.001188 0.013422 0.000000 0.000000 0.000000
# 4 0.000000 0.000000 0.000000 0.030293 0.000000 0.000000
# 5 0.000000 0.000000 0.000000 0.000000 0.030293 0.000000
# 6 -0.003743 0.003743 0.000000 0.000000 0.000000 0.025935
#
#
# Mechanical properties :
#
#
# Convention : Reuss Voigt Hill
#
# Bulk Modulus (GPa) = 34.34112 34.56991 34.45552
# Shear Modulus (GPa) = 35.30567 36.78375 36.04471
#
# Velocity S-wave (km/s) = 3.76417 3.84216 3.80337
# Velocity P-wave (km/s) = 5.71611 5.79281 5.75459
#
# Compressibility (1/GPa) = 0.02911961
#
# Stress axis : x y z
#
# Youngs Moduli (GPa) = 83.91358 83.91358 74.50659
#
# Poissons Ratio (x) = 0.14192 0.08854
# Poissons Ratio (y) = 0.14192 0.08854
# Poissons Ratio (z) = 0.09972 0.09972
#
# Static dielectric constant tensor:
#      x y z
#    x 2.113920 0.000000 0.000000 
#    y 0.000000 2.113920 0.000000 
#    z 0.000000 0.000000 2.247650 
# 
# From -- ./inp_files/2826.got.cif
#   From: 2010.05.17/outbox.cif.g08.bks.cpg/sg86_2_cif.got.tgz:2826.got - 2010.06.03 19:03:11.
