data_PCOD9544131
_publ_section_title
;
Structure prediction by ZEFSAII (Michael W. Deem and Ramdas Pophale) SiO2 
 PCOD9544131
Probable space group: P 42/M
;
_chemical_formula_sum "Si O2"
_cell_formula_units_Z 48
_cell_length_a 17.395742
_cell_length_b 17.395742
_cell_length_c 7.768664
_cell_angle_alpha 90.000000
_cell_angle_beta 90.000000
_cell_angle_gamma 90.000000
_cell_volume 2350.889705
_symmetry_space_group_name_H-M "P 42/M"
_symmetry_group_IT_number 84
_symmetry_cell_setting 'tetragonal'
loop_
_space_group_symop_operation_xyz
x,y,z
-y,x,1/2+z
-x,-y,z
y,-x,1/2+z
-x,-y,-z
y,-x,1/2-z
x,y,-z
-y,x,1/2-z
loop_
_atom_site_type_symbol
_atom_site_label
_atom_site_fract_x
_atom_site_fract_y
_atom_site_fract_z
Si Si1 0.254389 0.663124 0.706274
Si Si2 0.941844 0.893131 0.199046
Si Si3 0.431692 0.102859 0.292746
Si Si4 0.396782 0.932481 0.710139
Si Si5 0.592814 0.420191 0.700100
Si Si6 0.838261 0.752380 0.788851
O O1 0.262517 0.667056 0.500000
O O2 0.178183 0.614225 0.741252
O O3 0.331671 0.621540 0.771529
O O4 0.246659 0.750278 0.770711
O O5 0.886497 0.826752 0.266974
O O6 0.023761 0.901523 0.290480
O O7 0.959151 0.876006 0.000000
O O8 0.433044 0.100739 0.500000
O O9 0.520680 0.101241 0.234896
O O10 0.394376 0.021871 0.235271
O O11 0.396269 0.932083 0.500000
O O12 0.324654 0.882350 0.766343
O O13 0.512369 0.398797 0.787916
O O14 0.583606 0.399322 0.500000
O O15 0.837050 0.753436 0.000000
#
# Coordination Sequence:
#
# PCOD9544131 Si02
#       6
#     8   8   8   8   8   8
#     4  10  22  36  53  80 111 142 175 214 266 321
#     4  10  20  35  56  78 105 140 177 218 264 314
#     4   9  18  33  58  83 103 134 178 224 260 307
#     4   8  16  33  55  80 104 135 179 217 260 314
#     4  10  21  37  58  81 108 142 180 220 266 319
#     4   9  19  34  53  76 107 143 174 211 263 318
#
# _framework density 20.417801999999998
#
# number of rings (size 3 to 8) (size 9 to 14) (size 15 to 20)
#    0.000    2.667    0.000    3.000    4.667    1.333 
#    0.000    2.500    0.000    3.000    0.000    0.000 
#    0.000    0.000    0.000    0.000    0.000    0.000 
#
# Total GULP energy -267927.803679 kJ/mol
# GULP energy per Si atom -5581.829243 kJ/mol
# Density = 2.037133 g / cm^3
# Si number density = 20.417802 Si / 1000 Ang^3
#
#
#
# Elastic Constant Matrix: (Units=GPa)
#
#
# Indices 1 2 3 4 5 6 
#
# 1 153.6372 123.4072 -6.4379 0.0000 0.0000 -2.5013
# 2 123.4072 153.6372 -6.4379 0.0000 0.0000 2.5013
# 3 -6.4379 -6.4379 27.9832 0.0000 0.0000 0.0000
# 4 0.0000 0.0000 0.0000 3.1825 0.0000 0.0000
# 5 0.0000 0.0000 0.0000 0.0000 3.1825 0.0000
# 6 -2.5013 2.5013 0.0000 0.0000 0.0000 32.6290
#
#
#
# Elastic Compliance Matrix: (Units=1/GPa)
#
#
# Indices 1 2 3 4 5 6 
#
# 1 0.018577 -0.014928 0.000839 0.000000 0.000000 0.002568
# 2 -0.014928 0.018577 0.000839 0.000000 0.000000 -0.002568
# 3 0.000839 0.000839 0.036122 0.000000 0.000000 0.000000
# 4 0.000000 0.000000 0.000000 0.314219 0.000000 0.000000
# 5 0.000000 0.000000 0.000000 0.000000 0.314219 0.000000
# 6 0.002568 -0.002568 0.000000 0.000000 0.000000 0.031041
#
#
# Mechanical properties :
#
#
# Convention : Reuss Voigt Hill
#
# Bulk Modulus (GPa) = 21.37821 61.81336 41.59578
# Shear Modulus (GPa) = 6.45290 22.78055 14.61673
#
# Velocity S-wave (km/s) = 1.77969 3.34386 2.67850
# Velocity P-wave (km/s) = 3.83616 6.72670 5.47561
#
# Compressibility (1/GPa) = 0.04677660
#
# Stress axis : x y z
#
# Youngs Moduli (GPa) = 53.83106 53.83106 27.68401
#
# Poissons Ratio (x) = 0.80360 -0.02324
# Poissons Ratio (y) = 0.80360 -0.02324
# Poissons Ratio (z) = -0.04519 -0.04519
#
# Static dielectric constant tensor:
#      x y z
#    x 1.701150 0.000000 0.000000 
#    y 0.000000 1.701150 0.000000 
#    z 0.000000 0.000000 1.752670 
# 
# From -- ./inp_files/993.got.cif
#   From: 2010.05.17/outbox.cif.g08.bks.cpg/sg84_1_cif.got.tgz:993.got - 2010.06.03 18:57:40.
