data_PCOD9544537
_publ_section_title
;
Structure prediction by ZEFSAII (Michael W. Deem and Ramdas Pophale) SiO2 
 PCOD9544537
Probable space group: P 4/N
;
_chemical_formula_sum "Si O2"
_cell_formula_units_Z 34
_cell_length_a 7.402214
_cell_length_b 7.402214
_cell_length_c 25.006910
_cell_angle_alpha 90.000000
_cell_angle_beta 90.000000
_cell_angle_gamma 90.000000
_cell_volume 1370.197921
_symmetry_space_group_name_H-M "P 4/N"
_symmetry_group_IT_number 85
_symmetry_cell_setting 'tetragonal'
loop_
_space_group_symop_operation_xyz
x,y,z
1/2-y,x,z
1/2-x,1/2-y,z
y,1/2-x,z
-x,-y,-z
1/2+y,-x,-z
1/2+x,1/2+y,-z
-y,1/2+x,-z
loop_
_atom_site_type_symbol
_atom_site_label
_atom_site_fract_x
_atom_site_fract_y
_atom_site_fract_z
Si Si1 0.970718 0.132394 0.592327
Si Si2 0.507642 0.572966 0.060737
Si Si3 0.531731 0.363599 0.221138
Si Si4 0.750000 0.250000 0.126614
Si Si5 0.750000 0.250000 0.314958
Si Si6 0.750000 0.250000 0.500000
O O1 0.154961 0.023991 0.592129
O O2 0.853559 0.112385 0.645812
O O3 0.851411 0.110869 0.539292
O O4 0.710735 0.512691 0.070902
O O5 0.321681 0.566268 0.094247
O O6 0.500000 0.500000 0.000000
O O7 0.347953 0.474170 0.220112
O O8 0.658578 0.389991 0.169654
O O9 0.644939 0.385067 0.275359
#
# Coordination Sequence:
#
# PCOD9544537 Si02
#       6
#     8   8   8   4   4   2
#     4  10  20  34  53  78 110 151 197 248 301 356
#     4  11  23  39  60  85 115 150 188 232 281 337
#     4  10  21  37  59  87 117 151 189 235 290 351
#     4  11  22  40  62  88 118 150 192 237 286 346
#     4  10  20  35  56  82 116 151 192 240 294 356
#     4  10  20  34  52  76 108 150 200 254 304 354
#
# _framework density 24.813936000000002
#
# number of rings (size 3 to 8) (size 9 to 14) (size 15 to 20)
#    0.000    1.647    0.000    4.941    0.000    0.000 
#    0.000    2.353    0.000   22.588    0.000    0.000 
#    0.000    0.000    0.000    0.000    0.000    0.000 
#
# Total GULP energy -189448.405394 kJ/mol
# GULP energy per Si atom -5572.011923 kJ/mol
# Density = 2.475746 g / cm^3
# Si number density = 24.813936 Si / 1000 Ang^3
#
#
#
# Elastic Constant Matrix: (Units=GPa)
#
#
# Indices 1 2 3 4 5 6 
#
# 1 61.0854 -15.8792 18.7231 0.0000 0.0000 -18.8108
# 2 -15.8792 61.0854 18.7231 0.0000 0.0000 18.8108
# 3 18.7231 18.7231 190.6007 0.0000 0.0000 0.0000
# 4 0.0000 0.0000 0.0000 31.0330 0.0000 0.0000
# 5 0.0000 0.0000 0.0000 0.0000 31.0330 0.0000
# 6 -18.8108 18.8108 0.0000 0.0000 0.0000 46.8264
#
#
#
# Elastic Compliance Matrix: (Units=1/GPa)
#
#
# Indices 1 2 3 4 5 6 
#
# 1 0.020124 0.003956 -0.002365 0.000000 0.000000 0.006495
# 2 0.003956 0.020124 -0.002365 0.000000 0.000000 -0.006495
# 3 -0.002365 -0.002365 0.005711 0.000000 0.000000 0.000000
# 4 0.000000 0.000000 0.000000 0.032224 0.000000 0.000000
# 5 0.000000 0.000000 0.000000 0.000000 0.032224 0.000000
# 6 0.006495 -0.006495 0.000000 0.000000 0.000000 0.026574
#
#
# Mechanical properties :
#
#
# Convention : Reuss Voigt Hill
#
# Bulk Modulus (GPa) = 22.51744 39.54504 31.03124
# Shear Modulus (GPa) = 32.60872 41.19209 36.90040
#
# Velocity S-wave (km/s) = 3.62902 4.07878 3.86046
# Velocity P-wave (km/s) = 5.16275 6.17682 5.69241
#
# Compressibility (1/GPa) = 0.04441001
#
# Stress axis : x y z
#
# Youngs Moduli (GPa) = 49.69186 49.69186 175.09159
#
# Poissons Ratio (x) = -0.19659 0.41417
# Poissons Ratio (y) = -0.19659 0.41417
# Poissons Ratio (z) = 0.11754 0.11754
#
# Static dielectric constant tensor:
#      x y z
#    x 1.597500 0.000000 0.000000 
#    y 0.000000 1.597500 0.000000 
#    z 0.000000 0.000000 2.038020 
# 
# From -- ./inp_files/2202.got.cif
#   From: 2010.05.17/outbox.cif.g08.bks.cpg/sg85_cif.got.tgz:2202.got - 2010.06.03 19:01:16.
