data_PCOD9544093
_publ_section_title
;
Structure prediction by ZEFSAII (Michael W. Deem and Ramdas Pophale) SiO2 
 PCOD9544093
Probable space group: P 42/M
;
_chemical_formula_sum "Si O2"
_cell_formula_units_Z 48
_cell_length_a 18.032831
_cell_length_b 18.032831
_cell_length_c 9.059161
_cell_angle_alpha 90.000000
_cell_angle_beta 90.000000
_cell_angle_gamma 90.000000
_cell_volume 2945.885096
_symmetry_space_group_name_H-M "P 42/M"
_symmetry_group_IT_number 84
_symmetry_cell_setting 'tetragonal'
loop_
_space_group_symop_operation_xyz
x,y,z
-y,x,1/2+z
-x,-y,z
y,-x,1/2+z
-x,-y,-z
y,-x,1/2-z
x,y,-z
-y,x,1/2-z
loop_
_atom_site_type_symbol
_atom_site_label
_atom_site_fract_x
_atom_site_fract_y
_atom_site_fract_z
Si Si1 0.695545 0.198316 0.668735
Si Si2 0.423579 0.309195 0.831266
Si Si3 0.417463 0.909741 0.175851
Si Si4 0.320178 0.434560 0.837148
Si Si5 0.311165 0.202315 0.674831
Si Si6 0.414566 0.086540 0.176367
O O1 0.715472 0.179652 0.500000
O O2 0.650267 0.132351 0.746755
O O3 0.633167 0.262764 0.663354
O O4 0.765219 0.235649 0.752576
O O5 0.398887 0.394548 0.817819
O O6 0.508345 0.301532 0.789196
O O7 0.374130 0.261935 0.720044
O O8 0.408066 0.285804 0.000000
O O9 0.501901 0.888078 0.224504
O O10 0.411418 0.998134 0.199622
O O11 0.414022 0.896000 0.000000
O O12 0.317056 0.470286 0.000000
O O13 0.302730 0.196533 0.500000
O O14 0.347417 0.128184 0.743399
O O15 0.409818 0.099645 0.000000
#
# Coordination Sequence:
#
# PCOD9544093 Si02
#       6
#     8   8   8   8   8   8
#     4  10  20  33  48  67  93 123 155 193 234 277
#     4  10  20  32  45  60  80 109 145 187 234 278
#     4   9  18  32  51  74  99 129 161 194 237 289
#     4   9  19  32  43  59  81 108 145 186 230 276
#     4  11  21  32  48  68  91 121 157 194 232 278
#     4   9  18  33  51  72 100 130 159 194 239 288
#
# _framework density 16.293914999999998
#
# number of rings (size 3 to 8) (size 9 to 14) (size 15 to 20)
#    0.000    2.333    0.000    5.500    0.000    8.333 
#    0.000    3.333    0.000    0.000    0.000    0.000 
#    0.000    0.667    0.000    7.000    0.000    3.000 
#
# Total GULP energy -267451.079618 kJ/mol
# GULP energy per Si atom -5571.897492 kJ/mol
# Density = 1.625683 g / cm^3
# Si number density = 16.293915 Si / 1000 Ang^3
#
#
#
# Elastic Constant Matrix: (Units=GPa)
#
#
# Indices 1 2 3 4 5 6 
#
# 1 61.7429 31.3229 38.2166 0.0000 0.0000 -1.1897
# 2 31.3229 61.7429 38.2166 0.0000 0.0000 1.1897
# 3 38.2166 38.2166 84.5319 0.0000 0.0000 0.0000
# 4 0.0000 0.0000 0.0000 19.7469 0.0000 0.0000
# 5 0.0000 0.0000 0.0000 0.0000 19.7469 0.0000
# 6 -1.1897 1.1897 0.0000 0.0000 0.0000 31.0278
#
#
#
# Elastic Compliance Matrix: (Units=1/GPa)
#
#
# Indices 1 2 3 4 5 6 
#
# 1 0.025031 -0.007941 -0.007727 0.000000 0.000000 0.001264
# 2 -0.007941 0.025031 -0.007727 0.000000 0.000000 -0.001264
# 3 -0.007727 -0.007727 0.018816 0.000000 0.000000 0.000000
# 4 0.000000 0.000000 0.000000 0.050641 0.000000 0.000000
# 5 0.000000 0.000000 0.000000 0.000000 0.050641 0.000000
# 6 0.001264 -0.001264 0.000000 0.000000 0.000000 0.032326
#
#
# Mechanical properties :
#
#
# Convention : Reuss Voigt Hill
#
# Bulk Modulus (GPa) = 45.26695 47.05887 46.16291
# Shear Modulus (GPa) = 19.48264 20.78844 20.13554
#
# Velocity S-wave (km/s) = 3.46164 3.57577 3.51917
# Velocity P-wave (km/s) = 6.61960 6.78175 6.70116
#
# Compressibility (1/GPa) = 0.02209117
#
# Stress axis : x y z
#
# Youngs Moduli (GPa) = 39.94978 39.94978 53.14530
#
# Poissons Ratio (x) = 0.31722 0.41064
# Poissons Ratio (y) = 0.31722 0.41064
# Poissons Ratio (z) = 0.30868 0.30868
#
# Static dielectric constant tensor:
#      x y z
#    x 1.564280 0.000000 0.000000 
#    y 0.000000 1.564280 0.000000 
#    z 0.000000 0.000000 1.563910 
# 
# From -- ./inp_files/998.got.cif
#   From: 2010.05.17/outbox.cif.g08.bks.cpg/sg84_1_cif.got.tgz:998.got - 2010.06.03 18:57:40.
