data_PCOD9544053
_publ_section_title
;
Structure prediction by ZEFSAII (Michael W. Deem and Ramdas Pophale) SiO2 
 PCOD9544053
Probable space group: P 42/M
;
_chemical_formula_sum "Si O2"
_cell_formula_units_Z 58
_cell_length_a 17.171487
_cell_length_b 17.171487
_cell_length_c 10.328417
_cell_angle_alpha 90.000000
_cell_angle_beta 90.000000
_cell_angle_gamma 90.000000
_cell_volume 3045.436683
_symmetry_space_group_name_H-M "P 42/M"
_symmetry_group_IT_number 84
_symmetry_cell_setting 'tetragonal'
loop_
_space_group_symop_operation_xyz
x,y,z
-y,x,1/2+z
-x,-y,z
y,-x,1/2+z
-x,-y,-z
y,-x,1/2-z
x,y,-z
-y,x,1/2-z
loop_
_atom_site_type_symbol
_atom_site_label
_atom_site_fract_x
_atom_site_fract_y
_atom_site_fract_z
Si Si1 0.568703 0.164993 0.141179
Si Si2 0.770466 0.203811 0.642248
Si Si3 0.086070 0.538670 0.152932
Si Si4 0.682117 0.915224 0.849357
Si Si5 0.500000 0.500000 0.250000
Si Si6 0.654916 0.453702 0.858330
Si Si7 0.695410 0.627850 0.777093
Si Si8 0.266153 0.916689 0.144582
O O1 0.515807 0.144977 0.264809
O O2 0.603047 0.252056 0.154008
O O3 0.642237 0.107126 0.146342
O O4 0.530088 0.155779 0.000000
O O5 0.778601 0.168789 0.500000
O O6 0.837711 0.267051 0.661264
O O7 0.687882 0.248961 0.649744
O O8 0.772859 0.137749 0.750052
O O9 0.083707 0.616791 0.238570
O O10 0.000000 0.500000 0.157113
O O11 0.106646 0.547839 0.000000
O O12 0.735376 0.991622 0.831026
O O13 0.652465 0.920049 0.000000
O O14 0.542861 0.561376 0.340964
O O15 0.679286 0.543640 0.840724
O O16 0.672473 0.385263 0.756138
O O17 0.679474 0.427826 0.000000
O O18 0.237038 0.899839 0.000000
#
# Coordination Sequence:
#
# PCOD9544053 Si02
#       8
#     8   8   8   8   2   8   8   8
#     4  10  20  36  56  77 108 154 198 238 288 351
#     4  10  22  39  60  88 121 152 191 242 297 354
#     4  11  23  36  55  88 121 151 191 245 300 349
#     4  10  21  39  61  87 118 158 198 235 289 361
#     4   8  18  32  48  66  84 124 186 240 292 338
#     4  10  19  34  52  69  99 140 188 243 295 342
#     4  10  22  36  52  82 109 149 197 248 298 346
#     4   9  19  37  61  84 113 153 194 232 283 350
#
# _framework density 19.044889000000001
#
# number of rings (size 3 to 8) (size 9 to 14) (size 15 to 20)
#    0.000    2.069    1.379    1.448    1.931    4.966 
#    0.000    1.379    0.000    0.414    0.000    2.897 
#    0.000    0.000    0.000    0.000    0.000    0.000 
#
# Total GULP energy -323138.726744 kJ/mol
# GULP energy per Si atom -5571.357358 kJ/mol
# Density = 1.900154 g / cm^3
# Si number density = 19.044889 Si / 1000 Ang^3
#
#
#
# Elastic Constant Matrix: (Units=GPa)
#
#
# Indices 1 2 3 4 5 6 
#
# 1 72.1179 7.8605 44.5848 0.0000 0.0000 0.0220
# 2 7.8605 72.1179 44.5848 0.0000 0.0000 -0.0220
# 3 44.5848 44.5848 154.7264 0.0000 0.0000 0.0000
# 4 0.0000 0.0000 0.0000 14.9277 0.0000 0.0000
# 5 0.0000 0.0000 0.0000 0.0000 14.9277 0.0000
# 6 0.0220 -0.0220 0.0000 0.0000 0.0000 17.2561
#
#
#
# Elastic Compliance Matrix: (Units=1/GPa)
#
#
# Indices 1 2 3 4 5 6 
#
# 1 0.016992 0.001430 -0.005308 0.000000 0.000000 -0.000020
# 2 0.001430 0.016992 -0.005308 0.000000 0.000000 0.000020
# 3 -0.005308 -0.005308 0.009522 0.000000 0.000000 0.000000
# 4 0.000000 0.000000 0.000000 0.066990 0.000000 0.000000
# 5 0.000000 0.000000 0.000000 0.000000 0.066990 0.000000
# 6 -0.000020 0.000020 0.000000 0.000000 0.000000 0.057950
#
#
# Mechanical properties :
#
#
# Convention : Reuss Voigt Hill
#
# Bulk Modulus (GPa) = 39.78911 54.78026 47.28468
# Shear Modulus (GPa) = 19.07032 22.88443 20.97738
#
# Velocity S-wave (km/s) = 3.16782 3.47018 3.32244
# Velocity P-wave (km/s) = 5.85814 6.69943 6.29286
#
# Compressibility (1/GPa) = 0.02513250
#
# Stress axis : x y z
#
# Youngs Moduli (GPa) = 58.85111 58.85111 105.01797
#
# Poissons Ratio (x) = -0.08413 0.55746
# Poissons Ratio (y) = -0.08413 0.55746
# Poissons Ratio (z) = 0.31240 0.31240
#
# Static dielectric constant tensor:
#      x y z
#    x 1.672810 0.000000 0.000000 
#    y 0.000000 1.672810 0.000000 
#    z 0.000000 0.000000 1.694950 
# 
# From -- ./inp_files/1157.got.cif
#   From: 2010.05.17/outbox.cif.g08.bks.cpg/sg84_1_cif.got.tgz:1157.got - 2010.06.03 18:57:40.
