data_PCOD9544144
_publ_section_title
;
Structure prediction by ZEFSAII (Michael W. Deem and Ramdas Pophale) SiO2 
 PCOD9544144
Probable space group: P 42/M
;
_chemical_formula_sum "Si O2"
_cell_formula_units_Z 64
_cell_length_a 20.562244
_cell_length_b 20.562244
_cell_length_c 8.775267
_cell_angle_alpha 90.000000
_cell_angle_beta 90.000000
_cell_angle_gamma 90.000000
_cell_volume 3710.234471
_symmetry_space_group_name_H-M "P 42/M"
_symmetry_group_IT_number 84
_symmetry_cell_setting 'tetragonal'
loop_
_space_group_symop_operation_xyz
x,y,z
-y,x,1/2+z
-x,-y,z
y,-x,1/2+z
-x,-y,-z
y,-x,1/2-z
x,y,-z
-y,x,1/2-z
loop_
_atom_site_type_symbol
_atom_site_label
_atom_site_fract_x
_atom_site_fract_y
_atom_site_fract_z
Si Si1 0.604098 0.339654 0.318829
Si Si2 0.662086 0.468753 0.327380
Si Si3 0.697623 0.228945 0.814993
Si Si4 0.724858 0.834006 0.673425
Si Si5 0.042062 0.653108 0.815156
Si Si6 0.511418 0.904178 0.675117
Si Si7 0.582227 0.771406 0.335153
Si Si8 0.907229 0.629822 0.318136
O O1 0.613457 0.337235 0.500000
O O2 0.610676 0.415611 0.270842
O O3 0.531119 0.322976 0.272566
O O4 0.654792 0.290048 0.242454
O O5 0.648500 0.488308 0.500000
O O6 0.727035 0.426047 0.310600
O O7 0.773132 0.234256 0.760668
O O8 0.661964 0.161681 0.770826
O O9 0.699090 0.232500 0.000000
O O10 0.749146 0.844844 0.500000
O O11 0.706681 0.904979 0.740742
O O12 0.652622 0.803516 0.663883
O O13 0.061875 0.578539 0.770074
O O14 0.969475 0.664165 0.757393
O O15 0.045271 0.653389 0.000000
O O16 0.498897 0.924996 0.500000
O O17 0.529919 0.828416 0.670789
O O18 0.445900 0.911546 0.769575
O O19 0.575973 0.736443 0.500000
O O20 0.911477 0.634538 0.500000
#
# Coordination Sequence:
#
# PCOD9544144 Si02
#       8
#     8   8   8   8   8   8   8   8
#     4  11  24  38  53  73  94 121 161 206 255 308
#     4  11  23  36  50  70  94 119 156 206 259 309
#     4  10  20  36  56  76 102 132 165 206 250 300
#     4   8  15  31  55  75  91 124 169 202 235 285
#     4   9  18  33  52  71  94 131 174 207 237 284
#     4   9  18  31  48  70  95 130 173 206 234 284
#     4   9  16  30  53  73  90 119 160 204 246 289
#     4  11  22  31  44  73 107 135 159 195 253 300
#
# _framework density 17.249583999999999
#
# number of rings (size 3 to 8) (size 9 to 14) (size 15 to 20)
#    0.000    2.250    1.250    3.750    0.000    7.250 
#    0.000    3.750    0.000    0.000    0.000    0.000 
#    0.000    0.500    0.000    6.250    0.000    0.000 
#
# Total GULP energy -356281.232788 kJ/mol
# GULP energy per Si atom -5566.894262 kJ/mol
# Density = 1.721032 g / cm^3
# Si number density = 17.249584 Si / 1000 Ang^3
#
#
#
# Elastic Constant Matrix: (Units=GPa)
#
#
# Indices 1 2 3 4 5 6 
#
# 1 67.8496 25.9246 14.3043 0.0000 0.0000 1.6809
# 2 25.9246 67.8496 14.3043 0.0000 0.0000 -1.6809
# 3 14.3043 14.3043 17.9058 0.0000 0.0000 0.0000
# 4 0.0000 0.0000 0.0000 14.7192 0.0000 0.0000
# 5 0.0000 0.0000 0.0000 0.0000 14.7192 0.0000
# 6 1.6809 -1.6809 0.0000 0.0000 0.0000 14.5034
#
#
#
# Elastic Compliance Matrix: (Units=1/GPa)
#
#
# Indices 1 2 3 4 5 6 
#
# 1 0.019088 -0.004988 -0.011264 0.000000 0.000000 -0.002790
# 2 -0.004988 0.019088 -0.011264 0.000000 0.000000 0.002790
# 3 -0.011264 -0.011264 0.073845 0.000000 0.000000 0.000000
# 4 0.000000 0.000000 0.000000 0.067938 0.000000 0.000000
# 5 0.000000 0.000000 0.000000 0.000000 0.067938 0.000000
# 6 -0.002790 0.002790 0.000000 0.000000 0.000000 0.069596
#
#
# Mechanical properties :
#
#
# Convention : Reuss Voigt Hill
#
# Bulk Modulus (GPa) = 17.54736 29.18571 23.36654
# Shear Modulus (GPa) = 12.77063 15.39315 14.08189
#
# Velocity S-wave (km/s) = 2.72388 2.99051 2.86030
# Velocity P-wave (km/s) = 4.48190 5.37407 4.94813
#
# Compressibility (1/GPa) = 0.05698863
#
# Stress axis : x y z
#
# Youngs Moduli (GPa) = 52.38851 52.38851 13.54187
#
# Poissons Ratio (x) = 0.26130 0.15254
# Poissons Ratio (y) = 0.26130 0.15254
# Poissons Ratio (z) = 0.59012 0.59012
#
# Static dielectric constant tensor:
#      x y z
#    x 1.630420 0.000000 0.000000 
#    y 0.000000 1.630420 0.000000 
#    z 0.000000 0.000000 1.611920 
# 
# From -- ./inp_files/1402.got.cif
#   From: 2010.05.17/outbox.cif.g08.bks.cpg/sg84_1_cif.got.tgz:1402.got - 2010.06.03 18:57:40.
