data_PCOD9544945
_publ_section_title
;
Structure prediction by ZEFSAII (Michael W. Deem and Ramdas Pophale) SiO2 
 PCOD9544945
Probable space group: P 42/N
;
_chemical_formula_sum "Si O2"
_cell_formula_units_Z 40
_cell_length_a 9.288955
_cell_length_b 9.288955
_cell_length_c 23.662088
_cell_angle_alpha 90.000000
_cell_angle_beta 90.000000
_cell_angle_gamma 90.000000
_cell_volume 2041.675809
_symmetry_space_group_name_H-M "P 42/N"
_symmetry_group_IT_number 86
_space_group.IT_coordinate_system_code '2'
_symmetry_cell_setting 'tetragonal'
loop_
_space_group_symop_operation_xyz
x,y,z
-y,1/2+x,1/2+z
1/2-x,1/2-y,z
1/2+y,-x,1/2+z
-x,-y,-z
y,1/2-x,1/2-z
1/2+x,1/2+y,-z
1/2-y,x,1/2-z
loop_
_atom_site_type_symbol
_atom_site_label
_atom_site_fract_x
_atom_site_fract_y
_atom_site_fract_z
Si Si1 0.892120 0.611149 0.067702
Si Si2 0.271136 0.593943 0.853577
Si Si3 0.111169 0.514136 0.614510
Si Si4 0.779540 0.413419 0.970400
Si Si5 0.013215 0.229351 0.762934
O O1 0.839714 0.521375 0.121247
O O2 0.903707 0.781397 0.081338
O O3 0.061857 0.583116 0.056768
O O4 0.797662 0.539522 0.016984
O O5 0.250000 0.750000 0.878746
O O6 0.426926 0.531227 0.869119
O O7 0.244404 0.599429 0.786969
O O8 0.074211 0.651912 0.575969
O O9 0.192532 0.542457 0.674332
O O10 0.750000 0.250000 0.993371
O O11 0.105485 0.375203 0.756696
#
# Coordination Sequence:
#
# PCOD9544945 Si02
#       5
#     8   8   8   8   8
#     4  10  19  37  59  86 119 153 194 247 300 352
#     4  11  22  35  57  88 121 151 198 251 294 356
#     4  10  20  38  61  87 117 157 204 245 304 366
#     4   9  20  36  60  88 119 156 199 247 295 363
#     4   9  17  34  59  86 113 152 198 247 302 357
#
# _framework density 19.591747999999999
#
# number of rings (size 3 to 8) (size 9 to 14) (size 15 to 20)
#    0.000    2.200    2.000    1.200    0.000    3.200 
#    0.000    5.000    0.000    0.000    0.000    0.000 
#    0.000    0.000    0.000    0.000    0.000    0.000 
#
# Total GULP energy -222690.529273 kJ/mol
# GULP energy per Si atom -5567.263232 kJ/mol
# Density = 1.954716 g / cm^3
# Si number density = 19.591748 Si / 1000 Ang^3
#
#
#
# Elastic Constant Matrix: (Units=GPa)
#
#
# Indices 1 2 3 4 5 6 
#
# 1 96.1318 50.3241 60.4810 0.0000 0.0000 15.3673
# 2 50.3241 96.1318 60.4810 0.0000 0.0000 -15.3673
# 3 60.4810 60.4810 150.0872 0.0000 0.0000 0.0000
# 4 0.0000 0.0000 0.0000 22.7547 0.0000 0.0000
# 5 0.0000 0.0000 0.0000 0.0000 22.7547 0.0000
# 6 15.3673 -15.3673 0.0000 0.0000 0.0000 32.8847
#
#
#
# Elastic Compliance Matrix: (Units=1/GPa)
#
#
# Indices 1 2 3 4 5 6 
#
# 1 0.021018 -0.010784 -0.004124 0.000000 0.000000 -0.014861
# 2 -0.010784 0.021018 -0.004124 0.000000 0.000000 0.014861
# 3 -0.004124 -0.004124 0.009987 0.000000 0.000000 0.000000
# 4 0.000000 0.000000 0.000000 0.043947 0.000000 0.000000
# 5 0.000000 0.000000 0.000000 0.000000 0.043947 0.000000
# 6 -0.014861 0.014861 0.000000 0.000000 0.000000 0.044299
#
#
# Mechanical properties :
#
#
# Convention : Reuss Voigt Hill
#
# Bulk Modulus (GPa) = 71.64044 76.10254 73.87149
# Shear Modulus (GPa) = 22.03312 27.08314 24.55813
#
# Velocity S-wave (km/s) = 3.35716 3.72206 3.54431
# Velocity P-wave (km/s) = 7.18842 7.57629 7.38490
#
# Compressibility (1/GPa) = 0.01395860
#
# Stress axis : x y z
#
# Youngs Moduli (GPa) = 47.57873 47.57873 100.13427
#
# Poissons Ratio (x) = 0.51307 0.41296
# Poissons Ratio (y) = 0.51307 0.41296
# Poissons Ratio (z) = 0.19622 0.19622
#
# Static dielectric constant tensor:
#      x y z
#    x 1.737720 0.000000 0.000000 
#    y 0.000000 1.737720 0.000000 
#    z 0.000000 0.000000 1.735980 
# 
# From -- ./inp_files/4495.got.cif
#   From: 2010.05.17/outbox.cif.g08.bks.cpg/sg86_3_cif.got.tgz:4495.got - 2010.06.03 19:03:11.
