data_PCOD9544792
_publ_section_title
;
Structure prediction by ZEFSAII (Michael W. Deem and Ramdas Pophale) SiO2 
 PCOD9544792
Probable space group: P 4/N
;
_chemical_formula_sum "Si O2"
_cell_formula_units_Z 40
_cell_length_a 9.038090
_cell_length_b 9.038090
_cell_length_c 23.708615
_cell_angle_alpha 90.000000
_cell_angle_beta 90.000000
_cell_angle_gamma 90.000000
_cell_volume 1936.687313
_symmetry_space_group_name_H-M "P 4/N"
_symmetry_group_IT_number 85
_symmetry_cell_setting 'tetragonal'
loop_
_space_group_symop_operation_xyz
x,y,z
1/2-y,x,z
1/2-x,1/2-y,z
y,1/2-x,z
-x,-y,-z
1/2+y,-x,-z
1/2+x,1/2+y,-z
-y,1/2+x,-z
loop_
_atom_site_type_symbol
_atom_site_label
_atom_site_fract_x
_atom_site_fract_y
_atom_site_fract_z
Si Si1 0.669519 0.977893 0.150094
Si Si2 0.582418 0.561405 0.555434
Si Si3 0.890573 0.541503 0.335692
Si Si4 0.864056 0.418665 0.024725
Si Si5 0.976477 0.643356 0.766879
O O1 0.568796 0.835389 0.165508
O O2 0.679772 0.011010 0.083394
O O3 0.587560 0.109563 0.181617
O O4 0.761785 0.548749 0.557226
O O5 0.500000 0.500000 0.500000
O O6 0.520072 0.463505 0.606956
O O7 0.947590 0.711872 0.331721
O O8 0.944235 0.428884 0.287278
O O9 0.913792 0.249788 0.027525
O O10 0.000000 0.500000 0.000000
O O11 0.938728 0.817018 0.767812
#
# Coordination Sequence:
#
# PCOD9544792 Si02
#       5
#     8   8   8   8   8
#     4  11  24  43  66  93 126 165 209 261 317 382
#     4  11  24  41  64  97 136 177 224 275 324 383
#     4  11  24  43  67  97 131 171 219 269 324 386
#     4  11  24  41  64  94 126 164 206 254 316 379
#     4  11  26  44  65  96 129 166 212 266 321 382
#
# _framework density 20.653824
#
# number of rings (size 3 to 8) (size 9 to 14) (size 15 to 20)
#    0.000    1.000    2.000    3.600    2.800   12.800 
#    0.000    0.000    0.000    0.000    0.000    0.000 
#    0.000    0.000    0.000    0.000    0.000    0.000 
#
# Total GULP energy -223147.401020 kJ/mol
# GULP energy per Si atom -5578.685026 kJ/mol
# Density = 2.060681 g / cm^3
# Si number density = 20.653824 Si / 1000 Ang^3
#
#
#
# Elastic Constant Matrix: (Units=GPa)
#
#
# Indices 1 2 3 4 5 6 
#
# 1 52.4836 23.5201 -0.1949 0.0000 0.0000 -0.2476
# 2 23.5201 52.4836 -0.1949 0.0000 0.0000 0.2476
# 3 -0.1949 -0.1949 64.9989 0.0000 0.0000 0.0000
# 4 0.0000 0.0000 0.0000 37.0581 0.0000 0.0000
# 5 0.0000 0.0000 0.0000 0.0000 37.0581 0.0000
# 6 -0.2476 0.2476 0.0000 0.0000 0.0000 40.6173
#
#
#
# Elastic Compliance Matrix: (Units=1/GPa)
#
#
# Indices 1 2 3 4 5 6 
#
# 1 0.023844 -0.010686 0.000039 0.000000 0.000000 0.000210
# 2 -0.010686 0.023844 0.000039 0.000000 0.000000 -0.000210
# 3 0.000039 0.000039 0.015385 0.000000 0.000000 0.000000
# 4 0.000000 0.000000 0.000000 0.026985 0.000000 0.000000
# 5 0.000000 0.000000 0.000000 0.000000 0.026985 0.000000
# 6 0.000210 -0.000210 0.000000 0.000000 0.000000 0.024623
#
#
# Mechanical properties :
#
#
# Convention : Reuss Voigt Hill
#
# Bulk Modulus (GPa) = 23.89040 24.02520 23.95780
# Shear Modulus (GPa) = 28.27550 32.73573 30.50562
#
# Velocity S-wave (km/s) = 3.70404 3.98549 3.84734
# Velocity P-wave (km/s) = 5.46675 5.73031 5.60008
#
# Compressibility (1/GPa) = 0.04185781
#
# Stress axis : x y z
#
# Youngs Moduli (GPa) = 41.93991 41.93991 64.99789
#
# Poissons Ratio (x) = 0.44818 -0.00256
# Poissons Ratio (y) = 0.44818 -0.00256
# Poissons Ratio (z) = -0.00165 -0.00165
#
# Static dielectric constant tensor:
#      x y z
#    x 1.605970 0.000000 0.000000 
#    y 0.000000 1.605970 0.000000 
#    z 0.000000 0.000000 1.755730 
# 
# From -- ./inp_files/2310.got.cif
#   From: 2010.05.17/outbox.cif.g08.bks.cpg/sg85_cif.got.tgz:2310.got - 2010.06.03 19:01:16.
