data_PCOD9544889
_publ_section_title
;
Structure prediction by ZEFSAII (Michael W. Deem and Ramdas Pophale) SiO2 
 PCOD9544889
Probable space group: P 42/N
;
_chemical_formula_sum "Si O2"
_cell_formula_units_Z 52
_cell_length_a 14.305162
_cell_length_b 14.305162
_cell_length_c 9.046632
_cell_angle_alpha 90.000000
_cell_angle_beta 90.000000
_cell_angle_gamma 90.000000
_cell_volume 1851.281602
_symmetry_space_group_name_H-M "P 42/N"
_symmetry_group_IT_number 86
_space_group.IT_coordinate_system_code '2'
_symmetry_cell_setting 'tetragonal'
loop_
_space_group_symop_operation_xyz
x,y,z
-y,1/2+x,1/2+z
1/2-x,1/2-y,z
1/2+y,-x,1/2+z
-x,-y,-z
y,1/2-x,1/2-z
1/2+x,1/2+y,-z
1/2-y,x,1/2-z
loop_
_atom_site_type_symbol
_atom_site_label
_atom_site_fract_x
_atom_site_fract_y
_atom_site_fract_z
Si Si1 0.154134 0.850878 0.917372
Si Si2 0.469107 0.369472 0.596410
Si Si3 0.256397 0.436568 0.147183
Si Si4 0.960828 0.865300 0.916895
Si Si5 0.651936 0.346903 0.733734
Si Si6 0.250000 0.250000 0.997976
Si Si7 0.564549 0.766995 0.161511
O O1 0.239671 0.875130 0.807525
O O2 0.137360 0.742968 0.868457
O O3 0.061147 0.910756 0.880889
O O4 0.178377 0.859521 0.093053
O O5 0.494410 0.326592 0.436608
O O6 0.563872 0.405954 0.672229
O O7 0.377204 0.434432 0.621815
O O8 0.440433 0.269717 0.672756
O O9 0.226648 0.446044 0.315442
O O10 0.367998 0.429616 0.106421
O O11 0.224338 0.334637 0.099911
O O12 0.991496 0.813066 0.070501
O O13 0.336202 0.269148 0.896179
#
# Coordination Sequence:
#
# PCOD9544889 Si02
#       7
#     8   8   8   8   8   4   8
#     4  11  25  46  71  86 115 152 214 259 303 359
#     4  11  21  35  63  91 128 158 202 239 302 360
#     4  10  20  31  59  91 132 167 196 242 294 360
#     4  11  21  39  59  95 130 164 204 245 300 358
#     4  11  25  46  69  90 109 158 208 261 303 361
#     4   8  16  30  52  86 124 172 210 224 274 358
#     4  10  18  33  55  91 127 163 193 245 290 357
#
# _framework density 28.088646000000001
#
# number of rings (size 3 to 8) (size 9 to 14) (size 15 to 20)
#    0.000    1.538    1.538    7.385    4.308    1.231 
#    0.000    3.077    0.000    0.000    0.000    0.000 
#    0.000    0.000    0.000    0.000    0.000    0.000 
#
# Total GULP energy -289846.604579 kJ/mol
# GULP energy per Si atom -5573.973165 kJ/mol
# Density = 2.802472 g / cm^3
# Si number density = 28.088646 Si / 1000 Ang^3
#
#
#
# Elastic Constant Matrix: (Units=GPa)
#
#
# Indices 1 2 3 4 5 6 
#
# 1 87.3563 -19.4094 3.3022 0.0000 0.0000 -16.5917
# 2 -19.4094 87.3563 3.3022 0.0000 0.0000 16.5917
# 3 3.3022 3.3022 109.8447 0.0000 0.0000 0.0000
# 4 0.0000 0.0000 0.0000 31.3229 0.0000 0.0000
# 5 0.0000 0.0000 0.0000 0.0000 31.3229 0.0000
# 6 -16.5917 16.5917 0.0000 0.0000 0.0000 15.0227
#
#
#
# Elastic Compliance Matrix: (Units=1/GPa)
#
#
# Indices 1 2 3 4 5 6 
#
# 1 0.014511 0.000249 -0.000444 0.000000 0.000000 0.015752
# 2 0.000249 0.014511 -0.000444 0.000000 0.000000 -0.015752
# 3 -0.000444 -0.000444 0.009130 0.000000 0.000000 0.000000
# 4 0.000000 0.000000 0.000000 0.031925 0.000000 0.000000
# 5 0.000000 0.000000 0.000000 0.000000 0.031925 0.000000
# 6 0.015752 -0.015752 0.000000 0.000000 0.000000 0.101360
#
#
# Mechanical properties :
#
#
# Convention : Reuss Voigt Hill
#
# Bulk Modulus (GPa) = 27.11755 28.77194 27.94475
# Shear Modulus (GPa) = 23.04868 35.35786 29.20327
#
# Velocity S-wave (km/s) = 2.86767 3.55180 3.22791
# Velocity P-wave (km/s) = 4.54312 5.20441 4.88497
#
# Compressibility (1/GPa) = 0.03687648
#
# Stress axis : x y z
#
# Youngs Moduli (GPa) = 68.91205 68.91205 109.52373
#
# Poissons Ratio (x) = -0.01718 0.04860
# Poissons Ratio (y) = -0.01718 0.04860
# Poissons Ratio (z) = 0.03058 0.03058
#
# Static dielectric constant tensor:
#      x y z
#    x 2.412060 0.000000 0.000000 
#    y 0.000000 2.412060 0.000000 
#    z 0.000000 0.000000 2.317950 
# 
# From -- ./inp_files/1428.got.cif
#   From: 2010.05.17/outbox.cif.g08.bks.cpg/sg86_1_cif.got.tgz:1428.got - 2010.06.03 19:03:11.
