data_PCOD9544242
_publ_section_title
;
Structure prediction by ZEFSAII (Michael W. Deem and Ramdas Pophale) SiO2 
 PCOD9544242
Probable space group: P 42/M
;
_chemical_formula_sum "Si O2"
_cell_formula_units_Z 40
_cell_length_a 15.846394
_cell_length_b 15.846394
_cell_length_c 8.311211
_cell_angle_alpha 90.000000
_cell_angle_beta 90.000000
_cell_angle_gamma 90.000000
_cell_volume 2087.013257
_symmetry_space_group_name_H-M "P 42/M"
_symmetry_group_IT_number 84
_symmetry_cell_setting 'tetragonal'
loop_
_space_group_symop_operation_xyz
x,y,z
-y,x,1/2+z
-x,-y,z
y,-x,1/2+z
-x,-y,-z
y,-x,1/2-z
x,y,-z
-y,x,1/2-z
loop_
_atom_site_type_symbol
_atom_site_label
_atom_site_fract_x
_atom_site_fract_y
_atom_site_fract_z
Si Si1 0.756755 0.980407 0.194794
Si Si2 0.475308 0.255879 0.194870
Si Si3 0.663926 0.302996 0.192591
Si Si4 0.803686 0.166900 0.307757
Si Si5 0.067122 0.568365 0.303724
O O1 0.783389 0.071536 0.257749
O O2 0.809635 0.898455 0.248514
O O3 0.661111 0.960753 0.245385
O O4 0.759662 0.983881 0.000000
O O5 0.569074 0.281134 0.249902
O O6 0.396938 0.311862 0.251944
O O7 0.454836 0.160783 0.248960
O O8 0.475492 0.257236 0.000000
O O9 0.733812 0.234392 0.247982
O O10 0.663384 0.300327 0.000000
O O11 0.803504 0.173587 0.500000
O O12 0.067767 0.567466 0.500000
O O13 0.000000 0.500000 0.248269
#
# Coordination Sequence:
#
# PCOD9544242 Si02
#       5
#     8   8   8   8   8
#     4  10  21  38  60  86 118 160 204 247 301 364
#     4  10  21  39  61  86 121 163 203 249 305 362
#     4  11  23  39  63  91 122 162 205 253 304 365
#     4  11  23  40  62  88 124 163 199 254 310 360
#     4   9  16  32  59  85 111 149 199 248 296 352
#
# _framework density 19.166146999999999
#
# number of rings (size 3 to 8) (size 9 to 14) (size 15 to 20)
#    0.000    1.800    2.000    2.400    0.000    7.200 
#    0.000    4.000    0.000    2.400    0.000    0.000 
#    0.000    0.000    0.000    0.000    0.000    0.000 
#
# Total GULP energy -223360.229880 kJ/mol
# GULP energy per Si atom -5584.005747 kJ/mol
# Density = 1.912252 g / cm^3
# Si number density = 19.166147 Si / 1000 Ang^3
#
#
#
# Elastic Constant Matrix: (Units=GPa)
#
#
# Indices 1 2 3 4 5 6 
#
# 1 187.6557 105.0999 23.1952 0.0000 0.0000 0.0491
# 2 105.0999 187.6557 23.1952 0.0000 0.0000 -0.0491
# 3 23.1952 23.1952 22.4708 0.0000 0.0000 0.0000
# 4 0.0000 0.0000 0.0000 32.0661 0.0000 0.0000
# 5 0.0000 0.0000 0.0000 0.0000 32.0661 0.0000
# 6 0.0491 -0.0491 0.0000 0.0000 0.0000 46.3648
#
#
#
# Elastic Compliance Matrix: (Units=1/GPa)
#
#
# Indices 1 2 3 4 5 6 
#
# 1 0.008098 -0.004015 -0.004215 0.000000 0.000000 -0.000013
# 2 -0.004015 0.008098 -0.004215 0.000000 0.000000 0.000013
# 3 -0.004215 -0.004215 0.053205 0.000000 0.000000 0.000000
# 4 0.000000 0.000000 0.000000 0.031186 0.000000 0.000000
# 5 0.000000 0.000000 0.000000 0.000000 0.031186 0.000000
# 6 -0.000013 0.000013 0.000000 0.000000 0.000000 0.021568
#
#
# Mechanical properties :
#
#
# Convention : Reuss Voigt Hill
#
# Bulk Modulus (GPa) = 22.46649 77.86254 50.16451
# Shear Modulus (GPa) = 25.89746 38.51886 32.20816
#
# Velocity S-wave (km/s) = 3.67987 4.48787 4.10380
# Velocity P-wave (km/s) = 5.45918 8.21997 6.97748
#
# Compressibility (1/GPa) = 0.04451074
#
# Stress axis : x y z
#
# Youngs Moduli (GPa) = 123.48087 123.48087 18.79522
#
# Poissons Ratio (x) = 0.49573 0.07923
# Poissons Ratio (y) = 0.49573 0.07923
# Poissons Ratio (z) = 0.52053 0.52053
#
# Static dielectric constant tensor:
#      x y z
#    x 1.651040 0.000000 0.000000 
#    y 0.000000 1.651040 0.000000 
#    z 0.000000 0.000000 1.679530 
# 
# From -- ./inp_files/748.got.cif
#   From: 2010.05.17/outbox.cif.g08.bks.cpg/sg84_1_cif.got.tgz:748.got - 2010.06.03 18:57:40.
