data_PCOD9544379
_publ_section_title
;
Structure prediction by ZEFSAII (Michael W. Deem and Ramdas Pophale) SiO2 
 PCOD9544379
Probable space group: P 42/M
;
_chemical_formula_sum "Si O2"
_cell_formula_units_Z 34
_cell_length_a 8.799648
_cell_length_b 8.799648
_cell_length_c 23.817083
_cell_angle_alpha 90.000000
_cell_angle_beta 90.000000
_cell_angle_gamma 90.000000
_cell_volume 1844.247359
_symmetry_space_group_name_H-M "P 42/M"
_symmetry_group_IT_number 84
_symmetry_cell_setting 'tetragonal'
loop_
_space_group_symop_operation_xyz
x,y,z
-y,x,1/2+z
-x,-y,z
y,-x,1/2+z
-x,-y,-z
y,-x,1/2-z
x,y,-z
-y,x,1/2-z
loop_
_atom_site_type_symbol
_atom_site_label
_atom_site_fract_x
_atom_site_fract_y
_atom_site_fract_z
Si Si1 0.166528 0.919255 0.563606
Si Si2 0.108478 0.771863 0.835596
Si Si3 0.000000 0.000000 0.250000
Si Si4 0.661681 0.948856 0.859170
Si Si5 0.258248 0.581673 0.251279
O O1 0.221837 0.906111 0.500000
O O2 0.142501 0.760466 0.595486
O O3 0.258460 0.026564 0.605955
O O4 0.000000 0.000000 0.561967
O O5 0.169962 0.624899 0.805091
O O6 0.238934 0.901373 0.843548
O O7 0.995782 0.855985 0.791293
O O8 0.622023 0.847495 0.804436
O O9 0.500000 0.000000 0.883145
O O10 0.408874 0.686207 0.250594
#
# Coordination Sequence:
#
# PCOD9544379 Si02
#       5
#     8   8   2   8   8
#     4   9  19  34  53  80 110 141 182 232 271 308
#     4  11  18  32  54  77 107 140 179 222 271 323
#     4  12  16  28  54  80 100 132 172 226 264 316
#     4  11  20  32  54  80 106 140 185 222 268 329
#     4  11  23  35  51  81 117 144 171 221 284 337
#
# _framework density 18.435706
#
# number of rings (size 3 to 8) (size 9 to 14) (size 15 to 20)
#    0.000    1.412    8.235    0.000    0.000    0.471 
#    0.000    0.000    0.000    2.824    0.000    3.294 
#    0.000    0.000    0.000    0.000    0.000    0.000 
#
# Total GULP energy -189772.769448 kJ/mol
# GULP energy per Si atom -5581.552043 kJ/mol
# Density = 1.839375 g / cm^3
# Si number density = 18.435706 Si / 1000 Ang^3
#
#
#
# Elastic Constant Matrix: (Units=GPa)
#
#
# Indices 1 2 3 4 5 6 
#
# 1 62.5959 21.1283 38.1946 0.0000 0.0000 1.4169
# 2 21.1283 62.5959 38.1946 0.0000 0.0000 -1.4169
# 3 38.1946 38.1946 145.3060 0.0000 0.0000 0.0000
# 4 0.0000 0.0000 0.0000 10.5159 0.0000 0.0000
# 5 0.0000 0.0000 0.0000 0.0000 10.5159 0.0000
# 6 1.4169 -1.4169 0.0000 0.0000 0.0000 17.6067
#
#
#
# Elastic Compliance Matrix: (Units=1/GPa)
#
#
# Indices 1 2 3 4 5 6 
#
# 1 0.019980 -0.004268 -0.004130 0.000000 0.000000 -0.001951
# 2 -0.004268 0.019980 -0.004130 0.000000 0.000000 0.001951
# 3 -0.004130 -0.004130 0.009053 0.000000 0.000000 0.000000
# 4 0.000000 0.000000 0.000000 0.095094 0.000000 0.000000
# 5 0.000000 0.000000 0.000000 0.000000 0.095094 0.000000
# 6 -0.001951 0.001951 0.000000 0.000000 0.000000 0.057111
#
#
# Mechanical properties :
#
#
# Convention : Reuss Voigt Hill
#
# Bulk Modulus (GPa) = 41.74067 51.72585 46.73326
# Shear Modulus (GPa) = 15.18121 19.25973 17.22047
#
# Velocity S-wave (km/s) = 2.87273 3.23568 3.05959
# Velocity P-wave (km/s) = 5.80463 6.48675 6.15515
#
# Compressibility (1/GPa) = 0.02395745
#
# Stress axis : x y z
#
# Youngs Moduli (GPa) = 50.04907 50.04907 110.45764
#
# Poissons Ratio (x) = 0.21362 0.45620
# Poissons Ratio (y) = 0.21362 0.45620
# Poissons Ratio (z) = 0.20670 0.20670
#
# Static dielectric constant tensor:
#      x y z
#    x 1.655140 0.000000 0.000000 
#    y 0.000000 1.655140 0.000000 
#    z 0.000000 0.000000 1.627940 
# 
# From -- ./inp_files/4254.got.cif
#   From: 2010.05.17/outbox.cif.g08.bks.cpg/sg84_3_cif.got.tgz:4254.got - 2010.06.03 18:57:40.
