data_PCOD9544412
_publ_section_title
;
Structure prediction by ZEFSAII (Michael W. Deem and Ramdas Pophale) SiO2 
 PCOD9544412
Probable space group: P 42/M
;
_chemical_formula_sum "Si O2"
_cell_formula_units_Z 24
_cell_length_a 8.887116
_cell_length_b 8.887116
_cell_length_c 13.579254
_cell_angle_alpha 90.000000
_cell_angle_beta 90.000000
_cell_angle_gamma 90.000000
_cell_volume 1072.500763
_symmetry_space_group_name_H-M "P 42/M"
_symmetry_group_IT_number 84
_symmetry_cell_setting 'tetragonal'
loop_
_space_group_symop_operation_xyz
x,y,z
-y,x,1/2+z
-x,-y,z
y,-x,1/2+z
-x,-y,-z
y,-x,1/2-z
x,y,-z
-y,x,1/2-z
loop_
_atom_site_type_symbol
_atom_site_label
_atom_site_fract_x
_atom_site_fract_y
_atom_site_fract_z
Si Si1 0.048878 0.225409 0.788034
Si Si2 0.668569 0.061824 0.500000
Si Si3 0.665628 0.425174 0.500000
Si Si4 0.274001 0.456905 0.711009
O O1 0.008962 0.247513 0.901664
O O2 0.126459 0.376672 0.750281
O O3 0.907212 0.171187 0.725185
O O4 0.661622 0.244199 0.500000
O O5 0.500000 0.000000 0.500000
O O6 0.500000 0.500000 0.500000
O O7 0.740319 0.481695 0.600957
O O8 0.333936 0.590871 0.781106
#
# Coordination Sequence:
#
# PCOD9544412 Si02
#       4
#     8   4   4   8
#     4  11  28  48  69 104 149 190 244 298 370 443
#     4  12  28  44  78 106 141 199 243 291 379 434
#     4  12  22  39  66 111 137 180 239 302 360 423
#     4  11  22  40  69 102 143 181 241 304 356 421
#
# _framework density 22.377604999999999
#
# number of rings (size 3 to 8) (size 9 to 14) (size 15 to 20)
#    0.000    0.667    6.667    0.000    9.333    4.000 
#    0.000    1.667    0.000    0.000    0.000    0.000 
#    0.000    0.000    0.000    0.000    0.000    0.000 
#
# Total GULP energy -134442.867032 kJ/mol
# GULP energy per Si atom -5601.786126 kJ/mol
# Density = 2.232667 g / cm^3
# Si number density = 22.377605 Si / 1000 Ang^3
#
#
#
# Elastic Constant Matrix: (Units=GPa)
#
#
# Indices 1 2 3 4 5 6 
#
# 1 64.2629 40.5690 33.2275 0.0000 0.0000 13.8181
# 2 40.5690 64.2629 33.2275 0.0000 0.0000 -13.8181
# 3 33.2275 33.2275 181.0405 0.0000 0.0000 0.0000
# 4 0.0000 0.0000 0.0000 25.7824 0.0000 0.0000
# 5 0.0000 0.0000 0.0000 0.0000 25.7824 0.0000
# 6 13.8181 -13.8181 0.0000 0.0000 0.0000 66.1018
#
#
#
# Elastic Compliance Matrix: (Units=1/GPa)
#
#
# Indices 1 2 3 4 5 6 
#
# 1 0.033304 -0.022509 -0.001981 0.000000 0.000000 -0.011667
# 2 -0.022509 0.033304 -0.001981 0.000000 0.000000 0.011667
# 3 -0.001981 -0.001981 0.006251 0.000000 0.000000 0.000000
# 4 0.000000 0.000000 0.000000 0.038786 0.000000 0.000000
# 5 0.000000 0.000000 0.000000 0.000000 0.038786 0.000000
# 6 -0.011667 0.011667 0.000000 0.000000 0.000000 0.020006
#
#
# Mechanical properties :
#
#
# Convention : Reuss Voigt Hill
#
# Bulk Modulus (GPa) = 50.21120 58.17935 54.19528
# Shear Modulus (GPa) = 21.73719 37.03612 29.38666
#
# Velocity S-wave (km/s) = 3.12008 4.07265 3.62777
# Velocity P-wave (km/s) = 5.95539 6.94051 6.46674
#
# Compressibility (1/GPa) = 0.01991588
#
# Stress axis : x y z
#
# Youngs Moduli (GPa) = 30.02612 30.02612 159.97698
#
# Poissons Ratio (x) = 0.67587 0.31696
# Poissons Ratio (y) = 0.67587 0.31696
# Poissons Ratio (z) = 0.05949 0.05949
#
# Static dielectric constant tensor:
#      x y z
#    x 1.851560 0.000000 0.000000 
#    y 0.000000 1.851560 0.000000 
#    z 0.000000 0.000000 1.796690 
# 
# From -- ./inp_files/2613.got.cif
#   From: 2010.05.17/outbox.cif.g08.bks.cpg/sg84_2_cif.got.tgz:2613.got - 2010.06.03 18:57:40.
