data_PCOD9544285
_publ_section_title
;
Structure prediction by ZEFSAII (Michael W. Deem and Ramdas Pophale) SiO2 
 PCOD9544285
Probable space group: P 42/M
;
_chemical_formula_sum "Si O2"
_cell_formula_units_Z 44
_cell_length_a 8.811773
_cell_length_b 8.811773
_cell_length_c 28.047622
_cell_angle_alpha 90.000000
_cell_angle_beta 90.000000
_cell_angle_gamma 90.000000
_cell_volume 2177.823337
_symmetry_space_group_name_H-M "P 42/M"
_symmetry_group_IT_number 84
_symmetry_cell_setting 'tetragonal'
loop_
_space_group_symop_operation_xyz
x,y,z
-y,x,1/2+z
-x,-y,z
y,-x,1/2+z
-x,-y,-z
y,-x,1/2-z
x,y,-z
-y,x,1/2-z
loop_
_atom_site_type_symbol
_atom_site_label
_atom_site_fract_x
_atom_site_fract_y
_atom_site_fract_z
Si Si1 0.252897 0.505193 0.500000
Si Si2 0.821715 0.821640 0.743046
Si Si3 0.500000 0.000000 0.580632
Si Si4 0.607863 0.356458 0.681885
Si Si5 0.751162 0.484218 0.000000
Si Si6 0.191318 0.677693 0.140321
Si Si7 0.487691 0.829011 0.894091
O O1 0.391683 0.621351 0.500000
O O2 0.323783 0.335599 0.500000
O O3 0.172152 0.533418 0.449620
O O4 0.726752 0.704005 0.776324
O O5 0.769785 0.813142 0.688762
O O6 0.002296 0.792411 0.743628
O O7 0.508491 0.144577 0.546141
O O8 0.352374 0.035483 0.612666
O O9 0.500000 0.500000 0.696704
O O10 0.489777 0.244085 0.656615
O O11 0.721825 0.416436 0.641143
O O12 0.318985 0.758949 0.108927
O O13 0.500000 0.000000 0.875904
#
# Coordination Sequence:
#
# PCOD9544285 Si02
#       7
#     4   8   4   8   4   8   8
#     4  11  21  40  63  96 126 167 209 267 328 388
#     4  11  25  44  64  93 135 176 212 266 339 396
#     4  11  20  40  60 100 120 164 214 267 316 386
#     4  10  24  41  63  94 127 167 223 268 315 381
#     4  10  22  36  67  88 133 162 210 270 323 383
#     4  11  23  38  66  93 124 171 219 270 317 382
#     4  11  23  40  65  95 132 165 215 269 328 384
#
# _framework density 20.203658999999998
#
# number of rings (size 3 to 8) (size 9 to 14) (size 15 to 20)
#    0.000    1.273    1.818    3.545   10.182    0.000 
#    1.636    0.000    0.000    1.091    0.000    0.000 
#    0.000    0.000    0.000    0.000    0.000    0.000 
#
# Total GULP energy -245641.101057 kJ/mol
# GULP energy per Si atom -5582.752297 kJ/mol
# Density = 2.015767 g / cm^3
# Si number density = 20.203659 Si / 1000 Ang^3
#
#
#
# Elastic Constant Matrix: (Units=GPa)
#
#
# Indices 1 2 3 4 5 6 
#
# 1 77.4396 11.1937 22.9998 0.0000 0.0000 0.6438
# 2 11.1937 77.4396 22.9998 0.0000 0.0000 -0.6438
# 3 22.9998 22.9998 112.8625 0.0000 0.0000 0.0000
# 4 0.0000 0.0000 0.0000 27.1807 0.0000 0.0000
# 5 0.0000 0.0000 0.0000 0.0000 27.1807 0.0000
# 6 0.6438 -0.6438 0.0000 0.0000 0.0000 23.9161
#
#
#
# Elastic Compliance Matrix: (Units=1/GPa)
#
#
# Indices 1 2 3 4 5 6 
#
# 1 0.013860 -0.001243 -0.002571 0.000000 0.000000 -0.000407
# 2 -0.001243 0.013860 -0.002571 0.000000 0.000000 0.000407
# 3 -0.002571 -0.002571 0.009908 0.000000 0.000000 0.000000
# 4 0.000000 0.000000 0.000000 0.036791 0.000000 0.000000
# 5 0.000000 0.000000 0.000000 0.000000 0.036791 0.000000
# 6 -0.000407 0.000407 0.000000 0.000000 0.000000 0.041835
#
#
# Mechanical properties :
#
#
# Convention : Reuss Voigt Hill
#
# Bulk Modulus (GPa) = 40.22950 42.45871 41.34411
# Shear Modulus (GPa) = 28.71891 29.69205 29.20548
#
# Velocity S-wave (km/s) = 3.77433 3.83774 3.80617
# Velocity P-wave (km/s) = 6.24094 6.37955 6.31063
#
# Compressibility (1/GPa) = 0.02485738
#
# Stress axis : x y z
#
# Youngs Moduli (GPa) = 72.15004 72.15004 100.92579
#
# Poissons Ratio (x) = 0.08969 0.25949
# Poissons Ratio (y) = 0.08969 0.25949
# Poissons Ratio (z) = 0.18551 0.18551
#
# Static dielectric constant tensor:
#      x y z
#    x 1.721650 0.000000 0.000000 
#    y 0.000000 1.721650 0.000000 
#    z 0.000000 0.000000 1.743610 
# 
# From -- ./inp_files/5704.got.cif
#   From: 2010.05.17/outbox.cif.g08.bks.cpg/sg84_3_cif.got.tgz:5704.got - 2010.06.03 18:57:40.
