data_PCOD9544147
_publ_section_title
;
Structure prediction by ZEFSAII (Michael W. Deem and Ramdas Pophale) SiO2 
 PCOD9544147
Probable space group: P 42/M
;
_chemical_formula_sum "Si O2"
_cell_formula_units_Z 40
_cell_length_a 15.788133
_cell_length_b 15.788133
_cell_length_c 8.755027
_cell_angle_alpha 90.000000
_cell_angle_beta 90.000000
_cell_angle_gamma 90.000000
_cell_volume 2182.323063
_symmetry_space_group_name_H-M "P 42/M"
_symmetry_group_IT_number 84
_symmetry_cell_setting 'tetragonal'
loop_
_space_group_symop_operation_xyz
x,y,z
-y,x,1/2+z
-x,-y,z
y,-x,1/2+z
-x,-y,-z
y,-x,1/2-z
x,y,-z
-y,x,1/2-z
loop_
_atom_site_type_symbol
_atom_site_label
_atom_site_fract_x
_atom_site_fract_y
_atom_site_fract_z
Si Si1 0.899493 0.487428 0.167342
Si Si2 0.587819 0.601315 0.184339
Si Si3 0.717286 0.740217 0.676715
Si Si4 0.105023 0.343713 0.678867
Si Si5 0.913038 0.321434 0.324793
O O1 0.866853 0.577152 0.219520
O O2 0.890842 0.420380 0.301423
O O3 0.000000 0.500000 0.153741
O O4 0.867243 0.460587 0.000000
O O5 0.615392 0.508325 0.250425
O O6 0.653224 0.676445 0.233497
O O7 0.584126 0.597028 0.000000
O O8 0.693589 0.730229 0.500000
O O9 0.815933 0.717073 0.691917
O O10 0.716325 0.838092 0.725948
O O11 0.094803 0.368958 0.500000
O O12 0.011189 0.311478 0.725892
O O13 0.906427 0.295118 0.500000
#
# Coordination Sequence:
#
# PCOD9544147 Si02
#       5
#     8   8   8   8   8
#     4   9  17  30  51  78 107 139 176 221 274 330
#     4  11  23  41  61  83 115 156 196 238 279 329
#     4  11  23  38  58  85 113 149 192 236 284 339
#     4   9  20  37  56  78 110 146 184 230 284 338
#     4  10  20  36  56  80 110 145 184 231 285 339
#
# _framework density 18.329093
#
# number of rings (size 3 to 8) (size 9 to 14) (size 15 to 20)
#    0.000    2.000    0.000    4.200    2.800    4.800 
#    0.000    0.000    0.000    0.600    0.000    4.200 
#    0.000    0.000    0.000    0.000    0.000    0.000 
#
# Total GULP energy -222701.961979 kJ/mol
# GULP energy per Si atom -5567.549049 kJ/mol
# Density = 1.828738 g / cm^3
# Si number density = 18.329093 Si / 1000 Ang^3
#
#
#
# Elastic Constant Matrix: (Units=GPa)
#
#
# Indices 1 2 3 4 5 6 
#
# 1 76.7265 42.4896 35.0116 0.0000 0.0000 2.6969
# 2 42.4896 76.7265 35.0116 0.0000 0.0000 -2.6969
# 3 35.0116 35.0116 72.8653 0.0000 0.0000 0.0000
# 4 0.0000 0.0000 0.0000 16.0716 0.0000 0.0000
# 5 0.0000 0.0000 0.0000 0.0000 16.0716 0.0000
# 6 2.6969 -2.6969 0.0000 0.0000 0.0000 24.9431
#
#
#
# Elastic Compliance Matrix: (Units=1/GPa)
#
#
# Indices 1 2 3 4 5 6 
#
# 1 0.020700 -0.009014 -0.005615 0.000000 0.000000 -0.003213
# 2 -0.009014 0.020700 -0.005615 0.000000 0.000000 0.003213
# 3 -0.005615 -0.005615 0.019120 0.000000 0.000000 0.000000
# 4 0.000000 0.000000 0.000000 0.062222 0.000000 0.000000
# 5 0.000000 0.000000 0.000000 0.000000 0.062222 0.000000
# 6 -0.003213 0.003213 0.000000 0.000000 0.000000 0.040786
#
#
# Mechanical properties :
#
#
# Convention : Reuss Voigt Hill
#
# Bulk Modulus (GPa) = 49.92056 50.14933 50.03495
# Shear Modulus (GPa) = 18.32063 19.00429 18.66246
#
# Velocity S-wave (km/s) = 3.16498 3.22349 3.19437
# Velocity P-wave (km/s) = 6.37581 6.42452 6.40021
#
# Compressibility (1/GPa) = 0.02003182
#
# Stress axis : x y z
#
# Youngs Moduli (GPa) = 48.30834 48.30834 52.30080
#
# Poissons Ratio (x) = 0.43545 0.29368
# Poissons Ratio (y) = 0.43545 0.29368
# Poissons Ratio (z) = 0.27126 0.27126
#
# Static dielectric constant tensor:
#      x y z
#    x 1.668140 0.000000 0.000000 
#    y 0.000000 1.668140 0.000000 
#    z 0.000000 0.000000 1.646180 
# 
# From -- ./inp_files/751.got.cif
#   From: 2010.05.17/outbox.cif.g08.bks.cpg/sg84_1_cif.got.tgz:751.got - 2010.06.03 18:57:40.
