data_PCOD9544011
_publ_section_title
;
Structure prediction by ZEFSAII (Michael W. Deem and Ramdas Pophale) SiO2 
 PCOD9544011
Probable space group: P 42/M
;
_chemical_formula_sum "Si O2"
_cell_formula_units_Z 48
_cell_length_a 18.094782
_cell_length_b 18.094782
_cell_length_c 9.149958
_cell_angle_alpha 90.000000
_cell_angle_beta 90.000000
_cell_angle_gamma 90.000000
_cell_volume 2995.889639
_symmetry_space_group_name_H-M "P 42/M"
_symmetry_group_IT_number 84
_symmetry_cell_setting 'tetragonal'
loop_
_space_group_symop_operation_xyz
x,y,z
-y,x,1/2+z
-x,-y,z
y,-x,1/2+z
-x,-y,-z
y,-x,1/2-z
x,y,-z
-y,x,1/2-z
loop_
_atom_site_type_symbol
_atom_site_label
_atom_site_fract_x
_atom_site_fract_y
_atom_site_fract_z
Si Si1 0.191467 0.320549 0.166963
Si Si2 0.686016 0.810615 0.168095
Si Si3 0.083678 0.197013 0.175317
Si Si4 0.703478 0.420700 0.173821
Si Si5 0.423390 0.700999 0.172890
Si Si6 0.799920 0.910216 0.325359
O O1 0.252252 0.254641 0.166495
O O2 0.117232 0.277791 0.212733
O O3 0.224830 0.383155 0.269710
O O4 0.184404 0.347698 0.000000
O O5 0.617010 0.774689 0.251123
O O6 0.726033 0.877041 0.252255
O O7 0.669000 0.828982 0.000000
O O8 0.131627 0.135799 0.258976
O O9 0.997047 0.191973 0.205700
O O10 0.095380 0.187891 0.000000
O O11 0.633883 0.366168 0.201170
O O12 0.689741 0.500539 0.242290
O O13 0.713865 0.425259 0.000000
O O14 0.436419 0.704988 0.000000
O O15 0.796988 0.899571 0.500000
#
# Coordination Sequence:
#
# PCOD9544011 Si02
#       6
#     8   8   8   8   8   8
#     4   8  15  30  49  66  89 123 160 195 233 280
#     4   9  17  31  50  70  94 124 160 200 239 281
#     4   9  19  33  48  70  99 130 162 198 242 288
#     4  10  20  33  50  72  98 129 162 194 235 286
#     4  10  20  32  48  72  98 124 158 197 236 280
#     4  10  19  31  49  72  98 128 163 200 239 287
#
# _framework density 16.02195
#
# number of rings (size 3 to 8) (size 9 to 14) (size 15 to 20)
#    0.000    2.667    0.000    3.000    0.000    8.000 
#    0.000    3.333    0.000    1.000    0.000    7.000 
#    0.000    0.000    0.000    0.000    0.000    0.000 
#
# Total GULP energy -267496.054788 kJ/mol
# GULP energy per Si atom -5572.834475 kJ/mol
# Density = 1.598548 g / cm^3
# Si number density = 16.021950 Si / 1000 Ang^3
#
#
#
# Elastic Constant Matrix: (Units=GPa)
#
#
# Indices 1 2 3 4 5 6 
#
# 1 71.3386 78.9142 69.2860 0.0000 0.0000 0.3413
# 2 78.9142 71.3386 69.2860 0.0000 0.0000 -0.3413
# 3 69.2860 69.2860 97.1824 0.0000 0.0000 0.0000
# 4 0.0000 0.0000 0.0000 24.8736 0.0000 0.0000
# 5 0.0000 0.0000 0.0000 0.0000 24.8736 0.0000
# 6 0.3413 -0.3413 0.0000 0.0000 0.0000 12.9396
#
#
#
# Elastic Compliance Matrix: (Units=1/GPa)
#
#
# Indices 1 2 3 4 5 6 
#
# 1 -0.056128 0.075562 -0.013855 0.000000 0.000000 0.003474
# 2 0.075562 -0.056128 -0.013855 0.000000 0.000000 -0.003474
# 3 -0.013855 -0.013855 0.030046 0.000000 0.000000 0.000000
# 4 0.000000 0.000000 0.000000 0.040203 0.000000 0.000000
# 5 0.000000 0.000000 0.000000 0.000000 0.040203 0.000000
# 6 0.003474 -0.003474 0.000000 0.000000 0.000000 0.077099
#
#
# Mechanical properties :
#
#
# Convention : Reuss Voigt Hill
#
# Bulk Modulus (GPa) = 74.11531 74.98132 74.54832
# Shear Modulus (GPa) = -314.23800 14.02892 -150.10454
#
# Velocity S-wave (km/s) = -14.01982 2.96227 -9.68970
# Velocity P-wave (km/s) = 14.68724 7.65512 8.86324
#
# Compressibility (1/GPa) = 0.01349249
#
# Stress axis : x y z
#
# Youngs Moduli (GPa) = -17.81632 -17.81632 33.28264
#
# Poissons Ratio (x) = 1.34623 0.46113
# Poissons Ratio (y) = 1.34623 0.46113
# Poissons Ratio (z) = -0.24684 -0.24684
#
# Static dielectric constant tensor:
#      x y z
#    x 1.526200 0.000000 0.000000 
#    y 0.000000 1.526200 0.000000 
#    z 0.000000 0.000000 1.537930 
# 
# From -- ./inp_files/973.got.cif
#   From: 2010.05.17/outbox.cif.g08.bks.cpg/sg84_1_cif.got.tgz:973.got - 2010.06.03 18:57:40.
