data_PCOD9544551
_publ_section_title
;
Structure prediction by ZEFSAII (Michael W. Deem and Ramdas Pophale) SiO2 
 PCOD9544551
Probable space group: P 4/N
;
_chemical_formula_sum "Si O2"
_cell_formula_units_Z 32
_cell_length_a 14.259334
_cell_length_b 14.259334
_cell_length_c 7.610793
_cell_angle_alpha 90.000000
_cell_angle_beta 90.000000
_cell_angle_gamma 90.000000
_cell_volume 1547.491932
_symmetry_space_group_name_H-M "P 4/N"
_symmetry_group_IT_number 85
_symmetry_cell_setting 'tetragonal'
loop_
_space_group_symop_operation_xyz
x,y,z
1/2-y,x,z
1/2-x,1/2-y,z
y,1/2-x,z
-x,-y,-z
1/2+y,-x,-z
1/2+x,1/2+y,-z
-y,1/2+x,-z
loop_
_atom_site_type_symbol
_atom_site_label
_atom_site_fract_x
_atom_site_fract_y
_atom_site_fract_z
Si Si1 0.900540 0.983318 0.722095
Si Si2 0.441388 0.371845 0.612606
Si Si3 0.863963 0.651032 0.026656
Si Si4 0.401355 0.756035 0.524845
O O1 0.899308 0.900754 0.575555
O O2 0.811289 0.050733 0.685589
O O3 0.903889 0.939817 0.913936
O O4 0.991597 0.043903 0.677428
O O5 0.365463 0.364569 0.765118
O O6 0.512798 0.284616 0.589460
O O7 0.877592 0.758954 0.975713
O O8 0.333688 0.667085 0.565103
#
# Coordination Sequence:
#
# PCOD9544551 Si02
#       4
#     8   8   8   8
#     4  10  20  36  59  83 110 147 189 235 290 350
#     4  10  20  36  59  83 110 147 189 235 290 350
#     4  11  23  36  52  78 111 145 186 236 286 341
#     4   9  18  34  58  87 118 154 196 241 292 353
#
# _framework density 20.678622000000001
#
# number of rings (size 3 to 8) (size 9 to 14) (size 15 to 20)
#    0.000    2.000    0.000    3.750    0.000    0.000 
#    0.000    5.000    0.000    3.000    0.000   14.000 
#    0.000    0.000    0.000    0.000    0.000    0.000 
#
# Total GULP energy -178440.141279 kJ/mol
# GULP energy per Si atom -5576.254415 kJ/mol
# Density = 2.063156 g / cm^3
# Si number density = 20.678622 Si / 1000 Ang^3
#
#
#
# Elastic Constant Matrix: (Units=GPa)
#
#
# Indices 1 2 3 4 5 6 
#
# 1 54.8915 45.1600 12.7294 0.0000 0.0000 -23.6213
# 2 45.1600 54.8915 12.7294 0.0000 0.0000 23.6213
# 3 12.7294 12.7294 50.2520 0.0000 0.0000 0.0000
# 4 0.0000 0.0000 0.0000 29.6627 0.0000 0.0000
# 5 0.0000 0.0000 0.0000 0.0000 29.6627 0.0000
# 6 -23.6213 23.6213 0.0000 0.0000 0.0000 -5.8936
#
#
#
# Elastic Compliance Matrix: (Units=1/GPa)
#
#
# Indices 1 2 3 4 5 6 
#
# 1 0.007853 0.002830 -0.002706 0.000000 0.000000 -0.020133
# 2 0.002830 0.007853 -0.002706 0.000000 0.000000 0.020133
# 3 -0.002706 -0.002706 0.021271 0.000000 0.000000 0.000000
# 4 0.000000 0.000000 0.000000 0.033712 0.000000 0.000000
# 5 0.000000 0.000000 0.000000 0.000000 0.033712 0.000000
# 6 -0.020133 0.020133 0.000000 0.000000 0.000000 -0.008294
#
#
# Mechanical properties :
#
#
# Convention : Reuss Voigt Hill
#
# Bulk Modulus (GPa) = 31.43395 33.47473 32.45434
# Shear Modulus (GPa) = 44.69198 16.64742 30.66970
#
# Velocity S-wave (km/s) = 4.65398 2.84043 3.85536
# Velocity P-wave (km/s) = 6.64181 5.19428 5.96214
#
# Compressibility (1/GPa) = 0.03181274
#
# Stress axis : x y z
#
# Youngs Moduli (GPa) = 127.33458 127.33458 47.01290
#
# Poissons Ratio (x) = -0.36037 0.12723
# Poissons Ratio (y) = -0.36037 0.12723
# Poissons Ratio (z) = 0.34460 0.34460
#
# Static dielectric constant tensor:
#      x y z
#    x 1.774790 0.000000 0.000000 
#    y 0.000000 1.774790 0.000000 
#    z 0.000000 0.000000 1.710470 
# 
# From -- ./inp_files/745.got.cif
#   From: 2010.05.17/outbox.cif.g08.bks.cpg/sg85_cif.got.tgz:745.got - 2010.06.03 19:01:16.
