data_PCOD9544221
_publ_section_title
;
Structure prediction by ZEFSAII (Michael W. Deem and Ramdas Pophale) SiO2 
 PCOD9544221
Probable space group: P 42/M
;
_chemical_formula_sum "Si O2"
_cell_formula_units_Z 40
_cell_length_a 16.105911
_cell_length_b 16.105911
_cell_length_c 8.745126
_cell_angle_alpha 90.000000
_cell_angle_beta 90.000000
_cell_angle_gamma 90.000000
_cell_volume 2268.488913
_symmetry_space_group_name_H-M "P 42/M"
_symmetry_group_IT_number 84
_symmetry_cell_setting 'tetragonal'
loop_
_space_group_symop_operation_xyz
x,y,z
-y,x,1/2+z
-x,-y,z
y,-x,1/2+z
-x,-y,-z
y,-x,1/2-z
x,y,-z
-y,x,1/2-z
loop_
_atom_site_type_symbol
_atom_site_label
_atom_site_fract_x
_atom_site_fract_y
_atom_site_fract_z
Si Si1 0.279408 0.137569 0.817278
Si Si2 0.338469 0.322199 0.182752
Si Si3 0.746906 0.517049 0.682251
Si Si4 0.941872 0.114334 0.817225
Si Si5 0.546699 0.915196 0.317125
O O1 0.292266 0.235347 0.782294
O O2 0.199333 0.100150 0.735880
O O3 0.363552 0.093111 0.761481
O O4 0.271585 0.129017 0.000000
O O5 0.435030 0.306726 0.222468
O O6 0.298661 0.399585 0.267820
O O7 0.332999 0.335667 0.000000
O O8 0.759930 0.514919 0.500000
O O9 0.835457 0.505882 0.763715
O O10 0.035189 0.106582 0.751825
O O11 0.943890 0.108033 0.000000
O O12 0.557316 0.912883 0.500000
O O13 0.500000 0.000000 0.275757
#
# Coordination Sequence:
#
# PCOD9544221 Si02
#       5
#     8   8   8   8   8
#     4  10  21  38  58  82 112 145 184 227 272 326
#     4   9  20  37  55  78 109 142 178 223 270 320
#     4  10  21  36  56  81 108 142 182 224 271 323
#     4  11  22  38  59  83 112 146 184 227 276 326
#     4  10  21  37  57  81 110 144 181 224 274 325
#
# _framework density 17.632884000000001
#
# number of rings (size 3 to 8) (size 9 to 14) (size 15 to 20)
#    0.000    2.000    0.000    5.400    0.000    8.400 
#    0.000    4.000    0.000    0.000    0.000    0.000 
#    0.000    0.000    0.000    0.000    0.000    0.000 
#
# Total GULP energy -223404.490389 kJ/mol
# GULP energy per Si atom -5585.112260 kJ/mol
# Density = 1.759275 g / cm^3
# Si number density = 17.632884 Si / 1000 Ang^3
#
#
#
# Elastic Constant Matrix: (Units=GPa)
#
#
# Indices 1 2 3 4 5 6 
#
# 1 118.9312 84.5139 61.8213 0.0000 0.0000 17.9809
# 2 84.5139 118.9312 61.8213 0.0000 0.0000 -17.9809
# 3 61.8213 61.8213 95.2749 0.0000 0.0000 0.0000
# 4 0.0000 0.0000 0.0000 32.7052 0.0000 0.0000
# 5 0.0000 0.0000 0.0000 0.0000 32.7052 0.0000
# 6 17.9809 -17.9809 0.0000 0.0000 0.0000 27.3495
#
#
#
# Elastic Compliance Matrix: (Units=1/GPa)
#
#
# Indices 1 2 3 4 5 6 
#
# 1 0.050464 -0.042349 -0.005266 0.000000 0.000000 -0.061020
# 2 -0.042349 0.050464 -0.005266 0.000000 0.000000 0.061020
# 3 -0.005266 -0.005266 0.017330 0.000000 0.000000 0.000000
# 4 0.000000 0.000000 0.000000 0.030576 0.000000 0.000000
# 5 0.000000 0.000000 0.000000 0.000000 0.030576 0.000000
# 6 -0.061020 0.061020 0.000000 0.000000 0.000000 0.116798
#
#
# Mechanical properties :
#
#
# Convention : Reuss Voigt Hill
#
# Bulk Modulus (GPa) = 80.01833 83.27225 81.64529
# Shear Modulus (GPa) = 12.31112 26.88403 19.59758
#
# Velocity S-wave (km/s) = 2.64520 3.90892 3.33742
# Velocity P-wave (km/s) = 7.40325 8.22806 7.82653
#
# Compressibility (1/GPa) = 0.01249714
#
# Stress axis : x y z
#
# Youngs Moduli (GPa) = 19.81595 19.81595 57.70343
#
# Poissons Ratio (x) = 0.83918 0.30387
# Poissons Ratio (y) = 0.83918 0.30387
# Poissons Ratio (z) = 0.10435 0.10435
#
# Static dielectric constant tensor:
#      x y z
#    x 1.575470 0.000000 0.000000 
#    y 0.000000 1.575470 0.000000 
#    z 0.000000 0.000000 1.589700 
# 
# From -- ./inp_files/731.got.cif
#   From: 2010.05.17/outbox.cif.g08.bks.cpg/sg84_1_cif.got.tgz:731.got - 2010.06.03 18:57:40.
