data_PCOD9544862
_publ_section_title
;
Structure prediction by ZEFSAII (Michael W. Deem and Ramdas Pophale) SiO2 
 PCOD9544862
Probable space group: P 42/N
;
_chemical_formula_sum "Si O2"
_cell_formula_units_Z 28
_cell_length_a 9.440904
_cell_length_b 9.440904
_cell_length_c 12.536143
_cell_angle_alpha 90.000000
_cell_angle_beta 90.000000
_cell_angle_gamma 90.000000
_cell_volume 1117.354804
_symmetry_space_group_name_H-M "P 42/N"
_symmetry_group_IT_number 86
_space_group.IT_coordinate_system_code '2'
_symmetry_cell_setting 'tetragonal'
loop_
_space_group_symop_operation_xyz
x,y,z
-y,1/2+x,1/2+z
1/2-x,1/2-y,z
1/2+y,-x,1/2+z
-x,-y,-z
y,1/2-x,1/2-z
1/2+x,1/2+y,-z
1/2-y,x,1/2-z
loop_
_atom_site_type_symbol
_atom_site_label
_atom_site_fract_x
_atom_site_fract_y
_atom_site_fract_z
Si Si1 0.944462 0.439918 0.305419
Si Si2 0.750000 0.250000 0.158235
Si Si3 0.517744 0.851304 0.115795
Si Si4 0.018203 0.749785 0.502685
O O1 0.870087 0.320258 0.231223
O O2 0.004147 0.550209 0.219942
O O3 0.812658 0.521143 0.358269
O O4 0.021475 0.356612 0.401828
O O5 0.685712 0.376995 0.086172
O O6 0.659841 0.897313 0.055252
O O7 0.377642 0.884517 0.048675
#
# Coordination Sequence:
#
# PCOD9544862 Si02
#       4
#     8   4   8   8
#     4  11  20  37  64  94 127 163 216 256 319 381
#     4  10  16  32  64  84 118 162 202 254 296 378
#     4  10  21  35  64  93 125 168 211 262 316 373
#     4  10  19  37  62  95 120 163 218 257 312 382
#
# _framework density 25.059180999999999
#
# number of rings (size 3 to 8) (size 9 to 14) (size 15 to 20)
#    0.000    1.714    5.714    0.000    0.000    0.571 
#    0.000    5.714    6.286    0.857    0.000    0.000 
#    0.000    0.000    0.000    0.000    0.000    0.000 
#
# Total GULP energy -156723.670132 kJ/mol
# GULP energy per Si atom -5597.273933 kJ/mol
# Density = 2.500215 g / cm^3
# Si number density = 25.059181 Si / 1000 Ang^3
#
#
#
# Elastic Constant Matrix: (Units=GPa)
#
#
# Indices 1 2 3 4 5 6 
#
# 1 62.6426 30.4188 38.0419 0.0000 0.0000 -7.4204
# 2 30.4188 62.6426 38.0419 0.0000 0.0000 7.4204
# 3 38.0419 38.0419 143.7475 0.0000 0.0000 0.0000
# 4 0.0000 0.0000 0.0000 71.7926 0.0000 0.0000
# 5 0.0000 0.0000 0.0000 0.0000 71.7926 0.0000
# 6 -7.4204 7.4204 0.0000 0.0000 0.0000 39.8498
#
#
#
# Elastic Compliance Matrix: (Units=1/GPa)
#
#
# Indices 1 2 3 4 5 6 
#
# 1 0.023828 -0.010116 -0.003629 0.000000 0.000000 0.006321
# 2 -0.010116 0.023828 -0.003629 0.000000 0.000000 -0.006321
# 3 -0.003629 -0.003629 0.008877 0.000000 0.000000 0.000000
# 4 0.000000 0.000000 0.000000 0.013929 0.000000 0.000000
# 5 0.000000 0.000000 0.000000 0.000000 0.013929 0.000000
# 6 0.006321 -0.006321 0.000000 0.000000 0.000000 0.027448
#
#
# Mechanical properties :
#
#
# Convention : Reuss Voigt Hill
#
# Bulk Modulus (GPa) = 45.89967 53.55978 49.72973
# Shear Modulus (GPa) = 32.49932 47.52233 40.01083
#
# Velocity S-wave (km/s) = 3.60516 4.35950 4.00015
# Velocity P-wave (km/s) = 5.97376 6.83813 6.42051
#
# Compressibility (1/GPa) = 0.02178665
#
# Stress axis : x y z
#
# Youngs Moduli (GPa) = 41.96706 41.96706 112.64566
#
# Poissons Ratio (x) = 0.42453 0.40878
# Poissons Ratio (y) = 0.42453 0.40878
# Poissons Ratio (z) = 0.15230 0.15230
#
# Static dielectric constant tensor:
#      x y z
#    x 1.990850 0.000000 0.000000 
#    y 0.000000 1.990850 0.000000 
#    z 0.000000 0.000000 2.039130 
# 
# From -- ./inp_files/1781.got.cif
#   From: 2010.05.17/outbox.cif.g08.bks.cpg/sg86_1_cif.got.tgz:1781.got - 2010.06.03 19:03:11.
