data_PCOD9544071
_publ_section_title
;
Structure prediction by ZEFSAII (Michael W. Deem and Ramdas Pophale) SiO2 
 PCOD9544071
Probable space group: P 42/M
;
_chemical_formula_sum "Si O2"
_cell_formula_units_Z 32
_cell_length_a 8.822465
_cell_length_b 8.822465
_cell_length_c 19.314852
_cell_angle_alpha 90.000000
_cell_angle_beta 90.000000
_cell_angle_gamma 90.000000
_cell_volume 1503.388670
_symmetry_space_group_name_H-M "P 42/M"
_symmetry_group_IT_number 84
_symmetry_cell_setting 'tetragonal'
loop_
_space_group_symop_operation_xyz
x,y,z
-y,x,1/2+z
-x,-y,z
y,-x,1/2+z
-x,-y,-z
y,-x,1/2-z
x,y,-z
-y,x,1/2-z
loop_
_atom_site_type_symbol
_atom_site_label
_atom_site_fract_x
_atom_site_fract_y
_atom_site_fract_z
Si Si1 0.720153 0.548857 0.718535
Si Si2 0.829888 0.066105 0.576285
Si Si3 0.169077 0.568687 0.577029
Si Si4 0.234225 0.957009 0.274058
O O1 0.672047 0.411103 0.768351
O O2 0.731670 0.492273 0.640223
O O3 0.878056 0.622475 0.740514
O O4 0.769045 0.023549 0.500000
O O5 0.836473 0.248722 0.579672
O O6 0.745732 0.008520 0.644904
O O7 0.000000 0.000000 0.580708
O O8 0.224398 0.525359 0.500000
O O9 0.000000 0.500000 0.583937
O O10 0.099234 0.831971 0.267257
#
# Coordination Sequence:
#
# PCOD9544071 Si02
#       4
#     8   8   8   8
#     4  11  24  40  58  88 130 169 214 257 317 382
#     4  10  19  35  58  90 125 155 198 260 320 372
#     4  10  21  39  63  91 122 165 216 264 317 377
#     4  11  21  36  60  92 121 161 215 264 322 379
#
# _framework density 21.285247999999999
#
# number of rings (size 3 to 8) (size 9 to 14) (size 15 to 20)
#    0.000    1.500    5.000    1.500    0.000    0.000 
#    0.000    3.750    0.000    0.000    0.000    3.500 
#    0.000    0.000    0.000    0.000    0.000    0.000 
#
# Total GULP energy -178824.252838 kJ/mol
# GULP energy per Si atom -5588.257901 kJ/mol
# Density = 2.123680 g / cm^3
# Si number density = 21.285248 Si / 1000 Ang^3
#
#
#
# Elastic Constant Matrix: (Units=GPa)
#
#
# Indices 1 2 3 4 5 6 
#
# 1 38.3283 47.1878 34.8097 0.0000 0.0000 -5.0046
# 2 47.1878 38.3283 34.8097 0.0000 0.0000 5.0046
# 3 34.8097 34.8097 219.9706 0.0000 0.0000 0.0000
# 4 0.0000 0.0000 0.0000 -17.7088 0.0000 0.0000
# 5 0.0000 0.0000 0.0000 0.0000 -17.7088 0.0000
# 6 -5.0046 5.0046 0.0000 0.0000 0.0000 41.5745
#
#
#
# Elastic Compliance Matrix: (Units=1/GPa)
#
#
# Indices 1 2 3 4 5 6 
#
# 1 -0.042969 0.056392 -0.002124 0.000000 0.000000 -0.011961
# 2 0.056392 -0.042969 -0.002124 0.000000 0.000000 0.011961
# 3 -0.002124 -0.002124 0.005218 0.000000 0.000000 0.000000
# 4 0.000000 0.000000 0.000000 -0.056469 0.000000 0.000000
# 5 0.000000 0.000000 0.000000 0.000000 -0.056469 0.000000
# 6 -0.011961 0.011961 0.000000 0.000000 0.000000 0.021174
#
#
# Mechanical properties :
#
#
# Convention : Reuss Voigt Hill
#
# Bulk Modulus (GPa) = 42.43093 58.91574 50.67334
# Shear Modulus (GPa) = -18.59325 13.21939 -2.68693
#
# Velocity S-wave (km/s) = -2.95876 2.49481 -1.12476
# Velocity P-wave (km/s) = 2.88191 6.00317 4.70868
#
# Compressibility (1/GPa) = 0.02356771
#
# Stress axis : x y z
#
# Youngs Moduli (GPa) = -23.27272 -23.27272 191.63176
#
# Poissons Ratio (x) = 1.31239 0.40705
# Poissons Ratio (y) = 1.31239 0.40705
# Poissons Ratio (z) = -0.04943 -0.04943
#
# Static dielectric constant tensor:
#      x y z
#    x 1.791620 0.000000 0.000000 
#    y 0.000000 1.791620 0.000000 
#    z 0.000000 0.000000 1.779400 
# 
# From -- ./inp_files/4115.got.cif
#   From: 2010.05.17/outbox.cif.g08.bks.cpg/sg84_3_cif.got.tgz:4115.got - 2010.06.03 18:57:40.
