data_PCOD9544589
_publ_section_title
;
Structure prediction by ZEFSAII (Michael W. Deem and Ramdas Pophale) SiO2 
 PCOD9544589
Probable space group: P 4/N
;
_chemical_formula_sum "Si O2"
_cell_formula_units_Z 56
_cell_length_a 15.181498
_cell_length_b 15.181498
_cell_length_c 10.270851
_cell_angle_alpha 90.000000
_cell_angle_beta 90.000000
_cell_angle_gamma 90.000000
_cell_volume 2367.203980
_symmetry_space_group_name_H-M "P 4/N"
_symmetry_group_IT_number 85
_symmetry_cell_setting 'tetragonal'
loop_
_space_group_symop_operation_xyz
x,y,z
1/2-y,x,z
1/2-x,1/2-y,z
y,1/2-x,z
-x,-y,-z
1/2+y,-x,-z
1/2+x,1/2+y,-z
-y,1/2+x,-z
loop_
_atom_site_type_symbol
_atom_site_label
_atom_site_fract_x
_atom_site_fract_y
_atom_site_fract_z
Si Si1 0.291153 0.385609 0.568565
Si Si2 0.454292 0.904344 0.508817
Si Si3 0.845742 0.135158 0.249021
Si Si4 0.972633 0.456692 0.136150
Si Si5 0.641036 0.169383 0.237201
Si Si6 0.559495 0.856709 0.163706
Si Si7 0.837458 0.866846 0.873136
O O1 0.194092 0.355956 0.532299
O O2 0.328530 0.472725 0.506787
O O3 0.295483 0.401187 0.724248
O O4 0.390997 0.891281 0.384740
O O5 0.405288 0.878153 0.640661
O O6 0.500000 0.000000 0.500000
O O7 0.743195 0.157437 0.263979
O O8 0.884918 0.229696 0.209705
O O9 0.845854 0.046698 0.162353
O O10 0.893674 0.388764 0.118528
O O11 0.934824 0.541586 0.211156
O O12 0.057968 0.401982 0.186339
O O13 0.000000 0.500000 0.000000
O O14 0.609259 0.842820 0.027961
O O15 0.732676 0.869477 0.842574
#
# Coordination Sequence:
#
# PCOD9544589 Si02
#       7
#     8   8   8   8   8   8   8
#     4  10  22  38  61  95 128 163 208 264 317 379
#     4  11  24  38  66  93 131 173 215 264 326 390
#     4  10  24  39  67  97 127 172 214 268 329 393
#     4  10  24  41  64  92 126 167 212 269 329 381
#     4  11  23  43  63  93 132 174 218 267 324 396
#     4  10  21  37  66  93 123 159 209 269 329 377
#     4  10  22  40  64  90 120 165 213 269 326 385
#
# _framework density 23.656600999999998
#
# number of rings (size 3 to 8) (size 9 to 14) (size 15 to 20)
#    0.000    1.714    0.000    3.429   16.000    2.286 
#    0.000    0.000    0.000    8.571    0.000    0.000 
#    0.000    0.000    0.000    0.000    0.000    0.000 
#
# Total GULP energy -312830.558496 kJ/mol
# GULP energy per Si atom -5586.259973 kJ/mol
# Density = 2.360276 g / cm^3
# Si number density = 23.656601 Si / 1000 Ang^3
#
#
#
# Elastic Constant Matrix: (Units=GPa)
#
#
# Indices 1 2 3 4 5 6 
#
# 1 101.6765 26.0833 -7.4325 0.0000 0.0000 -9.5306
# 2 26.0833 101.6765 -7.4325 0.0000 0.0000 9.5306
# 3 -7.4325 -7.4325 33.1748 0.0000 0.0000 0.0000
# 4 0.0000 0.0000 0.0000 13.7605 0.0000 0.0000
# 5 0.0000 0.0000 0.0000 0.0000 13.7605 0.0000
# 6 -9.5306 9.5306 0.0000 0.0000 0.0000 43.1590
#
#
#
# Elastic Compliance Matrix: (Units=1/GPa)
#
#
# Indices 1 2 3 4 5 6 
#
# 1 0.011023 -0.002986 0.001801 0.000000 0.000000 0.003093
# 2 -0.002986 0.011023 0.001801 0.000000 0.000000 -0.003093
# 3 0.001801 0.001801 0.030950 0.000000 0.000000 0.000000
# 4 0.000000 0.000000 0.000000 0.072672 0.000000 0.000000
# 5 0.000000 0.000000 0.000000 0.000000 0.072672 0.000000
# 6 0.003093 -0.003093 0.000000 0.000000 0.000000 0.024536
#
#
# Mechanical properties :
#
#
# Convention : Reuss Voigt Hill
#
# Bulk Modulus (GPa) = 18.44145 28.77381 23.60763
# Shear Modulus (GPa) = 20.85762 29.15664 25.00713
#
# Velocity S-wave (km/s) = 2.97254 3.51450 3.25482
# Velocity P-wave (km/s) = 4.42648 5.35336 4.91183
#
# Compressibility (1/GPa) = 0.05422568
#
# Stress axis : x y z
#
# Youngs Moduli (GPa) = 90.72180 90.72180 32.31003
#
# Poissons Ratio (x) = 0.27090 -0.05818
# Poissons Ratio (y) = 0.27090 -0.05818
# Poissons Ratio (z) = -0.16335 -0.16335
#
# Static dielectric constant tensor:
#      x y z
#    x 1.927050 0.000000 0.000000 
#    y 0.000000 1.927050 0.000000 
#    z 0.000000 0.000000 1.980060 
# 
# From -- ./inp_files/1748.got.cif
#   From: 2010.05.17/outbox.cif.g08.bks.cpg/sg85_cif.got.tgz:1748.got - 2010.06.03 19:01:16.
