data_PCOD9544301
_publ_section_title
;
Structure prediction by ZEFSAII (Michael W. Deem and Ramdas Pophale) SiO2 
 PCOD9544301
Probable space group: P 42/M
;
_chemical_formula_sum "Si O2"
_cell_formula_units_Z 58
_cell_length_a 17.522356
_cell_length_b 17.522356
_cell_length_c 8.993832
_cell_angle_alpha 90.000000
_cell_angle_beta 90.000000
_cell_angle_gamma 90.000000
_cell_volume 2761.402859
_symmetry_space_group_name_H-M "P 42/M"
_symmetry_group_IT_number 84
_symmetry_cell_setting 'tetragonal'
loop_
_space_group_symop_operation_xyz
x,y,z
-y,x,1/2+z
-x,-y,z
y,-x,1/2+z
-x,-y,-z
y,-x,1/2-z
x,y,-z
-y,x,1/2-z
loop_
_atom_site_type_symbol
_atom_site_label
_atom_site_fract_x
_atom_site_fract_y
_atom_site_fract_z
Si Si1 0.837577 0.157580 0.823030
Si Si2 0.997459 0.795974 0.829812
Si Si3 0.566466 0.811598 0.168890
Si Si4 0.500000 0.500000 0.250000
Si Si5 0.396580 0.360134 0.180114
Si Si6 0.043092 0.619171 0.167563
Si Si7 0.770426 0.699384 0.176189
Si Si8 0.403548 0.892610 0.168179
O O1 0.808643 0.075068 0.772371
O O2 0.781948 0.220715 0.751384
O O3 0.925634 0.163442 0.775949
O O4 0.835168 0.166898 0.000000
O O5 0.020297 0.707558 0.834713
O O6 0.979189 0.819703 0.000000
O O7 0.567645 0.723109 0.214290
O O8 0.610267 0.871900 0.270401
O O9 0.481609 0.845328 0.165905
O O10 0.597954 0.813435 0.000000
O O11 0.437687 0.428898 0.266362
O O12 0.306980 0.346558 0.214322
O O13 0.405226 0.375301 0.000000
O O14 0.977284 0.583361 0.270141
O O15 0.039421 0.588524 0.000000
O O16 0.844152 0.652598 0.228884
O O17 0.771394 0.708806 0.000000
O O18 0.372964 0.896690 0.000000
#
# Coordination Sequence:
#
# PCOD9544301 Si02
#       8
#     8   8   8   2   8   8   8   8
#     4  11  23  40  64  92 123 165 215 260 317 386
#     4  10  23  41  60  88 125 164 208 263 320 379
#     4  10  22  40  60  88 126 166 211 264 323 391
#     4  12  22  44  72  98 132 172 226 280 332 394
#     4  10  23  42  65  93 127 171 219 271 333 390
#     4  11  22  38  61  90 126 165 207 261 322 384
#     4  11  22  39  63  92 127 168 215 268 324 386
#     4  11  22  37  60  90 124 164 209 259 320 388
#
# _framework density 21.003816
#
# number of rings (size 3 to 8) (size 9 to 14) (size 15 to 20)
#    0.000    1.379    1.379    3.931    0.000    4.690 
#    0.000    5.517    0.000    0.000    0.000    0.000 
#    0.000    0.000    0.000    0.000    0.000    0.000 
#
# Total GULP energy -323626.175367 kJ/mol
# GULP energy per Si atom -5579.761644 kJ/mol
# Density = 2.095601 g / cm^3
# Si number density = 21.003816 Si / 1000 Ang^3
#
#
#
# Elastic Constant Matrix: (Units=GPa)
#
#
# Indices 1 2 3 4 5 6 
#
# 1 101.7690 24.5817 17.3677 0.0000 0.0000 -0.7196
# 2 24.5817 101.7690 17.3677 0.0000 0.0000 0.7196
# 3 17.3677 17.3677 37.6445 0.0000 0.0000 0.0000
# 4 0.0000 0.0000 0.0000 25.7416 0.0000 0.0000
# 5 0.0000 0.0000 0.0000 0.0000 25.7416 0.0000
# 6 -0.7196 0.7196 0.0000 0.0000 0.0000 32.3263
#
#
#
# Elastic Compliance Matrix: (Units=1/GPa)
#
#
# Indices 1 2 3 4 5 6 
#
# 1 0.011012 -0.001948 -0.004182 0.000000 0.000000 0.000289
# 2 -0.001948 0.011012 -0.004182 0.000000 0.000000 -0.000289
# 3 -0.004182 -0.004182 0.030423 0.000000 0.000000 0.000000
# 4 0.000000 0.000000 0.000000 0.038848 0.000000 0.000000
# 5 0.000000 0.000000 0.000000 0.000000 0.038848 0.000000
# 6 0.000289 -0.000289 0.000000 0.000000 0.000000 0.030947
#
#
# Mechanical properties :
#
#
# Convention : Reuss Voigt Hill
#
# Bulk Modulus (GPa) = 31.42291 39.97961 35.70126
# Shear Modulus (GPa) = 25.99798 28.88627 27.44212
#
# Velocity S-wave (km/s) = 3.52202 3.71251 3.61852
# Velocity P-wave (km/s) = 5.61538 6.11986 5.87304
#
# Compressibility (1/GPa) = 0.03182391
#
# Stress axis : x y z
#
# Youngs Moduli (GPa) = 90.80592 90.80592 32.86989
#
# Poissons Ratio (x) = 0.17692 0.13746
# Poissons Ratio (y) = 0.17692 0.13746
# Poissons Ratio (z) = 0.37973 0.37973
#
# Static dielectric constant tensor:
#      x y z
#    x 1.758020 0.000000 0.000000 
#    y 0.000000 1.758020 0.000000 
#    z 0.000000 0.000000 1.772120 
# 
# From -- ./inp_files/1230.got.cif
#   From: 2010.05.17/outbox.cif.g08.bks.cpg/sg84_1_cif.got.tgz:1230.got - 2010.06.03 18:57:40.
