data_PCOD9544748
_publ_section_title
;
Structure prediction by ZEFSAII (Michael W. Deem and Ramdas Pophale) SiO2 
 PCOD9544748
Probable space group: P 4/N
;
_chemical_formula_sum "Si O2"
_cell_formula_units_Z 32
_cell_length_a 10.092599
_cell_length_b 10.092599
_cell_length_c 16.268920
_cell_angle_alpha 90.000000
_cell_angle_beta 90.000000
_cell_angle_gamma 90.000000
_cell_volume 1657.161214
_symmetry_space_group_name_H-M "P 4/N"
_symmetry_group_IT_number 85
_symmetry_cell_setting 'tetragonal'
loop_
_space_group_symop_operation_xyz
x,y,z
1/2-y,x,z
1/2-x,1/2-y,z
y,1/2-x,z
-x,-y,-z
1/2+y,-x,-z
1/2+x,1/2+y,-z
-y,1/2+x,-z
loop_
_atom_site_type_symbol
_atom_site_label
_atom_site_fract_x
_atom_site_fract_y
_atom_site_fract_z
Si Si1 0.113731 0.691194 0.862267
Si Si2 0.612200 0.402285 0.532619
Si Si3 0.303867 0.033777 0.990832
Si Si4 0.041773 0.328342 0.301544
O O1 0.250000 0.750000 0.827495
O O2 0.157891 0.571005 0.921336
O O3 0.018408 0.651618 0.788594
O O4 0.041502 0.797857 0.921703
O O5 0.500000 0.500000 0.500000
O O6 0.750203 0.425232 0.484257
O O7 0.636862 0.437672 0.627571
O O8 0.403640 0.156861 0.985196
O O9 0.085617 0.175125 0.310861
#
# Coordination Sequence:
#
# PCOD9544748 Si02
#       4
#     8   8   8   8
#     4  12  24  39  65  95 128 176 227 282 342 399
#     4  11  24  45  74 103 139 181 226 281 352 425
#     4  11  23  42  63  88 128 175 224 277 340 406
#     4  11  25  44  69  99 135 179 230 283 341 421
#
# _framework density 19.310129
#
# number of rings (size 3 to 8) (size 9 to 14) (size 15 to 20)
#    0.000    0.750    5.000    2.250    7.000    2.500 
#    0.000    0.000    0.000    0.000    0.000    0.000 
#    0.000    0.000    0.000    0.000    0.000    0.000 
#
# Total GULP energy -178941.565865 kJ/mol
# GULP energy per Si atom -5591.923933 kJ/mol
# Density = 1.926618 g / cm^3
# Si number density = 19.310129 Si / 1000 Ang^3
#
#
#
# Elastic Constant Matrix: (Units=GPa)
#
#
# Indices 1 2 3 4 5 6 
#
# 1 102.8219 55.0138 42.3799 0.0000 0.0000 -6.0077
# 2 55.0138 102.8219 42.3799 0.0000 0.0000 6.0077
# 3 42.3799 42.3799 134.3149 0.0000 0.0000 0.0000
# 4 0.0000 0.0000 0.0000 34.5382 0.0000 0.0000
# 5 0.0000 0.0000 0.0000 0.0000 34.5382 0.0000
# 6 -6.0077 6.0077 0.0000 0.0000 0.0000 32.6102
#
#
#
# Elastic Compliance Matrix: (Units=1/GPa)
#
#
# Indices 1 2 3 4 5 6 
#
# 1 0.014780 -0.007152 -0.002407 0.000000 0.000000 0.004041
# 2 -0.007152 0.014780 -0.002407 0.000000 0.000000 -0.004041
# 3 -0.002407 -0.002407 0.008964 0.000000 0.000000 0.000000
# 4 0.000000 0.000000 0.000000 0.028953 0.000000 0.000000
# 5 0.000000 0.000000 0.000000 0.000000 0.028953 0.000000
# 6 0.004041 -0.004041 0.000000 0.000000 0.000000 0.032154
#
#
# Mechanical properties :
#
#
# Convention : Reuss Voigt Hill
#
# Bulk Modulus (GPa) = 68.52639 68.83399 68.68019
# Shear Modulus (GPa) = 31.76986 33.68300 32.72643
#
# Velocity S-wave (km/s) = 4.06056 4.18103 4.12124
# Velocity P-wave (km/s) = 7.58607 7.68323 7.63481
#
# Compressibility (1/GPa) = 0.01459292
#
# Stress axis : x y z
#
# Youngs Moduli (GPa) = 67.65741 67.65741 111.55631
#
# Poissons Ratio (x) = 0.48389 0.26851
# Poissons Ratio (y) = 0.48389 0.26851
# Poissons Ratio (z) = 0.16285 0.16285
#
# Static dielectric constant tensor:
#      x y z
#    x 1.685050 0.000000 0.000000 
#    y 0.000000 1.685050 0.000000 
#    z 0.000000 0.000000 1.632540 
# 
# From -- ./inp_files/1401.got.cif
#   From: 2010.05.17/outbox.cif.g08.bks.cpg/sg85_cif.got.tgz:1401.got - 2010.06.03 19:01:16.
