data_PCOD9544429
_publ_section_title
;
Structure prediction by ZEFSAII (Michael W. Deem and Ramdas Pophale) SiO2 
 PCOD9544429
Probable space group: P 42/M
;
_chemical_formula_sum "Si O2"
_cell_formula_units_Z 40
_cell_length_a 14.423615
_cell_length_b 14.423615
_cell_length_c 9.889160
_cell_angle_alpha 90.000000
_cell_angle_beta 90.000000
_cell_angle_gamma 90.000000
_cell_volume 2057.347469
_symmetry_space_group_name_H-M "P 42/M"
_symmetry_group_IT_number 84
_symmetry_cell_setting 'tetragonal'
loop_
_space_group_symop_operation_xyz
x,y,z
-y,x,1/2+z
-x,-y,z
y,-x,1/2+z
-x,-y,-z
y,-x,1/2-z
x,y,-z
-y,x,1/2-z
loop_
_atom_site_type_symbol
_atom_site_label
_atom_site_fract_x
_atom_site_fract_y
_atom_site_fract_z
Si Si1 0.272110 0.612666 0.342165
Si Si2 0.406741 0.937698 0.159226
Si Si3 0.095926 0.734775 0.265506
Si Si4 0.079287 0.854342 0.000000
Si Si5 0.243280 0.441129 0.840826
Si Si6 0.872026 0.934317 0.000000
O O1 0.260060 0.583393 0.500000
O O2 0.179214 0.664131 0.292979
O O3 0.355652 0.685662 0.336716
O O4 0.286514 0.527490 0.240669
O O5 0.416748 0.849622 0.256942
O O6 0.500000 0.000000 0.167831
O O7 0.322229 0.001756 0.208702
O O8 0.394430 0.912895 0.000000
O O9 0.101680 0.816741 0.372621
O O10 0.098624 0.788132 0.125428
O O11 0.973814 0.891525 0.000000
O O12 0.131252 0.953365 0.000000
O O13 0.224147 0.461798 0.000000
#
# Coordination Sequence:
#
# PCOD9544429 Si02
#       6
#     8   8   8   4   8   4
#     4  11  25  48  68 100 136 177 222 276 345 408
#     4  11  23  41  66  98 135 179 218 272 343 398
#     4  12  24  41  70  97 133 181 230 275 336 401
#     4  11  28  40  65  98 138 179 230 287 319 392
#     4  11  27  44  73 102 135 174 224 285 335 400
#     4  11  24  48  61  92 140 187 228 267 343 398
#
# _framework density 19.442509000000001
#
# number of rings (size 3 to 8) (size 9 to 14) (size 15 to 20)
#    0.000    0.800    4.000    1.800    8.400    4.000 
#    0.000    2.000    0.000    0.000    0.000    0.000 
#    0.000    0.000    0.000    0.000    0.000    0.000 
#
# Total GULP energy -223604.613146 kJ/mol
# GULP energy per Si atom -5590.115329 kJ/mol
# Density = 1.939826 g / cm^3
# Si number density = 19.442509 Si / 1000 Ang^3
#
#
#
# Elastic Constant Matrix: (Units=GPa)
#
#
# Indices 1 2 3 4 5 6 
#
# 1 70.2471 21.0907 49.0215 0.0000 0.0000 0.9718
# 2 21.0907 70.2471 49.0215 0.0000 0.0000 -0.9718
# 3 49.0215 49.0215 195.6409 0.0000 0.0000 0.0000
# 4 0.0000 0.0000 0.0000 37.9311 0.0000 0.0000
# 5 0.0000 0.0000 0.0000 0.0000 37.9311 0.0000
# 6 0.9718 -0.9718 0.0000 0.0000 0.0000 33.3746
#
#
#
# Elastic Compliance Matrix: (Units=1/GPa)
#
#
# Indices 1 2 3 4 5 6 
#
# 1 0.017672 -0.002695 -0.003753 0.000000 0.000000 -0.000593
# 2 -0.002695 0.017672 -0.003753 0.000000 0.000000 0.000593
# 3 -0.003753 -0.003753 0.006992 0.000000 0.000000 0.000000
# 4 0.000000 0.000000 0.000000 0.026364 0.000000 0.000000
# 5 0.000000 0.000000 0.000000 0.000000 0.026364 0.000000
# 6 -0.000593 0.000593 0.000000 0.000000 0.000000 0.029997
#
#
# Mechanical properties :
#
#
# Convention : Reuss Voigt Hill
#
# Bulk Modulus (GPa) = 45.59042 63.82247 54.70645
# Shear Modulus (GPa) = 32.72851 36.31412 34.52131
#
# Velocity S-wave (km/s) = 4.10731 4.32646 4.21831
# Velocity P-wave (km/s) = 6.78182 7.60626 7.20584
#
# Compressibility (1/GPa) = 0.02193443
#
# Stress axis : x y z
#
# Youngs Moduli (GPa) = 56.58801 56.58801 143.02070
#
# Poissons Ratio (x) = 0.15251 0.53671
# Poissons Ratio (y) = 0.15251 0.53671
# Poissons Ratio (z) = 0.21235 0.21235
#
# Static dielectric constant tensor:
#      x y z
#    x 1.676350 0.000000 0.000000 
#    y 0.000000 1.676350 0.000000 
#    z 0.000000 0.000000 1.636610 
# 
# From -- ./inp_files/837.got.cif
#   From: 2010.05.17/outbox.cif.g08.bks.cpg/sg84_1_cif.got.tgz:837.got - 2010.06.03 18:57:40.
