data_PCOD9544108
_publ_section_title
;
Structure prediction by ZEFSAII (Michael W. Deem and Ramdas Pophale) SiO2 
 PCOD9544108
Probable space group: P 42/M
;
_chemical_formula_sum "Si O2"
_cell_formula_units_Z 40
_cell_length_a 16.331015
_cell_length_b 16.331015
_cell_length_c 7.875719
_cell_angle_alpha 90.000000
_cell_angle_beta 90.000000
_cell_angle_gamma 90.000000
_cell_volume 2100.470410
_symmetry_space_group_name_H-M "P 42/M"
_symmetry_group_IT_number 84
_symmetry_cell_setting 'tetragonal'
loop_
_space_group_symop_operation_xyz
x,y,z
-y,x,1/2+z
-x,-y,z
y,-x,1/2+z
-x,-y,-z
y,-x,1/2-z
x,y,-z
-y,x,1/2-z
loop_
_atom_site_type_symbol
_atom_site_label
_atom_site_fract_x
_atom_site_fract_y
_atom_site_fract_z
Si Si1 0.418367 0.043967 0.704197
Si Si2 0.015444 0.241667 0.204738
Si Si3 0.781131 0.359164 0.705129
Si Si4 0.181926 0.159350 0.795390
Si Si5 0.570538 0.609187 0.198238
O O1 0.418116 0.035894 0.500000
O O2 0.333821 0.003089 0.768023
O O3 0.500000 0.000000 0.769435
O O4 0.412640 0.140130 0.744650
O O5 0.100014 0.203159 0.268400
O O6 0.936101 0.187996 0.249480
O O7 0.020150 0.245562 0.000000
O O8 0.778539 0.357963 0.500000
O O9 0.798981 0.266487 0.765581
O O10 0.694688 0.394492 0.765937
O O11 0.181955 0.165124 0.000000
O O12 0.605115 0.527730 0.285561
O O13 0.592128 0.602523 0.000000
#
# Coordination Sequence:
#
# PCOD9544108 Si02
#       5
#     8   8   8   8   8
#     4   9  18  32  51  74  98 126 161 200 241 285
#     4   9  18  32  49  70  95 123 158 196 234 281
#     4   9  19  34  51  72  98 129 162 197 241 289
#     4   9  18  33  50  68  95 127 157 194 238 283
#     4  10  20  34  52  74 100 130 164 201 243 291
#
# _framework density 19.043353
#
# number of rings (size 3 to 8) (size 9 to 14) (size 15 to 20)
#    0.000    2.800    0.000    1.200    0.000    4.800 
#    0.000    6.000    0.000    0.000    0.000    0.000 
#    0.000    0.000    0.000    0.000    0.000    0.000 
#
# Total GULP energy -223081.393193 kJ/mol
# GULP energy per Si atom -5577.034830 kJ/mol
# Density = 1.900001 g / cm^3
# Si number density = 19.043353 Si / 1000 Ang^3
#
#
#
# Elastic Constant Matrix: (Units=GPa)
#
#
# Indices 1 2 3 4 5 6 
#
# 1 134.5948 92.4780 -2.5522 0.0000 0.0000 -19.3570
# 2 92.4780 134.5948 -2.5522 0.0000 0.0000 19.3570
# 3 -2.5522 -2.5522 19.1504 0.0000 0.0000 0.0000
# 4 0.0000 0.0000 0.0000 14.5493 0.0000 0.0000
# 5 0.0000 0.0000 0.0000 0.0000 14.5493 0.0000
# 6 -19.3570 19.3570 0.0000 0.0000 0.0000 31.5677
#
#
#
# Elastic Compliance Matrix: (Units=1/GPa)
#
#
# Indices 1 2 3 4 5 6 
#
# 1 0.029415 -0.024998 0.000589 0.000000 0.000000 0.033366
# 2 -0.024998 0.029415 0.000589 0.000000 0.000000 -0.033366
# 3 0.000589 0.000589 0.052375 0.000000 0.000000 0.000000
# 4 0.000000 0.000000 0.000000 0.068732 0.000000 0.000000
# 5 0.000000 0.000000 0.000000 0.000000 0.068732 0.000000
# 6 0.033366 -0.033366 0.000000 0.000000 0.000000 0.072597
#
#
# Mechanical properties :
#
#
# Convention : Reuss Voigt Hill
#
# Bulk Modulus (GPa) = 15.73215 51.45414 33.59314
# Shear Modulus (GPa) = 12.81732 25.53100 19.17416
#
# Velocity S-wave (km/s) = 2.59715 3.66550 3.17656
# Velocity P-wave (km/s) = 4.15605 6.70766 5.57967
#
# Compressibility (1/GPa) = 0.06356411
#
# Stress axis : x y z
#
# Youngs Moduli (GPa) = 33.99579 33.99579 19.09299
#
# Poissons Ratio (x) = 0.84984 -0.01124
# Poissons Ratio (y) = 0.84984 -0.01124
# Poissons Ratio (z) = -0.02001 -0.02001
#
# Static dielectric constant tensor:
#      x y z
#    x 1.649700 0.000000 0.000000 
#    y 0.000000 1.649700 0.000000 
#    z 0.000000 0.000000 1.693500 
# 
# From -- ./inp_files/738.got.cif
#   From: 2010.05.17/outbox.cif.g08.bks.cpg/sg84_1_cif.got.tgz:738.got - 2010.06.03 18:57:40.
