data_PCOD9544811
_publ_section_title
;
Structure prediction by ZEFSAII (Michael W. Deem and Ramdas Pophale) SiO2 
 PCOD9544811
Probable space group: P 4/N
;
_chemical_formula_sum "Si O2"
_cell_formula_units_Z 16
_cell_length_a 7.368629
_cell_length_b 7.368629
_cell_length_c 10.004029
_cell_angle_alpha 90.000000
_cell_angle_beta 90.000000
_cell_angle_gamma 90.000000
_cell_volume 543.185695
_symmetry_space_group_name_H-M "P 4/N"
_symmetry_group_IT_number 85
_symmetry_cell_setting 'tetragonal'
loop_
_space_group_symop_operation_xyz
x,y,z
1/2-y,x,z
1/2-x,1/2-y,z
y,1/2-x,z
-x,-y,-z
1/2+y,-x,-z
1/2+x,1/2+y,-z
-y,1/2+x,-z
loop_
_atom_site_type_symbol
_atom_site_label
_atom_site_fract_x
_atom_site_fract_y
_atom_site_fract_z
Si Si1 0.544042 0.154697 0.921720
Si Si2 0.448222 0.026096 0.346083
O O1 0.750000 0.250000 0.884729
O O2 0.477921 0.096742 0.773214
O O3 0.477723 0.350322 0.994253
O O4 0.493262 0.234675 0.326928
O O5 0.500000 0.000000 0.500000
#
# Coordination Sequence:
#
# PCOD9544811 Si02
#       2
#     8   8
#     4  11  24  43  71 102 138 184 236 295 355 422
#     4  11  26  46  69 103 144 187 234 295 363 431
#
# _framework density 29.455852
#
# number of rings (size 3 to 8) (size 9 to 14) (size 15 to 20)
#    0.000    1.000    5.000    0.000    7.000    2.000 
#    0.000    0.000    0.000    0.000    0.000    0.000 
#    0.000    0.000    0.000    0.000    0.000    0.000 
#
# Total GULP energy -89244.838298 kJ/mol
# GULP energy per Si atom -5577.802394 kJ/mol
# Density = 2.938881 g / cm^3
# Si number density = 29.455852 Si / 1000 Ang^3
#
#
#
# Elastic Constant Matrix: (Units=GPa)
#
#
# Indices 1 2 3 4 5 6 
#
# 1 231.4161 129.5898 109.5598 0.0000 0.0000 5.3524
# 2 129.5898 231.4161 109.5598 0.0000 0.0000 -5.3524
# 3 109.5598 109.5598 320.7423 0.0000 0.0000 0.0000
# 4 0.0000 0.0000 0.0000 63.6633 0.0000 0.0000
# 5 0.0000 0.0000 0.0000 0.0000 63.6633 0.0000
# 6 5.3524 -5.3524 0.0000 0.0000 0.0000 51.6589
#
#
#
# Elastic Compliance Matrix: (Units=1/GPa)
#
#
# Indices 1 2 3 4 5 6 
#
# 1 0.006712 -0.003217 -0.001194 0.000000 0.000000 -0.001029
# 2 -0.003217 0.006712 -0.001194 0.000000 0.000000 0.001029
# 3 -0.001194 -0.001194 0.003933 0.000000 0.000000 0.000000
# 4 0.000000 0.000000 0.000000 0.015708 0.000000 0.000000
# 5 0.000000 0.000000 0.000000 0.000000 0.015708 0.000000
# 6 -0.001029 0.001029 0.000000 0.000000 0.000000 0.019571
#
#
# Mechanical properties :
#
#
# Convention : Reuss Voigt Hill
#
# Bulk Modulus (GPa) = 162.66364 164.55483 163.60923
# Shear Modulus (GPa) = 61.27379 64.78812 63.03095
#
# Velocity S-wave (km/s) = 4.56586 4.69497 4.63086
# Velocity P-wave (km/s) = 9.11805 9.23994 9.17920
#
# Compressibility (1/GPa) = 0.00614766
#
# Stress axis : x y z
#
# Youngs Moduli (GPa) = 148.99401 148.99401 254.24278
#
# Poissons Ratio (x) = 0.47933 0.30348
# Poissons Ratio (y) = 0.47933 0.30348
# Poissons Ratio (z) = 0.17785 0.17785
#
# Static dielectric constant tensor:
#      x y z
#    x 2.797510 0.000000 0.000000 
#    y 0.000000 2.797510 0.000000 
#    z 0.000000 0.000000 2.402120 
# 
# From -- ./inp_files/63.got.cif
#   From: 2010.05.17/outbox.cif.g08.bks.cpg/sg85_cif.got.tgz:63.got - 2010.06.03 19:01:16.
