data_PCOD9544327
_publ_section_title
;
Structure prediction by ZEFSAII (Michael W. Deem and Ramdas Pophale) SiO2 
 PCOD9544327
Probable space group: P 42/M
;
_chemical_formula_sum "Si O2"
_cell_formula_units_Z 48
_cell_length_a 8.515398
_cell_length_b 8.515398
_cell_length_c 31.721373
_cell_angle_alpha 90.000000
_cell_angle_beta 90.000000
_cell_angle_gamma 90.000000
_cell_volume 2300.180297
_symmetry_space_group_name_H-M "P 42/M"
_symmetry_group_IT_number 84
_symmetry_cell_setting 'tetragonal'
loop_
_space_group_symop_operation_xyz
x,y,z
-y,x,1/2+z
-x,-y,z
y,-x,1/2+z
-x,-y,-z
y,-x,1/2-z
x,y,-z
-y,x,1/2-z
loop_
_atom_site_type_symbol
_atom_site_label
_atom_site_fract_x
_atom_site_fract_y
_atom_site_fract_z
Si Si1 0.662746 0.420584 0.119291
Si Si2 0.369671 0.894078 0.323651
Si Si3 0.338467 0.907697 0.837922
Si Si4 0.417984 0.828966 0.450769
Si Si5 0.286395 0.341612 0.253404
Si Si6 0.890238 0.866237 0.109995
O O1 0.500000 0.500000 0.130904
O O2 0.785977 0.519242 0.147277
O O3 0.648961 0.238333 0.129658
O O4 0.709050 0.463108 0.071709
O O5 0.278962 0.797887 0.288404
O O6 0.248973 0.975005 0.355921
O O7 0.500000 0.000000 0.301542
O O8 0.295918 0.815462 0.794363
O O9 0.500000 0.000000 0.829994
O O10 0.229963 0.036575 0.860905
O O11 0.394683 0.799089 0.500000
O O12 0.253369 0.825667 0.425071
O O13 0.500000 0.000000 0.445823
O O14 0.291595 0.531681 0.247672
O O15 0.000000 0.000000 0.090759
#
# Coordination Sequence:
#
# PCOD9544327 Si02
#       6
#     8   8   8   8   8   8
#     4  11  21  40  65  90 127 172 217 264 322 393
#     4  11  22  39  61  85 122 175 221 266 317 390
#     4  12  23  38  60  93 126 169 217 271 334 383
#     4  10  22  43  72  99 125 167 219 263 321 411
#     4  11  22  38  62  88 119 167 230 278 311 375
#     4  11  23  40  61  93 134 165 205 268 339 393
#
# _framework density 20.867930000000001
#
# number of rings (size 3 to 8) (size 9 to 14) (size 15 to 20)
#    0.000    1.000    1.667    8.500    0.000    0.667 
#    0.000    0.833    0.000    2.000    0.000    0.000 
#    0.000    0.000    0.000    0.000    0.000    0.000 
#
# Total GULP energy -267941.026225 kJ/mol
# GULP energy per Si atom -5582.104713 kJ/mol
# Density = 2.082043 g / cm^3
# Si number density = 20.867930 Si / 1000 Ang^3
#
#
#
# Elastic Constant Matrix: (Units=GPa)
#
#
# Indices 1 2 3 4 5 6 
#
# 1 71.1846 23.8106 34.3259 0.0000 0.0000 -5.4661
# 2 23.8106 71.1846 34.3259 0.0000 0.0000 5.4661
# 3 34.3259 34.3259 128.3280 0.0000 0.0000 0.0000
# 4 0.0000 0.0000 0.0000 27.8725 0.0000 0.0000
# 5 0.0000 0.0000 0.0000 0.0000 27.8725 0.0000
# 6 -5.4661 5.4661 0.0000 0.0000 0.0000 37.4625
#
#
#
# Elastic Compliance Matrix: (Units=1/GPa)
#
#
# Indices 1 2 3 4 5 6 
#
# 1 0.017447 -0.004397 -0.003491 0.000000 0.000000 0.003187
# 2 -0.004397 0.017447 -0.003491 0.000000 0.000000 -0.003187
# 3 -0.003491 -0.003491 0.009660 0.000000 0.000000 0.000000
# 4 0.000000 0.000000 0.000000 0.035878 0.000000 0.000000
# 5 0.000000 0.000000 0.000000 0.000000 0.035878 0.000000
# 6 0.003187 -0.003187 0.000000 0.000000 0.000000 0.027623
#
#
# Mechanical properties :
#
#
# Convention : Reuss Voigt Hill
#
# Bulk Modulus (GPa) = 45.87881 50.62469 48.25175
# Shear Modulus (GPa) = 28.74312 30.52380 29.63346
#
# Velocity S-wave (km/s) = 3.71534 3.82869 3.77244
# Velocity P-wave (km/s) = 6.35909 6.62249 6.49213
#
# Compressibility (1/GPa) = 0.02179656
#
# Stress axis : x y z
#
# Youngs Moduli (GPa) = 57.31721 57.31721 103.52108
#
# Poissons Ratio (x) = 0.25204 0.36134
# Poissons Ratio (y) = 0.25204 0.36134
# Poissons Ratio (z) = 0.20007 0.20007
#
# Static dielectric constant tensor:
#      x y z
#    x 1.799690 0.000000 0.000000 
#    y 0.000000 1.799690 0.000000 
#    z 0.000000 0.000000 1.740700 
# 
# From -- ./inp_files/5826.got.cif
#   From: 2010.05.17/outbox.cif.g08.bks.cpg/sg84_3_cif.got.tgz:5826.got - 2010.06.03 18:57:40.
