data_PCOD9544088
_publ_section_title
;
Structure prediction by ZEFSAII (Michael W. Deem and Ramdas Pophale) SiO2 
 PCOD9544088
Probable space group: P 42/M
;
_chemical_formula_sum "Si O2"
_cell_formula_units_Z 32
_cell_length_a 8.594305
_cell_length_b 8.594305
_cell_length_c 19.451715
_cell_angle_alpha 90.000000
_cell_angle_beta 90.000000
_cell_angle_gamma 90.000000
_cell_volume 1436.744099
_symmetry_space_group_name_H-M "P 42/M"
_symmetry_group_IT_number 84
_symmetry_cell_setting 'tetragonal'
loop_
_space_group_symop_operation_xyz
x,y,z
-y,x,1/2+z
-x,-y,z
y,-x,1/2+z
-x,-y,-z
y,-x,1/2-z
x,y,-z
-y,x,1/2-z
loop_
_atom_site_type_symbol
_atom_site_label
_atom_site_fract_x
_atom_site_fract_y
_atom_site_fract_z
Si Si1 0.415063 0.666538 0.500000
Si Si2 0.819077 0.995656 0.144879
Si Si3 0.698399 0.642061 0.850352
Si Si4 0.959933 0.320638 0.500000
Si Si5 0.432686 0.823553 0.207545
O O1 0.500000 0.500000 0.500000
O O2 0.441876 0.732899 0.422755
O O3 0.227005 0.674416 0.500000
O O4 0.743526 0.134345 0.189122
O O5 0.772569 0.815036 0.156271
O O6 0.000000 0.000000 0.152543
O O7 0.761779 0.024344 0.067247
O O8 0.760485 0.549188 0.784567
O O9 0.517285 0.695901 0.840702
O O10 0.000000 0.500000 0.500000
O O11 0.500000 0.000000 0.198636
#
# Coordination Sequence:
#
# PCOD9544088 Si02
#       5
#     4   8   8   4   8
#     4  10  22  39  61  89 121 168 208 257 312 383
#     4  10  21  36  65  95 127 169 211 266 321 376
#     4  10  23  40  62  88 128 164 216 264 327 390
#     4  10  19  41  62  95 134 166 219 255 309 397
#     4  10  23  39  61  95 125 166 213 269 325 390
#
# _framework density 22.272582
#
# number of rings (size 3 to 8) (size 9 to 14) (size 15 to 20)
#    0.000    2.000    0.000    4.125   10.500    0.000 
#    0.000    0.625    0.000    0.000    0.000    0.000 
#    0.000    0.000    0.000    0.000    0.000    0.000 
#
# Total GULP energy -178414.642221 kJ/mol
# GULP energy per Si atom -5575.457569 kJ/mol
# Density = 2.222189 g / cm^3
# Si number density = 22.272582 Si / 1000 Ang^3
#
#
#
# Elastic Constant Matrix: (Units=GPa)
#
#
# Indices 1 2 3 4 5 6 
#
# 1 59.4909 -4.9058 5.9159 0.0000 0.0000 -10.8758
# 2 -4.9058 59.4909 5.9159 0.0000 0.0000 10.8758
# 3 5.9159 5.9159 129.3206 0.0000 0.0000 0.0000
# 4 0.0000 0.0000 0.0000 29.2204 0.0000 0.0000
# 5 0.0000 0.0000 0.0000 0.0000 29.2204 0.0000
# 6 -10.8758 10.8758 0.0000 0.0000 0.0000 13.7487
#
#
#
# Elastic Compliance Matrix: (Units=1/GPa)
#
#
# Indices 1 2 3 4 5 6 
#
# 1 0.019847 -0.001344 -0.000846 0.000000 0.000000 0.016763
# 2 -0.001344 0.019847 -0.000846 0.000000 0.000000 -0.016763
# 3 -0.000846 -0.000846 0.007810 0.000000 0.000000 0.000000
# 4 0.000000 0.000000 0.000000 0.034223 0.000000 0.000000
# 5 0.000000 0.000000 0.000000 0.000000 0.034223 0.000000
# 6 0.016763 -0.016763 0.000000 0.000000 0.000000 0.099255
#
#
# Mechanical properties :
#
#
# Convention : Reuss Voigt Hill
#
# Bulk Modulus (GPa) = 24.13632 29.12826 26.63229
# Shear Modulus (GPa) = 21.26862 30.52966 25.89914
#
# Velocity S-wave (km/s) = 3.09354 3.70635 3.41372
# Velocity P-wave (km/s) = 4.86007 5.60558 5.24608
#
# Compressibility (1/GPa) = 0.04143134
#
# Stress axis : x y z
#
# Youngs Moduli (GPa) = 50.38499 50.38499 128.03829
#
# Poissons Ratio (x) = 0.06770 0.10838
# Poissons Ratio (y) = 0.06770 0.10838
# Poissons Ratio (z) = 0.04265 0.04265
#
# Static dielectric constant tensor:
#      x y z
#    x 1.859600 0.000000 0.000000 
#    y 0.000000 1.859600 0.000000 
#    z 0.000000 0.000000 1.894320 
# 
# From -- ./inp_files/4154.got.cif
#   From: 2010.05.17/outbox.cif.g08.bks.cpg/sg84_3_cif.got.tgz:4154.got - 2010.06.03 18:57:40.
