data_PCOD9544636
_publ_section_title
;
Structure prediction by ZEFSAII (Michael W. Deem and Ramdas Pophale) SiO2 
 PCOD9544636
Probable space group: P 4/N
;
_chemical_formula_sum "Si O2"
_cell_formula_units_Z 24
_cell_length_a 13.217691
_cell_length_b 13.217691
_cell_length_c 5.256619
_cell_angle_alpha 90.000000
_cell_angle_beta 90.000000
_cell_angle_gamma 90.000000
_cell_volume 918.370004
_symmetry_space_group_name_H-M "P 4/N"
_symmetry_group_IT_number 85
_symmetry_cell_setting 'tetragonal'
loop_
_space_group_symop_operation_xyz
x,y,z
1/2-y,x,z
1/2-x,1/2-y,z
y,1/2-x,z
-x,-y,-z
1/2+y,-x,-z
1/2+x,1/2+y,-z
-y,1/2+x,-z
loop_
_atom_site_type_symbol
_atom_site_label
_atom_site_fract_x
_atom_site_fract_y
_atom_site_fract_z
Si Si1 0.790843 0.029101 0.697765
Si Si2 0.377006 0.145129 0.649054
Si Si3 0.602983 0.419629 0.200576
O O1 0.816844 0.085254 0.433986
O O2 0.672078 0.029059 0.748663
O O3 0.837078 0.917495 0.641564
O O4 0.843181 0.084468 0.931171
O O5 0.386178 0.264583 0.723394
O O6 0.462109 0.071549 0.766082
#
# Coordination Sequence:
#
# PCOD9544636 Si02
#       3
#     8   8   8
#     4  10  22  39  63  92 123 160 204 253 308 363
#     4   9  22  44  65  88 124 168 209 252 308 369
#     4  10  22  39  63  92 123 160 204 253 308 363
#
# _framework density 26.133257
#
# number of rings (size 3 to 8) (size 9 to 14) (size 15 to 20)
#    2.000    0.333    0.000    2.000    0.000    8.000 
#    0.000    6.667    0.000    0.000    0.000    0.000 
#    0.000    0.000    0.000    0.000    0.000    0.000 
#
# Total GULP energy -133755.913241 kJ/mol
# GULP energy per Si atom -5573.163052 kJ/mol
# Density = 2.607378 g / cm^3
# Si number density = 26.133257 Si / 1000 Ang^3
#
#
#
# Elastic Constant Matrix: (Units=GPa)
#
#
# Indices 1 2 3 4 5 6 
#
# 1 128.9047 51.1168 18.3852 0.0000 0.0000 -14.8778
# 2 51.1168 128.9047 18.3852 0.0000 0.0000 14.8778
# 3 18.3852 18.3852 114.3512 0.0000 0.0000 0.0000
# 4 0.0000 0.0000 0.0000 18.3477 0.0000 0.0000
# 5 0.0000 0.0000 0.0000 0.0000 18.3477 0.0000
# 6 -14.8778 14.8778 0.0000 0.0000 0.0000 35.5536
#
#
#
# Elastic Compliance Matrix: (Units=1/GPa)
#
#
# Indices 1 2 3 4 5 6 
#
# 1 0.010524 -0.004781 -0.000923 0.000000 0.000000 0.006405
# 2 -0.004781 0.010524 -0.000923 0.000000 0.000000 -0.006405
# 3 -0.000923 -0.000923 0.009042 0.000000 0.000000 0.000000
# 4 0.000000 0.000000 0.000000 0.054503 0.000000 0.000000
# 5 0.000000 0.000000 0.000000 0.000000 0.054503 0.000000
# 6 0.006405 -0.006405 0.000000 0.000000 0.000000 0.033487
#
#
# Mechanical properties :
#
#
# Convention : Reuss Voigt Hill
#
# Bulk Modulus (GPa) = 59.39932 60.88168 60.14050
# Shear Modulus (GPa) = 26.11641 33.40135 29.75888
#
# Velocity S-wave (km/s) = 3.16469 3.57895 3.37818
# Velocity P-wave (km/s) = 6.01102 6.35813 6.18701
#
# Compressibility (1/GPa) = 0.01683521
#
# Stress axis : x y z
#
# Youngs Moduli (GPa) = 95.01686 95.01686 110.59587
#
# Poissons Ratio (x) = 0.45427 0.10213
# Poissons Ratio (y) = 0.45427 0.10213
# Poissons Ratio (z) = 0.08774 0.08774
#
# Static dielectric constant tensor:
#      x y z
#    x 2.072840 0.000000 0.000000 
#    y 0.000000 2.072840 0.000000 
#    z 0.000000 0.000000 2.123150 
# 
# From -- ./inp_files/114.got.cif
#   From: 2010.05.17/outbox.cif.g08.bks.cpg/sg85_cif.got.tgz:114.got - 2010.06.03 19:01:16.
