data_PCOD9544152
_publ_section_title
;
Structure prediction by ZEFSAII (Michael W. Deem and Ramdas Pophale) SiO2 
 PCOD9544152
Probable space group: P 42/M
;
_chemical_formula_sum "Si O2"
_cell_formula_units_Z 58
_cell_length_a 18.159754
_cell_length_b 18.159754
_cell_length_c 9.384997
_cell_angle_alpha 90.000000
_cell_angle_beta 90.000000
_cell_angle_gamma 90.000000
_cell_volume 3094.953015
_symmetry_space_group_name_H-M "P 42/M"
_symmetry_group_IT_number 84
_symmetry_cell_setting 'tetragonal'
loop_
_space_group_symop_operation_xyz
x,y,z
-y,x,1/2+z
-x,-y,z
y,-x,1/2+z
-x,-y,-z
y,-x,1/2-z
x,y,-z
-y,x,1/2-z
loop_
_atom_site_type_symbol
_atom_site_label
_atom_site_fract_x
_atom_site_fract_y
_atom_site_fract_z
Si Si1 0.361250 0.410171 0.338366
Si Si2 0.631154 0.736888 0.164276
Si Si3 0.672070 0.961069 0.827336
Si Si4 0.828574 0.221492 0.661937
Si Si5 0.130479 0.553688 0.170372
Si Si6 0.122394 0.271781 0.666433
Si Si7 0.806667 0.572779 0.334507
Si Si8 0.500000 0.500000 0.750000
O O1 0.357204 0.380502 0.500000
O O2 0.374286 0.344129 0.228430
O O3 0.279949 0.442674 0.307450
O O4 0.428619 0.467245 0.330387
O O5 0.259802 0.604451 0.500000
O O6 0.715001 0.765934 0.162298
O O7 0.590664 0.795173 0.265859
O O8 0.735829 0.901996 0.790121
O O9 0.599216 0.935139 0.744528
O O10 0.699112 0.042254 0.789466
O O11 0.659837 0.956295 0.000000
O O12 0.840581 0.197722 0.500000
O O13 0.797840 0.154633 0.752446
O O14 0.139717 0.471601 0.230678
O O15 0.127037 0.556981 0.000000
O O16 0.117693 0.254121 0.500000
O O17 0.177723 0.340833 0.682288
O O18 0.823055 0.554007 0.500000
#
# Coordination Sequence:
#
# PCOD9544152 Si02
#       8
#     8   8   8   8   8   8   8   2
#     4  11  23  39  56  78 106 144 197 246 289 342
#     4  10  20  36  59  81 107 145 187 237 292 340
#     4   9  20  38  58  84 116 151 184 224 280 334
#     4   9  18  34  57  84 114 143 176 224 278 329
#     4  11  22  35  54  81 113 150 190 233 278 336
#     4  10  20  36  61  87 112 146 190 228 270 335
#     4  10  21  37  57  80 110 148 188 239 289 338
#     4  12  26  36  52  78 114 156 188 246 306 344
#
# _framework density 18.740188
#
# number of rings (size 3 to 8) (size 9 to 14) (size 15 to 20)
#    0.000    1.931    1.379    3.517    0.000    6.621 
#    0.000    2.759    0.000    0.414    0.000    2.897 
#    0.000    0.000    0.000    0.000    0.000    0.000 
#
# Total GULP energy -323647.261504 kJ/mol
# GULP energy per Si atom -5580.125198 kJ/mol
# Density = 1.869753 g / cm^3
# Si number density = 18.740188 Si / 1000 Ang^3
#
#
#
# Elastic Constant Matrix: (Units=GPa)
#
#
# Indices 1 2 3 4 5 6 
#
# 1 68.7660 8.5711 19.9487 0.0000 0.0000 -5.6097
# 2 8.5711 68.7660 19.9487 0.0000 0.0000 5.6097
# 3 19.9487 19.9487 60.8128 0.0000 0.0000 0.0000
# 4 0.0000 0.0000 0.0000 25.7568 0.0000 0.0000
# 5 0.0000 0.0000 0.0000 0.0000 25.7568 0.0000
# 6 -5.6097 5.6097 0.0000 0.0000 0.0000 10.1827
#
#
#
# Elastic Compliance Matrix: (Units=1/GPa)
#
#
# Indices 1 2 3 4 5 6 
#
# 1 0.017039 -0.001475 -0.005106 0.000000 0.000000 0.010199
# 2 -0.001475 0.017039 -0.005106 0.000000 0.000000 -0.010199
# 3 -0.005106 -0.005106 0.019794 0.000000 0.000000 0.000000
# 4 0.000000 0.000000 0.000000 0.038825 0.000000 0.000000
# 5 0.000000 0.000000 0.000000 0.000000 0.038825 0.000000
# 6 0.010199 -0.010199 0.000000 0.000000 0.000000 0.109443
#
#
# Mechanical properties :
#
#
# Convention : Reuss Voigt Hill
#
# Bulk Modulus (GPa) = 32.78723 32.80910 32.79816
# Shear Modulus (GPa) = 18.21476 22.33100 20.27288
#
# Velocity S-wave (km/s) = 3.12101 3.45572 3.29262
# Velocity P-wave (km/s) = 5.52461 5.78515 5.65638
#
# Compressibility (1/GPa) = 0.03049968
#
# Stress axis : x y z
#
# Youngs Moduli (GPa) = 58.68873 58.68873 50.52139
#
# Poissons Ratio (x) = 0.08655 0.25795
# Poissons Ratio (y) = 0.08655 0.25795
# Poissons Ratio (z) = 0.29964 0.29964
#
# Static dielectric constant tensor:
#      x y z
#    x 1.661910 0.000000 0.000000 
#    y 0.000000 1.661910 0.000000 
#    z 0.000000 0.000000 1.639840 
# 
# From -- ./inp_files/1160.got.cif
#   From: 2010.05.17/outbox.cif.g08.bks.cpg/sg84_1_cif.got.tgz:1160.got - 2010.06.03 18:57:40.
