data_PCOD9544036
_publ_section_title
;
Structure prediction by ZEFSAII (Michael W. Deem and Ramdas Pophale) SiO2 
 PCOD9544036
Probable space group: P 42/M
;
_chemical_formula_sum "Si O2"
_cell_formula_units_Z 56
_cell_length_a 11.749675
_cell_length_b 11.749675
_cell_length_c 22.457736
_cell_angle_alpha 90.000000
_cell_angle_beta 90.000000
_cell_angle_gamma 90.000000
_cell_volume 3100.399658
_symmetry_space_group_name_H-M "P 42/M"
_symmetry_group_IT_number 84
_symmetry_cell_setting 'tetragonal'
loop_
_space_group_symop_operation_xyz
x,y,z
-y,x,1/2+z
-x,-y,z
y,-x,1/2+z
-x,-y,-z
y,-x,1/2-z
x,y,-z
-y,x,1/2-z
loop_
_atom_site_type_symbol
_atom_site_label
_atom_site_fract_x
_atom_site_fract_y
_atom_site_fract_z
Si Si1 0.020761 0.864810 0.567402
Si Si2 0.770403 0.758754 0.429593
Si Si3 0.246393 0.647250 0.716212
Si Si4 0.010890 0.365780 0.754863
Si Si5 0.239562 0.387664 0.681963
Si Si6 0.239841 0.858437 0.641714
Si Si7 0.625478 0.976710 0.429635
O O1 0.061100 0.833489 0.500000
O O2 0.110388 0.844215 0.620089
O O3 0.899985 0.803471 0.576618
O O4 0.000000 0.000000 0.566801
O O5 0.751543 0.735866 0.500000
O O6 0.751403 0.653857 0.385634
O O7 0.688667 0.862444 0.408749
O O8 0.261543 0.520098 0.693171
O O9 0.316286 0.676228 0.775618
O O10 0.282260 0.738497 0.666447
O O11 0.113076 0.666596 0.730991
O O12 0.111213 0.363326 0.705854
O O13 0.052882 0.279256 0.806467
O O14 0.000000 0.500000 0.773262
O O15 0.300989 0.912865 0.585091
O O16 0.617788 0.962548 0.500000
O O17 0.500000 0.000000 0.405523
#
# Coordination Sequence:
#
# PCOD9544036 Si02
#       7
#     8   8   8   8   8   8   8
#     4  10  19  32  52  83 119 151 178 219 278 336
#     4  10  20  36  59  83 112 150 186 225 277 337
#     4  10  22  36  55  81 107 148 187 230 283 330
#     4   9  19  36  55  77 106 141 183 234 281 327
#     4  10  21  39  58  79 113 146 190 232 276 342
#     4  11  19  32  54  79 109 141 181 222 274 331
#     4  10  20  34  54  79 105 136 176 225 275 322
#
# _framework density 18.062187000000002
#
# number of rings (size 3 to 8) (size 9 to 14) (size 15 to 20)
#    0.000    2.000    1.429    2.571    0.000    2.571 
#    0.000    1.429    0.000    5.571    0.000    5.000 
#    0.000    0.000    0.000    0.000    0.000    0.000 
#
# Total GULP energy -312126.555159 kJ/mol
# GULP energy per Si atom -5573.688485 kJ/mol
# Density = 1.802108 g / cm^3
# Si number density = 18.062187 Si / 1000 Ang^3
#
#
#
# Elastic Constant Matrix: (Units=GPa)
#
#
# Indices 1 2 3 4 5 6 
#
# 1 94.2033 36.6235 45.3341 0.0000 0.0000 -6.6361
# 2 36.6235 94.2033 45.3341 0.0000 0.0000 6.6361
# 3 45.3341 45.3341 85.9968 0.0000 0.0000 0.0000
# 4 0.0000 0.0000 0.0000 -10.1561 0.0000 0.0000
# 5 0.0000 0.0000 0.0000 0.0000 -10.1561 0.0000
# 6 -6.6361 6.6361 0.0000 0.0000 0.0000 15.4961
#
#
#
# Elastic Compliance Matrix: (Units=1/GPa)
#
#
# Indices 1 2 3 4 5 6 
#
# 1 0.015657 -0.003613 -0.006349 0.000000 0.000000 0.008252
# 2 -0.003613 0.015657 -0.006349 0.000000 0.000000 -0.008252
# 3 -0.006349 -0.006349 0.018322 0.000000 0.000000 0.000000
# 4 0.000000 0.000000 0.000000 -0.098463 0.000000 0.000000
# 5 0.000000 0.000000 0.000000 0.000000 -0.098463 0.000000
# 6 0.008252 -0.008252 0.000000 0.000000 0.000000 0.071600
#
#
# Mechanical properties :
#
#
# Convention : Reuss Voigt Hill
#
# Bulk Modulus (GPa) = 58.77585 58.77631 58.77608
# Shear Modulus (GPa) = -133.70010 8.84421 -62.42794
#
# Velocity S-wave (km/s) = -8.61294 2.21521 -5.88539
# Velocity P-wave (km/s) = 8.14241 6.25736 3.68404
#
# Compressibility (1/GPa) = 0.01701379
#
# Stress axis : x y z
#
# Youngs Moduli (GPa) = 63.87102 63.87102 54.57843
#
# Poissons Ratio (x) = 0.23075 0.34652
# Poissons Ratio (y) = 0.23075 0.34652
# Poissons Ratio (z) = 0.40552 0.40552
#
# Static dielectric constant tensor:
#      x y z
#    x 1.628580 0.000000 0.000000 
#    y 0.000000 1.628580 0.000000 
#    z 0.000000 0.000000 1.646490 
# 
# From -- ./inp_files/4500.got.cif
#   From: 2010.05.17/outbox.cif.g08.bks.cpg/sg84_3_cif.got.tgz:4500.got - 2010.06.03 18:57:40.
