data_PCOD9544033
_publ_section_title
;
Structure prediction by ZEFSAII (Michael W. Deem and Ramdas Pophale) SiO2 
 PCOD9544033
Probable space group: P 42/M
;
_chemical_formula_sum "Si O2"
_cell_formula_units_Z 64
_cell_length_a 20.377259
_cell_length_b 20.377259
_cell_length_c 8.981583
_cell_angle_alpha 90.000000
_cell_angle_beta 90.000000
_cell_angle_gamma 90.000000
_cell_volume 3729.446819
_symmetry_space_group_name_H-M "P 42/M"
_symmetry_group_IT_number 84
_symmetry_cell_setting 'tetragonal'
loop_
_space_group_symop_operation_xyz
x,y,z
-y,x,1/2+z
-x,-y,z
y,-x,1/2+z
-x,-y,-z
y,-x,1/2-z
x,y,-z
-y,x,1/2-z
loop_
_atom_site_type_symbol
_atom_site_label
_atom_site_fract_x
_atom_site_fract_y
_atom_site_fract_z
Si Si1 0.682210 0.506441 0.833509
Si Si2 0.913220 0.512039 0.828006
Si Si3 0.702941 0.771748 0.822233
Si Si4 0.554854 0.205697 0.164163
Si Si5 0.702283 0.179346 0.829147
Si Si6 0.097064 0.641971 0.178993
Si Si7 0.640881 0.037591 0.821405
Si Si8 0.388596 0.354344 0.170483
O O1 0.734275 0.508725 0.700110
O O2 0.636210 0.446956 0.787556
O O3 0.652263 0.578658 0.831302
O O4 0.708849 0.494777 0.000000
O O5 0.841805 0.541234 0.800404
O O6 0.905447 0.436117 0.783961
O O7 0.955067 0.565128 0.735013
O O8 0.932215 0.515955 0.000000
O O9 0.775755 0.751125 0.765794
O O10 0.675362 0.837831 0.745816
O O11 0.654797 0.709755 0.789419
O O12 0.703768 0.780435 0.000000
O O13 0.632438 0.217727 0.167408
O O14 0.540813 0.176746 0.000000
O O15 0.680913 0.104904 0.782322
O O16 0.725923 0.175161 0.000000
O O17 0.028563 0.668385 0.247202
O O18 0.097245 0.647897 0.000000
O O19 0.640862 0.032900 0.000000
O O20 0.411522 0.345596 0.000000
#
# Coordination Sequence:
#
# PCOD9544033 Si02
#       8
#     8   8   8   8   8   8   8   8
#     4  11  22  36  53  72  95 126 169 220 276 332
#     4  10  20  33  51  76 107 144 183 220 264 319
#     4  11  22  37  57  79 107 140 178 224 270 320
#     4  10  19  32  52  75  99 131 171 217 266 317
#     4   9  19  35  55  78 103 134 174 215 259 313
#     4  11  23  36  51  77 112 146 181 222 269 320
#     4  10  21  36  55  80 109 145 183 222 270 323
#     4  10  23  39  53  74  99 127 169 219 275 331
#
# _framework density 17.160722
#
# number of rings (size 3 to 8) (size 9 to 14) (size 15 to 20)
#    0.000    1.750    1.250    4.125    0.000   10.250 
#    0.000    1.250    0.000    0.000    0.000    0.000 
#    0.000    0.500    0.000    5.250    0.000    2.250 
#
# Total GULP energy -356433.357673 kJ/mol
# GULP energy per Si atom -5569.271214 kJ/mol
# Density = 1.712166 g / cm^3
# Si number density = 17.160722 Si / 1000 Ang^3
#
#
#
# Elastic Constant Matrix: (Units=GPa)
#
#
# Indices 1 2 3 4 5 6 
#
# 1 85.1665 29.2863 48.6714 0.0000 0.0000 -3.2097
# 2 29.2863 85.1665 48.6714 0.0000 0.0000 3.2097
# 3 48.6714 48.6714 70.8553 0.0000 0.0000 0.0000
# 4 0.0000 0.0000 0.0000 19.1649 0.0000 0.0000
# 5 0.0000 0.0000 0.0000 0.0000 19.1649 0.0000
# 6 -3.2097 3.2097 0.0000 0.0000 0.0000 28.8888
#
#
#
# Elastic Compliance Matrix: (Units=1/GPa)
#
#
# Indices 1 2 3 4 5 6 
#
# 1 0.019571 0.001444 -0.014435 0.000000 0.000000 0.002014
# 2 0.001444 0.019571 -0.014435 0.000000 0.000000 -0.002014
# 3 -0.014435 -0.014435 0.033945 0.000000 0.000000 0.000000
# 4 0.000000 0.000000 0.000000 0.052179 0.000000 0.000000
# 5 0.000000 0.000000 0.000000 0.000000 0.052179 0.000000
# 6 0.002014 -0.002014 0.000000 0.000000 0.000000 0.035063
#
#
# Mechanical properties :
#
#
# Convention : Reuss Voigt Hill
#
# Bulk Modulus (GPa) = 54.84546 54.93852 54.89199
# Shear Modulus (GPa) = 18.28581 21.08100 19.68340
#
# Velocity S-wave (km/s) = 3.26784 3.50872 3.39042
# Velocity P-wave (km/s) = 6.80203 6.96408 6.88353
#
# Compressibility (1/GPa) = 0.01823305
#
# Stress axis : x y z
#
# Youngs Moduli (GPa) = 51.09718 51.09718 29.45985
#
# Poissons Ratio (x) = -0.07377 0.42525
# Poissons Ratio (y) = -0.07377 0.42525
# Poissons Ratio (z) = 0.73759 0.73759
#
# Static dielectric constant tensor:
#      x y z
#    x 1.613390 0.000000 0.000000 
#    y 0.000000 1.613390 0.000000 
#    z 0.000000 0.000000 1.603330 
# 
# From -- ./inp_files/1380.got.cif
#   From: 2010.05.17/outbox.cif.g08.bks.cpg/sg84_1_cif.got.tgz:1380.got - 2010.06.03 18:57:40.
