data_PCOD9544034
_publ_section_title
;
Structure prediction by ZEFSAII (Michael W. Deem and Ramdas Pophale) SiO2 
 PCOD9544034
Probable space group: P 42/M
;
_chemical_formula_sum "Si O2"
_cell_formula_units_Z 64
_cell_length_a 12.280970
_cell_length_b 12.280970
_cell_length_c 21.563922
_cell_angle_alpha 90.000000
_cell_angle_beta 90.000000
_cell_angle_gamma 90.000000
_cell_volume 3252.318677
_symmetry_space_group_name_H-M "P 42/M"
_symmetry_group_IT_number 84
_symmetry_cell_setting 'tetragonal'
loop_
_space_group_symop_operation_xyz
x,y,z
-y,x,1/2+z
-x,-y,z
y,-x,1/2+z
-x,-y,-z
y,-x,1/2-z
x,y,-z
-y,x,1/2-z
loop_
_atom_site_type_symbol
_atom_site_label
_atom_site_fract_x
_atom_site_fract_y
_atom_site_fract_z
Si Si1 0.119749 0.395611 0.927709
Si Si2 0.829702 0.725375 0.431971
Si Si3 0.087069 0.295637 0.292981
Si Si4 0.665494 0.567949 0.126107
Si Si5 0.106217 0.650450 0.108735
Si Si6 0.293222 0.158177 0.748201
Si Si7 0.427208 0.656833 0.887977
Si Si8 0.240797 0.477372 0.737297
O O1 0.237548 0.364625 0.903571
O O2 0.115997 0.526340 0.915171
O O3 0.023242 0.332627 0.893938
O O4 0.105437 0.378198 0.000000
O O5 0.883267 0.731369 0.500000
O O6 0.896971 0.722143 0.367424
O O7 0.741816 0.824111 0.426415
O O8 0.757109 0.615708 0.427167
O O9 0.177775 0.219334 0.259068
O O10 0.124959 0.415724 0.269450
O O11 0.961900 0.277064 0.275987
O O12 0.647755 0.446834 0.098242
O O13 0.552045 0.623605 0.109366
O O14 0.699375 0.544883 0.197568
O O15 0.143956 0.659099 0.179030
O O16 0.395075 0.222818 0.778806
O O17 0.417375 0.688990 0.815637
#
# Coordination Sequence:
#
# PCOD9544034 Si02
#       8
#     8   8   8   8   8   8   8   8
#     4  11  20  29  46  74 106 145 188 230 280 337
#     4  10  19  37  55  77 113 151 198 235 274 344
#     4  10  23  35  59  90 111 150 188 234 301 341
#     4  11  19  31  46  74 113 152 192 232 290 339
#     4  10  19  32  52  78 105 147 183 236 291 334
#     4  11  21  38  58  86 117 140 185 240 295 348
#     4  10  21  30  48  74 108 155 193 232 279 336
#     4  11  19  35  55  79 110 144 189 238 287 344
#
# _framework density 19.678270000000001
#
# number of rings (size 3 to 8) (size 9 to 14) (size 15 to 20)
#    0.000    1.500    2.500    5.625    1.750    1.750 
#    0.000    1.250    0.000    6.000    0.000   11.375 
#    0.000    0.000    0.000    0.000    0.000    0.000 
#
# Total GULP energy -356906.709657 kJ/mol
# GULP energy per Si atom -5576.667338 kJ/mol
# Density = 1.963348 g / cm^3
# Si number density = 19.678270 Si / 1000 Ang^3
#
#
#
# Elastic Constant Matrix: (Units=GPa)
#
#
# Indices 1 2 3 4 5 6 
#
# 1 95.7590 23.8061 10.1417 0.0000 0.0000 1.7227
# 2 23.8061 95.7590 10.1417 0.0000 0.0000 -1.7227
# 3 10.1417 10.1417 44.5033 0.0000 0.0000 0.0000
# 4 0.0000 0.0000 0.0000 -40.8859 0.0000 0.0000
# 5 0.0000 0.0000 0.0000 0.0000 -40.8859 0.0000
# 6 1.7227 -1.7227 0.0000 0.0000 0.0000 14.3932
#
#
#
# Elastic Compliance Matrix: (Units=1/GPa)
#
#
# Indices 1 2 3 4 5 6 
#
# 1 0.011339 -0.002639 -0.001983 0.000000 0.000000 -0.001673
# 2 -0.002639 0.011339 -0.001983 0.000000 0.000000 0.001673
# 3 -0.001983 -0.001983 0.023374 0.000000 0.000000 0.000000
# 4 0.000000 0.000000 0.000000 -0.024458 0.000000 0.000000
# 5 0.000000 0.000000 0.000000 0.000000 -0.024458 0.000000
# 6 -0.001673 0.001673 0.000000 0.000000 0.000000 0.069878
#
#
# Mechanical properties :
#
#
# Convention : Reuss Voigt Hill
#
# Bulk Modulus (GPa) = 30.44754 36.02226 33.23490
# Shear Modulus (GPa) = 54.84289 -0.68029 27.08130
#
# Velocity S-wave (km/s) = 5.28491 -0.58861 3.71375
# Velocity P-wave (km/s) = 7.26269 4.22888 5.94264
#
# Compressibility (1/GPa) = 0.03284338
#
# Stress axis : x y z
#
# Youngs Moduli (GPa) = 88.19094 88.19094 42.78281
#
# Poissons Ratio (x) = 0.23274 0.08482
# Poissons Ratio (y) = 0.23274 0.08482
# Poissons Ratio (z) = 0.17485 0.17485
#
# Static dielectric constant tensor:
#      x y z
#    x 1.752010 0.000000 0.000000 
#    y 0.000000 1.752010 0.000000 
#    z 0.000000 0.000000 1.723610 
# 
# From -- ./inp_files/5084.got.cif
#   From: 2010.05.17/outbox.cif.g08.bks.cpg/sg84_3_cif.got.tgz:5084.got - 2010.06.03 18:57:40.
