data_PCOD9544065
_publ_section_title
;
Structure prediction by ZEFSAII (Michael W. Deem and Ramdas Pophale) SiO2 
 PCOD9544065
Probable space group: P 42/M
;
_chemical_formula_sum "Si O2"
_cell_formula_units_Z 40
_cell_length_a 8.832128
_cell_length_b 8.832128
_cell_length_c 25.868326
_cell_angle_alpha 90.000000
_cell_angle_beta 90.000000
_cell_angle_gamma 90.000000
_cell_volume 2017.897184
_symmetry_space_group_name_H-M "P 42/M"
_symmetry_group_IT_number 84
_symmetry_cell_setting 'tetragonal'
loop_
_space_group_symop_operation_xyz
x,y,z
-y,x,1/2+z
-x,-y,z
y,-x,1/2+z
-x,-y,-z
y,-x,1/2-z
x,y,-z
-y,x,1/2-z
loop_
_atom_site_type_symbol
_atom_site_label
_atom_site_fract_x
_atom_site_fract_y
_atom_site_fract_z
Si Si1 0.037459 0.672826 0.442632
Si Si2 0.764839 0.919370 0.331457
Si Si3 0.093546 0.766747 0.668949
Si Si4 0.929673 0.172212 0.056007
Si Si5 0.418565 0.257402 0.748911
O O1 0.107676 0.696307 0.500000
O O2 0.122676 0.733004 0.391831
O O3 0.000000 0.500000 0.435037
O O4 0.875144 0.755053 0.444754
O O5 0.735353 0.950023 0.392113
O O6 0.630996 0.839707 0.300973
O O7 0.916285 0.813605 0.327571
O O8 0.817070 0.084026 0.311413
O O9 0.151020 0.627886 0.702995
O O10 0.974762 0.233554 0.000000
O O11 0.000000 0.000000 0.060888
O O12 0.315385 0.409651 0.750876
#
# Coordination Sequence:
#
# PCOD9544065 Si02
#       5
#     8   8   8   8   8
#     4   9  17  28  48  83 119 145 176 216 266 323
#     4  10  19  35  56  85 110 137 180 226 275 330
#     4  10  20  34  57  84 110 140 178 227 273 324
#     4   9  15  28  50  81 117 144 169 218 274 320
#     4  11  26  41  53  72 104 147 190 232 279 337
#
# _framework density 19.822614999999999
#
# number of rings (size 3 to 8) (size 9 to 14) (size 15 to 20)
#    0.000    2.200    4.000    1.200    5.600    4.000 
#    0.000    0.000    0.000    1.200    0.000    5.600 
#    0.000    0.000    0.000    0.000    0.000    0.000 
#
# Total GULP energy -222762.751568 kJ/mol
# GULP energy per Si atom -5569.068789 kJ/mol
# Density = 1.977750 g / cm^3
# Si number density = 19.822615 Si / 1000 Ang^3
#
#
#
# Elastic Constant Matrix: (Units=GPa)
#
#
# Indices 1 2 3 4 5 6 
#
# 1 50.5220 9.8923 18.3377 0.0000 0.0000 2.3675
# 2 9.8923 50.5220 18.3377 0.0000 0.0000 -2.3675
# 3 18.3377 18.3377 153.3129 0.0000 0.0000 0.0000
# 4 0.0000 0.0000 0.0000 -2.8422 0.0000 0.0000
# 5 0.0000 0.0000 0.0000 0.0000 -2.8422 0.0000
# 6 2.3675 -2.3675 0.0000 0.0000 0.0000 27.7089
#
#
#
# Elastic Compliance Matrix: (Units=1/GPa)
#
#
# Indices 1 2 3 4 5 6 
#
# 1 0.021354 -0.003506 -0.002135 0.000000 0.000000 -0.002124
# 2 -0.003506 0.021354 -0.002135 0.000000 0.000000 0.002124
# 3 -0.002135 -0.002135 0.007033 0.000000 0.000000 0.000000
# 4 0.000000 0.000000 0.000000 -0.351837 0.000000 0.000000
# 5 0.000000 0.000000 0.000000 0.000000 -0.351837 0.000000
# 6 -0.002124 0.002124 0.000000 0.000000 0.000000 0.036452
#
#
# Mechanical properties :
#
#
# Convention : Reuss Voigt Hill
#
# Bulk Modulus (GPa) = 29.24777 38.61029 33.92903
# Shear Modulus (GPa) = -8.46694 18.25751 4.89529
#
# Velocity S-wave (km/s) = -2.06897 3.03816 1.57318
# Velocity P-wave (km/s) = 3.01318 5.64158 4.52254
#
# Compressibility (1/GPa) = 0.03419064
#
# Stress axis : x y z
#
# Youngs Moduli (GPa) = 46.82916 46.82916 142.18074
#
# Poissons Ratio (x) = 0.16418 0.30353
# Poissons Ratio (y) = 0.16418 0.30353
# Poissons Ratio (z) = 0.09997 0.09997
#
# Static dielectric constant tensor:
#      x y z
#    x 1.727140 0.000000 0.000000 
#    y 0.000000 1.727140 0.000000 
#    z 0.000000 0.000000 1.788690 
# 
# From -- ./inp_files/5308.got.cif
#   From: 2010.05.17/outbox.cif.g08.bks.cpg/sg84_3_cif.got.tgz:5308.got - 2010.06.03 18:57:40.
