data_PCOD9544962
_publ_section_title
;
Structure prediction by ZEFSAII (Michael W. Deem and Ramdas Pophale) SiO2 
 PCOD9544962
Probable space group: P 42/N
;
_chemical_formula_sum "Si O2"
_cell_formula_units_Z 52
_cell_length_a 16.233918
_cell_length_b 16.233918
_cell_length_c 9.761373
_cell_angle_alpha 90.000000
_cell_angle_beta 90.000000
_cell_angle_gamma 90.000000
_cell_volume 2572.513154
_symmetry_space_group_name_H-M "P 42/N"
_symmetry_group_IT_number 86
_space_group.IT_coordinate_system_code '2'
_symmetry_cell_setting 'tetragonal'
loop_
_space_group_symop_operation_xyz
x,y,z
-y,1/2+x,1/2+z
1/2-x,1/2-y,z
1/2+y,-x,1/2+z
-x,-y,-z
y,1/2-x,1/2-z
1/2+x,1/2+y,-z
1/2-y,x,1/2-z
loop_
_atom_site_type_symbol
_atom_site_label
_atom_site_fract_x
_atom_site_fract_y
_atom_site_fract_z
Si Si1 0.081871 0.555402 0.215784
Si Si2 0.640595 0.012741 0.500000
Si Si3 0.250000 0.250000 0.250000
Si Si4 0.944598 0.081871 0.715784
Si Si5 0.250000 0.250000 0.750000
Si Si6 0.666106 0.497613 0.500000
Si Si7 0.337157 0.055643 1.000000
Si Si8 0.157894 0.329572 0.500000
O O1 0.112802 0.562477 0.368095
O O2 0.148013 0.502677 0.130123
O O3 1.000000 0.500000 0.217013
O O4 0.053730 0.634555 0.131146
O O5 0.737408 0.996447 0.499999
O O6 0.610568 0.916778 0.500000
O O7 0.612802 0.062477 0.368095
O O8 0.210417 0.315803 0.358004
O O9 0.997323 0.148013 0.630123
O O10 0.865445 0.053730 0.631146
O O11 0.210417 0.315803 0.641996
O O12 0.622066 0.587454 0.500000
O O13 0.249588 0.098523 1.000000
#
# Coordination Sequence:
#
# PCOD9544962 Si02
#       8
#     8   8   2   8   2   8   8   8
#     4   9  20  38  57  81 115 159 196 227 281 351
#     4  12  22  34  61  89 109 143 199 258 285 323
#     4  10  20  30  40  70 128 158 168 214 280 354
#     4   9  20  38  57  81 115 159 196 227 281 351
#     4  10  20  30  40  70 128 158 168 214 280 354
#     4   9  20  40  58  76 115 162 194 226 292 353
#     4   9  18  35  55  79 124 163 184 222 281 355
#     4  11  21  32  50  86 118 150 188 226 288 338
#
# _framework density 20.213695000000001
#
# number of rings (size 3 to 8) (size 9 to 14) (size 15 to 20)
#    0.000    2.154    0.000    6.000    0.000    7.385 
#    0.000    3.077    0.000    2.769    0.000    0.000 
#    0.000    0.000    0.000    0.000    0.000    0.000 
#
# Total GULP energy -290369.749762 kJ/mol
# GULP energy per Si atom -5584.033649 kJ/mol
# Density = 2.016769 g / cm^3
# Si number density = 20.213695 Si / 1000 Ang^3
#
#
#
# Elastic Constant Matrix: (Units=GPa)
#
#
# Indices 1 2 3 4 5 6 
#
# 1 42.0596 26.9460 21.6223 0.0000 0.0000 -8.0243
# 2 26.9460 42.0596 21.6223 0.0000 0.0000 8.0243
# 3 21.6223 21.6223 162.8755 0.0000 0.0000 0.0000
# 4 0.0000 0.0000 0.0000 8.0105 0.0000 0.0000
# 5 0.0000 0.0000 0.0000 0.0000 8.0105 0.0000
# 6 -8.0243 8.0243 0.0000 0.0000 0.0000 30.7240
#
#
#
# Elastic Compliance Matrix: (Units=1/GPa)
#
#
# Indices 1 2 3 4 5 6 
#
# 1 0.053682 -0.037875 -0.002098 0.000000 0.000000 0.023912
# 2 -0.037875 0.053682 -0.002098 0.000000 0.000000 -0.023912
# 3 -0.002098 -0.002098 0.006697 0.000000 0.000000 0.000000
# 4 0.000000 0.000000 0.000000 0.124836 0.000000 0.000000
# 5 0.000000 0.000000 0.000000 0.000000 0.124836 0.000000
# 6 0.023912 -0.023912 0.000000 0.000000 0.000000 0.045038
#
#
# Mechanical properties :
#
#
# Convention : Reuss Voigt Hill
#
# Bulk Modulus (GPa) = 33.42644 43.04179 38.23411
# Shear Modulus (GPa) = 9.94257 21.13593 15.53925
#
# Velocity S-wave (km/s) = 2.22023 3.23712 2.77564
# Velocity P-wave (km/s) = 4.81092 5.94235 5.40632
#
# Compressibility (1/GPa) = 0.02991644
#
# Stress axis : x y z
#
# Youngs Moduli (GPa) = 18.62825 18.62825 149.32521
#
# Poissons Ratio (x) = 0.70555 0.31334
# Poissons Ratio (y) = 0.70555 0.31334
# Poissons Ratio (z) = 0.03909 0.03909
#
# Static dielectric constant tensor:
#      x y z
#    x 1.716170 0.000000 0.000000 
#    y 0.000000 1.716170 0.000000 
#    z 0.000000 0.000000 1.839820 
# 
# From -- ./inp_files/1431.got.cif
#   From: 2010.05.17/outbox.cif.g08.bks.cpg/sg86_1_cif.got.tgz:1431.got - 2010.06.03 19:03:11.
