data_PCOD9544991
_publ_section_title
;
Structure prediction by ZEFSAII (Michael W. Deem and Ramdas Pophale) SiO2 
 PCOD9544991
Probable space group: P 42/N
;
_chemical_formula_sum "Si O2"
_cell_formula_units_Z 42
_cell_length_a 13.851440
_cell_length_b 13.851440
_cell_length_c 8.125055
_cell_angle_alpha 90.000000
_cell_angle_beta 90.000000
_cell_angle_gamma 90.000000
_cell_volume 1558.892472
_symmetry_space_group_name_H-M "P 42/N"
_symmetry_group_IT_number 86
_space_group.IT_coordinate_system_code '2'
_symmetry_cell_setting 'tetragonal'
loop_
_space_group_symop_operation_xyz
x,y,z
-y,1/2+x,1/2+z
1/2-x,1/2-y,z
1/2+y,-x,1/2+z
-x,-y,-z
y,1/2-x,1/2-z
1/2+x,1/2+y,-z
1/2-y,x,1/2-z
loop_
_atom_site_type_symbol
_atom_site_label
_atom_site_fract_x
_atom_site_fract_y
_atom_site_fract_z
Si Si1 0.311168 0.655764 0.877892
Si Si2 0.516715 0.364963 0.569443
Si Si3 0.650258 0.879686 0.756898
Si Si4 0.444318 0.804090 0.054233
Si Si5 0.750000 0.750000 0.250000
Si Si6 0.847757 0.591209 0.402183
O O1 0.250000 0.750000 0.823950
O O2 0.238878 0.572680 0.940407
O O3 0.349890 0.607327 0.713249
O O4 0.385719 0.706745 0.000555
O O5 0.445781 0.369863 0.414673
O O6 0.609994 0.435123 0.572878
O O7 0.460665 0.386469 0.739368
O O8 0.767305 0.879168 0.732482
O O9 0.607773 0.919661 0.582779
O O10 0.547166 0.760652 0.089898
O O11 0.830886 0.703896 0.366109
#
# Coordination Sequence:
#
# PCOD9544991 Si02
#       6
#     8   8   8   8   2   8
#     4   9  17  32  56  87 129 171 199 236 301 378
#     4  10  21  37  61  96 130 161 205 257 311 372
#     4  11  23  41  65  90 122 170 220 262 308 365
#     4  10  20  36  60  94 129 163 203 251 314 378
#     4  12  24  48  66  80 116 166 220 260 314 372
#     4  11  23  40  67  90 118 165 210 258 306 364
#
# _framework density 26.942207
#
# number of rings (size 3 to 8) (size 9 to 14) (size 15 to 20)
#    0.000    1.714    0.000    6.286    0.000    3.048 
#    0.000    5.714    0.000   10.286    0.000    0.000 
#    0.000    0.000    0.000    0.000    0.000    0.000 
#
# Total GULP energy -234948.918487 kJ/mol
# GULP energy per Si atom -5594.021869 kJ/mol
# Density = 2.688089 g / cm^3
# Si number density = 26.942207 Si / 1000 Ang^3
#
#
#
# Elastic Constant Matrix: (Units=GPa)
#
#
# Indices 1 2 3 4 5 6 
#
# 1 79.4283 10.3617 31.7808 0.0000 0.0000 -4.5522
# 2 10.3617 79.4283 31.7808 0.0000 0.0000 4.5522
# 3 31.7808 31.7808 179.6795 0.0000 0.0000 0.0000
# 4 0.0000 0.0000 0.0000 33.0960 0.0000 0.0000
# 5 0.0000 0.0000 0.0000 0.0000 33.0960 0.0000
# 6 -4.5522 4.5522 0.0000 0.0000 0.0000 24.2313
#
#
#
# Elastic Compliance Matrix: (Units=1/GPa)
#
#
# Indices 1 2 3 4 5 6 
#
# 1 0.013789 -0.001058 -0.002252 0.000000 0.000000 0.002789
# 2 -0.001058 0.013789 -0.002252 0.000000 0.000000 -0.002789
# 3 -0.002252 -0.002252 0.006362 0.000000 0.000000 0.000000
# 4 0.000000 0.000000 0.000000 0.030215 0.000000 0.000000
# 5 0.000000 0.000000 0.000000 0.000000 0.030215 0.000000
# 6 0.002789 -0.002789 0.000000 0.000000 0.000000 0.042317
#
#
# Mechanical properties :
#
#
# Convention : Reuss Voigt Hill
#
# Bulk Modulus (GPa) = 43.82684 54.04250 48.93467
# Shear Modulus (GPa) = 32.17192 35.72551 33.94871
#
# Velocity S-wave (km/s) = 3.45934 3.64539 3.55358
# Velocity P-wave (km/s) = 5.67964 6.14985 5.91942
#
# Compressibility (1/GPa) = 0.02281707
#
# Stress axis : x y z
#
# Youngs Moduli (GPa) = 72.52265 72.52265 157.18206
#
# Poissons Ratio (x) = 0.07670 0.35395
# Poissons Ratio (y) = 0.07670 0.35395
# Poissons Ratio (z) = 0.16331 0.16331
#
# Static dielectric constant tensor:
#      x y z
#    x 2.135990 0.000000 0.000000 
#    y 0.000000 2.135990 0.000000 
#    z 0.000000 0.000000 2.167070 
# 
# From -- ./inp_files/1199.got.cif
#   From: 2010.05.17/outbox.cif.g08.bks.cpg/sg86_1_cif.got.tgz:1199.got - 2010.06.03 19:03:11.
