data_PCOD9544898
_publ_section_title
;
Structure prediction by ZEFSAII (Michael W. Deem and Ramdas Pophale) SiO2 
 PCOD9544898
Probable space group: P 42/N
;
_chemical_formula_sum "Si O2"
_cell_formula_units_Z 42
_cell_length_a 13.475669
_cell_length_b 13.475669
_cell_length_c 8.112983
_cell_angle_alpha 90.000000
_cell_angle_beta 90.000000
_cell_angle_gamma 90.000000
_cell_volume 1473.266236
_symmetry_space_group_name_H-M "P 42/N"
_symmetry_group_IT_number 86
_space_group.IT_coordinate_system_code '2'
_symmetry_cell_setting 'tetragonal'
loop_
_space_group_symop_operation_xyz
x,y,z
-y,1/2+x,1/2+z
1/2-x,1/2-y,z
1/2+y,-x,1/2+z
-x,-y,-z
y,1/2-x,1/2-z
1/2+x,1/2+y,-z
1/2-y,x,1/2-z
loop_
_atom_site_type_symbol
_atom_site_label
_atom_site_fract_x
_atom_site_fract_y
_atom_site_fract_z
Si Si1 0.750000 0.750000 0.750000
Si Si2 0.372828 0.410504 0.103141
Si Si3 0.364571 0.371868 0.749096
Si Si4 0.145491 0.717337 0.158917
Si Si5 0.132431 0.560891 0.916499
Si Si6 0.535373 0.262370 0.238709
O O1 0.659965 0.776735 0.631491
O O2 0.459679 0.334557 0.147451
O O3 0.351984 0.496646 0.236060
O O4 0.383262 0.435699 0.913719
O O5 0.380178 0.253275 0.788885
O O6 0.451177 0.408428 0.625935
O O7 0.250000 0.750000 0.084703
O O8 0.093267 0.805915 0.254215
O O9 0.185380 0.640339 0.296809
O O10 0.087837 0.659489 0.012827
O O11 0.209415 0.534456 0.064456
#
# Coordination Sequence:
#
# PCOD9544898 Si02
#       6
#     2   8   8   8   8   8
#     4   8  16  28  58  96 128 180 206 236 316 404
#     4  10  18  35  63  98 136 166 209 260 331 380
#     4  11  21  35  62  97 136 174 208 262 327 392
#     4  10  22  44  69  85 119 175 224 266 311 380
#     4  10  23  42  65  95 127 166 223 267 311 382
#     4   9  22  39  66  98 128 169 210 267 317 389
#
# _framework density 28.508085999999999
#
# number of rings (size 3 to 8) (size 9 to 14) (size 15 to 20)
#    1.143    0.952    1.905    1.714    5.333    3.048 
#    0.000    3.810    0.000    0.000    0.000    0.000 
#    0.000    0.000    0.000    0.000    0.000    0.000 
#
# Total GULP energy -234207.561490 kJ/mol
# GULP energy per Si atom -5576.370512 kJ/mol
# Density = 2.844320 g / cm^3
# Si number density = 28.508086 Si / 1000 Ang^3
#
#
#
# Elastic Constant Matrix: (Units=GPa)
#
#
# Indices 1 2 3 4 5 6 
#
# 1 116.4312 6.9609 0.2939 0.0000 0.0000 5.3461
# 2 6.9609 116.4312 0.2939 0.0000 0.0000 -5.3461
# 3 0.2939 0.2939 74.6236 0.0000 0.0000 0.0000
# 4 0.0000 0.0000 0.0000 86.3206 0.0000 0.0000
# 5 0.0000 0.0000 0.0000 0.0000 86.3206 0.0000
# 6 5.3461 -5.3461 0.0000 0.0000 0.0000 84.9339
#
#
#
# Elastic Compliance Matrix: (Units=1/GPa)
#
#
# Indices 1 2 3 4 5 6 
#
# 1 0.008648 -0.000544 -0.000032 0.000000 0.000000 -0.000579
# 2 -0.000544 0.008648 -0.000032 0.000000 0.000000 0.000579
# 3 -0.000032 -0.000032 0.013401 0.000000 0.000000 0.000000
# 4 0.000000 0.000000 0.000000 0.011585 0.000000 0.000000
# 5 0.000000 0.000000 0.000000 0.000000 0.011585 0.000000
# 6 -0.000579 0.000579 0.000000 0.000000 0.000000 0.011847
#
#
# Mechanical properties :
#
#
# Convention : Reuss Voigt Hill
#
# Bulk Modulus (GPa) = 33.91904 35.84260 34.88082
# Shear Modulus (GPa) = 65.14251 71.51083 68.32667
#
# Velocity S-wave (km/s) = 4.78541 5.01387 4.90097
# Velocity P-wave (km/s) = 6.51593 6.79106 6.65492
#
# Compressibility (1/GPa) = 0.02948196
#
# Stress axis : x y z
#
# Youngs Moduli (GPa) = 115.63501 115.63501 74.62216
#
# Poissons Ratio (x) = 0.06285 0.00238
# Poissons Ratio (y) = 0.06285 0.00238
# Poissons Ratio (z) = 0.00369 0.00369
#
# Static dielectric constant tensor:
#      x y z
#    x 2.592450 0.000000 0.000000 
#    y 0.000000 2.592450 0.000000 
#    z 0.000000 0.000000 2.390050 
# 
# From -- ./inp_files/1292.got.cif
#   From: 2010.05.17/outbox.cif.g08.bks.cpg/sg86_1_cif.got.tgz:1292.got - 2010.06.03 19:03:11.
