data_PCOD9544957
_publ_section_title
;
Structure prediction by ZEFSAII (Michael W. Deem and Ramdas Pophale) SiO2 
 PCOD9544957
Probable space group: P 42/N
;
_chemical_formula_sum "Si O2"
_cell_formula_units_Z 56
_cell_length_a 10.544689
_cell_length_b 10.544689
_cell_length_c 20.184830
_cell_angle_alpha 90.000000
_cell_angle_beta 90.000000
_cell_angle_gamma 90.000000
_cell_volume 2244.360656
_symmetry_space_group_name_H-M "P 42/N"
_symmetry_group_IT_number 86
_space_group.IT_coordinate_system_code '2'
_symmetry_cell_setting 'tetragonal'
loop_
_space_group_symop_operation_xyz
x,y,z
-y,1/2+x,1/2+z
1/2-x,1/2-y,z
1/2+y,-x,1/2+z
-x,-y,-z
y,1/2-x,1/2-z
1/2+x,1/2+y,-z
1/2-y,x,1/2-z
loop_
_atom_site_type_symbol
_atom_site_label
_atom_site_fract_x
_atom_site_fract_y
_atom_site_fract_z
Si Si1 0.617532 0.296256 0.262771
Si Si2 0.657958 0.505361 0.651035
Si Si3 0.465178 0.708322 0.597013
Si Si4 0.140672 0.141831 0.914379
Si Si5 0.894546 0.201566 0.548343
Si Si6 0.833797 0.618172 0.552643
Si Si7 0.911416 0.637007 0.271242
O O1 0.750000 0.250000 0.231500
O O2 0.518267 0.204463 0.225262
O O3 0.624075 0.273513 0.340923
O O4 0.600589 0.446974 0.250084
O O5 0.572798 0.626229 0.634763
O O6 0.591435 0.394843 0.609527
O O7 0.784655 0.527700 0.608837
O O8 0.420662 0.649911 0.526788
O O9 0.527672 0.838773 0.573613
O O10 0.250000 0.250000 0.907731
O O11 0.081350 0.124514 0.842823
O O12 0.199593 0.006634 0.935528
O O13 0.061304 0.179320 0.979374
O O14 0.750000 0.250000 0.548757
O O15 0.750000 0.750000 0.549876
O O16 0.791771 0.595859 0.226056
#
# Coordination Sequence:
#
# PCOD9544957 Si02
#       7
#     8   8   8   8   8   8   8
#     4  12  28  43  65  99 145 177 238 306 364 434
#     4  11  23  42  70 101 132 191 236 294 369 441
#     4  10  24  43  68  96 138 189 236 294 365 444
#     4  10  19  39  67  94 139 177 234 298 345 445
#     4  11  23  43  70 103 143 182 240 308 369 431
#     4   8  19  39  63  95 124 166 235 280 337 423
#     4  11  24  42  65 100 137 191 234 286 368 438
#
# _framework density 24.951429000000001
#
# number of rings (size 3 to 8) (size 9 to 14) (size 15 to 20)
#    0.000    1.571    1.429    3.857    6.000    1.143 
#    0.000    6.429    0.000    0.000    0.000    0.000 
#    0.000    0.000    0.000    0.000    0.000    0.000 
#
# Total GULP energy -312702.642078 kJ/mol
# GULP energy per Si atom -5583.975751 kJ/mol
# Density = 2.489464 g / cm^3
# Si number density = 24.951429 Si / 1000 Ang^3
#
#
#
# Elastic Constant Matrix: (Units=GPa)
#
#
# Indices 1 2 3 4 5 6 
#
# 1 63.7332 6.5327 17.7585 0.0000 0.0000 -9.2884
# 2 6.5327 63.7332 17.7585 0.0000 0.0000 9.2884
# 3 17.7585 17.7585 127.6350 0.0000 0.0000 0.0000
# 4 0.0000 0.0000 0.0000 62.6833 0.0000 0.0000
# 5 0.0000 0.0000 0.0000 0.0000 62.6833 0.0000
# 6 -9.2884 9.2884 0.0000 0.0000 0.0000 34.6861
#
#
#
# Elastic Compliance Matrix: (Units=1/GPa)
#
#
# Indices 1 2 3 4 5 6 
#
# 1 0.017228 -0.001920 -0.002130 0.000000 0.000000 0.005127
# 2 -0.001920 0.017228 -0.002130 0.000000 0.000000 -0.005127
# 3 -0.002130 -0.002130 0.008428 0.000000 0.000000 0.000000
# 4 0.000000 0.000000 0.000000 0.015953 0.000000 0.000000
# 5 0.000000 0.000000 0.000000 0.000000 0.015953 0.000000
# 6 0.005127 -0.005127 0.000000 0.000000 0.000000 0.031576
#
#
# Mechanical properties :
#
#
# Convention : Reuss Voigt Hill
#
# Bulk Modulus (GPa) = 32.76068 37.68896 35.22482
# Shear Modulus (GPa) = 38.78988 46.21401 42.50195
#
# Velocity S-wave (km/s) = 3.94714 4.30834 4.13169
# Velocity P-wave (km/s) = 5.82507 6.31560 6.07529
#
# Compressibility (1/GPa) = 0.03052439
#
# Stress axis : x y z
#
# Youngs Moduli (GPa) = 58.04533 58.04533 118.65871
#
# Poissons Ratio (x) = 0.11143 0.25273
# Poissons Ratio (y) = 0.11143 0.25273
# Poissons Ratio (z) = 0.12363 0.12363
#
# Static dielectric constant tensor:
#      x y z
#    x 2.026910 0.000000 0.000000 
#    y 0.000000 2.026910 0.000000 
#    z 0.000000 0.000000 1.968960 
# 
# From -- ./inp_files/4204.got.cif
#   From: 2010.05.17/outbox.cif.g08.bks.cpg/sg86_3_cif.got.tgz:4204.got - 2010.06.03 19:03:11.
