data_PCOD9544397
_publ_section_title
;
Structure prediction by ZEFSAII (Michael W. Deem and Ramdas Pophale) SiO2 
 PCOD9544397
Probable space group: P 42/M
;
_chemical_formula_sum "Si O2"
_cell_formula_units_Z 48
_cell_length_a 9.045533
_cell_length_b 9.045533
_cell_length_c 29.771414
_cell_angle_alpha 90.000000
_cell_angle_beta 90.000000
_cell_angle_gamma 90.000000
_cell_volume 2435.946730
_symmetry_space_group_name_H-M "P 42/M"
_symmetry_group_IT_number 84
_symmetry_cell_setting 'tetragonal'
loop_
_space_group_symop_operation_xyz
x,y,z
-y,x,1/2+z
-x,-y,z
y,-x,1/2+z
-x,-y,-z
y,-x,1/2-z
x,y,-z
-y,x,1/2-z
loop_
_atom_site_type_symbol
_atom_site_label
_atom_site_fract_x
_atom_site_fract_y
_atom_site_fract_z
Si Si1 0.220549 0.944760 0.767751
Si Si2 0.928700 0.839523 0.550254
Si Si3 0.427704 0.339232 0.361760
Si Si4 0.547936 0.276072 0.733133
Si Si5 0.160149 0.573483 0.950207
Si Si6 0.339653 0.929243 0.861827
O O1 0.370400 0.867747 0.751227
O O2 0.239823 0.980872 0.820034
O O3 0.088228 0.827857 0.759956
O O4 0.969681 0.786519 0.500000
O O5 0.751068 0.855256 0.551527
O O6 0.971761 0.732056 0.590616
O O7 0.000000 0.000000 0.556675
O O8 0.500000 0.500000 0.361309
O O9 0.488060 0.259406 0.317134
O O10 0.470477 0.258715 0.407898
O O11 0.249571 0.348065 0.359111
O O12 0.411626 0.334029 0.763512
O O13 0.000000 0.500000 0.946424
O O14 0.220723 0.535245 0.000000
O O15 0.500000 0.000000 0.857458
#
# Coordination Sequence:
#
# PCOD9544397 Si02
#       6
#     8   8   8   8   8   8
#     4  11  27  42  58  90 123 161 202 258 308 364
#     4   9  20  40  65  90 122 160 203 254 310 375
#     4  11  22  38  60  91 116 160 204 243 301 364
#     4  11  21  40  63  86 120 160 203 250 289 371
#     4   9  20  39  60  89 122 153 198 251 304 362
#     4  11  25  40  62  89 123 163 204 258 309 366
#
# _framework density 19.704864000000001
#
# number of rings (size 3 to 8) (size 9 to 14) (size 15 to 20)
#    0.000    1.667    3.333    0.000    7.000    4.667 
#    0.000    0.000    0.000    0.000    0.000    0.000 
#    0.000    0.000    0.000    0.000    0.000    0.000 
#
# Total GULP energy -268208.732875 kJ/mol
# GULP energy per Si atom -5587.681935 kJ/mol
# Density = 1.966001 g / cm^3
# Si number density = 19.704864 Si / 1000 Ang^3
#
#
#
# Elastic Constant Matrix: (Units=GPa)
#
#
# Indices 1 2 3 4 5 6 
#
# 1 37.7655 19.7734 43.7057 0.0000 0.0000 6.5167
# 2 19.7734 37.7655 43.7057 0.0000 0.0000 -6.5167
# 3 43.7057 43.7057 178.5247 0.0000 0.0000 0.0000
# 4 0.0000 0.0000 0.0000 17.8482 0.0000 0.0000
# 5 0.0000 0.0000 0.0000 0.0000 17.8482 0.0000
# 6 6.5167 -6.5167 0.0000 0.0000 0.0000 42.2733
#
#
#
# Elastic Compliance Matrix: (Units=1/GPa)
#
#
# Indices 1 2 3 4 5 6 
#
# 1 0.045119 -0.017448 -0.006774 0.000000 0.000000 -0.009645
# 2 -0.017448 0.045119 -0.006774 0.000000 0.000000 0.009645
# 3 -0.006774 -0.006774 0.008918 0.000000 0.000000 0.000000
# 4 0.000000 0.000000 0.000000 0.056028 0.000000 0.000000
# 5 0.000000 0.000000 0.000000 0.000000 0.056028 0.000000
# 6 -0.009645 0.009645 0.000000 0.000000 0.000000 0.026629
#
#
# Mechanical properties :
#
#
# Convention : Reuss Voigt Hill
#
# Bulk Modulus (GPa) = 26.90852 52.04726 39.47789
# Shear Modulus (GPa) = 16.01425 25.38534 20.69980
#
# Velocity S-wave (km/s) = 2.85389 3.59315 3.24465
# Velocity P-wave (km/s) = 4.95429 6.60947 5.84081
#
# Compressibility (1/GPa) = 0.03716295
#
# Stress axis : x y z
#
# Youngs Moduli (GPa) = 22.16371 22.16371 112.12820
#
# Poissons Ratio (x) = 0.38671 0.75959
# Poissons Ratio (y) = 0.38671 0.75959
# Poissons Ratio (z) = 0.15014 0.15014
#
# Static dielectric constant tensor:
#      x y z
#    x 1.686770 0.000000 0.000000 
#    y 0.000000 1.686770 0.000000 
#    z 0.000000 0.000000 1.707990 
# 
# From -- ./inp_files/5809.got.cif
#   From: 2010.05.17/outbox.cif.g08.bks.cpg/sg84_3_cif.got.tgz:5809.got - 2010.06.03 18:57:40.
