data_PCOD9544663
_publ_section_title
;
Structure prediction by ZEFSAII (Michael W. Deem and Ramdas Pophale) SiO2 
 PCOD9544663
Probable space group: P 4/N
;
_chemical_formula_sum "Si O2"
_cell_formula_units_Z 40
_cell_length_a 11.316471
_cell_length_b 11.316471
_cell_length_c 13.633988
_cell_angle_alpha 90.000000
_cell_angle_beta 90.000000
_cell_angle_gamma 90.000000
_cell_volume 1746.002805
_symmetry_space_group_name_H-M "P 4/N"
_symmetry_group_IT_number 85
_symmetry_cell_setting 'tetragonal'
loop_
_space_group_symop_operation_xyz
x,y,z
1/2-y,x,z
1/2-x,1/2-y,z
y,1/2-x,z
-x,-y,-z
1/2+y,-x,-z
1/2+x,1/2+y,-z
-y,1/2+x,-z
loop_
_atom_site_type_symbol
_atom_site_label
_atom_site_fract_x
_atom_site_fract_y
_atom_site_fract_z
Si Si1 0.588591 0.864779 0.845019
Si Si2 0.658704 0.571163 0.487313
Si Si3 0.070667 0.696835 0.017036
Si Si4 0.050746 0.237160 0.781664
Si Si5 0.035734 0.948347 0.338411
O O1 0.593923 0.722977 0.834534
O O2 0.517203 0.931537 0.760868
O O3 0.523516 0.873604 0.950546
O O4 0.797747 0.598513 0.489466
O O5 0.587564 0.519618 0.393719
O O6 0.629001 0.489789 0.579950
O O7 0.015913 0.747018 0.116485
O O8 0.118945 0.813614 0.961422
O O9 0.146740 0.131292 0.777060
O O10 0.964858 0.188300 0.696681
#
# Coordination Sequence:
#
# PCOD9544663 Si02
#       5
#     8   8   8   8   8
#     4  11  24  42  67 100 135 188 247 293 356 443
#     4  10  22  44  72 102 138 182 237 299 378 468
#     4  11  24  43  66 102 144 189 238 305 364 426
#     4  11  24  42  67 100 135 188 247 293 356 443
#     4  11  22  40  70 103 136 180 233 306 364 425
#
# _framework density 22.909469000000001
#
# number of rings (size 3 to 8) (size 9 to 14) (size 15 to 20)
#    0.000    1.200    2.000    3.600    2.800    6.400 
#    0.000    0.000    4.400    7.800    0.000    0.000 
#    0.000    0.000    0.000    0.000    0.000    0.000 
#
# Total GULP energy -223185.465274 kJ/mol
# GULP energy per Si atom -5579.636632 kJ/mol
# Density = 2.285733 g / cm^3
# Si number density = 22.909469 Si / 1000 Ang^3
#
#
#
# Elastic Constant Matrix: (Units=GPa)
#
#
# Indices 1 2 3 4 5 6 
#
# 1 105.0671 47.9292 45.6745 0.0000 0.0000 2.5673
# 2 47.9292 105.0671 45.6745 0.0000 0.0000 -2.5673
# 3 45.6745 45.6745 148.8263 0.0000 0.0000 0.0000
# 4 0.0000 0.0000 0.0000 40.4507 0.0000 0.0000
# 5 0.0000 0.0000 0.0000 0.0000 40.4507 0.0000
# 6 2.5673 -2.5673 0.0000 0.0000 0.0000 40.8025
#
#
#
# Elastic Compliance Matrix: (Units=1/GPa)
#
#
# Indices 1 2 3 4 5 6 
#
# 1 0.012802 -0.004799 -0.002456 0.000000 0.000000 -0.001107
# 2 -0.004799 0.012802 -0.002456 0.000000 0.000000 0.001107
# 3 -0.002456 -0.002456 0.008227 0.000000 0.000000 0.000000
# 4 0.000000 0.000000 0.000000 0.024721 0.000000 0.000000
# 5 0.000000 0.000000 0.000000 0.000000 0.024721 0.000000
# 6 -0.001107 0.001107 0.000000 0.000000 0.000000 0.024648
#
#
# Mechanical properties :
#
#
# Convention : Reuss Voigt Hill
#
# Bulk Modulus (GPa) = 69.40656 70.83521 70.12088
# Shear Modulus (GPa) = 37.83701 38.98625 38.41163
#
# Velocity S-wave (km/s) = 4.06838 4.12971 4.09916
# Velocity P-wave (km/s) = 7.24091 7.32980 7.28549
#
# Compressibility (1/GPa) = 0.01440786
#
# Stress axis : x y z
#
# Youngs Moduli (GPa) = 78.11433 78.11433 121.55556
#
# Poissons Ratio (x) = 0.37489 0.29853
# Poissons Ratio (y) = 0.37489 0.29853
# Poissons Ratio (z) = 0.19184 0.19184
#
# Static dielectric constant tensor:
#      x y z
#    x 1.891540 0.000000 0.000000 
#    y 0.000000 1.891540 0.000000 
#    z 0.000000 0.000000 1.885850 
# 
# From -- ./inp_files/1915.got.cif
#   From: 2010.05.17/outbox.cif.g08.bks.cpg/sg85_cif.got.tgz:1915.got - 2010.06.03 19:01:16.
