data_PCOD9544488
_publ_section_title
;
Structure prediction by ZEFSAII (Michael W. Deem and Ramdas Pophale) SiO2 
 PCOD9544488
Probable space group: P 4/N
;
_chemical_formula_sum "Si O2"
_cell_formula_units_Z 48
_cell_length_a 16.288426
_cell_length_b 16.288426
_cell_length_c 7.054108
_cell_angle_alpha 90.000000
_cell_angle_beta 90.000000
_cell_angle_gamma 90.000000
_cell_volume 1871.545297
_symmetry_space_group_name_H-M "P 4/N"
_symmetry_group_IT_number 85
_symmetry_cell_setting 'tetragonal'
loop_
_space_group_symop_operation_xyz
x,y,z
1/2-y,x,z
1/2-x,1/2-y,z
y,1/2-x,z
-x,-y,-z
1/2+y,-x,-z
1/2+x,1/2+y,-z
-y,1/2+x,-z
loop_
_atom_site_type_symbol
_atom_site_label
_atom_site_fract_x
_atom_site_fract_y
_atom_site_fract_z
Si Si1 0.572863 0.830046 0.598994
Si Si2 0.337523 0.152041 0.016382
Si Si3 0.817511 0.072571 0.901233
Si Si4 0.860657 0.476422 0.941227
Si Si5 0.346083 0.691770 0.391911
Si Si6 0.022209 0.155691 0.501136
O O1 0.646362 0.835526 0.755600
O O2 0.492887 0.833692 0.732795
O O3 0.564460 0.745255 0.487989
O O4 0.587234 0.908834 0.468333
O O5 0.360946 0.243231 0.953282
O O6 0.381383 0.065908 0.972552
O O7 0.733297 0.046030 0.998181
O O8 0.803744 0.159673 0.797705
O O9 0.900002 0.081624 0.019235
O O10 0.855319 0.491635 0.716034
O O11 0.288024 0.654564 0.559339
O O12 0.437767 0.656889 0.385978
#
# Coordination Sequence:
#
# PCOD9544488 Si02
#       6
#     8   8   8   8   8   8
#     4  10  18  37  59  92 116 147 198 248 288 348
#     4  10  17  33  62  87 116 147 189 241 289 344
#     4  11  23  39  56  89 123 151 202 244 303 342
#     4  10  22  37  57  91 118 150 196 248 292 354
#     4  11  23  41  60  81 118 167 200 240 288 361
#     4  10  21  38  62  90 119 151 202 239 297 352
#
# _framework density 25.647255000000001
#
# number of rings (size 3 to 8) (size 9 to 14) (size 15 to 20)
#    0.000    1.667    8.333    0.000    2.333    4.000 
#    0.000    0.000    0.000    0.000    0.000    0.000 
#    0.000    0.000    0.000    0.000    0.000    0.000 
#
# Total GULP energy -268065.589976 kJ/mol
# GULP energy per Si atom -5584.699791 kJ/mol
# Density = 2.558888 g / cm^3
# Si number density = 25.647255 Si / 1000 Ang^3
#
#
#
# Elastic Constant Matrix: (Units=GPa)
#
#
# Indices 1 2 3 4 5 6 
#
# 1 111.8108 22.2565 14.9091 0.0000 0.0000 0.5577
# 2 22.2565 111.8108 14.9091 0.0000 0.0000 -0.5577
# 3 14.9091 14.9091 58.5058 0.0000 0.0000 0.0000
# 4 0.0000 0.0000 0.0000 15.7703 0.0000 0.0000
# 5 0.0000 0.0000 0.0000 0.0000 15.7703 0.0000
# 6 0.5577 -0.5577 0.0000 0.0000 0.0000 41.0141
#
#
#
# Elastic Compliance Matrix: (Units=1/GPa)
#
#
# Indices 1 2 3 4 5 6 
#
# 1 0.009538 -0.001631 -0.002015 0.000000 0.000000 -0.000152
# 2 -0.001631 0.009538 -0.002015 0.000000 0.000000 0.000152
# 3 -0.002015 -0.002015 0.018119 0.000000 0.000000 0.000000
# 4 0.000000 0.000000 0.000000 0.063410 0.000000 0.000000
# 5 0.000000 0.000000 0.000000 0.000000 0.063410 0.000000
# 6 -0.000152 0.000152 0.000000 0.000000 0.000000 0.024386
#
#
# Mechanical properties :
#
#
# Convention : Reuss Voigt Hill
#
# Bulk Modulus (GPa) = 38.64949 42.91966 40.78458
# Shear Modulus (GPa) = 23.99844 29.84780 26.92312
#
# Velocity S-wave (km/s) = 3.06226 3.41513 3.24349
# Velocity P-wave (km/s) = 5.25410 5.68522 5.47391
#
# Compressibility (1/GPa) = 0.02587356
#
# Stress axis : x y z
#
# Youngs Moduli (GPa) = 104.84714 104.84714 55.18983
#
# Poissons Ratio (x) = 0.17096 0.11121
# Poissons Ratio (y) = 0.17096 0.11121
# Poissons Ratio (z) = 0.21126 0.21126
#
# Static dielectric constant tensor:
#      x y z
#    x 2.035730 0.000000 0.000000 
#    y 0.000000 2.035730 0.000000 
#    z 0.000000 0.000000 2.065080 
# 
# From -- ./inp_files/1080.got.cif
#   From: 2010.05.17/outbox.cif.g08.bks.cpg/sg85_cif.got.tgz:1080.got - 2010.06.03 19:01:16.
