data_PCOD9544254
_publ_section_title
;
Structure prediction by ZEFSAII (Michael W. Deem and Ramdas Pophale) SiO2 
 PCOD9544254
Probable space group: P 42/M
;
_chemical_formula_sum "Si O2"
_cell_formula_units_Z 48
_cell_length_a 9.550107
_cell_length_b 9.550107
_cell_length_c 28.839558
_cell_angle_alpha 90.000000
_cell_angle_beta 90.000000
_cell_angle_gamma 90.000000
_cell_volume 2630.298728
_symmetry_space_group_name_H-M "P 42/M"
_symmetry_group_IT_number 84
_symmetry_cell_setting 'tetragonal'
loop_
_space_group_symop_operation_xyz
x,y,z
-y,x,1/2+z
-x,-y,z
y,-x,1/2+z
-x,-y,-z
y,-x,1/2-z
x,y,-z
-y,x,1/2-z
loop_
_atom_site_type_symbol
_atom_site_label
_atom_site_fract_x
_atom_site_fract_y
_atom_site_fract_z
Si Si1 0.179689 0.241693 0.696560
Si Si2 0.911029 0.644307 0.949566
Si Si3 0.788915 0.848196 0.201528
Si Si4 0.669212 0.988234 0.648150
Si Si5 0.423496 0.351583 0.947749
Si Si6 0.481394 0.160644 0.139618
O O1 0.243231 0.203444 0.746530
O O2 0.180932 0.400921 0.679288
O O3 0.016914 0.190222 0.699550
O O4 0.273913 0.164756 0.658436
O O5 0.964523 0.715825 0.903035
O O6 0.744323 0.623992 0.943760
O O7 0.000000 0.500000 0.950730
O O8 0.933222 0.713077 0.000000
O O9 0.917660 0.753754 0.184691
O O10 0.664576 0.819295 0.165859
O O11 0.500000 0.000000 0.652613
O O12 0.500000 0.500000 0.945331
O O13 0.479874 0.257437 0.905723
O O14 0.447878 0.293193 0.000000
O O15 0.500000 0.000000 0.124161
#
# Coordination Sequence:
#
# PCOD9544254 Si02
#       6
#     8   8   8   8   8   8
#     4  11  24  38  62  85 120 162 200 243 298 357
#     4   9  19  37  60  88 120 153 194 248 299 348
#     4  11  22  41  60  85 118 162 202 242 295 359
#     4  11  23  36  62  91 116 157 200 246 292 353
#     4  10  21  39  64  89 118 157 198 243 304 363
#     4  10  24  41  59  88 123 155 198 252 297 352
#
# _framework density 18.24888
#
# number of rings (size 3 to 8) (size 9 to 14) (size 15 to 20)
#    0.000    1.667    3.333    0.500    7.000    0.333 
#    0.000    0.000    0.000    3.000    0.000    0.000 
#    0.000    0.000    0.000    0.000    0.000    0.000 
#
# Total GULP energy -267445.651333 kJ/mol
# GULP energy per Si atom -5571.784403 kJ/mol
# Density = 1.820734 g / cm^3
# Si number density = 18.248880 Si / 1000 Ang^3
#
#
#
# Elastic Constant Matrix: (Units=GPa)
#
#
# Indices 1 2 3 4 5 6 
#
# 1 41.3714 9.9043 13.1608 0.0000 0.0000 -0.6413
# 2 9.9043 41.3714 13.1608 0.0000 0.0000 0.6413
# 3 13.1608 13.1608 122.8578 0.0000 0.0000 0.0000
# 4 0.0000 0.0000 0.0000 330.5610 0.0000 0.0000
# 5 0.0000 0.0000 0.0000 0.0000 330.5610 0.0000
# 6 -0.6413 0.6413 0.0000 0.0000 0.0000 26.7722
#
#
#
# Elastic Compliance Matrix: (Units=1/GPa)
#
#
# Indices 1 2 3 4 5 6 
#
# 1 0.026224 -0.005587 -0.002211 0.000000 0.000000 0.000762
# 2 -0.005587 0.026224 -0.002211 0.000000 0.000000 -0.000762
# 3 -0.002211 -0.002211 0.008613 0.000000 0.000000 0.000000
# 4 0.000000 0.000000 0.000000 0.003025 0.000000 0.000000
# 5 0.000000 0.000000 0.000000 0.000000 0.003025 0.000000
# 6 0.000762 -0.000762 0.000000 0.000000 0.000000 0.037389
#
#
# Mechanical properties :
#
#
# Convention : Reuss Voigt Hill
#
# Bulk Modulus (GPa) = 24.36365 30.89473 27.62919
# Shear Modulus (GPa) = 36.18019 148.87050 92.52535
#
# Velocity S-wave (km/s) = 4.45747 9.04185 7.12825
# Velocity P-wave (km/s) = 6.31441 11.22377 9.10617
#
# Compressibility (1/GPa) = 0.04104476
#
# Stress axis : x y z
#
# Youngs Moduli (GPa) = 38.13332 38.13332 116.10193
#
# Poissons Ratio (x) = 0.21303 0.25667
# Poissons Ratio (y) = 0.21303 0.25667
# Poissons Ratio (z) = 0.08430 0.08430
#
# Static dielectric constant tensor:
#      x y z
#    x 1.626680 0.000000 0.000000 
#    y 0.000000 1.626680 0.000000 
#    z 0.000000 0.000000 1.640460 
# 
# From -- ./inp_files/5735.got.cif
#   From: 2010.05.17/outbox.cif.g08.bks.cpg/sg84_3_cif.got.tgz:5735.got - 2010.06.03 18:57:40.
