data_PCOD9544117
_publ_section_title
;
Structure prediction by ZEFSAII (Michael W. Deem and Ramdas Pophale) SiO2 
 PCOD9544117
Probable space group: P 42/M
;
_chemical_formula_sum "Si O2"
_cell_formula_units_Z 64
_cell_length_a 12.272741
_cell_length_b 12.272741
_cell_length_c 21.932284
_cell_angle_alpha 90.000000
_cell_angle_beta 90.000000
_cell_angle_gamma 90.000000
_cell_volume 3303.444381
_symmetry_space_group_name_H-M "P 42/M"
_symmetry_group_IT_number 84
_symmetry_cell_setting 'tetragonal'
loop_
_space_group_symop_operation_xyz
x,y,z
-y,x,1/2+z
-x,-y,z
y,-x,1/2+z
-x,-y,-z
y,-x,1/2-z
x,y,-z
-y,x,1/2-z
loop_
_atom_site_type_symbol
_atom_site_label
_atom_site_fract_x
_atom_site_fract_y
_atom_site_fract_z
Si Si1 0.146221 0.235914 0.430001
Si Si2 0.766715 0.472012 0.071225
Si Si3 0.182224 0.038483 0.753804
Si Si4 0.044120 0.618491 0.156376
Si Si5 0.780643 0.911326 0.891124
Si Si6 0.298595 0.418627 0.429113
Si Si7 0.691893 0.338390 0.426610
Si Si8 0.792977 0.007300 0.427244
O O1 0.185604 0.231535 0.500000
O O2 0.209132 0.337158 0.400545
O O3 0.171188 0.114240 0.407097
O O4 0.018214 0.252807 0.427586
O O5 0.847125 0.411400 0.117766
O O6 0.652186 0.407715 0.070436
O O7 0.736424 0.592010 0.093678
O O8 0.807217 0.470902 0.000000
O O9 0.284876 0.049640 0.707125
O O10 0.228866 0.060585 0.820612
O O11 0.081798 0.125001 0.745974
O O12 0.970621 0.677292 0.104403
O O13 0.000000 0.500000 0.177583
O O14 0.712201 0.806871 0.909601
O O15 0.905806 0.881112 0.905500
O O16 0.265818 0.437774 0.500000
O O17 0.313642 0.538106 0.402427
O O18 0.680544 0.339932 0.500000
O O19 0.785086 0.013249 0.500000
#
# Coordination Sequence:
#
# PCOD9544117 Si02
#       8
#     8   8   8   8   8   8   8   8
#     4  10  20  34  57  92 129 163 200 248 311 379
#     4  10  20  37  64  96 128 163 203 253 320 384
#     4  11  26  47  67  84 116 169 223 257 299 377
#     4  12  24  41  63  93 127 160 205 265 320 369
#     4  12  23  38  60  88 124 161 210 256 316 372
#     4   9  18  35  57  87 126 165 203 237 292 378
#     4  10  21  37  61  95 131 165 201 254 316 379
#     4  11  21  37  62  97 132 159 197 257 327 390
#
# _framework density 19.373719000000001
#
# number of rings (size 3 to 8) (size 9 to 14) (size 15 to 20)
#    0.000    1.375    2.500    3.750    1.750    5.000 
#    2.250    1.875    0.000    0.000    0.000    0.000 
#    0.000    0.000    0.000    0.000    0.000    0.000 
#
# Total GULP energy -356915.053472 kJ/mol
# GULP energy per Si atom -5576.797710 kJ/mol
# Density = 1.932962 g / cm^3
# Si number density = 19.373719 Si / 1000 Ang^3
#
#
#
# Elastic Constant Matrix: (Units=GPa)
#
#
# Indices 1 2 3 4 5 6 
#
# 1 117.8445 44.5264 22.1591 0.0000 0.0000 -2.2476
# 2 44.5264 117.8445 22.1591 0.0000 0.0000 2.2476
# 3 22.1591 22.1591 68.9329 0.0000 0.0000 0.0000
# 4 0.0000 0.0000 0.0000 11.6383 0.0000 0.0000
# 5 0.0000 0.0000 0.0000 0.0000 11.6383 0.0000
# 6 -2.2476 2.2476 0.0000 0.0000 0.0000 9.8417
#
#
#
# Elastic Compliance Matrix: (Units=1/GPa)
#
#
# Indices 1 2 3 4 5 6 
#
# 1 0.010292 -0.003541 -0.002170 0.000000 0.000000 0.003159
# 2 -0.003541 0.010292 -0.002170 0.000000 0.000000 -0.003159
# 3 -0.002170 -0.002170 0.015902 0.000000 0.000000 0.000000
# 4 0.000000 0.000000 0.000000 0.085923 0.000000 0.000000
# 5 0.000000 0.000000 0.000000 0.000000 0.085923 0.000000
# 6 0.003159 -0.003159 0.000000 0.000000 0.000000 0.103052
#
#
# Mechanical properties :
#
#
# Convention : Reuss Voigt Hill
#
# Bulk Modulus (GPa) = 48.25439 53.59010 50.92224
# Shear Modulus (GPa) = 14.96762 21.00882 17.98822
#
# Velocity S-wave (km/s) = 2.78254 3.29659 3.05041
# Velocity P-wave (km/s) = 5.94008 6.49702 6.22478
#
# Compressibility (1/GPa) = 0.02072350
#
# Stress axis : x y z
#
# Youngs Moduli (GPa) = 97.16304 97.16304 62.88475
#
# Poissons Ratio (x) = 0.34404 0.13647
# Poissons Ratio (y) = 0.34404 0.13647
# Poissons Ratio (z) = 0.21086 0.21086
#
# Static dielectric constant tensor:
#      x y z
#    x 1.724830 0.000000 0.000000 
#    y 0.000000 1.724830 0.000000 
#    z 0.000000 0.000000 1.680390 
# 
# From -- ./inp_files/5083.got.cif
#   From: 2010.05.17/outbox.cif.g08.bks.cpg/sg84_3_cif.got.tgz:5083.got - 2010.06.03 18:57:40.
