data_PCOD9544695
_publ_section_title
;
Structure prediction by ZEFSAII (Michael W. Deem and Ramdas Pophale) SiO2 
 PCOD9544695
Probable space group: P 4/N
;
_chemical_formula_sum "Si O2"
_cell_formula_units_Z 40
_cell_length_a 12.606795
_cell_length_b 12.606795
_cell_length_c 11.063705
_cell_angle_alpha 90.000000
_cell_angle_beta 90.000000
_cell_angle_gamma 90.000000
_cell_volume 1758.368799
_symmetry_space_group_name_H-M "P 4/N"
_symmetry_group_IT_number 85
_symmetry_cell_setting 'tetragonal'
loop_
_space_group_symop_operation_xyz
x,y,z
1/2-y,x,z
1/2-x,1/2-y,z
y,1/2-x,z
-x,-y,-z
1/2+y,-x,-z
1/2+x,1/2+y,-z
-y,1/2+x,-z
loop_
_atom_site_type_symbol
_atom_site_label
_atom_site_fract_x
_atom_site_fract_y
_atom_site_fract_z
Si Si1 0.380037 0.607215 0.402567
Si Si2 0.161354 0.105557 0.989232
Si Si3 0.664292 0.366110 0.347756
Si Si4 0.895450 0.659856 0.720263
Si Si5 0.840110 0.121711 0.064170
O O1 0.255373 0.642567 0.391642
O O2 0.424202 0.719713 0.355714
O O3 0.399711 0.578770 0.542907
O O4 0.393559 0.503131 0.323284
O O5 0.284321 0.110867 0.948296
O O6 0.159963 0.106651 0.134750
O O7 0.113037 0.994613 0.951407
O O8 0.643558 0.355154 0.205380
O O9 0.891940 0.783920 0.680443
O O10 0.717178 0.117127 0.019089
#
# Coordination Sequence:
#
# PCOD9544695 Si02
#       5
#     8   8   8   8   8
#     4   9  16  33  51  67  98 126 156 200 239 284
#     4   9  19  35  52  71  99 134 167 200 243 294
#     4   9  18  30  50  73  94 128 158 191 248 289
#     4   9  17  31  52  73  93 124 163 198 235 280
#     4  11  20  31  51  79 104 126 162 206 245 290
#
# _framework density 22.748355
#
# number of rings (size 3 to 8) (size 9 to 14) (size 15 to 20)
#    0.000    2.600    0.000    7.200    0.000    0.800 
#    0.000    8.000    0.000    2.400    0.000    0.000 
#    0.000    0.000    0.000    0.000    0.000    0.000 
#
# Total GULP energy -222696.648737 kJ/mol
# GULP energy per Si atom -5567.416218 kJ/mol
# Density = 2.269658 g / cm^3
# Si number density = 22.748355 Si / 1000 Ang^3
#
#
#
# Elastic Constant Matrix: (Units=GPa)
#
#
# Indices 1 2 3 4 5 6 
#
# 1 76.5722 -6.2084 8.5546 0.0000 0.0000 -1.9822
# 2 -6.2084 76.5722 8.5546 0.0000 0.0000 1.9822
# 3 8.5546 8.5546 101.0730 0.0000 0.0000 0.0000
# 4 0.0000 0.0000 0.0000 12.9417 0.0000 0.0000
# 5 0.0000 0.0000 0.0000 0.0000 12.9417 0.0000
# 6 -1.9822 1.9822 0.0000 0.0000 0.0000 -9.6386
#
#
#
# Elastic Compliance Matrix: (Units=1/GPa)
#
#
# Indices 1 2 3 4 5 6 
#
# 1 0.013236 0.001274 -0.001228 0.000000 0.000000 -0.002460
# 2 0.001274 0.013236 -0.001228 0.000000 0.000000 0.002460
# 3 -0.001228 -0.001228 0.010102 0.000000 0.000000 0.000000
# 4 0.000000 0.000000 0.000000 0.077269 0.000000 0.000000
# 5 0.000000 0.000000 0.000000 0.000000 0.077269 0.000000
# 6 -0.002460 0.002460 0.000000 0.000000 0.000000 -0.102738
#
#
# Mechanical properties :
#
#
# Convention : Reuss Voigt Hill
#
# Bulk Modulus (GPa) = 29.23111 30.66880 29.94995
# Shear Modulus (GPa) = 48.95089 19.47008 34.21048
#
# Velocity S-wave (km/s) = 4.64383 2.92873 3.88218
# Velocity P-wave (km/s) = 6.45222 4.99476 5.76970
#
# Compressibility (1/GPa) = 0.03421013
#
# Stress axis : x y z
#
# Youngs Moduli (GPa) = 75.54924 75.54924 98.99294
#
# Poissons Ratio (x) = -0.09626 0.12158
# Poissons Ratio (y) = -0.09626 0.12158
# Poissons Ratio (z) = 0.09279 0.09279
#
# Static dielectric constant tensor:
#      x y z
#    x 1.966780 0.000000 0.000000 
#    y 0.000000 1.966780 0.000000 
#    z 0.000000 0.000000 1.858670 
# 
# From -- ./inp_files/1562.got.cif
#   From: 2010.05.17/outbox.cif.g08.bks.cpg/sg85_cif.got.tgz:1562.got - 2010.06.03 19:01:16.
