data_PCOD9544067
_publ_section_title
;
Structure prediction by ZEFSAII (Michael W. Deem and Ramdas Pophale) SiO2 
 PCOD9544067
Probable space group: P 42/M
;
_chemical_formula_sum "Si O2"
_cell_formula_units_Z 40
_cell_length_a 15.986170
_cell_length_b 15.986170
_cell_length_c 8.778684
_cell_angle_alpha 90.000000
_cell_angle_beta 90.000000
_cell_angle_gamma 90.000000
_cell_volume 2243.459689
_symmetry_space_group_name_H-M "P 42/M"
_symmetry_group_IT_number 84
_symmetry_cell_setting 'tetragonal'
loop_
_space_group_symop_operation_xyz
x,y,z
-y,x,1/2+z
-x,-y,z
y,-x,1/2+z
-x,-y,-z
y,-x,1/2-z
x,y,-z
-y,x,1/2-z
loop_
_atom_site_type_symbol
_atom_site_label
_atom_site_fract_x
_atom_site_fract_y
_atom_site_fract_z
Si Si1 0.926766 0.570340 0.325512
Si Si2 0.045502 0.880671 0.817814
Si Si3 0.538427 0.622692 0.818301
Si Si4 0.554348 0.803547 0.681480
Si Si5 0.944668 0.310725 0.182641
O O1 0.900736 0.583022 0.500000
O O2 0.851701 0.530573 0.229407
O O3 0.000000 0.500000 0.322809
O O4 0.971949 0.651579 0.258276
O O5 0.068530 0.785816 0.777651
O O6 0.950454 0.899425 0.766345
O O7 0.052668 0.891687 0.000000
O O8 0.598955 0.554002 0.742174
O O9 0.560369 0.715804 0.766304
O O10 0.541356 0.614144 0.000000
O O11 0.555863 0.790980 0.500000
O O12 0.630362 0.866160 0.724152
O O13 0.954455 0.316984 0.000000
#
# Coordination Sequence:
#
# PCOD9544067 Si02
#       5
#     8   8   8   8   8
#     4   9  17  30  51  79 109 142 178 219 269 323
#     4  10  20  36  56  78 105 143 183 224 271 325
#     4  11  22  39  60  82 109 146 185 225 273 327
#     4  10  19  35  57  81 111 146 182 226 273 324
#     4   9  19  35  55  79 110 145 182 224 274 327
#
# _framework density 17.829605000000001
#
# number of rings (size 3 to 8) (size 9 to 14) (size 15 to 20)
#    0.000    2.200    0.000    4.800    0.000    4.800 
#    3.600    0.000    0.000    0.000    0.000    0.000 
#    0.000    0.000    0.000    0.000    0.000    0.000 
#
# Total GULP energy -223207.615768 kJ/mol
# GULP energy per Si atom -5580.190394 kJ/mol
# Density = 1.778902 g / cm^3
# Si number density = 17.829605 Si / 1000 Ang^3
#
#
#
# Elastic Constant Matrix: (Units=GPa)
#
#
# Indices 1 2 3 4 5 6 
#
# 1 79.6374 33.5187 27.0042 0.0000 0.0000 -0.3798
# 2 33.5187 79.6374 27.0042 0.0000 0.0000 0.3798
# 3 27.0042 27.0042 68.6181 0.0000 0.0000 0.0000
# 4 0.0000 0.0000 0.0000 26.0543 0.0000 0.0000
# 5 0.0000 0.0000 0.0000 0.0000 26.0543 0.0000
# 6 -0.3798 0.3798 0.0000 0.0000 0.0000 6.9904
#
#
#
# Elastic Compliance Matrix: (Units=1/GPa)
#
#
# Indices 1 2 3 4 5 6 
#
# 1 0.016292 -0.005411 -0.004282 0.000000 0.000000 0.001179
# 2 -0.005411 0.016292 -0.004282 0.000000 0.000000 -0.001179
# 3 -0.004282 -0.004282 0.017944 0.000000 0.000000 0.000000
# 4 0.000000 0.000000 0.000000 0.038381 0.000000 0.000000
# 5 0.000000 0.000000 0.000000 0.000000 0.038381 0.000000
# 6 0.001179 -0.001179 0.000000 0.000000 0.000000 0.143181
#
#
# Mechanical properties :
#
#
# Convention : Reuss Voigt Hill
#
# Bulk Modulus (GPa) = 44.29203 44.77188 44.53195
# Shear Modulus (GPa) = 16.34268 21.17753 18.76010
#
# Velocity S-wave (km/s) = 3.03083 3.45015 3.24726
# Velocity P-wave (km/s) = 6.09456 6.40600 6.25222
#
# Compressibility (1/GPa) = 0.02257743
#
# Stress axis : x y z
#
# Youngs Moduli (GPa) = 61.38014 61.38014 55.72920
#
# Poissons Ratio (x) = 0.33211 0.23865
# Poissons Ratio (y) = 0.33211 0.23865
# Poissons Ratio (z) = 0.26284 0.26284
#
# Static dielectric constant tensor:
#      x y z
#    x 1.598500 0.000000 0.000000 
#    y 0.000000 1.598500 0.000000 
#    z 0.000000 0.000000 1.599350 
# 
# From -- ./inp_files/732.got.cif
#   From: 2010.05.17/outbox.cif.g08.bks.cpg/sg84_1_cif.got.tgz:732.got - 2010.06.03 18:57:40.
