data_PCOD9544283
_publ_section_title
;
Structure prediction by ZEFSAII (Michael W. Deem and Ramdas Pophale) SiO2 
 PCOD9544283
Probable space group: P 42/M
;
_chemical_formula_sum "Si O2"
_cell_formula_units_Z 48
_cell_length_a 11.437704
_cell_length_b 11.437704
_cell_length_c 17.947183
_cell_angle_alpha 90.000000
_cell_angle_beta 90.000000
_cell_angle_gamma 90.000000
_cell_volume 2347.869734
_symmetry_space_group_name_H-M "P 42/M"
_symmetry_group_IT_number 84
_symmetry_cell_setting 'tetragonal'
loop_
_space_group_symop_operation_xyz
x,y,z
-y,x,1/2+z
-x,-y,z
y,-x,1/2+z
-x,-y,-z
y,-x,1/2-z
x,y,-z
-y,x,1/2-z
loop_
_atom_site_type_symbol
_atom_site_label
_atom_site_fract_x
_atom_site_fract_y
_atom_site_fract_z
Si Si1 0.787511 0.468809 0.311337
Si Si2 0.628201 0.964892 0.306510
Si Si3 0.665630 0.122245 0.913969
Si Si4 0.632762 0.554021 0.826032
Si Si5 0.945584 0.817985 0.274545
Si Si6 0.220332 0.629792 0.918504
O O1 0.876509 0.393792 0.262019
O O2 0.865824 0.545116 0.367370
O O3 0.688912 0.386128 0.347453
O O4 0.704796 0.543082 0.252746
O O5 0.677385 0.889855 0.373197
O O6 0.500000 0.000000 0.331150
O O7 0.705874 0.071119 0.278709
O O8 0.764891 0.067040 0.858223
O O9 0.695709 0.259323 0.921065
O O10 0.660231 0.076010 0.000000
O O11 0.500000 0.500000 0.827522
O O12 0.712432 0.475419 0.878998
O O13 0.075252 0.862920 0.250102
O O14 0.184135 0.592962 0.000000
#
# Coordination Sequence:
#
# PCOD9544283 Si02
#       6
#     8   8   8   8   8   8
#     4  11  19  33  56  93 125 164 211 252 298 375
#     4  11  22  38  67  92 116 164 210 261 320 378
#     4  11  22  39  62  93 129 163 205 260 316 367
#     4  11  18  30  56  89 128 169 208 239 290 373
#     4  11  24  44  66  91 119 163 221 266 309 378
#     4  10  22  36  55  90 133 166 202 255 313 371
#
# _framework density 20.444064999999998
#
# number of rings (size 3 to 8) (size 9 to 14) (size 15 to 20)
#    0.000    1.167    6.667    1.000    0.000    1.333 
#    0.000    4.167    0.000    2.000    0.000    0.000 
#    0.000    0.000    0.000    0.000    0.000    0.000 
#
# Total GULP energy -267296.820823 kJ/mol
# GULP energy per Si atom -5568.683767 kJ/mol
# Density = 2.039753 g / cm^3
# Si number density = 20.444065 Si / 1000 Ang^3
#
#
#
# Elastic Constant Matrix: (Units=GPa)
#
#
# Indices 1 2 3 4 5 6 
#
# 1 61.6893 8.6941 32.0708 0.0000 0.0000 0.4074
# 2 8.6941 61.6893 32.0708 0.0000 0.0000 -0.4074
# 3 32.0708 32.0708 150.0401 0.0000 0.0000 0.0000
# 4 0.0000 0.0000 0.0000 11.5056 0.0000 0.0000
# 5 0.0000 0.0000 0.0000 0.0000 11.5056 0.0000
# 6 0.4074 -0.4074 0.0000 0.0000 0.0000 19.9656
#
#
#
# Elastic Compliance Matrix: (Units=1/GPa)
#
#
# Indices 1 2 3 4 5 6 
#
# 1 0.018260 -0.000615 -0.003772 0.000000 0.000000 -0.000385
# 2 -0.000615 0.018260 -0.003772 0.000000 0.000000 0.000385
# 3 -0.003772 -0.003772 0.008277 0.000000 0.000000 0.000000
# 4 0.000000 0.000000 0.000000 0.086914 0.000000 0.000000
# 5 0.000000 0.000000 0.000000 0.000000 0.086914 0.000000
# 6 -0.000385 0.000385 0.000000 0.000000 0.000000 0.050102
#
#
# Mechanical properties :
#
#
# Convention : Reuss Voigt Hill
#
# Bulk Modulus (GPa) = 35.11130 46.56557 40.83843
# Shear Modulus (GPa) = 16.97574 21.96758 19.47166
#
# Velocity S-wave (km/s) = 2.88471 3.28155 3.08950
# Velocity P-wave (km/s) = 5.32043 6.09791 5.72239
#
# Compressibility (1/GPa) = 0.02848086
#
# Stress axis : x y z
#
# Youngs Moduli (GPa) = 54.76371 54.76371 120.81351
#
# Poissons Ratio (x) = 0.03370 0.45566
# Poissons Ratio (y) = 0.03370 0.45566
# Poissons Ratio (z) = 0.20655 0.20655
#
# Static dielectric constant tensor:
#      x y z
#    x 1.795500 0.000000 0.000000 
#    y 0.000000 1.795500 0.000000 
#    z 0.000000 0.000000 1.774890 
# 
# From -- ./inp_files/3732.got.cif
#   From: 2010.05.17/outbox.cif.g08.bks.cpg/sg84_2_cif.got.tgz:3732.got - 2010.06.03 18:57:40.
