data_PCOD9544140
_publ_section_title
;
Structure prediction by ZEFSAII (Michael W. Deem and Ramdas Pophale) SiO2 
 PCOD9544140
Probable space group: P 42/M
;
_chemical_formula_sum "Si O2"
_cell_formula_units_Z 60
_cell_length_a 11.605812
_cell_length_b 11.605812
_cell_length_c 20.232568
_cell_angle_alpha 90.000000
_cell_angle_beta 90.000000
_cell_angle_gamma 90.000000
_cell_volume 2725.223161
_symmetry_space_group_name_H-M "P 42/M"
_symmetry_group_IT_number 84
_symmetry_cell_setting 'tetragonal'
loop_
_space_group_symop_operation_xyz
x,y,z
-y,x,1/2+z
-x,-y,z
y,-x,1/2+z
-x,-y,-z
y,-x,1/2-z
x,y,-z
-y,x,1/2-z
loop_
_atom_site_type_symbol
_atom_site_label
_atom_site_fract_x
_atom_site_fract_y
_atom_site_fract_z
Si Si1 0.168094 0.343056 0.674121
Si Si2 0.027615 0.634171 0.923331
Si Si3 0.878401 0.047065 0.423673
Si Si4 0.784746 0.385612 0.835975
Si Si5 0.367217 0.457651 0.076042
Si Si6 0.989039 0.286626 0.573996
Si Si7 0.000000 0.500000 0.239731
Si Si8 0.212472 0.544602 0.576804
O O1 0.278451 0.274459 0.700630
O O2 0.077812 0.406288 0.721586
O O3 0.223396 0.439617 0.626442
O O4 0.089053 0.266723 0.626026
O O5 0.971441 0.751033 0.893567
O O6 0.000000 0.500000 0.904976
O O7 0.160352 0.654892 0.905770
O O8 0.998069 0.636844 0.000000
O O9 0.875576 0.000289 0.500000
O O10 0.900731 0.182066 0.426723
O O11 0.000000 0.000000 0.394346
O O12 0.699418 0.483892 0.862908
O O13 0.896383 0.429530 0.796282
O O14 0.500000 0.500000 0.076971
O O15 0.370232 0.320059 0.085431
O O16 0.323951 0.480257 0.000000
O O17 0.036528 0.299726 0.500000
O O18 0.910703 0.396990 0.589584
O O19 0.216457 0.508795 0.500000
#
# Coordination Sequence:
#
# PCOD9544140 Si02
#       8
#     8   8   8   8   8   8   4   8
#     4  12  24  46  71  93 131 178 231 299 352 406
#     4  10  21  38  64  99 136 174 217 275 352 435
#     4   9  18  33  53  90 136 172 213 260 325 423
#     4  12  26  46  71  96 137 188 232 292 360 414
#     4  10  21  39  68 113 151 176 219 284 370 464
#     4  10  20  35  65 100 132 169 213 276 360 430
#     4  12  30  52  64  98 136 186 264 306 332 424
#     4  10  20  36  66 107 145 173 212 281 370 444
#
# _framework density 22.016545000000001
#
# number of rings (size 3 to 8) (size 9 to 14) (size 15 to 20)
#    0.000    1.467    3.333    1.600    1.867    4.800 
#    2.400    0.000    0.000    0.000    0.000    0.000 
#    0.000    0.000    0.000    0.000    0.000    0.000 
#
# Total GULP energy -334202.447265 kJ/mol
# GULP energy per Si atom -5570.040788 kJ/mol
# Density = 2.196643 g / cm^3
# Si number density = 22.016545 Si / 1000 Ang^3
#
#
#
# Elastic Constant Matrix: (Units=GPa)
#
#
# Indices 1 2 3 4 5 6 
#
# 1 120.8654 54.1200 35.3463 0.0000 0.0000 3.6411
# 2 54.1200 120.8654 35.3463 0.0000 0.0000 -3.6411
# 3 35.3463 35.3463 30.3733 0.0000 0.0000 0.0000
# 4 0.0000 0.0000 0.0000 26.8342 0.0000 0.0000
# 5 0.0000 0.0000 0.0000 0.0000 26.8342 0.0000
# 6 3.6411 -3.6411 0.0000 0.0000 0.0000 43.2436
#
#
#
# Elastic Compliance Matrix: (Units=1/GPa)
#
#
# Indices 1 2 3 4 5 6 
#
# 1 0.012953 -0.002168 -0.012551 0.000000 0.000000 -0.001273
# 2 -0.002168 0.012953 -0.012551 0.000000 0.000000 0.001273
# 3 -0.012551 -0.012551 0.062136 0.000000 0.000000 0.000000
# 4 0.000000 0.000000 0.000000 0.037266 0.000000 0.000000
# 5 0.000000 0.000000 0.000000 0.000000 0.037266 0.000000
# 6 -0.001273 0.001273 0.000000 0.000000 0.000000 0.023339
#
#
# Mechanical properties :
#
#
# Convention : Reuss Voigt Hill
#
# Bulk Modulus (GPa) = 29.84908 57.96995 43.90951
# Shear Modulus (GPa) = 19.87112 29.20186 24.53649
#
# Velocity S-wave (km/s) = 3.00751 3.64587 3.34197
# Velocity P-wave (km/s) = 5.06430 6.64158 5.90583
#
# Compressibility (1/GPa) = 0.03350187
#
# Stress axis : x y z
#
# Youngs Moduli (GPa) = 77.20055 77.20055 16.09372
#
# Poissons Ratio (x) = 0.16737 0.20200
# Poissons Ratio (y) = 0.16737 0.20200
# Poissons Ratio (z) = 0.96896 0.96896
#
# Static dielectric constant tensor:
#      x y z
#    x 1.914520 0.000000 0.000000 
#    y 0.000000 1.914520 0.000000 
#    z 0.000000 0.000000 1.857620 
# 
# From -- ./inp_files/4551.got.cif
#   From: 2010.05.17/outbox.cif.g08.bks.cpg/sg84_3_cif.got.tgz:4551.got - 2010.06.03 18:57:40.
