data_PCOD9544901
_publ_section_title
;
Structure prediction by ZEFSAII (Michael W. Deem and Ramdas Pophale) SiO2 
 PCOD9544901
Probable space group: P 42/N
;
_chemical_formula_sum "Si O2"
_cell_formula_units_Z 44
_cell_length_a 8.423860
_cell_length_b 8.423860
_cell_length_c 29.293842
_cell_angle_alpha 90.000000
_cell_angle_beta 90.000000
_cell_angle_gamma 90.000000
_cell_volume 2078.732546
_symmetry_space_group_name_H-M "P 42/N"
_symmetry_group_IT_number 86
_space_group.IT_coordinate_system_code '2'
_symmetry_cell_setting 'tetragonal'
loop_
_space_group_symop_operation_xyz
x,y,z
-y,1/2+x,1/2+z
1/2-x,1/2-y,z
1/2+y,-x,1/2+z
-x,-y,-z
y,1/2-x,1/2-z
1/2+x,1/2+y,-z
1/2-y,x,1/2-z
loop_
_atom_site_type_symbol
_atom_site_label
_atom_site_fract_x
_atom_site_fract_y
_atom_site_fract_z
Si Si1 0.776442 0.497537 0.257179
Si Si2 0.678726 0.493250 0.357375
Si Si3 0.250000 0.750000 0.314222
Si Si4 0.794434 0.572318 0.029442
Si Si5 0.336741 0.914230 0.057400
Si Si6 0.829527 0.991658 0.120183
O O1 0.630317 0.591182 0.233497
O O2 0.706701 0.443100 0.305440
O O3 0.835798 0.366756 0.221780
O O4 0.589471 0.362614 0.388131
O O5 0.854592 0.537889 0.376491
O O6 0.583994 0.661193 0.361665
O O7 0.355982 0.856643 0.348088
O O8 0.750000 0.750000 0.041004
O O9 0.703109 0.467309 0.067148
O O10 0.981103 0.570746 0.040821
O O11 0.754091 0.537346 0.976854
O O12 0.250000 0.750000 0.046153
#
# Coordination Sequence:
#
# PCOD9544901 Si02
#       6
#     8   8   4   8   8   8
#     4  11  20  37  61  87 115 149 198 253 297 356
#     4  10  18  39  57  79 123 154 195 250 293 355
#     4  12  22  30  60  98 110 148 202 252 302 354
#     4  10  20  40  61  84 123 154 202 257 289 350
#     4  10  22  36  57  90 116 161 195 236 310 356
#     4  10  18  36  60  86 110 153 202 250 290 340
#
# _framework density 21.166744999999999
#
# number of rings (size 3 to 8) (size 9 to 14) (size 15 to 20)
#    0.000    1.636    7.273    1.091    2.545    0.727 
#    0.000    0.000    0.000    0.545    0.000    0.000 
#    0.000    0.000    0.000    0.000    0.000    0.000 
#
# Total GULP energy -244959.055323 kJ/mol
# GULP energy per Si atom -5567.251257 kJ/mol
# Density = 2.111857 g / cm^3
# Si number density = 21.166745 Si / 1000 Ang^3
#
#
#
# Elastic Constant Matrix: (Units=GPa)
#
#
# Indices 1 2 3 4 5 6 
#
# 1 34.3644 -4.0678 27.2864 0.0000 0.0000 3.7491
# 2 -4.0678 34.3644 27.2864 0.0000 0.0000 -3.7491
# 3 27.2864 27.2864 174.2497 0.0000 0.0000 0.0000
# 4 0.0000 0.0000 0.0000 31.1730 0.0000 0.0000
# 5 0.0000 0.0000 0.0000 0.0000 31.1730 0.0000
# 6 3.7491 -3.7491 0.0000 0.0000 0.0000 9.5845
#
#
#
# Elastic Compliance Matrix: (Units=1/GPa)
#
#
# Indices 1 2 3 4 5 6 
#
# 1 0.037072 0.008903 -0.007199 0.000000 0.000000 -0.011019
# 2 0.008903 0.037072 -0.007199 0.000000 0.000000 0.011019
# 3 -0.007199 -0.007199 0.007994 0.000000 0.000000 0.000000
# 4 0.000000 0.000000 0.000000 0.032079 0.000000 0.000000
# 5 0.000000 0.000000 0.000000 0.000000 0.032079 0.000000
# 6 -0.011019 0.011019 0.000000 0.000000 0.000000 0.112955
#
#
# Mechanical properties :
#
#
# Convention : Reuss Voigt Hill
#
# Bulk Modulus (GPa) = 14.05555 38.22094 26.13824
# Shear Modulus (GPa) = 17.00915 27.21769 22.11342
#
# Velocity S-wave (km/s) = 2.83782 3.58979 3.23573
# Velocity P-wave (km/s) = 4.17043 5.93956 5.13181
#
# Compressibility (1/GPa) = 0.07114630
#
# Stress axis : x y z
#
# Youngs Moduli (GPa) = 26.97421 26.97421 125.09932
#
# Poissons Ratio (x) = -0.24014 0.90064
# Poissons Ratio (y) = -0.24014 0.90064
# Poissons Ratio (z) = 0.19420 0.19420
#
# Static dielectric constant tensor:
#      x y z
#    x 1.790510 0.000000 0.000000 
#    y 0.000000 1.790510 0.000000 
#    z 0.000000 0.000000 1.868470 
# 
# From -- ./inp_files/5056.got.cif
#   From: 2010.05.17/outbox.cif.g08.bks.cpg/sg86_3_cif.got.tgz:5056.got - 2010.06.03 19:03:11.
