data_PCOD9544782
_publ_section_title
;
Structure prediction by ZEFSAII (Michael W. Deem and Ramdas Pophale) SiO2 
 PCOD9544782
Probable space group: P 4/N
;
_chemical_formula_sum "Si O2"
_cell_formula_units_Z 50
_cell_length_a 8.920486
_cell_length_b 8.920486
_cell_length_c 31.991612
_cell_angle_alpha 90.000000
_cell_angle_beta 90.000000
_cell_angle_gamma 90.000000
_cell_volume 2545.734780
_symmetry_space_group_name_H-M "P 4/N"
_symmetry_group_IT_number 85
_symmetry_cell_setting 'tetragonal'
loop_
_space_group_symop_operation_xyz
x,y,z
1/2-y,x,z
1/2-x,1/2-y,z
y,1/2-x,z
-x,-y,-z
1/2+y,-x,-z
1/2+x,1/2+y,-z
-y,1/2+x,-z
loop_
_atom_site_type_symbol
_atom_site_label
_atom_site_fract_x
_atom_site_fract_y
_atom_site_fract_z
Si Si1 0.250000 0.250000 0.192329
Si Si2 0.082361 0.436658 0.540698
Si Si3 0.391204 0.043951 0.880172
Si Si4 0.530992 0.882041 0.713293
Si Si5 0.546754 0.901045 0.621273
Si Si6 0.091008 0.658112 0.799406
Si Si7 0.439346 0.085359 0.040502
O O1 0.437164 0.253819 0.193695
O O2 0.046517 0.260782 0.539926
O O3 0.000000 0.500000 0.500000
O O4 0.030519 0.520080 0.582575
O O5 0.450128 0.212537 0.884190
O O6 0.413814 0.964230 0.835957
O O7 0.474019 0.960578 0.917699
O O8 0.554110 0.700854 0.715573
O O9 0.478340 0.931554 0.667314
O O10 0.429277 0.915077 0.753226
O O11 0.549204 0.720618 0.618971
O O12 0.250000 0.750000 0.801301
O O13 0.452455 0.263984 0.039922
O O14 0.500000 0.000000 0.000000
#
# Coordination Sequence:
#
# PCOD9544782 Si02
#       7
#     2   8   8   8   8   8   8
#     4  12  24  44  68  92 148 172 236 304 332 432
#     4  11  24  41  60  87 124 164 213 274 339 406
#     4  11  27  46  65  97 139 176 233 297 347 419
#     4   9  17  37  63  91 131 172 219 280 334 404
#     4   9  19  37  63  92 124 163 211 269 333 400
#     4  12  24  40  70 103 134 189 238 288 368 420
#     4  11  26  45  72 103 136 178 226 281 347 425
#
# _framework density 19.640695999999998
#
# number of rings (size 3 to 8) (size 9 to 14) (size 15 to 20)
#    0.000    1.440    1.600    3.840    4.480    6.400 
#    5.760    0.000    0.000    1.920    0.000    0.000 
#    0.000    0.000    0.000    0.000    0.000    0.000 
#
# Total GULP energy -278492.583112 kJ/mol
# GULP energy per Si atom -5569.851662 kJ/mol
# Density = 1.959599 g / cm^3
# Si number density = 19.640696 Si / 1000 Ang^3
#
#
#
# Elastic Constant Matrix: (Units=GPa)
#
#
# Indices 1 2 3 4 5 6 
#
# 1 112.6697 72.4957 96.8778 0.0000 0.0000 30.9088
# 2 72.4957 112.6697 96.8778 0.0000 0.0000 -30.9088
# 3 96.8778 96.8778 216.5899 0.0000 0.0000 0.0000
# 4 0.0000 0.0000 0.0000 36.8694 0.0000 0.0000
# 5 0.0000 0.0000 0.0000 0.0000 36.8694 0.0000
# 6 30.9088 -30.9088 0.0000 0.0000 0.0000 53.0190
#
#
#
# Elastic Compliance Matrix: (Units=1/GPa)
#
#
# Indices 1 2 3 4 5 6 
#
# 1 0.125970 -0.115818 -0.004541 0.000000 0.000000 -0.140957
# 2 -0.115818 0.125970 -0.004541 0.000000 0.000000 0.140957
# 3 -0.004541 -0.004541 0.008679 0.000000 0.000000 0.000000
# 4 0.000000 0.000000 0.000000 0.027123 0.000000 0.000000
# 5 0.000000 0.000000 0.000000 0.000000 0.027123 0.000000
# 6 -0.140957 0.140957 0.000000 0.000000 0.000000 0.183210
#
#
# Mechanical properties :
#
#
# Convention : Reuss Voigt Hill
#
# Bulk Modulus (GPa) = 92.42286 108.27021 100.34654
# Shear Modulus (GPa) = 6.65353 37.06344 21.85849
#
# Velocity S-wave (km/s) = 1.84255 4.34876 3.33966
# Velocity P-wave (km/s) = 7.18927 8.96999 8.12854
#
# Compressibility (1/GPa) = 0.01081983
#
# Stress axis : x y z
#
# Youngs Moduli (GPa) = 7.93839 7.93839 115.21774
#
# Poissons Ratio (x) = 0.91941 0.52320
# Poissons Ratio (y) = 0.91941 0.52320
# Poissons Ratio (z) = 0.03605 0.03605
#
# Static dielectric constant tensor:
#      x y z
#    x 1.744750 0.000000 0.000000 
#    y 0.000000 1.744750 0.000000 
#    z 0.000000 0.000000 1.720800 
# 
# From -- ./inp_files/2497.got.cif
#   From: 2010.05.17/outbox.cif.g08.bks.cpg/sg85_cif.got.tgz:2497.got - 2010.06.03 19:01:16.
