data_PCOD9544272
_publ_section_title
;
Structure prediction by ZEFSAII (Michael W. Deem and Ramdas Pophale) SiO2 
 PCOD9544272
Probable space group: P 42/M
;
_chemical_formula_sum "Si O2"
_cell_formula_units_Z 16
_cell_length_a 5.108470
_cell_length_b 5.108470
_cell_length_c 20.312923
_cell_angle_alpha 90.000000
_cell_angle_beta 90.000000
_cell_angle_gamma 90.000000
_cell_volume 530.095499
_symmetry_space_group_name_H-M "P 42/M"
_symmetry_group_IT_number 84
_symmetry_cell_setting 'tetragonal'
loop_
_space_group_symop_operation_xyz
x,y,z
-y,x,1/2+z
-x,-y,z
y,-x,1/2+z
-x,-y,-z
y,-x,1/2-z
x,y,-z
-y,x,1/2-z
loop_
_atom_site_type_symbol
_atom_site_label
_atom_site_fract_x
_atom_site_fract_y
_atom_site_fract_z
Si Si1 0.249695 0.812515 0.070837
Si Si2 0.858585 0.293413 0.212522
O O1 0.233087 0.645121 0.137592
O O2 0.500000 0.000000 0.077633
O O3 0.264904 0.669496 0.000000
O O4 0.000000 0.000000 0.065856
O O5 0.170937 0.381379 0.241458
O O6 0.000000 0.000000 0.194352
#
# Coordination Sequence:
#
# PCOD9544272 Si02
#       2
#     8   8
#     4  10  21  41  67  93 131 178 226 285 352 420
#     4  11  23  40  62  94 132 174 224 278 349 413
#
# _framework density 30.183240000000001
#
# number of rings (size 3 to 8) (size 9 to 14) (size 15 to 20)
#    0.000    1.500    5.000    1.500    0.000    2.000 
#    0.000    0.000    0.000    9.000    0.000    0.000 
#    0.000    0.000    0.000    0.000    0.000    0.000 
#
# Total GULP energy -89198.096203 kJ/mol
# GULP energy per Si atom -5574.881013 kJ/mol
# Density = 3.011454 g / cm^3
# Si number density = 30.183240 Si / 1000 Ang^3
#
#
#
# Elastic Constant Matrix: (Units=GPa)
#
#
# Indices 1 2 3 4 5 6 
#
# 1 269.2321 95.3182 80.6115 0.0000 0.0000 -26.9458
# 2 95.3182 269.2321 80.6115 0.0000 0.0000 26.9458
# 3 80.6115 80.6115 436.9355 0.0000 0.0000 0.0000
# 4 0.0000 0.0000 0.0000 25.0692 0.0000 0.0000
# 5 0.0000 0.0000 0.0000 0.0000 25.0692 0.0000
# 6 -26.9458 26.9458 0.0000 0.0000 0.0000 117.2871
#
#
#
# Elastic Compliance Matrix: (Units=1/GPa)
#
#
# Indices 1 2 3 4 5 6 
#
# 1 0.004589 -0.001602 -0.000551 0.000000 0.000000 0.001422
# 2 -0.001602 0.004589 -0.000551 0.000000 0.000000 -0.001422
# 3 -0.000551 -0.000551 0.002492 0.000000 0.000000 0.000000
# 4 0.000000 0.000000 0.000000 0.039890 0.000000 0.000000
# 5 0.000000 0.000000 0.000000 0.000000 0.039890 0.000000
# 6 0.001422 -0.001422 0.000000 0.000000 0.000000 0.009180
#
#
# Mechanical properties :
#
#
# Convention : Reuss Voigt Hill
#
# Bulk Modulus (GPa) = 159.70798 165.38692 162.54745
# Shear Modulus (GPa) = 46.24346 81.40900 63.82623
#
# Velocity S-wave (km/s) = 3.91844 5.19905 4.60349
# Velocity P-wave (km/s) = 8.57321 9.53695 9.06789
#
# Compressibility (1/GPa) = 0.00626143
#
# Stress axis : x y z
#
# Youngs Moduli (GPa) = 217.92420 217.92420 401.28488
#
# Poissons Ratio (x) = 0.34910 0.22113
# Poissons Ratio (y) = 0.34910 0.22113
# Poissons Ratio (z) = 0.12009 0.12009
#
# Static dielectric constant tensor:
#      x y z
#    x -7.197610 0.000000 0.000000 
#    y 0.000000 -7.197610 0.000000 
#    z 0.000000 0.000000 2.595920 
# 
# From -- ./inp_files/3909.got.cif
#   From: 2010.05.17/outbox.cif.g08.bks.cpg/sg84_2_cif.got.tgz:3909.got - 2010.06.03 18:57:40.
