data_PCOD9544244
_publ_section_title
;
Structure prediction by ZEFSAII (Michael W. Deem and Ramdas Pophale) SiO2 
 PCOD9544244
Probable space group: P 42/M
;
_chemical_formula_sum "Si O2"
_cell_formula_units_Z 40
_cell_length_a 14.426112
_cell_length_b 14.426112
_cell_length_c 7.649171
_cell_angle_alpha 90.000000
_cell_angle_beta 90.000000
_cell_angle_gamma 90.000000
_cell_volume 1591.889686
_symmetry_space_group_name_H-M "P 42/M"
_symmetry_group_IT_number 84
_symmetry_cell_setting 'tetragonal'
loop_
_space_group_symop_operation_xyz
x,y,z
-y,x,1/2+z
-x,-y,z
y,-x,1/2+z
-x,-y,-z
y,-x,1/2-z
x,y,-z
-y,x,1/2-z
loop_
_atom_site_type_symbol
_atom_site_label
_atom_site_fract_x
_atom_site_fract_y
_atom_site_fract_z
Si Si1 0.393782 0.000096 0.210301
Si Si2 0.105438 0.103720 0.702459
Si Si3 0.498127 0.354086 0.301048
Si Si4 0.789075 0.634722 0.210842
Si Si5 0.293418 0.182299 0.802860
O O1 0.354019 0.897797 0.249826
O O2 0.500000 0.000000 0.269525
O O3 0.345479 0.094026 0.279673
O O4 0.390282 0.007518 0.000000
O O5 0.105066 0.133469 0.500000
O O6 0.187253 0.149230 0.807885
O O7 0.006301 0.121415 0.786759
O O8 0.421885 0.411930 0.198071
O O9 0.466182 0.342725 0.500000
O O10 0.536618 0.255993 0.231343
O O11 0.723565 0.717453 0.282255
O O12 0.780693 0.635969 0.000000
O O13 0.329874 0.195810 0.000000
#
# Coordination Sequence:
#
# PCOD9544244 Si02
#       5
#     8   8   8   8   8
#     4  10  23  41  64  91 123 166 210 257 315 378
#     4  11  21  34  54  81 111 147 190 240 297 354
#     4  10  21  38  62  92 124 162 206 261 320 375
#     4  10  23  40  62  91 126 167 209 260 318 374
#     4  10  21  39  59  84 119 157 202 252 302 364
#
# _framework density 25.127365999999999
#
# number of rings (size 3 to 8) (size 9 to 14) (size 15 to 20)
#    0.000    1.800    0.000    4.800    2.800    6.800 
#    0.000    0.000    0.000    0.000    0.000    0.000 
#    0.000    0.000    0.000    0.000    0.000    0.000 
#
# Total GULP energy -223533.106769 kJ/mol
# GULP energy per Si atom -5588.327669 kJ/mol
# Density = 2.507018 g / cm^3
# Si number density = 25.127366 Si / 1000 Ang^3
#
#
#
# Elastic Constant Matrix: (Units=GPa)
#
#
# Indices 1 2 3 4 5 6 
#
# 1 73.7081 65.4766 4.0052 0.0000 0.0000 20.2123
# 2 65.4766 73.7081 4.0052 0.0000 0.0000 -20.2123
# 3 4.0052 4.0052 86.4529 0.0000 0.0000 0.0000
# 4 0.0000 0.0000 0.0000 -295.9291 0.0000 0.0000
# 5 0.0000 0.0000 0.0000 0.0000 -295.9291 0.0000
# 6 20.2123 -20.2123 0.0000 0.0000 0.0000 48.9944
#
#
#
# Elastic Compliance Matrix: (Units=1/GPa)
#
#
# Indices 1 2 3 4 5 6 
#
# 1 -0.055603 0.062807 -0.000334 0.000000 0.000000 0.048849
# 2 0.062807 -0.055603 -0.000334 0.000000 0.000000 -0.048849
# 3 -0.000334 -0.000334 0.011598 0.000000 0.000000 0.000000
# 4 0.000000 0.000000 0.000000 -0.003379 0.000000 0.000000
# 5 0.000000 0.000000 0.000000 0.000000 -0.003379 0.000000
# 6 0.048849 -0.048849 0.000000 0.000000 0.000000 -0.019894
#
#
# Mechanical properties :
#
#
# Convention : Reuss Voigt Hill
#
# Bulk Modulus (GPa) = 40.53380 42.31588 41.42484
# Shear Modulus (GPa) = -20.63436 -97.88061 -59.25749
#
# Velocity S-wave (km/s) = -2.86875 -6.24807 -4.86149
# Velocity P-wave (km/s) = 2.27890 5.93077 3.87173
#
# Compressibility (1/GPa) = 0.02467077
#
# Stress axis : x y z
#
# Youngs Moduli (GPa) = -17.98475 -17.98475 86.22235
#
# Poissons Ratio (x) = 1.12956 0.02878
# Poissons Ratio (y) = 1.12956 0.02878
# Poissons Ratio (z) = -0.00600 -0.00600
#
# Static dielectric constant tensor:
#      x y z
#    x 2.013100 0.000000 0.000000 
#    y 0.000000 2.013100 0.000000 
#    z 0.000000 0.000000 1.945610 
# 
# From -- ./inp_files/772.got.cif
#   From: 2010.05.17/outbox.cif.g08.bks.cpg/sg84_1_cif.got.tgz:772.got - 2010.06.03 18:57:40.
