data_PCOD9544020
_publ_section_title
;
Structure prediction by ZEFSAII (Michael W. Deem and Ramdas Pophale) SiO2 
 PCOD9544020
Probable space group: P 42/M
;
_chemical_formula_sum "Si O2"
_cell_formula_units_Z 32
_cell_length_a 8.488088
_cell_length_b 8.488088
_cell_length_c 22.959422
_cell_angle_alpha 90.000000
_cell_angle_beta 90.000000
_cell_angle_gamma 90.000000
_cell_volume 1654.172123
_symmetry_space_group_name_H-M "P 42/M"
_symmetry_group_IT_number 84
_symmetry_cell_setting 'tetragonal'
loop_
_space_group_symop_operation_xyz
x,y,z
-y,x,1/2+z
-x,-y,z
y,-x,1/2+z
-x,-y,-z
y,-x,1/2-z
x,y,-z
-y,x,1/2-z
loop_
_atom_site_type_symbol
_atom_site_label
_atom_site_fract_x
_atom_site_fract_y
_atom_site_fract_z
Si Si1 0.877677 0.776483 0.264354
Si Si2 0.587911 0.144489 0.881377
Si Si3 0.385489 0.647915 0.324639
Si Si4 0.684822 0.448731 0.063046
O O1 0.898148 0.705084 0.328599
O O2 0.763598 0.662631 0.227033
O O3 0.050065 0.798728 0.235839
O O4 0.442895 0.235714 0.850418
O O5 0.676578 0.263568 0.923947
O O6 0.500000 0.000000 0.911265
O O7 0.500000 0.500000 0.310396
O O8 0.466165 0.742672 0.378272
O O9 0.500000 0.500000 0.060592
O O10 0.755857 0.485906 0.000000
#
# Coordination Sequence:
#
# PCOD9544020 Si02
#       4
#     8   8   8   8
#     4  11  23  36  53  80 117 150 180 224 282 336
#     4  10  19  31  52  80 109 141 186 225 271 330
#     4   9  20  33  55  78 108 142 182 227 270 328
#     4   8  17  33  53  79 107 139 180 231 278 316
#
# _framework density 19.345027000000002
#
# number of rings (size 3 to 8) (size 9 to 14) (size 15 to 20)
#    0.000    3.000    2.500    0.000    7.000    1.500 
#    0.000    0.000    0.000    3.000    0.000    3.500 
#    0.000    0.000    0.000    0.000    0.000    0.000 
#
# Total GULP energy -178206.923481 kJ/mol
# GULP energy per Si atom -5568.966359 kJ/mol
# Density = 1.930100 g / cm^3
# Si number density = 19.345027 Si / 1000 Ang^3
#
#
#
# Elastic Constant Matrix: (Units=GPa)
#
#
# Indices 1 2 3 4 5 6 
#
# 1 57.4198 27.4274 16.8807 0.0000 0.0000 0.6484
# 2 27.4274 57.4198 16.8807 0.0000 0.0000 -0.6484
# 3 16.8807 16.8807 81.2654 0.0000 0.0000 0.0000
# 4 0.0000 0.0000 0.0000 4.8683 0.0000 0.0000
# 5 0.0000 0.0000 0.0000 0.0000 4.8683 0.0000
# 6 0.6484 -0.6484 0.0000 0.0000 0.0000 23.1439
#
#
#
# Elastic Compliance Matrix: (Units=1/GPa)
#
#
# Indices 1 2 3 4 5 6 
#
# 1 0.023115 -0.010267 -0.002669 0.000000 0.000000 -0.000935
# 2 -0.010267 0.023115 -0.002669 0.000000 0.000000 0.000935
# 3 -0.002669 -0.002669 0.013414 0.000000 0.000000 0.000000
# 4 0.000000 0.000000 0.000000 0.205409 0.000000 0.000000
# 5 0.000000 0.000000 0.000000 0.000000 0.205409 0.000000
# 6 -0.000935 0.000935 0.000000 0.000000 0.000000 0.043260
#
#
# Mechanical properties :
#
#
# Convention : Reuss Voigt Hill
#
# Bulk Modulus (GPa) = 35.16842 35.38694 35.27768
# Shear Modulus (GPa) = 9.01859 15.57053 12.29456
#
# Velocity S-wave (km/s) = 2.16150 2.84013 2.52373
# Velocity P-wave (km/s) = 4.94454 5.39327 5.17377
#
# Compressibility (1/GPa) = 0.02843460
#
# Stress axis : x y z
#
# Youngs Moduli (GPa) = 43.26191 43.26191 74.54845
#
# Poissons Ratio (x) = 0.44418 0.19895
# Poissons Ratio (y) = 0.44418 0.19895
# Poissons Ratio (z) = 0.11546 0.11546
#
# Static dielectric constant tensor:
#      x y z
#    x 1.718220 0.000000 0.000000 
#    y 0.000000 1.718220 0.000000 
#    z 0.000000 0.000000 1.724410 
# 
# From -- ./inp_files/4699.got.cif
#   From: 2010.05.17/outbox.cif.g08.bks.cpg/sg84_3_cif.got.tgz:4699.got - 2010.06.03 18:57:40.
