data_PCOD9544320
_publ_section_title
;
Structure prediction by ZEFSAII (Michael W. Deem and Ramdas Pophale) SiO2 
 PCOD9544320
Probable space group: P 42/M
;
_chemical_formula_sum "Si O2"
_cell_formula_units_Z 40
_cell_length_a 8.703656
_cell_length_b 8.703656
_cell_length_c 23.004431
_cell_angle_alpha 90.000000
_cell_angle_beta 90.000000
_cell_angle_gamma 90.000000
_cell_volume 1742.669103
_symmetry_space_group_name_H-M "P 42/M"
_symmetry_group_IT_number 84
_symmetry_cell_setting 'tetragonal'
loop_
_space_group_symop_operation_xyz
x,y,z
-y,x,1/2+z
-x,-y,z
y,-x,1/2+z
-x,-y,-z
y,-x,1/2-z
x,y,-z
-y,x,1/2-z
loop_
_atom_site_type_symbol
_atom_site_label
_atom_site_fract_x
_atom_site_fract_y
_atom_site_fract_z
Si Si1 0.166306 0.070742 0.066574
Si Si2 0.836117 0.423249 0.128018
Si Si3 0.224858 0.120735 0.739959
Si Si4 0.224030 0.380394 0.564598
Si Si5 0.341327 0.280073 0.848735
O O1 0.298127 0.940572 0.070179
O O2 0.210331 0.197429 0.112730
O O3 0.162110 0.127614 0.000000
O O4 0.000000 0.000000 0.079424
O O5 0.860794 0.292156 0.176099
O O6 0.755077 0.347512 0.072727
O O7 0.715539 0.545819 0.154205
O O8 0.000000 0.500000 0.116213
O O9 0.338453 0.198379 0.786576
O O10 0.058620 0.200541 0.745627
O O11 0.235108 0.450004 0.500000
O O12 0.255245 0.503841 0.614701
#
# Coordination Sequence:
#
# PCOD9544320 Si02
#       5
#     8   8   8   8   8
#     4  10  22  42  72 107 140 185 244 300 355 426
#     4  12  26  46  68 107 141 188 245 297 374 440
#     4  11  26  47  74 102 137 186 241 303 367 434
#     4  11  26  47  72 105 149 197 240 296 369 441
#     4  12  25  42  73 101 146 187 237 304 360 451
#
# _framework density 22.953295000000001
#
# number of rings (size 3 to 8) (size 9 to 14) (size 15 to 20)
#    0.000    0.800    2.000    4.200    5.600    6.000 
#    0.000    0.000    0.000    0.000    0.000    0.000 
#    0.000    0.000    0.000    0.000    0.000    0.000 
#
# Total GULP energy -224166.014552 kJ/mol
# GULP energy per Si atom -5604.150364 kJ/mol
# Density = 2.290105 g / cm^3
# Si number density = 22.953295 Si / 1000 Ang^3
#
#
#
# Elastic Constant Matrix: (Units=GPa)
#
#
# Indices 1 2 3 4 5 6 
#
# 1 74.3128 5.5212 24.5534 0.0000 0.0000 -1.1236
# 2 5.5212 74.3128 24.5534 0.0000 0.0000 1.1236
# 3 24.5534 24.5534 60.9891 0.0000 0.0000 0.0000
# 4 0.0000 0.0000 0.0000 3.0422 0.0000 0.0000
# 5 0.0000 0.0000 0.0000 0.0000 3.0422 0.0000
# 6 -1.1236 1.1236 0.0000 0.0000 0.0000 34.1345
#
#
#
# Elastic Compliance Matrix: (Units=1/GPa)
#
#
# Indices 1 2 3 4 5 6 
#
# 1 0.015601 0.001048 -0.006703 0.000000 0.000000 0.000479
# 2 0.001048 0.015601 -0.006703 0.000000 0.000000 -0.000479
# 3 -0.006703 -0.006703 0.021793 0.000000 0.000000 0.000000
# 4 0.000000 0.000000 0.000000 0.328706 0.000000 0.000000
# 5 0.000000 0.000000 0.000000 0.000000 0.328706 0.000000
# 6 0.000479 -0.000479 0.000000 0.000000 0.000000 0.029327
#
#
# Mechanical properties :
#
#
# Convention : Reuss Voigt Hill
#
# Bulk Modulus (GPa) = 35.36017 35.43007 35.39512
# Shear Modulus (GPa) = 6.46099 18.37624 12.41861
#
# Velocity S-wave (km/s) = 1.67957 2.83254 2.32855
# Velocity P-wave (km/s) = 4.38178 5.11537 4.76272
#
# Compressibility (1/GPa) = 0.02828041
#
# Stress axis : x y z
#
# Youngs Moduli (GPa) = 64.10021 64.10021 45.88610
#
# Poissons Ratio (x) = -0.06719 0.30756
# Poissons Ratio (y) = -0.06719 0.30756
# Poissons Ratio (z) = 0.42964 0.42964
#
# Static dielectric constant tensor:
#      x y z
#    x 1.861900 0.000000 0.000000 
#    y 0.000000 1.861900 0.000000 
#    z 0.000000 0.000000 1.794410 
# 
# From -- ./inp_files/4795.got.cif
#   From: 2010.05.17/outbox.cif.g08.bks.cpg/sg84_3_cif.got.tgz:4795.got - 2010.06.03 18:57:40.
