data_PCOD9544553
_publ_section_title
;
Structure prediction by ZEFSAII (Michael W. Deem and Ramdas Pophale) SiO2 
 PCOD9544553
Probable space group: P 4/N
;
_chemical_formula_sum "Si O2"
_cell_formula_units_Z 48
_cell_length_a 8.704054
_cell_length_b 8.704054
_cell_length_c 32.064695
_cell_angle_alpha 90.000000
_cell_angle_beta 90.000000
_cell_angle_gamma 90.000000
_cell_volume 2429.239122
_symmetry_space_group_name_H-M "P 4/N"
_symmetry_group_IT_number 85
_symmetry_cell_setting 'tetragonal'
loop_
_space_group_symop_operation_xyz
x,y,z
1/2-y,x,z
1/2-x,1/2-y,z
y,1/2-x,z
-x,-y,-z
1/2+y,-x,-z
1/2+x,1/2+y,-z
-y,1/2+x,-z
loop_
_atom_site_type_symbol
_atom_site_label
_atom_site_fract_x
_atom_site_fract_y
_atom_site_fract_z
Si Si1 0.250000 0.250000 0.872112
Si Si2 0.750000 0.250000 0.360673
Si Si3 0.496730 0.172600 0.202134
Si Si4 0.089492 0.830570 0.118018
Si Si5 0.495743 0.801842 0.429789
Si Si6 0.750000 0.250000 0.500000
Si Si7 0.583640 0.553664 0.958110
Si Si8 0.682943 0.499096 0.705417
O O1 0.439004 0.229658 0.873099
O O2 0.680704 0.381026 0.390676
O O3 0.624549 0.171207 0.330804
O O4 0.434596 0.346276 0.200140
O O5 0.595780 0.134692 0.162262
O O6 0.568728 0.156044 0.248194
O O7 0.250000 0.750000 0.103870
O O8 0.043506 0.950579 0.081611
O O9 0.575221 0.633246 0.429051
O O10 0.387817 0.808879 0.470529
O O11 0.767403 0.544297 0.957329
O O12 0.500000 0.500000 0.000000
O O13 0.854965 0.569832 0.702360
#
# Coordination Sequence:
#
# PCOD9544553 Si02
#       8
#     2   4   8   8   8   2   8   8
#     4  12  28  44  72 108 140 172 232 280 316 420
#     4  11  20  33  56  84 120 162 214 249 320 389
#     4   9  18  37  65  92 127 168 216 265 323 387
#     4  12  26  45  71 100 139 178 215 272 340 389
#     4  10  21  36  55  81 118 158 201 266 335 397
#     4  10  20  36  60  84 104 152 216 272 324 410
#     4  11  27  45  69  98 129 170 217 264 324 399
#     4   9  19  35  57  85 118 162 211 259 305 374
#
# _framework density 19.759276
#
# number of rings (size 3 to 8) (size 9 to 14) (size 15 to 20)
#    0.000    1.667    0.000    5.500    5.833    1.333 
#    0.000    0.000    0.000    8.000    0.000    0.000 
#    0.000    0.000    0.000    0.000    0.000    0.000 
#
# Total GULP energy -267386.671569 kJ/mol
# GULP energy per Si atom -5570.555658 kJ/mol
# Density = 1.971430 g / cm^3
# Si number density = 19.759276 Si / 1000 Ang^3
#
#
#
# Elastic Constant Matrix: (Units=GPa)
#
#
# Indices 1 2 3 4 5 6 
#
# 1 44.5434 10.6633 35.9083 0.0000 0.0000 7.3331
# 2 10.6633 44.5434 35.9083 0.0000 0.0000 -7.3331
# 3 35.9083 35.9083 154.1390 0.0000 0.0000 0.0000
# 4 0.0000 0.0000 0.0000 27.7865 0.0000 0.0000
# 5 0.0000 0.0000 0.0000 0.0000 27.7865 0.0000
# 6 7.3331 -7.3331 0.0000 0.0000 0.0000 61.1261
#
#
#
# Elastic Compliance Matrix: (Units=1/GPa)
#
#
# Indices 1 2 3 4 5 6 
#
# 1 0.028561 -0.002571 -0.006055 0.000000 0.000000 -0.003735
# 2 -0.002571 0.028561 -0.006055 0.000000 0.000000 0.003735
# 3 -0.006055 -0.006055 0.009309 0.000000 0.000000 0.000000
# 4 0.000000 0.000000 0.000000 0.035989 0.000000 0.000000
# 5 0.000000 0.000000 0.000000 0.000000 0.035989 0.000000
# 6 -0.003735 0.003735 0.000000 0.000000 0.000000 0.017256
#
#
# Mechanical properties :
#
#
# Convention : Reuss Voigt Hill
#
# Bulk Modulus (GPa) = 26.97590 45.35397 36.16493
# Shear Modulus (GPa) = 25.33151 34.05618 29.69384
#
# Velocity S-wave (km/s) = 3.58440 4.15607 3.88078
# Velocity P-wave (km/s) = 5.55089 6.78481 6.19863
#
# Compressibility (1/GPa) = 0.03707013
#
# Stress axis : x y z
#
# Youngs Moduli (GPa) = 35.01231 35.01231 107.42698
#
# Poissons Ratio (x) = 0.09003 0.65043
# Poissons Ratio (y) = 0.09003 0.65043
# Poissons Ratio (z) = 0.21199 0.21199
#
# Static dielectric constant tensor:
#      x y z
#    x 1.721280 0.000000 0.000000 
#    y 0.000000 1.721280 0.000000 
#    z 0.000000 0.000000 1.677990 
# 
# From -- ./inp_files/2500.got.cif
#   From: 2010.05.17/outbox.cif.g08.bks.cpg/sg85_cif.got.tgz:2500.got - 2010.06.03 19:01:16.
