data_PCOD9544079
_publ_section_title
;
Structure prediction by ZEFSAII (Michael W. Deem and Ramdas Pophale) SiO2 
 PCOD9544079
Probable space group: P 42/M
;
_chemical_formula_sum "Si O2"
_cell_formula_units_Z 64
_cell_length_a 12.191493
_cell_length_b 12.191493
_cell_length_c 24.842027
_cell_angle_alpha 90.000000
_cell_angle_beta 90.000000
_cell_angle_gamma 90.000000
_cell_volume 3692.332617
_symmetry_space_group_name_H-M "P 42/M"
_symmetry_group_IT_number 84
_symmetry_cell_setting 'tetragonal'
loop_
_space_group_symop_operation_xyz
x,y,z
-y,x,1/2+z
-x,-y,z
y,-x,1/2+z
-x,-y,-z
y,-x,1/2-z
x,y,-z
-y,x,1/2-z
loop_
_atom_site_type_symbol
_atom_site_label
_atom_site_fract_x
_atom_site_fract_y
_atom_site_fract_z
Si Si1 0.571808 0.177454 0.264280
Si Si2 0.122463 0.484581 0.117706
Si Si3 0.266926 0.803074 0.437471
Si Si4 0.876425 0.607629 0.354120
Si Si5 0.127739 0.027153 0.436612
Si Si6 0.810143 0.269824 0.136502
Si Si7 0.883922 0.353370 0.631199
Si Si8 0.215265 0.676552 0.255511
O O1 0.558459 0.114685 0.320449
O O2 0.597825 0.107453 0.210810
O O3 0.670045 0.264111 0.267559
O O4 0.453115 0.231900 0.254489
O O5 0.184194 0.388403 0.086601
O O6 0.176903 0.604774 0.117075
O O7 0.000000 0.500000 0.095763
O O8 0.274227 0.777018 0.500000
O O9 0.194842 0.713453 0.407159
O O10 0.201043 0.917557 0.431517
O O11 0.774880 0.686172 0.365804
O O12 0.860183 0.483198 0.372516
O O13 0.986670 0.657616 0.379160
O O14 0.130341 0.061525 0.500000
O O15 0.186843 0.114554 0.397584
O O16 0.000000 0.000000 0.423455
O O17 0.835928 0.273956 0.200733
O O18 0.859261 0.314023 0.691942
#
# Coordination Sequence:
#
# PCOD9544079 Si02
#       8
#     8   8   8   8   8   8   8   8
#     4   9  18  31  51  82 109 145 185 222 280 341
#     4  11  21  34  57  81 113 151 185 233 286 336
#     4  11  23  38  58  84 112 149 197 238 281 338
#     4   9  20  34  58  82 111 146 188 233 279 346
#     4  10  21  37  58  80 111 151 190 237 284 331
#     4  10  20  36  54  84 113 143 190 232 279 346
#     4  10  19  37  57  80 111 150 187 234 287 336
#     4   9  18  31  53  79 112 146 182 226 283 336
#
# _framework density 17.333217000000001
#
# number of rings (size 3 to 8) (size 9 to 14) (size 15 to 20)
#    0.000    2.125    2.500    0.750    5.250    1.000 
#    0.000    2.500    0.000    0.750    0.000    0.000 
#    0.000    0.000    0.000    0.000    0.000    0.000 
#
# Total GULP energy -356782.985879 kJ/mol
# GULP energy per Si atom -5574.734154 kJ/mol
# Density = 1.729377 g / cm^3
# Si number density = 17.333217 Si / 1000 Ang^3
#
#
#
# Elastic Constant Matrix: (Units=GPa)
#
#
# Indices 1 2 3 4 5 6 
#
# 1 84.4783 55.8867 51.2065 0.0000 0.0000 1.1227
# 2 55.8867 84.4783 51.2065 0.0000 0.0000 -1.1227
# 3 51.2065 51.2065 78.1083 0.0000 0.0000 0.0000
# 4 0.0000 0.0000 0.0000 18.9050 0.0000 0.0000
# 5 0.0000 0.0000 0.0000 0.0000 18.9050 0.0000
# 6 1.1227 -1.1227 0.0000 0.0000 0.0000 30.8376
#
#
#
# Elastic Compliance Matrix: (Units=1/GPa)
#
#
# Indices 1 2 3 4 5 6 
#
# 1 0.024366 -0.010709 -0.008953 0.000000 0.000000 -0.001277
# 2 -0.010709 0.024366 -0.008953 0.000000 0.000000 0.001277
# 3 -0.008953 -0.008953 0.024542 0.000000 0.000000 0.000000
# 4 0.000000 0.000000 0.000000 0.052896 0.000000 0.000000
# 5 0.000000 0.000000 0.000000 0.000000 0.052896 0.000000
# 6 -0.001277 0.001277 0.000000 0.000000 0.000000 0.032521
#
#
# Mechanical properties :
#
#
# Convention : Reuss Voigt Hill
#
# Bulk Modulus (GPa) = 62.33365 62.62938 62.48151
# Shear Modulus (GPa) = 18.23716 19.64720 18.94218
#
# Velocity S-wave (km/s) = 3.24721 3.37040 3.30938
# Velocity P-wave (km/s) = 7.07808 7.16639 7.12237
#
# Compressibility (1/GPa) = 0.01604270
#
# Stress axis : x y z
#
# Youngs Moduli (GPa) = 41.04071 41.04071 40.74702
#
# Poissons Ratio (x) = 0.43952 0.36481
# Poissons Ratio (y) = 0.43952 0.36481
# Poissons Ratio (z) = 0.36744 0.36744
#
# Static dielectric constant tensor:
#      x y z
#    x 1.577690 0.000000 0.000000 
#    y 0.000000 1.577690 0.000000 
#    z 0.000000 0.000000 1.600570 
# 
# From -- ./inp_files/5099.got.cif
#   From: 2010.05.17/outbox.cif.g08.bks.cpg/sg84_3_cif.got.tgz:5099.got - 2010.06.03 18:57:40.
