data_PCOD9544716
_publ_section_title
;
Structure prediction by ZEFSAII (Michael W. Deem and Ramdas Pophale) SiO2 
 PCOD9544716
Probable space group: P 4/N
;
_chemical_formula_sum "Si O2"
_cell_formula_units_Z 36
_cell_length_a 13.023213
_cell_length_b 13.023213
_cell_length_c 9.111882
_cell_angle_alpha 90.000000
_cell_angle_beta 90.000000
_cell_angle_gamma 90.000000
_cell_volume 1545.412335
_symmetry_space_group_name_H-M "P 4/N"
_symmetry_group_IT_number 85
_symmetry_cell_setting 'tetragonal'
loop_
_space_group_symop_operation_xyz
x,y,z
1/2-y,x,z
1/2-x,1/2-y,z
y,1/2-x,z
-x,-y,-z
1/2+y,-x,-z
1/2+x,1/2+y,-z
-y,1/2+x,-z
loop_
_atom_site_type_symbol
_atom_site_label
_atom_site_fract_x
_atom_site_fract_y
_atom_site_fract_z
Si Si1 0.250000 0.750000 0.000000
Si Si2 0.045938 0.233535 0.731452
Si Si3 0.389236 0.337533 0.040420
Si Si4 0.614103 0.093596 0.820219
Si Si5 0.670508 0.097245 0.500104
Si Si6 0.750000 0.750000 0.407598
O O1 0.294271 0.840285 0.103855
O O2 0.126734 0.275193 0.612631
O O3 0.975734 0.322734 0.802953
O O4 0.970671 0.157205 0.643994
O O5 0.105568 0.179250 0.864718
O O6 0.282138 0.386665 0.092142
O O7 0.490497 0.396685 0.087089
O O8 0.636443 0.054449 0.655964
O O9 0.617832 0.207721 0.487210
#
# Coordination Sequence:
#
# PCOD9544716 Si02
#       6
#     2   8   8   8   8   2
#     4  12  20  36  70 104 140 176 230 272 340 416
#     4  11  21  43  70  89 133 181 227 270 339 409
#     4  11  23  45  65  95 137 180 224 280 342 411
#     4  11  23  40  66 106 132 176 226 284 340 401
#     4   9  20  40  65  96 132 167 218 287 335 395
#     4  12  24  48  68  94 132 192 228 278 344 420
#
# _framework density 23.294751999999999
#
# number of rings (size 3 to 8) (size 9 to 14) (size 15 to 20)
#    0.000    1.333    4.444    2.667    0.000    0.889 
#   12.000    2.222    0.000    0.000    0.000    0.000 
#    0.000    0.000    0.000    0.000    0.000    0.000 
#
# Total GULP energy -200597.204852 kJ/mol
# GULP energy per Si atom -5572.144579 kJ/mol
# Density = 2.324173 g / cm^3
# Si number density = 23.294752 Si / 1000 Ang^3
#
#
#
# Elastic Constant Matrix: (Units=GPa)
#
#
# Indices 1 2 3 4 5 6 
#
# 1 52.7118 10.2841 25.1968 0.0000 0.0000 -1.4669
# 2 10.2841 52.7118 25.1968 0.0000 0.0000 1.4669
# 3 25.1968 25.1968 39.6381 0.0000 0.0000 0.0000
# 4 0.0000 0.0000 0.0000 17.4058 0.0000 0.0000
# 5 0.0000 0.0000 0.0000 0.0000 17.4058 0.0000
# 6 -1.4669 1.4669 0.0000 0.0000 0.0000 12.1120
#
#
#
# Elastic Compliance Matrix: (Units=1/GPa)
#
#
# Indices 1 2 3 4 5 6 
#
# 1 0.028033 0.004264 -0.020531 0.000000 0.000000 0.002879
# 2 0.004264 0.028033 -0.020531 0.000000 0.000000 -0.002879
# 3 -0.020531 -0.020531 0.051330 0.000000 0.000000 0.000000
# 4 0.000000 0.000000 0.000000 0.057452 0.000000 0.000000
# 5 0.000000 0.000000 0.000000 0.000000 0.057452 0.000000
# 6 0.002879 -0.002879 0.000000 0.000000 0.000000 0.083260
#
#
# Mechanical properties :
#
#
# Convention : Reuss Voigt Hill
#
# Bulk Modulus (GPa) = 29.58380 29.60191 29.59286
# Shear Modulus (GPa) = 12.80669 15.01032 13.90850
#
# Velocity S-wave (km/s) = 2.34726 2.54119 2.44614
# Velocity P-wave (km/s) = 4.48034 4.62010 4.55076
#
# Compressibility (1/GPa) = 0.03380229
#
# Stress axis : x y z
#
# Youngs Moduli (GPa) = 35.67221 35.67221 19.48191
#
# Poissons Ratio (x) = -0.15212 0.39998
# Poissons Ratio (y) = -0.15212 0.39998
# Poissons Ratio (z) = 0.73237 0.73237
#
# Static dielectric constant tensor:
#      x y z
#    x 1.898500 0.000000 0.000000 
#    y 0.000000 1.898500 0.000000 
#    z 0.000000 0.000000 1.931840 
# 
# From -- ./inp_files/869.got.cif
#   From: 2010.05.17/outbox.cif.g08.bks.cpg/sg85_cif.got.tgz:869.got - 2010.06.03 19:01:16.
