data_PCOD9544440
_publ_section_title
;
Structure prediction by ZEFSAII (Michael W. Deem and Ramdas Pophale) SiO2 
 PCOD9544440
Probable space group: P 42/M
;
_chemical_formula_sum "Si O2"
_cell_formula_units_Z 32
_cell_length_a 11.334062
_cell_length_b 11.334062
_cell_length_c 12.110463
_cell_angle_alpha 90.000000
_cell_angle_beta 90.000000
_cell_angle_gamma 90.000000
_cell_volume 1555.721720
_symmetry_space_group_name_H-M "P 42/M"
_symmetry_group_IT_number 84
_symmetry_cell_setting 'tetragonal'
loop_
_space_group_symop_operation_xyz
x,y,z
-y,x,1/2+z
-x,-y,z
y,-x,1/2+z
-x,-y,-z
y,-x,1/2-z
x,y,-z
-y,x,1/2-z
loop_
_atom_site_type_symbol
_atom_site_label
_atom_site_fract_x
_atom_site_fract_y
_atom_site_fract_z
Si Si1 0.885525 0.417322 0.374986
Si Si2 0.311441 0.058214 0.500000
Si Si3 0.192582 0.437644 0.000000
Si Si4 0.061398 0.813051 0.767161
Si Si5 0.523986 0.314968 0.726303
O O1 0.843853 0.398197 0.500000
O O2 0.912690 0.293075 0.316896
O O3 0.793210 0.489013 0.302209
O O4 0.000000 0.500000 0.377419
O O5 0.353209 0.921371 0.500000
O O6 0.429548 0.137828 0.500000
O O7 0.237068 0.081132 0.389905
O O8 0.269508 0.424763 0.110620
O O9 0.926472 0.856959 0.755188
O O10 0.402981 0.387793 0.711384
#
# Coordination Sequence:
#
# PCOD9544440 Si02
#       5
#     8   4   4   8   8
#     4  11  26  45  69  98 139 177 220 277 345 401
#     4  11  24  43  70  99 135 180 230 277 333 405
#     4  11  24  43  70  99 135 180 230 277 333 405
#     4  11  27  44  69 102 135 176 229 278 338 402
#     4  11  27  44  69 102 135 176 229 278 338 402
#
# _framework density 20.569230000000001
#
# number of rings (size 3 to 8) (size 9 to 14) (size 15 to 20)
#    0.000    1.000    2.500    1.500   14.000    2.000 
#    0.000    0.000    0.000    0.000    0.000    0.000 
#    0.000    0.000    0.000    0.000    0.000    0.000 
#
# Total GULP energy -179133.396846 kJ/mol
# GULP energy per Si atom -5597.918651 kJ/mol
# Density = 2.052241 g / cm^3
# Si number density = 20.569230 Si / 1000 Ang^3
#
#
#
# Elastic Constant Matrix: (Units=GPa)
#
#
# Indices 1 2 3 4 5 6 
#
# 1 45.3018 -17.0659 10.9602 0.0000 0.0000 -0.8765
# 2 -17.0659 45.3018 10.9602 0.0000 0.0000 0.8765
# 3 10.9602 10.9602 123.6768 0.0000 0.0000 0.0000
# 4 0.0000 0.0000 0.0000 33.3838 0.0000 0.0000
# 5 0.0000 0.0000 0.0000 0.0000 33.3838 0.0000
# 6 -0.8765 0.8765 0.0000 0.0000 0.0000 20.0311
#
#
#
# Elastic Compliance Matrix: (Units=1/GPa)
#
#
# Indices 1 2 3 4 5 6 
#
# 1 0.027043 0.010989 -0.003370 0.000000 0.000000 0.000702
# 2 0.010989 0.027043 -0.003370 0.000000 0.000000 -0.000702
# 3 -0.003370 -0.003370 0.008683 0.000000 0.000000 0.000000
# 4 0.000000 0.000000 0.000000 0.029955 0.000000 0.000000
# 5 0.000000 0.000000 0.000000 0.000000 0.029955 0.000000
# 6 0.000702 -0.000702 0.000000 0.000000 0.000000 0.049984
#
#
# Mechanical properties :
#
#
# Convention : Reuss Voigt Hill
#
# Bulk Modulus (GPa) = 14.03186 24.88768 19.45977
# Shear Modulus (GPa) = 26.60698 31.32147 28.96422
#
# Velocity S-wave (km/s) = 3.60047 3.90646 3.75658
# Velocity P-wave (km/s) = 4.91133 5.69850 5.31950
#
# Compressibility (1/GPa) = 0.07126637
#
# Stress axis : x y z
#
# Youngs Moduli (GPa) = 36.97799 36.97799 115.16813
#
# Poissons Ratio (x) = -0.40637 0.38817
# Poissons Ratio (y) = -0.40637 0.38817
# Poissons Ratio (z) = 0.12463 0.12463
#
# Static dielectric constant tensor:
#      x y z
#    x 1.763800 0.000000 0.000000 
#    y 0.000000 1.763800 0.000000 
#    z 0.000000 0.000000 1.687830 
# 
# From -- ./inp_files/1868.got.cif
#   From: 2010.05.17/outbox.cif.g08.bks.cpg/sg84_1_cif.got.tgz:1868.got - 2010.06.03 18:57:40.
