data_PCOD9544058
_publ_section_title
;
Structure prediction by ZEFSAII (Michael W. Deem and Ramdas Pophale) SiO2 
 PCOD9544058
Probable space group: P 42/M
;
_chemical_formula_sum "Si O2"
_cell_formula_units_Z 48
_cell_length_a 11.577230
_cell_length_b 11.577230
_cell_length_c 19.315293
_cell_angle_alpha 90.000000
_cell_angle_beta 90.000000
_cell_angle_gamma 90.000000
_cell_volume 2588.872267
_symmetry_space_group_name_H-M "P 42/M"
_symmetry_group_IT_number 84
_symmetry_cell_setting 'tetragonal'
loop_
_space_group_symop_operation_xyz
x,y,z
-y,x,1/2+z
-x,-y,z
y,-x,1/2+z
-x,-y,-z
y,-x,1/2-z
x,y,-z
-y,x,1/2-z
loop_
_atom_site_type_symbol
_atom_site_label
_atom_site_fract_x
_atom_site_fract_y
_atom_site_fract_z
Si Si1 0.520225 0.866597 0.168929
Si Si2 0.857227 0.732494 0.312085
Si Si3 0.268920 0.233787 0.081067
Si Si4 0.316503 0.077616 0.717510
Si Si5 0.995818 0.870851 0.580966
Si Si6 0.632410 0.043878 0.578489
O O1 0.394321 0.810991 0.170318
O O2 0.617974 0.796347 0.126927
O O3 0.563238 0.882826 0.248129
O O4 0.500000 0.000000 0.141840
O O5 0.767757 0.815029 0.275033
O O6 0.969693 0.720124 0.264171
O O7 0.902310 0.794158 0.380773
O O8 0.188885 0.120138 0.088663
O O9 0.178978 0.339371 0.096189
O O10 0.303029 0.244020 0.000000
O O11 0.315852 0.034333 0.639036
O O12 0.968733 0.878305 0.500000
O O13 0.000000 0.000000 0.610714
O O14 0.679724 0.027841 0.500000
O O15 0.500000 0.000000 0.576650
#
# Coordination Sequence:
#
# PCOD9544058 Si02
#       6
#     8   8   8   8   8   8
#     4  10  20  37  53  82 112 151 198 236 285 359
#     4  11  23  35  56  82 115 154 189 239 297 354
#     4  10  19  34  56  81 114 152 190 238 290 358
#     4  11  22  35  55  81 113 148 194 242 291 355
#     4  10  20  33  51  82 120 151 182 225 290 363
#     4  10  21  38  60  83 110 150 198 245 295 347
#
# _framework density 18.540890999999998
#
# number of rings (size 3 to 8) (size 9 to 14) (size 15 to 20)
#    0.000    1.667    3.333    3.500    2.333    3.000 
#    0.000    0.000    0.000    3.500    0.000    3.500 
#    0.000    0.000    0.000    0.000    0.000    0.000 
#
# Total GULP energy -267615.671046 kJ/mol
# GULP energy per Si atom -5575.326480 kJ/mol
# Density = 1.849869 g / cm^3
# Si number density = 18.540891 Si / 1000 Ang^3
#
#
#
# Elastic Constant Matrix: (Units=GPa)
#
#
# Indices 1 2 3 4 5 6 
#
# 1 94.9661 50.9160 35.8488 0.0000 0.0000 2.4823
# 2 50.9160 94.9661 35.8488 0.0000 0.0000 -2.4823
# 3 35.8488 35.8488 78.3773 0.0000 0.0000 0.0000
# 4 0.0000 0.0000 0.0000 11.4621 0.0000 0.0000
# 5 0.0000 0.0000 0.0000 0.0000 11.4621 0.0000
# 6 2.4823 -2.4823 0.0000 0.0000 0.0000 28.8286
#
#
#
# Elastic Compliance Matrix: (Units=1/GPa)
#
#
# Indices 1 2 3 4 5 6 
#
# 1 0.015883 -0.007041 -0.004045 0.000000 0.000000 -0.001974
# 2 -0.007041 0.015883 -0.004045 0.000000 0.000000 0.001974
# 3 -0.004045 -0.004045 0.016459 0.000000 0.000000 0.000000
# 4 0.000000 0.000000 0.000000 0.087244 0.000000 0.000000
# 5 0.000000 0.000000 0.000000 0.000000 0.087244 0.000000
# 6 -0.001974 0.001974 0.000000 0.000000 0.000000 0.035028
#
#
# Mechanical properties :
#
#
# Convention : Reuss Voigt Hill
#
# Bulk Modulus (GPa) = 55.66118 57.05962 56.36040
# Shear Modulus (GPa) = 17.00741 20.06359 18.53550
#
# Velocity S-wave (km/s) = 3.03197 3.29314 3.16525
# Velocity P-wave (km/s) = 6.50715 6.73064 6.61984
#
# Compressibility (1/GPa) = 0.01796584
#
# Stress axis : x y z
#
# Youngs Moduli (GPa) = 62.95933 62.95933 60.75841
#
# Poissons Ratio (x) = 0.44327 0.24574
# Poissons Ratio (y) = 0.44327 0.24574
# Poissons Ratio (z) = 0.25464 0.25464
#
# Static dielectric constant tensor:
#      x y z
#    x 1.655770 0.000000 0.000000 
#    y 0.000000 1.655770 0.000000 
#    z 0.000000 0.000000 1.671980 
# 
# From -- ./inp_files/3740.got.cif
#   From: 2010.05.17/outbox.cif.g08.bks.cpg/sg84_2_cif.got.tgz:3740.got - 2010.06.03 18:57:40.
