data_PCOD9544281
_publ_section_title
;
Structure prediction by ZEFSAII (Michael W. Deem and Ramdas Pophale) SiO2 
 PCOD9544281
Probable space group: P 42/M
;
_chemical_formula_sum "Si O2"
_cell_formula_units_Z 36
_cell_length_a 8.201904
_cell_length_b 8.201904
_cell_length_c 20.923477
_cell_angle_alpha 90.000000
_cell_angle_beta 90.000000
_cell_angle_gamma 90.000000
_cell_volume 1407.548017
_symmetry_space_group_name_H-M "P 42/M"
_symmetry_group_IT_number 84
_symmetry_cell_setting 'tetragonal'
loop_
_space_group_symop_operation_xyz
x,y,z
-y,x,1/2+z
-x,-y,z
y,-x,1/2+z
-x,-y,-z
y,-x,1/2-z
x,y,-z
-y,x,1/2-z
loop_
_atom_site_type_symbol
_atom_site_label
_atom_site_fract_x
_atom_site_fract_y
_atom_site_fract_z
Si Si1 0.038887 0.183988 0.658354
Si Si2 0.000000 0.500000 0.251707
Si Si3 0.687917 0.532930 0.837848
Si Si4 0.799931 0.323782 0.571609
Si Si5 0.730408 0.706291 0.429460
O O1 0.968792 0.234325 0.587880
O O2 0.013003 0.333387 0.706689
O O3 0.223983 0.192189 0.633904
O O4 0.000000 0.000000 0.677748
O O5 0.830848 0.495823 0.211952
O O6 0.500000 0.500000 0.816684
O O7 0.720251 0.716495 0.860645
O O8 0.687007 0.458757 0.910189
O O9 0.750929 0.274871 0.500000
O O10 0.800478 0.521046 0.571990
O O11 0.745736 0.775785 0.500000
#
# Coordination Sequence:
#
# PCOD9544281 Si02
#       5
#     8   4   8   8   8
#     4  12  27  49  71 107 151 206 255 317 388 461
#     4  12  28  56  74 110 164 212 264 310 388 480
#     4  10  25  50  76 109 145 200 255 321 392 461
#     4  10  21  46  78 110 148 192 253 325 397 459
#     4  10  21  46  78 110 148 192 253 325 397 459
#
# _framework density 25.57639
#
# number of rings (size 3 to 8) (size 9 to 14) (size 15 to 20)
#    0.000    1.333    2.222    1.333    3.111    8.000 
#    8.000    1.111    0.000    0.000    0.000    0.000 
#    0.000    0.000    0.000    0.000    0.000    0.000 
#
# Total GULP energy -200469.542896 kJ/mol
# GULP energy per Si atom -5568.598414 kJ/mol
# Density = 2.551818 g / cm^3
# Si number density = 25.576390 Si / 1000 Ang^3
#
#
#
# Elastic Constant Matrix: (Units=GPa)
#
#
# Indices 1 2 3 4 5 6 
#
# 1 91.8878 8.6618 85.0398 0.0000 0.0000 -1.5139
# 2 8.6618 91.8878 85.0398 0.0000 0.0000 1.5139
# 3 85.0398 85.0398 206.6182 0.0000 0.0000 0.0000
# 4 0.0000 0.0000 0.0000 3.1375 0.0000 0.0000
# 5 0.0000 0.0000 0.0000 0.0000 3.1375 0.0000
# 6 -1.5139 1.5139 0.0000 0.0000 0.0000 -0.6709
#
#
#
# Elastic Compliance Matrix: (Units=1/GPa)
#
#
# Indices 1 2 3 4 5 6 
#
# 1 0.021919 0.010816 -0.013473 0.000000 0.000000 -0.025057
# 2 0.010816 0.021919 -0.013473 0.000000 0.000000 0.025057
# 3 -0.013473 -0.013473 0.015930 0.000000 0.000000 0.000000
# 4 0.000000 0.000000 0.000000 0.318726 0.000000 0.000000
# 5 0.000000 0.000000 0.000000 0.000000 0.318726 0.000000
# 6 -0.025057 0.025057 0.000000 0.000000 0.000000 -1.377471
#
#
# Mechanical properties :
#
#
# Convention : Reuss Voigt Hill
#
# Bulk Modulus (GPa) = 36.35296 83.09741 59.72519
# Shear Modulus (GPa) = -7.82693 15.23098 3.70202
#
# Velocity S-wave (km/s) = -1.75125 2.44295 1.20440
# Velocity P-wave (km/s) = 3.18672 6.36536 5.03354
#
# Compressibility (1/GPa) = 0.02750807
#
# Stress axis : x y z
#
# Youngs Moduli (GPa) = 45.62165 45.62165 62.77346
#
# Poissons Ratio (x) = -0.49342 0.84575
# Poissons Ratio (y) = -0.49342 0.84575
# Poissons Ratio (z) = 0.61466 0.61466
#
# Static dielectric constant tensor:
#      x y z
#    x 1.909910 0.000000 0.000000 
#    y 0.000000 1.909910 0.000000 
#    z 0.000000 0.000000 1.904720 
# 
# From -- ./inp_files/4236.got.cif
#   From: 2010.05.17/outbox.cif.g08.bks.cpg/sg84_3_cif.got.tgz:4236.got - 2010.06.03 18:57:40.
