data_PCOD9544415
_publ_section_title
;
Structure prediction by ZEFSAII (Michael W. Deem and Ramdas Pophale) SiO2 
 PCOD9544415
Probable space group: P 42/M
;
_chemical_formula_sum "Si O2"
_cell_formula_units_Z 18
_cell_length_a 8.048433
_cell_length_b 8.048433
_cell_length_c 13.689389
_cell_angle_alpha 90.000000
_cell_angle_beta 90.000000
_cell_angle_gamma 90.000000
_cell_volume 886.761299
_symmetry_space_group_name_H-M "P 42/M"
_symmetry_group_IT_number 84
_symmetry_cell_setting 'tetragonal'
loop_
_space_group_symop_operation_xyz
x,y,z
-y,x,1/2+z
-x,-y,z
y,-x,1/2+z
-x,-y,-z
y,-x,1/2-z
x,y,-z
-y,x,1/2-z
loop_
_atom_site_type_symbol
_atom_site_label
_atom_site_fract_x
_atom_site_fract_y
_atom_site_fract_z
Si Si1 0.904528 0.825424 0.391683
Si Si2 0.620960 0.858036 0.771392
Si Si3 0.500000 0.500000 0.250000
O O1 0.835147 0.797628 0.500000
O O2 0.766012 0.827232 0.307620
O O3 0.046522 0.694176 0.364277
O O4 0.000000 0.000000 0.389407
O O5 0.542753 0.679446 0.798333
O O6 0.500000 0.000000 0.726979
#
# Coordination Sequence:
#
# PCOD9544415 Si02
#       3
#     8   8   2
#     4  11  22  41  69  96 128 177 225 271 334 400
#     4  12  22  43  67  94 140 175 219 279 332 392
#     4  12  24  40  70 100 128 182 228 268 334 392
#
# _framework density 20.298587999999999
#
# number of rings (size 3 to 8) (size 9 to 14) (size 15 to 20)
#    0.000    0.444    8.889    0.000    0.000    1.778 
#    0.000    4.444    0.000    0.000    0.000    0.000 
#    0.000    0.000    0.000    0.000    0.000    0.000 
#
# Total GULP energy -100288.096165 kJ/mol
# GULP energy per Si atom -5571.560898 kJ/mol
# Density = 2.025239 g / cm^3
# Si number density = 20.298588 Si / 1000 Ang^3
#
#
#
# Elastic Constant Matrix: (Units=GPa)
#
#
# Indices 1 2 3 4 5 6 
#
# 1 125.6379 26.5197 4.3609 0.0000 0.0000 -17.3422
# 2 26.5197 125.6379 4.3609 0.0000 0.0000 17.3422
# 3 4.3609 4.3609 61.6577 0.0000 0.0000 0.0000
# 4 0.0000 0.0000 0.0000 -17.1186 0.0000 0.0000
# 5 0.0000 0.0000 0.0000 0.0000 -17.1186 0.0000
# 6 -17.3422 17.3422 0.0000 0.0000 0.0000 50.3067
#
#
#
# Elastic Compliance Matrix: (Units=1/GPa)
#
#
# Indices 1 2 3 4 5 6 
#
# 1 0.009036 -0.002437 -0.000467 0.000000 0.000000 0.003955
# 2 -0.002437 0.009036 -0.000467 0.000000 0.000000 -0.003955
# 3 -0.000467 -0.000467 0.016285 0.000000 0.000000 0.000000
# 4 0.000000 0.000000 0.000000 -0.058416 0.000000 0.000000
# 5 0.000000 0.000000 0.000000 0.000000 -0.058416 0.000000
# 6 0.003955 -0.003955 0.000000 0.000000 0.000000 0.022605
#
#
# Mechanical properties :
#
#
# Convention : Reuss Voigt Hill
#
# Bulk Modulus (GPa) = 36.21156 42.60183 39.40669
# Shear Modulus (GPa) = -113.83093 21.72673 -46.05210
#
# Velocity S-wave (km/s) = -7.49667 3.27518 -4.76829
# Velocity P-wave (km/s) = 7.55349 5.94437 3.29542
#
# Compressibility (1/GPa) = 0.02761549
#
# Stress axis : x y z
#
# Youngs Moduli (GPa) = 110.66940 110.66940 61.40769
#
# Poissons Ratio (x) = 0.26971 0.02866
# Poissons Ratio (y) = 0.26971 0.02866
# Poissons Ratio (z) = 0.05165 0.05165
#
# Static dielectric constant tensor:
#      x y z
#    x 1.796990 0.000000 0.000000 
#    y 0.000000 1.796990 0.000000 
#    z 0.000000 0.000000 1.683930 
# 
# From -- ./inp_files/1511.got.cif
#   From: 2010.05.17/outbox.cif.g08.bks.cpg/sg84_1_cif.got.tgz:1511.got - 2010.06.03 18:57:40.
