data_PCOD9544098
_publ_section_title
;
Structure prediction by ZEFSAII (Michael W. Deem and Ramdas Pophale) SiO2 
 PCOD9544098
Probable space group: P 42/M
;
_chemical_formula_sum "Si O2"
_cell_formula_units_Z 64
_cell_length_a 20.629711
_cell_length_b 20.629711
_cell_length_c 8.688689
_cell_angle_alpha 90.000000
_cell_angle_beta 90.000000
_cell_angle_gamma 90.000000
_cell_volume 3697.775499
_symmetry_space_group_name_H-M "P 42/M"
_symmetry_group_IT_number 84
_symmetry_cell_setting 'tetragonal'
loop_
_space_group_symop_operation_xyz
x,y,z
-y,x,1/2+z
-x,-y,z
y,-x,1/2+z
-x,-y,-z
y,-x,1/2-z
x,y,-z
-y,x,1/2-z
loop_
_atom_site_type_symbol
_atom_site_label
_atom_site_fract_x
_atom_site_fract_y
_atom_site_fract_z
Si Si1 0.406237 0.126695 0.813790
Si Si2 0.556029 0.130920 0.812844
Si Si3 0.092982 0.018852 0.821420
Si Si4 0.913739 0.750862 0.675166
Si Si5 0.333128 0.780686 0.823932
Si Si6 0.136931 0.833538 0.684779
Si Si7 0.010852 0.362204 0.817645
Si Si8 0.292380 0.217020 0.184828
O O1 0.481100 0.134554 0.767998
O O2 0.359941 0.185790 0.763157
O O3 0.378846 0.058853 0.752029
O O4 0.404325 0.124100 0.000000
O O5 0.598319 0.193298 0.760449
O O6 0.588934 0.065381 0.749984
O O7 0.560654 0.128788 0.000000
O O8 0.156070 0.061070 0.782183
O O9 0.035225 0.071474 0.798990
O O10 0.094488 0.997179 0.000000
O O11 0.936656 0.756642 0.500000
O O12 0.847469 0.708481 0.676255
O O13 0.889260 0.819190 0.738367
O O14 0.964879 0.709526 0.771192
O O15 0.288226 0.728199 0.741010
O O16 0.342060 0.759840 0.000000
O O17 0.143877 0.838876 0.500000
O O18 0.167305 0.765026 0.733392
O O19 0.009242 0.368766 0.000000
O O20 0.292311 0.218412 0.000000
#
# Coordination Sequence:
#
# PCOD9544098 Si02
#       8
#     8   8   8   8   8   8   8   8
#     4  10  20  33  48  68  97 130 161 192 230 279
#     4   9  18  33  51  69  92 127 167 197 226 274
#     4  10  20  33  47  62  81 106 141 188 239 288
#     4   9  17  30  48  67  87 118 158 191 225 274
#     4   8  15  29  48  67  87 116 153 190 225 263
#     4   9  18  32  48  67  89 112 144 189 238 283
#     4  11  21  31  45  68  98 129 162 199 236 271
#     4   9  18  32  49  69  93 120 148 183 227 270
#
# _framework density 17.307703
#
# number of rings (size 3 to 8) (size 9 to 14) (size 15 to 20)
#    0.000    2.625    0.000    3.375    0.000    7.500 
#    0.000    1.250    0.000    0.000    0.000    0.000 
#    0.000    0.500    0.000    6.250    0.000    0.000 
#
# Total GULP energy -356791.255604 kJ/mol
# GULP energy per Si atom -5574.863369 kJ/mol
# Density = 1.726831 g / cm^3
# Si number density = 17.307703 Si / 1000 Ang^3
#
#
#
# Elastic Constant Matrix: (Units=GPa)
#
#
# Indices 1 2 3 4 5 6 
#
# 1 68.4977 47.8339 15.1394 0.0000 0.0000 -4.8509
# 2 47.8339 68.4977 15.1394 0.0000 0.0000 4.8509
# 3 15.1394 15.1394 20.3815 0.0000 0.0000 0.0000
# 4 0.0000 0.0000 0.0000 16.0206 0.0000 0.0000
# 5 0.0000 0.0000 0.0000 0.0000 16.0206 0.0000
# 6 -4.8509 4.8509 0.0000 0.0000 0.0000 21.5915
#
#
#
# Elastic Compliance Matrix: (Units=1/GPa)
#
#
# Indices 1 2 3 4 5 6 
#
# 1 0.032379 -0.021722 -0.007916 0.000000 0.000000 0.012155
# 2 -0.021722 0.032379 -0.007916 0.000000 0.000000 -0.012155
# 3 -0.007916 -0.007916 0.060823 0.000000 0.000000 0.000000
# 4 0.000000 0.000000 0.000000 0.062420 0.000000 0.000000
# 5 0.000000 0.000000 0.000000 0.000000 0.062420 0.000000
# 6 0.012155 -0.012155 0.000000 0.000000 0.000000 0.051776
#
#
# Mechanical properties :
#
#
# Convention : Reuss Voigt Hill
#
# Bulk Modulus (GPa) = 19.81220 34.84469 27.32844
# Shear Modulus (GPa) = 12.68627 16.01082 14.34855
#
# Velocity S-wave (km/s) = 2.71030 3.04479 2.88241
# Velocity P-wave (km/s) = 4.61153 5.70414 5.18669
#
# Compressibility (1/GPa) = 0.05047395
#
# Stress axis : x y z
#
# Youngs Moduli (GPa) = 30.88466 30.88466 16.44105
#
# Poissons Ratio (x) = 0.67088 0.13014
# Poissons Ratio (y) = 0.67088 0.13014
# Poissons Ratio (z) = 0.24447 0.24447
#
# Static dielectric constant tensor:
#      x y z
#    x 1.614470 0.000000 0.000000 
#    y 0.000000 1.614470 0.000000 
#    z 0.000000 0.000000 1.586010 
# 
# From -- ./inp_files/1414.got.cif
#   From: 2010.05.17/outbox.cif.g08.bks.cpg/sg84_1_cif.got.tgz:1414.got - 2010.06.03 18:57:40.
