data_PCOD9544556
_publ_section_title
;
Structure prediction by ZEFSAII (Michael W. Deem and Ramdas Pophale) SiO2 
 PCOD9544556
Probable space group: P 4/N
;
_chemical_formula_sum "Si O2"
_cell_formula_units_Z 38
_cell_length_a 8.195738
_cell_length_b 8.195738
_cell_length_c 27.125553
_cell_angle_alpha 90.000000
_cell_angle_beta 90.000000
_cell_angle_gamma 90.000000
_cell_volume 1822.026687
_symmetry_space_group_name_H-M "P 4/N"
_symmetry_group_IT_number 85
_symmetry_cell_setting 'tetragonal'
loop_
_space_group_symop_operation_xyz
x,y,z
1/2-y,x,z
1/2-x,1/2-y,z
y,1/2-x,z
-x,-y,-z
1/2+y,-x,-z
1/2+x,1/2+y,-z
-y,1/2+x,-z
loop_
_atom_site_type_symbol
_atom_site_label
_atom_site_fract_x
_atom_site_fract_y
_atom_site_fract_z
Si Si1 0.673301 0.013511 0.084312
Si Si2 0.001263 0.648296 0.241898
Si Si3 0.598826 0.983598 0.658648
Si Si4 0.954292 0.930847 0.552924
Si Si5 0.250000 0.750000 0.000000
Si Si6 0.750000 0.250000 0.831042
O O1 0.555677 0.858546 0.084932
O O2 0.657874 0.126313 0.132270
O O3 0.657383 0.124607 0.035914
O O4 0.953404 0.836998 0.233834
O O5 0.050095 0.602480 0.297390
O O6 0.149286 0.626983 0.204033
O O7 0.534104 0.796295 0.662337
O O8 0.527366 0.038379 0.605156
O O9 0.763493 0.970766 0.554673
O O10 0.000000 0.000000 0.500000
#
# Coordination Sequence:
#
# PCOD9544556 Si02
#       6
#     8   8   8   8   2   4
#     4  10  21  38  61  90 125 164 206 253 305 365
#     4  11  23  38  58  84 113 148 192 244 301 360
#     4   9  19  37  58  80 110 149 190 237 294 353
#     4   9  19  35  54  78 110 146 185 230 282 343
#     4  10  20  36  64  96 128 164 204 254 312 362
#     4  11  22  37  58  82 114 157 202 249 302 362
#
# _framework density 20.855896000000001
#
# number of rings (size 3 to 8) (size 9 to 14) (size 15 to 20)
#    0.000    2.105    0.000    4.421    0.000    3.789 
#    0.000    6.316    0.000   23.368    0.000    0.000 
#    0.000    0.000    0.000    0.000    0.000    0.000 
#
# Total GULP energy -211911.133543 kJ/mol
# GULP energy per Si atom -5576.608777 kJ/mol
# Density = 2.080843 g / cm^3
# Si number density = 20.855896 Si / 1000 Ang^3
#
#
#
# Elastic Constant Matrix: (Units=GPa)
#
#
# Indices 1 2 3 4 5 6 
#
# 1 62.4802 8.5367 49.6170 0.0000 0.0000 4.1753
# 2 8.5367 62.4802 49.6170 0.0000 0.0000 -4.1753
# 3 49.6170 49.6170 201.5291 0.0000 0.0000 0.0000
# 4 0.0000 0.0000 0.0000 33.7675 0.0000 0.0000
# 5 0.0000 0.0000 0.0000 0.0000 33.7675 0.0000
# 6 4.1753 -4.1753 0.0000 0.0000 0.0000 18.4412
#
#
#
# Elastic Compliance Matrix: (Units=1/GPa)
#
#
# Indices 1 2 3 4 5 6 
#
# 1 0.020339 0.001127 -0.005285 0.000000 0.000000 -0.004350
# 2 0.001127 0.020339 -0.005285 0.000000 0.000000 0.004350
# 3 -0.005285 -0.005285 0.007564 0.000000 0.000000 0.000000
# 4 0.000000 0.000000 0.000000 0.029614 0.000000 0.000000
# 5 0.000000 0.000000 0.000000 0.000000 0.029614 0.000000
# 6 -0.004350 0.004350 0.000000 0.000000 0.000000 0.056196
#
#
# Mechanical properties :
#
#
# Convention : Reuss Voigt Hill
#
# Bulk Modulus (GPa) = 34.06399 60.22568 47.14483
# Shear Modulus (GPa) = 25.99603 31.77649 28.88626
#
# Velocity S-wave (km/s) = 3.53435 3.90759 3.72565
# Velocity P-wave (km/s) = 5.74665 7.02131 6.41572
#
# Compressibility (1/GPa) = 0.02935652
#
# Stress axis : x y z
#
# Youngs Moduli (GPa) = 49.16747 49.16747 132.19772
#
# Poissons Ratio (x) = -0.05543 0.69867
# Poissons Ratio (y) = -0.05543 0.69867
# Poissons Ratio (z) = 0.25985 0.25985
#
# Static dielectric constant tensor:
#      x y z
#    x 1.772660 0.000000 0.000000 
#    y 0.000000 1.772660 0.000000 
#    z 0.000000 0.000000 1.815430 
# 
# From -- ./inp_files/2328.got.cif
#   From: 2010.05.17/outbox.cif.g08.bks.cpg/sg85_cif.got.tgz:2328.got - 2010.06.03 19:01:16.
