data_PCOD9544542
_publ_section_title
;
Structure prediction by ZEFSAII (Michael W. Deem and Ramdas Pophale) SiO2 
 PCOD9544542
Probable space group: P 4/N
;
_chemical_formula_sum "Si O2"
_cell_formula_units_Z 58
_cell_length_a 12.153510
_cell_length_b 12.153510
_cell_length_c 22.884242
_cell_angle_alpha 90.000000
_cell_angle_beta 90.000000
_cell_angle_gamma 90.000000
_cell_volume 3380.181162
_symmetry_space_group_name_H-M "P 4/N"
_symmetry_group_IT_number 85
_symmetry_cell_setting 'tetragonal'
loop_
_space_group_symop_operation_xyz
x,y,z
1/2-y,x,z
1/2-x,1/2-y,z
y,1/2-x,z
-x,-y,-z
1/2+y,-x,-z
1/2+x,1/2+y,-z
-y,1/2+x,-z
loop_
_atom_site_type_symbol
_atom_site_label
_atom_site_fract_x
_atom_site_fract_y
_atom_site_fract_z
Si Si1 0.137360 0.887945 0.994255
Si Si2 0.206096 0.069772 0.489244
Si Si3 0.750000 0.750000 0.039385
Si Si4 0.621811 0.240041 0.400333
Si Si5 0.356912 0.962976 0.677846
Si Si6 0.367287 0.511094 0.615837
Si Si7 0.090109 0.153943 0.793135
Si Si8 0.063157 0.080716 0.924509
O O1 0.121115 0.963942 0.937526
O O2 0.261385 0.891528 0.016948
O O3 0.054188 0.927020 0.044301
O O4 0.328284 0.121527 0.481105
O O5 0.192044 0.965319 0.446566
O O6 0.186129 0.025933 0.554672
O O7 0.860936 0.827836 0.044486
O O8 0.750000 0.250000 0.421133
O O9 0.623598 0.162052 0.343183
O O10 0.588432 0.365165 0.388162
O O11 0.230098 0.988437 0.663156
O O12 0.428515 0.038746 0.635020
O O13 0.381596 0.004827 0.742981
O O14 0.213963 0.105617 0.787877
O O15 0.053872 0.117403 0.857603
#
# Coordination Sequence:
#
# PCOD9544542 Si02
#       8
#     8   8   2   8   8   8   8   8
#     4  10  20  34  54  83 124 161 186 227 287 343
#     4  11  23  38  60  83 106 136 183 228 272 333
#     4  12  16  32  52  84 112 148 192 244 268 338
#     4  10  25  38  53  78 110 147 170 215 280 347
#     4  11  22  37  56  79 109 140 181 224 277 325
#     4  11  22  37  57  81 109 137 176 225 276 334
#     4  11  19  33  58  85 107 140 190 240 279 320
#     4  11  20  34  57  86 117 150 196 240 281 335
#
# _framework density 17.158844999999999
#
# number of rings (size 3 to 8) (size 9 to 14) (size 15 to 20)
#    0.000    1.241    5.517    0.828    3.862    1.379 
#    0.000    1.379    6.069    0.000    0.000    0.000 
#    0.000    2.483    0.000    0.000    0.000    0.000 
#
# Total GULP energy -322925.574205 kJ/mol
# GULP energy per Si atom -5567.682314 kJ/mol
# Density = 1.711979 g / cm^3
# Si number density = 17.158845 Si / 1000 Ang^3
#
#
#
# Elastic Constant Matrix: (Units=GPa)
#
#
# Indices 1 2 3 4 5 6 
#
# 1 76.8523 24.4492 27.6634 0.0000 0.0000 1.3304
# 2 24.4492 76.8523 27.6634 0.0000 0.0000 -1.3304
# 3 27.6634 27.6634 73.6414 0.0000 0.0000 0.0000
# 4 0.0000 0.0000 0.0000 19.6995 0.0000 0.0000
# 5 0.0000 0.0000 0.0000 0.0000 19.6995 0.0000
# 6 1.3304 -1.3304 0.0000 0.0000 0.0000 19.9476
#
#
#
# Elastic Compliance Matrix: (Units=1/GPa)
#
#
# Indices 1 2 3 4 5 6 
#
# 1 0.015784 -0.003364 -0.004665 0.000000 0.000000 -0.001277
# 2 -0.003364 0.015784 -0.004665 0.000000 0.000000 0.001277
# 3 -0.004665 -0.004665 0.017084 0.000000 0.000000 0.000000
# 4 0.000000 0.000000 0.000000 0.050763 0.000000 0.000000
# 5 0.000000 0.000000 0.000000 0.000000 0.050763 0.000000
# 6 -0.001277 0.001277 0.000000 0.000000 0.000000 0.050302
#
#
# Mechanical properties :
#
#
# Convention : Reuss Voigt Hill
#
# Bulk Modulus (GPa) = 42.98865 42.98865 42.98865
# Shear Modulus (GPa) = 21.40203 21.70731 21.55467
#
# Velocity S-wave (km/s) = 3.53553 3.56065 3.54811
# Velocity P-wave (km/s) = 6.46331 6.48167 6.47250
#
# Compressibility (1/GPa) = 0.02326195
#
# Stress axis : x y z
#
# Youngs Moduli (GPa) = 63.35673 63.35673 58.53283
#
# Poissons Ratio (x) = 0.21314 0.27308
# Poissons Ratio (y) = 0.21314 0.27308
# Poissons Ratio (z) = 0.29559 0.29559
#
# Static dielectric constant tensor:
#      x y z
#    x 1.602390 0.000000 0.000000 
#    y 0.000000 1.602390 0.000000 
#    z 0.000000 0.000000 1.572310 
# 
# From -- ./inp_files/2278.got.cif
#   From: 2010.05.17/outbox.cif.g08.bks.cpg/sg85_cif.got.tgz:2278.got - 2010.06.03 19:01:16.
