data_PCOD9544652
_publ_section_title
;
Structure prediction by ZEFSAII (Michael W. Deem and Ramdas Pophale) SiO2 
 PCOD9544652
Probable space group: P 4/N
;
_chemical_formula_sum "Si O2"
_cell_formula_units_Z 40
_cell_length_a 15.381210
_cell_length_b 15.381210
_cell_length_c 7.013000
_cell_angle_alpha 90.000000
_cell_angle_beta 90.000000
_cell_angle_gamma 90.000000
_cell_volume 1659.146909
_symmetry_space_group_name_H-M "P 4/N"
_symmetry_group_IT_number 85
_symmetry_cell_setting 'tetragonal'
loop_
_space_group_symop_operation_xyz
x,y,z
1/2-y,x,z
1/2-x,1/2-y,z
y,1/2-x,z
-x,-y,-z
1/2+y,-x,-z
1/2+x,1/2+y,-z
-y,1/2+x,-z
loop_
_atom_site_type_symbol
_atom_site_label
_atom_site_fract_x
_atom_site_fract_y
_atom_site_fract_z
Si Si1 0.112473 0.431190 0.313025
Si Si2 0.855173 0.845087 0.085512
Si Si3 0.069387 0.646710 0.731232
Si Si4 0.223826 0.538254 0.552738
Si Si5 0.888641 0.029944 0.172219
O O1 0.152489 0.376373 0.140236
O O2 0.978005 0.615139 0.638421
O O3 0.181693 0.447814 0.479250
O O4 0.081110 0.526161 0.238792
O O5 0.755360 0.868427 0.134982
O O6 0.909973 0.926440 0.163896
O O7 0.147440 0.589282 0.656088
O O8 0.081774 0.742360 0.644671
O O9 0.056703 0.638178 0.957042
O O10 0.305652 0.541680 0.693490
#
# Coordination Sequence:
#
# PCOD9544652 Si02
#       5
#     8   8   8   8   8
#     4  11  23  48  73 105 145 194 240 297 372 431
#     4  10  22  41  72 107 143 183 235 297 358 430
#     4  11  26  46  69 105 145 188 242 307 363 439
#     4  12  26  44  73 106 142 191 248 298 365 435
#     4  11  26  43  77 103 142 197 241 301 359 446
#
# _framework density 24.108775999999999
#
# number of rings (size 3 to 8) (size 9 to 14) (size 15 to 20)
#    0.000    1.000    2.000    5.400    8.400    0.400 
#    0.000    0.000    0.000    0.000    0.000    0.000 
#    0.000    0.000    0.000    0.000    0.000    0.000 
#
# Total GULP energy -223829.884087 kJ/mol
# GULP energy per Si atom -5595.747102 kJ/mol
# Density = 2.405390 g / cm^3
# Si number density = 24.108776 Si / 1000 Ang^3
#
#
#
# Elastic Constant Matrix: (Units=GPa)
#
#
# Indices 1 2 3 4 5 6 
#
# 1 94.2320 14.8637 38.4882 0.0000 0.0000 -6.5119
# 2 14.8637 94.2320 38.4882 0.0000 0.0000 6.5119
# 3 38.4882 38.4882 120.9901 0.0000 0.0000 0.0000
# 4 0.0000 0.0000 0.0000 44.0879 0.0000 0.0000
# 5 0.0000 0.0000 0.0000 0.0000 44.0879 0.0000
# 6 -6.5119 6.5119 0.0000 0.0000 0.0000 19.8450
#
#
#
# Elastic Compliance Matrix: (Units=1/GPa)
#
#
# Indices 1 2 3 4 5 6 
#
# 1 0.012568 -0.000749 -0.003760 0.000000 0.000000 0.004370
# 2 -0.000749 0.012568 -0.003760 0.000000 0.000000 -0.004370
# 3 -0.003760 -0.003760 0.010657 0.000000 0.000000 0.000000
# 4 0.000000 0.000000 0.000000 0.022682 0.000000 0.000000
# 5 0.000000 0.000000 0.000000 0.000000 0.022682 0.000000
# 6 0.004370 -0.004370 0.000000 0.000000 0.000000 0.053258
#
#
# Mechanical properties :
#
#
# Convention : Reuss Voigt Hill
#
# Bulk Modulus (GPa) = 51.93108 54.79271 53.36189
# Shear Modulus (GPa) = 31.77219 36.11176 33.94197
#
# Velocity S-wave (km/s) = 3.63418 3.87443 3.75623
# Velocity P-wave (km/s) = 6.26074 6.54153 6.40267
#
# Compressibility (1/GPa) = 0.01925629
#
# Stress axis : x y z
#
# Youngs Moduli (GPa) = 79.56827 79.56827 93.83337
#
# Poissons Ratio (x) = 0.05957 0.35279
# Poissons Ratio (y) = 0.05957 0.35279
# Poissons Ratio (z) = 0.29916 0.29916
#
# Static dielectric constant tensor:
#      x y z
#    x 1.923320 0.000000 0.000000 
#    y 0.000000 1.923320 0.000000 
#    z 0.000000 0.000000 1.965870 
# 
# From -- ./inp_files/363.got.cif
#   From: 2010.05.17/outbox.cif.g08.bks.cpg/sg85_cif.got.tgz:363.got - 2010.06.03 19:01:16.
