data_PCOD9544352
_publ_section_title
;
Structure prediction by ZEFSAII (Michael W. Deem and Ramdas Pophale) SiO2 
 PCOD9544352
Probable space group: P 42/M
;
_chemical_formula_sum "Si O2"
_cell_formula_units_Z 22
_cell_length_a 5.440847
_cell_length_b 5.440847
_cell_length_c 30.181287
_cell_angle_alpha 90.000000
_cell_angle_beta 90.000000
_cell_angle_gamma 90.000000
_cell_volume 893.451088
_symmetry_space_group_name_H-M "P 42/M"
_symmetry_group_IT_number 84
_symmetry_cell_setting 'tetragonal'
loop_
_space_group_symop_operation_xyz
x,y,z
-y,x,1/2+z
-x,-y,z
y,-x,1/2+z
-x,-y,-z
y,-x,1/2-z
x,y,-z
-y,x,1/2-z
loop_
_atom_site_type_symbol
_atom_site_label
_atom_site_fract_x
_atom_site_fract_y
_atom_site_fract_z
Si Si1 0.000000 0.000000 0.250000
Si Si2 0.253767 0.341962 0.500000
Si Si3 0.746255 0.360498 0.190793
Si Si4 0.756002 0.151719 0.903484
O O1 0.106751 0.209057 0.282857
O O2 0.500000 0.500000 0.500000
O O3 0.254073 0.203357 0.453080
O O4 0.000000 0.500000 0.500000
O O5 0.500000 0.500000 0.204052
O O6 0.730271 0.331244 0.137766
O O7 0.000000 0.500000 0.199610
O O8 0.500000 0.000000 0.904335
O O9 0.000000 0.000000 0.892917
#
# Coordination Sequence:
#
# PCOD9544352 Si02
#       4
#     2   4   8   8
#     4  12  32  52  72 114 164 200 284 336 420 482
#     4  10  23  44  74 114 156 206 258 317 391 479
#     4  12  29  50  81 113 156 209 267 334 410 482
#     4  11  23  47  75 112 155 203 258 325 396 477
#
# _framework density 24.623621
#
# number of rings (size 3 to 8) (size 9 to 14) (size 15 to 20)
#    0.000    0.727    1.818    3.818    5.091    2.909 
#    0.000    8.182    0.000    0.000    0.000    0.000 
#    0.000    0.000    0.000    0.000    0.000    0.000 
#
# Total GULP energy -123148.827617 kJ/mol
# GULP energy per Si atom -5597.673983 kJ/mol
# Density = 2.456758 g / cm^3
# Si number density = 24.623621 Si / 1000 Ang^3
#
#
#
# Elastic Constant Matrix: (Units=GPa)
#
#
# Indices 1 2 3 4 5 6 
#
# 1 139.3073 55.2657 31.9851 0.0000 0.0000 -2.6128
# 2 55.2657 139.3073 31.9851 0.0000 0.0000 2.6128
# 3 31.9851 31.9851 209.9275 0.0000 0.0000 0.0000
# 4 0.0000 0.0000 0.0000 127.2003 0.0000 0.0000
# 5 0.0000 0.0000 0.0000 0.0000 127.2003 0.0000
# 6 -2.6128 2.6128 0.0000 0.0000 0.0000 58.6249
#
#
#
# Elastic Compliance Matrix: (Units=1/GPa)
#
#
# Indices 1 2 3 4 5 6 
#
# 1 0.008671 -0.003261 -0.000824 0.000000 0.000000 0.000532
# 2 -0.003261 0.008671 -0.000824 0.000000 0.000000 -0.000532
# 3 -0.000824 -0.000824 0.005015 0.000000 0.000000 0.000000
# 4 0.000000 0.000000 0.000000 0.007862 0.000000 0.000000
# 5 0.000000 0.000000 0.000000 0.000000 0.007862 0.000000
# 6 0.000532 -0.000532 0.000000 0.000000 0.000000 0.017105
#
#
# Mechanical properties :
#
#
# Convention : Reuss Voigt Hill
#
# Bulk Modulus (GPa) = 79.75564 80.77932 80.26748
# Shear Modulus (GPa) = 72.27135 87.22550 79.74843
#
# Velocity S-wave (km/s) = 5.42348 5.95822 5.69713
# Velocity P-wave (km/s) = 8.46635 8.95604 8.71464
#
# Compressibility (1/GPa) = 0.01253830
#
# Stress axis : x y z
#
# Youngs Moduli (GPa) = 115.32416 115.32416 199.41172
#
# Poissons Ratio (x) = 0.37604 0.16439
# Poissons Ratio (y) = 0.37604 0.16439
# Poissons Ratio (z) = 0.09507 0.09507
#
# Static dielectric constant tensor:
#      x y z
#    x 1.865790 0.000000 0.000000 
#    y 0.000000 1.865790 0.000000 
#    z 0.000000 0.000000 2.008940 
# 
# From -- ./inp_files/5537.got.cif
#   From: 2010.05.17/outbox.cif.g08.bks.cpg/sg84_3_cif.got.tgz:5537.got - 2010.06.03 18:57:40.
