data_PCOD9544383
_publ_section_title
;
Structure prediction by ZEFSAII (Michael W. Deem and Ramdas Pophale) SiO2 
 PCOD9544383
Probable space group: P 42/M
;
_chemical_formula_sum "Si O2"
_cell_formula_units_Z 56
_cell_length_a 12.060550
_cell_length_b 12.060550
_cell_length_c 22.540475
_cell_angle_alpha 90.000000
_cell_angle_beta 90.000000
_cell_angle_gamma 90.000000
_cell_volume 3278.666858
_symmetry_space_group_name_H-M "P 42/M"
_symmetry_group_IT_number 84
_symmetry_cell_setting 'tetragonal'
loop_
_space_group_symop_operation_xyz
x,y,z
-y,x,1/2+z
-x,-y,z
y,-x,1/2+z
-x,-y,-z
y,-x,1/2-z
x,y,-z
-y,x,1/2-z
loop_
_atom_site_type_symbol
_atom_site_label
_atom_site_fract_x
_atom_site_fract_y
_atom_site_fract_z
Si Si1 0.622708 0.639178 0.755394
Si Si2 0.870871 0.525609 0.569532
Si Si3 0.677837 0.726640 0.115471
Si Si4 0.490626 0.371907 0.570168
Si Si5 0.707670 0.271345 0.135220
Si Si6 0.143406 0.117532 0.068752
Si Si7 0.138593 0.120977 0.568911
O O1 0.647587 0.507602 0.761202
O O2 0.643315 0.700622 0.817250
O O3 0.699446 0.689010 0.703703
O O4 0.860335 0.556266 0.500000
O O5 0.796721 0.417812 0.582773
O O6 0.819325 0.620539 0.610678
O O7 0.000000 0.500000 0.581246
O O8 0.686391 0.606670 0.084633
O O9 0.787441 0.800094 0.109327
O O10 0.500000 0.500000 0.591517
O O11 0.471793 0.374189 0.500000
O O12 0.385992 0.317669 0.601437
O O13 0.824857 0.223231 0.114523
O O14 0.011864 0.136400 0.073196
O O15 0.162619 0.987096 0.080540
O O16 0.176101 0.137628 0.000000
O O17 0.165479 0.149584 0.500000
#
# Coordination Sequence:
#
# PCOD9544383 Si02
#       7
#     8   8   8   8   8   8   8
#     4  11  22  40  58  79 112 162 202 235 282 344
#     4  11  22  34  55  91 125 146 181 248 312 354
#     4  12  21  36  58  83 115 155 196 238 287 348
#     4  11  20  31  51  83 115 145 182 234 293 348
#     4  12  21  36  58  83 115 155 196 238 287 348
#     4   9  19  38  63  88 116 151 190 238 297 355
#     4   9  19  38  63  88 116 151 190 238 297 355
#
# _framework density 17.080113999999998
#
# number of rings (size 3 to 8) (size 9 to 14) (size 15 to 20)
#    0.000    1.286    4.286    4.286    0.000    2.286 
#    0.000    3.571    0.000    4.286    0.000    0.000 
#    0.000    0.000    0.000    0.000    0.000    0.000 
#
# Total GULP energy -312765.006097 kJ/mol
# GULP energy per Si atom -5585.089395 kJ/mol
# Density = 1.704124 g / cm^3
# Si number density = 17.080114 Si / 1000 Ang^3
#
#
#
# Elastic Constant Matrix: (Units=GPa)
#
#
# Indices 1 2 3 4 5 6 
#
# 1 50.9065 14.4105 10.3713 0.0000 0.0000 0.9226
# 2 14.4105 50.9065 10.3713 0.0000 0.0000 -0.9226
# 3 10.3713 10.3713 48.0964 0.0000 0.0000 0.0000
# 4 0.0000 0.0000 0.0000 18.2282 0.0000 0.0000
# 5 0.0000 0.0000 0.0000 0.0000 18.2282 0.0000
# 6 0.9226 -0.9226 0.0000 0.0000 0.0000 35.6254
#
#
#
# Elastic Compliance Matrix: (Units=1/GPa)
#
#
# Indices 1 2 3 4 5 6 
#
# 1 0.021936 -0.005500 -0.003544 0.000000 0.000000 -0.000710
# 2 -0.005500 0.021936 -0.003544 0.000000 0.000000 0.000710
# 3 -0.003544 -0.003544 0.022320 0.000000 0.000000 0.000000
# 4 0.000000 0.000000 0.000000 0.054860 0.000000 0.000000
# 5 0.000000 0.000000 0.000000 0.000000 0.054860 0.000000
# 6 -0.000710 0.000710 0.000000 0.000000 0.000000 0.028107
#
#
# Mechanical properties :
#
#
# Convention : Reuss Voigt Hill
#
# Bulk Modulus (GPa) = 24.38151 24.46837 24.42494
# Shear Modulus (GPa) = 20.58742 22.06679 21.32711
#
# Velocity S-wave (km/s) = 3.47557 3.59828 3.53746
# Velocity P-wave (km/s) = 5.51470 5.62319 5.56921
#
# Compressibility (1/GPa) = 0.04101468
#
# Stress axis : x y z
#
# Youngs Moduli (GPa) = 45.58757 45.58757 44.80278
#
# Poissons Ratio (x) = 0.25075 0.15878
# Poissons Ratio (y) = 0.25075 0.15878
# Poissons Ratio (z) = 0.16156 0.16156
#
# Static dielectric constant tensor:
#      x y z
#    x 1.579880 0.000000 0.000000 
#    y 0.000000 1.579880 0.000000 
#    z 0.000000 0.000000 1.570130 
# 
# From -- ./inp_files/4494.got.cif
#   From: 2010.05.17/outbox.cif.g08.bks.cpg/sg84_3_cif.got.tgz:4494.got - 2010.06.03 18:57:40.
