data_PCOD9544427
_publ_section_title
;
Structure prediction by ZEFSAII (Michael W. Deem and Ramdas Pophale) SiO2 
 PCOD9544427
Probable space group: P 42/M
;
_chemical_formula_sum "Si O2"
_cell_formula_units_Z 24
_cell_length_a 8.825642
_cell_length_b 8.825642
_cell_length_c 13.605712
_cell_angle_alpha 90.000000
_cell_angle_beta 90.000000
_cell_angle_gamma 90.000000
_cell_volume 1059.775530
_symmetry_space_group_name_H-M "P 42/M"
_symmetry_group_IT_number 84
_symmetry_cell_setting 'tetragonal'
loop_
_space_group_symop_operation_xyz
x,y,z
-y,x,1/2+z
-x,-y,z
y,-x,1/2+z
-x,-y,-z
y,-x,1/2-z
x,y,-z
-y,x,1/2-z
loop_
_atom_site_type_symbol
_atom_site_label
_atom_site_fract_x
_atom_site_fract_y
_atom_site_fract_z
Si Si1 0.330690 0.928164 0.500000
Si Si2 0.222722 0.043505 0.292605
Si Si3 0.329553 0.563380 0.500000
Si Si4 0.544875 0.732308 0.214856
O O1 0.334720 0.745857 0.500000
O O2 0.500000 0.000000 0.500000
O O3 0.244236 0.983082 0.402209
O O4 0.377248 0.121489 0.258984
O O5 0.090590 0.168352 0.279450
O O6 0.500000 0.500000 0.500000
O O7 0.252668 0.507973 0.600345
O O8 0.669198 0.596848 0.224478
#
# Coordination Sequence:
#
# PCOD9544427 Si02
#       4
#     4   8   4   8
#     4  12  26  46  76 103 148 201 247 300 385 440
#     4  11  26  45  69 106 148 196 247 301 370 445
#     4  12  22  43  71 108 138 190 238 310 369 432
#     4  11  23  40  70 105 146 187 251 313 364 434
#
# _framework density 22.646307
#
# number of rings (size 3 to 8) (size 9 to 14) (size 15 to 20)
#    0.000    0.667    6.667    2.000    0.000    4.000 
#    0.000    0.000    0.000    4.000    0.000    0.000 
#    0.000    0.000    0.000    0.000    0.000    0.000 
#
# Total GULP energy -134426.888208 kJ/mol
# GULP energy per Si atom -5601.120342 kJ/mol
# Density = 2.259476 g / cm^3
# Si number density = 22.646307 Si / 1000 Ang^3
#
#
#
# Elastic Constant Matrix: (Units=GPa)
#
#
# Indices 1 2 3 4 5 6 
#
# 1 68.7125 56.0804 34.6995 0.0000 0.0000 -6.8073
# 2 56.0804 68.7125 34.6995 0.0000 0.0000 6.8073
# 3 34.6995 34.6995 190.6200 0.0000 0.0000 0.0000
# 4 0.0000 0.0000 0.0000 29.2402 0.0000 0.0000
# 5 0.0000 0.0000 0.0000 0.0000 29.2402 0.0000
# 6 -6.8073 6.8073 0.0000 0.0000 0.0000 64.0214
#
#
#
# Elastic Compliance Matrix: (Units=1/GPa)
#
#
# Indices 1 2 3 4 5 6 
#
# 1 0.049163 -0.040247 -0.001623 0.000000 0.000000 0.009507
# 2 -0.040247 0.049163 -0.001623 0.000000 0.000000 -0.009507
# 3 -0.001623 -0.001623 0.005837 0.000000 0.000000 0.000000
# 4 0.000000 0.000000 0.000000 0.034199 0.000000 0.000000
# 5 0.000000 0.000000 0.000000 0.000000 0.034199 0.000000
# 6 0.009507 -0.009507 0.000000 0.000000 0.000000 0.017641
#
#
# Mechanical properties :
#
#
# Convention : Reuss Voigt Hill
#
# Bulk Modulus (GPa) = 58.21864 64.33375 61.27620
# Shear Modulus (GPa) = 17.67324 38.00476 27.83900
#
# Velocity S-wave (km/s) = 2.79660 4.10101 3.50993
# Velocity P-wave (km/s) = 6.01594 7.13401 6.59870
#
# Compressibility (1/GPa) = 0.01717663
#
# Stress axis : x y z
#
# Youngs Moduli (GPa) = 20.34066 20.34066 171.32315
#
# Poissons Ratio (x) = 0.81865 0.27806
# Poissons Ratio (y) = 0.81865 0.27806
# Poissons Ratio (z) = 0.03301 0.03301
#
# Static dielectric constant tensor:
#      x y z
#    x 1.871740 0.000000 0.000000 
#    y 0.000000 1.871740 0.000000 
#    z 0.000000 0.000000 1.780640 
# 
# From -- ./inp_files/2642.got.cif
#   From: 2010.05.17/outbox.cif.g08.bks.cpg/sg84_2_cif.got.tgz:2642.got - 2010.06.03 18:57:40.
