data_PCOD9544851
_publ_section_title
;
Structure prediction by ZEFSAII (Michael W. Deem and Ramdas Pophale) SiO2 
 PCOD9544851
Probable space group: P 4/N
;
_chemical_formula_sum "Si O2"
_cell_formula_units_Z 60
_cell_length_a 13.355929
_cell_length_b 13.355929
_cell_length_c 16.804332
_cell_angle_alpha 90.000000
_cell_angle_beta 90.000000
_cell_angle_gamma 90.000000
_cell_volume 2997.570849
_symmetry_space_group_name_H-M "P 4/N"
_symmetry_group_IT_number 85
_symmetry_cell_setting 'tetragonal'
loop_
_space_group_symop_operation_xyz
x,y,z
1/2-y,x,z
1/2-x,1/2-y,z
y,1/2-x,z
-x,-y,-z
1/2+y,-x,-z
1/2+x,1/2+y,-z
-y,1/2+x,-z
loop_
_atom_site_type_symbol
_atom_site_label
_atom_site_fract_x
_atom_site_fract_y
_atom_site_fract_z
Si Si1 0.648180 0.612393 0.133376
Si Si2 0.229604 0.532205 0.642393
Si Si3 0.919206 0.561908 0.621042
Si Si4 0.156971 0.109633 0.212635
Si Si5 0.750000 0.250000 0.370212
Si Si6 0.889521 0.652576 0.958044
Si Si7 0.966535 0.267878 0.455458
Si Si8 0.084047 0.043921 0.702479
O O1 0.770163 0.615154 0.140682
O O2 0.622758 0.571807 0.044961
O O3 0.596036 0.549108 0.202949
O O4 0.250661 0.643857 0.675531
O O5 0.239885 0.539294 0.547724
O O6 0.303870 0.445285 0.671540
O O7 0.123929 0.495104 0.672823
O O8 0.932800 0.622717 0.703520
O O9 0.808938 0.545723 0.585252
O O10 0.989403 0.620569 0.558650
O O11 0.948078 0.452302 0.652680
O O12 0.276675 0.116523 0.213052
O O13 0.123997 0.063975 0.127485
O O14 0.855106 0.256185 0.419028
O O15 0.883060 0.773693 0.957701
#
# Coordination Sequence:
#
# PCOD9544851 Si02
#       8
#     8   8   8   8   4   8   8   8
#     4   9  16  31  53  79 111 142 175 226 283 334
#     4  12  25  41  60  82 113 153 195 238 285 336
#     4  12  24  37  57  86 115 145 194 240 283 335
#     4   9  16  31  53  79 111 142 175 226 283 334
#     4  12  25  44  64  80 108 153 198 237 280 340
#     4   7  12  24  49  78 104 140 177 213 274 338
#     4  12  25  41  60  82 113 153 195 238 285 336
#     4  12  24  37  57  86 115 145 194 240 283 335
#
# _framework density 20.016207000000001
#
# number of rings (size 3 to 8) (size 9 to 14) (size 15 to 20)
#    0.000    1.467    5.333    3.600    0.000    1.600 
#    0.000    2.000    0.000    0.000    0.000    0.000 
#    0.000    2.133    0.000    0.000    0.000    0.000 
#
# Total GULP energy -334111.169001 kJ/mol
# GULP energy per Si atom -5568.519483 kJ/mol
# Density = 1.997065 g / cm^3
# Si number density = 20.016207 Si / 1000 Ang^3
#
#
#
# Elastic Constant Matrix: (Units=GPa)
#
#
# Indices 1 2 3 4 5 6 
#
# 1 54.1753 4.1457 8.0234 0.0000 0.0000 -5.3258
# 2 4.1457 54.1753 8.0234 0.0000 0.0000 5.3258
# 3 8.0234 8.0234 84.9879 0.0000 0.0000 0.0000
# 4 0.0000 0.0000 0.0000 13.6833 0.0000 0.0000
# 5 0.0000 0.0000 0.0000 0.0000 13.6833 0.0000
# 6 -5.3258 5.3258 0.0000 0.0000 0.0000 25.3035
#
#
#
# Elastic Compliance Matrix: (Units=1/GPa)
#
#
# Indices 1 2 3 4 5 6 
#
# 1 0.019265 -0.001661 -0.001662 0.000000 0.000000 0.004404
# 2 -0.001661 0.019265 -0.001662 0.000000 0.000000 -0.004404
# 3 -0.001662 -0.001662 0.012080 0.000000 0.000000 0.000000
# 4 0.000000 0.000000 0.000000 0.073082 0.000000 0.000000
# 5 0.000000 0.000000 0.000000 0.000000 0.073082 0.000000
# 6 0.004404 -0.004404 0.000000 0.000000 0.000000 0.041374
#
#
# Mechanical properties :
#
#
# Convention : Reuss Voigt Hill
#
# Bulk Modulus (GPa) = 24.60627 25.96928 25.28778
# Shear Modulus (GPa) = 19.10849 22.07710 20.59280
#
# Velocity S-wave (km/s) = 3.09309 3.32469 3.21098
# Velocity P-wave (km/s) = 5.00761 5.26691 5.13890
#
# Compressibility (1/GPa) = 0.04064004
#
# Stress axis : x y z
#
# Youngs Moduli (GPa) = 51.90809 51.90809 82.78033
#
# Poissons Ratio (x) = 0.08622 0.13757
# Poissons Ratio (y) = 0.08622 0.13757
# Poissons Ratio (z) = 0.08627 0.08627
#
# Static dielectric constant tensor:
#      x y z
#    x 1.760580 0.000000 0.000000 
#    y 0.000000 1.760580 0.000000 
#    z 0.000000 0.000000 1.746790 
# 
# From -- ./inp_files/2022.got.cif
#   From: 2010.05.17/outbox.cif.g08.bks.cpg/sg85_cif.got.tgz:2022.got - 2010.06.03 19:01:16.
