data_PCOD9544219
_publ_section_title
;
Structure prediction by ZEFSAII (Michael W. Deem and Ramdas Pophale) SiO2 
 PCOD9544219
Probable space group: P 42/M
;
_chemical_formula_sum "Si O2"
_cell_formula_units_Z 40
_cell_length_a 16.174114
_cell_length_b 16.174114
_cell_length_c 8.883580
_cell_angle_alpha 90.000000
_cell_angle_beta 90.000000
_cell_angle_gamma 90.000000
_cell_volume 2323.961973
_symmetry_space_group_name_H-M "P 42/M"
_symmetry_group_IT_number 84
_symmetry_cell_setting 'tetragonal'
loop_
_space_group_symop_operation_xyz
x,y,z
-y,x,1/2+z
-x,-y,z
y,-x,1/2+z
-x,-y,-z
y,-x,1/2-z
x,y,-z
-y,x,1/2-z
loop_
_atom_site_type_symbol
_atom_site_label
_atom_site_fract_x
_atom_site_fract_y
_atom_site_fract_z
Si Si1 0.855258 0.285114 0.179974
Si Si2 0.684108 0.337492 0.679875
Si Si3 0.917215 0.452184 0.681195
Si Si4 0.261684 0.479377 0.319853
Si Si5 0.942520 0.112393 0.818968
O O1 0.763533 0.292864 0.248172
O O2 0.906298 0.362944 0.243769
O O3 0.898455 0.198536 0.218612
O O4 0.850256 0.291266 0.000000
O O5 0.690160 0.331399 0.500000
O O6 0.599281 0.299132 0.737870
O O7 0.692264 0.434825 0.719424
O O8 0.918272 0.441107 0.500000
O O9 0.834656 0.504439 0.717349
O O10 0.000000 0.500000 0.726262
O O11 0.267882 0.467501 0.500000
O O12 0.034271 0.106190 0.749764
O O13 0.946874 0.104130 0.000000
#
# Coordination Sequence:
#
# PCOD9544219 Si02
#       5
#     8   8   8   8   8
#     4  10  21  36  54  78 107 138 174 216 260 307
#     4  10  21  36  55  78 104 138 175 212 260 312
#     4   9  19  36  56  78 106 140 176 214 259 310
#     4   9  19  35  53  76 105 136 173 215 259 307
#     4  10  21  36  55  79 106 138 175 215 260 308
#
# _framework density 17.211986
#
# number of rings (size 3 to 8) (size 9 to 14) (size 15 to 20)
#    0.000    2.400    0.000    3.600    0.000    9.600 
#    0.000    8.000    0.000    0.000    0.000    0.000 
#    0.000    0.000    0.000    0.000    0.000    0.000 
#
# Total GULP energy -223229.283054 kJ/mol
# GULP energy per Si atom -5580.732076 kJ/mol
# Density = 1.717281 g / cm^3
# Si number density = 17.211986 Si / 1000 Ang^3
#
#
#
# Elastic Constant Matrix: (Units=GPa)
#
#
# Indices 1 2 3 4 5 6 
#
# 1 162.4888 127.7094 68.4807 0.0000 0.0000 17.7539
# 2 127.7094 162.4888 68.4807 0.0000 0.0000 -17.7539
# 3 68.4807 68.4807 54.3193 0.0000 0.0000 0.0000
# 4 0.0000 0.0000 0.0000 18.7640 0.0000 0.0000
# 5 0.0000 0.0000 0.0000 0.0000 18.7640 0.0000
# 6 17.7539 -17.7539 0.0000 0.0000 0.0000 27.4936
#
#
#
# Elastic Compliance Matrix: (Units=1/GPa)
#
#
# Indices 1 2 3 4 5 6 
#
# 1 0.046447 -0.037939 -0.010727 0.000000 0.000000 -0.054492
# 2 -0.037939 0.046447 -0.010727 0.000000 0.000000 0.054492
# 3 -0.010727 -0.010727 0.045456 0.000000 0.000000 0.000000
# 4 0.000000 0.000000 0.000000 0.053294 0.000000 0.000000
# 5 0.000000 0.000000 0.000000 0.000000 0.053294 0.000000
# 6 -0.054492 0.054492 0.000000 0.000000 0.000000 0.106748
#
#
# Mechanical properties :
#
#
# Convention : Reuss Voigt Hill
#
# Bulk Modulus (GPa) = 51.10843 100.95983 76.03413
# Shear Modulus (GPa) = 10.48237 20.64604 15.56421
#
# Velocity S-wave (km/s) = 2.47050 3.46716 3.01036
# Velocity P-wave (km/s) = 6.15596 8.64941 7.50693
#
# Compressibility (1/GPa) = 0.01956624
#
# Stress axis : x y z
#
# Youngs Moduli (GPa) = 21.52988 21.52988 21.99934
#
# Poissons Ratio (x) = 0.81681 0.23598
# Poissons Ratio (y) = 0.81681 0.23598
# Poissons Ratio (z) = 0.23094 0.23094
#
# Static dielectric constant tensor:
#      x y z
#    x 1.561770 0.000000 0.000000 
#    y 0.000000 1.561770 0.000000 
#    z 0.000000 0.000000 1.576530 
# 
# From -- ./inp_files/774.got.cif
#   From: 2010.05.17/outbox.cif.g08.bks.cpg/sg84_1_cif.got.tgz:774.got - 2010.06.03 18:57:40.
