data_PCOD9544351
_publ_section_title
;
Structure prediction by ZEFSAII (Michael W. Deem and Ramdas Pophale) SiO2 
 PCOD9544351
Probable space group: P 42/M
;
_chemical_formula_sum "Si O2"
_cell_formula_units_Z 48
_cell_length_a 9.040121
_cell_length_b 9.040121
_cell_length_c 29.197237
_cell_angle_alpha 90.000000
_cell_angle_beta 90.000000
_cell_angle_gamma 90.000000
_cell_volume 2386.108798
_symmetry_space_group_name_H-M "P 42/M"
_symmetry_group_IT_number 84
_symmetry_cell_setting 'tetragonal'
loop_
_space_group_symop_operation_xyz
x,y,z
-y,x,1/2+z
-x,-y,z
y,-x,1/2+z
-x,-y,-z
y,-x,1/2-z
x,y,-z
-y,x,1/2-z
loop_
_atom_site_type_symbol
_atom_site_label
_atom_site_fract_x
_atom_site_fract_y
_atom_site_fract_z
Si Si1 0.344721 0.926858 0.784971
Si Si2 0.401605 0.849924 0.883143
Si Si3 0.946255 0.165935 0.887643
Si Si4 0.380194 0.386439 0.878348
Si Si5 0.616019 0.132200 0.448607
Si Si6 0.785484 0.163558 0.689720
O O1 0.386077 0.825679 0.828186
O O2 0.273374 0.853732 0.740911
O O3 0.500000 0.000000 0.770550
O O4 0.231759 0.049817 0.805533
O O5 0.229809 0.835080 0.897877
O O6 0.512175 0.729991 0.903391
O O7 0.500000 0.000000 0.887978
O O8 0.050341 0.247703 0.924202
O O9 0.007098 0.223144 0.837851
O O10 0.000000 0.000000 0.888013
O O11 0.500000 0.500000 0.859132
O O12 0.262333 0.442249 0.915668
O O13 0.281508 0.307712 0.839708
O O14 0.648848 0.184649 0.500000
O O15 0.500000 0.000000 0.450940
#
# Coordination Sequence:
#
# PCOD9544351 Si02
#       6
#     8   8   8   8   8   8
#     4  11  22  38  57  86 126 168 218 273 305 364
#     4  11  20  40  59  87 127 167 208 258 316 374
#     4  11  21  38  67  93 121 168 212 266 319 381
#     4  11  23  41  64  91 125 166 207 260 329 384
#     4  10  23  44  68  97 127 158 207 261 318 401
#     4  11  23  38  60  90 120 170 225 265 316 374
#
# _framework density 20.116434000000002
#
# number of rings (size 3 to 8) (size 9 to 14) (size 15 to 20)
#    0.000    1.167    5.000    3.000    0.000    6.000 
#    0.000    0.833    0.000    2.000    0.000    0.000 
#    0.000    0.000    0.000    0.000    0.000    0.000 
#
# Total GULP energy -267508.104760 kJ/mol
# GULP energy per Si atom -5573.085516 kJ/mol
# Density = 2.007065 g / cm^3
# Si number density = 20.116434 Si / 1000 Ang^3
#
#
#
# Elastic Constant Matrix: (Units=GPa)
#
#
# Indices 1 2 3 4 5 6 
#
# 1 87.3311 15.4908 9.6199 0.0000 0.0000 -3.5184
# 2 15.4908 87.3311 9.6199 0.0000 0.0000 3.5184
# 3 9.6199 9.6199 69.5046 0.0000 0.0000 0.0000
# 4 0.0000 0.0000 0.0000 14.3276 0.0000 0.0000
# 5 0.0000 0.0000 0.0000 0.0000 14.3276 0.0000
# 6 -3.5184 3.5184 0.0000 0.0000 0.0000 34.4227
#
#
#
# Elastic Compliance Matrix: (Units=1/GPa)
#
#
# Indices 1 2 3 4 5 6 
#
# 1 0.012022 -0.002038 -0.001382 0.000000 0.000000 0.001437
# 2 -0.002038 0.012022 -0.001382 0.000000 0.000000 -0.001437
# 3 -0.001382 -0.001382 0.014770 0.000000 0.000000 0.000000
# 4 0.000000 0.000000 0.000000 0.069795 0.000000 0.000000
# 5 0.000000 0.000000 0.000000 0.000000 0.069795 0.000000
# 6 0.001437 -0.001437 0.000000 0.000000 0.000000 0.029344
#
#
# Mechanical properties :
#
#
# Convention : Reuss Voigt Hill
#
# Bulk Modulus (GPa) = 34.23387 34.84755 34.54071
# Shear Modulus (GPa) = 22.01766 26.57801 24.29784
#
# Velocity S-wave (km/s) = 3.31193 3.63879 3.47920
# Velocity P-wave (km/s) = 5.62850 5.91734 5.77472
#
# Compressibility (1/GPa) = 0.02921084
#
# Stress axis : x y z
#
# Youngs Moduli (GPa) = 83.17855 83.17855 67.70457
#
# Poissons Ratio (x) = 0.16953 0.09356
# Poissons Ratio (y) = 0.16953 0.09356
# Poissons Ratio (z) = 0.11494 0.11494
#
# Static dielectric constant tensor:
#      x y z
#    x 1.675290 0.000000 0.000000 
#    y 0.000000 1.675290 0.000000 
#    z 0.000000 0.000000 1.702900 
# 
# From -- ./inp_files/5752.got.cif
#   From: 2010.05.17/outbox.cif.g08.bks.cpg/sg84_3_cif.got.tgz:5752.got - 2010.06.03 18:57:40.
