data_PCOD9544740
_publ_section_title
;
Structure prediction by ZEFSAII (Michael W. Deem and Ramdas Pophale) SiO2 
 PCOD9544740
Probable space group: P 4/N
;
_chemical_formula_sum "Si O2"
_cell_formula_units_Z 34
_cell_length_a 10.885080
_cell_length_b 10.885080
_cell_length_c 12.257580
_cell_angle_alpha 90.000000
_cell_angle_beta 90.000000
_cell_angle_gamma 90.000000
_cell_volume 1452.338957
_symmetry_space_group_name_H-M "P 4/N"
_symmetry_group_IT_number 85
_symmetry_cell_setting 'tetragonal'
loop_
_space_group_symop_operation_xyz
x,y,z
1/2-y,x,z
1/2-x,1/2-y,z
y,1/2-x,z
-x,-y,-z
1/2+y,-x,-z
1/2+x,1/2+y,-z
-y,1/2+x,-z
loop_
_atom_site_type_symbol
_atom_site_label
_atom_site_fract_x
_atom_site_fract_y
_atom_site_fract_z
Si Si1 0.250000 0.750000 0.500000
Si Si2 0.038811 0.415598 0.723912
Si Si3 0.503473 0.706724 0.431670
Si Si4 0.892851 0.602694 0.029465
Si Si5 0.171103 0.431723 0.316144
O O1 0.375241 0.777556 0.441250
O O2 0.087752 0.520788 0.641430
O O3 0.102574 0.405111 0.838898
O O4 0.071812 0.300136 0.647952
O O5 0.896398 0.452269 0.737275
O O6 0.554928 0.678173 0.551026
O O7 0.921127 0.747514 0.998034
O O8 0.000000 0.500000 0.000000
O O9 0.096067 0.310136 0.282986
#
# Coordination Sequence:
#
# PCOD9544740 Si02
#       5
#     2   8   8   8   8
#     4  12  24  36  56 100 154 192 228 296 332 412
#     4  12  24  41  69 101 132 186 239 292 355 433
#     4  12  22  38  62  95 142 187 237 277 341 422
#     4  11  27  54  83 113 146 190 253 327 400 469
#     4  11  23  38  58  94 145 191 231 277 337 417
#
# _framework density 23.410512000000001
#
# number of rings (size 3 to 8) (size 9 to 14) (size 15 to 20)
#    0.000    0.471    7.059    2.118    0.000    2.824 
#    0.000    2.353    0.000    0.000    0.000    0.000 
#    0.000    0.000    0.000    0.000    0.000    0.000 
#
# Total GULP energy -189353.561317 kJ/mol
# GULP energy per Si atom -5569.222392 kJ/mol
# Density = 2.335723 g / cm^3
# Si number density = 23.410512 Si / 1000 Ang^3
#
#
#
# Elastic Constant Matrix: (Units=GPa)
#
#
# Indices 1 2 3 4 5 6 
#
# 1 109.5099 63.0167 8.4975 0.0000 0.0000 -8.3585
# 2 63.0167 109.5099 8.4975 0.0000 0.0000 8.3585
# 3 8.4975 8.4975 64.2283 0.0000 0.0000 0.0000
# 4 0.0000 0.0000 0.0000 17.5657 0.0000 0.0000
# 5 0.0000 0.0000 0.0000 0.0000 17.5657 0.0000
# 6 -8.3585 8.3585 0.0000 0.0000 0.0000 42.9913
#
#
#
# Elastic Compliance Matrix: (Units=1/GPa)
#
#
# Indices 1 2 3 4 5 6 
#
# 1 0.014499 -0.008626 -0.000777 0.000000 0.000000 0.004496
# 2 -0.008626 0.014499 -0.000777 0.000000 0.000000 -0.004496
# 3 -0.000777 -0.000777 0.015775 0.000000 0.000000 0.000000
# 4 0.000000 0.000000 0.000000 0.056929 0.000000 0.000000
# 5 0.000000 0.000000 0.000000 0.000000 0.056929 0.000000
# 6 0.004496 -0.004496 0.000000 0.000000 0.000000 0.025009
#
#
# Mechanical properties :
#
#
# Convention : Reuss Voigt Hill
#
# Bulk Modulus (GPa) = 40.96238 49.25240 45.10739
# Shear Modulus (GPa) = 23.56961 29.17363 26.37162
#
# Velocity S-wave (km/s) = 3.17645 3.53395 3.35996
# Velocity P-wave (km/s) = 5.56673 6.14296 5.86193
#
# Compressibility (1/GPa) = 0.02441264
#
# Stress axis : x y z
#
# Youngs Moduli (GPa) = 68.97054 68.97054 63.39122
#
# Poissons Ratio (x) = 0.59495 0.04925
# Poissons Ratio (y) = 0.59495 0.04925
# Poissons Ratio (z) = 0.05359 0.05359
#
# Static dielectric constant tensor:
#      x y z
#    x 2.501490 0.000000 0.000000 
#    y 0.000000 2.501490 0.000000 
#    z 0.000000 0.000000 1.930530 
# 
# From -- ./inp_files/1423.got.cif
#   From: 2010.05.17/outbox.cif.g08.bks.cpg/sg85_cif.got.tgz:1423.got - 2010.06.03 19:01:16.
