data_PCOD9544953
_publ_section_title
;
Structure prediction by ZEFSAII (Michael W. Deem and Ramdas Pophale) SiO2 
 PCOD9544953
Probable space group: P 42/N
;
_chemical_formula_sum "Si O2"
_cell_formula_units_Z 56
_cell_length_a 11.899764
_cell_length_b 11.899764
_cell_length_c 21.953980
_cell_angle_alpha 90.000000
_cell_angle_beta 90.000000
_cell_angle_gamma 90.000000
_cell_volume 3108.779798
_symmetry_space_group_name_H-M "P 42/N"
_symmetry_group_IT_number 86
_space_group.IT_coordinate_system_code '2'
_symmetry_cell_setting 'tetragonal'
loop_
_space_group_symop_operation_xyz
x,y,z
-y,1/2+x,1/2+z
1/2-x,1/2-y,z
1/2+y,-x,1/2+z
-x,-y,-z
y,1/2-x,1/2-z
1/2+x,1/2+y,-z
1/2-y,x,1/2-z
loop_
_atom_site_type_symbol
_atom_site_label
_atom_site_fract_x
_atom_site_fract_y
_atom_site_fract_z
Si Si1 0.600083 0.357310 0.665296
Si Si2 0.957160 0.570834 0.751916
Si Si3 0.982855 0.682871 0.532462
Si Si4 0.407572 0.921874 0.970932
Si Si5 0.614598 0.736372 0.660552
Si Si6 0.978656 0.161242 0.017189
Si Si7 0.396538 0.633564 0.845109
O O1 0.553464 0.416781 0.725138
O O2 0.562751 0.408849 0.601419
O O3 0.579099 0.225474 0.659829
O O4 0.734187 0.379024 0.666801
O O5 0.931979 0.682770 0.713510
O O6 0.886056 0.585353 0.814005
O O7 0.915355 0.475144 0.706858
O O8 0.945168 0.730371 0.597869
O O9 0.874745 0.609469 0.509253
O O10 0.034110 0.786874 0.494612
O O11 0.084554 0.592572 0.529335
O O12 0.439368 0.791298 0.985903
O O13 0.500000 0.000000 0.000000
O O14 0.750000 0.750000 0.655159
O O15 0.947337 0.123931 0.086834
#
# Coordination Sequence:
#
# PCOD9544953 Si02
#       7
#     8   8   8   8   8   8   8
#     4  10  21  37  60  86 119 161 201 247 311 378
#     4  12  20  37  60  94 120 152 201 261 321 366
#     4  11  23  38  64  92 123 170 208 258 323 385
#     4  11  23  39  62  93 128 163 210 266 320 381
#     4  12  22  35  61  96 128 150 198 271 324 369
#     4  10  22  41  62  90 121 168 215 259 312 382
#     4  10  19  38  64  83 118 160 204 250 304 382
#
# _framework density 18.013497999999998
#
# number of rings (size 3 to 8) (size 9 to 14) (size 15 to 20)
#    0.000    1.143    5.714    1.286    4.000    0.000 
#    0.000    4.286    0.000    0.429    0.000    0.000 
#    0.000    0.000    0.000    0.000    0.000    0.000 
#
# Total GULP energy -312286.946565 kJ/mol
# GULP energy per Si atom -5576.552617 kJ/mol
# Density = 1.797250 g / cm^3
# Si number density = 18.013498 Si / 1000 Ang^3
#
#
#
# Elastic Constant Matrix: (Units=GPa)
#
#
# Indices 1 2 3 4 5 6 
#
# 1 85.6581 36.2612 41.3872 0.0000 0.0000 -2.7517
# 2 36.2612 85.6581 41.3872 0.0000 0.0000 2.7517
# 3 41.3872 41.3872 92.5111 0.0000 0.0000 0.0000
# 4 0.0000 0.0000 0.0000 30.2979 0.0000 0.0000
# 5 0.0000 0.0000 0.0000 0.0000 30.2979 0.0000
# 6 -2.7517 2.7517 0.0000 0.0000 0.0000 29.5119
#
#
#
# Elastic Compliance Matrix: (Units=1/GPa)
#
#
# Indices 1 2 3 4 5 6 
#
# 1 0.016118 -0.004338 -0.005270 0.000000 0.000000 0.001907
# 2 -0.004338 0.016118 -0.005270 0.000000 0.000000 -0.001907
# 3 -0.005270 -0.005270 0.015525 0.000000 0.000000 0.000000
# 4 0.000000 0.000000 0.000000 0.033006 0.000000 0.000000
# 5 0.000000 0.000000 0.000000 0.000000 0.033006 0.000000
# 6 0.001907 -0.001907 0.000000 0.000000 0.000000 0.034240
#
#
# Mechanical properties :
#
#
# Convention : Reuss Voigt Hill
#
# Bulk Modulus (GPa) = 55.54100 55.76653 55.65376
# Shear Modulus (GPa) = 27.20759 27.67431 27.44095
#
# Velocity S-wave (km/s) = 3.89060 3.92383 3.90725
# Velocity P-wave (km/s) = 7.14719 7.18011 7.16367
#
# Compressibility (1/GPa) = 0.01800472
#
# Stress axis : x y z
#
# Youngs Moduli (GPa) = 62.04068 62.04068 64.41218
#
# Poissons Ratio (x) = 0.26915 0.33946
# Poissons Ratio (y) = 0.26915 0.33946
# Poissons Ratio (z) = 0.32697 0.32697
#
# Static dielectric constant tensor:
#      x y z
#    x 1.645760 0.000000 0.000000 
#    y 0.000000 1.645760 0.000000 
#    z 0.000000 0.000000 1.609660 
# 
# From -- ./inp_files/4211.got.cif
#   From: 2010.05.17/outbox.cif.g08.bks.cpg/sg86_3_cif.got.tgz:4211.got - 2010.06.03 19:03:11.
