data_PCOD9544139
_publ_section_title
;
Structure prediction by ZEFSAII (Michael W. Deem and Ramdas Pophale) SiO2 
 PCOD9544139
Probable space group: P 42/M
;
_chemical_formula_sum "Si O2"
_cell_formula_units_Z 48
_cell_length_a 8.616581
_cell_length_b 8.616581
_cell_length_c 32.707600
_cell_angle_alpha 90.000000
_cell_angle_beta 90.000000
_cell_angle_gamma 90.000000
_cell_volume 2428.391073
_symmetry_space_group_name_H-M "P 42/M"
_symmetry_group_IT_number 84
_symmetry_cell_setting 'tetragonal'
loop_
_space_group_symop_operation_xyz
x,y,z
-y,x,1/2+z
-x,-y,z
y,-x,1/2+z
-x,-y,-z
y,-x,1/2-z
x,y,-z
-y,x,1/2-z
loop_
_atom_site_type_symbol
_atom_site_label
_atom_site_fract_x
_atom_site_fract_y
_atom_site_fract_z
Si Si1 0.746143 0.163411 0.679357
Si Si2 0.883603 0.240933 0.883876
Si Si3 0.334420 0.908240 0.453474
Si Si4 0.056654 0.327646 0.332739
Si Si5 0.449137 0.677933 0.611168
Si Si6 0.733655 0.609047 0.742862
O O1 0.655756 0.288795 0.650957
O O2 0.658206 0.146870 0.721906
O O3 0.917817 0.228442 0.686697
O O4 0.750812 0.007834 0.652807
O O5 0.763837 0.106838 0.873117
O O6 0.785891 0.399376 0.884449
O O7 0.981482 0.227892 0.925389
O O8 0.283563 0.885528 0.500000
O O9 0.361394 0.749173 0.428328
O O10 0.500000 0.000000 0.454564
O O11 0.198205 0.345026 0.300930
O O12 0.000000 0.500000 0.341878
O O13 0.500000 0.500000 0.607721
O O14 0.696370 0.427098 0.746882
#
# Coordination Sequence:
#
# PCOD9544139 Si02
#       6
#     8   8   8   8   8   8
#     4  11  23  39  59  82 119 156 205 252 304 373
#     4  10  22  39  61  86 122 164 199 254 307 376
#     4   8  16  34  60  93 124 157 200 248 311 374
#     4  12  24  40  58  87 114 158 208 258 308 361
#     4  10  20  35  62  91 119 162 200 250 309 367
#     4  11  25  41  60  85 116 156 198 253 309 360
#
# _framework density 19.766172999999998
#
# number of rings (size 3 to 8) (size 9 to 14) (size 15 to 20)
#    0.000    1.667    1.667    4.000    4.667    1.667 
#    0.000    0.000    0.000    8.500    0.000    0.000 
#    0.000    0.000    0.000    0.000    0.000    0.000 
#
# Total GULP energy -268235.812008 kJ/mol
# GULP energy per Si atom -5588.246083 kJ/mol
# Density = 1.972118 g / cm^3
# Si number density = 19.766173 Si / 1000 Ang^3
#
#
#
# Elastic Constant Matrix: (Units=GPa)
#
#
# Indices 1 2 3 4 5 6 
#
# 1 81.4258 21.7667 24.3887 0.0000 0.0000 0.3623
# 2 21.7667 81.4258 24.3887 0.0000 0.0000 -0.3623
# 3 24.3887 24.3887 83.7637 0.0000 0.0000 0.0000
# 4 0.0000 0.0000 0.0000 17.2123 0.0000 0.0000
# 5 0.0000 0.0000 0.0000 0.0000 17.2123 0.0000
# 6 0.3623 -0.3623 0.0000 0.0000 0.0000 29.1348
#
#
#
# Elastic Compliance Matrix: (Units=1/GPa)
#
#
# Indices 1 2 3 4 5 6 
#
# 1 0.014001 -0.002764 -0.003272 0.000000 0.000000 -0.000208
# 2 -0.002764 0.014001 -0.003272 0.000000 0.000000 0.000208
# 3 -0.003272 -0.003272 0.013844 0.000000 0.000000 0.000000
# 4 0.000000 0.000000 0.000000 0.058098 0.000000 0.000000
# 5 0.000000 0.000000 0.000000 0.000000 0.058098 0.000000
# 6 -0.000208 0.000208 0.000000 0.000000 0.000000 0.034328
#
#
# Mechanical properties :
#
#
# Convention : Reuss Voigt Hill
#
# Bulk Modulus (GPa) = 43.04657 43.07814 43.06236
# Shear Modulus (GPa) = 22.85951 24.44998 23.65475
#
# Velocity S-wave (km/s) = 3.40442 3.52086 3.46313
# Velocity P-wave (km/s) = 6.10562 6.19434 6.15014
#
# Compressibility (1/GPa) = 0.02323065
#
# Stress axis : x y z
#
# Youngs Moduli (GPa) = 71.42449 71.42449 72.23564
#
# Poissons Ratio (x) = 0.19739 0.23634
# Poissons Ratio (y) = 0.19739 0.23634
# Poissons Ratio (z) = 0.23369 0.23369
#
# Static dielectric constant tensor:
#      x y z
#    x 1.719840 0.000000 0.000000 
#    y 0.000000 1.719840 0.000000 
#    z 0.000000 0.000000 1.683790 
# 
# From -- ./inp_files/5731.got.cif
#   From: 2010.05.17/outbox.cif.g08.bks.cpg/sg84_3_cif.got.tgz:5731.got - 2010.06.03 18:57:40.
