data_PCOD9544924
_publ_section_title
;
Structure prediction by ZEFSAII (Michael W. Deem and Ramdas Pophale) SiO2 
 PCOD9544924
Probable space group: P 42/N
;
_chemical_formula_sum "Si O2"
_cell_formula_units_Z 48
_cell_length_a 11.824756
_cell_length_b 11.824756
_cell_length_c 19.543145
_cell_angle_alpha 90.000000
_cell_angle_beta 90.000000
_cell_angle_gamma 90.000000
_cell_volume 2732.617405
_symmetry_space_group_name_H-M "P 42/N"
_symmetry_group_IT_number 86
_space_group.IT_coordinate_system_code '2'
_symmetry_cell_setting 'tetragonal'
loop_
_space_group_symop_operation_xyz
x,y,z
-y,1/2+x,1/2+z
1/2-x,1/2-y,z
1/2+y,-x,1/2+z
-x,-y,-z
y,1/2-x,1/2-z
1/2+x,1/2+y,-z
1/2-y,x,1/2-z
loop_
_atom_site_type_symbol
_atom_site_label
_atom_site_fract_x
_atom_site_fract_y
_atom_site_fract_z
Si Si1 0.884363 0.247389 0.151850
Si Si2 0.615755 0.495712 0.200253
Si Si3 0.660120 0.986678 0.020031
Si Si4 0.077846 0.076745 0.951433
Si Si5 0.510892 0.195131 0.011625
Si Si6 0.997097 0.119395 0.679105
O O1 0.750000 0.250000 0.134837
O O2 0.906620 0.137658 0.195939
O O3 0.952084 0.243890 0.081291
O O4 0.910138 0.365296 0.187788
O O5 0.568747 0.547625 0.129143
O O6 0.749878 0.514141 0.197599
O O7 0.568990 0.546326 0.269553
O O8 0.792485 0.955555 0.026380
O O9 0.618436 0.111474 0.994714
O O10 0.612206 0.979010 0.098085
O O11 0.592076 0.892590 0.978162
O O12 0.036875 0.206237 0.962771
O O13 0.000000 0.000000 0.000000
#
# Coordination Sequence:
#
# PCOD9544924 Si02
#       6
#     8   8   8   8   8   8
#     4   9  18  37  61  76 106 152 183 220 280 341
#     4  10  20  36  55  82 109 141 188 227 278 329
#     4   9  21  37  55  85 114 151 186 226 290 343
#     4  11  21  34  59  87 113 145 188 238 281 340
#     4  10  19  35  59  81 114 147 183 230 279 337
#     4   9  20  35  58  77 109 147 180 227 276 330
#
# _framework density 17.565577999999999
#
# number of rings (size 3 to 8) (size 9 to 14) (size 15 to 20)
#    0.000    2.333    1.667    1.500    2.333    0.333 
#    0.000    5.000    3.667    0.000    0.000    0.000 
#    0.000    0.000    0.000    0.000    0.000    0.000 
#
# Total GULP energy -267323.582613 kJ/mol
# GULP energy per Si atom -5569.241304 kJ/mol
# Density = 1.752560 g / cm^3
# Si number density = 17.565578 Si / 1000 Ang^3
#
#
#
# Elastic Constant Matrix: (Units=GPa)
#
#
# Indices 1 2 3 4 5 6 
#
# 1 55.6256 33.4041 31.6178 0.0000 0.0000 2.6212
# 2 33.4041 55.6256 31.6178 0.0000 0.0000 -2.6212
# 3 31.6178 31.6178 52.1107 0.0000 0.0000 0.0000
# 4 0.0000 0.0000 0.0000 28.9661 0.0000 0.0000
# 5 0.0000 0.0000 0.0000 0.0000 28.9661 0.0000
# 6 2.6212 -2.6212 0.0000 0.0000 0.0000 26.7500
#
#
#
# Elastic Compliance Matrix: (Units=1/GPa)
#
#
# Indices 1 2 3 4 5 6 
#
# 1 0.032903 -0.013164 -0.011976 0.000000 0.000000 -0.004514
# 2 -0.013164 0.032903 -0.011976 0.000000 0.000000 0.004514
# 3 -0.011976 -0.011976 0.033723 0.000000 0.000000 0.000000
# 4 0.000000 0.000000 0.000000 0.034523 0.000000 0.000000
# 5 0.000000 0.000000 0.000000 0.000000 0.034523 0.000000
# 6 -0.004514 0.004514 0.000000 0.000000 0.000000 0.038268
#
#
# Mechanical properties :
#
#
# Convention : Reuss Voigt Hill
#
# Bulk Modulus (GPa) = 39.53333 39.62685 39.58009
# Shear Modulus (GPa) = 17.27075 21.38460 19.32767
#
# Velocity S-wave (km/s) = 3.13903 3.49293 3.32070
# Velocity P-wave (km/s) = 5.97436 6.23505 6.10609
#
# Compressibility (1/GPa) = 0.02529511
#
# Stress axis : x y z
#
# Youngs Moduli (GPa) = 30.39279 30.39279 29.65328
#
# Poissons Ratio (x) = 0.40009 0.35514
# Poissons Ratio (y) = 0.40009 0.35514
# Poissons Ratio (z) = 0.36399 0.36399
#
# Static dielectric constant tensor:
#      x y z
#    x 1.627930 0.000000 0.000000 
#    y 0.000000 1.627930 0.000000 
#    z 0.000000 0.000000 1.580440 
# 
# From -- ./inp_files/3530.got.cif
#   From: 2010.05.17/outbox.cif.g08.bks.cpg/sg86_2_cif.got.tgz:3530.got - 2010.06.03 19:03:11.
