data_PCOD9544624
_publ_section_title
;
Structure prediction by ZEFSAII (Michael W. Deem and Ramdas Pophale) SiO2 
 PCOD9544624
Probable space group: P 4/N
;
_chemical_formula_sum "Si O2"
_cell_formula_units_Z 32
_cell_length_a 11.367640
_cell_length_b 11.367640
_cell_length_c 11.912908
_cell_angle_alpha 90.000000
_cell_angle_beta 90.000000
_cell_angle_gamma 90.000000
_cell_volume 1539.424560
_symmetry_space_group_name_H-M "P 4/N"
_symmetry_group_IT_number 85
_symmetry_cell_setting 'tetragonal'
loop_
_space_group_symop_operation_xyz
x,y,z
1/2-y,x,z
1/2-x,1/2-y,z
y,1/2-x,z
-x,-y,-z
1/2+y,-x,-z
1/2+x,1/2+y,-z
-y,1/2+x,-z
loop_
_atom_site_type_symbol
_atom_site_label
_atom_site_fract_x
_atom_site_fract_y
_atom_site_fract_z
Si Si1 0.997242 0.995715 0.306463
Si Si2 0.158471 0.074952 0.496703
Si Si3 0.930458 0.833122 0.869080
Si Si4 0.333075 0.069618 0.879113
O O1 0.885261 0.981561 0.387561
O O2 0.005710 0.887159 0.220464
O O3 0.106722 0.005035 0.391360
O O4 0.992441 0.110993 0.228303
O O5 0.296573 0.096926 0.492010
O O6 0.804189 0.899550 0.858779
O O7 0.977183 0.853924 0.995015
O O8 0.399660 0.195701 0.869753
#
# Coordination Sequence:
#
# PCOD9544624 Si02
#       4
#     8   8   8   8
#     4  11  19  30  56  82  99 129 172 216 256 297
#     4  10  22  38  54  74 100 132 174 220 258 296
#     4   9  18  33  54  80 107 134 167 207 249 298
#     4   9  18  33  54  80 107 134 167 207 249 298
#
# _framework density 20.786985999999999
#
# number of rings (size 3 to 8) (size 9 to 14) (size 15 to 20)
#    0.000    2.250    0.000    5.250    0.000    4.000 
#    0.000    0.000    0.000   61.500    0.000   28.000 
#    0.000    0.000    0.000    0.000    0.000    0.000 
#
# Total GULP energy -178726.165926 kJ/mol
# GULP energy per Si atom -5585.192685 kJ/mol
# Density = 2.073967 g / cm^3
# Si number density = 20.786986 Si / 1000 Ang^3
#
#
#
# Elastic Constant Matrix: (Units=GPa)
#
#
# Indices 1 2 3 4 5 6 
#
# 1 24.7773 13.9508 8.9343 0.0000 0.0000 -5.1089
# 2 13.9508 24.7773 8.9343 0.0000 0.0000 5.1089
# 3 8.9343 8.9343 97.4821 0.0000 0.0000 0.0000
# 4 0.0000 0.0000 0.0000 14.3895 0.0000 0.0000
# 5 0.0000 0.0000 0.0000 0.0000 14.3895 0.0000
# 6 -5.1089 5.1089 0.0000 0.0000 0.0000 34.7014
#
#
#
# Elastic Compliance Matrix: (Units=1/GPa)
#
#
# Indices 1 2 3 4 5 6 
#
# 1 0.067116 -0.040155 -0.002471 0.000000 0.000000 0.015793
# 2 -0.040155 0.067116 -0.002471 0.000000 0.000000 -0.015793
# 3 -0.002471 -0.002471 0.010711 0.000000 0.000000 0.000000
# 4 0.000000 0.000000 0.000000 0.069495 0.000000 0.000000
# 5 0.000000 0.000000 0.000000 0.000000 0.069495 0.000000
# 6 0.015793 -0.015793 0.000000 0.000000 0.000000 0.033468
#
#
# Mechanical properties :
#
#
# Convention : Reuss Voigt Hill
#
# Bulk Modulus (GPa) = 18.26503 23.40839 20.83671
# Shear Modulus (GPa) = 11.74134 20.37724 16.05929
#
# Velocity S-wave (km/s) = 2.37922 3.13435 2.78252
# Velocity P-wave (km/s) = 4.04393 4.93806 4.51319
#
# Compressibility (1/GPa) = 0.05474943
#
# Stress axis : x y z
#
# Youngs Moduli (GPa) = 14.89953 14.89953 93.35999
#
# Poissons Ratio (x) = 0.59829 0.23069
# Poissons Ratio (y) = 0.59829 0.23069
# Poissons Ratio (z) = 0.03682 0.03682
#
# Static dielectric constant tensor:
#      x y z
#    x 1.745570 0.000000 0.000000 
#    y 0.000000 1.745570 0.000000 
#    z 0.000000 0.000000 1.773970 
# 
# From -- ./inp_files/1398.got.cif
#   From: 2010.05.17/outbox.cif.g08.bks.cpg/sg85_cif.got.tgz:1398.got - 2010.06.03 19:01:16.
