data_PCOD9544265
_publ_section_title
;
Structure prediction by ZEFSAII (Michael W. Deem and Ramdas Pophale) SiO2 
 PCOD9544265
Probable space group: P 42/M
;
_chemical_formula_sum "Si O2"
_cell_formula_units_Z 40
_cell_length_a 14.512819
_cell_length_b 14.512819
_cell_length_c 9.944624
_cell_angle_alpha 90.000000
_cell_angle_beta 90.000000
_cell_angle_gamma 90.000000
_cell_volume 2094.555754
_symmetry_space_group_name_H-M "P 42/M"
_symmetry_group_IT_number 84
_symmetry_cell_setting 'tetragonal'
loop_
_space_group_symop_operation_xyz
x,y,z
-y,x,1/2+z
-x,-y,z
y,-x,1/2+z
-x,-y,-z
y,-x,1/2-z
x,y,-z
-y,x,1/2-z
loop_
_atom_site_type_symbol
_atom_site_label
_atom_site_fract_x
_atom_site_fract_y
_atom_site_fract_z
Si Si1 0.918004 0.129219 0.000000
Si Si2 0.922977 0.131591 0.500000
Si Si3 0.998501 0.608191 0.338128
Si Si4 0.143191 0.752123 0.251003
Si Si5 0.374162 0.467181 0.334662
Si Si6 0.661197 0.208244 0.160222
O O1 0.893662 0.190669 0.125838
O O2 0.024712 0.102304 0.000000
O O3 0.861612 0.033778 0.000000
O O4 0.880708 0.182630 0.374416
O O5 0.007472 0.619243 0.500000
O O6 0.898244 0.648454 0.298694
O O7 0.000000 0.500000 0.308609
O O8 0.083648 0.660335 0.270371
O O9 0.252481 0.744401 0.233120
O O10 0.395379 0.558335 0.245384
O O11 0.392267 0.474876 0.500000
O O12 0.270622 0.429413 0.320778
O O13 0.680273 0.208584 0.000000
#
# Coordination Sequence:
#
# PCOD9544265 Si02
#       6
#     4   4   8   8   8   8
#     4  11  22  36  61  82 128 157 197 258 310 358
#     4  11  22  36  57  94 114 159 211 252 298 364
#     4  10  22  41  64  92 125 165 212 261 313 379
#     4  12  22  39  62  86 125 162 209 252 311 375
#     4  10  21  40  66  94 125 158 205 262 319 377
#     4  10  22  40  63  88 128 169 202 256 319 371
#
# _framework density 19.097127
#
# number of rings (size 3 to 8) (size 9 to 14) (size 15 to 20)
#    0.000    1.400    2.000    4.800    2.800    1.600 
#    3.600    0.500    0.000    0.000    0.000    0.000 
#    0.000    0.000    0.000    0.000    0.000    0.000 
#
# Total GULP energy -223178.429704 kJ/mol
# GULP energy per Si atom -5579.460743 kJ/mol
# Density = 1.905366 g / cm^3
# Si number density = 19.097127 Si / 1000 Ang^3
#
#
#
# Elastic Constant Matrix: (Units=GPa)
#
#
# Indices 1 2 3 4 5 6 
#
# 1 72.7054 11.3569 10.0548 0.0000 0.0000 2.1978
# 2 11.3569 72.7054 10.0548 0.0000 0.0000 -2.1978
# 3 10.0548 10.0548 105.1691 0.0000 0.0000 0.0000
# 4 0.0000 0.0000 0.0000 29.5492 0.0000 0.0000
# 5 0.0000 0.0000 0.0000 0.0000 29.5492 0.0000
# 6 2.1978 -2.1978 0.0000 0.0000 0.0000 39.0499
#
#
#
# Elastic Compliance Matrix: (Units=1/GPa)
#
#
# Indices 1 2 3 4 5 6 
#
# 1 0.014270 -0.002096 -0.001164 0.000000 0.000000 -0.000921
# 2 -0.002096 0.014270 -0.001164 0.000000 0.000000 0.000921
# 3 -0.001164 -0.001164 0.009731 0.000000 0.000000 0.000000
# 4 0.000000 0.000000 0.000000 0.033842 0.000000 0.000000
# 5 0.000000 0.000000 0.000000 0.000000 0.033842 0.000000
# 6 -0.000921 0.000921 0.000000 0.000000 0.000000 0.025712
#
#
# Mechanical properties :
#
#
# Convention : Reuss Voigt Hill
#
# Bulk Modulus (GPa) = 33.98583 34.83478 34.41030
# Shear Modulus (GPa) = 33.26171 34.23724 33.74947
#
# Velocity S-wave (km/s) = 4.17791 4.23874 4.20843
# Velocity P-wave (km/s) = 6.41157 6.49894 6.45540
#
# Compressibility (1/GPa) = 0.02942403
#
# Stress axis : x y z
#
# Youngs Moduli (GPa) = 70.07542 70.07542 102.76374
#
# Poissons Ratio (x) = 0.14688 0.11961
# Poissons Ratio (y) = 0.14688 0.11961
# Poissons Ratio (z) = 0.08156 0.08156
#
# Static dielectric constant tensor:
#      x y z
#    x 1.676220 0.000000 0.000000 
#    y 0.000000 1.676220 0.000000 
#    z 0.000000 0.000000 1.629170 
# 
# From -- ./inp_files/844.got.cif
#   From: 2010.05.17/outbox.cif.g08.bks.cpg/sg84_1_cif.got.tgz:844.got - 2010.06.03 18:57:40.
