data_PCOD9544942
_publ_section_title
;
Structure prediction by ZEFSAII (Michael W. Deem and Ramdas Pophale) SiO2 
 PCOD9544942
Probable space group: P 42/N
;
_chemical_formula_sum "Si O2"
_cell_formula_units_Z 36
_cell_length_a 9.929741
_cell_length_b 9.929741
_cell_length_c 15.947672
_cell_angle_alpha 90.000000
_cell_angle_beta 90.000000
_cell_angle_gamma 90.000000
_cell_volume 1572.436573
_symmetry_space_group_name_H-M "P 42/N"
_symmetry_group_IT_number 86
_space_group.IT_coordinate_system_code '2'
_symmetry_cell_setting 'tetragonal'
loop_
_space_group_symop_operation_xyz
x,y,z
-y,1/2+x,1/2+z
1/2-x,1/2-y,z
1/2+y,-x,1/2+z
-x,-y,-z
y,1/2-x,1/2-z
1/2+x,1/2+y,-z
1/2-y,x,1/2-z
loop_
_atom_site_type_symbol
_atom_site_label
_atom_site_fract_x
_atom_site_fract_y
_atom_site_fract_z
Si Si1 0.006875 0.674849 0.286824
Si Si2 0.375287 0.103754 0.295663
Si Si3 0.322217 0.466676 0.441151
Si Si4 0.894383 0.921702 0.377484
Si Si5 0.250000 0.750000 0.407820
O O1 0.011447 0.511492 0.294907
O O2 0.133169 0.714425 0.343236
O O3 0.904074 0.779941 0.327889
O O4 0.009616 0.693651 0.186781
O O5 0.251964 0.074032 0.229784
O O6 0.292930 0.097236 0.382995
O O7 0.462809 0.498316 0.392250
O O8 0.345271 0.395251 0.528815
O O9 0.276752 0.619129 0.462072
#
# Coordination Sequence:
#
# PCOD9544942 Si02
#       5
#     8   8   8   8   4
#     4  10  20  37  60  91 121 168 203 253 314 382
#     4  10  19  36  65  91 119 159 216 261 308 366
#     4   9  18  36  61  91 119 166 208 264 310 372
#     4  10  20  36  61  87 128 162 206 252 323 375
#     4   8  18  34  62  90 124 156 220 258 300 380
#
# _framework density 22.894404000000002
#
# number of rings (size 3 to 8) (size 9 to 14) (size 15 to 20)
#    0.000    2.444    2.222    0.000    0.000    1.333 
#    0.000    4.444    0.000    8.000    0.000    0.000 
#    0.000    0.000    0.000    0.000    0.000    0.000 
#
# Total GULP energy -200533.610835 kJ/mol
# GULP energy per Si atom -5570.378079 kJ/mol
# Density = 2.284230 g / cm^3
# Si number density = 22.894404 Si / 1000 Ang^3
#
#
#
# Elastic Constant Matrix: (Units=GPa)
#
#
# Indices 1 2 3 4 5 6 
#
# 1 59.0036 -4.1122 16.8547 0.0000 0.0000 2.7132
# 2 -4.1122 59.0036 16.8547 0.0000 0.0000 -2.7132
# 3 16.8547 16.8547 141.9625 0.0000 0.0000 0.0000
# 4 0.0000 0.0000 0.0000 78.3154 0.0000 0.0000
# 5 0.0000 0.0000 0.0000 0.0000 78.3154 0.0000
# 6 2.7132 -2.7132 0.0000 0.0000 0.0000 8.2976
#
#
#
# Elastic Compliance Matrix: (Units=1/GPa)
#
#
# Indices 1 2 3 4 5 6 
#
# 1 0.017976 0.001674 -0.002333 0.000000 0.000000 -0.005331
# 2 0.001674 0.017976 -0.002333 0.000000 0.000000 0.005331
# 3 -0.002333 -0.002333 0.007598 0.000000 0.000000 0.000000
# 4 0.000000 0.000000 0.000000 0.012769 0.000000 0.000000
# 5 0.000000 0.000000 0.000000 0.000000 0.012769 0.000000
# 6 -0.005331 0.005331 0.000000 0.000000 0.000000 0.124003
#
#
# Mechanical properties :
#
#
# Convention : Reuss Voigt Hill
#
# Bulk Modulus (GPa) = 26.61912 35.46269 31.04091
# Shear Modulus (GPa) = 23.62979 48.34383 35.98681
#
# Velocity S-wave (km/s) = 3.21615 4.60020 3.96897
# Velocity P-wave (km/s) = 5.04417 6.61355 5.88144
#
# Compressibility (1/GPa) = 0.03756698
#
# Stress axis : x y z
#
# Youngs Moduli (GPa) = 55.62867 55.62867 131.61182
#
# Poissons Ratio (x) = -0.09313 0.30706
# Poissons Ratio (y) = -0.09313 0.30706
# Poissons Ratio (z) = 0.12978 0.12978
#
# Static dielectric constant tensor:
#      x y z
#    x 1.912230 0.000000 0.000000 
#    y 0.000000 1.912230 0.000000 
#    z 0.000000 0.000000 1.831680 
# 
# From -- ./inp_files/2781.got.cif
#   From: 2010.05.17/outbox.cif.g08.bks.cpg/sg86_2_cif.got.tgz:2781.got - 2010.06.03 19:03:11.
