data_PCOD9544838
_publ_section_title
;
Structure prediction by ZEFSAII (Michael W. Deem and Ramdas Pophale) SiO2 
 PCOD9544838
Probable space group: P 4/N
;
_chemical_formula_sum "Si O2"
_cell_formula_units_Z 36
_cell_length_a 9.975244
_cell_length_b 9.975244
_cell_length_c 19.533644
_cell_angle_alpha 90.000000
_cell_angle_beta 90.000000
_cell_angle_gamma 90.000000
_cell_volume 1943.704874
_symmetry_space_group_name_H-M "P 4/N"
_symmetry_group_IT_number 85
_symmetry_cell_setting 'tetragonal'
loop_
_space_group_symop_operation_xyz
x,y,z
1/2-y,x,z
1/2-x,1/2-y,z
y,1/2-x,z
-x,-y,-z
1/2+y,-x,-z
1/2+x,1/2+y,-z
-y,1/2+x,-z
loop_
_atom_site_type_symbol
_atom_site_label
_atom_site_fract_x
_atom_site_fract_y
_atom_site_fract_z
Si Si1 0.750000 0.250000 0.500000
Si Si2 0.416617 0.521714 0.430870
Si Si3 0.750000 0.750000 0.596785
Si Si4 0.108109 0.423940 0.701466
Si Si5 0.408078 0.096445 0.043785
Si Si6 0.416360 0.103262 0.207278
O O1 0.865411 0.308824 0.451283
O O2 0.500000 0.500000 0.500000
O O3 0.343170 0.387252 0.406914
O O4 0.518673 0.572465 0.373087
O O5 0.068098 0.268462 0.709952
O O6 0.023856 0.514175 0.753938
O O7 0.432833 0.252585 0.028185
O O8 0.428740 0.083948 0.125504
O O9 0.500000 0.000000 0.000000
O O10 0.431927 0.261376 0.224522
#
# Coordination Sequence:
#
# PCOD9544838 Si02
#       6
#     2   8   2   8   8   8
#     4  12  24  44  68  88 120 160 200 250 308 364
#     4  12  26  43  65  94 122 156 203 253 305 363
#     4  12  28  40  68  96 120 156 204 246 316 356
#     4  11  27  44  61  86 123 161 200 250 307 363
#     4   9  19  37  60  91 125 162 200 246 296 352
#     4   9  21  41  65  89 120 158 205 251 298 356
#
# _framework density 18.521329999999999
#
# number of rings (size 3 to 8) (size 9 to 14) (size 15 to 20)
#    0.000    1.556    2.222    2.667    3.111    3.111 
#    0.000    6.667    0.000    0.000    0.000    0.000 
#    0.000    0.000    0.000    0.000    0.000    0.000 
#
# Total GULP energy -200655.762200 kJ/mol
# GULP energy per Si atom -5573.771172 kJ/mol
# Density = 1.847917 g / cm^3
# Si number density = 18.521330 Si / 1000 Ang^3
#
#
#
# Elastic Constant Matrix: (Units=GPa)
#
#
# Indices 1 2 3 4 5 6 
#
# 1 129.0603 110.5534 67.0466 0.0000 0.0000 19.8522
# 2 110.5534 129.0603 67.0466 0.0000 0.0000 -19.8522
# 3 67.0466 67.0466 70.2314 0.0000 0.0000 0.0000
# 4 0.0000 0.0000 0.0000 29.4307 0.0000 0.0000
# 5 0.0000 0.0000 0.0000 0.0000 29.4307 0.0000
# 6 19.8522 -19.8522 0.0000 0.0000 0.0000 13.9254
#
#
#
# Elastic Compliance Matrix: (Units=1/GPa)
#
#
# Indices 1 2 3 4 5 6 
#
# 1 -0.008644 0.017605 -0.008554 0.000000 0.000000 0.037421
# 2 0.017605 -0.008644 -0.008554 0.000000 0.000000 -0.037421
# 3 -0.008554 -0.008554 0.030571 0.000000 0.000000 0.000000
# 4 0.000000 0.000000 0.000000 0.033978 0.000000 0.000000
# 5 0.000000 0.000000 0.000000 0.000000 0.033978 0.000000
# 6 0.037421 -0.037421 0.000000 0.000000 0.000000 -0.034886
#
#
# Mechanical properties :
#
#
# Convention : Reuss Voigt Hill
#
# Bulk Modulus (GPa) = 70.05013 90.84948 80.44981
# Shear Modulus (GPa) = 99.76458 20.13773 59.95115
#
# Velocity S-wave (km/s) = 7.34722 3.30096 5.69552
# Velocity P-wave (km/s) = 10.48232 7.98036 9.31572
#
# Compressibility (1/GPa) = 0.01427549
#
# Stress axis : x y z
#
# Youngs Moduli (GPa) = -115.68084 -115.68084 32.71066
#
# Poissons Ratio (x) = 2.03655 0.27981
# Poissons Ratio (y) = 2.03655 0.27981
# Poissons Ratio (z) = -0.98955 -0.98955
#
# Static dielectric constant tensor:
#      x y z
#    x 1.620450 0.000000 0.000000 
#    y 0.000000 1.620450 0.000000 
#    z 0.000000 0.000000 1.465040 
# 
# From -- ./inp_files/2210.got.cif
#   From: 2010.05.17/outbox.cif.g08.bks.cpg/sg85_cif.got.tgz:2210.got - 2010.06.03 19:01:16.
