data_PCOD9544110
_publ_section_title
;
Structure prediction by ZEFSAII (Michael W. Deem and Ramdas Pophale) SiO2 
 PCOD9544110
Probable space group: P 42/M
;
_chemical_formula_sum "Si O2"
_cell_formula_units_Z 40
_cell_length_a 16.266178
_cell_length_b 16.266178
_cell_length_c 8.541422
_cell_angle_alpha 90.000000
_cell_angle_beta 90.000000
_cell_angle_gamma 90.000000
_cell_volume 2259.962434
_symmetry_space_group_name_H-M "P 42/M"
_symmetry_group_IT_number 84
_symmetry_cell_setting 'tetragonal'
loop_
_space_group_symop_operation_xyz
x,y,z
-y,x,1/2+z
-x,-y,z
y,-x,1/2+z
-x,-y,-z
y,-x,1/2-z
x,y,-z
-y,x,1/2-z
loop_
_atom_site_type_symbol
_atom_site_label
_atom_site_fract_x
_atom_site_fract_y
_atom_site_fract_z
Si Si1 0.238473 0.012481 0.810582
Si Si2 0.222295 0.357980 0.312258
Si Si3 0.442881 0.614595 0.314221
Si Si4 0.814317 0.160664 0.687671
Si Si5 0.582091 0.044406 0.809589
O O1 0.191889 0.934011 0.740443
O O2 0.334123 0.002300 0.764469
O O3 0.200651 0.099429 0.763087
O O4 0.234505 0.006557 0.000000
O O5 0.227742 0.361439 0.500000
O O6 0.303585 0.396732 0.239689
O O7 0.206906 0.264092 0.260715
O O8 0.139505 0.406898 0.262450
O O9 0.532932 0.606285 0.237463
O O10 0.452396 0.613721 0.500000
O O11 0.808312 0.165594 0.500000
O O12 0.500000 0.000000 0.752023
O O13 0.579438 0.044052 0.000000
#
# Coordination Sequence:
#
# PCOD9544110 Si02
#       5
#     8   8   8   8   8
#     4   9  19  34  51  74 103 135 175 222 271 324
#     4  10  20  35  55  80 110 142 177 221 271 322
#     4  11  22  38  58  81 110 143 182 225 271 320
#     4  10  20  34  53  76 104 140 179 222 272 324
#     4   8  15  30  52  75 100 133 173 214 257 310
#
# _framework density 17.699411000000001
#
# number of rings (size 3 to 8) (size 9 to 14) (size 15 to 20)
#    0.000    2.400    0.000    4.800    0.000    3.600 
#    0.000    6.000    0.000   15.000    0.000    0.000 
#    0.000    0.000    0.000    0.000    0.000    0.000 
#
# Total GULP energy -223199.127922 kJ/mol
# GULP energy per Si atom -5579.978198 kJ/mol
# Density = 1.765913 g / cm^3
# Si number density = 17.699411 Si / 1000 Ang^3
#
#
#
# Elastic Constant Matrix: (Units=GPa)
#
#
# Indices 1 2 3 4 5 6 
#
# 1 110.2338 71.7302 -3.2948 0.0000 0.0000 19.0986
# 2 71.7302 110.2338 -3.2948 0.0000 0.0000 -19.0986
# 3 -3.2948 -3.2948 15.0178 0.0000 0.0000 0.0000
# 4 0.0000 0.0000 0.0000 26.3301 0.0000 0.0000
# 5 0.0000 0.0000 0.0000 0.0000 26.3301 0.0000
# 6 19.0986 -19.0986 0.0000 0.0000 0.0000 29.9778
#
#
#
# Elastic Compliance Matrix: (Units=1/GPa)
#
#
# Indices 1 2 3 4 5 6 
#
# 1 0.038060 -0.032520 0.001215 0.000000 0.000000 -0.044966
# 2 -0.032520 0.038060 0.001215 0.000000 0.000000 0.044966
# 3 0.001215 0.001215 0.067121 0.000000 0.000000 0.000000
# 4 0.000000 0.000000 0.000000 0.037979 0.000000 0.000000
# 5 0.000000 0.000000 0.000000 0.000000 0.037979 0.000000
# 6 -0.044966 0.044966 0.000000 0.000000 0.000000 0.090653
#
#
# Mechanical properties :
#
#
# Convention : Reuss Voigt Hill
#
# Bulk Modulus (GPa) = 12.03925 40.64073 26.33999
# Shear Modulus (GPa) = 12.57174 27.88394 20.22784
#
# Velocity S-wave (km/s) = 2.66802 3.97346 3.38428
# Velocity P-wave (km/s) = 4.03831 6.63797 5.49411
#
# Compressibility (1/GPa) = 0.08306165
#
# Stress axis : x y z
#
# Youngs Moduli (GPa) = 26.27454 26.27454 14.89846
#
# Poissons Ratio (x) = 0.85445 -0.01811
# Poissons Ratio (y) = 0.85445 -0.01811
# Poissons Ratio (z) = -0.03193 -0.03193
#
# Static dielectric constant tensor:
#      x y z
#    x 1.584650 0.000000 0.000000 
#    y 0.000000 1.584650 0.000000 
#    z 0.000000 0.000000 1.603220 
# 
# From -- ./inp_files/789.got.cif
#   From: 2010.05.17/outbox.cif.g08.bks.cpg/sg84_1_cif.got.tgz:789.got - 2010.06.03 18:57:40.
