data_PCOD9544158
_publ_section_title
;
Structure prediction by ZEFSAII (Michael W. Deem and Ramdas Pophale) SiO2 
 PCOD9544158
Probable space group: P 42/M
;
_chemical_formula_sum "Si O2"
_cell_formula_units_Z 48
_cell_length_a 7.961081
_cell_length_b 7.961081
_cell_length_c 32.632273
_cell_angle_alpha 90.000000
_cell_angle_beta 90.000000
_cell_angle_gamma 90.000000
_cell_volume 2068.194653
_symmetry_space_group_name_H-M "P 42/M"
_symmetry_group_IT_number 84
_symmetry_cell_setting 'tetragonal'
loop_
_space_group_symop_operation_xyz
x,y,z
-y,x,1/2+z
-x,-y,z
y,-x,1/2+z
-x,-y,-z
y,-x,1/2-z
x,y,-z
-y,x,1/2-z
loop_
_atom_site_type_symbol
_atom_site_label
_atom_site_fract_x
_atom_site_fract_y
_atom_site_fract_z
Si Si1 0.897638 0.326062 0.721368
Si Si2 0.648553 0.813601 0.922111
Si Si3 0.143777 0.804116 0.187544
Si Si4 0.794639 0.996672 0.397726
Si Si5 0.691126 0.488228 0.339610
Si Si6 0.306965 0.802376 0.046923
O O1 0.892973 0.276224 0.768578
O O2 0.721458 0.367398 0.699603
O O3 0.000000 0.500000 0.717770
O O4 0.999524 0.182427 0.697134
O O5 0.580985 0.811140 0.875412
O O6 0.494632 0.731905 0.946632
O O7 0.831858 0.732758 0.918429
O O8 0.675098 0.999637 0.940733
O O9 0.022237 0.757300 0.150265
O O10 0.324698 0.740361 0.172342
O O11 0.734319 0.833617 0.422414
O O12 0.000000 0.000000 0.399941
O O13 0.500000 0.500000 0.353626
O O14 0.254444 0.788879 0.000000
#
# Coordination Sequence:
#
# PCOD9544158 Si02
#       6
#     8   8   8   8   8   8
#     4  10  25  39  60  92 124 173 224 276 325 391
#     4  10  20  36  60  92 126 163 210 263 326 391
#     4  11  24  41  60  88 131 168 221 276 328 387
#     4  10  21  35  60  93 133 162 207 267 333 396
#     4  11  25  42  65  85 128 176 222 270 335 395
#     4  10  20  37  65  99 131 167 209 265 332 400
#
# _framework density 23.208649999999999
#
# number of rings (size 3 to 8) (size 9 to 14) (size 15 to 20)
#    0.000    1.667    1.667    3.000   14.000    3.667 
#    0.000    0.000    0.000    2.000    0.000    1.167 
#    0.000    0.000    0.000    0.000    0.000    0.000 
#
# Total GULP energy -268200.821764 kJ/mol
# GULP energy per Si atom -5587.517120 kJ/mol
# Density = 2.315583 g / cm^3
# Si number density = 23.208650 Si / 1000 Ang^3
#
#
#
# Elastic Constant Matrix: (Units=GPa)
#
#
# Indices 1 2 3 4 5 6 
#
# 1 72.4418 -7.8834 19.9724 0.0000 0.0000 -1.6415
# 2 -7.8834 72.4418 19.9724 0.0000 0.0000 1.6415
# 3 19.9724 19.9724 140.0160 0.0000 0.0000 0.0000
# 4 0.0000 0.0000 0.0000 21.4428 0.0000 0.0000
# 5 0.0000 0.0000 0.0000 0.0000 21.4428 0.0000
# 6 -1.6415 1.6415 0.0000 0.0000 0.0000 2.2011
#
#
#
# Elastic Compliance Matrix: (Units=1/GPa)
#
#
# Indices 1 2 3 4 5 6 
#
# 1 0.014915 0.002074 -0.002423 0.000000 0.000000 0.009576
# 2 0.002074 0.014915 -0.002423 0.000000 0.000000 -0.009576
# 3 -0.002423 -0.002423 0.007833 0.000000 0.000000 0.000000
# 4 0.000000 0.000000 0.000000 0.046636 0.000000 0.000000
# 5 0.000000 0.000000 0.000000 0.000000 0.046636 0.000000
# 6 0.009576 -0.009576 0.000000 0.000000 0.000000 0.468598
#
#
# Mechanical properties :
#
#
# Convention : Reuss Voigt Hill
#
# Bulk Modulus (GPa) = 31.13484 38.78026 34.95755
# Shear Modulus (GPa) = 8.11973 25.87322 16.99647
#
# Velocity S-wave (km/s) = 1.87248 3.34250 2.70910
# Velocity P-wave (km/s) = 4.25667 5.62513 4.98805
#
# Compressibility (1/GPa) = 0.03211836
#
# Stress axis : x y z
#
# Youngs Moduli (GPa) = 67.04632 67.04632 127.65832
#
# Poissons Ratio (x) = -0.13907 0.30937
# Poissons Ratio (y) = -0.13907 0.30937
# Poissons Ratio (z) = 0.16248 0.16248
#
# Static dielectric constant tensor:
#      x y z
#    x 1.914740 0.000000 0.000000 
#    y 0.000000 1.914740 0.000000 
#    z 0.000000 0.000000 1.827230 
# 
# From -- ./inp_files/5730.got.cif
#   From: 2010.05.17/outbox.cif.g08.bks.cpg/sg84_3_cif.got.tgz:5730.got - 2010.06.03 18:57:40.
