data_PCOD9544323
_publ_section_title
;
Structure prediction by ZEFSAII (Michael W. Deem and Ramdas Pophale) SiO2 
 PCOD9544323
Probable space group: P 42/M
;
_chemical_formula_sum "Si O2"
_cell_formula_units_Z 14
_cell_length_a 5.119500
_cell_length_b 5.119500
_cell_length_c 21.493932
_cell_angle_alpha 90.000000
_cell_angle_beta 90.000000
_cell_angle_gamma 90.000000
_cell_volume 563.340487
_symmetry_space_group_name_H-M "P 42/M"
_symmetry_group_IT_number 84
_symmetry_cell_setting 'tetragonal'
loop_
_space_group_symop_operation_xyz
x,y,z
-y,x,1/2+z
-x,-y,z
y,-x,1/2+z
-x,-y,-z
y,-x,1/2-z
x,y,-z
-y,x,1/2-z
loop_
_atom_site_type_symbol
_atom_site_label
_atom_site_fract_x
_atom_site_fract_y
_atom_site_fract_z
Si Si1 0.500000 0.500000 0.750000
Si Si2 0.000000 0.500000 0.323568
Si Si3 0.750466 0.182179 0.567240
O O1 0.618387 0.234792 0.782055
O O2 0.186676 0.654316 0.372034
O O3 0.729015 0.324241 0.500000
O O4 0.500000 0.000000 0.574721
O O5 0.000000 0.000000 0.562579
#
# Coordination Sequence:
#
# PCOD9544323 Si02
#       3
#     2   4   8
#     4  12  32  44  78 100 156 208 268 298 388 444
#     4  12  27  48  68 108 145 206 250 328 360 474
#     4  10  22  42  74 108 142 186 243 318 393 454
#
# _framework density 24.851751
#
# number of rings (size 3 to 8) (size 9 to 14) (size 15 to 20)
#    0.000    1.143    0.000    4.286   12.000    0.000 
#    0.000   11.429    0.000    0.000    0.000    0.000 
#    0.000    0.000    0.000    0.000    0.000    0.000 
#
# Total GULP energy -78023.912697 kJ/mol
# GULP energy per Si atom -5573.136621 kJ/mol
# Density = 2.479519 g / cm^3
# Si number density = 24.851751 Si / 1000 Ang^3
#
#
#
# Elastic Constant Matrix: (Units=GPa)
#
#
# Indices 1 2 3 4 5 6 
#
# 1 141.1464 27.9306 29.8345 0.0000 0.0000 10.8989
# 2 27.9306 141.1464 29.8345 0.0000 0.0000 -10.8989
# 3 29.8345 29.8345 69.5156 0.0000 0.0000 0.0000
# 4 0.0000 0.0000 0.0000 25.7583 0.0000 0.0000
# 5 0.0000 0.0000 0.0000 0.0000 25.7583 0.0000
# 6 10.8989 -10.8989 0.0000 0.0000 0.0000 55.0756
#
#
#
# Elastic Compliance Matrix: (Units=1/GPa)
#
#
# Indices 1 2 3 4 5 6 
#
# 1 0.008076 -0.001106 -0.002991 0.000000 0.000000 -0.001817
# 2 -0.001106 0.008076 -0.002991 0.000000 0.000000 0.001817
# 3 -0.002991 -0.002991 0.016953 0.000000 0.000000 0.000000
# 4 0.000000 0.000000 0.000000 0.038822 0.000000 0.000000
# 5 0.000000 0.000000 0.000000 0.000000 0.038822 0.000000
# 6 -0.001817 0.001817 0.000000 0.000000 0.000000 0.018876
#
#
# Mechanical properties :
#
#
# Convention : Reuss Voigt Hill
#
# Bulk Modulus (GPa) = 52.83300 58.55640 55.69470
# Shear Modulus (GPa) = 33.30805 38.93237 36.12021
#
# Velocity S-wave (km/s) = 3.66494 3.96230 3.81652
# Velocity P-wave (km/s) = 6.26215 6.67432 6.47152
#
# Compressibility (1/GPa) = 0.01892756
#
# Stress axis : x y z
#
# Youngs Moduli (GPa) = 123.81808 123.81808 58.98670
#
# Poissons Ratio (x) = 0.13697 0.17646
# Poissons Ratio (y) = 0.13697 0.17646
# Poissons Ratio (z) = 0.37039 0.37039
#
# Static dielectric constant tensor:
#      x y z
#    x 2.008810 0.000000 0.000000 
#    y 0.000000 2.008810 0.000000 
#    z 0.000000 0.000000 2.234480 
# 
# From -- ./inp_files/3215.got.cif
#   From: 2010.05.17/outbox.cif.g08.bks.cpg/sg84_2_cif.got.tgz:3215.got - 2010.06.03 18:57:40.
