data_PCOD9544761
_publ_section_title
;
Structure prediction by ZEFSAII (Michael W. Deem and Ramdas Pophale) SiO2 
 PCOD9544761
Probable space group: P 4/N
;
_chemical_formula_sum "Si O2"
_cell_formula_units_Z 48
_cell_length_a 11.263212
_cell_length_b 11.263212
_cell_length_c 16.140054
_cell_angle_alpha 90.000000
_cell_angle_beta 90.000000
_cell_angle_gamma 90.000000
_cell_volume 2047.526356
_symmetry_space_group_name_H-M "P 4/N"
_symmetry_group_IT_number 85
_symmetry_cell_setting 'tetragonal'
loop_
_space_group_symop_operation_xyz
x,y,z
1/2-y,x,z
1/2-x,1/2-y,z
y,1/2-x,z
-x,-y,-z
1/2+y,-x,-z
1/2+x,1/2+y,-z
-y,1/2+x,-z
loop_
_atom_site_type_symbol
_atom_site_label
_atom_site_fract_x
_atom_site_fract_y
_atom_site_fract_z
Si Si1 0.436413 0.171573 0.663935
Si Si2 0.572605 0.844274 0.695351
Si Si3 0.341663 0.576183 0.145613
Si Si4 0.924252 0.654643 0.013837
Si Si5 0.922839 0.345730 0.829329
Si Si6 0.166088 0.066904 0.482745
O O1 0.398745 0.310998 0.670744
O O2 0.526459 0.142567 0.737090
O O3 0.489693 0.145425 0.572430
O O4 0.597394 0.702667 0.698182
O O5 0.499417 0.881013 0.775132
O O6 0.510931 0.865802 0.605894
O O7 0.198369 0.585023 0.152601
O O8 0.390336 0.708085 0.154528
O O9 0.375203 0.514953 0.059467
O O10 0.903497 0.795993 0.005483
O O11 0.977117 0.626491 0.103458
O O12 0.305739 0.100013 0.482609
#
# Coordination Sequence:
#
# PCOD9544761 Si02
#       6
#     8   8   8   8   8   8
#     4   9  17  32  56  83 108 138 180 226 269 314
#     4   9  17  32  56  83 108 138 180 226 269 314
#     4  11  24  39  54  77 111 147 179 213 259 315
#     4  11  24  41  62  86 106 129 170 221 268 316
#     4  11  24  39  54  77 111 147 179 213 259 315
#     4   7  12  26  50  79 108 136 172 223 272 309
#
# _framework density 23.442920000000001
#
# number of rings (size 3 to 8) (size 9 to 14) (size 15 to 20)
#    0.000    2.333    0.000    5.000    0.000   10.667 
#    0.000    1.667    0.000    8.000    0.000    0.000 
#    0.000    0.000    0.000    0.000    0.000    0.000 
#
# Total GULP energy -268739.416830 kJ/mol
# GULP energy per Si atom -5598.737851 kJ/mol
# Density = 2.338956 g / cm^3
# Si number density = 23.442920 Si / 1000 Ang^3
#
#
#
# Elastic Constant Matrix: (Units=GPa)
#
#
# Indices 1 2 3 4 5 6 
#
# 1 65.9851 -14.3812 3.0644 0.0000 0.0000 1.2944
# 2 -14.3812 65.9851 3.0644 0.0000 0.0000 -1.2944
# 3 3.0644 3.0644 166.2697 0.0000 0.0000 0.0000
# 4 0.0000 0.0000 0.0000 -2.7674 0.0000 0.0000
# 5 0.0000 0.0000 0.0000 0.0000 -2.7674 0.0000
# 6 1.2944 -1.2944 0.0000 0.0000 0.0000 23.9271
#
#
#
# Elastic Compliance Matrix: (Units=1/GPa)
#
#
# Indices 1 2 3 4 5 6 
#
# 1 0.015943 0.003478 -0.000358 0.000000 0.000000 -0.000674
# 2 0.003478 0.015943 -0.000358 0.000000 0.000000 0.000674
# 3 -0.000358 -0.000358 0.006028 0.000000 0.000000 0.000000
# 4 0.000000 0.000000 0.000000 -0.361345 0.000000 0.000000
# 5 0.000000 0.000000 0.000000 0.000000 -0.361345 0.000000
# 6 -0.000674 0.000674 0.000000 0.000000 0.000000 0.041867
#
#
# Mechanical properties :
#
#
# Convention : Reuss Voigt Hill
#
# Bulk Modulus (GPa) = 23.02152 31.30388 27.16270
# Shear Modulus (GPa) = -7.88700 24.11126 8.11213
#
# Velocity S-wave (km/s) = -1.83620 3.21052 1.86223
# Velocity P-wave (km/s) = 2.31215 5.20821 4.02936
#
# Compressibility (1/GPa) = 0.04343762
#
# Stress axis : x y z
#
# Youngs Moduli (GPa) = 62.72411 62.72411 165.90581
#
# Poissons Ratio (x) = -0.21816 0.05938
# Poissons Ratio (y) = -0.21816 0.05938
# Poissons Ratio (z) = 0.02245 0.02245
#
# Static dielectric constant tensor:
#      x y z
#    x 1.874480 0.000000 0.000000 
#    y 0.000000 1.874480 0.000000 
#    z 0.000000 0.000000 1.867180 
# 
# From -- ./inp_files/2090.got.cif
#   From: 2010.05.17/outbox.cif.g08.bks.cpg/sg85_cif.got.tgz:2090.got - 2010.06.03 19:01:16.
