data_PCOD9544129
_publ_section_title
;
Structure prediction by ZEFSAII (Michael W. Deem and Ramdas Pophale) SiO2 
 PCOD9544129
Probable space group: P 42/M
;
_chemical_formula_sum "Si O2"
_cell_formula_units_Z 58
_cell_length_a 18.519285
_cell_length_b 18.519285
_cell_length_c 7.873228
_cell_angle_alpha 90.000000
_cell_angle_beta 90.000000
_cell_angle_gamma 90.000000
_cell_volume 2700.233114
_symmetry_space_group_name_H-M "P 42/M"
_symmetry_group_IT_number 84
_symmetry_cell_setting 'tetragonal'
loop_
_space_group_symop_operation_xyz
x,y,z
-y,x,1/2+z
-x,-y,z
y,-x,1/2+z
-x,-y,-z
y,-x,1/2-z
x,y,-z
-y,x,1/2-z
loop_
_atom_site_type_symbol
_atom_site_label
_atom_site_fract_x
_atom_site_fract_y
_atom_site_fract_z
Si Si1 0.359814 0.425998 0.293142
Si Si2 0.643216 0.739830 0.295852
Si Si3 0.674302 0.954914 0.197599
Si Si4 0.830474 0.223571 0.300898
Si Si5 0.128546 0.541241 0.198472
Si Si6 0.108064 0.271926 0.803963
Si Si7 0.804126 0.595193 0.305643
Si Si8 0.500000 0.500000 0.750000
O O1 0.368386 0.438457 0.500000
O O2 0.375106 0.341987 0.252318
O O3 0.274697 0.434332 0.249445
O O4 0.418213 0.475511 0.197127
O O5 0.650613 0.743068 0.500000
O O6 0.717548 0.767012 0.216695
O O7 0.585673 0.800252 0.245633
O O8 0.734994 0.900168 0.271895
O O9 0.596418 0.937404 0.277755
O O10 0.701674 0.035771 0.214867
O O11 0.665577 0.936288 0.000000
O O12 0.844605 0.210143 0.500000
O O13 0.797938 0.149361 0.229444
O O14 0.135250 0.466768 0.296595
O O15 0.134730 0.523704 0.000000
O O16 0.164689 0.337748 0.795688
O O17 0.089620 0.258108 0.000000
O O18 0.793273 0.619208 0.500000
#
# Coordination Sequence:
#
# PCOD9544129 Si02
#       8
#     8   8   8   8   8   8   8   2
#     4  10  21  36  52  75 105 145 195 244 290 340
#     4   9  17  33  56  78 106 145 191 237 285 339
#     4  10  21  38  60  88 118 151 186 225 277 336
#     4   9  19  36  59  86 115 145 182 227 273 327
#     4  10  20  35  55  82 115 150 189 237 288 339
#     4  11  22  38  60  89 117 146 186 231 277 331
#     4  11  22  37  57  80 111 151 193 240 290 344
#     4  12  22  36  52  74 112 152 194 248 300 338
#
# _framework density 21.479627000000001
#
# number of rings (size 3 to 8) (size 9 to 14) (size 15 to 20)
#    0.000    1.931    1.379    2.690    0.000    2.207 
#    0.000    6.207    0.000    0.414    0.000    2.897 
#    0.000    0.000    0.000    0.000    0.000    0.000 
#
# Total GULP energy -323456.474574 kJ/mol
# GULP energy per Si atom -5576.835769 kJ/mol
# Density = 2.143074 g / cm^3
# Si number density = 21.479627 Si / 1000 Ang^3
#
#
#
# Elastic Constant Matrix: (Units=GPa)
#
#
# Indices 1 2 3 4 5 6 
#
# 1 83.0659 11.8157 1.7384 0.0000 0.0000 -8.3451
# 2 11.8157 83.0659 1.7384 0.0000 0.0000 8.3451
# 3 1.7384 1.7384 33.8947 0.0000 0.0000 0.0000
# 4 0.0000 0.0000 0.0000 0.7217 0.0000 0.0000
# 5 0.0000 0.0000 0.0000 0.0000 0.7217 0.0000
# 6 -8.3451 8.3451 0.0000 0.0000 0.0000 -0.5799
#
#
#
# Elastic Compliance Matrix: (Units=1/GPa)
#
#
# Indices 1 2 3 4 5 6 
#
# 1 0.006885 0.003674 -0.000542 0.000000 0.000000 -0.046208
# 2 0.003674 0.006885 -0.000542 0.000000 0.000000 0.046208
# 3 -0.000542 -0.000542 0.029559 0.000000 0.000000 0.000000
# 4 0.000000 0.000000 0.000000 1.385663 0.000000 0.000000
# 5 0.000000 0.000000 0.000000 0.000000 1.385663 0.000000
# 6 -0.046208 0.046208 0.000000 0.000000 0.000000 -0.394525
#
#
# Mechanical properties :
#
#
# Convention : Reuss Voigt Hill
#
# Bulk Modulus (GPa) = 20.61390 25.62350 23.11870
# Shear Modulus (GPa) = 2.05667 12.48829 7.27248
#
# Velocity S-wave (km/s) = 0.97958 2.41384 1.84204
# Velocity P-wave (km/s) = 3.30109 4.44117 3.91288
#
# Compressibility (1/GPa) = 0.04851095
#
# Stress axis : x y z
#
# Youngs Moduli (GPa) = 145.24146 145.24146 33.83104
#
# Poissons Ratio (x) = -0.53365 0.01832
# Poissons Ratio (y) = -0.53365 0.01832
# Poissons Ratio (z) = 0.07866 0.07866
#
# Static dielectric constant tensor:
#      x y z
#    x 1.794760 0.000000 0.000000 
#    y 0.000000 1.794760 0.000000 
#    z 0.000000 0.000000 1.771270 
# 
# From -- ./inp_files/1158.got.cif
#   From: 2010.05.17/outbox.cif.g08.bks.cpg/sg84_1_cif.got.tgz:1158.got - 2010.06.03 18:57:40.
