data_PCOD9544390
_publ_section_title
;
Structure prediction by ZEFSAII (Michael W. Deem and Ramdas Pophale) SiO2 
 PCOD9544390
Probable space group: P 42/M
;
_chemical_formula_sum "Si O2"
_cell_formula_units_Z 40
_cell_length_a 11.662020
_cell_length_b 11.662020
_cell_length_c 14.366370
_cell_angle_alpha 90.000000
_cell_angle_beta 90.000000
_cell_angle_gamma 90.000000
_cell_volume 1953.865260
_symmetry_space_group_name_H-M "P 42/M"
_symmetry_group_IT_number 84
_symmetry_cell_setting 'tetragonal'
loop_
_space_group_symop_operation_xyz
x,y,z
-y,x,1/2+z
-x,-y,z
y,-x,1/2+z
-x,-y,-z
y,-x,1/2-z
x,y,-z
-y,x,1/2-z
loop_
_atom_site_type_symbol
_atom_site_label
_atom_site_fract_x
_atom_site_fract_y
_atom_site_fract_z
Si Si1 0.431519 0.619957 0.394373
Si Si2 0.820159 0.043244 0.233702
Si Si3 0.499621 0.241150 0.786044
Si Si4 0.262778 0.771195 0.105870
Si Si5 0.941207 0.390577 0.829659
O O1 0.500000 0.500000 0.395820
O O2 0.431370 0.666119 0.500000
O O3 0.307393 0.585864 0.354816
O O4 0.488078 0.696582 0.314257
O O5 0.788160 0.107184 0.138835
O O6 0.918323 0.123591 0.278826
O O7 0.707482 0.029643 0.297200
O O8 0.625317 0.245964 0.830893
O O9 0.447460 0.118500 0.761125
O O10 0.161233 0.678544 0.120068
O O11 0.300080 0.768868 0.000000
O O12 0.000000 0.500000 0.878698
#
# Coordination Sequence:
#
# PCOD9544390 Si02
#       5
#     8   8   8   8   8
#     4  11  21  36  59  88 125 172 214 245 300 389
#     4   9  20  42  68  88 120 170 219 272 331 383
#     4  12  20  38  60  91 131 168 208 262 322 376
#     4  11  23  40  67  97 131 170 217 271 331 395
#     4  11  22  39  66  92 126 170 210 270 334 387
#
# _framework density 20.472239999999999
#
# number of rings (size 3 to 8) (size 9 to 14) (size 15 to 20)
#    0.000    1.200    6.000    0.600    0.000    2.800 
#    0.000   11.000    0.000    0.000    0.000    0.000 
#    0.000    0.000    0.000    0.000    0.000    0.000 
#
# Total GULP energy -223262.410432 kJ/mol
# GULP energy per Si atom -5581.560261 kJ/mol
# Density = 2.042564 g / cm^3
# Si number density = 20.472240 Si / 1000 Ang^3
#
#
#
# Elastic Constant Matrix: (Units=GPa)
#
#
# Indices 1 2 3 4 5 6 
#
# 1 82.5427 19.5730 29.5976 0.0000 0.0000 3.6735
# 2 19.5730 82.5427 29.5976 0.0000 0.0000 -3.6735
# 3 29.5976 29.5976 130.2716 0.0000 0.0000 0.0000
# 4 0.0000 0.0000 0.0000 6.4515 0.0000 0.0000
# 5 0.0000 0.0000 0.0000 0.0000 6.4515 0.0000
# 6 3.6735 -3.6735 0.0000 0.0000 0.0000 31.0811
#
#
#
# Elastic Compliance Matrix: (Units=1/GPa)
#
#
# Indices 1 2 3 4 5 6 
#
# 1 0.013690 -0.002412 -0.002562 0.000000 0.000000 -0.001903
# 2 -0.002412 0.013690 -0.002562 0.000000 0.000000 0.001903
# 3 -0.002562 -0.002562 0.008841 0.000000 0.000000 0.000000
# 4 0.000000 0.000000 0.000000 0.155002 0.000000 0.000000
# 5 0.000000 0.000000 0.000000 0.000000 0.155002 0.000000
# 6 -0.001903 0.001903 0.000000 0.000000 0.000000 0.032624
#
#
# Mechanical properties :
#
#
# Convention : Reuss Voigt Hill
#
# Bulk Modulus (GPa) = 47.28708 50.32150 48.80429
# Shear Modulus (GPa) = 12.46966 23.23607 17.85287
#
# Velocity S-wave (km/s) = 2.47067 3.37264 2.95626
# Velocity P-wave (km/s) = 5.59350 6.30872 5.96185
#
# Compressibility (1/GPa) = 0.02114743
#
# Stress axis : x y z
#
# Youngs Moduli (GPa) = 73.04361 73.04361 113.11418
#
# Poissons Ratio (x) = 0.17620 0.28984
# Poissons Ratio (y) = 0.17620 0.28984
# Poissons Ratio (z) = 0.18717 0.18717
#
# Static dielectric constant tensor:
#      x y z
#    x 1.777940 0.000000 0.000000 
#    y 0.000000 1.777940 0.000000 
#    z 0.000000 0.000000 1.688500 
# 
# From -- ./inp_files/2878.got.cif
#   From: 2010.05.17/outbox.cif.g08.bks.cpg/sg84_2_cif.got.tgz:2878.got - 2010.06.03 18:57:40.
