data_PCOD9544720
_publ_section_title
;
Structure prediction by ZEFSAII (Michael W. Deem and Ramdas Pophale) SiO2 
 PCOD9544720
Probable space group: P 4/N
;
_chemical_formula_sum "Si O2"
_cell_formula_units_Z 58
_cell_length_a 18.300495
_cell_length_b 18.300495
_cell_length_c 9.192125
_cell_angle_alpha 90.000000
_cell_angle_beta 90.000000
_cell_angle_gamma 90.000000
_cell_volume 3078.517277
_symmetry_space_group_name_H-M "P 4/N"
_symmetry_group_IT_number 85
_symmetry_cell_setting 'tetragonal'
loop_
_space_group_symop_operation_xyz
x,y,z
1/2-y,x,z
1/2-x,1/2-y,z
y,1/2-x,z
-x,-y,-z
1/2+y,-x,-z
1/2+x,1/2+y,-z
-y,1/2+x,-z
loop_
_atom_site_type_symbol
_atom_site_label
_atom_site_fract_x
_atom_site_fract_y
_atom_site_fract_z
Si Si1 0.078690 0.964024 0.004178
Si Si2 0.978936 0.312112 0.736826
Si Si3 0.726034 0.631209 0.207341
Si Si4 0.261489 0.371465 0.139274
Si Si5 0.365068 0.795119 0.510312
Si Si6 0.203791 0.972976 0.215089
Si Si7 0.706667 0.092673 0.052866
Si Si8 0.250000 0.750000 0.000000
O O1 0.124006 0.979784 0.857317
O O2 0.125016 0.989543 0.143663
O O3 0.077895 0.876992 0.022440
O O4 0.000000 0.000000 0.000000
O O5 0.917594 0.325152 0.616949
O O6 0.953997 0.238076 0.816876
O O7 0.062274 0.296004 0.695704
O O8 0.804920 0.667158 0.231662
O O9 0.729352 0.610172 0.034235
O O10 0.186545 0.326820 0.164662
O O11 0.262918 0.445944 0.231070
O O12 0.340570 0.710670 0.482266
O O13 0.417197 0.798944 0.651588
O O14 0.249225 0.931126 0.090124
O O15 0.725736 0.177450 0.085122
#
# Coordination Sequence:
#
# PCOD9544720 Si02
#       8
#     8   8   8   8   8   8   8   2
#     4  11  24  37  61  95 124 153 198 263 321 363
#     4  11  22  39  60  89 117 162 200 249 315 356
#     4   9  18  35  63  94 121 155 200 251 306 369
#     4   9  18  35  63  94 121 155 200 251 306 369
#     4  11  26  44  63  82 121 167 216 252 295 367
#     4  11  22  39  60  89 117 162 200 249 315 356
#     4  11  22  35  61  86 117 153 206 259 307 362
#     4  12  20  36  56  90 120 140 220 258 296 368
#
# _framework density 18.840239
#
# number of rings (size 3 to 8) (size 9 to 14) (size 15 to 20)
#    0.000    1.517    5.517    2.483    3.862    0.000 
#    0.000    2.069    0.000    1.655    0.000    0.000 
#    0.000    0.000    0.000    0.000    0.000    0.000 
#
# Total GULP energy -323512.200368 kJ/mol
# GULP energy per Si atom -5577.796558 kJ/mol
# Density = 1.879736 g / cm^3
# Si number density = 18.840239 Si / 1000 Ang^3
#
#
#
# Elastic Constant Matrix: (Units=GPa)
#
#
# Indices 1 2 3 4 5 6 
#
# 1 126.1420 40.4215 19.9240 0.0000 0.0000 -12.3030
# 2 40.4215 126.1420 19.9240 0.0000 0.0000 12.3030
# 3 19.9240 19.9240 49.4326 0.0000 0.0000 0.0000
# 4 0.0000 0.0000 0.0000 17.8005 0.0000 0.0000
# 5 0.0000 0.0000 0.0000 0.0000 17.8005 0.0000
# 6 -12.3030 12.3030 0.0000 0.0000 0.0000 24.3092
#
#
#
# Elastic Compliance Matrix: (Units=1/GPa)
#
#
# Indices 1 2 3 4 5 6 
#
# 1 0.010147 -0.003502 -0.002678 0.000000 0.000000 0.006908
# 2 -0.003502 0.010147 -0.002678 0.000000 0.000000 -0.006908
# 3 -0.002678 -0.002678 0.022388 0.000000 0.000000 0.000000
# 4 0.000000 0.000000 0.000000 0.056178 0.000000 0.000000
# 5 0.000000 0.000000 0.000000 0.000000 0.056178 0.000000
# 6 0.006908 -0.006908 0.000000 0.000000 0.000000 0.048129
#
#
# Mechanical properties :
#
#
# Convention : Reuss Voigt Hill
#
# Bulk Modulus (GPa) = 40.05613 51.36173 45.70893
# Shear Modulus (GPa) = 21.81458 26.74518 24.27988
#
# Velocity S-wave (km/s) = 3.40644 3.77182 3.59378
# Velocity P-wave (km/s) = 6.06456 6.80365 6.44471
#
# Compressibility (1/GPa) = 0.02496497
#
# Stress axis : x y z
#
# Youngs Moduli (GPa) = 98.55591 98.55591 44.66604
#
# Poissons Ratio (x) = 0.34515 0.11962
# Poissons Ratio (y) = 0.34515 0.11962
# Poissons Ratio (z) = 0.26394 0.26394
#
# Static dielectric constant tensor:
#      x y z
#    x 1.688160 0.000000 0.000000 
#    y 0.000000 1.688160 0.000000 
#    z 0.000000 0.000000 1.680580 
# 
# From -- ./inp_files/1194.got.cif
#   From: 2010.05.17/outbox.cif.g08.bks.cpg/sg85_cif.got.tgz:1194.got - 2010.06.03 19:01:16.
