data_PCOD9544249
_publ_section_title
;
Structure prediction by ZEFSAII (Michael W. Deem and Ramdas Pophale) SiO2 
 PCOD9544249
Probable space group: P 42/M
;
_chemical_formula_sum "Si O2"
_cell_formula_units_Z 40
_cell_length_a 14.936148
_cell_length_b 14.936148
_cell_length_c 10.210215
_cell_angle_alpha 90.000000
_cell_angle_beta 90.000000
_cell_angle_gamma 90.000000
_cell_volume 2277.781723
_symmetry_space_group_name_H-M "P 42/M"
_symmetry_group_IT_number 84
_symmetry_cell_setting 'tetragonal'
loop_
_space_group_symop_operation_xyz
x,y,z
-y,x,1/2+z
-x,-y,z
y,-x,1/2+z
-x,-y,-z
y,-x,1/2-z
x,y,-z
-y,x,1/2-z
loop_
_atom_site_type_symbol
_atom_site_label
_atom_site_fract_x
_atom_site_fract_y
_atom_site_fract_z
Si Si1 0.368173 0.257714 0.744899
Si Si2 0.377151 0.577409 0.000000
Si Si3 0.367000 0.579815 0.500000
Si Si4 0.835809 0.187572 0.845200
Si Si5 0.923323 0.432956 0.347692
Si Si6 0.013405 0.771719 0.352221
O O1 0.398458 0.318906 0.625800
O O2 0.380627 0.316307 0.874755
O O3 0.267591 0.223290 0.716308
O O4 0.427425 0.167967 0.765888
O O5 0.395572 0.471532 0.000000
O O6 0.471228 0.631039 0.000000
O O7 0.788850 0.091475 0.834840
O O8 0.926829 0.184559 0.760930
O O9 0.850924 0.206462 0.000000
O O10 0.901919 0.456088 0.500000
O O11 0.000000 0.500000 0.300182
O O12 0.964427 0.333520 0.347368
O O13 0.038194 0.803249 0.500000
#
# Coordination Sequence:
#
# PCOD9544249 Si02
#       6
#     8   4   4   8   8   8
#     4  11  21  40  61  86 119 158 194 243 297 349
#     4  11  24  40  59  86 120 153 197 252 290 344
#     4  11  24  40  59  86 118 157 203 240 292 348
#     4  10  21  39  59  87 119 153 193 244 295 347
#     4   9  18  35  59  85 112 148 196 242 284 345
#     4   9  20  36  59  84 115 153 195 239 292 354
#
# _framework density 17.560945
#
# number of rings (size 3 to 8) (size 9 to 14) (size 15 to 20)
#    0.000    2.000    2.000    1.200    1.400    6.000 
#    0.000    2.500    0.000    0.000    0.000    0.000 
#    0.000    0.000    0.000    0.000    0.000    0.000 
#
# Total GULP energy -223129.442921 kJ/mol
# GULP energy per Si atom -5578.236073 kJ/mol
# Density = 1.752098 g / cm^3
# Si number density = 17.560945 Si / 1000 Ang^3
#
#
#
# Elastic Constant Matrix: (Units=GPa)
#
#
# Indices 1 2 3 4 5 6 
#
# 1 85.4219 44.8640 65.7201 0.0000 0.0000 -10.4866
# 2 44.8640 85.4219 65.7201 0.0000 0.0000 10.4866
# 3 65.7201 65.7201 149.9139 0.0000 0.0000 0.0000
# 4 0.0000 0.0000 0.0000 12.0288 0.0000 0.0000
# 5 0.0000 0.0000 0.0000 0.0000 12.0288 0.0000
# 6 -10.4866 10.4866 0.0000 0.0000 0.0000 25.9580
#
#
#
# Elastic Compliance Matrix: (Units=1/GPa)
#
#
# Indices 1 2 3 4 5 6 
#
# 1 0.022464 -0.008703 -0.006033 0.000000 0.000000 0.012591
# 2 -0.008703 0.022464 -0.006033 0.000000 0.000000 -0.012591
# 3 -0.006033 -0.006033 0.011960 0.000000 0.000000 0.000000
# 4 0.000000 0.000000 0.000000 0.083134 0.000000 0.000000
# 5 0.000000 0.000000 0.000000 0.000000 0.083134 0.000000
# 6 0.012591 -0.012591 0.000000 0.000000 0.000000 0.048697
#
#
# Mechanical properties :
#
#
# Convention : Reuss Voigt Hill
#
# Bulk Modulus (GPa) = 65.13901 74.81848 69.97875
# Shear Modulus (GPa) = 15.69817 19.63334 17.66575
#
# Velocity S-wave (km/s) = 2.99310 3.34730 3.17514
# Velocity P-wave (km/s) = 7.00846 7.59188 7.30600
#
# Compressibility (1/GPa) = 0.01535178
#
# Stress axis : x y z
#
# Youngs Moduli (GPa) = 44.51472 44.51472 83.61156
#
# Poissons Ratio (x) = 0.38739 0.50443
# Poissons Ratio (y) = 0.38739 0.50443
# Poissons Ratio (z) = 0.26856 0.26856
#
# Static dielectric constant tensor:
#      x y z
#    x 1.582970 0.000000 0.000000 
#    y 0.000000 1.582970 0.000000 
#    z 0.000000 0.000000 1.571700 
# 
# From -- ./inp_files/814.got.cif
#   From: 2010.05.17/outbox.cif.g08.bks.cpg/sg84_1_cif.got.tgz:814.got - 2010.06.03 18:57:40.
