data_PCOD9544013
_publ_section_title
;
Structure prediction by ZEFSAII (Michael W. Deem and Ramdas Pophale) SiO2 
 PCOD9544013
Probable space group: P 42/M
;
_chemical_formula_sum "Si O2"
_cell_formula_units_Z 40
_cell_length_a 14.561037
_cell_length_b 14.561037
_cell_length_c 8.924553
_cell_angle_alpha 90.000000
_cell_angle_beta 90.000000
_cell_angle_gamma 90.000000
_cell_volume 1892.217627
_symmetry_space_group_name_H-M "P 42/M"
_symmetry_group_IT_number 84
_symmetry_cell_setting 'tetragonal'
loop_
_space_group_symop_operation_xyz
x,y,z
-y,x,1/2+z
-x,-y,z
y,-x,1/2+z
-x,-y,-z
y,-x,1/2-z
x,y,-z
-y,x,1/2-z
loop_
_atom_site_type_symbol
_atom_site_label
_atom_site_fract_x
_atom_site_fract_y
_atom_site_fract_z
Si Si1 0.394006 0.575585 0.830926
Si Si2 0.137457 0.982041 0.321141
Si Si3 0.683763 0.793991 0.328541
Si Si4 0.501920 0.890377 0.322452
Si Si5 0.143614 0.296354 0.819954
O O1 0.480379 0.622968 0.753492
O O2 0.305480 0.636807 0.832770
O O3 0.418029 0.553674 0.000000
O O4 0.128341 0.996448 0.500000
O O5 0.241580 0.951083 0.287352
O O6 0.069031 0.900359 0.269271
O O7 0.705027 0.825173 0.500000
O O8 0.600400 0.855260 0.262303
O O9 0.776413 0.769600 0.241661
O O10 0.504696 0.864416 0.500000
O O11 0.402364 0.855048 0.264176
O O12 0.500000 0.000000 0.312261
O O13 0.151414 0.300442 0.000000
#
# Coordination Sequence:
#
# PCOD9544013 Si02
#       5
#     8   8   8   8   8
#     4  10  19  31  49  76 105 140 183 230 287 340
#     4  10  21  37  60  89 119 154 194 244 302 354
#     4  10  21  35  56  82 109 149 194 239 289 347
#     4   9  19  37  60  84 113 153 200 242 290 356
#     4  10  22  38  60  89 118 155 199 245 299 355
#
# _framework density 21.139218
#
# number of rings (size 3 to 8) (size 9 to 14) (size 15 to 20)
#    0.000    2.200    0.000    3.600    2.800    4.800 
#    0.000    1.000    0.000    1.200    0.000    0.000 
#    0.000    0.000    0.000    0.000    0.000    0.000 
#
# Total GULP energy -223028.642596 kJ/mol
# GULP energy per Si atom -5575.716065 kJ/mol
# Density = 2.109110 g / cm^3
# Si number density = 21.139218 Si / 1000 Ang^3
#
#
#
# Elastic Constant Matrix: (Units=GPa)
#
#
# Indices 1 2 3 4 5 6 
#
# 1 124.9025 -16.5599 6.7375 0.0000 0.0000 48.5710
# 2 -16.5599 124.9025 6.7375 0.0000 0.0000 -48.5710
# 3 6.7375 6.7375 43.8866 0.0000 0.0000 0.0000
# 4 0.0000 0.0000 0.0000 19.7971 0.0000 0.0000
# 5 0.0000 0.0000 0.0000 0.0000 19.7971 0.0000
# 6 48.5710 -48.5710 0.0000 0.0000 0.0000 81.6630
#
#
#
# Elastic Compliance Matrix: (Units=1/GPa)
#
#
# Indices 1 2 3 4 5 6 
#
# 1 0.010680 -0.001270 -0.001445 0.000000 0.000000 -0.007107
# 2 -0.001270 0.010680 -0.001445 0.000000 0.000000 0.007107
# 3 -0.001445 -0.001445 0.023230 0.000000 0.000000 0.000000
# 4 0.000000 0.000000 0.000000 0.050513 0.000000 0.000000
# 5 0.000000 0.000000 0.000000 0.000000 0.050513 0.000000
# 6 -0.007107 0.007107 0.000000 0.000000 0.000000 0.020700
#
#
# Mechanical properties :
#
#
# Convention : Reuss Voigt Hill
#
# Bulk Modulus (GPa) = 27.57060 31.94688 29.75874
# Shear Modulus (GPa) = 26.77776 44.03654 35.40715
#
# Velocity S-wave (km/s) = 3.56298 4.56912 4.09706
# Velocity P-wave (km/s) = 5.47697 6.55601 6.04063
#
# Compressibility (1/GPa) = 0.03627052
#
# Stress axis : x y z
#
# Youngs Moduli (GPa) = 93.63643 93.63643 43.04865
#
# Poissons Ratio (x) = 0.11891 0.06219
# Poissons Ratio (y) = 0.11891 0.06219
# Poissons Ratio (z) = 0.13527 0.13527
#
# Static dielectric constant tensor:
#      x y z
#    x 1.795730 0.000000 0.000000 
#    y 0.000000 1.795730 0.000000 
#    z 0.000000 0.000000 1.738810 
# 
# From -- ./inp_files/786.got.cif
#   From: 2010.05.17/outbox.cif.g08.bks.cpg/sg84_1_cif.got.tgz:786.got - 2010.06.03 18:57:40.
