data_PCOD9544810
_publ_section_title
;
Structure prediction by ZEFSAII (Michael W. Deem and Ramdas Pophale) SiO2 
 PCOD9544810
Probable space group: P 4/N
;
_chemical_formula_sum "Si O2"
_cell_formula_units_Z 36
_cell_length_a 8.565667
_cell_length_b 8.565667
_cell_length_c 22.970431
_cell_angle_alpha 90.000000
_cell_angle_beta 90.000000
_cell_angle_gamma 90.000000
_cell_volume 1685.355480
_symmetry_space_group_name_H-M "P 4/N"
_symmetry_group_IT_number 85
_symmetry_cell_setting 'tetragonal'
loop_
_space_group_symop_operation_xyz
x,y,z
1/2-y,x,z
1/2-x,1/2-y,z
y,1/2-x,z
-x,-y,-z
1/2+y,-x,-z
1/2+x,1/2+y,-z
-y,1/2+x,-z
loop_
_atom_site_type_symbol
_atom_site_label
_atom_site_fract_x
_atom_site_fract_y
_atom_site_fract_z
Si Si1 0.750000 0.250000 0.000000
Si Si2 0.750000 0.750000 0.187886
Si Si3 0.994888 0.671226 0.915867
Si Si4 0.955662 0.913582 0.320580
Si Si5 0.072990 0.058467 0.439852
Si Si6 0.361639 0.897311 0.792187
O O1 0.642508 0.146295 0.042455
O O2 0.556740 0.730777 0.190796
O O3 0.939595 0.848360 0.927065
O O4 0.042201 0.650956 0.848942
O O5 0.774609 0.959703 0.316071
O O6 0.058244 0.962873 0.265134
O O7 0.009804 0.972143 0.382961
O O8 0.258321 0.037304 0.438197
O O9 0.000000 0.000000 0.500000
O O10 0.250000 0.750000 0.778496
#
# Coordination Sequence:
#
# PCOD9544810 Si02
#       6
#     2   2   8   8   8   8
#     4  12  24  48  76 104 144 212 256 334 416 492
#     4  12  24  48  72 112 152 204 256 304 402 476
#     4  11  26  47  70 108 149 194 264 330 401 488
#     4  11  24  43  69 105 141 184 244 301 368 458
#     4  11  26  45  67  99 139 187 244 305 373 451
#     4  12  24  44  73 110 149 197 254 321 393 471
#
# _framework density 21.360479000000002
#
# number of rings (size 3 to 8) (size 9 to 14) (size 15 to 20)
#    0.000    0.667    3.333    3.333    3.111    4.000 
#    0.000    2.222    0.000    0.000    0.000    0.000 
#    0.000    0.000    0.000    0.000    0.000    0.000 
#
# Total GULP energy -200792.539542 kJ/mol
# GULP energy per Si atom -5577.570543 kJ/mol
# Density = 2.131186 g / cm^3
# Si number density = 21.360479 Si / 1000 Ang^3
#
#
#
# Elastic Constant Matrix: (Units=GPa)
#
#
# Indices 1 2 3 4 5 6 
#
# 1 61.9359 47.3214 36.7337 0.0000 0.0000 -6.7597
# 2 47.3214 61.9359 36.7337 0.0000 0.0000 6.7597
# 3 36.7337 36.7337 173.6680 0.0000 0.0000 0.0000
# 4 0.0000 0.0000 0.0000 35.9617 0.0000 0.0000
# 5 0.0000 0.0000 0.0000 0.0000 35.9617 0.0000
# 6 -6.7597 6.7597 0.0000 0.0000 0.0000 12.6099
#
#
#
# Elastic Compliance Matrix: (Units=1/GPa)
#
#
# Indices 1 2 3 4 5 6 
#
# 1 0.073203 -0.062532 -0.002257 0.000000 0.000000 0.072762
# 2 -0.062532 0.073203 -0.002257 0.000000 0.000000 -0.072762
# 3 -0.002257 -0.002257 0.006713 0.000000 0.000000 0.000000
# 4 0.000000 0.000000 0.000000 0.027807 0.000000 0.000000
# 5 0.000000 0.000000 0.000000 0.000000 0.027807 0.000000
# 6 0.072762 -0.072762 0.000000 0.000000 0.000000 0.157313
#
#
# Mechanical properties :
#
#
# Convention : Reuss Voigt Hill
#
# Bulk Modulus (GPa) = 52.56037 59.90192 56.23114
# Shear Modulus (GPa) = 9.87205 28.69007 19.28106
#
# Velocity S-wave (km/s) = 2.15213 3.66886 3.00767
# Velocity P-wave (km/s) = 5.55296 6.78613 6.20028
#
# Compressibility (1/GPa) = 0.01902574
#
# Stress axis : x y z
#
# Youngs Moduli (GPa) = 13.66071 13.66071 148.96736
#
# Poissons Ratio (x) = 0.85424 0.33621
# Poissons Ratio (y) = 0.85424 0.33621
# Poissons Ratio (z) = 0.03083 0.03083
#
# Static dielectric constant tensor:
#      x y z
#    x 1.801950 0.000000 0.000000 
#    y 0.000000 1.801950 0.000000 
#    z 0.000000 0.000000 1.861010 
# 
# From -- ./inp_files/2196.got.cif
#   From: 2010.05.17/outbox.cif.g08.bks.cpg/sg85_cif.got.tgz:2196.got - 2010.06.03 19:01:16.
