data_PCOD9544804
_publ_section_title
;
Structure prediction by ZEFSAII (Michael W. Deem and Ramdas Pophale) SiO2 
 PCOD9544804
Probable space group: P 4/N
;
_chemical_formula_sum "Si O2"
_cell_formula_units_Z 36
_cell_length_a 9.961216
_cell_length_b 9.961216
_cell_length_c 19.471276
_cell_angle_alpha 90.000000
_cell_angle_beta 90.000000
_cell_angle_gamma 90.000000
_cell_volume 1932.053409
_symmetry_space_group_name_H-M "P 4/N"
_symmetry_group_IT_number 85
_symmetry_cell_setting 'tetragonal'
loop_
_space_group_symop_operation_xyz
x,y,z
1/2-y,x,z
1/2-x,1/2-y,z
y,1/2-x,z
-x,-y,-z
1/2+y,-x,-z
1/2+x,1/2+y,-z
-y,1/2+x,-z
loop_
_atom_site_type_symbol
_atom_site_label
_atom_site_fract_x
_atom_site_fract_y
_atom_site_fract_z
Si Si1 0.250000 0.750000 0.500000
Si Si2 0.036595 0.036597 0.794331
Si Si3 0.750000 0.750000 0.255551
Si Si4 0.405756 0.749999 0.732494
Si Si5 0.750000 0.971564 0.583248
Si Si6 0.593142 0.593143 0.045773
O O1 0.387013 0.750000 0.544182
O O2 0.132834 0.132839 0.750039
O O3 0.068065 0.068066 0.873546
O O4 0.883022 0.066606 0.776155
O O5 0.066606 0.883025 0.776154
O O6 0.250000 0.750000 0.711249
O O7 0.496152 0.750000 0.664332
O O8 0.619834 0.880166 0.566797
O O9 0.750000 0.566850 0.031798
O O10 0.500000 0.500000 0.000000
#
# Coordination Sequence:
#
# PCOD9544804 Si02
#       6
#     2   8   2   8   8   8
#     4  12  24  44  72  92 132 180 226 264 312 400
#     4  12  24  42  68  93 130 175 219 277 341 387
#     4  12  20  44  64  84 132 172 200 276 326 392
#     4  12  23  39  69 103 128 170 223 274 333 400
#     4  11  24  43  66  96 136 173 212 272 330 383
#     4  11  24  45  65  92 132 174 221 279 331 393
#
# _framework density 18.633026000000001
#
# number of rings (size 3 to 8) (size 9 to 14) (size 15 to 20)
#    0.000    0.444    7.778    0.667    3.111    0.889 
#    0.000    0.000    0.000    0.000    0.000    0.000 
#    0.000    0.000    0.000    0.000    0.000    0.000 
#
# Total GULP energy -200710.754665 kJ/mol
# GULP energy per Si atom -5575.298741 kJ/mol
# Density = 1.859062 g / cm^3
# Si number density = 18.633026 Si / 1000 Ang^3
#
#
#
# Elastic Constant Matrix: (Units=GPa)
#
#
# Indices 1 2 3 4 5 6 
#
# 1 173.1535 84.6959 36.5656 0.0000 0.0000 -0.0001
# 2 84.6959 173.1535 36.5656 0.0000 0.0000 0.0001
# 3 36.5656 36.5656 46.0456 0.0000 0.0000 0.0000
# 4 0.0000 0.0000 0.0000 24.3010 0.0000 0.0000
# 5 0.0000 0.0000 0.0000 0.0000 24.3010 0.0000
# 6 -0.0001 0.0001 0.0000 0.0000 0.0000 66.7267
#
#
#
# Elastic Compliance Matrix: (Units=1/GPa)
#
#
# Indices 1 2 3 4 5 6 
#
# 1 0.008155 -0.003150 -0.003975 0.000000 0.000000 0.000000
# 2 -0.003150 0.008155 -0.003975 0.000000 0.000000 0.000000
# 3 -0.003975 -0.003975 0.028031 0.000000 0.000000 0.000000
# 4 0.000000 0.000000 0.000000 0.041151 0.000000 0.000000
# 5 0.000000 0.000000 0.000000 0.000000 0.041151 0.000000
# 6 0.000000 0.000000 0.000000 0.000000 0.000000 0.014987
#
#
# Mechanical properties :
#
#
# Convention : Reuss Voigt Hill
#
# Bulk Modulus (GPa) = 45.16311 78.66743 61.91527
# Shear Modulus (GPa) = 29.20401 38.70076 33.95238
#
# Velocity S-wave (km/s) = 3.96324 4.56235 4.27331
# Velocity P-wave (km/s) = 6.72561 8.37045 7.59270
#
# Compressibility (1/GPa) = 0.02214196
#
# Stress axis : x y z
#
# Youngs Moduli (GPa) = 122.62050 122.62050 35.67483
#
# Poissons Ratio (x) = 0.38621 0.14181
# Poissons Ratio (y) = 0.38621 0.14181
# Poissons Ratio (z) = 0.48743 0.48743
#
# Static dielectric constant tensor:
#      x y z
#    x 1.627320 0.000000 0.000000 
#    y 0.000000 1.627320 0.000000 
#    z 0.000000 0.000000 1.620080 
# 
# From -- ./inp_files/2198.got.cif
#   From: 2010.05.17/outbox.cif.g08.bks.cpg/sg85_cif.got.tgz:2198.got - 2010.06.03 19:01:16.
