data_PCOD9544388
_publ_section_title
;
Structure prediction by ZEFSAII (Michael W. Deem and Ramdas Pophale) SiO2 
 PCOD9544388
Probable space group: P 42/M
;
_chemical_formula_sum "Si O2"
_cell_formula_units_Z 40
_cell_length_a 14.296745
_cell_length_b 14.296745
_cell_length_c 7.949845
_cell_angle_alpha 90.000000
_cell_angle_beta 90.000000
_cell_angle_gamma 90.000000
_cell_volume 1624.923813
_symmetry_space_group_name_H-M "P 42/M"
_symmetry_group_IT_number 84
_symmetry_cell_setting 'tetragonal'
loop_
_space_group_symop_operation_xyz
x,y,z
-y,x,1/2+z
-x,-y,z
y,-x,1/2+z
-x,-y,-z
y,-x,1/2-z
x,y,-z
-y,x,1/2-z
loop_
_atom_site_type_symbol
_atom_site_label
_atom_site_fract_x
_atom_site_fract_y
_atom_site_fract_z
Si Si1 0.205798 0.311039 0.808971
Si Si2 0.398935 0.609516 0.801169
Si Si3 0.000710 0.139998 0.315239
Si Si4 0.294849 0.125387 0.303510
Si Si5 0.502430 0.111830 0.301737
O O1 0.310420 0.350755 0.803694
O O2 0.224321 0.212620 0.718669
O O3 0.148214 0.398302 0.730888
O O4 0.173206 0.293060 0.000000
O O5 0.509269 0.623580 0.775984
O O6 0.374522 0.613188 0.000000
O O7 0.042920 0.136868 0.500000
O O8 0.964260 0.242987 0.274219
O O9 0.072274 0.090027 0.190918
O O10 0.306845 0.106070 0.500000
O O11 0.400235 0.144388 0.235847
O O12 0.506343 0.140010 0.500000
O O13 0.500000 0.000000 0.291410
#
# Coordination Sequence:
#
# PCOD9544388 Si02
#       5
#     8   8   8   8   8
#     4  11  22  38  62  90 124 167 218 268 325 394
#     4  11  21  35  56  83 117 154 201 257 319 383
#     4  11  23  42  67  98 133 171 219 276 340 405
#     4  11  23  40  66  98 134 174 224 279 339 404
#     4   9  21  41  64  91 125 172 223 272 329 398
#
# _framework density 24.616537999999998
#
# number of rings (size 3 to 8) (size 9 to 14) (size 15 to 20)
#    0.000    1.400    0.000    7.200    2.800    1.600 
#    0.000    3.000    0.000    4.800    0.000    0.000 
#    0.000    0.000    0.000    0.000    0.000    0.000 
#
# Total GULP energy -223597.178402 kJ/mol
# GULP energy per Si atom -5589.929460 kJ/mol
# Density = 2.456051 g / cm^3
# Si number density = 24.616538 Si / 1000 Ang^3
#
#
#
# Elastic Constant Matrix: (Units=GPa)
#
#
# Indices 1 2 3 4 5 6 
#
# 1 7.2443 113.2512 2.3322 0.0000 0.0000 47.7382
# 2 113.2512 7.2443 2.3322 0.0000 0.0000 -47.7382
# 3 2.3322 2.3322 79.7324 0.0000 0.0000 0.0000
# 4 0.0000 0.0000 0.0000 22.7769 0.0000 0.0000
# 5 0.0000 0.0000 0.0000 0.0000 22.7769 0.0000
# 6 47.7382 -47.7382 0.0000 0.0000 0.0000 22.7212
#
#
#
# Elastic Compliance Matrix: (Units=1/GPa)
#
#
# Indices 1 2 3 4 5 6 
#
# 1 0.002523 0.005785 -0.000243 0.000000 0.000000 0.006853
# 2 0.005785 0.002523 -0.000243 0.000000 0.000000 -0.006853
# 3 -0.000243 -0.000243 0.012556 0.000000 0.000000 0.000000
# 4 0.000000 0.000000 0.000000 0.043904 0.000000 0.000000
# 5 0.000000 0.000000 0.000000 0.000000 0.043904 0.000000
# 6 0.006853 -0.006853 0.000000 0.000000 0.000000 0.015217
#
#
# Mechanical properties :
#
#
# Convention : Reuss Voigt Hill
#
# Bulk Modulus (GPa) = 35.45972 36.67247 36.06610
# Shear Modulus (GPa) = 41.86537 12.07537 26.97037
#
# Velocity S-wave (km/s) = 4.12843 2.21721 3.31361
# Velocity P-wave (km/s) = 6.09601 4.63514 5.41507
#
# Compressibility (1/GPa) = 0.02820101
#
# Stress axis : x y z
#
# Youngs Moduli (GPa) = 396.27774 396.27774 79.64212
#
# Poissons Ratio (x) = -2.29246 0.01935
# Poissons Ratio (y) = -2.29246 0.01935
# Poissons Ratio (z) = 0.09631 0.09631
#
# Static dielectric constant tensor:
#      x y z
#    x 1.996260 0.000000 0.000000 
#    y 0.000000 1.996260 0.000000 
#    z 0.000000 0.000000 1.897840 
# 
# From -- ./inp_files/781.got.cif
#   From: 2010.05.17/outbox.cif.g08.bks.cpg/sg84_1_cif.got.tgz:781.got - 2010.06.03 18:57:40.
