data_PCOD9544241
_publ_section_title
;
Structure prediction by ZEFSAII (Michael W. Deem and Ramdas Pophale) SiO2 
 PCOD9544241
Probable space group: P 42/M
;
_chemical_formula_sum "Si O2"
_cell_formula_units_Z 48
_cell_length_a 8.297707
_cell_length_b 8.297707
_cell_length_c 33.324662
_cell_angle_alpha 90.000000
_cell_angle_beta 90.000000
_cell_angle_gamma 90.000000
_cell_volume 2294.467677
_symmetry_space_group_name_H-M "P 42/M"
_symmetry_group_IT_number 84
_symmetry_cell_setting 'tetragonal'
loop_
_space_group_symop_operation_xyz
x,y,z
-y,x,1/2+z
-x,-y,z
y,-x,1/2+z
-x,-y,-z
y,-x,1/2-z
x,y,-z
-y,x,1/2-z
loop_
_atom_site_type_symbol
_atom_site_label
_atom_site_fract_x
_atom_site_fract_y
_atom_site_fract_z
Si Si1 0.188242 0.293003 0.080861
Si Si2 0.131322 0.782064 0.821417
Si Si3 0.328920 0.175104 0.407799
Si Si4 0.627604 0.729483 0.756632
Si Si5 0.134910 0.762349 0.666061
Si Si6 0.809333 0.518874 0.454654
O O1 0.179041 0.485199 0.080465
O O2 0.251911 0.214517 0.122548
O O3 0.335694 0.252678 0.051410
O O4 0.995811 0.246322 0.077756
O O5 0.166330 0.668589 0.859281
O O6 0.175446 0.719562 0.777860
O O7 0.941640 0.815368 0.820161
O O8 0.229101 0.942613 0.833408
O O9 0.250226 0.338908 0.424921
O O10 0.707366 0.554010 0.757808
O O11 0.638574 0.805456 0.800534
O O12 0.769002 0.571858 0.500000
O O13 0.000000 0.500000 0.450261
#
# Coordination Sequence:
#
# PCOD9544241 Si02
#       6
#     8   8   8   8   8   8
#     4  10  22  41  66  94 126 165 208 259 318 380
#     4  10  21  38  60  85 115 154 201 251 306 369
#     4  10  22  41  66  94 126 165 208 259 318 380
#     4  11  24  37  52  80 118 159 202 251 304 360
#     4  10  21  38  60  85 115 154 201 251 306 369
#     4  11  25  43  65  95 129 167 211 259 315 381
#
# _framework density 20.919885000000001
#
# number of rings (size 3 to 8) (size 9 to 14) (size 15 to 20)
#    0.000    1.667    0.000    3.500    2.333    9.333 
#    0.000    3.333    0.000    0.000    0.000    0.000 
#    0.000    0.000    0.000    0.000    0.000    0.000 
#
# Total GULP energy -267853.768574 kJ/mol
# GULP energy per Si atom -5580.286845 kJ/mol
# Density = 2.087227 g / cm^3
# Si number density = 20.919885 Si / 1000 Ang^3
#
#
#
# Elastic Constant Matrix: (Units=GPa)
#
#
# Indices 1 2 3 4 5 6 
#
# 1 55.2983 -12.0187 -1.3075 0.0000 0.0000 2.2004
# 2 -12.0187 55.2983 -1.3075 0.0000 0.0000 -2.2004
# 3 -1.3075 -1.3075 34.2717 0.0000 0.0000 0.0000
# 4 0.0000 0.0000 0.0000 48.6409 0.0000 0.0000
# 5 0.0000 0.0000 0.0000 0.0000 48.6409 0.0000
# 6 2.2004 -2.2004 0.0000 0.0000 0.0000 23.6951
#
#
#
# Elastic Compliance Matrix: (Units=1/GPa)
#
#
# Indices 1 2 3 4 5 6 
#
# 1 0.019052 0.004107 0.000884 0.000000 0.000000 -0.001388
# 2 0.004107 0.019052 0.000884 0.000000 0.000000 0.001388
# 3 0.000884 0.000884 0.029246 0.000000 0.000000 0.000000
# 4 0.000000 0.000000 0.000000 0.020559 0.000000 0.000000
# 5 0.000000 0.000000 0.000000 0.000000 0.020559 0.000000
# 6 -0.001388 0.001388 0.000000 0.000000 0.000000 0.042461
#
#
# Mechanical properties :
#
#
# Convention : Reuss Voigt Hill
#
# Bulk Modulus (GPa) = 12.64253 12.84454 12.74354
# Shear Modulus (GPa) = 30.20276 34.82886 32.51581
#
# Velocity S-wave (km/s) = 3.80377 4.08471 3.94674
# Velocity P-wave (km/s) = 5.03468 5.32913 5.18400
#
# Compressibility (1/GPa) = 0.07909809
#
# Stress axis : x y z
#
# Youngs Moduli (GPa) = 52.48686 52.48686 34.19266
#
# Poissons Ratio (x) = -0.21554 -0.03021
# Poissons Ratio (y) = -0.21554 -0.03021
# Poissons Ratio (z) = -0.04637 -0.04637
#
# Static dielectric constant tensor:
#      x y z
#    x 1.782970 0.000000 0.000000 
#    y 0.000000 1.782970 0.000000 
#    z 0.000000 0.000000 1.709020 
# 
# From -- ./inp_files/5747.got.cif
#   From: 2010.05.17/outbox.cif.g08.bks.cpg/sg84_3_cif.got.tgz:5747.got - 2010.06.03 18:57:40.
