data_PCOD9544867
_publ_section_title
;
Structure prediction by ZEFSAII (Michael W. Deem and Ramdas Pophale) SiO2 
 PCOD9544867
Probable space group: P 42/N
;
_chemical_formula_sum "Si O2"
_cell_formula_units_Z 48
_cell_length_a 8.820312
_cell_length_b 8.820312
_cell_length_c 30.702662
_cell_angle_alpha 90.000000
_cell_angle_beta 90.000000
_cell_angle_gamma 90.000000
_cell_volume 2388.602744
_symmetry_space_group_name_H-M "P 42/N"
_symmetry_group_IT_number 86
_space_group.IT_coordinate_system_code '2'
_symmetry_cell_setting 'tetragonal'
loop_
_space_group_symop_operation_xyz
x,y,z
-y,1/2+x,1/2+z
1/2-x,1/2-y,z
1/2+y,-x,1/2+z
-x,-y,-z
y,1/2-x,1/2-z
1/2+x,1/2+y,-z
1/2-y,x,1/2-z
loop_
_atom_site_type_symbol
_atom_site_label
_atom_site_fract_x
_atom_site_fract_y
_atom_site_fract_z
Si Si1 0.704913 0.962691 0.448832
Si Si2 0.750000 0.250000 0.494006
Si Si3 0.250000 0.250000 0.872587
Si Si4 0.970271 0.063624 0.658705
Si Si5 0.026913 0.571345 0.940789
Si Si6 0.750000 0.250000 0.719886
Si Si7 0.466386 0.329290 0.268728
Si Si8 0.250000 0.250000 0.477406
O O1 0.664288 0.870468 0.405071
O O2 0.658775 0.858255 0.489308
O O3 0.889905 0.969131 0.447327
O O4 0.662918 0.133386 0.461626
O O5 0.649049 0.352823 0.526603
O O6 0.147984 0.367716 0.845816
O O7 0.904985 0.058705 0.610037
O O8 0.864563 0.161426 0.689456
O O9 0.969376 0.900790 0.683151
O O10 0.863593 0.643884 0.951069
O O11 0.841046 0.367151 0.749468
O O12 0.416017 0.154476 0.262485
#
# Coordination Sequence:
#
# PCOD9544867 Si02
#       8
#     8   4   4   8   8   4   8   4
#     4   9  19  36  50  73 111 148 192 239 283 343
#     4  10  17  32  55  74 104 152 198 236 285 338
#     4   9  20  38  57  78 117 160 187 240 295 330
#     4  10  21  39  58  84 119 146 189 241 287 348
#     4  10  20  34  51  78 110 146 189 246 293 333
#     4  10  21  38  61  90 112 140 188 234 275 350
#     4   9  20  39  62  84 113 151 180 224 292 354
#     4   9  16  30  52  70 100 146 188 228 282 340
#
# _framework density 20.095431999999999
#
# number of rings (size 3 to 8) (size 9 to 14) (size 15 to 20)
#    0.000    2.500    0.000    2.500    0.000    5.333 
#    0.000   40.000    0.000    0.000    0.000    0.000 
#    0.000    0.000    0.000    0.000    0.000    0.000 
#
# Total GULP energy -267550.806264 kJ/mol
# GULP energy per Si atom -5573.975131 kJ/mol
# Density = 2.004969 g / cm^3
# Si number density = 20.095432 Si / 1000 Ang^3
#
#
#
# Elastic Constant Matrix: (Units=GPa)
#
#
# Indices 1 2 3 4 5 6 
#
# 1 84.3046 9.0478 20.4939 0.0000 0.0000 -2.8535
# 2 9.0478 84.3046 20.4939 0.0000 0.0000 2.8535
# 3 20.4939 20.4939 78.4028 0.0000 0.0000 0.0000
# 4 0.0000 0.0000 0.0000 15.1194 0.0000 0.0000
# 5 0.0000 0.0000 0.0000 0.0000 15.1194 0.0000
# 6 -2.8535 2.8535 0.0000 0.0000 0.0000 21.9129
#
#
#
# Elastic Compliance Matrix: (Units=1/GPa)
#
#
# Indices 1 2 3 4 5 6 
#
# 1 0.012761 -0.000660 -0.003163 0.000000 0.000000 0.001748
# 2 -0.000660 0.012761 -0.003163 0.000000 0.000000 -0.001748
# 3 -0.003163 -0.003163 0.014408 0.000000 0.000000 0.000000
# 4 0.000000 0.000000 0.000000 0.066140 0.000000 0.000000
# 5 0.000000 0.000000 0.000000 0.000000 0.066140 0.000000
# 6 0.001748 -0.001748 0.000000 0.000000 0.000000 0.046090
#
#
# Mechanical properties :
#
#
# Convention : Reuss Voigt Hill
#
# Bulk Modulus (GPa) = 38.52416 38.56478 38.54447
# Shear Modulus (GPa) = 20.75337 23.56210 22.15773
#
# Velocity S-wave (km/s) = 3.21711 3.42791 3.32418
# Velocity P-wave (km/s) = 5.74561 5.90761 5.82717
#
# Compressibility (1/GPa) = 0.02595774
#
# Stress axis : x y z
#
# Youngs Moduli (GPa) = 78.36606 78.36606 69.40469
#
# Poissons Ratio (x) = 0.05170 0.21953
# Poissons Ratio (y) = 0.05170 0.21953
# Poissons Ratio (z) = 0.24788 0.24788
#
# Static dielectric constant tensor:
#      x y z
#    x 1.769640 0.000000 0.000000 
#    y 0.000000 1.769640 0.000000 
#    z 0.000000 0.000000 1.702260 
# 
# From -- ./inp_files/5286.got.cif
#   From: 2010.05.17/outbox.cif.g08.bks.cpg/sg86_3_cif.got.tgz:5286.got - 2010.06.03 19:03:11.
