data_PCOD9544638
_publ_section_title
;
Structure prediction by ZEFSAII (Michael W. Deem and Ramdas Pophale) SiO2 
 PCOD9544638
Probable space group: P 4/N
;
_chemical_formula_sum "Si O2"
_cell_formula_units_Z 40
_cell_length_a 10.994740
_cell_length_b 10.994740
_cell_length_c 14.844624
_cell_angle_alpha 90.000000
_cell_angle_beta 90.000000
_cell_angle_gamma 90.000000
_cell_volume 1794.482095
_symmetry_space_group_name_H-M "P 4/N"
_symmetry_group_IT_number 85
_symmetry_cell_setting 'tetragonal'
loop_
_space_group_symop_operation_xyz
x,y,z
1/2-y,x,z
1/2-x,1/2-y,z
y,1/2-x,z
-x,-y,-z
1/2+y,-x,-z
1/2+x,1/2+y,-z
-y,1/2+x,-z
loop_
_atom_site_type_symbol
_atom_site_label
_atom_site_fract_x
_atom_site_fract_y
_atom_site_fract_z
Si Si1 0.060926 0.167748 0.208767
Si Si2 0.671126 0.940775 0.987419
Si Si3 0.009821 0.016397 0.655374
Si Si4 0.659898 0.569594 0.508982
Si Si5 0.060723 0.168805 0.818133
O O1 0.191004 0.096942 0.215120
O O2 0.985683 0.109170 0.288802
O O3 0.002318 0.146295 0.110043
O O4 0.598680 0.812703 0.987608
O O5 0.645224 0.000488 0.084076
O O6 0.127652 0.032165 0.592594
O O7 0.993424 0.119432 0.730943
O O8 0.900203 0.015603 0.583503
O O9 0.800828 0.593120 0.522028
O O10 0.189882 0.096988 0.814671
#
# Coordination Sequence:
#
# PCOD9544638 Si02
#       5
#     8   8   8   8   8
#     4   9  17  31  51  75 104 135 165 198 236 281
#     4   7  12  25  46  72 102 134 164 194 230 274
#     4  11  20  29  54  82  96 117 164 209 248 292
#     4  10  22  40  56  70  94 126 160 204 256 304
#     4   9  17  31  51  75 104 135 165 198 236 281
#
# _framework density 22.290552999999999
#
# number of rings (size 3 to 8) (size 9 to 14) (size 15 to 20)
#    0.000    2.800    0.000    4.800    0.000    4.000 
#    0.000    0.000    0.000   49.200    0.000    0.000 
#    0.000   38.400    0.000    0.000    0.000    0.000 
#
# Total GULP energy -223204.201003 kJ/mol
# GULP energy per Si atom -5580.105025 kJ/mol
# Density = 2.223982 g / cm^3
# Si number density = 22.290553 Si / 1000 Ang^3
#
#
#
# Elastic Constant Matrix: (Units=GPa)
#
#
# Indices 1 2 3 4 5 6 
#
# 1 19.4728 14.7382 8.5535 0.0000 0.0000 -5.8810
# 2 14.7382 19.4728 8.5535 0.0000 0.0000 5.8810
# 3 8.5535 8.5535 137.9844 0.0000 0.0000 0.0000
# 4 0.0000 0.0000 0.0000 18.3904 0.0000 0.0000
# 5 0.0000 0.0000 0.0000 0.0000 18.3904 0.0000
# 6 -5.8810 5.8810 0.0000 0.0000 0.0000 27.4302
#
#
#
# Elastic Compliance Matrix: (Units=1/GPa)
#
#
# Indices 1 2 3 4 5 6 
#
# 1 0.241037 -0.210872 -0.001870 0.000000 0.000000 0.096889
# 2 -0.210872 0.241037 -0.001870 0.000000 0.000000 -0.096889
# 3 -0.001870 -0.001870 0.007479 0.000000 0.000000 0.000000
# 4 0.000000 0.000000 0.000000 0.054376 0.000000 0.000000
# 5 0.000000 0.000000 0.000000 0.000000 0.054376 0.000000
# 6 0.096889 -0.096889 0.000000 0.000000 0.000000 0.078002
#
#
# Mechanical properties :
#
#
# Convention : Reuss Voigt Hill
#
# Bulk Modulus (GPa) = 16.57549 26.73560 21.65554
# Shear Modulus (GPa) = 4.44192 22.51454 13.47823
#
# Velocity S-wave (km/s) = 1.41317 3.18157 2.46165
# Velocity P-wave (km/s) = 3.18041 5.05141 4.22088
#
# Compressibility (1/GPa) = 0.06033006
#
# Stress axis : x y z
#
# Youngs Moduli (GPa) = 4.14874 4.14874 133.70737
#
# Poissons Ratio (x) = 0.87485 0.25002
# Poissons Ratio (y) = 0.87485 0.25002
# Poissons Ratio (z) = 0.00776 0.00776
#
# Static dielectric constant tensor:
#      x y z
#    x 1.837100 0.000000 0.000000 
#    y 0.000000 1.837100 0.000000 
#    z 0.000000 0.000000 1.891750 
# 
# From -- ./inp_files/1918.got.cif
#   From: 2010.05.17/outbox.cif.g08.bks.cpg/sg85_cif.got.tgz:1918.got - 2010.06.03 19:01:16.
