data_PCOD9544487
_publ_section_title
;
Structure prediction by ZEFSAII (Michael W. Deem and Ramdas Pophale) SiO2 
 PCOD9544487
Probable space group: P 4/N
;
_chemical_formula_sum "Si O2"
_cell_formula_units_Z 48
_cell_length_a 18.120684
_cell_length_b 18.120684
_cell_length_c 8.690699
_cell_angle_alpha 90.000000
_cell_angle_beta 90.000000
_cell_angle_gamma 90.000000
_cell_volume 2853.670872
_symmetry_space_group_name_H-M "P 4/N"
_symmetry_group_IT_number 85
_symmetry_cell_setting 'tetragonal'
loop_
_space_group_symop_operation_xyz
x,y,z
1/2-y,x,z
1/2-x,1/2-y,z
y,1/2-x,z
-x,-y,-z
1/2+y,-x,-z
1/2+x,1/2+y,-z
-y,1/2+x,-z
loop_
_atom_site_type_symbol
_atom_site_label
_atom_site_fract_x
_atom_site_fract_y
_atom_site_fract_z
Si Si1 0.008412 0.008412 0.247316
Si Si2 0.588780 0.588781 0.475512
Si Si3 0.033270 0.750001 0.077270
Si Si4 0.090434 0.590435 0.000000
Si Si5 0.868269 0.750001 0.035894
Si Si6 0.750000 0.934852 0.361342
O O1 0.952736 0.952735 0.334677
O O2 0.054396 0.054396 0.371472
O O3 0.062145 0.959725 0.141489
O O4 0.959724 0.062145 0.141491
O O5 0.573403 0.675571 0.457082
O O6 0.675571 0.573404 0.457081
O O7 0.074904 0.675430 0.036324
O O8 0.953581 0.750001 0.989758
O O9 0.009431 0.750000 0.257732
O O10 0.074904 0.824571 0.036325
O O11 0.821864 0.821865 0.988470
O O12 0.874674 0.750000 0.222539
#
# Coordination Sequence:
#
# PCOD9544487 Si02
#       6
#     8   8   8   8   8   8
#     4  10  22  36  58  85 109 153 192 247 275 353
#     4  11  20  35  58  83 117 148 196 231 295 333
#     4  10  21  34  59  83 111 155 189 250 291 344
#     4  11  22  39  58  84 118 147 203 242 300 346
#     4   9  16  28  51  84 109 148 191 225 278 346
#     4  10  17  33  54  85 112 151 186 234 277 357
#
# _framework density 16.820442
#
# number of rings (size 3 to 8) (size 9 to 14) (size 15 to 20)
#    1.000    0.833    5.000    0.000    4.667    2.000 
#    0.000    0.000    0.000    0.000    0.000    0.000 
#    0.000    0.000    0.000    0.000    0.000    0.000 
#
# Total GULP energy -267482.178770 kJ/mol
# GULP energy per Si atom -5572.545391 kJ/mol
# Density = 1.678216 g / cm^3
# Si number density = 16.820442 Si / 1000 Ang^3
#
#
#
# Elastic Constant Matrix: (Units=GPa)
#
#
# Indices 1 2 3 4 5 6 
#
# 1 134.8323 85.6646 40.1564 0.0000 0.0000 0.0000
# 2 85.6646 134.8323 40.1564 0.0000 0.0000 0.0000
# 3 40.1564 40.1564 62.8182 0.0000 0.0000 0.0000
# 4 0.0000 0.0000 0.0000 11.3721 0.0000 0.0000
# 5 0.0000 0.0000 0.0000 0.0000 11.3721 0.0000
# 6 0.0000 0.0000 0.0000 0.0000 0.0000 24.8835
#
#
#
# Elastic Compliance Matrix: (Units=1/GPa)
#
#
# Indices 1 2 3 4 5 6 
#
# 1 0.013125 -0.007213 -0.003779 0.000000 0.000000 0.000000
# 2 -0.007213 0.013125 -0.003779 0.000000 0.000000 0.000000
# 3 -0.003779 -0.003779 0.020750 0.000000 0.000000 0.000000
# 4 0.000000 0.000000 0.000000 0.087934 0.000000 0.000000
# 5 0.000000 0.000000 0.000000 0.000000 0.087934 0.000000
# 6 0.000000 0.000000 0.000000 0.000000 0.000000 0.040187
#
#
# Mechanical properties :
#
#
# Convention : Reuss Voigt Hill
#
# Bulk Modulus (GPa) = 57.28140 73.82641 65.55391
# Shear Modulus (GPa) = 16.75497 20.62591 18.69044
#
# Velocity S-wave (km/s) = 3.15954 3.50557 3.33704
# Velocity P-wave (km/s) = 6.88759 7.76991 7.34202
#
# Compressibility (1/GPa) = 0.01745767
#
# Stress axis : x y z
#
# Youngs Moduli (GPa) = 76.18984 76.18984 48.19178
#
# Poissons Ratio (x) = 0.54959 0.18212
# Poissons Ratio (y) = 0.54959 0.18212
# Poissons Ratio (z) = 0.28792 0.28792
#
# Static dielectric constant tensor:
#      x y z
#    x 1.549850 0.000000 0.000000 
#    y 0.000000 1.549850 0.000000 
#    z 0.000000 0.000000 1.567760 
# 
# From -- ./inp_files/1059.got.cif
#   From: 2010.05.17/outbox.cif.g08.bks.cpg/sg85_cif.got.tgz:1059.got - 2010.06.03 19:01:16.
