data_PCOD9544228
_publ_section_title
;
Structure prediction by ZEFSAII (Michael W. Deem and Ramdas Pophale) SiO2 
 PCOD9544228
Probable space group: P 42/M
;
_chemical_formula_sum "Si O2"
_cell_formula_units_Z 58
_cell_length_a 18.533671
_cell_length_b 18.533671
_cell_length_c 7.894566
_cell_angle_alpha 90.000000
_cell_angle_beta 90.000000
_cell_angle_gamma 90.000000
_cell_volume 2711.759427
_symmetry_space_group_name_H-M "P 42/M"
_symmetry_group_IT_number 84
_symmetry_cell_setting 'tetragonal'
loop_
_space_group_symop_operation_xyz
x,y,z
-y,x,1/2+z
-x,-y,z
y,-x,1/2+z
-x,-y,-z
y,-x,1/2-z
x,y,-z
-y,x,1/2-z
loop_
_atom_site_type_symbol
_atom_site_label
_atom_site_fract_x
_atom_site_fract_y
_atom_site_fract_z
Si Si1 0.883388 0.665003 0.800890
Si Si2 0.827158 0.867646 0.195530
Si Si3 0.258700 0.741473 0.185007
Si Si4 0.277781 0.509355 0.700897
Si Si5 0.494430 0.111397 0.698184
Si Si6 0.500000 0.000000 0.000000
Si Si7 0.974601 0.794958 0.796773
Si Si8 0.360326 0.367897 0.189749
O O1 0.816201 0.697250 0.700450
O O2 0.892730 0.581154 0.776487
O O3 0.952968 0.712630 0.757865
O O4 0.867937 0.677429 0.000000
O O5 0.764225 0.823442 0.286560
O O6 0.905432 0.841724 0.258581
O O7 0.818501 0.952015 0.213368
O O8 0.823625 0.845353 0.000000
O O9 0.295275 0.687446 0.313347
O O10 0.268483 0.709416 0.000000
O O11 0.270286 0.521474 0.500000
O O12 0.197506 0.521002 0.776946
O O13 0.338960 0.564976 0.767286
O O14 0.310656 0.429338 0.727012
O O15 0.477056 0.092228 0.500000
O O16 0.469725 0.056754 0.846846
O O17 0.982912 0.802530 0.000000
O O18 0.375030 0.394070 0.000000
#
# Coordination Sequence:
#
# PCOD9544228 Si02
#       8
#     8   8   8   8   8   2   8   8
#     4   9  19  37  62  87 115 159 209 256 317 389
#     4  10  21  37  55  82 117 155 202 259 318 385
#     4  11  21  35  61  90 118 156 210 261 316 389
#     4  11  24  44  69 101 138 181 232 288 345 423
#     4  11  23  44  70  95 138 185 224 282 346 404
#     4  12  26  44  68 102 140 178 238 274 332 422
#     4   9  19  36  55  79 115 151 200 256 312 382
#     4  11  24  42  67  97 135 177 223 281 347 410
#
# _framework density 21.388328000000001
#
# number of rings (size 3 to 8) (size 9 to 14) (size 15 to 20)
#    0.000    1.655    2.069    3.517    0.966    5.517 
#    2.483    2.759    0.000    0.000    0.000    0.000 
#    0.000    0.000    0.000    0.000    0.000    0.000 
#
# Total GULP energy -323051.162295 kJ/mol
# GULP energy per Si atom -5569.847626 kJ/mol
# Density = 2.133965 g / cm^3
# Si number density = 21.388328 Si / 1000 Ang^3
#
#
#
# Elastic Constant Matrix: (Units=GPa)
#
#
# Indices 1 2 3 4 5 6 
#
# 1 51.7313 26.3313 9.7138 0.0000 0.0000 -8.7290
# 2 26.3313 51.7313 9.7138 0.0000 0.0000 8.7290
# 3 9.7138 9.7138 68.4895 0.0000 0.0000 0.0000
# 4 0.0000 0.0000 0.0000 -666.0646 0.0000 0.0000
# 5 0.0000 0.0000 0.0000 0.0000 -666.0646 0.0000
# 6 -8.7290 8.7290 0.0000 0.0000 0.0000 9.1311
#
#
#
# Elastic Compliance Matrix: (Units=1/GPa)
#
#
# Indices 1 2 3 4 5 6 
#
# 1 0.064041 -0.050762 -0.001883 0.000000 0.000000 0.109747
# 2 -0.050762 0.064041 -0.001883 0.000000 0.000000 -0.109747
# 3 -0.001883 -0.001883 0.015135 0.000000 0.000000 0.000000
# 4 0.000000 0.000000 0.000000 -0.001501 0.000000 0.000000
# 5 0.000000 0.000000 0.000000 0.000000 -0.001501 0.000000
# 6 0.109747 -0.109747 0.000000 0.000000 0.000000 0.319345
#
#
# Mechanical properties :
#
#
# Convention : Reuss Voigt Hill
#
# Bulk Modulus (GPa) = 29.27440 29.27442 29.27441
# Shear Modulus (GPa) = 8.62066 -256.18674 -123.78304
#
# Velocity S-wave (km/s) = 2.00980 -10.95622 -7.61576
# Velocity P-wave (km/s) = 4.37064 12.09690 7.97598
#
# Compressibility (1/GPa) = 0.03415954
#
# Stress axis : x y z
#
# Youngs Moduli (GPa) = 15.61511 15.61511 66.07204
#
# Poissons Ratio (x) = 0.79265 0.12444
# Poissons Ratio (y) = 0.79265 0.12444
# Poissons Ratio (z) = 0.02941 0.02941
#
# Static dielectric constant tensor:
#      x y z
#    x 1.774630 0.000000 0.000000 
#    y 0.000000 1.774630 0.000000 
#    z 0.000000 0.000000 1.954070 
# 
# From -- ./inp_files/1131.got.cif
#   From: 2010.05.17/outbox.cif.g08.bks.cpg/sg84_1_cif.got.tgz:1131.got - 2010.06.03 18:57:40.
