data_PCOD9544762
_publ_section_title
;
Structure prediction by ZEFSAII (Michael W. Deem and Ramdas Pophale) SiO2 
 PCOD9544762
Probable space group: P 4/N
;
_chemical_formula_sum "Si O2"
_cell_formula_units_Z 42
_cell_length_a 8.980709
_cell_length_b 8.980709
_cell_length_c 27.933385
_cell_angle_alpha 90.000000
_cell_angle_beta 90.000000
_cell_angle_gamma 90.000000
_cell_volume 2252.915047
_symmetry_space_group_name_H-M "P 4/N"
_symmetry_group_IT_number 85
_symmetry_cell_setting 'tetragonal'
loop_
_space_group_symop_operation_xyz
x,y,z
1/2-y,x,z
1/2-x,1/2-y,z
y,1/2-x,z
-x,-y,-z
1/2+y,-x,-z
1/2+x,1/2+y,-z
-y,1/2+x,-z
loop_
_atom_site_type_symbol
_atom_site_label
_atom_site_fract_x
_atom_site_fract_y
_atom_site_fract_z
Si Si1 0.015018 0.164260 0.679126
Si Si2 0.610769 0.541472 0.864272
Si Si3 0.586980 0.938821 0.045943
Si Si4 0.008327 0.181713 0.569276
Si Si5 0.250000 0.750000 0.500000
Si Si6 0.976728 0.640537 0.756836
O O1 0.165511 0.066484 0.684988
O O2 0.959860 0.155671 0.624311
O O3 0.904227 0.098269 0.717956
O O4 0.789032 0.552561 0.868481
O O5 0.527522 0.458505 0.906461
O O6 0.593020 0.477075 0.810685
O O7 0.548796 0.764560 0.044927
O O8 0.500000 0.000000 0.000000
O O9 0.150509 0.073525 0.562919
O O10 0.871348 0.167908 0.533322
O O11 0.940368 0.815903 0.751679
#
# Coordination Sequence:
#
# PCOD9544762 Si02
#       6
#     8   8   8   8   2   8
#     4   9  19  35  53  74 105 143 178 216 265 321
#     4   9  19  37  58  80 109 143 178 220 270 320
#     4  11  24  39  56  81 111 143 182 227 271 319
#     4   9  20  37  53  76 110 141 175 223 274 323
#     4  12  20  32  60  84 100 140 188 224 268 330
#     4   9  19  35  55  81 111 140 175 222 269 315
#
# _framework density 18.642512
#
# number of rings (size 3 to 8) (size 9 to 14) (size 15 to 20)
#    0.000    2.476    0.000    4.000    0.000    9.524 
#    0.000    5.714    0.000    2.286    0.000    0.000 
#    0.000    0.000    0.000    0.000    0.000    0.000 
#
# Total GULP energy -234187.561418 kJ/mol
# GULP energy per Si atom -5575.894319 kJ/mol
# Density = 1.860008 g / cm^3
# Si number density = 18.642512 Si / 1000 Ang^3
#
#
#
# Elastic Constant Matrix: (Units=GPa)
#
#
# Indices 1 2 3 4 5 6 
#
# 1 37.1156 38.5628 63.6367 0.0000 0.0000 0.1618
# 2 38.5628 37.1156 63.6367 0.0000 0.0000 -0.1618
# 3 63.6367 63.6367 148.8923 0.0000 0.0000 0.0000
# 4 0.0000 0.0000 0.0000 36.3117 0.0000 0.0000
# 5 0.0000 0.0000 0.0000 0.0000 36.3117 0.0000
# 6 0.1618 -0.1618 0.0000 0.0000 0.0000 28.9100
#
#
#
# Elastic Compliance Matrix: (Units=1/GPa)
#
#
# Indices 1 2 3 4 5 6 
#
# 1 -0.321570 0.368559 -0.020083 0.000000 0.000000 0.003864
# 2 0.368559 -0.321570 -0.020083 0.000000 0.000000 -0.003864
# 3 -0.020083 -0.020083 0.023883 0.000000 0.000000 0.000000
# 4 0.000000 0.000000 0.000000 0.027539 0.000000 0.000000
# 5 0.000000 0.000000 0.000000 0.000000 0.027539 0.000000
# 6 0.003864 -0.003864 0.000000 0.000000 0.000000 0.034547
#
#
# Mechanical properties :
#
#
# Convention : Reuss Voigt Hill
#
# Bulk Modulus (GPa) = 26.64635 61.64400 44.14517
# Shear Modulus (GPa) = -4.25928 24.12583 9.93328
#
# Velocity S-wave (km/s) = -1.51317 3.60130 2.31081
# Velocity P-wave (km/s) = 3.35730 7.10146 5.55437
#
# Compressibility (1/GPa) = 0.03752860
#
# Stress axis : x y z
#
# Youngs Moduli (GPa) = -3.10974 -3.10974 41.87033
#
# Poissons Ratio (x) = 1.14612 0.84088
# Poissons Ratio (y) = 1.14612 0.84088
# Poissons Ratio (z) = -0.06245 -0.06245
#
# Static dielectric constant tensor:
#      x y z
#    x 1.645580 0.000000 0.000000 
#    y 0.000000 1.645580 0.000000 
#    z 0.000000 0.000000 1.643600 
# 
# From -- ./inp_files/2377.got.cif
#   From: 2010.05.17/outbox.cif.g08.bks.cpg/sg85_cif.got.tgz:2377.got - 2010.06.03 19:01:16.
