data_PCOD9544523
_publ_section_title
;
Structure prediction by ZEFSAII (Michael W. Deem and Ramdas Pophale) SiO2 
 PCOD9544523
Probable space group: P 4/N
;
_chemical_formula_sum "Si O2"
_cell_formula_units_Z 52
_cell_length_a 16.442032
_cell_length_b 16.442032
_cell_length_c 7.752845
_cell_angle_alpha 90.000000
_cell_angle_beta 90.000000
_cell_angle_gamma 90.000000
_cell_volume 2095.907345
_symmetry_space_group_name_H-M "P 4/N"
_symmetry_group_IT_number 85
_symmetry_cell_setting 'tetragonal'
loop_
_space_group_symop_operation_xyz
x,y,z
1/2-y,x,z
1/2-x,1/2-y,z
y,1/2-x,z
-x,-y,-z
1/2+y,-x,-z
1/2+x,1/2+y,-z
-y,1/2+x,-z
loop_
_atom_site_type_symbol
_atom_site_label
_atom_site_fract_x
_atom_site_fract_y
_atom_site_fract_z
Si Si1 0.318438 0.139154 0.788146
Si Si2 0.705589 0.458101 0.527198
Si Si3 0.130795 0.371289 0.394149
Si Si4 0.157114 0.901580 0.971782
Si Si5 0.250000 0.250000 0.230458
Si Si6 0.750000 0.250000 0.000000
Si Si7 0.806668 0.467166 0.166679
Si Si8 0.563003 0.371254 0.344115
O O1 0.356782 0.224076 0.843883
O O2 0.325459 0.140493 0.580290
O O3 0.352167 0.053107 0.847866
O O4 0.674298 0.545142 0.589870
O O5 0.758218 0.465859 0.348251
O O6 0.626006 0.406223 0.483845
O O7 0.773726 0.424711 0.655918
O O8 0.188570 0.329701 0.253962
O O9 0.116567 0.467449 0.373837
O O10 0.204775 0.821126 0.899628
O O11 0.232155 0.962813 0.971864
O O12 0.089562 0.917920 0.828864
O O13 0.106820 0.868816 0.133971
#
# Coordination Sequence:
#
# PCOD9544523 Si02
#       8
#     8   8   8   8   2   2   8   8
#     4  11  18  33  65  90 107 145 207 255 285 349
#     4  11  23  37  63  90 124 161 205 261 304 372
#     4  12  19  38  62  96 118 156 210 258 309 365
#     4   9  21  36  59  82 119 161 195 250 303 365
#     4  12  16  32  72  80 110 164 204 236 306 376
#     4   8  16  40  64  74 104 172 228 230 272 376
#     4  10  19  39  59  83 115 156 208 242 295 364
#     4  11  23  37  57  93 130 154 200 256 322 370
#
# _framework density 24.810258000000001
#
# number of rings (size 3 to 8) (size 9 to 14) (size 15 to 20)
#    0.000    1.385    6.154    0.462    0.000    5.231 
#    0.000    2.308    0.000    0.000    0.000    0.000 
#    0.000    0.000    0.000    0.000    0.000    0.000 
#
# Total GULP energy -289911.550197 kJ/mol
# GULP energy per Si atom -5575.222119 kJ/mol
# Density = 2.475379 g / cm^3
# Si number density = 24.810258 Si / 1000 Ang^3
#
#
#
# Elastic Constant Matrix: (Units=GPa)
#
#
# Indices 1 2 3 4 5 6 
#
# 1 113.7909 -28.7890 -1.5637 0.0000 0.0000 -0.2471
# 2 -28.7890 113.7909 -1.5637 0.0000 0.0000 0.2471
# 3 -1.5637 -1.5637 61.3503 0.0000 0.0000 0.0000
# 4 0.0000 0.0000 0.0000 19.6464 0.0000 0.0000
# 5 0.0000 0.0000 0.0000 0.0000 19.6464 0.0000
# 6 -0.2471 0.2471 0.0000 0.0000 0.0000 32.2842
#
#
#
# Elastic Compliance Matrix: (Units=1/GPa)
#
#
# Indices 1 2 3 4 5 6 
#
# 1 0.009395 0.002381 0.000300 0.000000 0.000000 0.000054
# 2 0.002381 0.009395 0.000300 0.000000 0.000000 -0.000054
# 3 0.000300 0.000300 0.016315 0.000000 0.000000 0.000000
# 4 0.000000 0.000000 0.000000 0.050900 0.000000 0.000000
# 5 0.000000 0.000000 0.000000 0.000000 0.050900 0.000000
# 6 0.000054 -0.000054 0.000000 0.000000 0.000000 0.030976
#
#
# Mechanical properties :
#
#
# Convention : Reuss Voigt Hill
#
# Bulk Modulus (GPa) = 24.35062 25.01100 24.68081
# Shear Modulus (GPa) = 28.47275 35.70532 32.08903
#
# Velocity S-wave (km/s) = 3.39133 3.79771 3.60026
# Velocity P-wave (km/s) = 5.01706 5.41599 5.22033
#
# Compressibility (1/GPa) = 0.04106671
#
# Stress axis : x y z
#
# Youngs Moduli (GPa) = 106.44362 106.44362 61.29272
#
# Poissons Ratio (x) = -0.25343 -0.01840
# Poissons Ratio (y) = -0.25343 -0.01840
# Poissons Ratio (z) = -0.03195 -0.03195
#
# Static dielectric constant tensor:
#      x y z
#    x 1.944760 0.000000 0.000000 
#    y 0.000000 1.944760 0.000000 
#    z 0.000000 0.000000 2.102640 
# 
# From -- ./inp_files/1165.got.cif
#   From: 2010.05.17/outbox.cif.g08.bks.cpg/sg85_cif.got.tgz:1165.got - 2010.06.03 19:01:16.
