data_PCOD9544892
_publ_section_title
;
Structure prediction by ZEFSAII (Michael W. Deem and Ramdas Pophale) SiO2 
 PCOD9544892
Probable space group: P 42/N
;
_chemical_formula_sum "Si O2"
_cell_formula_units_Z 48
_cell_length_a 15.359267
_cell_length_b 15.359267
_cell_length_c 10.867720
_cell_angle_alpha 90.000000
_cell_angle_beta 90.000000
_cell_angle_gamma 90.000000
_cell_volume 2563.772122
_symmetry_space_group_name_H-M "P 42/N"
_symmetry_group_IT_number 86
_space_group.IT_coordinate_system_code '2'
_symmetry_cell_setting 'tetragonal'
loop_
_space_group_symop_operation_xyz
x,y,z
-y,1/2+x,1/2+z
1/2-x,1/2-y,z
1/2+y,-x,1/2+z
-x,-y,-z
y,1/2-x,1/2-z
1/2+x,1/2+y,-z
1/2-y,x,1/2-z
loop_
_atom_site_type_symbol
_atom_site_label
_atom_site_fract_x
_atom_site_fract_y
_atom_site_fract_z
Si Si1 0.837101 0.193596 0.385511
Si Si2 0.568888 0.422995 0.979690
Si Si3 0.831464 0.100107 0.723940
Si Si4 0.247726 0.940025 0.891000
Si Si5 0.985408 0.276787 0.979398
Si Si6 0.610182 0.762424 0.230882
O O1 0.750000 0.250000 0.423736
O O2 0.870962 0.234300 0.260341
O O3 0.918237 0.210169 0.476484
O O4 0.811143 0.094340 0.395532
O O5 0.615191 0.430693 0.844464
O O6 0.500000 0.500000 0.000000
O O7 0.646046 0.426580 0.080353
O O8 0.525845 0.327530 0.988353
O O9 0.874656 0.191928 0.686542
O O10 0.822701 0.032822 0.610880
O O11 0.256264 0.032461 0.825671
O O12 0.071395 0.293132 0.900047
O O13 0.674650 0.834677 0.284482
#
# Coordination Sequence:
#
# PCOD9544892 Si02
#       6
#     8   8   8   8   8   8
#     4  10  18  33  57  90 127 160 180 238 319 376
#     4  11  22  37  59  89 125 163 199 258 313 364
#     4  10  22  36  57  94 125 158 198 245 319 383
#     4  10  20  34  58  86 121 153 203 246 297 370
#     4  11  22  36  61  90 118 160 204 250 311 370
#     4  11  24  43  63  82 118 169 217 257 296 366
#
# _framework density 18.722414000000001
#
# number of rings (size 3 to 8) (size 9 to 14) (size 15 to 20)
#    0.000    1.500    5.000    1.000    4.667    0.000 
#    0.000    6.667    0.000    0.000    0.000    9.333 
#    0.000    0.000    0.000    0.000    0.000    0.000 
#
# Total GULP energy -267453.195968 kJ/mol
# GULP energy per Si atom -5571.941583 kJ/mol
# Density = 1.867980 g / cm^3
# Si number density = 18.722414 Si / 1000 Ang^3
#
#
#
# Elastic Constant Matrix: (Units=GPa)
#
#
# Indices 1 2 3 4 5 6 
#
# 1 71.3540 27.9142 45.7319 0.0000 0.0000 1.7358
# 2 27.9142 71.3540 45.7319 0.0000 0.0000 -1.7358
# 3 45.7319 45.7319 103.4110 0.0000 0.0000 0.0000
# 4 0.0000 0.0000 0.0000 24.1661 0.0000 0.0000
# 5 0.0000 0.0000 0.0000 0.0000 24.1661 0.0000
# 6 1.7358 -1.7358 0.0000 0.0000 0.0000 26.8615
#
#
#
# Elastic Compliance Matrix: (Units=1/GPa)
#
#
# Indices 1 2 3 4 5 6 
#
# 1 0.020070 -0.003069 -0.007518 0.000000 0.000000 -0.001495
# 2 -0.003069 0.020070 -0.007518 0.000000 0.000000 0.001495
# 3 -0.007518 -0.007518 0.016320 0.000000 0.000000 0.000000
# 4 0.000000 0.000000 0.000000 0.041380 0.000000 0.000000
# 5 0.000000 0.000000 0.000000 0.000000 0.041380 0.000000
# 6 -0.001495 0.001495 0.000000 0.000000 0.000000 0.037421
#
#
# Mechanical properties :
#
#
# Convention : Reuss Voigt Hill
#
# Bulk Modulus (GPa) = 49.38685 53.87501 51.63093
# Shear Modulus (GPa) = 22.76816 23.48812 23.12814
#
# Velocity S-wave (km/s) = 3.49103 3.54580 3.51852
# Velocity P-wave (km/s) = 6.53341 6.75291 6.64407
#
# Compressibility (1/GPa) = 0.02024830
#
# Stress axis : x y z
#
# Youngs Moduli (GPa) = 49.82447 49.82447 61.27446
#
# Poissons Ratio (x) = 0.15293 0.46069
# Poissons Ratio (y) = 0.15293 0.46069
# Poissons Ratio (z) = 0.37460 0.37460
#
# Static dielectric constant tensor:
#      x y z
#    x 1.634500 0.000000 0.000000 
#    y 0.000000 1.634500 0.000000 
#    z 0.000000 0.000000 1.720920 
# 
# From -- ./inp_files/2288.got.cif
#   From: 2010.05.17/outbox.cif.g08.bks.cpg/sg86_2_cif.got.tgz:2288.got - 2010.06.03 19:03:11.
