data_PCOD9544704
_publ_section_title
;
Structure prediction by ZEFSAII (Michael W. Deem and Ramdas Pophale) SiO2 
 PCOD9544704
Probable space group: P 4/N
;
_chemical_formula_sum "Si O2"
_cell_formula_units_Z 40
_cell_length_a 10.105528
_cell_length_b 10.105528
_cell_length_c 21.959630
_cell_angle_alpha 90.000000
_cell_angle_beta 90.000000
_cell_angle_gamma 90.000000
_cell_volume 2242.554663
_symmetry_space_group_name_H-M "P 4/N"
_symmetry_group_IT_number 85
_symmetry_cell_setting 'tetragonal'
loop_
_space_group_symop_operation_xyz
x,y,z
1/2-y,x,z
1/2-x,1/2-y,z
y,1/2-x,z
-x,-y,-z
1/2+y,-x,-z
1/2+x,1/2+y,-z
-y,1/2+x,-z
loop_
_atom_site_type_symbol
_atom_site_label
_atom_site_fract_x
_atom_site_fract_y
_atom_site_fract_z
Si Si1 0.886891 0.400162 0.331336
Si Si2 0.046647 0.160502 0.159947
Si Si3 0.184616 0.621414 0.045842
Si Si4 0.611485 0.098397 0.475663
Si Si5 0.596245 0.391509 0.282826
O O1 0.866335 0.411956 0.403509
O O2 0.749081 0.423617 0.296063
O O3 0.928933 0.250745 0.314318
O O4 0.997848 0.502788 0.311398
O O5 0.184039 0.081879 0.166533
O O6 0.943936 0.121365 0.212334
O O7 0.984471 0.138717 0.093367
O O8 0.250000 0.750000 0.079654
O O9 0.081442 0.694840 0.000204
O O10 0.572560 0.249059 0.491316
O O11 0.500000 0.000000 0.500000
#
# Coordination Sequence:
#
# PCOD9544704 Si02
#       5
#     8   8   8   8   8
#     4  11  23  39  62  84 122 157 200 257 307 370
#     4  11  21  34  55  88 120 152 206 254 296 361
#     4   6  17  34  53  82 107 151 193 233 298 355
#     4  11  22  40  60  88 117 154 204 250 311 370
#     4  11  23  39  60  90 118 164 201 251 310 357
#
# _framework density 17.8368
#
# number of rings (size 3 to 8) (size 9 to 14) (size 15 to 20)
#    1.200    0.800    2.000    4.800    2.800    2.000 
#    0.000    4.000    0.000    0.000    0.000    0.000 
#    0.000    0.000    0.000    0.000    0.000    0.000 
#
# Total GULP energy -222824.206879 kJ/mol
# GULP energy per Si atom -5570.605172 kJ/mol
# Density = 1.779620 g / cm^3
# Si number density = 17.836800 Si / 1000 Ang^3
#
#
#
# Elastic Constant Matrix: (Units=GPa)
#
#
# Indices 1 2 3 4 5 6 
#
# 1 94.2994 67.6068 36.4774 0.0000 0.0000 7.0291
# 2 67.6068 94.2994 36.4774 0.0000 0.0000 -7.0291
# 3 36.4774 36.4774 131.2292 0.0000 0.0000 0.0000
# 4 0.0000 0.0000 0.0000 21.9018 0.0000 0.0000
# 5 0.0000 0.0000 0.0000 0.0000 21.9018 0.0000
# 6 7.0291 -7.0291 0.0000 0.0000 0.0000 32.9803
#
#
#
# Elastic Compliance Matrix: (Units=1/GPa)
#
#
# Indices 1 2 3 4 5 6 
#
# 1 0.024631 -0.017570 -0.001963 0.000000 0.000000 -0.008994
# 2 -0.017570 0.024631 -0.001963 0.000000 0.000000 0.008994
# 3 -0.001963 -0.001963 0.008711 0.000000 0.000000 0.000000
# 4 0.000000 0.000000 0.000000 0.045658 0.000000 0.000000
# 5 0.000000 0.000000 0.000000 0.000000 0.045658 0.000000
# 6 -0.008994 0.008994 0.000000 0.000000 0.000000 0.034155
#
#
# Mechanical properties :
#
#
# Convention : Reuss Voigt Hill
#
# Bulk Modulus (GPa) = 66.74550 66.77235 66.75892
# Shear Modulus (GPa) = 21.60494 27.30790 24.45642
#
# Velocity S-wave (km/s) = 3.48409 3.91703 3.70688
# Velocity P-wave (km/s) = 7.32711 7.61406 7.47196
#
# Compressibility (1/GPa) = 0.01498228
#
# Stress axis : x y z
#
# Youngs Moduli (GPa) = 40.59982 40.59982 114.79252
#
# Poissons Ratio (x) = 0.71333 0.22530
# Poissons Ratio (y) = 0.71333 0.22530
# Poissons Ratio (z) = 0.07968 0.07968
#
# Static dielectric constant tensor:
#      x y z
#    x 1.599920 0.000000 0.000000 
#    y 0.000000 1.599920 0.000000 
#    z 0.000000 0.000000 1.609370 
# 
# From -- ./inp_files/2375.got.cif
#   From: 2010.05.17/outbox.cif.g08.bks.cpg/sg85_cif.got.tgz:2375.got - 2010.06.03 19:01:16.
