data_PCOD9544154
_publ_section_title
;
Structure prediction by ZEFSAII (Michael W. Deem and Ramdas Pophale) SiO2 
 PCOD9544154
Probable space group: P 42/M
;
_chemical_formula_sum "Si O2"
_cell_formula_units_Z 52
_cell_length_a 18.892938
_cell_length_b 18.892938
_cell_length_c 7.597644
_cell_angle_alpha 90.000000
_cell_angle_beta 90.000000
_cell_angle_gamma 90.000000
_cell_volume 2711.926650
_symmetry_space_group_name_H-M "P 42/M"
_symmetry_group_IT_number 84
_symmetry_cell_setting 'tetragonal'
loop_
_space_group_symop_operation_xyz
x,y,z
-y,x,1/2+z
-x,-y,z
y,-x,1/2+z
-x,-y,-z
y,-x,1/2-z
x,y,-z
-y,x,1/2-z
loop_
_atom_site_type_symbol
_atom_site_label
_atom_site_fract_x
_atom_site_fract_y
_atom_site_fract_z
Si Si1 0.234935 0.708722 0.808433
Si Si2 0.846272 0.152555 0.702314
Si Si3 0.128845 0.585605 0.711694
Si Si4 0.019764 0.360026 0.712194
Si Si5 0.734053 0.656100 0.000000
Si Si6 0.171898 0.426354 0.286596
Si Si7 0.000378 0.197201 0.203977
O O1 0.197951 0.785853 0.794486
O O2 0.173767 0.650116 0.788301
O O3 0.290287 0.702578 0.652837
O O4 0.268394 0.701517 0.000000
O O5 0.820043 0.151990 0.500000
O O6 0.833869 0.074066 0.775355
O O7 0.928642 0.172188 0.705620
O O8 0.129778 0.593607 0.500000
O O9 0.161912 0.509585 0.750573
O O10 0.046788 0.592009 0.767160
O O11 0.018330 0.355447 0.500000
O O12 0.096647 0.389348 0.757793
O O13 0.007227 0.281585 0.783790
O O14 0.771051 0.607798 0.157617
O O15 0.184003 0.417699 0.500000
O O16 0.993923 0.175683 0.000000
#
# Coordination Sequence:
#
# PCOD9544154 Si02
#       7
#     8   8   8   8   4   8   8
#     4  12  24  40  64  89 124 171 215 255 311 372
#     4  11  23  41  58  82 114 159 213 281 331 375
#     4  10  20  40  64  93 130 167 211 258 310 379
#     4  10  20  36  59  87 122 169 209 255 320 382
#     4  12  24  42  61  92 129 166 212 254 305 376
#     4  10  23  40  63  94 131 170 204 260 315 371
#     4  11  24  37  57  82 113 155 217 273 330 377
#
# _framework density 19.17456
#
# number of rings (size 3 to 8) (size 9 to 14) (size 15 to 20)
#    0.000    1.231    3.077    2.769    4.308    5.846 
#    0.000    2.308    0.000    0.000    0.000    0.000 
#    0.000    1.846    0.000    0.000    0.000    0.000 
#
# Total GULP energy -289561.692240 kJ/mol
# GULP energy per Si atom -5568.494082 kJ/mol
# Density = 1.913092 g / cm^3
# Si number density = 19.174560 Si / 1000 Ang^3
#
#
#
# Elastic Constant Matrix: (Units=GPa)
#
#
# Indices 1 2 3 4 5 6 
#
# 1 9.3316 16.9666 5.1260 0.0000 0.0000 10.6471
# 2 16.9666 9.3316 5.1260 0.0000 0.0000 -10.6471
# 3 5.1260 5.1260 86.1468 0.0000 0.0000 0.0000
# 4 0.0000 0.0000 0.0000 23.8778 0.0000 0.0000
# 5 0.0000 0.0000 0.0000 0.0000 23.8778 0.0000
# 6 10.6471 -10.6471 0.0000 0.0000 0.0000 17.8050
#
#
#
# Elastic Compliance Matrix: (Units=1/GPa)
#
#
# Indices 1 2 3 4 5 6 
#
# 1 -0.005083 0.044012 -0.002316 0.000000 0.000000 0.029358
# 2 0.044012 -0.005083 -0.002316 0.000000 0.000000 -0.029358
# 3 -0.002316 -0.002316 0.011884 0.000000 0.000000 0.000000
# 4 0.000000 0.000000 0.000000 0.041880 0.000000 0.000000
# 5 0.000000 0.000000 0.000000 0.000000 0.041880 0.000000
# 6 0.029358 -0.029358 0.000000 0.000000 0.000000 0.021053
#
#
# Mechanical properties :
#
#
# Convention : Reuss Voigt Hill
#
# Bulk Modulus (GPa) = 12.42620 17.69415 15.06017
# Shear Modulus (GPa) = 91.58026 18.28488 54.93257
#
# Velocity S-wave (km/s) = 6.91845 3.09139 5.35825
# Velocity P-wave (km/s) = 8.38538 4.68938 6.79356
#
# Compressibility (1/GPa) = 0.08047514
#
# Stress axis : x y z
#
# Youngs Moduli (GPa) = -196.72650 -196.72650 84.14852
#
# Poissons Ratio (x) = 8.65826 0.19492
# Poissons Ratio (y) = 8.65826 0.19492
# Poissons Ratio (z) = -0.45569 -0.45569
#
# Static dielectric constant tensor:
#      x y z
#    x 1.649820 0.000000 0.000000 
#    y 0.000000 1.649820 0.000000 
#    z 0.000000 0.000000 1.702850 
# 
# From -- ./inp_files/1072.got.cif
#   From: 2010.05.17/outbox.cif.g08.bks.cpg/sg84_1_cif.got.tgz:1072.got - 2010.06.03 18:57:40.
