data_PCOD9544124
_publ_section_title
;
Structure prediction by ZEFSAII (Michael W. Deem and Ramdas Pophale) SiO2 
 PCOD9544124
Probable space group: P 42/M
;
_chemical_formula_sum "Si O2"
_cell_formula_units_Z 64
_cell_length_a 20.280438
_cell_length_b 20.280438
_cell_length_c 8.626702
_cell_angle_alpha 90.000000
_cell_angle_beta 90.000000
_cell_angle_gamma 90.000000
_cell_volume 3548.129453
_symmetry_space_group_name_H-M "P 42/M"
_symmetry_group_IT_number 84
_symmetry_cell_setting 'tetragonal'
loop_
_space_group_symop_operation_xyz
x,y,z
-y,x,1/2+z
-x,-y,z
y,-x,1/2+z
-x,-y,-z
y,-x,1/2-z
x,y,-z
-y,x,1/2-z
loop_
_atom_site_type_symbol
_atom_site_label
_atom_site_fract_x
_atom_site_fract_y
_atom_site_fract_z
Si Si1 0.789485 0.291647 0.314007
Si Si2 0.694540 0.411442 0.319783
Si Si3 0.935501 0.633343 0.185211
Si Si4 0.564632 0.430285 0.174756
Si Si5 0.795356 0.674644 0.315958
Si Si6 0.653245 0.926917 0.815645
Si Si7 0.538910 0.247797 0.323364
Si Si8 0.096909 0.511300 0.822263
O O1 0.788600 0.281614 0.500000
O O2 0.753404 0.361560 0.283006
O O3 0.743753 0.236315 0.237042
O O4 0.865177 0.301628 0.263936
O O5 0.677774 0.404478 0.500000
O O6 0.631501 0.394054 0.216575
O O7 0.715170 0.486518 0.284074
O O8 0.871216 0.665362 0.262805
O O9 0.939847 0.555431 0.231376
O O10 0.003600 0.666858 0.233953
O O11 0.926164 0.633994 0.000000
O O12 0.507599 0.419321 0.299626
O O13 0.542713 0.417686 0.000000
O O14 0.790837 0.667694 0.500000
O O15 0.756799 0.613576 0.235900
O O16 0.576999 0.909790 0.776905
O O17 0.660172 0.933925 0.000000
O O18 0.536427 0.273027 0.500000
O O19 0.512315 0.172677 0.325239
O O20 0.076925 0.526981 0.000000
#
# Coordination Sequence:
#
# PCOD9544124 Si02
#       8
#     8   8   8   8   8   8   8   8
#     4  10  23  40  56  78 113 147 180 226 281 329
#     4  11  22  37  55  76 101 135 177 221 274 330
#     4  10  21  37  56  79 110 148 184 225 276 329
#     4  11  23  40  57  73  93 121 165 224 284 340
#     4  11  23  38  58  81 107 143 188 231 272 327
#     4  11  21  34  54  82 111 144 183 227 273 324
#     4  10  20  35  54  75 105 140 177 222 272 325
#     4   9  18  32  50  74 106 143 179 217 265 319
#
# _framework density 18.037673999999999
#
# number of rings (size 3 to 8) (size 9 to 14) (size 15 to 20)
#    0.000    1.625    1.250    5.250    1.750    6.000 
#    0.000    0.000    0.000    0.000    0.000    0.000 
#    0.000    0.500    0.000    5.250    0.000    2.250 
#
# Total GULP energy -357620.772292 kJ/mol
# GULP energy per Si atom -5587.824567 kJ/mol
# Density = 1.799662 g / cm^3
# Si number density = 18.037674 Si / 1000 Ang^3
#
#
#
# Elastic Constant Matrix: (Units=GPa)
#
#
# Indices 1 2 3 4 5 6 
#
# 1 23.5527 82.4971 17.5173 0.0000 0.0000 17.1303
# 2 82.4971 23.5527 17.5173 0.0000 0.0000 -17.1303
# 3 17.5173 17.5173 54.5912 0.0000 0.0000 0.0000
# 4 0.0000 0.0000 0.0000 24.3931 0.0000 0.0000
# 5 0.0000 0.0000 0.0000 0.0000 24.3931 0.0000
# 6 17.1303 -17.1303 0.0000 0.0000 0.0000 20.3394
#
#
#
# Elastic Compliance Matrix: (Units=1/GPa)
#
#
# Indices 1 2 3 4 5 6 
#
# 1 -0.000421 0.010969 -0.003385 0.000000 0.000000 0.009593
# 2 0.010969 -0.000421 -0.003385 0.000000 0.000000 -0.009593
# 3 -0.003385 -0.003385 0.020490 0.000000 0.000000 0.000000
# 4 0.000000 0.000000 0.000000 0.040995 0.000000 0.000000
# 5 0.000000 0.000000 0.000000 0.000000 0.040995 0.000000
# 6 0.009593 -0.009593 0.000000 0.000000 0.000000 0.033008
#
#
# Mechanical properties :
#
#
# Convention : Reuss Voigt Hill
#
# Bulk Modulus (GPa) = 35.65422 37.41779 36.53600
# Shear Modulus (GPa) = 36.87420 12.76943 24.82182
#
# Velocity S-wave (km/s) = 4.52629 2.66358 3.71362
# Velocity P-wave (km/s) = 6.86482 5.49990 6.21991
#
# Compressibility (1/GPa) = 0.02804717
#
# Stress axis : x y z
#
# Youngs Moduli (GPa) = -2375.41726 -2375.41726 48.80415
#
# Poissons Ratio (x) = 26.05505 0.16518
# Poissons Ratio (y) = 26.05505 0.16518
# Poissons Ratio (z) = -8.03970 -8.03970
#
# Static dielectric constant tensor:
#      x y z
#    x 1.646880 0.000000 0.000000 
#    y 0.000000 1.646880 0.000000 
#    z 0.000000 0.000000 1.616560 
# 
# From -- ./inp_files/1357.got.cif
#   From: 2010.05.17/outbox.cif.g08.bks.cpg/sg84_1_cif.got.tgz:1357.got - 2010.06.03 18:57:40.
