data_PCOD9544835
_publ_section_title
;
Structure prediction by ZEFSAII (Michael W. Deem and Ramdas Pophale) SiO2 
 PCOD9544835
Probable space group: P 4/N
;
_chemical_formula_sum "Si O2"
_cell_formula_units_Z 28
_cell_length_a 9.514757
_cell_length_b 9.514757
_cell_length_c 14.801229
_cell_angle_alpha 90.000000
_cell_angle_beta 90.000000
_cell_angle_gamma 90.000000
_cell_volume 1339.964153
_symmetry_space_group_name_H-M "P 4/N"
_symmetry_group_IT_number 85
_symmetry_cell_setting 'tetragonal'
loop_
_space_group_symop_operation_xyz
x,y,z
1/2-y,x,z
1/2-x,1/2-y,z
y,1/2-x,z
-x,-y,-z
1/2+y,-x,-z
1/2+x,1/2+y,-z
-y,1/2+x,-z
loop_
_atom_site_type_symbol
_atom_site_label
_atom_site_fract_x
_atom_site_fract_y
_atom_site_fract_z
Si Si1 0.250000 0.750000 0.500000
Si Si2 0.422629 0.404541 0.225648
Si Si3 0.078131 0.414998 0.920603
Si Si4 0.571393 0.476853 0.403848
Si Si5 0.250000 0.250000 0.638507
O O1 0.134943 0.689303 0.431412
O O2 0.260762 0.441513 0.203883
O O3 0.524746 0.505550 0.169417
O O4 0.460193 0.421394 0.330836
O O5 0.058710 0.246122 0.924892
O O6 0.000000 0.500000 0.000000
O O7 0.500000 0.500000 0.500000
O O8 0.639893 0.617562 0.366740
#
# Coordination Sequence:
#
# PCOD9544835 Si02
#       5
#     2   8   8   8   2
#     4  12  24  44  68  92 132 190 232 276 352 404
#     4  11  27  46  69  99 137 181 231 281 338 404
#     4  11  26  47  75 106 141 176 221 277 337 404
#     4  12  26  43  67  98 137 181 231 288 341 404
#     4  12  28  40  68  96 140 170 244 284 344 404
#
# _framework density 20.896080999999999
#
# number of rings (size 3 to 8) (size 9 to 14) (size 15 to 20)
#    0.000    0.571    2.857    3.429    4.000    6.286 
#    0.000    0.000    0.000    0.000    0.000    0.000 
#    0.000    0.000    0.000    0.000    0.000    0.000 
#
# Total GULP energy -156038.383360 kJ/mol
# GULP energy per Si atom -5572.799406 kJ/mol
# Density = 2.084852 g / cm^3
# Si number density = 20.896081 Si / 1000 Ang^3
#
#
#
# Elastic Constant Matrix: (Units=GPa)
#
#
# Indices 1 2 3 4 5 6 
#
# 1 136.7295 85.0782 39.9765 0.0000 0.0000 8.8890
# 2 85.0782 136.7295 39.9765 0.0000 0.0000 -8.8890
# 3 39.9765 39.9765 114.7483 0.0000 0.0000 0.0000
# 4 0.0000 0.0000 0.0000 27.2850 0.0000 0.0000
# 5 0.0000 0.0000 0.0000 0.0000 27.2850 0.0000
# 6 8.8890 -8.8890 0.0000 0.0000 0.0000 39.3102
#
#
#
# Elastic Compliance Matrix: (Units=1/GPa)
#
#
# Indices 1 2 3 4 5 6 
#
# 1 0.013075 -0.007919 -0.001796 0.000000 0.000000 -0.004747
# 2 -0.007919 0.013075 -0.001796 0.000000 0.000000 0.004747
# 3 -0.001796 -0.001796 0.009966 0.000000 0.000000 0.000000
# 4 0.000000 0.000000 0.000000 0.036650 0.000000 0.000000
# 5 0.000000 0.000000 0.000000 0.000000 0.036650 0.000000
# 6 -0.004747 0.004747 0.000000 0.000000 0.000000 0.027586
#
#
# Mechanical properties :
#
#
# Convention : Reuss Voigt Hill
#
# Bulk Modulus (GPa) = 76.37595 79.80776 78.09185
# Shear Modulus (GPa) = 30.41534 33.65446 32.03490
#
# Velocity S-wave (km/s) = 3.81931 4.01754 3.91968
# Velocity P-wave (km/s) = 7.48861 7.73281 7.61169
#
# Compressibility (1/GPa) = 0.01309313
#
# Stress axis : x y z
#
# Youngs Moduli (GPa) = 76.48041 76.48041 100.33832
#
# Poissons Ratio (x) = 0.60568 0.18023
# Poissons Ratio (y) = 0.60568 0.18023
# Poissons Ratio (z) = 0.13738 0.13738
#
# Static dielectric constant tensor:
#      x y z
#    x 1.789020 0.000000 0.000000 
#    y 0.000000 1.789020 0.000000 
#    z 0.000000 0.000000 1.654290 
# 
# From -- ./inp_files/2053.got.cif
#   From: 2010.05.17/outbox.cif.g08.bks.cpg/sg85_cif.got.tgz:2053.got - 2010.06.03 19:01:16.
