data_PCOD9544517
_publ_section_title
;
Structure prediction by ZEFSAII (Michael W. Deem and Ramdas Pophale) SiO2 
 PCOD9544517
Probable space group: P 4/N
;
_chemical_formula_sum "Si O2"
_cell_formula_units_Z 40
_cell_length_a 15.726135
_cell_length_b 15.726135
_cell_length_c 7.398013
_cell_angle_alpha 90.000000
_cell_angle_beta 90.000000
_cell_angle_gamma 90.000000
_cell_volume 1829.612375
_symmetry_space_group_name_H-M "P 4/N"
_symmetry_group_IT_number 85
_symmetry_cell_setting 'tetragonal'
loop_
_space_group_symop_operation_xyz
x,y,z
1/2-y,x,z
1/2-x,1/2-y,z
y,1/2-x,z
-x,-y,-z
1/2+y,-x,-z
1/2+x,1/2+y,-z
-y,1/2+x,-z
loop_
_atom_site_type_symbol
_atom_site_label
_atom_site_fract_x
_atom_site_fract_y
_atom_site_fract_z
Si Si1 0.063896 0.356784 0.328917
Si Si2 0.474598 0.598845 0.342257
Si Si3 0.324375 0.869840 0.976271
Si Si4 0.993987 0.827516 0.740847
Si Si5 0.155704 0.147560 0.715642
O O1 0.126158 0.407740 0.197856
O O2 0.122674 0.334152 0.501411
O O3 0.989482 0.424835 0.372810
O O4 0.022006 0.272539 0.253661
O O5 0.413523 0.652579 0.211830
O O6 0.487052 0.646775 0.533112
O O7 0.568463 0.594619 0.249104
O O8 0.361741 0.776440 0.998137
O O9 0.357105 0.929806 0.135239
O O10 0.254527 0.133913 0.770916
#
# Coordination Sequence:
#
# PCOD9544517 Si02
#       5
#     8   8   8   8   8
#     4  11  21  41  67 102 126 181 223 271 344 398
#     4  11  24  41  69 100 132 180 227 270 350 405
#     4  11  26  46  67  99 139 179 228 285 336 403
#     4  11  24  43  69 100 137 175 230 282 340 416
#     4  10  19  36  65  97 131 171 215 274 331 401
#
# _framework density 21.862555
#
# number of rings (size 3 to 8) (size 9 to 14) (size 15 to 20)
#    0.000    1.200    6.000    2.400    2.800    2.800 
#    3.600    2.000    0.000    0.000    0.000    0.000 
#    0.000    0.000    0.000    0.000    0.000    0.000 
#
# Total GULP energy -223039.964545 kJ/mol
# GULP energy per Si atom -5575.999114 kJ/mol
# Density = 2.181280 g / cm^3
# Si number density = 21.862555 Si / 1000 Ang^3
#
#
#
# Elastic Constant Matrix: (Units=GPa)
#
#
# Indices 1 2 3 4 5 6 
#
# 1 117.0798 35.9883 13.2290 0.0000 0.0000 -10.8174
# 2 35.9883 117.0798 13.2290 0.0000 0.0000 10.8174
# 3 13.2290 13.2290 65.3895 0.0000 0.0000 0.0000
# 4 0.0000 0.0000 0.0000 6.4745 0.0000 0.0000
# 5 0.0000 0.0000 0.0000 0.0000 6.4745 0.0000
# 6 -10.8174 10.8174 0.0000 0.0000 0.0000 29.0293
#
#
#
# Elastic Compliance Matrix: (Units=1/GPa)
#
#
# Indices 1 2 3 4 5 6 
#
# 1 0.010231 -0.003462 -0.001370 0.000000 0.000000 0.005103
# 2 -0.003462 0.010231 -0.001370 0.000000 0.000000 -0.005103
# 3 -0.001370 -0.001370 0.015847 0.000000 0.000000 0.000000
# 4 0.000000 0.000000 0.000000 0.154453 0.000000 0.000000
# 5 0.000000 0.000000 0.000000 0.000000 0.154453 0.000000
# 6 0.005103 -0.005103 0.000000 0.000000 0.000000 0.038251
#
#
# Mechanical properties :
#
#
# Convention : Reuss Voigt Hill
#
# Bulk Modulus (GPa) = 41.82646 47.16018 44.49332
# Shear Modulus (GPa) = 12.38121 24.20250 18.29185
#
# Velocity S-wave (km/s) = 2.38233 3.33082 2.89567
# Velocity P-wave (km/s) = 5.17111 6.03411 5.61920
#
# Compressibility (1/GPa) = 0.02390831
#
# Stress axis : x y z
#
# Youngs Moduli (GPa) = 97.73796 97.73796 63.10287
#
# Poissons Ratio (x) = 0.33834 0.08643
# Poissons Ratio (y) = 0.33834 0.08643
# Poissons Ratio (z) = 0.13386 0.13386
#
# Static dielectric constant tensor:
#      x y z
#    x 1.819680 0.000000 0.000000 
#    y 0.000000 1.819680 0.000000 
#    z 0.000000 0.000000 1.810870 
# 
# From -- ./inp_files/940.got.cif
#   From: 2010.05.17/outbox.cif.g08.bks.cpg/sg85_cif.got.tgz:940.got - 2010.06.03 19:01:16.
