data_PCOD9544637
_publ_section_title
;
Structure prediction by ZEFSAII (Michael W. Deem and Ramdas Pophale) SiO2 
 PCOD9544637
Probable space group: P 4/N
;
_chemical_formula_sum "Si O2"
_cell_formula_units_Z 56
_cell_length_a 11.956480
_cell_length_b 11.956480
_cell_length_c 20.626411
_cell_angle_alpha 90.000000
_cell_angle_beta 90.000000
_cell_angle_gamma 90.000000
_cell_volume 2948.698376
_symmetry_space_group_name_H-M "P 4/N"
_symmetry_group_IT_number 85
_symmetry_cell_setting 'tetragonal'
loop_
_space_group_symop_operation_xyz
x,y,z
1/2-y,x,z
1/2-x,1/2-y,z
y,1/2-x,z
-x,-y,-z
1/2+y,-x,-z
1/2+x,1/2+y,-z
-y,1/2+x,-z
loop_
_atom_site_type_symbol
_atom_site_label
_atom_site_fract_x
_atom_site_fract_y
_atom_site_fract_z
Si Si1 0.929099 0.795376 0.500668
Si Si2 0.848828 0.339418 0.156152
Si Si3 0.881172 0.245353 0.597198
Si Si4 0.776548 0.569187 0.090159
Si Si5 0.245965 0.574587 0.024628
Si Si6 0.141235 0.939538 0.296345
Si Si7 0.870747 0.489459 0.639879
O O1 0.828371 0.881047 0.487026
O O2 0.956357 0.814699 0.576044
O O3 0.040127 0.808012 0.457641
O O4 0.750000 0.250000 0.170311
O O5 0.797615 0.453586 0.127255
O O6 0.923495 0.284441 0.098810
O O7 0.915495 0.369639 0.220717
O O8 0.750000 0.250000 0.577762
O O9 0.886682 0.170144 0.661394
O O10 0.917520 0.370568 0.615349
O O11 0.872703 0.658766 0.105461
O O12 0.777295 0.538559 0.013577
O O13 0.138796 0.654716 0.014452
O O14 0.065770 0.037456 0.326196
O O15 0.270342 0.966144 0.310887
#
# Coordination Sequence:
#
# PCOD9544637 Si02
#       7
#     8   8   8   8   8   8   8
#     4  11  23  40  65  88 120 163 205 261 323 379
#     4  11  21  40  65  89 127 168 220 250 311 374
#     4  10  24  39  62  94 123 154 207 264 314 369
#     4  10  22  39  63  96 132 164 204 260 320 370
#     4   9  16  36  61  93 121 160 203 258 299 360
#     4  11  25  42  62  89 126 169 202 262 303 386
#     4  11  23  42  62  89 125 162 212 252 318 371
#
# _framework density 18.991430999999999
#
# number of rings (size 3 to 8) (size 9 to 14) (size 15 to 20)
#    0.000    1.571    4.286    2.143    4.000    6.000 
#    2.571    0.000    0.000    1.714    0.000    0.000 
#    0.000    0.000    0.000    0.000    0.000    0.000 
#
# Total GULP energy -312699.594631 kJ/mol
# GULP energy per Si atom -5583.921333 kJ/mol
# Density = 1.894821 g / cm^3
# Si number density = 18.991431 Si / 1000 Ang^3
#
#
#
# Elastic Constant Matrix: (Units=GPa)
#
#
# Indices 1 2 3 4 5 6 
#
# 1 68.9803 24.2737 49.0735 0.0000 0.0000 -4.5731
# 2 24.2737 68.9803 49.0735 0.0000 0.0000 4.5731
# 3 49.0735 49.0735 140.5009 0.0000 0.0000 0.0000
# 4 0.0000 0.0000 0.0000 12.7063 0.0000 0.0000
# 5 0.0000 0.0000 0.0000 0.0000 12.7063 0.0000
# 6 -4.5731 4.5731 0.0000 0.0000 0.0000 6.6228
#
#
#
# Elastic Compliance Matrix: (Units=1/GPa)
#
#
# Indices 1 2 3 4 5 6 
#
# 1 0.021502 -0.004546 -0.005923 0.000000 0.000000 0.017986
# 2 -0.004546 0.021502 -0.005923 0.000000 0.000000 -0.017986
# 3 -0.005923 -0.005923 0.011255 0.000000 0.000000 0.000000
# 4 0.000000 0.000000 0.000000 0.078701 0.000000 0.000000
# 5 0.000000 0.000000 0.000000 0.000000 0.078701 0.000000
# 6 0.017986 -0.017986 0.000000 0.000000 0.000000 0.175833
#
#
# Mechanical properties :
#
#
# Convention : Reuss Voigt Hill
#
# Bulk Modulus (GPa) = 46.55970 58.14477 52.35224
# Shear Modulus (GPa) = 11.69769 16.80980 14.25375
#
# Velocity S-wave (km/s) = 2.48452 2.97833 2.74256
# Velocity P-wave (km/s) = 5.72711 6.51998 6.13636
#
# Compressibility (1/GPa) = 0.02147780
#
# Stress axis : x y z
#
# Youngs Moduli (GPa) = 46.50677 46.50677 88.85249
#
# Poissons Ratio (x) = 0.21140 0.52624
# Poissons Ratio (y) = 0.21140 0.52624
# Poissons Ratio (z) = 0.27544 0.27544
#
# Static dielectric constant tensor:
#      x y z
#    x 1.667260 0.000000 0.000000 
#    y 0.000000 1.667260 0.000000 
#    z 0.000000 0.000000 1.658570 
# 
# From -- ./inp_files/2248.got.cif
#   From: 2010.05.17/outbox.cif.g08.bks.cpg/sg85_cif.got.tgz:2248.got - 2010.06.03 19:01:16.
