data_PCOD9544692
_publ_section_title
;
Structure prediction by ZEFSAII (Michael W. Deem and Ramdas Pophale) SiO2 
 PCOD9544692
Probable space group: P 4/N
;
_chemical_formula_sum "Si O2"
_cell_formula_units_Z 56
_cell_length_a 14.732114
_cell_length_b 14.732114
_cell_length_c 12.392863
_cell_angle_alpha 90.000000
_cell_angle_beta 90.000000
_cell_angle_gamma 90.000000
_cell_volume 2689.687288
_symmetry_space_group_name_H-M "P 4/N"
_symmetry_group_IT_number 85
_symmetry_cell_setting 'tetragonal'
loop_
_space_group_symop_operation_xyz
x,y,z
1/2-y,x,z
1/2-x,1/2-y,z
y,1/2-x,z
-x,-y,-z
1/2+y,-x,-z
1/2+x,1/2+y,-z
-y,1/2+x,-z
loop_
_atom_site_type_symbol
_atom_site_label
_atom_site_fract_x
_atom_site_fract_y
_atom_site_fract_z
Si Si1 0.150413 0.364134 0.742463
Si Si2 0.995009 0.182449 0.141928
Si Si3 0.678164 0.139534 0.537891
Si Si4 0.492393 0.574696 0.409307
Si Si5 0.703284 0.350089 0.227725
Si Si6 0.387664 0.492698 0.202665
Si Si7 0.154203 0.521250 0.895429
O O1 0.127503 0.259200 0.742262
O O2 0.103556 0.413667 0.642959
O O3 0.123352 0.425424 0.844291
O O4 0.014019 0.278763 0.199835
O O5 0.062212 0.102903 0.182068
O O6 0.891139 0.154019 0.164324
O O7 0.999224 0.192066 0.013009
O O8 0.649601 0.214756 0.449737
O O9 0.656998 0.047198 0.479260
O O10 0.632625 0.169167 0.649403
O O11 0.500000 0.500000 0.500000
O O12 0.428179 0.537972 0.312337
O O13 0.750000 0.250000 0.222048
O O14 0.772026 0.424750 0.178864
O O15 0.416376 0.564364 0.109189
#
# Coordination Sequence:
#
# PCOD9544692 Si02
#       7
#     8   8   8   8   8   8   8
#     4  10  25  46  67  99 137 179 237 286 343 429
#     4  12  26  43  71  97 147 183 231 293 352 427
#     4  11  21  37  63  95 127 167 214 274 335 399
#     4  11  25  42  70  97 135 180 228 287 352 409
#     4  12  23  41  66 103 136 174 227 295 349 418
#     4  11  25  47  64 107 139 183 242 285 352 431
#     4  11  25  42  72 100 137 181 235 292 361 407
#
# _framework density 20.820264000000002
#
# number of rings (size 3 to 8) (size 9 to 14) (size 15 to 20)
#    0.000    0.857    2.857    4.714   10.000    0.286 
#    0.000    0.000    0.000    0.000    0.000    0.000 
#    0.000    0.000    0.000    0.000    0.000    0.000 
#
# Total GULP energy -312768.009518 kJ/mol
# GULP energy per Si atom -5585.143027 kJ/mol
# Density = 2.077288 g / cm^3
# Si number density = 20.820264 Si / 1000 Ang^3
#
#
#
# Elastic Constant Matrix: (Units=GPa)
#
#
# Indices 1 2 3 4 5 6 
#
# 1 79.8693 7.5383 -0.2212 0.0000 0.0000 4.0336
# 2 7.5383 79.8693 -0.2212 0.0000 0.0000 -4.0336
# 3 -0.2212 -0.2212 73.3331 0.0000 0.0000 0.0000
# 4 0.0000 0.0000 0.0000 18.6639 0.0000 0.0000
# 5 0.0000 0.0000 0.0000 0.0000 18.6639 0.0000
# 6 4.0336 -4.0336 0.0000 0.0000 0.0000 31.0845
#
#
#
# Elastic Compliance Matrix: (Units=1/GPa)
#
#
# Indices 1 2 3 4 5 6 
#
# 1 0.012735 -0.001294 0.000035 0.000000 0.000000 -0.001820
# 2 -0.001294 0.012735 0.000035 0.000000 0.000000 0.001820
# 3 0.000035 0.000035 0.013637 0.000000 0.000000 0.000000
# 4 0.000000 0.000000 0.000000 0.053580 0.000000 0.000000
# 5 0.000000 0.000000 0.000000 0.000000 0.053580 0.000000
# 6 -0.001820 0.001820 0.000000 0.000000 0.000000 0.032643
#
#
# Mechanical properties :
#
#
# Convention : Reuss Voigt Hill
#
# Bulk Modulus (GPa) = 27.28041 27.47370 27.37706
# Shear Modulus (GPa) = 25.82967 28.74751 27.28859
#
# Velocity S-wave (km/s) = 3.52604 3.71987 3.62425
# Velocity P-wave (km/s) = 5.45055 5.62799 5.53998
#
# Compressibility (1/GPa) = 0.03665634
#
# Stress axis : x y z
#
# Youngs Moduli (GPa) = 78.52629 78.52629 73.33198
#
# Poissons Ratio (x) = 0.10159 -0.00253
# Poissons Ratio (y) = 0.10159 -0.00253
# Poissons Ratio (z) = -0.00271 -0.00271
#
# Static dielectric constant tensor:
#      x y z
#    x 1.498380 0.000000 0.000000 
#    y 0.000000 1.498380 0.000000 
#    z 0.000000 0.000000 1.738340 
# 
# From -- ./inp_files/1733.got.cif
#   From: 2010.05.17/outbox.cif.g08.bks.cpg/sg85_cif.got.tgz:1733.got - 2010.06.03 19:01:16.
