data_PCOD9544869
_publ_section_title
;
Structure prediction by ZEFSAII (Michael W. Deem and Ramdas Pophale) SiO2 
 PCOD9544869
Probable space group: P 42/N
;
_chemical_formula_sum "Si O2"
_cell_formula_units_Z 54
_cell_length_a 12.353412
_cell_length_b 12.353412
_cell_length_c 19.024973
_cell_angle_alpha 90.000000
_cell_angle_beta 90.000000
_cell_angle_gamma 90.000000
_cell_volume 2903.340022
_symmetry_space_group_name_H-M "P 42/N"
_symmetry_group_IT_number 86
_space_group.IT_coordinate_system_code '2'
_symmetry_cell_setting 'tetragonal'
loop_
_space_group_symop_operation_xyz
x,y,z
-y,1/2+x,1/2+z
1/2-x,1/2-y,z
1/2+y,-x,1/2+z
-x,-y,-z
y,1/2-x,1/2-z
1/2+x,1/2+y,-z
1/2-y,x,1/2-z
loop_
_atom_site_type_symbol
_atom_site_label
_atom_site_fract_x
_atom_site_fract_y
_atom_site_fract_z
Si Si1 0.870863 0.226960 0.179664
Si Si2 0.525588 0.671687 0.032857
Si Si3 0.971684 0.732916 0.691051
Si Si4 0.954639 0.506817 0.615337
Si Si5 0.750000 0.750000 0.750000
Si Si6 0.345030 0.036174 0.054961
Si Si7 0.750000 0.750000 0.494270
Si Si8 0.081440 0.638387 0.959354
O O1 0.750000 0.250000 0.206221
O O2 0.881110 0.301966 0.110536
O O3 0.955656 0.259037 0.240056
O O4 0.906754 0.106554 0.153372
O O5 0.505045 0.577914 0.088993
O O6 0.529316 0.613849 0.955969
O O7 0.641788 0.724514 0.048012
O O8 0.443341 0.770737 0.019026
O O9 0.951931 0.610461 0.665882
O O10 0.853580 0.783466 0.705514
O O11 0.017484 0.800632 0.625553
O O12 0.276168 0.143612 0.039474
O O13 0.468517 0.077611 0.058478
O O14 0.338710 0.950862 0.991356
#
# Coordination Sequence:
#
# PCOD9544869 Si02
#       8
#     8   8   8   8   2   8   4   8
#     4  11  25  39  56  86 128 166 201 247 323 382
#     4   9  19  35  58  87 119 150 203 248 300 384
#     4  12  22  37  64  92 119 162 206 264 318 375
#     4  10  21  37  58  87 117 157 198 253 314 366
#     4  12  22  36  64  96 124 150 196 278 324 366
#     4  10  20  34  61  91 120 153 207 260 304 371
#     4  10  17  32  60  93 113 155 198 256 312 357
#     4   9  21  38  55  88 125 163 198 254 315 360
#
# _framework density 18.599267999999999
#
# number of rings (size 3 to 8) (size 9 to 14) (size 15 to 20)
#    0.000    1.778    2.963    1.333    4.148    2.370 
#    0.000    0.000    0.000    0.000    0.000    1.037 
#    0.000    0.000    0.000    0.000    0.000    0.000 
#
# Total GULP energy -301107.959127 kJ/mol
# GULP energy per Si atom -5576.073317 kJ/mol
# Density = 1.855693 g / cm^3
# Si number density = 18.599268 Si / 1000 Ang^3
#
#
#
# Elastic Constant Matrix: (Units=GPa)
#
#
# Indices 1 2 3 4 5 6 
#
# 1 70.0697 22.0200 29.3266 0.0000 0.0000 -2.2321
# 2 22.0200 70.0697 29.3266 0.0000 0.0000 2.2321
# 3 29.3266 29.3266 71.1734 0.0000 0.0000 0.0000
# 4 0.0000 0.0000 0.0000 20.7253 0.0000 0.0000
# 5 0.0000 0.0000 0.0000 0.0000 20.7253 0.0000
# 6 -2.2321 2.2321 0.0000 0.0000 0.0000 21.2696
#
#
#
# Elastic Compliance Matrix: (Units=1/GPa)
#
#
# Indices 1 2 3 4 5 6 
#
# 1 0.017870 -0.003147 -0.006066 0.000000 0.000000 0.002206
# 2 -0.003147 0.017870 -0.006066 0.000000 0.000000 -0.002206
# 3 -0.006066 -0.006066 0.019050 0.000000 0.000000 0.000000
# 4 0.000000 0.000000 0.000000 0.048250 0.000000 0.000000
# 5 0.000000 0.000000 0.000000 0.000000 0.048250 0.000000
# 6 0.002206 -0.002206 0.000000 0.000000 0.000000 0.047478
#
#
# Mechanical properties :
#
#
# Convention : Reuss Voigt Hill
#
# Bulk Modulus (GPa) = 41.27240 41.40660 41.33950
# Shear Modulus (GPa) = 21.06114 21.25333 21.15724
#
# Velocity S-wave (km/s) = 3.36871 3.38405 3.37639
# Velocity P-wave (km/s) = 6.11306 6.13024 6.12166
#
# Compressibility (1/GPa) = 0.02422927
#
# Stress axis : x y z
#
# Youngs Moduli (GPa) = 55.96053 55.96053 52.49482
#
# Poissons Ratio (x) = 0.17610 0.31846
# Poissons Ratio (y) = 0.17610 0.31846
# Poissons Ratio (z) = 0.33948 0.33948
#
# Static dielectric constant tensor:
#      x y z
#    x 1.678390 0.000000 0.000000 
#    y 0.000000 1.678390 0.000000 
#    z 0.000000 0.000000 1.632630 
# 
# From -- ./inp_files/4225.got.cif
#   From: 2010.05.17/outbox.cif.g08.bks.cpg/sg86_3_cif.got.tgz:4225.got - 2010.06.03 19:03:11.
