data_PCOD9544573
_publ_section_title
;
Structure prediction by ZEFSAII (Michael W. Deem and Ramdas Pophale) SiO2 
 PCOD9544573
Probable space group: P 4/N
;
_chemical_formula_sum "Si O2"
_cell_formula_units_Z 58
_cell_length_a 16.482783
_cell_length_b 16.482783
_cell_length_c 9.703891
_cell_angle_alpha 90.000000
_cell_angle_beta 90.000000
_cell_angle_gamma 90.000000
_cell_volume 2636.373829
_symmetry_space_group_name_H-M "P 4/N"
_symmetry_group_IT_number 85
_symmetry_cell_setting 'tetragonal'
loop_
_space_group_symop_operation_xyz
x,y,z
1/2-y,x,z
1/2-x,1/2-y,z
y,1/2-x,z
-x,-y,-z
1/2+y,-x,-z
1/2+x,1/2+y,-z
-y,1/2+x,-z
loop_
_atom_site_type_symbol
_atom_site_label
_atom_site_fract_x
_atom_site_fract_y
_atom_site_fract_z
Si Si1 0.011227 0.863612 0.004789
Si Si2 0.393981 0.482943 0.077519
Si Si3 0.115092 0.838038 0.740173
Si Si4 0.913225 0.670676 0.461106
Si Si5 0.013399 0.903895 0.488921
Si Si6 0.750000 0.750000 0.548470
Si Si7 0.434011 0.830074 0.661108
Si Si8 0.210971 0.993983 0.805673
O O1 0.078575 0.835766 0.894552
O O2 0.933692 0.894281 0.917476
O O3 0.999810 0.796698 0.119496
O O4 0.039181 0.945776 0.080318
O O5 0.338074 0.509566 0.203439
O O6 0.351088 0.490824 0.931035
O O7 0.047428 0.872937 0.634720
O O8 0.125500 0.745935 0.686399
O O9 0.187249 0.904424 0.746179
O O10 0.879925 0.577883 0.453319
O O11 0.845445 0.722105 0.536201
O O12 0.999122 0.679946 0.541252
O O13 0.937362 0.698421 0.308128
O O14 0.086162 0.889075 0.380450
O O15 0.000000 0.000000 0.500000
#
# Coordination Sequence:
#
# PCOD9544573 Si02
#       8
#     8   8   8   8   8   2   8   8
#     4  10  22  40  69  97 136 175 239 281 347 424
#     4  10  23  39  69  97 128 185 231 277 349 422
#     4  11  21  42  68 102 140 181 236 296 360 422
#     4  11  25  43  68 103 147 185 239 296 366 429
#     4  10  20  40  70 101 141 186 239 291 358 433
#     4  12  28  44  68 110 140 188 232 298 368 432
#     4  11  22  42  72 107 133 182 238 298 349 437
#     4  11  23  43  65 103 138 186 227 298 354 426
#
# _framework density 21.999915000000001
#
# number of rings (size 3 to 8) (size 9 to 14) (size 15 to 20)
#    0.000    1.379    4.138    2.483    5.793    1.103 
#    0.000    0.690    0.000    0.828    0.000    0.000 
#    0.000    0.000    0.000    0.000    0.000    0.000 
#
# Total GULP energy -323155.383115 kJ/mol
# GULP energy per Si atom -5571.644536 kJ/mol
# Density = 2.194984 g / cm^3
# Si number density = 21.999915 Si / 1000 Ang^3
#
#
#
# Elastic Constant Matrix: (Units=GPa)
#
#
# Indices 1 2 3 4 5 6 
#
# 1 77.6358 12.0147 -8.6358 0.0000 0.0000 -0.8632
# 2 12.0147 77.6358 -8.6358 0.0000 0.0000 0.8632
# 3 -8.6358 -8.6358 66.3563 0.0000 0.0000 0.0000
# 4 0.0000 0.0000 0.0000 26.8958 0.0000 0.0000
# 5 0.0000 0.0000 0.0000 0.0000 26.8958 0.0000
# 6 -0.8632 0.8632 0.0000 0.0000 0.0000 35.5517
#
#
#
# Elastic Compliance Matrix: (Units=1/GPa)
#
#
# Indices 1 2 3 4 5 6 
#
# 1 0.013345 -0.001904 0.001489 0.000000 0.000000 0.000370
# 2 -0.001904 0.013345 0.001489 0.000000 0.000000 -0.000370
# 3 0.001489 0.001489 0.015458 0.000000 0.000000 0.000000
# 4 0.000000 0.000000 0.000000 0.037180 0.000000 0.000000
# 5 0.000000 0.000000 0.000000 0.000000 0.037180 0.000000
# 6 0.000370 -0.000370 0.000000 0.000000 0.000000 0.028146
#
#
# Mechanical properties :
#
#
# Convention : Reuss Voigt Hill
#
# Bulk Modulus (GPa) = 22.57524 23.45712 23.01618
# Shear Modulus (GPa) = 31.79213 32.99433 32.39323
#
# Velocity S-wave (km/s) = 3.80557 3.87686 3.84138
# Velocity P-wave (km/s) = 5.44000 5.54306 5.49178
#
# Compressibility (1/GPa) = 0.04429632
#
# Stress axis : x y z
#
# Youngs Moduli (GPa) = 74.93433 74.93433 64.69258
#
# Poissons Ratio (x) = 0.14265 -0.09633
# Poissons Ratio (y) = 0.14265 -0.09633
# Poissons Ratio (z) = -0.11158 -0.11158
#
# Static dielectric constant tensor:
#      x y z
#    x 1.354380 0.000000 0.000000 
#    y 0.000000 1.354380 0.000000 
#    z 0.000000 0.000000 1.829700 
# 
# From -- ./inp_files/1184.got.cif
#   From: 2010.05.17/outbox.cif.g08.bks.cpg/sg85_cif.got.tgz:1184.got - 2010.06.03 19:01:16.
