data_PCOD9544965
_publ_section_title
;
Structure prediction by ZEFSAII (Michael W. Deem and Ramdas Pophale) SiO2 
 PCOD9544965
Probable space group: P 42/N
;
_chemical_formula_sum "Si O2"
_cell_formula_units_Z 36
_cell_length_a 7.866463
_cell_length_b 7.866463
_cell_length_c 27.640346
_cell_angle_alpha 90.000000
_cell_angle_beta 90.000000
_cell_angle_gamma 90.000000
_cell_volume 1710.418888
_symmetry_space_group_name_H-M "P 42/N"
_symmetry_group_IT_number 86
_space_group.IT_coordinate_system_code '2'
_symmetry_cell_setting 'tetragonal'
loop_
_space_group_symop_operation_xyz
x,y,z
-y,1/2+x,1/2+z
1/2-x,1/2-y,z
1/2+y,-x,1/2+z
-x,-y,-z
y,1/2-x,1/2-z
1/2+x,1/2+y,-z
1/2-y,x,1/2-z
loop_
_atom_site_type_symbol
_atom_site_label
_atom_site_fract_x
_atom_site_fract_y
_atom_site_fract_z
Si Si1 0.250000 0.750000 0.166459
Si Si2 0.750000 0.250000 0.666459
Si Si3 0.519767 0.344561 0.417198
Si Si4 0.344561 0.980232 0.417198
Si Si5 0.520069 0.155958 0.250000
Si Si6 0.250000 0.750000 0.000000
O O1 0.360692 0.867898 0.130907
O O2 0.361146 0.633068 0.202136
O O3 0.639308 0.132102 0.630907
O O4 0.638854 0.366932 0.702136
O O5 0.352351 0.457950 0.417347
O O6 0.636077 0.364537 0.464421
O O7 0.457950 0.147649 0.417347
O O8 0.364537 0.863923 0.464421
O O9 0.352557 0.042817 0.250000
#
# Coordination Sequence:
#
# PCOD9544965 Si02
#       6
#     4   4   8   8   8   4
#     4  10  20  32  54  80 104 134 176 218 252 306
#     4  10  20  32  54  80 104 134 176 218 252 306
#     4  10  20  35  55  78 106 141 177 214 262 316
#     4  10  20  35  55  78 106 141 177 214 262 316
#     4  10  20  36  58  80 104 138 176 214 262 316
#     4  10  20  34  56  82 108 134 176 226 264 302
#
# _framework density 21.047478000000002
#
# number of rings (size 3 to 8) (size 9 to 14) (size 15 to 20)
#    0.000    2.000    0.000    4.000    0.000    3.556 
#    0.000    0.000    0.000   97.333    0.000    0.000 
#    0.000    0.000    0.000    0.000    0.000    0.000 
#
# Total GULP energy -201164.390936 kJ/mol
# GULP energy per Si atom -5587.899748 kJ/mol
# Density = 2.099957 g / cm^3
# Si number density = 21.047478 Si / 1000 Ang^3
#
#
#
# Elastic Constant Matrix: (Units=GPa)
#
#
# Indices 1 2 3 4 5 6 
#
# 1 66.0088 -1.8420 29.4569 0.0000 0.0000 -4.7397
# 2 -1.8420 66.0088 29.4569 0.0000 0.0000 4.7397
# 3 29.4569 29.4569 162.5294 0.0000 0.0000 0.0000
# 4 0.0000 0.0000 0.0000 14.7515 0.0000 0.0000
# 5 0.0000 0.0000 0.0000 0.0000 14.7515 0.0000
# 6 -4.7397 4.7397 0.0000 0.0000 0.0000 12.9424
#
#
#
# Elastic Compliance Matrix: (Units=1/GPa)
#
#
# Indices 1 2 3 4 5 6 
#
# 1 0.017114 0.001581 -0.003388 0.000000 0.000000 0.005688
# 2 0.001581 0.017114 -0.003388 0.000000 0.000000 -0.005688
# 3 -0.003388 -0.003388 0.007381 0.000000 0.000000 0.000000
# 4 0.000000 0.000000 0.000000 0.067790 0.000000 0.000000
# 5 0.000000 0.000000 0.000000 0.000000 0.067790 0.000000
# 6 0.005688 -0.005688 0.000000 0.000000 0.000000 0.081432
#
#
# Mechanical properties :
#
#
# Convention : Reuss Voigt Hill
#
# Bulk Modulus (GPa) = 32.03256 45.41007 38.72131
# Shear Modulus (GPa) = 17.89435 24.32074 21.10755
#
# Velocity S-wave (km/s) = 2.91896 3.40298 3.17022
# Velocity P-wave (km/s) = 5.15875 6.08788 5.64247
#
# Compressibility (1/GPa) = 0.03121823
#
# Stress axis : x y z
#
# Youngs Moduli (GPa) = 58.43119 58.43119 135.48400
#
# Poissons Ratio (x) = -0.09239 0.45907
# Poissons Ratio (y) = -0.09239 0.45907
# Poissons Ratio (z) = 0.19799 0.19799
#
# Static dielectric constant tensor:
#      x y z
#    x 1.734320 0.000000 0.000000 
#    y 0.000000 1.734320 0.000000 
#    z 0.000000 0.000000 1.758620 
# 
# From -- ./inp_files/4776.got.cif
#   From: 2010.05.17/outbox.cif.g08.bks.cpg/sg86_3_cif.got.tgz:4776.got - 2010.06.03 19:03:11.
