data_PCOD9544209
_publ_section_title
;
Structure prediction by ZEFSAII (Michael W. Deem and Ramdas Pophale) SiO2 
 PCOD9544209
Probable space group: P 42/M
;
_chemical_formula_sum "Si O2"
_cell_formula_units_Z 40
_cell_length_a 12.209132
_cell_length_b 12.209132
_cell_length_c 13.489690
_cell_angle_alpha 90.000000
_cell_angle_beta 90.000000
_cell_angle_gamma 90.000000
_cell_volume 2010.812368
_symmetry_space_group_name_H-M "P 42/M"
_symmetry_group_IT_number 84
_symmetry_cell_setting 'tetragonal'
loop_
_space_group_symop_operation_xyz
x,y,z
-y,x,1/2+z
-x,-y,z
y,-x,1/2+z
-x,-y,-z
y,-x,1/2-z
x,y,-z
-y,x,1/2-z
loop_
_atom_site_type_symbol
_atom_site_label
_atom_site_fract_x
_atom_site_fract_y
_atom_site_fract_z
Si Si1 0.131615 0.013119 0.887734
Si Si2 0.776423 0.156365 0.271506
Si Si3 0.657616 0.753975 0.392197
Si Si4 0.469334 0.648000 0.800155
Si Si5 0.471628 0.875446 0.708029
O O1 0.162441 0.136260 0.858641
O O2 0.186569 0.938760 0.804106
O O3 0.164589 0.985846 0.000000
O O4 0.000000 0.000000 0.880957
O O5 0.776039 0.262334 0.200233
O O6 0.656934 0.131060 0.313743
O O7 0.707303 0.774920 0.500000
O O8 0.630217 0.624301 0.381810
O O9 0.552474 0.831156 0.376917
O O10 0.587544 0.589268 0.795875
O O11 0.486044 0.777689 0.788832
O O12 0.500000 0.000000 0.736305
#
# Coordination Sequence:
#
# PCOD9544209 Si02
#       5
#     8   8   8   8   8
#     4  11  22  37  61  89 114 155 208 248 295 354
#     4  11  20  40  61  85 126 158 196 255 307 348
#     4  10  21  36  59  88 117 157 201 244 298 362
#     4   8  16  35  58  78 106 149 197 245 295 342
#     4  10  21  34  56  83 119 157 189 234 302 363
#
# _framework density 19.892458999999999
#
# number of rings (size 3 to 8) (size 9 to 14) (size 15 to 20)
#    0.000    2.000    2.000    1.800    0.000    1.200 
#    0.000    8.000    0.000   54.600    0.000    0.000 
#    0.000    0.000    0.000    0.000    0.000    0.000 
#
# Total GULP energy -222700.474069 kJ/mol
# GULP energy per Si atom -5567.511852 kJ/mol
# Density = 1.984718 g / cm^3
# Si number density = 19.892459 Si / 1000 Ang^3
#
#
#
# Elastic Constant Matrix: (Units=GPa)
#
#
# Indices 1 2 3 4 5 6 
#
# 1 117.1958 20.3937 16.6567 0.0000 0.0000 -5.3299
# 2 20.3937 117.1958 16.6567 0.0000 0.0000 5.3299
# 3 16.6567 16.6567 39.6653 0.0000 0.0000 0.0000
# 4 0.0000 0.0000 0.0000 -2.8982 0.0000 0.0000
# 5 0.0000 0.0000 0.0000 0.0000 -2.8982 0.0000
# 6 -5.3299 5.3299 0.0000 0.0000 0.0000 31.4070
#
#
#
# Elastic Compliance Matrix: (Units=1/GPa)
#
#
# Indices 1 2 3 4 5 6 
#
# 1 0.009309 -0.001218 -0.003397 0.000000 0.000000 0.001786
# 2 -0.001218 0.009309 -0.003397 0.000000 0.000000 -0.001786
# 3 -0.003397 -0.003397 0.028064 0.000000 0.000000 0.000000
# 4 0.000000 0.000000 0.000000 -0.345039 0.000000 0.000000
# 5 0.000000 0.000000 0.000000 0.000000 -0.345039 0.000000
# 6 0.001786 -0.001786 0.000000 0.000000 0.000000 0.032446
#
#
# Mechanical properties :
#
#
# Convention : Reuss Voigt Hill
#
# Bulk Modulus (GPa) = 32.62043 42.38566 37.50304
# Shear Modulus (GPa) = -8.55133 19.81211 5.63039
#
# Velocity S-wave (km/s) = -2.07560 3.15931 1.68421
# Velocity P-wave (km/s) = 3.26953 5.88744 4.76192
#
# Compressibility (1/GPa) = 0.03065563
#
# Stress axis : x y z
#
# Youngs Moduli (GPa) = 107.42474 107.42474 35.63234
#
# Poissons Ratio (x) = 0.13087 0.12106
# Poissons Ratio (y) = 0.13087 0.12106
# Poissons Ratio (z) = 0.36497 0.36497
#
# Static dielectric constant tensor:
#      x y z
#    x 1.752580 0.000000 0.000000 
#    y 0.000000 1.752580 0.000000 
#    z 0.000000 0.000000 1.672980 
# 
# From -- ./inp_files/2888.got.cif
#   From: 2010.05.17/outbox.cif.g08.bks.cpg/sg84_2_cif.got.tgz:2888.got - 2010.06.03 18:57:40.
