data_PCOD9544220
_publ_section_title
;
Structure prediction by ZEFSAII (Michael W. Deem and Ramdas Pophale) SiO2 
 PCOD9544220
Probable space group: P 42/M
;
_chemical_formula_sum "Si O2"
_cell_formula_units_Z 40
_cell_length_a 15.145818
_cell_length_b 15.145818
_cell_length_c 7.546380
_cell_angle_alpha 90.000000
_cell_angle_beta 90.000000
_cell_angle_gamma 90.000000
_cell_volume 1731.107899
_symmetry_space_group_name_H-M "P 42/M"
_symmetry_group_IT_number 84
_symmetry_cell_setting 'tetragonal'
loop_
_space_group_symop_operation_xyz
x,y,z
-y,x,1/2+z
-x,-y,z
y,-x,1/2+z
-x,-y,-z
y,-x,1/2-z
x,y,-z
-y,x,1/2-z
loop_
_atom_site_type_symbol
_atom_site_label
_atom_site_fract_x
_atom_site_fract_y
_atom_site_fract_z
Si Si1 0.391466 0.791645 0.285101
Si Si2 0.600922 0.596309 0.798849
Si Si3 0.096559 0.748685 0.203694
Si Si4 0.900267 0.778700 0.293547
Si Si5 0.450600 0.090335 0.283373
O O1 0.390067 0.788749 0.500000
O O2 0.368972 0.692893 0.222767
O O3 0.319222 0.861028 0.223410
O O4 0.487332 0.827869 0.231998
O O5 0.613108 0.489744 0.801472
O O6 0.588771 0.627415 0.000000
O O7 0.157499 0.824857 0.283889
O O8 0.098569 0.649821 0.281263
O O9 0.995581 0.780258 0.205884
O O10 0.127001 0.739584 0.000000
O O11 0.914082 0.800759 0.500000
O O12 0.447619 0.086791 0.500000
O O13 0.500000 0.000000 0.227978
#
# Coordination Sequence:
#
# PCOD9544220 Si02
#       5
#     8   8   8   8   8
#     4  10  21  37  59  85 115 155 196 240 294 356
#     4  10  21  36  56  80 115 158 199 242 290 346
#     4  10  22  41  63  86 117 157 196 239 294 361
#     4  11  24  39  61  90 119 153 196 251 301 346
#     4   9  16  33  62  84 105 147 193 225 274 346
#
# _framework density 23.106589
#
# number of rings (size 3 to 8) (size 9 to 14) (size 15 to 20)
#    0.000    2.000    2.000    1.800    2.800    3.600 
#    0.000    4.000    0.000    0.000    0.000    0.000 
#    0.000    0.000    0.000    0.000    0.000    0.000 
#
# Total GULP energy -223552.739180 kJ/mol
# GULP energy per Si atom -5588.818480 kJ/mol
# Density = 2.305400 g / cm^3
# Si number density = 23.106589 Si / 1000 Ang^3
#
#
#
# Elastic Constant Matrix: (Units=GPa)
#
#
# Indices 1 2 3 4 5 6 
#
# 1 88.0839 31.1422 -8.5312 0.0000 0.0000 14.0308
# 2 31.1422 88.0839 -8.5312 0.0000 0.0000 -14.0308
# 3 -8.5312 -8.5312 62.1495 0.0000 0.0000 0.0000
# 4 0.0000 0.0000 0.0000 17.8346 0.0000 0.0000
# 5 0.0000 0.0000 0.0000 0.0000 17.8346 0.0000
# 6 14.0308 -14.0308 0.0000 0.0000 0.0000 38.6276
#
#
#
# Elastic Compliance Matrix: (Units=1/GPa)
#
#
# Indices 1 2 3 4 5 6 
#
# 1 0.014973 -0.006418 0.001174 0.000000 0.000000 -0.007770
# 2 -0.006418 0.014973 0.001174 0.000000 0.000000 0.007770
# 3 0.001174 0.001174 0.016413 0.000000 0.000000 0.000000
# 4 0.000000 0.000000 0.000000 0.056071 0.000000 0.000000
# 5 0.000000 0.000000 0.000000 0.000000 0.056071 0.000000
# 6 -0.007770 0.007770 0.000000 0.000000 0.000000 0.031533
#
#
# Mechanical properties :
#
#
# Convention : Reuss Voigt Hill
#
# Bulk Modulus (GPa) = 26.16343 29.60852 27.88598
# Shear Modulus (GPa) = 23.70664 29.80854 26.75759
#
# Velocity S-wave (km/s) = 3.20655 3.59562 3.40664
# Velocity P-wave (km/s) = 5.00568 5.48449 5.25055
#
# Compressibility (1/GPa) = 0.03822128
#
# Stress axis : x y z
#
# Youngs Moduli (GPa) = 66.78600 66.78600 60.92859
#
# Poissons Ratio (x) = 0.42861 -0.07155
# Poissons Ratio (y) = 0.42861 -0.07155
# Poissons Ratio (z) = -0.07843 -0.07843
#
# Static dielectric constant tensor:
#      x y z
#    x 1.849190 0.000000 0.000000 
#    y 0.000000 1.849190 0.000000 
#    z 0.000000 0.000000 1.728960 
# 
# From -- ./inp_files/745.got.cif
#   From: 2010.05.17/outbox.cif.g08.bks.cpg/sg84_1_cif.got.tgz:745.got - 2010.06.03 18:57:40.
