data_PCOD9544204
_publ_section_title
;
Structure prediction by ZEFSAII (Michael W. Deem and Ramdas Pophale) SiO2 
 PCOD9544204
Probable space group: P 42/M
;
_chemical_formula_sum "Si O2"
_cell_formula_units_Z 40
_cell_length_a 8.950352
_cell_length_b 8.950352
_cell_length_c 21.420735
_cell_angle_alpha 90.000000
_cell_angle_beta 90.000000
_cell_angle_gamma 90.000000
_cell_volume 1715.989396
_symmetry_space_group_name_H-M "P 42/M"
_symmetry_group_IT_number 84
_symmetry_cell_setting 'tetragonal'
loop_
_space_group_symop_operation_xyz
x,y,z
-y,x,1/2+z
-x,-y,z
y,-x,1/2+z
-x,-y,-z
y,-x,1/2-z
x,y,-z
-y,x,1/2-z
loop_
_atom_site_type_symbol
_atom_site_label
_atom_site_fract_x
_atom_site_fract_y
_atom_site_fract_z
Si Si1 0.222145 0.640601 0.200297
Si Si2 0.323108 0.976781 0.000000
Si Si3 0.410711 0.848805 0.122153
Si Si4 0.333615 0.321705 0.160774
Si Si5 0.819775 0.026937 0.361398
Si Si6 0.170349 0.942258 0.500000
O O1 0.310988 0.786572 0.177116
O O2 0.273423 0.491331 0.163115
O O3 0.272125 0.609349 0.270691
O O4 0.057270 0.702906 0.184570
O O5 0.304295 0.884679 0.063548
O O6 0.234478 0.131797 0.000000
O O7 0.500000 0.000000 0.000000
O O8 0.534331 0.719123 0.112939
O O9 0.500000 0.000000 0.137046
O O10 0.200434 0.207767 0.149112
O O11 0.767152 0.006173 0.433776
O O12 0.000000 0.000000 0.354091
O O13 0.000000 0.000000 0.500000
#
# Coordination Sequence:
#
# PCOD9544204 Si02
#       6
#     8   4   8   8   8   4
#     4  12  26  43  65  96 143 185 230 280 363 414
#     4  10  20  40  69 104 133 174 237 290 343 418
#     4  11  23  42  71  99 129 184 234 283 341 420
#     4  12  26  43  65  96 144 183 230 287 356 413
#     4  11  25  44  71 104 131 178 234 290 341 424
#     4  10  20  44  69  98 143 172 217 298 363 398
#
# _framework density 23.310165999999999
#
# number of rings (size 3 to 8) (size 9 to 14) (size 15 to 20)
#    0.000    0.800    2.000    7.200    5.600    0.000 
#    0.000    6.000    0.000    0.000    0.000    0.000 
#    0.000    0.000    0.000    0.000    0.000    0.000 
#
# Total GULP energy -223158.460596 kJ/mol
# GULP energy per Si atom -5578.961515 kJ/mol
# Density = 2.325711 g / cm^3
# Si number density = 23.310166 Si / 1000 Ang^3
#
#
#
# Elastic Constant Matrix: (Units=GPa)
#
#
# Indices 1 2 3 4 5 6 
#
# 1 94.2204 -4.2386 4.1996 0.0000 0.0000 3.2816
# 2 -4.2386 94.2204 4.1996 0.0000 0.0000 -3.2816
# 3 4.1996 4.1996 58.0313 0.0000 0.0000 0.0000
# 4 0.0000 0.0000 0.0000 15.5961 0.0000 0.0000
# 5 0.0000 0.0000 0.0000 0.0000 15.5961 0.0000
# 6 3.2816 -3.2816 0.0000 0.0000 0.0000 32.9738
#
#
#
# Elastic Compliance Matrix: (Units=1/GPa)
#
#
# Indices 1 2 3 4 5 6 
#
# 1 0.010707 0.000482 -0.000810 0.000000 0.000000 -0.001018
# 2 0.000482 0.010707 -0.000810 0.000000 0.000000 0.001018
# 3 -0.000810 -0.000810 0.017349 0.000000 0.000000 0.000000
# 4 0.000000 0.000000 0.000000 0.064118 0.000000 0.000000
# 5 0.000000 0.000000 0.000000 0.000000 0.064118 0.000000
# 6 -0.001018 0.001018 0.000000 0.000000 0.000000 0.030530
#
#
# Mechanical properties :
#
#
# Convention : Reuss Voigt Hill
#
# Bulk Modulus (GPa) = 27.40605 28.31036 27.85820
# Shear Modulus (GPa) = 23.58867 28.98732 26.28799
#
# Velocity S-wave (km/s) = 3.18456 3.53022 3.36184
# Velocity P-wave (km/s) = 5.03037 5.36545 5.20061
#
# Compressibility (1/GPa) = 0.03648830
#
# Stress axis : x y z
#
# Youngs Moduli (GPa) = 93.39998 93.39998 57.63926
#
# Poissons Ratio (x) = -0.04505 0.04667
# Poissons Ratio (y) = -0.04505 0.04667
# Poissons Ratio (z) = 0.07563 0.07563
#
# Static dielectric constant tensor:
#      x y z
#    x 2.086340 0.000000 0.000000 
#    y 0.000000 2.086340 0.000000 
#    z 0.000000 0.000000 2.116490 
# 
# From -- ./inp_files/4896.got.cif
#   From: 2010.05.17/outbox.cif.g08.bks.cpg/sg84_3_cif.got.tgz:4896.got - 2010.06.03 18:57:40.
