data_PCOD9544302
_publ_section_title
;
Structure prediction by ZEFSAII (Michael W. Deem and Ramdas Pophale) SiO2 
 PCOD9544302
Probable space group: P 42/M
;
_chemical_formula_sum "Si O2"
_cell_formula_units_Z 40
_cell_length_a 14.297452
_cell_length_b 14.297452
_cell_length_c 8.751377
_cell_angle_alpha 90.000000
_cell_angle_beta 90.000000
_cell_angle_gamma 90.000000
_cell_volume 1788.931402
_symmetry_space_group_name_H-M "P 42/M"
_symmetry_group_IT_number 84
_symmetry_cell_setting 'tetragonal'
loop_
_space_group_symop_operation_xyz
x,y,z
-y,x,1/2+z
-x,-y,z
y,-x,1/2+z
-x,-y,-z
y,-x,1/2-z
x,y,-z
-y,x,1/2-z
loop_
_atom_site_type_symbol
_atom_site_label
_atom_site_fract_x
_atom_site_fract_y
_atom_site_fract_z
Si Si1 0.232952 0.327729 0.821838
Si Si2 0.422332 0.606766 0.829184
Si Si3 0.989281 0.139416 0.178067
Si Si4 0.292413 0.124058 0.177323
Si Si5 0.491295 0.110166 0.319458
O O1 0.314442 0.349129 0.702996
O O2 0.225809 0.216025 0.811657
O O3 0.156133 0.407208 0.786212
O O4 0.260387 0.344042 0.000000
O O5 0.506366 0.619776 0.710028
O O6 0.459264 0.609490 0.000000
O O7 0.956127 0.243142 0.222644
O O8 0.069390 0.097252 0.286693
O O9 0.015996 0.134314 0.000000
O O10 0.398957 0.144752 0.229806
O O11 0.294229 0.096095 0.000000
O O12 0.473507 0.124858 0.500000
O O13 0.500000 0.000000 0.289757
#
# Coordination Sequence:
#
# PCOD9544302 Si02
#       5
#     8   8   8   8   8
#     4  10  22  40  61  88 125 166 214 266 322 390
#     4  11  21  34  55  82 114 152 198 252 314 375
#     4  11  23  42  68  99 134 173 220 279 340 405
#     4  11  24  41  65  99 135 178 224 278 340 405
#     4  10  23  43  66  93 128 177 225 276 340 405
#
# _framework density 22.359717
#
# number of rings (size 3 to 8) (size 9 to 14) (size 15 to 20)
#    0.000    1.400    0.000    6.600    2.800    6.000 
#    0.000    0.000    0.000    0.000    0.000    0.000 
#    0.000    0.000    0.000    0.000    0.000    0.000 
#
# Total GULP energy -223341.405092 kJ/mol
# GULP energy per Si atom -5583.535127 kJ/mol
# Density = 2.230882 g / cm^3
# Si number density = 22.359717 Si / 1000 Ang^3
#
#
#
# Elastic Constant Matrix: (Units=GPa)
#
#
# Indices 1 2 3 4 5 6 
#
# 1 -101.0449 159.7517 18.6829 0.0000 0.0000 87.0221
# 2 159.7517 -101.0449 18.6829 0.0000 0.0000 -87.0221
# 3 18.6829 18.6829 51.5081 0.0000 0.0000 0.0000
# 4 0.0000 0.0000 0.0000 26.0027 0.0000 0.0000
# 5 0.0000 0.0000 0.0000 0.0000 26.0027 0.0000
# 6 87.0221 -87.0221 0.0000 0.0000 0.0000 -11.9547
#
#
#
# Elastic Compliance Matrix: (Units=1/GPa)
#
#
# Indices 1 2 3 4 5 6 
#
# 1 0.011570 0.010576 -0.008033 0.000000 0.000000 0.007235
# 2 0.010576 0.011570 -0.008033 0.000000 0.000000 -0.007235
# 3 -0.008033 -0.008033 0.025242 0.000000 0.000000 0.000000
# 4 0.000000 0.000000 0.000000 0.038458 0.000000 0.000000
# 5 0.000000 0.000000 0.000000 0.000000 0.038458 0.000000
# 6 0.007235 -0.007235 0.000000 0.000000 0.000000 0.021683
#
#
# Mechanical properties :
#
#
# Convention : Reuss Voigt Hill
#
# Bulk Modulus (GPa) = 26.73566 27.07258 26.90412
# Shear Modulus (GPa) = 29.33807 -15.16981 7.08413
#
# Velocity S-wave (km/s) = 3.62621 -2.60752 1.78189
# Velocity P-wave (km/s) = 5.43283 1.75171 4.03634
#
# Compressibility (1/GPa) = 0.03740322
#
# Stress axis : x y z
#
# Youngs Moduli (GPa) = 86.42827 86.42827 39.61679
#
# Poissons Ratio (x) = -0.91410 0.31824
# Poissons Ratio (y) = -0.91410 0.31824
# Poissons Ratio (z) = 0.69428 0.69428
#
# Static dielectric constant tensor:
#      x y z
#    x 1.865830 0.000000 0.000000 
#    y 0.000000 1.865830 0.000000 
#    z 0.000000 0.000000 1.775650 
# 
# From -- ./inp_files/768.got.cif
#   From: 2010.05.17/outbox.cif.g08.bks.cpg/sg84_1_cif.got.tgz:768.got - 2010.06.03 18:57:40.
