data_PCOD9544300
_publ_section_title
;
Structure prediction by ZEFSAII (Michael W. Deem and Ramdas Pophale) SiO2 
 PCOD9544300
Probable space group: P 42/M
;
_chemical_formula_sum "Si O2"
_cell_formula_units_Z 48
_cell_length_a 8.725958
_cell_length_b 8.725958
_cell_length_c 30.891000
_cell_angle_alpha 90.000000
_cell_angle_beta 90.000000
_cell_angle_gamma 90.000000
_cell_volume 2352.113118
_symmetry_space_group_name_H-M "P 42/M"
_symmetry_group_IT_number 84
_symmetry_cell_setting 'tetragonal'
loop_
_space_group_symop_operation_xyz
x,y,z
-y,x,1/2+z
-x,-y,z
y,-x,1/2+z
-x,-y,-z
y,-x,1/2-z
x,y,-z
-y,x,1/2-z
loop_
_atom_site_type_symbol
_atom_site_label
_atom_site_fract_x
_atom_site_fract_y
_atom_site_fract_z
Si Si1 0.220860 0.643461 0.050154
Si Si2 0.742753 0.603911 0.296144
Si Si3 0.657420 0.267087 0.608732
Si Si4 0.594666 0.263207 0.702839
Si Si5 0.427804 0.835923 0.111047
Si Si6 0.080368 0.163548 0.047227
O O1 0.242757 0.490841 0.078630
O O2 0.310264 0.778918 0.074974
O O3 0.046559 0.702508 0.048919
O O4 0.270268 0.622208 0.000000
O O5 0.816399 0.630343 0.248746
O O6 0.586323 0.700997 0.299838
O O7 0.682740 0.427399 0.294703
O O8 0.840328 0.632407 0.339254
O O9 0.637333 0.195768 0.656353
O O10 0.699954 0.445398 0.612477
O O11 0.802944 0.194351 0.585432
O O12 0.500000 0.000000 0.100805
O O13 0.157288 0.171257 0.000000
O O14 0.000000 0.000000 0.050565
#
# Coordination Sequence:
#
# PCOD9544300 Si02
#       6
#     8   8   8   8   8   8
#     4  11  23  38  57  82 112 147 190 239 282 335
#     4   8  14  29  50  78 110 140 176 227 278 330
#     4  11  20  35  59  85 109 143 194 238 283 334
#     4   8  14  27  54  80 104 138 181 230 276 321
#     4  11  22  35  54  83 116 150 182 230 291 344
#     4  10  22  40  58  79 112 153 189 230 290 353
#
# _framework density 20.407181000000001
#
# number of rings (size 3 to 8) (size 9 to 14) (size 15 to 20)
#    0.000    2.167    1.667    3.500    0.000    3.667 
#    0.000    1.667    0.000    0.000    0.000    0.000 
#    0.000    0.000    0.000    0.000    0.000    0.000 
#
# Total GULP energy -267674.944443 kJ/mol
# GULP energy per Si atom -5576.561343 kJ/mol
# Density = 2.036073 g / cm^3
# Si number density = 20.407181 Si / 1000 Ang^3
#
#
#
# Elastic Constant Matrix: (Units=GPa)
#
#
# Indices 1 2 3 4 5 6 
#
# 1 33.0878 -3.5615 28.8822 0.0000 0.0000 -1.7780
# 2 -3.5615 33.0878 28.8822 0.0000 0.0000 1.7780
# 3 28.8822 28.8822 185.7302 0.0000 0.0000 0.0000
# 4 0.0000 0.0000 0.0000 182.8105 0.0000 0.0000
# 5 0.0000 0.0000 0.0000 0.0000 182.8105 0.0000
# 6 -1.7780 1.7780 0.0000 0.0000 0.0000 23.1922
#
#
#
# Elastic Compliance Matrix: (Units=1/GPa)
#
#
# Indices 1 2 3 4 5 6 
#
# 1 0.038084 0.010593 -0.007570 0.000000 0.000000 0.002108
# 2 0.010593 0.038084 -0.007570 0.000000 0.000000 -0.002108
# 3 -0.007570 -0.007570 0.007738 0.000000 0.000000 0.000000
# 4 0.000000 0.000000 0.000000 0.005470 0.000000 0.000000
# 5 0.000000 0.000000 0.000000 0.000000 0.005470 0.000000
# 6 0.002108 -0.002108 0.000000 0.000000 0.000000 0.043441
#
#
# Mechanical properties :
#
#
# Convention : Reuss Voigt Hill
#
# Bulk Modulus (GPa) = 13.36646 40.03465 26.70055
# Shear Modulus (GPa) = 29.01637 90.94282 59.97959
#
# Velocity S-wave (km/s) = 3.77486 6.68288 5.42727
# Velocity P-wave (km/s) = 5.05604 8.89991 7.23781
#
# Compressibility (1/GPa) = 0.07481414
#
# Stress axis : x y z
#
# Youngs Moduli (GPa) = 26.25802 26.25802 129.22576
#
# Poissons Ratio (x) = -0.27816 0.97819
# Poissons Ratio (y) = -0.27816 0.97819
# Poissons Ratio (z) = 0.19876 0.19876
#
# Static dielectric constant tensor:
#      x y z
#    x 1.729380 0.000000 0.000000 
#    y 0.000000 1.729380 0.000000 
#    z 0.000000 0.000000 1.785440 
# 
# From -- ./inp_files/5788.got.cif
#   From: 2010.05.17/outbox.cif.g08.bks.cpg/sg84_3_cif.got.tgz:5788.got - 2010.06.03 18:57:40.
