data_PCOD9544274
_publ_section_title
;
Structure prediction by ZEFSAII (Michael W. Deem and Ramdas Pophale) SiO2 
 PCOD9544274
Probable space group: P 42/M
;
_chemical_formula_sum "Si O2"
_cell_formula_units_Z 22
_cell_length_a 5.286643
_cell_length_b 5.286643
_cell_length_c 31.672140
_cell_angle_alpha 90.000000
_cell_angle_beta 90.000000
_cell_angle_gamma 90.000000
_cell_volume 885.191789
_symmetry_space_group_name_H-M "P 42/M"
_symmetry_group_IT_number 84
_symmetry_cell_setting 'tetragonal'
loop_
_space_group_symop_operation_xyz
x,y,z
-y,x,1/2+z
-x,-y,z
y,-x,1/2+z
-x,-y,-z
y,-x,1/2-z
x,y,-z
-y,x,1/2-z
loop_
_atom_site_type_symbol
_atom_site_label
_atom_site_fract_x
_atom_site_fract_y
_atom_site_fract_z
Si Si1 0.243673 0.667575 0.000000
Si Si2 0.000000 0.000000 0.250000
Si Si3 0.244699 0.333844 0.592482
Si Si4 0.675855 0.252288 0.816249
O O1 0.500000 0.500000 0.000000
O O2 0.226322 0.800036 0.954438
O O3 0.000000 0.500000 0.000000
O O4 0.880718 0.212497 0.219905
O O5 0.500000 0.500000 0.589983
O O6 0.265696 0.191031 0.637187
O O7 0.000000 0.500000 0.599010
O O8 0.500000 0.500000 0.811500
O O9 0.500000 0.000000 0.813983
#
# Coordination Sequence:
#
# PCOD9544274 Si02
#       4
#     4   2   8   8
#     4  10  21  42  70 104 142 188 234 290 360 441
#     4  12  28  44  76 110 144 200 264 308 392 450
#     4   9  19  43  69 101 141 186 236 295 362 435
#     4  10  25  47  73 105 148 191 248 311 375 446
#
# _framework density 24.853368
#
# number of rings (size 3 to 8) (size 9 to 14) (size 15 to 20)
#    0.000    2.182    0.000    0.545    5.091    0.000 
#   32.727    7.273    0.000    0.000    0.000    0.000 
#    0.000    0.000    0.000    0.000    0.000    0.000 
#
# Total GULP energy -122858.489095 kJ/mol
# GULP energy per Si atom -5584.476777 kJ/mol
# Density = 2.479680 g / cm^3
# Si number density = 24.853368 Si / 1000 Ang^3
#
#
#
# Elastic Constant Matrix: (Units=GPa)
#
#
# Indices 1 2 3 4 5 6 
#
# 1 120.6816 34.9472 42.8193 0.0000 0.0000 3.7400
# 2 34.9472 120.6816 42.8193 0.0000 0.0000 -3.7400
# 3 42.8193 42.8193 311.9449 0.0000 0.0000 0.0000
# 4 0.0000 0.0000 0.0000 82.0570 0.0000 0.0000
# 5 0.0000 0.0000 0.0000 0.0000 82.0570 0.0000
# 6 3.7400 -3.7400 0.0000 0.0000 0.0000 46.8279
#
#
#
# Elastic Compliance Matrix: (Units=1/GPa)
#
#
# Indices 1 2 3 4 5 6 
#
# 1 0.009348 -0.002398 -0.000954 0.000000 0.000000 -0.000938
# 2 -0.002398 0.009348 -0.000954 0.000000 0.000000 0.000938
# 3 -0.000954 -0.000954 0.003468 0.000000 0.000000 0.000000
# 4 0.000000 0.000000 0.000000 0.012187 0.000000 0.000000
# 5 0.000000 0.000000 0.000000 0.000000 0.012187 0.000000
# 6 -0.000938 0.000938 0.000000 0.000000 0.000000 0.021505
#
#
# Mechanical properties :
#
#
# Convention : Reuss Voigt Hill
#
# Bulk Modulus (GPa) = 73.78753 88.27553 81.03153
# Shear Modulus (GPa) = 61.59849 71.03656 66.31753
#
# Velocity S-wave (km/s) = 4.98383 5.35204 5.17121
# Velocity P-wave (km/s) = 7.92917 8.59000 8.26619
#
# Compressibility (1/GPa) = 0.01355243
#
# Stress axis : x y z
#
# Youngs Moduli (GPa) = 106.97298 106.97298 288.38246
#
# Poissons Ratio (x) = 0.25648 0.27514
# Poissons Ratio (y) = 0.25648 0.27514
# Poissons Ratio (z) = 0.10206 0.10206
#
# Static dielectric constant tensor:
#      x y z
#    x 2.059530 0.000000 0.000000 
#    y 0.000000 2.059530 0.000000 
#    z 0.000000 0.000000 -1.971580 
# 
# From -- ./inp_files/5524.got.cif
#   From: 2010.05.17/outbox.cif.g08.bks.cpg/sg84_3_cif.got.tgz:5524.got - 2010.06.03 18:57:40.
