data_PCOD9544727
_publ_section_title
;
Structure prediction by ZEFSAII (Michael W. Deem and Ramdas Pophale) SiO2 
 PCOD9544727
Probable space group: P 4/N
;
_chemical_formula_sum "Si O2"
_cell_formula_units_Z 64
_cell_length_a 11.469717
_cell_length_b 11.469717
_cell_length_c 24.723180
_cell_angle_alpha 90.000000
_cell_angle_beta 90.000000
_cell_angle_gamma 90.000000
_cell_volume 3252.443310
_symmetry_space_group_name_H-M "P 4/N"
_symmetry_group_IT_number 85
_symmetry_cell_setting 'tetragonal'
loop_
_space_group_symop_operation_xyz
x,y,z
1/2-y,x,z
1/2-x,1/2-y,z
y,1/2-x,z
-x,-y,-z
1/2+y,-x,-z
1/2+x,1/2+y,-z
-y,1/2+x,-z
loop_
_atom_site_type_symbol
_atom_site_label
_atom_site_fract_x
_atom_site_fract_y
_atom_site_fract_z
Si Si1 0.941072 0.785320 0.880053
Si Si2 0.726700 0.946144 0.508744
Si Si3 0.051959 0.246380 0.608855
Si Si4 0.784692 0.937883 0.103120
Si Si5 0.144416 0.659147 0.184266
Si Si6 0.944012 0.792305 0.628203
Si Si7 0.749488 0.439166 0.993690
Si Si8 0.364541 0.829264 0.306881
O O1 0.840242 0.881026 0.876432
O O2 0.034471 0.806166 0.833546
O O3 0.002529 0.791200 0.938549
O O4 0.626111 0.847511 0.508330
O O5 0.730141 0.007515 0.450563
O O6 0.709212 0.000742 0.567614
O O7 0.139819 0.136349 0.612260
O O8 0.958958 0.265077 0.655575
O O9 0.659503 0.881276 0.114377
O O10 0.806006 0.048918 0.140103
O O11 0.787872 0.971326 0.039900
O O12 0.250000 0.750000 0.181795
O O13 0.094844 0.657700 0.244914
O O14 0.835584 0.883483 0.633327
O O15 0.045031 0.828490 0.669051
O O16 0.852830 0.358575 0.017245
O O17 0.250000 0.750000 0.306363
#
# Coordination Sequence:
#
# PCOD9544727 Si02
#       8
#     8   8   8   8   8   8   8   8
#     4  11  25  43  67  99 127 162 215 265 311 374
#     4   7  12  30  59  88 118 156 199 249 312 376
#     4   9  19  39  65  90 122 164 209 256 316 379
#     4  11  25  43  67  99 127 162 215 265 311 374
#     4  11  26  46  65  85 127 173 208 261 323 372
#     4   9  19  39  65  90 122 164 209 256 316 379
#     4  11  22  37  66 102 136 169 201 248 322 380
#     4  11  26  42  59  91 127 163 212 264 312 366
#
# _framework density 19.677513000000001
#
# number of rings (size 3 to 8) (size 9 to 14) (size 15 to 20)
#    0.000    2.000    1.250    3.000    5.250    4.000 
#    2.250    4.375    0.000    0.000    0.000    0.000 
#    0.000    0.000    0.000    0.000    0.000    0.000 
#
# Total GULP energy -357246.632934 kJ/mol
# GULP energy per Si atom -5581.978640 kJ/mol
# Density = 1.963273 g / cm^3
# Si number density = 19.677513 Si / 1000 Ang^3
#
#
#
# Elastic Constant Matrix: (Units=GPa)
#
#
# Indices 1 2 3 4 5 6 
#
# 1 18.2245 23.4036 -1.3020 0.0000 0.0000 4.3782
# 2 23.4036 18.2245 -1.3020 0.0000 0.0000 -4.3782
# 3 -1.3020 -1.3020 52.2854 0.0000 0.0000 0.0000
# 4 0.0000 0.0000 0.0000 -21.4629 0.0000 0.0000
# 5 0.0000 0.0000 0.0000 0.0000 -21.4629 0.0000
# 6 4.3782 -4.3782 0.0000 0.0000 0.0000 -3.1454
#
#
#
# Elastic Compliance Matrix: (Units=1/GPa)
#
#
# Indices 1 2 3 4 5 6 
#
# 1 0.083362 -0.059302 0.000599 0.000000 0.000000 0.198582
# 2 -0.059302 0.083362 0.000599 0.000000 0.000000 -0.198582
# 3 0.000599 0.000599 0.019156 0.000000 0.000000 0.000000
# 4 0.000000 0.000000 0.000000 -0.046592 0.000000 0.000000
# 5 0.000000 0.000000 0.000000 0.000000 -0.046592 0.000000
# 6 0.198582 -0.198582 0.000000 0.000000 0.000000 0.234908
#
#
# Mechanical properties :
#
#
# Convention : Reuss Voigt Hill
#
# Bulk Modulus (GPa) = 14.35302 14.48148 14.41725
# Shear Modulus (GPa) = 10.70581 -4.68526 3.01028
#
# Velocity S-wave (km/s) = 2.33505 -1.54473 1.23820
# Velocity P-wave (km/s) = 3.81836 2.04788 3.06380
#
# Compressibility (1/GPa) = 0.06967174
#
# Stress axis : x y z
#
# Youngs Moduli (GPa) = 11.99584 11.99584 52.20392
#
# Poissons Ratio (x) = 0.71138 -0.03128
# Poissons Ratio (y) = 0.71138 -0.03128
# Poissons Ratio (z) = -0.00719 -0.00719
#
# Static dielectric constant tensor:
#      x y z
#    x 1.683380 0.000000 0.000000 
#    y 0.000000 1.683380 0.000000 
#    z 0.000000 0.000000 1.693740 
# 
# From -- ./inp_files/2358.got.cif
#   From: 2010.05.17/outbox.cif.g08.bks.cpg/sg85_cif.got.tgz:2358.got - 2010.06.03 19:01:16.
