data_PCOD9544671
_publ_section_title
;
Structure prediction by ZEFSAII (Michael W. Deem and Ramdas Pophale) SiO2 
 PCOD9544671
Probable space group: P 4/N
;
_chemical_formula_sum "Si O2"
_cell_formula_units_Z 34
_cell_length_a 11.467510
_cell_length_b 11.467510
_cell_length_c 12.525823
_cell_angle_alpha 90.000000
_cell_angle_beta 90.000000
_cell_angle_gamma 90.000000
_cell_volume 1647.193142
_symmetry_space_group_name_H-M "P 4/N"
_symmetry_group_IT_number 85
_symmetry_cell_setting 'tetragonal'
loop_
_space_group_symop_operation_xyz
x,y,z
1/2-y,x,z
1/2-x,1/2-y,z
y,1/2-x,z
-x,-y,-z
1/2+y,-x,-z
1/2+x,1/2+y,-z
-y,1/2+x,-z
loop_
_atom_site_type_symbol
_atom_site_label
_atom_site_fract_x
_atom_site_fract_y
_atom_site_fract_z
Si Si1 0.380518 0.982657 0.257487
Si Si2 0.432518 0.299154 0.031809
Si Si3 0.132362 0.914706 0.340673
Si Si4 0.388993 0.744441 0.142266
Si Si5 0.250000 0.750000 0.500000
O O1 0.326137 0.052681 0.156780
O O2 0.471279 0.050236 0.333826
O O3 0.266973 0.950068 0.324708
O O4 0.428153 0.867200 0.195720
O O5 0.329539 0.387061 0.002985
O O6 0.549236 0.305445 0.962980
O O7 0.091094 0.849152 0.234400
O O8 0.149074 0.816874 0.432045
O O9 0.250000 0.750000 0.127515
#
# Coordination Sequence:
#
# PCOD9544671 Si02
#       5
#     8   8   8   8   2
#     4  11  22  40  65  97 132 172 210 271 325 398
#     4  11  23  37  60  93 137 175 214 253 318 394
#     4  11  24  43  68  94 129 165 223 279 334 382
#     4  10  23  39  59  99 132 179 212 262 314 396
#     4  12  24  52  68  98 120 168 232 292 340 390
#
# _framework density 20.641172999999998
#
# number of rings (size 3 to 8) (size 9 to 14) (size 15 to 20)
#    0.000    1.176    5.882    1.412    6.588    3.294 
#    0.000    0.000    0.000    0.000    0.000    0.000 
#    0.000    0.000    0.000    0.000    0.000    0.000 
#
# Total GULP energy -189489.255801 kJ/mol
# GULP energy per Si atom -5573.213406 kJ/mol
# Density = 2.059419 g / cm^3
# Si number density = 20.641173 Si / 1000 Ang^3
#
#
#
# Elastic Constant Matrix: (Units=GPa)
#
#
# Indices 1 2 3 4 5 6 
#
# 1 51.0465 21.6595 7.1867 0.0000 0.0000 -12.5585
# 2 21.6595 51.0465 7.1867 0.0000 0.0000 12.5585
# 3 7.1867 7.1867 39.8782 0.0000 0.0000 0.0000
# 4 0.0000 0.0000 0.0000 14.3464 0.0000 0.0000
# 5 0.0000 0.0000 0.0000 0.0000 14.3464 0.0000
# 6 -12.5585 12.5585 0.0000 0.0000 0.0000 31.7899
#
#
#
# Elastic Compliance Matrix: (Units=1/GPa)
#
#
# Indices 1 2 3 4 5 6 
#
# 1 0.032819 -0.018557 -0.002570 0.000000 0.000000 0.020296
# 2 -0.018557 0.032819 -0.002570 0.000000 0.000000 -0.020296
# 3 -0.002570 -0.002570 0.026003 0.000000 0.000000 0.000000
# 4 0.000000 0.000000 0.000000 0.069704 0.000000 0.000000
# 5 0.000000 0.000000 0.000000 0.000000 0.069704 0.000000
# 6 0.020296 -0.020296 0.000000 0.000000 0.000000 0.047492
#
#
# Mechanical properties :
#
#
# Convention : Reuss Voigt Hill
#
# Bulk Modulus (GPa) = 22.60092 23.78188 23.19140
# Shear Modulus (GPa) = 14.67636 19.15907 16.91771
#
# Velocity S-wave (km/s) = 2.66940 3.04994 2.86599
# Velocity P-wave (km/s) = 4.52483 4.89381 4.71294
#
# Compressibility (1/GPa) = 0.04424598
#
# Stress axis : x y z
#
# Youngs Moduli (GPa) = 30.47030 30.47030 38.45741
#
# Poissons Ratio (x) = 0.56543 0.09885
# Poissons Ratio (y) = 0.56543 0.09885
# Poissons Ratio (z) = 0.07832 0.07832
#
# Static dielectric constant tensor:
#      x y z
#    x 1.798660 0.000000 0.000000 
#    y 0.000000 1.798660 0.000000 
#    z 0.000000 0.000000 1.772730 
# 
# From -- ./inp_files/1464.got.cif
#   From: 2010.05.17/outbox.cif.g08.bks.cpg/sg85_cif.got.tgz:1464.got - 2010.06.03 19:01:16.
