data_PCOD9544086
_publ_section_title
;
Structure prediction by ZEFSAII (Michael W. Deem and Ramdas Pophale) SiO2 
 PCOD9544086
Probable space group: P 42/M
;
_chemical_formula_sum "Si O2"
_cell_formula_units_Z 48
_cell_length_a 9.613236
_cell_length_b 9.613236
_cell_length_c 28.664510
_cell_angle_alpha 90.000000
_cell_angle_beta 90.000000
_cell_angle_gamma 90.000000
_cell_volume 2649.010810
_symmetry_space_group_name_H-M "P 42/M"
_symmetry_group_IT_number 84
_symmetry_cell_setting 'tetragonal'
loop_
_space_group_symop_operation_xyz
x,y,z
-y,x,1/2+z
-x,-y,z
y,-x,1/2+z
-x,-y,-z
y,-x,1/2-z
x,y,-z
-y,x,1/2-z
loop_
_atom_site_type_symbol
_atom_site_label
_atom_site_fract_x
_atom_site_fract_y
_atom_site_fract_z
Si Si1 0.759439 0.327170 0.845652
Si Si2 0.834616 0.531964 0.396947
Si Si3 0.287035 0.351728 0.856535
Si Si4 0.141210 0.409827 0.500000
Si Si5 0.659099 0.666934 0.753665
Si Si6 0.988549 0.657303 0.085175
Si Si7 0.146844 0.077017 0.500000
O O1 0.671101 0.206170 0.869646
O O2 0.690010 0.480489 0.854243
O O3 0.762494 0.305112 0.790237
O O4 0.905574 0.334687 0.871477
O O5 0.740522 0.413712 0.374159
O O6 0.790016 0.550801 0.450952
O O7 0.000000 0.500000 0.394615
O O8 0.262267 0.311645 0.802299
O O9 0.162268 0.323433 0.892239
O O10 0.122369 0.243319 0.500000
O O11 0.000000 0.500000 0.500000
O O12 0.681561 0.506772 0.737654
O O13 0.000000 0.500000 0.065864
O O14 0.031190 0.765646 0.045494
O O15 0.000000 0.000000 0.500000
#
# Coordination Sequence:
#
# PCOD9544086 Si02
#       7
#     8   8   8   4   8   8   4
#     4  10  19  39  59  85 122 159 194 247 298 348
#     4  11  22  38  60  87 118 152 200 254 292 347
#     4  10  21  37  59  89 121 157 198 242 299 356
#     4  10  24  41  60  87 119 149 204 247 295 352
#     4   9  16  31  58  85 116 155 197 238 294 351
#     4  10  23  40  62  88 122 156 200 246 292 361
#     4  12  25  41  67  84 118 168 194 236 311 361
#
# _framework density 18.119969999999999
#
# number of rings (size 3 to 8) (size 9 to 14) (size 15 to 20)
#    0.000    1.833    3.333    0.750    4.667    0.000 
#    3.000    2.500    0.000    0.000    0.000    0.000 
#    0.000    0.000    0.000    0.000    0.000    0.000 
#
# Total GULP energy -267642.781128 kJ/mol
# GULP energy per Si atom -5575.891274 kJ/mol
# Density = 1.807873 g / cm^3
# Si number density = 18.119970 Si / 1000 Ang^3
#
#
#
# Elastic Constant Matrix: (Units=GPa)
#
#
# Indices 1 2 3 4 5 6 
#
# 1 46.0470 18.6696 21.4928 0.0000 0.0000 1.0995
# 2 18.6696 46.0470 21.4928 0.0000 0.0000 -1.0995
# 3 21.4928 21.4928 122.2138 0.0000 0.0000 0.0000
# 4 0.0000 0.0000 0.0000 18.7792 0.0000 0.0000
# 5 0.0000 0.0000 0.0000 0.0000 18.7792 0.0000
# 6 1.0995 -1.0995 0.0000 0.0000 0.0000 21.7144
#
#
#
# Elastic Compliance Matrix: (Units=1/GPa)
#
#
# Indices 1 2 3 4 5 6 
#
# 1 0.027086 -0.009590 -0.003077 0.000000 0.000000 -0.001857
# 2 -0.009590 0.027086 -0.003077 0.000000 0.000000 0.001857
# 3 -0.003077 -0.003077 0.009265 0.000000 0.000000 0.000000
# 4 0.000000 0.000000 0.000000 0.053250 0.000000 0.000000
# 5 0.000000 0.000000 0.000000 0.000000 0.053250 0.000000
# 6 -0.001857 0.001857 0.000000 0.000000 0.000000 0.046240
#
#
# Mechanical properties :
#
#
# Convention : Reuss Voigt Hill
#
# Bulk Modulus (GPa) = 31.30033 37.51315 34.40674
# Shear Modulus (GPa) = 19.35629 22.03139 20.69384
#
# Velocity S-wave (km/s) = 3.27192 3.49071 3.38308
# Velocity P-wave (km/s) = 5.62009 6.08229 5.85575
#
# Compressibility (1/GPa) = 0.03194855
#
# Stress axis : x y z
#
# Youngs Moduli (GPa) = 36.91995 36.91995 107.93797
#
# Poissons Ratio (x) = 0.35406 0.33211
# Poissons Ratio (y) = 0.35406 0.33211
# Poissons Ratio (z) = 0.11360 0.11360
#
# Static dielectric constant tensor:
#      x y z
#    x 1.614990 0.000000 0.000000 
#    y 0.000000 1.614990 0.000000 
#    z 0.000000 0.000000 1.625470 
# 
# From -- ./inp_files/5856.got.cif
#   From: 2010.05.17/outbox.cif.g08.bks.cpg/sg84_3_cif.got.tgz:5856.got - 2010.06.03 18:57:40.
