data_PCOD9544134
_publ_section_title
;
Structure prediction by ZEFSAII (Michael W. Deem and Ramdas Pophale) SiO2 
 PCOD9544134
Probable space group: P 42/M
;
_chemical_formula_sum "Si O2"
_cell_formula_units_Z 40
_cell_length_a 14.784747
_cell_length_b 14.784747
_cell_length_c 9.661304
_cell_angle_alpha 90.000000
_cell_angle_beta 90.000000
_cell_angle_gamma 90.000000
_cell_volume 2111.852305
_symmetry_space_group_name_H-M "P 42/M"
_symmetry_group_IT_number 84
_symmetry_cell_setting 'tetragonal'
loop_
_space_group_symop_operation_xyz
x,y,z
-y,x,1/2+z
-x,-y,z
y,-x,1/2+z
-x,-y,-z
y,-x,1/2-z
x,y,-z
-y,x,1/2-z
loop_
_atom_site_type_symbol
_atom_site_label
_atom_site_fract_x
_atom_site_fract_y
_atom_site_fract_z
Si Si1 0.735749 0.609218 0.336529
Si Si2 0.426100 0.254086 0.335543
Si Si3 0.914637 0.306545 0.162082
Si Si4 0.095626 0.895734 0.257001
Si Si5 0.886962 0.704733 0.842399
O O1 0.755761 0.599980 0.500000
O O2 0.640013 0.660144 0.323898
O O3 0.735664 0.514525 0.256641
O O4 0.809696 0.671410 0.259645
O O5 0.447821 0.243194 0.500000
O O6 0.367572 0.167187 0.285050
O O7 0.898479 0.199108 0.177203
O O8 0.015347 0.326896 0.215088
O O9 0.919211 0.325323 0.000000
O O10 0.185964 0.892960 0.347979
O O11 0.993590 0.897053 0.319285
O O12 0.872504 0.671814 0.000000
#
# Coordination Sequence:
#
# PCOD9544134 Si02
#       5
#     8   8   8   8   8
#     4  11  24  42  64  88 116 150 189 243 301 349
#     4  10  22  42  64  85 114 152 192 238 296 356
#     4   9  18  35  58  83 120 165 200 231 280 346
#     4   9  17  30  52  87 127 162 197 238 280 330
#     4  10  20  35  58  89 122 160 201 236 281 342
#
# _framework density 18.940719999999999
#
# number of rings (size 3 to 8) (size 9 to 14) (size 15 to 20)
#    0.000    2.200    2.000    0.600    0.000    3.600 
#    0.000   14.000    0.000    0.000    0.000    0.000 
#    0.000    0.000    0.000    0.000    0.000    0.000 
#
# Total GULP energy -222672.872873 kJ/mol
# GULP energy per Si atom -5566.821822 kJ/mol
# Density = 1.889761 g / cm^3
# Si number density = 18.940720 Si / 1000 Ang^3
#
#
#
# Elastic Constant Matrix: (Units=GPa)
#
#
# Indices 1 2 3 4 5 6 
#
# 1 117.8914 52.0471 60.1102 0.0000 0.0000 0.4692
# 2 52.0471 117.8914 60.1102 0.0000 0.0000 -0.4692
# 3 60.1102 60.1102 83.6783 0.0000 0.0000 0.0000
# 4 0.0000 0.0000 0.0000 -2.6518 0.0000 0.0000
# 5 0.0000 0.0000 0.0000 0.0000 -2.6518 0.0000
# 6 0.4692 -0.4692 0.0000 0.0000 0.0000 8.3636
#
#
#
# Elastic Compliance Matrix: (Units=1/GPa)
#
#
# Indices 1 2 3 4 5 6 
#
# 1 0.013582 -0.001617 -0.008595 0.000000 0.000000 -0.000853
# 2 -0.001617 0.013582 -0.008595 0.000000 0.000000 0.000853
# 3 -0.008595 -0.008595 0.024299 0.000000 0.000000 0.000000
# 4 0.000000 0.000000 0.000000 -0.377099 0.000000 0.000000
# 5 0.000000 0.000000 0.000000 0.000000 -0.377099 0.000000
# 6 -0.000853 0.000853 0.000000 0.000000 0.000000 0.119662
#
#
# Mechanical properties :
#
#
# Convention : Reuss Voigt Hill
#
# Bulk Modulus (GPa) = 72.20839 73.77735 72.99287
# Shear Modulus (GPa) = -9.24485 10.42490 0.59002
#
# Velocity S-wave (km/s) = -2.21168 2.34860 0.55874
# Velocity P-wave (km/s) = 5.62886 6.81108 6.24800
#
# Compressibility (1/GPa) = 0.01384881
#
# Stress axis : x y z
#
# Youngs Moduli (GPa) = 73.62600 73.62600 41.15418
#
# Poissons Ratio (x) = 0.11908 0.35372
# Poissons Ratio (y) = 0.11908 0.35372
# Poissons Ratio (z) = 0.63281 0.63281
#
# Static dielectric constant tensor:
#      x y z
#    x 1.679290 0.000000 0.000000 
#    y 0.000000 1.679290 0.000000 
#    z 0.000000 0.000000 1.638760 
# 
# From -- ./inp_files/779.got.cif
#   From: 2010.05.17/outbox.cif.g08.bks.cpg/sg84_1_cif.got.tgz:779.got - 2010.06.03 18:57:40.
