data_PCOD9544118
_publ_section_title
;
Structure prediction by ZEFSAII (Michael W. Deem and Ramdas Pophale) SiO2 
 PCOD9544118
Probable space group: P 42/M
;
_chemical_formula_sum "Si O2"
_cell_formula_units_Z 40
_cell_length_a 8.693422
_cell_length_b 8.693422
_cell_length_c 26.498720
_cell_angle_alpha 90.000000
_cell_angle_beta 90.000000
_cell_angle_gamma 90.000000
_cell_volume 2002.656294
_symmetry_space_group_name_H-M "P 42/M"
_symmetry_group_IT_number 84
_symmetry_cell_setting 'tetragonal'
loop_
_space_group_symop_operation_xyz
x,y,z
-y,x,1/2+z
-x,-y,z
y,-x,1/2+z
-x,-y,-z
y,-x,1/2-z
x,y,-z
-y,x,1/2-z
loop_
_atom_site_type_symbol
_atom_site_label
_atom_site_fract_x
_atom_site_fract_y
_atom_site_fract_z
Si Si1 0.178398 0.949267 0.945877
Si Si2 0.113834 0.860279 0.653598
Si Si3 0.353403 0.085372 0.601297
Si Si4 0.567681 0.840645 0.777694
Si Si5 0.387251 0.358209 0.678516
O O1 0.163588 0.767893 0.936358
O O2 0.226816 0.035096 0.894502
O O3 0.252637 0.985751 0.000000
O O4 0.000000 0.000000 0.948898
O O5 0.144846 0.734027 0.696055
O O6 0.261403 0.953733 0.632985
O O7 0.000000 0.000000 0.670089
O O8 0.399685 0.222870 0.638470
O O9 0.500000 0.000000 0.578259
O O10 0.579567 0.720931 0.732185
O O11 0.440371 0.778099 0.817028
O O12 0.500000 0.000000 0.757820
O O13 0.500000 0.500000 0.668438
#
# Coordination Sequence:
#
# PCOD9544118 Si02
#       5
#     8   8   8   8   8
#     4   8  16  35  59  86 117 143 183 241 303 353
#     4   9  20  39  57  86 113 149 195 241 294 342
#     4  10  20  34  58  86 112 149 195 245 282 337
#     4  12  23  38  57  82 118 157 203 239 293 352
#     4  12  24  40  54  79 120 166 198 232 298 363
#
# _framework density 19.973469999999999
#
# number of rings (size 3 to 8) (size 9 to 14) (size 15 to 20)
#    0.000    2.200    2.000    4.200    2.800    0.400 
#    0.000    1.000    0.000    6.000    0.000    0.000 
#    0.000    0.800    0.000    0.000    0.000    0.000 
#
# Total GULP energy -223041.592524 kJ/mol
# GULP energy per Si atom -5576.039813 kJ/mol
# Density = 1.992801 g / cm^3
# Si number density = 19.973470 Si / 1000 Ang^3
#
#
#
# Elastic Constant Matrix: (Units=GPa)
#
#
# Indices 1 2 3 4 5 6 
#
# 1 74.7713 31.9625 19.7855 0.0000 0.0000 5.3048
# 2 31.9625 74.7713 19.7855 0.0000 0.0000 -5.3048
# 3 19.7855 19.7855 73.7262 0.0000 0.0000 0.0000
# 4 0.0000 0.0000 0.0000 39.7253 0.0000 0.0000
# 5 0.0000 0.0000 0.0000 0.0000 39.7253 0.0000
# 6 5.3048 -5.3048 0.0000 0.0000 0.0000 31.4171
#
#
#
# Elastic Compliance Matrix: (Units=1/GPa)
#
#
# Indices 1 2 3 4 5 6 
#
# 1 0.017392 -0.006988 -0.002792 0.000000 0.000000 -0.004117
# 2 -0.006988 0.017392 -0.002792 0.000000 0.000000 0.004117
# 3 -0.002792 -0.002792 0.015062 0.000000 0.000000 0.000000
# 4 0.000000 0.000000 0.000000 0.025173 0.000000 0.000000
# 5 0.000000 0.000000 0.000000 0.000000 0.025173 0.000000
# 6 -0.004117 0.004117 0.000000 0.000000 0.000000 0.033220
#
#
# Mechanical properties :
#
#
# Convention : Reuss Voigt Hill
#
# Bulk Modulus (GPa) = 40.48200 40.70395 40.59298
# Shear Modulus (GPa) = 29.97772 32.28923 31.13348
#
# Velocity S-wave (km/s) = 3.87832 4.02507 3.95237
# Velocity P-wave (km/s) = 6.35350 6.48265 6.41840
#
# Compressibility (1/GPa) = 0.02470233
#
# Stress axis : x y z
#
# Youngs Moduli (GPa) = 57.49735 57.49735 66.39081
#
# Poissons Ratio (x) = 0.40178 0.18537
# Poissons Ratio (y) = 0.40178 0.18537
# Poissons Ratio (z) = 0.16054 0.16054
#
# Static dielectric constant tensor:
#      x y z
#    x 1.752550 0.000000 0.000000 
#    y 0.000000 1.752550 0.000000 
#    z 0.000000 0.000000 1.763050 
# 
# From -- ./inp_files/5305.got.cif
#   From: 2010.05.17/outbox.cif.g08.bks.cpg/sg84_3_cif.got.tgz:5305.got - 2010.06.03 18:57:40.
