data_PCOD9544583
_publ_section_title
;
Structure prediction by ZEFSAII (Michael W. Deem and Ramdas Pophale) SiO2 
 PCOD9544583
Probable space group: P 4/N
;
_chemical_formula_sum "Si O2"
_cell_formula_units_Z 56
_cell_length_a 18.966446
_cell_length_b 18.966446
_cell_length_c 8.103505
_cell_angle_alpha 90.000000
_cell_angle_beta 90.000000
_cell_angle_gamma 90.000000
_cell_volume 2915.042038
_symmetry_space_group_name_H-M "P 4/N"
_symmetry_group_IT_number 85
_symmetry_cell_setting 'tetragonal'
loop_
_space_group_symop_operation_xyz
x,y,z
1/2-y,x,z
1/2-x,1/2-y,z
y,1/2-x,z
-x,-y,-z
1/2+y,-x,-z
1/2+x,1/2+y,-z
-y,1/2+x,-z
loop_
_atom_site_type_symbol
_atom_site_label
_atom_site_fract_x
_atom_site_fract_y
_atom_site_fract_z
Si Si1 0.066703 0.469471 0.169893
Si Si2 0.481657 0.881129 0.067850
Si Si3 0.761552 0.099469 0.858393
Si Si4 0.320628 0.003349 0.384393
Si Si5 0.199994 0.629515 0.789215
Si Si6 0.929493 0.432224 0.377228
Si Si7 0.800813 0.030528 0.398953
O O1 0.139544 0.446183 0.255786
O O2 0.067786 0.551636 0.114259
O O3 0.997969 0.462843 0.288855
O O4 0.047660 0.419027 0.017868
O O5 0.498431 0.839835 0.236529
O O6 0.447580 0.825106 0.939401
O O7 0.715542 0.055870 0.730261
O O8 0.920577 0.133469 0.751807
O O9 0.720519 0.123749 0.020509
O O10 0.388981 0.976465 0.484122
O O11 0.258979 0.018360 0.516258
O O12 0.261107 0.600768 0.670266
O O13 0.167552 0.706580 0.766911
O O14 0.951065 0.359262 0.465375
#
# Coordination Sequence:
#
# PCOD9544583 Si02
#       7
#     8   8   8   8   8   8   8
#     4  11  21  36  63  87 110 160 218 250 329 353
#     4  10  21  36  59  82 116 159 196 274 298 359
#     4  11  21  40  53  80 122 163 213 241 290 355
#     4  11  22  34  60  84 114 161 205 251 302 367
#     4  10  22  35  54  73 114 174 198 245 288 345
#     4  11  21  39  55  82 118 160 200 268 299 352
#     4  10  21  38  54  79 122 156 202 254 308 345
#
# _framework density 19.210699000000002
#
# number of rings (size 3 to 8) (size 9 to 14) (size 15 to 20)
#    0.000    1.429    4.286    1.286    4.000    0.286 
#    0.000    0.000    0.000    0.000    0.000    0.000 
#    0.000    9.143   42.286    0.000    0.000    0.000 
#
# Total GULP energy -312140.639828 kJ/mol
# GULP energy per Si atom -5573.939997 kJ/mol
# Density = 1.916698 g / cm^3
# Si number density = 19.210699 Si / 1000 Ang^3
#
#
#
# Elastic Constant Matrix: (Units=GPa)
#
#
# Indices 1 2 3 4 5 6 
#
# 1 55.7560 29.4144 31.8118 0.0000 0.0000 4.6740
# 2 29.4144 55.7560 31.8118 0.0000 0.0000 -4.6740
# 3 31.8118 31.8118 94.6269 0.0000 0.0000 0.0000
# 4 0.0000 0.0000 0.0000 39.5821 0.0000 0.0000
# 5 0.0000 0.0000 0.0000 0.0000 39.5821 0.0000
# 6 4.6740 -4.6740 0.0000 0.0000 0.0000 23.2053
#
#
#
# Elastic Compliance Matrix: (Units=1/GPa)
#
#
# Indices 1 2 3 4 5 6 
#
# 1 0.028282 -0.012603 -0.005271 0.000000 0.000000 -0.008235
# 2 -0.012603 0.028282 -0.005271 0.000000 0.000000 0.008235
# 3 -0.005271 -0.005271 0.014112 0.000000 0.000000 0.000000
# 4 0.000000 0.000000 0.000000 0.025264 0.000000 0.000000
# 5 0.000000 0.000000 0.000000 0.000000 0.025264 0.000000
# 6 -0.008235 0.008235 0.000000 0.000000 0.000000 0.046411
#
#
# Mechanical properties :
#
#
# Convention : Reuss Voigt Hill
#
# Bulk Modulus (GPa) = 41.00797 43.57943 42.29370
# Shear Modulus (GPa) = 22.51922 28.01395 25.26658
#
# Velocity S-wave (km/s) = 3.42749 3.82284 3.63055
# Velocity P-wave (km/s) = 6.08739 6.49767 6.29587
#
# Compressibility (1/GPa) = 0.02438551
#
# Stress axis : x y z
#
# Youngs Moduli (GPa) = 35.35843 35.35843 70.86306
#
# Poissons Ratio (x) = 0.44563 0.37351
# Poissons Ratio (y) = 0.44563 0.37351
# Poissons Ratio (z) = 0.18637 0.18637
#
# Static dielectric constant tensor:
#      x y z
#    x 1.692730 0.000000 0.000000 
#    y 0.000000 1.692730 0.000000 
#    z 0.000000 0.000000 1.781820 
# 
# From -- ./inp_files/1243.got.cif
#   From: 2010.05.17/outbox.cif.g08.bks.cpg/sg85_cif.got.tgz:1243.got - 2010.06.03 19:01:16.
