data_PCOD9544094
_publ_section_title
;
Structure prediction by ZEFSAII (Michael W. Deem and Ramdas Pophale) SiO2 
 PCOD9544094
Probable space group: P 42/M
;
_chemical_formula_sum "Si O2"
_cell_formula_units_Z 48
_cell_length_a 18.212531
_cell_length_b 18.212531
_cell_length_c 8.509373
_cell_angle_alpha 90.000000
_cell_angle_beta 90.000000
_cell_angle_gamma 90.000000
_cell_volume 2822.527415
_symmetry_space_group_name_H-M "P 42/M"
_symmetry_group_IT_number 84
_symmetry_cell_setting 'tetragonal'
loop_
_space_group_symop_operation_xyz
x,y,z
-y,x,1/2+z
-x,-y,z
y,-x,1/2+z
-x,-y,-z
y,-x,1/2-z
x,y,-z
-y,x,1/2-z
loop_
_atom_site_type_symbol
_atom_site_label
_atom_site_fract_x
_atom_site_fract_y
_atom_site_fract_z
Si Si1 0.915922 0.582596 0.312719
Si Si2 0.074131 0.582520 0.186526
Si Si3 0.936009 0.810107 0.320223
Si Si4 0.695272 0.811500 0.819134
Si Si5 0.811663 0.912110 0.322984
Si Si6 0.814009 0.701879 0.188682
O O1 0.914115 0.590674 0.500000
O O2 0.915832 0.497201 0.264489
O O3 0.845222 0.622534 0.237099
O O4 0.995422 0.612626 0.251204
O O5 0.144887 0.632221 0.226410
O O6 0.066639 0.574988 0.000000
O O7 0.960235 0.799573 0.500000
O O8 0.895917 0.888389 0.305900
O O9 0.872199 0.753298 0.278207
O O10 0.002841 0.801728 0.204223
O O11 0.763512 0.867477 0.800667
O O12 0.732943 0.733878 0.768469
O O13 0.672246 0.804916 0.000000
O O14 0.788403 0.890474 0.500000
O O15 0.819917 0.710137 0.000000
#
# Coordination Sequence:
#
# PCOD9544094 Si02
#       6
#     8   8   8   8   8   8
#     4  11  21  34  52  74 102 132 166 204 246 294
#     4  11  21  34  52  74 102 132 166 204 246 294
#     4  10  20  32  45  61  82 111 149 192 237 282
#     4  10  20  34  51  70  94 124 158 195 237 286
#     4  10  20  32  45  61  82 111 149 192 237 282
#     4  10  20  34  51  70  94 124 158 195 237 286
#
# _framework density 17.006035000000001
#
# number of rings (size 3 to 8) (size 9 to 14) (size 15 to 20)
#    0.000    1.667    0.000    7.000    0.000    4.333 
#    0.000    1.667    0.000    0.000    0.000    0.000 
#    0.000    0.667    0.000    7.000    0.000    3.000 
#
# Total GULP energy -267568.945632 kJ/mol
# GULP energy per Si atom -5574.353034 kJ/mol
# Density = 1.696733 g / cm^3
# Si number density = 17.006035 Si / 1000 Ang^3
#
#
#
# Elastic Constant Matrix: (Units=GPa)
#
#
# Indices 1 2 3 4 5 6 
#
# 1 56.1957 26.4263 11.6645 0.0000 0.0000 2.5427
# 2 26.4263 56.1957 11.6645 0.0000 0.0000 -2.5427
# 3 11.6645 11.6645 70.3791 0.0000 0.0000 0.0000
# 4 0.0000 0.0000 0.0000 21.6621 0.0000 0.0000
# 5 0.0000 0.0000 0.0000 0.0000 21.6621 0.0000
# 6 2.5427 -2.5427 0.0000 0.0000 0.0000 29.3592
#
#
#
# Elastic Compliance Matrix: (Units=1/GPa)
#
#
# Indices 1 2 3 4 5 6 
#
# 1 0.023397 -0.010699 -0.002104 0.000000 0.000000 -0.002953
# 2 -0.010699 0.023397 -0.002104 0.000000 0.000000 0.002953
# 3 -0.002104 -0.002104 0.014906 0.000000 0.000000 0.000000
# 4 0.000000 0.000000 0.000000 0.046164 0.000000 0.000000
# 5 0.000000 0.000000 0.000000 0.000000 0.046164 0.000000
# 6 -0.002953 0.002953 0.000000 0.000000 0.000000 0.034572
#
#
# Mechanical properties :
#
#
# Convention : Reuss Voigt Hill
#
# Bulk Modulus (GPa) = 31.36413 31.36455 31.36434
# Shear Modulus (GPa) = 21.82991 23.40436 22.61713
#
# Velocity S-wave (km/s) = 3.58670 3.71379 3.65080
# Velocity P-wave (km/s) = 5.96955 6.07231 6.02115
#
# Compressibility (1/GPa) = 0.03188355
#
# Stress axis : x y z
#
# Youngs Moduli (GPa) = 42.74094 42.74094 67.08559
#
# Poissons Ratio (x) = 0.45730 0.14118
# Poissons Ratio (y) = 0.45730 0.14118
# Poissons Ratio (z) = 0.08995 0.08995
#
# Static dielectric constant tensor:
#      x y z
#    x 1.611740 0.000000 0.000000 
#    y 0.000000 1.611740 0.000000 
#    z 0.000000 0.000000 1.568080 
# 
# From -- ./inp_files/959.got.cif
#   From: 2010.05.17/outbox.cif.g08.bks.cpg/sg84_1_cif.got.tgz:959.got - 2010.06.03 18:57:40.
