data_PCOD9544163
_publ_section_title
;
Structure prediction by ZEFSAII (Michael W. Deem and Ramdas Pophale) SiO2 
 PCOD9544163
Probable space group: P 42/M
;
_chemical_formula_sum "Si O2"
_cell_formula_units_Z 64
_cell_length_a 18.433526
_cell_length_b 18.433526
_cell_length_c 7.823334
_cell_angle_alpha 90.000000
_cell_angle_beta 90.000000
_cell_angle_gamma 90.000000
_cell_volume 2658.328844
_symmetry_space_group_name_H-M "P 42/M"
_symmetry_group_IT_number 84
_symmetry_cell_setting 'tetragonal'
loop_
_space_group_symop_operation_xyz
x,y,z
-y,x,1/2+z
-x,-y,z
y,-x,1/2+z
-x,-y,-z
y,-x,1/2-z
x,y,-z
-y,x,1/2-z
loop_
_atom_site_type_symbol
_atom_site_label
_atom_site_fract_x
_atom_site_fract_y
_atom_site_fract_z
Si Si1 0.854920 0.740948 0.699113
Si Si2 0.884472 0.212966 0.210543
Si Si3 0.383720 0.957738 0.207573
Si Si4 0.888222 0.000157 0.305742
Si Si5 0.590083 0.427810 0.698979
Si Si6 0.278540 0.355072 0.802718
Si Si7 0.821275 0.522069 0.301817
Si Si8 0.876560 0.375493 0.199886
O O1 0.872130 0.750543 0.500000
O O2 0.838903 0.819801 0.773052
O O3 0.917733 0.689595 0.771488
O O4 0.778966 0.697121 0.711799
O O5 0.963782 0.184852 0.263075
O O6 0.868167 0.294145 0.267981
O O7 0.885125 0.212525 0.000000
O O8 0.446029 0.899754 0.253364
O O9 0.393016 0.038109 0.276392
O O10 0.382797 0.962773 0.000000
O O11 0.880486 0.025886 0.500000
O O12 0.942268 0.930422 0.306750
O O13 0.505204 0.405015 0.710334
O O14 0.608666 0.439197 0.500000
O O15 0.636809 0.360057 0.766537
O O16 0.240912 0.434509 0.794883
O O17 0.282723 0.332316 0.000000
O O18 0.811754 0.541610 0.500000
O O19 0.826827 0.436411 0.283331
O O20 0.859569 0.375343 0.000000
#
# Coordination Sequence:
#
# PCOD9544163 Si02
#       8
#     8   8   8   8   8   8   8   8
#     4   9  19  38  59  77 105 147 186 221 271 335
#     4   9  21  38  55  80 115 150 184 227 282 341
#     4   9  19  35  57  80 103 139 186 227 269 328
#     4  10  20  37  59  82 110 144 187 234 281 336
#     4  10  21  36  56  82 112 144 183 227 269 317
#     4  10  21  37  57  84 113 143 180 227 278 324
#     4  10  21  38  58  80 109 146 187 225 268 331
#     4  11  22  35  54  82 114 145 180 228 282 327
#
# _framework density 24.075275999999999
#
# number of rings (size 3 to 8) (size 9 to 14) (size 15 to 20)
#    0.000    2.250    0.000    3.750    1.750    7.000 
#    0.000    8.125    0.000    0.000    0.000    0.000 
#    0.000    0.000    0.000    0.000    0.000    0.000 
#
# Total GULP energy -357759.414082 kJ/mol
# GULP energy per Si atom -5589.990845 kJ/mol
# Density = 2.402048 g / cm^3
# Si number density = 24.075276 Si / 1000 Ang^3
#
#
#
# Elastic Constant Matrix: (Units=GPa)
#
#
# Indices 1 2 3 4 5 6 
#
# 1 55.4539 11.0265 -2.1355 0.0000 0.0000 5.1962
# 2 11.0265 55.4539 -2.1355 0.0000 0.0000 -5.1962
# 3 -2.1355 -2.1355 46.8763 0.0000 0.0000 0.0000
# 4 0.0000 0.0000 0.0000 25.4894 0.0000 0.0000
# 5 0.0000 0.0000 0.0000 0.0000 25.4894 0.0000
# 6 5.1962 -5.1962 0.0000 0.0000 0.0000 11.2425
#
#
#
# Elastic Compliance Matrix: (Units=1/GPa)
#
#
# Indices 1 2 3 4 5 6 
#
# 1 0.020162 -0.005075 0.000687 0.000000 0.000000 -0.011664
# 2 -0.005075 0.020162 0.000687 0.000000 0.000000 0.011664
# 3 0.000687 0.000687 0.021395 0.000000 0.000000 0.000000
# 4 0.000000 0.000000 0.000000 0.039232 0.000000 0.000000
# 5 0.000000 0.000000 0.000000 0.000000 0.039232 0.000000
# 6 -0.011664 0.011664 0.000000 0.000000 0.000000 0.099730
#
#
# Mechanical properties :
#
#
# Convention : Reuss Voigt Hill
#
# Bulk Modulus (GPa) = 18.41050 19.03278 18.72164
# Shear Modulus (GPa) = 18.83803 22.51284 20.67544
#
# Velocity S-wave (km/s) = 2.80029 3.06126 2.93368
# Velocity P-wave (km/s) = 4.25666 4.51860 4.38959
#
# Compressibility (1/GPa) = 0.05431682
#
# Stress axis : x y z
#
# Youngs Moduli (GPa) = 49.59913 49.59913 46.73913
#
# Poissons Ratio (x) = 0.25174 -0.03212
# Poissons Ratio (y) = 0.25174 -0.03212
# Poissons Ratio (z) = -0.03409 -0.03409
#
# Static dielectric constant tensor:
#      x y z
#    x 1.948870 0.000000 0.000000 
#    y 0.000000 1.948870 0.000000 
#    z 0.000000 0.000000 1.847350 
# 
# From -- ./inp_files/1346.got.cif
#   From: 2010.05.17/outbox.cif.g08.bks.cpg/sg84_1_cif.got.tgz:1346.got - 2010.06.03 18:57:40.
