data_PCOD9544796
_publ_section_title
;
Structure prediction by ZEFSAII (Michael W. Deem and Ramdas Pophale) SiO2 
 PCOD9544796
Probable space group: P 4/N
;
_chemical_formula_sum "Si O2"
_cell_formula_units_Z 56
_cell_length_a 10.732656
_cell_length_b 10.732656
_cell_length_c 23.962761
_cell_angle_alpha 90.000000
_cell_angle_beta 90.000000
_cell_angle_gamma 90.000000
_cell_volume 2760.268159
_symmetry_space_group_name_H-M "P 4/N"
_symmetry_group_IT_number 85
_symmetry_cell_setting 'tetragonal'
loop_
_space_group_symop_operation_xyz
x,y,z
1/2-y,x,z
1/2-x,1/2-y,z
y,1/2-x,z
-x,-y,-z
1/2+y,-x,-z
1/2+x,1/2+y,-z
-y,1/2+x,-z
loop_
_atom_site_type_symbol
_atom_site_label
_atom_site_fract_x
_atom_site_fract_y
_atom_site_fract_z
Si Si1 0.967747 0.465436 0.735668
Si Si2 0.059605 0.811795 0.512078
Si Si3 0.788692 0.393117 0.299872
Si Si4 0.787159 0.553710 0.398932
Si Si5 0.082320 0.131056 0.157216
Si Si6 0.392919 0.093508 0.025014
Si Si7 0.164976 0.440213 0.372693
O O1 0.980367 0.318726 0.726142
O O2 0.925815 0.488594 0.798679
O O3 0.868824 0.501279 0.686779
O O4 0.083209 0.556848 0.725107
O O5 0.171013 0.891584 0.485943
O O6 0.955428 0.806367 0.464956
O O7 0.020882 0.862440 0.572191
O O8 0.750000 0.250000 0.290508
O O9 0.798956 0.425011 0.365830
O O10 0.889685 0.654363 0.381907
O O11 0.221717 0.083447 0.168732
O O12 0.066812 0.105121 0.091670
O O13 0.421919 0.241937 0.012086
O O14 0.500000 0.000000 0.000000
O O15 0.091997 0.310432 0.376109
#
# Coordination Sequence:
#
# PCOD9544796 Si02
#       7
#     8   8   8   8   8   8   8
#     4  12  25  43  65  95 129 168 212 267 325 389
#     4  11  26  39  59  89 118 148 194 255 326 399
#     4  12  26  42  68  93 126 166 213 264 324 392
#     4  11  24  44  65  85 116 161 202 249 316 399
#     4   9  18  38  67  97 133 178 229 281 332 383
#     4   9  19  38  66 102 145 191 238 287 338 398
#     4  11  24  42  63  89 116 149 203 265 318 382
#
# _framework density 20.287884999999999
#
# number of rings (size 3 to 8) (size 9 to 14) (size 15 to 20)
#    0.000    1.286    1.429    5.143    6.000    4.000 
#    2.571    0.000    0.000    0.000    0.000    0.000 
#    0.000    0.000    0.000    0.000    0.000    0.000 
#
# Total GULP energy -312625.901071 kJ/mol
# GULP energy per Si atom -5582.605376 kJ/mol
# Density = 2.024171 g / cm^3
# Si number density = 20.287885 Si / 1000 Ang^3
#
#
#
# Elastic Constant Matrix: (Units=GPa)
#
#
# Indices 1 2 3 4 5 6 
#
# 1 99.6475 35.1035 33.8857 0.0000 0.0000 -39.9861
# 2 35.1035 99.6475 33.8857 0.0000 0.0000 39.9861
# 3 33.8857 33.8857 75.2277 0.0000 0.0000 0.0000
# 4 0.0000 0.0000 0.0000 31.2501 0.0000 0.0000
# 5 0.0000 0.0000 0.0000 0.0000 31.2501 0.0000
# 6 -39.9861 39.9861 0.0000 0.0000 0.0000 -30.2723
#
#
#
# Elastic Compliance Matrix: (Units=1/GPa)
#
#
# Indices 1 2 3 4 5 6 
#
# 1 0.007735 0.001859 -0.004322 0.000000 0.000000 -0.007762
# 2 0.001859 0.007735 -0.004322 0.000000 0.000000 0.007762
# 3 -0.004322 -0.004322 0.017186 0.000000 0.000000 0.000000
# 4 0.000000 0.000000 0.000000 0.032000 0.000000 0.000000
# 5 0.000000 0.000000 0.000000 0.000000 0.032000 0.000000
# 6 -0.007762 0.007762 0.000000 0.000000 0.000000 -0.012529
#
#
# Mechanical properties :
#
#
# Convention : Reuss Voigt Hill
#
# Bulk Modulus (GPa) = 52.38765 53.36360 52.87563
# Shear Modulus (GPa) = 48.04910 17.88877 32.96894
#
# Velocity S-wave (km/s) = 4.87186 2.97264 4.03557
# Velocity P-wave (km/s) = 7.58452 6.17596 6.91619
#
# Compressibility (1/GPa) = 0.01908847
#
# Stress axis : x y z
#
# Youngs Moduli (GPa) = 129.27471 129.27471 58.18532
#
# Poissons Ratio (x) = -0.24035 0.25147
# Poissons Ratio (y) = -0.24035 0.25147
# Poissons Ratio (z) = 0.55871 0.55871
#
# Static dielectric constant tensor:
#      x y z
#    x 1.774120 0.000000 0.000000 
#    y 0.000000 1.774120 0.000000 
#    z 0.000000 0.000000 1.691330 
# 
# From -- ./inp_files/2235.got.cif
#   From: 2010.05.17/outbox.cif.g08.bks.cpg/sg85_cif.got.tgz:2235.got - 2010.06.03 19:01:16.
