data_PCOD9544166
_publ_section_title
;
Structure prediction by ZEFSAII (Michael W. Deem and Ramdas Pophale) SiO2 
 PCOD9544166
Probable space group: P 42/M
;
_chemical_formula_sum "Si O2"
_cell_formula_units_Z 56
_cell_length_a 15.078658
_cell_length_b 15.078658
_cell_length_c 12.642519
_cell_angle_alpha 90.000000
_cell_angle_beta 90.000000
_cell_angle_gamma 90.000000
_cell_volume 2874.478053
_symmetry_space_group_name_H-M "P 42/M"
_symmetry_group_IT_number 84
_symmetry_cell_setting 'tetragonal'
loop_
_space_group_symop_operation_xyz
x,y,z
-y,x,1/2+z
-x,-y,z
y,-x,1/2+z
-x,-y,-z
y,-x,1/2-z
x,y,-z
-y,x,1/2-z
loop_
_atom_site_type_symbol
_atom_site_label
_atom_site_fract_x
_atom_site_fract_y
_atom_site_fract_z
Si Si1 0.138391 0.332669 0.255707
Si Si2 0.243218 0.202674 0.118634
Si Si3 0.993517 0.217438 0.314288
Si Si4 0.595044 0.300554 0.874484
Si Si5 0.105661 0.501704 0.125376
Si Si6 0.093140 0.052544 0.617080
Si Si7 0.738471 0.412368 0.745007
O O1 0.175062 0.244408 0.201267
O O2 0.204201 0.362349 0.348406
O O3 0.139757 0.406638 0.165352
O O4 0.040254 0.310560 0.293010
O O5 0.231734 0.097579 0.125458
O O6 0.338985 0.235277 0.158161
O O7 0.225891 0.233172 0.000000
O O8 0.972252 0.163801 0.206049
O O9 0.062682 0.154255 0.374725
O O10 0.662400 0.370919 0.820558
O O11 0.500873 0.297013 0.813091
O O12 0.585571 0.314657 0.000000
O O13 0.171396 0.567682 0.188474
O O14 0.000000 0.500000 0.149434
O O15 0.115489 0.515078 0.000000
O O16 0.127398 0.031374 0.500000
O O17 0.000000 0.000000 0.631244
#
# Coordination Sequence:
#
# PCOD9544166 Si02
#       7
#     8   8   8   8   8   8   8
#     4  10  22  37  57  83 118 153 197 245 292 350
#     4  11  22  37  59  83 115 156 197 245 299 351
#     4  12  20  38  52  81 116 152 207 253 290 356
#     4  10  22  42  66  90 122 155 191 240 301 364
#     4  10  20  37  60  86 119 156 194 238 292 349
#     4  11  21  34  52  74 110 156 201 257 308 345
#     4  10  22  41  62  93 121 153 194 245 291 360
#
# _framework density 19.481798999999999
#
# number of rings (size 3 to 8) (size 9 to 14) (size 15 to 20)
#    0.000    1.429    2.857    2.571    0.000    3.714 
#    0.000    3.571    0.000    4.714    0.000    0.000 
#    0.000    0.000    0.000    0.000    0.000    0.000 
#
# Total GULP energy -312596.642173 kJ/mol
# GULP energy per Si atom -5582.082896 kJ/mol
# Density = 1.943746 g / cm^3
# Si number density = 19.481799 Si / 1000 Ang^3
#
#
#
# Elastic Constant Matrix: (Units=GPa)
#
#
# Indices 1 2 3 4 5 6 
#
# 1 71.1896 8.0394 24.5573 0.0000 0.0000 4.8212
# 2 8.0394 71.1896 24.5573 0.0000 0.0000 -4.8212
# 3 24.5573 24.5573 113.4853 0.0000 0.0000 0.0000
# 4 0.0000 0.0000 0.0000 14.8756 0.0000 0.0000
# 5 0.0000 0.0000 0.0000 0.0000 14.8756 0.0000
# 6 4.8212 -4.8212 0.0000 0.0000 0.0000 28.8144
#
#
#
# Elastic Compliance Matrix: (Units=1/GPa)
#
#
# Indices 1 2 3 4 5 6 
#
# 1 0.015414 -0.000837 -0.003154 0.000000 0.000000 -0.002719
# 2 -0.000837 0.015414 -0.003154 0.000000 0.000000 0.002719
# 3 -0.003154 -0.003154 0.010177 0.000000 0.000000 0.000000
# 4 0.000000 0.000000 0.000000 0.067224 0.000000 0.000000
# 5 0.000000 0.000000 0.000000 0.000000 0.067224 0.000000
# 6 -0.002719 0.002719 0.000000 0.000000 0.000000 0.035615
#
#
# Mechanical properties :
#
#
# Convention : Reuss Voigt Hill
#
# Bulk Modulus (GPa) = 37.43423 41.13030 39.28227
# Shear Modulus (GPa) = 21.34353 24.96048 23.15200
#
# Velocity S-wave (km/s) = 3.31352 3.58330 3.45105
# Velocity P-wave (km/s) = 5.82202 6.18692 6.00724
#
# Compressibility (1/GPa) = 0.02671352
#
# Stress axis : x y z
#
# Youngs Moduli (GPa) = 64.87722 64.87722 98.26209
#
# Poissons Ratio (x) = 0.05428 0.30995
# Poissons Ratio (y) = 0.05428 0.30995
# Poissons Ratio (z) = 0.20465 0.20465
#
# Static dielectric constant tensor:
#      x y z
#    x 1.702700 0.000000 0.000000 
#    y 0.000000 1.702700 0.000000 
#    z 0.000000 0.000000 1.660000 
# 
# From -- ./inp_files/2245.got.cif
#   From: 2010.05.17/outbox.cif.g08.bks.cpg/sg84_2_cif.got.tgz:2245.got - 2010.06.03 18:57:40.
