data_PCOD9544447
_publ_section_title
;
Structure prediction by ZEFSAII (Michael W. Deem and Ramdas Pophale) SiO2 
 PCOD9544447
Probable space group: P 42/M
;
_chemical_formula_sum "Si O2"
_cell_formula_units_Z 20
_cell_length_a 5.214486
_cell_length_b 5.214486
_cell_length_c 29.094716
_cell_angle_alpha 90.000000
_cell_angle_beta 90.000000
_cell_angle_gamma 90.000000
_cell_volume 791.110473
_symmetry_space_group_name_H-M "P 42/M"
_symmetry_group_IT_number 84
_symmetry_cell_setting 'tetragonal'
loop_
_space_group_symop_operation_xyz
x,y,z
-y,x,1/2+z
-x,-y,z
y,-x,1/2+z
-x,-y,-z
y,-x,1/2-z
x,y,-z
-y,x,1/2-z
loop_
_atom_site_type_symbol
_atom_site_label
_atom_site_fract_x
_atom_site_fract_y
_atom_site_fract_z
Si Si1 0.757895 0.174092 0.925718
Si Si2 0.255143 0.325645 0.678467
Si Si3 0.500000 0.500000 0.500000
Si Si4 0.000000 0.000000 0.250000
O O1 0.785589 0.263503 0.873118
O O2 0.500000 0.000000 0.929581
O O3 0.701105 0.403618 0.959880
O O4 0.000000 0.000000 0.938549
O O5 0.500000 0.500000 0.686687
O O6 0.216201 0.109842 0.716464
O O7 0.000000 0.500000 0.680428
#
# Coordination Sequence:
#
# PCOD9544447 Si02
#       4
#     8   8   2   2
#     4  11  25  48  73 113 158 209 273 338 412 500
#     4  11  27  50  77 115 162 211 275 349 420 504
#     4  12  24  46  80 112 162 214 272 338 422 492
#     4  12  28  48  84 110 160 216 284 344 440 510
#
# _framework density 25.280919999999998
#
# number of rings (size 3 to 8) (size 9 to 14) (size 15 to 20)
#    0.000    0.800    4.000    1.200    5.600    3.200 
#    0.000    0.000    0.000    0.000    0.000    0.000 
#    0.000    0.000    0.000    0.000    0.000    0.000 
#
# Total GULP energy -111810.225857 kJ/mol
# GULP energy per Si atom -5590.511293 kJ/mol
# Density = 2.522338 g / cm^3
# Si number density = 25.280920 Si / 1000 Ang^3
#
#
#
# Elastic Constant Matrix: (Units=GPa)
#
#
# Indices 1 2 3 4 5 6 
#
# 1 158.7088 73.1093 54.7993 0.0000 0.0000 -2.4843
# 2 73.1093 158.7088 54.7993 0.0000 0.0000 2.4843
# 3 54.7993 54.7993 221.8759 0.0000 0.0000 0.0000
# 4 0.0000 0.0000 0.0000 -60.0370 0.0000 0.0000
# 5 0.0000 0.0000 0.0000 0.0000 -60.0370 0.0000
# 6 -2.4843 2.4843 0.0000 0.0000 0.0000 76.7946
#
#
#
# Elastic Compliance Matrix: (Units=1/GPa)
#
#
# Indices 1 2 3 4 5 6 
#
# 1 0.008294 -0.003410 -0.001206 0.000000 0.000000 0.000379
# 2 -0.003410 0.008294 -0.001206 0.000000 0.000000 -0.000379
# 3 -0.001206 -0.001206 0.005103 0.000000 0.000000 0.000000
# 4 0.000000 0.000000 0.000000 -0.016656 0.000000 0.000000
# 5 0.000000 0.000000 0.000000 0.000000 -0.016656 0.000000
# 6 0.000379 -0.000379 0.000000 0.000000 0.000000 0.013046
#
#
# Mechanical properties :
#
#
# Convention : Reuss Voigt Hill
#
# Bulk Modulus (GPa) = 99.54349 100.52328 100.03339
# Shear Modulus (GPa) = 304.53224 15.11647 159.82435
#
# Velocity S-wave (km/s) = 10.98730 2.44793 7.95969
# Velocity P-wave (km/s) = 14.15703 6.91655 11.14137
#
# Compressibility (1/GPa) = 0.01004586
#
# Stress axis : x y z
#
# Youngs Moduli (GPa) = 120.56679 120.56679 195.96795
#
# Poissons Ratio (x) = 0.41115 0.23639
# Poissons Ratio (y) = 0.41115 0.23639
# Poissons Ratio (z) = 0.14544 0.14544
#
# Static dielectric constant tensor:
#      x y z
#    x 2.210090 0.000000 0.000000 
#    y 0.000000 2.210090 0.000000 
#    z 0.000000 0.000000 1.948950 
# 
# From -- ./inp_files/5495.got.cif
#   From: 2010.05.17/outbox.cif.g08.bks.cpg/sg84_3_cif.got.tgz:5495.got - 2010.06.03 18:57:40.
