data_PCOD9544717
_publ_section_title
;
Structure prediction by ZEFSAII (Michael W. Deem and Ramdas Pophale) SiO2 
 PCOD9544717
Probable space group: P 4/N
;
_chemical_formula_sum "Si O2"
_cell_formula_units_Z 26
_cell_length_a 9.866023
_cell_length_b 9.866023
_cell_length_c 16.023185
_cell_angle_alpha 90.000000
_cell_angle_beta 90.000000
_cell_angle_gamma 90.000000
_cell_volume 1559.671348
_symmetry_space_group_name_H-M "P 4/N"
_symmetry_group_IT_number 85
_symmetry_cell_setting 'tetragonal'
loop_
_space_group_symop_operation_xyz
x,y,z
1/2-y,x,z
1/2-x,1/2-y,z
y,1/2-x,z
-x,-y,-z
1/2+y,-x,-z
1/2+x,1/2+y,-z
-y,1/2+x,-z
loop_
_atom_site_type_symbol
_atom_site_label
_atom_site_fract_x
_atom_site_fract_y
_atom_site_fract_z
Si Si1 0.969267 0.693738 0.799731
Si Si2 0.400824 0.887644 0.964684
Si Si3 0.976034 0.715372 0.604549
Si Si4 0.250000 0.750000 0.500000
O O1 0.908499 0.843408 0.813827
O O2 0.009692 0.695596 0.702803
O O3 0.077596 0.651103 0.868227
O O4 0.428868 0.751983 0.017050
O O5 0.500000 0.000000 0.000000
O O6 0.899067 0.859744 0.588872
O O7 0.115270 0.712661 0.553271
#
# Coordination Sequence:
#
# PCOD9544717 Si02
#       4
#     8   8   8   2
#     4   9  17  35  57  75 106 150 186 220 271 333
#     4  11  22  34  54  82 109 144 184 229 273 321
#     4   9  20  37  57  81 112 150 184 223 279 341
#     4  12  20  32  60  92 110 136 188 248 276 316
#
# _framework density 16.670178
#
# number of rings (size 3 to 8) (size 9 to 14) (size 15 to 20)
#    0.000    2.154    3.077    2.769    0.000    3.077 
#    0.000    0.000    0.000    0.000    0.000    0.000 
#    0.000    0.000    0.000    0.000    0.000    0.000 
#
# Total GULP energy -144849.816680 kJ/mol
# GULP energy per Si atom -5571.146795 kJ/mol
# Density = 1.663224 g / cm^3
# Si number density = 16.670178 Si / 1000 Ang^3
#
#
#
# Elastic Constant Matrix: (Units=GPa)
#
#
# Indices 1 2 3 4 5 6 
#
# 1 95.6758 59.6800 56.9173 0.0000 0.0000 -6.6049
# 2 59.6800 95.6758 56.9173 0.0000 0.0000 6.6049
# 3 56.9173 56.9173 99.3292 0.0000 0.0000 0.0000
# 4 0.0000 0.0000 0.0000 30.5099 0.0000 0.0000
# 5 0.0000 0.0000 0.0000 0.0000 30.5099 0.0000
# 6 -6.6049 6.6049 0.0000 0.0000 0.0000 21.0123
#
#
#
# Elastic Compliance Matrix: (Units=1/GPa)
#
#
# Indices 1 2 3 4 5 6 
#
# 1 0.021250 -0.010154 -0.006358 0.000000 0.000000 0.009871
# 2 -0.010154 0.021250 -0.006358 0.000000 0.000000 -0.009871
# 3 -0.006358 -0.006358 0.017354 0.000000 0.000000 0.000000
# 4 0.000000 0.000000 0.000000 0.032776 0.000000 0.000000
# 5 0.000000 0.000000 0.000000 0.000000 0.032776 0.000000
# 6 0.009871 -0.009871 0.000000 0.000000 0.000000 0.053797
#
#
# Mechanical properties :
#
#
# Convention : Reuss Voigt Hill
#
# Bulk Modulus (GPa) = 70.85524 70.85664 70.85594
# Shear Modulus (GPa) = 21.77260 24.21750 22.99505
#
# Velocity S-wave (km/s) = 3.61790 3.81562 3.71807
# Velocity P-wave (km/s) = 7.74911 7.87460 7.81210
#
# Compressibility (1/GPa) = 0.01411328
#
# Stress axis : x y z
#
# Youngs Moduli (GPa) = 47.05989 47.05989 57.62394
#
# Poissons Ratio (x) = 0.47785 0.36637
# Poissons Ratio (y) = 0.47785 0.36637
# Poissons Ratio (z) = 0.29920 0.29920
#
# Static dielectric constant tensor:
#      x y z
#    x 1.612220 0.000000 0.000000 
#    y 0.000000 1.612220 0.000000 
#    z 0.000000 0.000000 1.563920 
# 
# From -- ./inp_files/2041.got.cif
#   From: 2010.05.17/outbox.cif.g08.bks.cpg/sg85_cif.got.tgz:2041.got - 2010.06.03 19:01:16.
