data_PCOD9544611
_publ_section_title
;
Structure prediction by ZEFSAII (Michael W. Deem and Ramdas Pophale) SiO2 
 PCOD9544611
Probable space group: P 4/N
;
_chemical_formula_sum "Si O2"
_cell_formula_units_Z 36
_cell_length_a 11.528618
_cell_length_b 11.528618
_cell_length_c 10.827845
_cell_angle_alpha 90.000000
_cell_angle_beta 90.000000
_cell_angle_gamma 90.000000
_cell_volume 1439.118408
_symmetry_space_group_name_H-M "P 4/N"
_symmetry_group_IT_number 85
_symmetry_cell_setting 'tetragonal'
loop_
_space_group_symop_operation_xyz
x,y,z
1/2-y,x,z
1/2-x,1/2-y,z
y,1/2-x,z
-x,-y,-z
1/2+y,-x,-z
1/2+x,1/2+y,-z
-y,1/2+x,-z
loop_
_atom_site_type_symbol
_atom_site_label
_atom_site_fract_x
_atom_site_fract_y
_atom_site_fract_z
Si Si1 0.750000 0.750000 0.121171
Si Si2 0.281909 0.885015 0.643194
Si Si3 0.429229 0.489547 0.192739
Si Si4 0.040683 0.904103 0.595414
Si Si5 0.250000 0.750000 0.000000
Si Si6 0.822687 0.000528 0.061590
O O1 0.750823 0.893488 0.114952
O O2 0.250000 0.750000 0.659285
O O3 0.157962 0.945181 0.664727
O O4 0.303482 0.925199 0.500248
O O5 0.393859 0.912490 0.725189
O O6 0.446372 0.389877 0.297165
O O7 0.332670 0.478305 0.087360
O O8 0.548642 0.493411 0.116564
O O9 0.000000 0.000000 0.500000
O O10 0.371254 0.766078 0.072284
#
# Coordination Sequence:
#
# PCOD9544611 Si02
#       6
#     2   8   8   8   2   8
#     4  12  28  52  68 108 178 200 240 344 444 470
#     4  11  21  41  72 105 144 202 267 328 391 491
#     4  10  25  43  74 108 152 201 264 336 412 482
#     4  10  21  40  64 104 141 187 256 328 386 465
#     4  12  28  52  84 112 158 212 300 332 396 534
#     4  11  26  50  73 115 153 203 268 340 415 513
#
# _framework density 25.015315000000001
#
# number of rings (size 3 to 8) (size 9 to 14) (size 15 to 20)
#    0.000    1.333    2.222    2.667    7.778    1.778 
#    2.000    0.000    0.000    6.000    0.000    0.000 
#    0.000    0.000    0.000    0.000    0.000    0.000 
#
# Total GULP energy -200539.464515 kJ/mol
# GULP energy per Si atom -5570.540681 kJ/mol
# Density = 2.495838 g / cm^3
# Si number density = 25.015315 Si / 1000 Ang^3
#
#
#
# Elastic Constant Matrix: (Units=GPa)
#
#
# Indices 1 2 3 4 5 6 
#
# 1 120.7453 15.4067 16.6478 0.0000 0.0000 -59.1393
# 2 15.4067 120.7453 16.6478 0.0000 0.0000 59.1393
# 3 16.6478 16.6478 123.9330 0.0000 0.0000 0.0000
# 4 0.0000 0.0000 0.0000 41.5730 0.0000 0.0000
# 5 0.0000 0.0000 0.0000 0.0000 41.5730 0.0000
# 6 -59.1393 59.1393 0.0000 0.0000 0.0000 164.6150
#
#
#
# Elastic Compliance Matrix: (Units=1/GPa)
#
#
# Indices 1 2 3 4 5 6 
#
# 1 0.011753 -0.004159 -0.001020 0.000000 0.000000 0.005716
# 2 -0.004159 0.011753 -0.001020 0.000000 0.000000 -0.005716
# 3 -0.001020 -0.001020 0.008343 0.000000 0.000000 0.000000
# 4 0.000000 0.000000 0.000000 0.024054 0.000000 0.000000
# 5 0.000000 0.000000 0.000000 0.000000 0.024054 0.000000
# 6 0.005716 -0.005716 0.000000 0.000000 0.000000 0.010182
#
#
# Mechanical properties :
#
#
# Convention : Reuss Voigt Hill
#
# Bulk Modulus (GPa) = 51.41164 51.42537 51.41850
# Shear Modulus (GPa) = 45.86266 70.66696 58.26481
#
# Velocity S-wave (km/s) = 4.28645 5.32079 4.83138
# Velocity P-wave (km/s) = 6.71527 7.63871 7.19183
#
# Compressibility (1/GPa) = 0.01945085
#
# Stress axis : x y z
#
# Youngs Moduli (GPa) = 85.08436 85.08436 119.86178
#
# Poissons Ratio (x) = 0.35385 0.12227
# Poissons Ratio (y) = 0.35385 0.12227
# Poissons Ratio (z) = 0.08680 0.08680
#
# Static dielectric constant tensor:
#      x y z
#    x 2.072810 0.000000 0.000000 
#    y 0.000000 2.072810 0.000000 
#    z 0.000000 0.000000 2.151390 
# 
# From -- ./inp_files/1536.got.cif
#   From: 2010.05.17/outbox.cif.g08.bks.cpg/sg85_cif.got.tgz:1536.got - 2010.06.03 19:01:16.
