data_PCOD9544012
_publ_section_title
;
Structure prediction by ZEFSAII (Michael W. Deem and Ramdas Pophale) SiO2 
 PCOD9544012
Probable space group: P 42/M
;
_chemical_formula_sum "Si O2"
_cell_formula_units_Z 64
_cell_length_a 20.181103
_cell_length_b 20.181103
_cell_length_c 8.940467
_cell_angle_alpha 90.000000
_cell_angle_beta 90.000000
_cell_angle_gamma 90.000000
_cell_volume 3641.245848
_symmetry_space_group_name_H-M "P 42/M"
_symmetry_group_IT_number 84
_symmetry_cell_setting 'tetragonal'
loop_
_space_group_symop_operation_xyz
x,y,z
-y,x,1/2+z
-x,-y,z
y,-x,1/2+z
-x,-y,-z
y,-x,1/2-z
x,y,-z
-y,x,1/2-z
loop_
_atom_site_type_symbol
_atom_site_label
_atom_site_fract_x
_atom_site_fract_y
_atom_site_fract_z
Si Si1 0.924996 0.820283 0.678205
Si Si2 0.188404 0.423709 0.675062
Si Si3 0.720261 0.828781 0.821904
Si Si4 0.195484 0.569328 0.678977
Si Si5 0.820826 0.931168 0.322306
Si Si6 0.673531 0.569461 0.170005
Si Si7 0.336472 0.577402 0.829476
Si Si8 0.282298 0.822661 0.678529
O O1 0.924661 0.810100 0.500000
O O2 0.887775 0.889714 0.709629
O O3 0.880094 0.763978 0.754817
O O4 0.998827 0.819752 0.740614
O O5 0.177288 0.412934 0.500000
O O6 0.161164 0.498017 0.713108
O O7 0.266153 0.429888 0.714514
O O8 0.168991 0.356698 0.760491
O O9 0.641600 0.836394 0.796048
O O10 0.761763 0.883797 0.734497
O O11 0.753118 0.756525 0.782433
O O12 0.731420 0.836754 0.000000
O O13 0.211830 0.566500 0.500000
O O14 0.260362 0.572661 0.781480
O O15 0.815593 0.940686 0.500000
O O16 0.623512 0.626290 0.214224
O O17 0.638662 0.498177 0.177765
O O18 0.699102 0.577776 0.000000
O O19 0.343509 0.601325 0.000000
O O20 0.283996 0.826317 0.500000
#
# Coordination Sequence:
#
# PCOD9544012 Si02
#       8
#     8   8   8   8   8   8   8   8
#     4  10  21  37  57  82 114 149 181 214 254 303
#     4  10  19  31  49  73 100 130 168 214 263 314
#     4   9  18  33  53  76 103 138 177 216 263 316
#     4   9  18  32  50  72  99 131 167 211 263 318
#     4  10  21  36  56  84 114 144 179 215 252 298
#     4  10  20  32  44  60  85 117 155 201 256 315
#     4  10  20  31  44  62  84 115 156 203 255 312
#     4  10  19  32  53  79 107 140 179 222 266 314
#
# _framework density 17.576402000000002
#
# number of rings (size 3 to 8) (size 9 to 14) (size 15 to 20)
#    0.000    2.250    0.000    3.000    0.000    6.000 
#    0.000    2.500    0.000    0.750    0.000    5.250 
#    0.000    0.000    0.000    0.000    0.000    0.000 
#
# Total GULP energy -356598.447022 kJ/mol
# GULP energy per Si atom -5571.850735 kJ/mol
# Density = 1.753640 g / cm^3
# Si number density = 17.576402 Si / 1000 Ang^3
#
#
#
# Elastic Constant Matrix: (Units=GPa)
#
#
# Indices 1 2 3 4 5 6 
#
# 1 99.7792 36.9472 38.6250 0.0000 0.0000 -0.1805
# 2 36.9472 99.7792 38.6250 0.0000 0.0000 0.1805
# 3 38.6250 38.6250 43.1087 0.0000 0.0000 0.0000
# 4 0.0000 0.0000 0.0000 26.4902 0.0000 0.0000
# 5 0.0000 0.0000 0.0000 0.0000 26.4902 0.0000
# 6 -0.1805 0.1805 0.0000 0.0000 0.0000 10.4771
#
#
#
# Elastic Compliance Matrix: (Units=1/GPa)
#
#
# Indices 1 2 3 4 5 6 
#
# 1 0.015365 -0.000552 -0.013272 0.000000 0.000000 0.000274
# 2 -0.000552 0.015365 -0.013272 0.000000 0.000000 -0.000274
# 3 -0.013272 -0.013272 0.046980 0.000000 0.000000 0.000000
# 4 0.000000 0.000000 0.000000 0.037750 0.000000 0.000000
# 5 0.000000 0.000000 0.000000 0.000000 0.037750 0.000000
# 6 0.000274 -0.000274 0.000000 0.000000 0.000000 0.095456
#
#
# Mechanical properties :
#
#
# Convention : Reuss Voigt Hill
#
# Bulk Modulus (GPa) = 42.52124 52.34015 47.43069
# Shear Modulus (GPa) = 16.09294 21.25619 18.67456
#
# Velocity S-wave (km/s) = 3.02917 3.48136 3.26311
# Velocity P-wave (km/s) = 6.03980 6.78256 6.42193
#
# Compressibility (1/GPa) = 0.02351766
#
# Stress axis : x y z
#
# Youngs Moduli (GPa) = 65.08432 65.08432 21.28574
#
# Poissons Ratio (x) = 0.03595 0.28250
# Poissons Ratio (y) = 0.03595 0.28250
# Poissons Ratio (z) = 0.86378 0.86378
#
# Static dielectric constant tensor:
#      x y z
#    x 1.605870 0.000000 0.000000 
#    y 0.000000 1.605870 0.000000 
#    z 0.000000 0.000000 1.586760 
# 
# From -- ./inp_files/1384.got.cif
#   From: 2010.05.17/outbox.cif.g08.bks.cpg/sg84_1_cif.got.tgz:1384.got - 2010.06.03 18:57:40.
