data_PCOD9544572
_publ_section_title
;
Structure prediction by ZEFSAII (Michael W. Deem and Ramdas Pophale) SiO2 
 PCOD9544572
Probable space group: P 4/N
;
_chemical_formula_sum "Si O2"
_cell_formula_units_Z 32
_cell_length_a 10.035380
_cell_length_b 10.035380
_cell_length_c 12.812055
_cell_angle_alpha 90.000000
_cell_angle_beta 90.000000
_cell_angle_gamma 90.000000
_cell_volume 1290.287348
_symmetry_space_group_name_H-M "P 4/N"
_symmetry_group_IT_number 85
_symmetry_cell_setting 'tetragonal'
loop_
_space_group_symop_operation_xyz
x,y,z
1/2-y,x,z
1/2-x,1/2-y,z
y,1/2-x,z
-x,-y,-z
1/2+y,-x,-z
1/2+x,1/2+y,-z
-y,1/2+x,-z
loop_
_atom_site_type_symbol
_atom_site_label
_atom_site_fract_x
_atom_site_fract_y
_atom_site_fract_z
Si Si1 0.445760 0.146633 0.414739
Si Si2 0.715815 0.101037 0.276368
Si Si3 0.610723 0.099579 0.041593
Si Si4 0.105386 0.065677 0.660628
O O1 0.422392 0.302622 0.396489
O O2 0.564808 0.076476 0.349852
O O3 0.473714 0.128736 0.538195
O O4 0.750000 0.250000 0.319334
O O5 0.852110 0.404856 0.163574
O O6 0.877098 0.058214 0.261261
O O7 0.749565 0.070643 0.983721
O O8 0.721628 0.927570 0.316693
O O9 0.500000 0.000000 0.000000
#
# Coordination Sequence:
#
# PCOD9544572 Si02
#       4
#     8   8   8   8
#     4  10  20  40  59  88 138 178 227 275 334 391
#     4  12  24  42  68  99 134 172 234 283 344 423
#     4  11  24  48  74 104 140 182 227 294 368 431
#     4  11  23  38  63 100 130 181 226 280 335 399
#
# _framework density 24.800677
#
# number of rings (size 3 to 8) (size 9 to 14) (size 15 to 20)
#    0.000    1.000    5.000    3.000    0.000    1.000 
#    0.000    2.500    0.000    0.000    0.000    0.000 
#    0.000    0.000    0.000    0.000    0.000    0.000 
#
# Total GULP energy -178351.070002 kJ/mol
# GULP energy per Si atom -5573.470938 kJ/mol
# Density = 2.474423 g / cm^3
# Si number density = 24.800677 Si / 1000 Ang^3
#
#
#
# Elastic Constant Matrix: (Units=GPa)
#
#
# Indices 1 2 3 4 5 6 
#
# 1 191.5703 134.0727 69.0547 0.0000 0.0000 4.2048
# 2 134.0727 191.5703 69.0547 0.0000 0.0000 -4.2048
# 3 69.0547 69.0547 177.1100 0.0000 0.0000 0.0000
# 4 0.0000 0.0000 0.0000 38.6508 0.0000 0.0000
# 5 0.0000 0.0000 0.0000 0.0000 38.6508 0.0000
# 6 4.2048 -4.2048 0.0000 0.0000 0.0000 87.4570
#
#
#
# Elastic Compliance Matrix: (Units=1/GPa)
#
#
# Indices 1 2 3 4 5 6 
#
# 1 0.010597 -0.006918 -0.001435 0.000000 0.000000 -0.000842
# 2 -0.006918 0.010597 -0.001435 0.000000 0.000000 0.000842
# 3 -0.001435 -0.001435 0.006765 0.000000 0.000000 0.000000
# 4 0.000000 0.000000 0.000000 0.025873 0.000000 0.000000
# 5 0.000000 0.000000 0.000000 0.000000 0.025873 0.000000
# 6 -0.000842 0.000842 0.000000 0.000000 0.000000 0.011515
#
#
# Mechanical properties :
#
#
# Convention : Reuss Voigt Hill
#
# Bulk Modulus (GPa) = 119.25732 122.73497 120.99615
# Shear Modulus (GPa) = 44.01833 52.15627 48.08730
#
# Velocity S-wave (km/s) = 4.21751 4.59084 4.40813
# Velocity P-wave (km/s) = 8.47981 8.81460 8.64882
#
# Compressibility (1/GPa) = 0.00838523
#
# Stress axis : x y z
#
# Youngs Moduli (GPa) = 94.36429 94.36429 147.82305
#
# Poissons Ratio (x) = 0.65281 0.21206
# Poissons Ratio (y) = 0.65281 0.21206
# Poissons Ratio (z) = 0.13537 0.13537
#
# Static dielectric constant tensor:
#      x y z
#    x 2.127520 0.000000 0.000000 
#    y 0.000000 2.127520 0.000000 
#    z 0.000000 0.000000 1.909990 
# 
# From -- ./inp_files/1411.got.cif
#   From: 2010.05.17/outbox.cif.g08.bks.cpg/sg85_cif.got.tgz:1411.got - 2010.06.03 19:01:16.
