data_PCOD9544075
_publ_section_title
;
Structure prediction by ZEFSAII (Michael W. Deem and Ramdas Pophale) SiO2 
 PCOD9544075
Probable space group: P 42/M
;
_chemical_formula_sum "Si O2"
_cell_formula_units_Z 40
_cell_length_a 16.417209
_cell_length_b 16.417209
_cell_length_c 7.903194
_cell_angle_alpha 90.000000
_cell_angle_beta 90.000000
_cell_angle_gamma 90.000000
_cell_volume 2130.106398
_symmetry_space_group_name_H-M "P 42/M"
_symmetry_group_IT_number 84
_symmetry_cell_setting 'tetragonal'
loop_
_space_group_symop_operation_xyz
x,y,z
-y,x,1/2+z
-x,-y,z
y,-x,1/2+z
-x,-y,-z
y,-x,1/2-z
x,y,-z
-y,x,1/2-z
loop_
_atom_site_type_symbol
_atom_site_label
_atom_site_fract_x
_atom_site_fract_y
_atom_site_fract_z
Si Si1 0.426759 0.606650 0.696591
Si Si2 0.864438 0.495591 0.000000
Si Si3 0.719029 0.081375 0.801581
Si Si4 0.900138 0.076882 0.807531
Si Si5 0.004405 0.635917 0.000000
Si Si6 0.420997 0.784249 0.808602
O O1 0.525000 0.604272 0.714011
O O2 0.404275 0.602607 0.500000
O O3 0.397968 0.690792 0.776755
O O4 0.811758 0.514525 0.166591
O O5 0.936441 0.563711 0.000000
O O6 0.908955 0.408874 0.000000
O O7 0.811064 0.106118 0.755332
O O8 0.687663 0.014157 0.668744
O O9 0.657000 0.156947 0.789158
O O10 0.719643 0.055185 0.000000
O O11 0.978256 0.102592 0.700800
O O12 0.916047 0.102683 0.000000
O O13 0.452116 0.794140 0.000000
#
# Coordination Sequence:
#
# PCOD9544075 Si02
#       6
#     8   4   8   8   4   8
#     4  11  21  36  57  84 111 145 191 229 274 332
#     4   9  18  34  52  85 102 146 185 222 270 338
#     4   9  20  35  55  81 111 147 185 227 280 332
#     4  10  20  34  54  81 107 142 188 228 274 329
#     4   9  18  32  58  75 110 142 185 222 274 324
#     4  10  19  36  57  80 113 147 183 232 279 326
#
# _framework density 18.778406
#
# number of rings (size 3 to 8) (size 9 to 14) (size 15 to 20)
#    0.000    2.200    1.000    3.600    2.800    0.800 
#    0.000    6.000    0.000    2.400    0.000    0.000 
#    0.000    0.000    0.000    0.000    0.000    0.000 
#
# Total GULP energy -223090.536162 kJ/mol
# GULP energy per Si atom -5577.263404 kJ/mol
# Density = 1.873567 g / cm^3
# Si number density = 18.778406 Si / 1000 Ang^3
#
#
#
# Elastic Constant Matrix: (Units=GPa)
#
#
# Indices 1 2 3 4 5 6 
#
# 1 47.0371 3.7012 16.4183 0.0000 0.0000 -0.1603
# 2 3.7012 47.0371 16.4183 0.0000 0.0000 0.1603
# 3 16.4183 16.4183 83.7451 0.0000 0.0000 0.0000
# 4 0.0000 0.0000 0.0000 17.0280 0.0000 0.0000
# 5 0.0000 0.0000 0.0000 0.0000 17.0280 0.0000
# 6 -0.1603 0.1603 0.0000 0.0000 0.0000 6.1292
#
#
#
# Elastic Compliance Matrix: (Units=1/GPa)
#
#
# Indices 1 2 3 4 5 6 
#
# 1 0.022827 -0.000253 -0.004425 0.000000 0.000000 0.000604
# 2 -0.000253 0.022827 -0.004425 0.000000 0.000000 -0.000604
# 3 -0.004425 -0.004425 0.013676 0.000000 0.000000 0.000000
# 4 0.000000 0.000000 0.000000 0.058727 0.000000 0.000000
# 5 0.000000 0.000000 0.000000 0.000000 0.058727 0.000000
# 6 0.000604 -0.000604 0.000000 0.000000 0.000000 0.163184
#
#
# Mechanical properties :
#
#
# Convention : Reuss Voigt Hill
#
# Bulk Modulus (GPa) = 24.31878 27.87719 26.09799
# Shear Modulus (GPa) = 13.44512 17.45583 15.45048
#
# Velocity S-wave (km/s) = 2.67870 3.05219 2.87152
# Velocity P-wave (km/s) = 4.74824 5.22482 4.99222
#
# Compressibility (1/GPa) = 0.04112048
#
# Stress axis : x y z
#
# Youngs Moduli (GPa) = 43.80867 43.80867 73.11966
#
# Poissons Ratio (x) = 0.01111 0.32359
# Poissons Ratio (y) = 0.01111 0.32359
# Poissons Ratio (z) = 0.19387 0.19387
#
# Static dielectric constant tensor:
#      x y z
#    x 1.646220 0.000000 0.000000 
#    y 0.000000 1.646220 0.000000 
#    z 0.000000 0.000000 1.649620 
# 
# From -- ./inp_files/839.got.cif
#   From: 2010.05.17/outbox.cif.g08.bks.cpg/sg84_1_cif.got.tgz:839.got - 2010.06.03 18:57:40.
