data_PCOD9544308
_publ_section_title
;
Structure prediction by ZEFSAII (Michael W. Deem and Ramdas Pophale) SiO2 
 PCOD9544308
Probable space group: P 42/M
;
_chemical_formula_sum "Si O2"
_cell_formula_units_Z 56
_cell_length_a 10.600416
_cell_length_b 10.600416
_cell_length_c 21.565209
_cell_angle_alpha 90.000000
_cell_angle_beta 90.000000
_cell_angle_gamma 90.000000
_cell_volume 2423.257075
_symmetry_space_group_name_H-M "P 42/M"
_symmetry_group_IT_number 84
_symmetry_cell_setting 'tetragonal'
loop_
_space_group_symop_operation_xyz
x,y,z
-y,x,1/2+z
-x,-y,z
y,-x,1/2+z
-x,-y,-z
y,-x,1/2-z
x,y,-z
-y,x,1/2-z
loop_
_atom_site_type_symbol
_atom_site_label
_atom_site_fract_x
_atom_site_fract_y
_atom_site_fract_z
Si Si1 0.173161 0.667872 0.257222
Si Si2 0.330030 0.051802 0.365039
Si Si3 0.094763 0.115019 0.565603
Si Si4 0.455839 0.298795 0.071957
Si Si5 0.191287 0.435264 0.925555
Si Si6 0.402225 0.783199 0.818778
Si Si7 0.950107 0.330297 0.378686
O O1 0.059546 0.651900 0.208332
O O2 0.218037 0.529449 0.278238
O O3 0.285697 0.738340 0.222275
O O4 0.125658 0.730776 0.320810
O O5 0.193555 0.105190 0.380128
O O6 0.432943 0.145017 0.396185
O O7 0.343276 0.914155 0.395399
O O8 0.165394 0.114657 0.500000
O O9 0.009455 0.235906 0.572856
O O10 0.000000 0.000000 0.567434
O O11 0.333953 0.387013 0.086136
O O12 0.568185 0.307612 0.121965
O O13 0.409409 0.154741 0.084097
O O14 0.492188 0.317712 0.000000
O O15 0.175655 0.437966 0.000000
O O16 0.386454 0.925444 0.844964
#
# Coordination Sequence:
#
# PCOD9544308 Si02
#       7
#     8   8   8   8   8   8   8
#     4  11  26  44  67  94 135 175 230 278 341 409
#     4  11  22  40  67  99 137 182 224 286 341 410
#     4  11  23  42  67 101 139 178 225 281 351 421
#     4  10  22  43  71 101 136 179 230 284 342 413
#     4  10  22  40  68 101 133 179 227 278 342 407
#     4  11  26  47  66 103 131 183 230 285 345 417
#     4  11  24  43  65 100 137 173 231 279 344 416
#
# _framework density 23.109394999999999
#
# number of rings (size 3 to 8) (size 9 to 14) (size 15 to 20)
#    0.000    1.286    1.429    4.714    8.000    5.429 
#    0.000    0.000    0.000    1.714    0.000    0.000 
#    0.000    0.000    0.000    0.000    0.000    0.000 
#
# Total GULP energy -312986.501942 kJ/mol
# GULP energy per Si atom -5589.044678 kJ/mol
# Density = 2.305680 g / cm^3
# Si number density = 23.109395 Si / 1000 Ang^3
#
#
#
# Elastic Constant Matrix: (Units=GPa)
#
#
# Indices 1 2 3 4 5 6 
#
# 1 59.9013 13.5088 13.6626 0.0000 0.0000 2.6274
# 2 13.5088 59.9013 13.6626 0.0000 0.0000 -2.6274
# 3 13.6626 13.6626 123.3319 0.0000 0.0000 0.0000
# 4 0.0000 0.0000 0.0000 34.6421 0.0000 0.0000
# 5 0.0000 0.0000 0.0000 0.0000 34.6421 0.0000
# 6 2.6274 -2.6274 0.0000 0.0000 0.0000 23.9178
#
#
#
# Elastic Compliance Matrix: (Units=1/GPa)
#
#
# Indices 1 2 3 4 5 6 
#
# 1 0.018017 -0.003809 -0.001574 0.000000 0.000000 -0.002398
# 2 -0.003809 0.018017 -0.001574 0.000000 0.000000 0.002398
# 3 -0.001574 -0.001574 0.008457 0.000000 0.000000 0.000000
# 4 0.000000 0.000000 0.000000 0.028867 0.000000 0.000000
# 5 0.000000 0.000000 0.000000 0.000000 0.028867 0.000000
# 6 -0.002398 0.002398 0.000000 0.000000 0.000000 0.042337
#
#
# Mechanical properties :
#
#
# Convention : Reuss Voigt Hill
#
# Bulk Modulus (GPa) = 32.70425 36.08916 34.39671
# Shear Modulus (GPa) = 29.64394 32.12711 30.88552
#
# Velocity S-wave (km/s) = 3.58546 3.73261 3.65977
# Velocity P-wave (km/s) = 5.59672 5.85039 5.72496
#
# Compressibility (1/GPa) = 0.03057706
#
# Stress axis : x y z
#
# Youngs Moduli (GPa) = 55.50197 55.50197 118.24634
#
# Poissons Ratio (x) = 0.21143 0.18611
# Poissons Ratio (y) = 0.21143 0.18611
# Poissons Ratio (z) = 0.08736 0.08736
#
# Static dielectric constant tensor:
#      x y z
#    x 1.880610 0.000000 0.000000 
#    y 0.000000 1.880610 0.000000 
#    z 0.000000 0.000000 1.843670 
# 
# From -- ./inp_files/4484.got.cif
#   From: 2010.05.17/outbox.cif.g08.bks.cpg/sg84_3_cif.got.tgz:4484.got - 2010.06.03 18:57:40.
