data_PCOD9544289
_publ_section_title
;
Structure prediction by ZEFSAII (Michael W. Deem and Ramdas Pophale) SiO2 
 PCOD9544289
Probable space group: P 42/M
;
_chemical_formula_sum "Si O2"
_cell_formula_units_Z 48
_cell_length_a 9.662935
_cell_length_b 9.662935
_cell_length_c 28.525431
_cell_angle_alpha 90.000000
_cell_angle_beta 90.000000
_cell_angle_gamma 90.000000
_cell_volume 2663.485466
_symmetry_space_group_name_H-M "P 42/M"
_symmetry_group_IT_number 84
_symmetry_cell_setting 'tetragonal'
loop_
_space_group_symop_operation_xyz
x,y,z
-y,x,1/2+z
-x,-y,z
y,-x,1/2+z
-x,-y,-z
y,-x,1/2-z
x,y,-z
-y,x,1/2-z
loop_
_atom_site_type_symbol
_atom_site_label
_atom_site_fract_x
_atom_site_fract_y
_atom_site_fract_z
Si Si1 0.910184 0.361554 0.500000
Si Si2 0.013916 0.163973 0.316210
Si Si3 0.164560 0.471633 0.194428
Si Si4 0.358334 0.089365 0.897538
Si Si5 0.641350 0.584317 0.000000
Si Si6 0.419813 0.646483 0.395451
Si Si7 0.788108 0.251398 0.756200
O O1 0.937577 0.296020 0.449517
O O2 0.747135 0.393433 0.500000
O O3 0.000000 0.500000 0.500000
O O4 0.955880 0.248448 0.359353
O O5 0.929281 0.213409 0.270526
O O6 0.169822 0.207426 0.305089
O O7 0.000000 0.000000 0.321870
O O8 0.247988 0.465133 0.145422
O O9 0.197073 0.329990 0.221685
O O10 0.219757 0.589712 0.229734
O O11 0.000000 0.500000 0.187818
O O12 0.382441 0.254263 0.891824
O O13 0.500000 0.000000 0.892682
O O14 0.500000 0.500000 0.000000
O O15 0.705577 0.555422 0.051455
O O16 0.500000 0.500000 0.390925
#
# Coordination Sequence:
#
# PCOD9544289 Si02
#       7
#     4   8   8   8   4   8   8
#     4   8  16  36  57  88 116 146 188 244 287 342
#     4  12  22  41  59  83 115 161 198 230 287 356
#     4  12  26  41  59  86 119 151 197 244 285 342
#     4  10  22  37  64  89 118 152 196 240 295 346
#     4   8  16  36  61  82 116 150 184 232 295 352
#     4  10  22  39  61  91 117 150 192 242 294 343
#     4  12  25  41  60  81 120 157 194 237 291 343
#
# _framework density 18.0215
#
# number of rings (size 3 to 8) (size 9 to 14) (size 15 to 20)
#    0.000    1.333    5.000    0.000    7.000    0.000 
#    0.000    0.833    0.000    0.000    0.000    0.000 
#    0.000    0.000    0.000    0.000    0.000    0.000 
#
# Total GULP energy -267528.373776 kJ/mol
# GULP energy per Si atom -5573.507787 kJ/mol
# Density = 1.798048 g / cm^3
# Si number density = 18.021500 Si / 1000 Ang^3
#
#
#
# Elastic Constant Matrix: (Units=GPa)
#
#
# Indices 1 2 3 4 5 6 
#
# 1 56.3214 16.4839 39.4637 0.0000 0.0000 3.0471
# 2 16.4839 56.3214 39.4637 0.0000 0.0000 -3.0471
# 3 39.4637 39.4637 131.3578 0.0000 0.0000 0.0000
# 4 0.0000 0.0000 0.0000 -3.4840 0.0000 0.0000
# 5 0.0000 0.0000 0.0000 0.0000 -3.4840 0.0000
# 6 3.0471 -3.0471 0.0000 0.0000 0.0000 20.0498
#
#
#
# Elastic Compliance Matrix: (Units=1/GPa)
#
#
# Indices 1 2 3 4 5 6 
#
# 1 0.023034 -0.002665 -0.006120 0.000000 0.000000 -0.003906
# 2 -0.002665 0.023034 -0.006120 0.000000 0.000000 0.003906
# 3 -0.006120 -0.006120 0.011290 0.000000 0.000000 0.000000
# 4 0.000000 0.000000 0.000000 -0.287029 0.000000 0.000000
# 5 0.000000 0.000000 0.000000 0.000000 -0.287029 0.000000
# 6 -0.003906 0.003906 0.000000 0.000000 0.000000 0.051063
#
#
# Mechanical properties :
#
#
# Convention : Reuss Voigt Hill
#
# Bulk Modulus (GPa) = 36.29713 48.31370 42.30542
# Shear Modulus (GPa) = -11.71934 12.52231 0.40149
#
# Velocity S-wave (km/s) = -2.55286 2.63887 0.47251
# Velocity P-wave (km/s) = 3.39047 6.01265 4.88094
#
# Compressibility (1/GPa) = 0.02755038
#
# Stress axis : x y z
#
# Youngs Moduli (GPa) = 43.41319 43.41319 88.57557
#
# Poissons Ratio (x) = 0.11570 0.54205
# Poissons Ratio (y) = 0.11570 0.54205
# Poissons Ratio (z) = 0.26567 0.26567
#
# Static dielectric constant tensor:
#      x y z
#    x 1.561400 0.000000 0.000000 
#    y 0.000000 1.561400 0.000000 
#    z 0.000000 0.000000 1.649380 
# 
# From -- ./inp_files/5862.got.cif
#   From: 2010.05.17/outbox.cif.g08.bks.cpg/sg84_3_cif.got.tgz:5862.got - 2010.06.03 18:57:40.
