data_PCOD9544625
_publ_section_title
;
Structure prediction by ZEFSAII (Michael W. Deem and Ramdas Pophale) SiO2 
 PCOD9544625
Probable space group: P 4/N
;
_chemical_formula_sum "Si O2"
_cell_formula_units_Z 56
_cell_length_a 11.354270
_cell_length_b 11.354270
_cell_length_c 19.953838
_cell_angle_alpha 90.000000
_cell_angle_beta 90.000000
_cell_angle_gamma 90.000000
_cell_volume 2572.437765
_symmetry_space_group_name_H-M "P 4/N"
_symmetry_group_IT_number 85
_symmetry_cell_setting 'tetragonal'
loop_
_space_group_symop_operation_xyz
x,y,z
1/2-y,x,z
1/2-x,1/2-y,z
y,1/2-x,z
-x,-y,-z
1/2+y,-x,-z
1/2+x,1/2+y,-z
-y,1/2+x,-z
loop_
_atom_site_type_symbol
_atom_site_label
_atom_site_fract_x
_atom_site_fract_y
_atom_site_fract_z
Si Si1 0.008398 0.998294 0.613693
Si Si2 0.823203 0.565773 0.712535
Si Si3 0.150518 0.422324 0.733669
Si Si4 0.351235 0.078635 0.881948
Si Si5 0.653816 0.078889 0.992914
Si Si6 0.066327 0.173446 0.138160
Si Si7 0.661297 0.427694 0.501580
O O1 0.013123 0.875836 0.654329
O O2 0.118533 0.001432 0.562967
O O3 0.893856 0.009902 0.566656
O O4 0.009014 0.097629 0.670949
O O5 0.896748 0.687861 0.707444
O O6 0.842915 0.516594 0.787099
O O7 0.095156 0.290889 0.729978
O O8 0.121998 0.472175 0.807900
O O9 0.403543 0.209827 0.884941
O O10 0.386640 0.002911 0.945870
O O11 0.596694 0.206252 0.997539
O O12 0.639692 0.020422 0.920686
O O13 0.189116 0.103048 0.132103
O O14 0.799835 0.403065 0.502813
#
# Coordination Sequence:
#
# PCOD9544625 Si02
#       7
#     8   8   8   8   8   8   8
#     4  11  20  34  60  83 106 146 184 217 266 318
#     4   9  19  35  55  82 111 137 177 230 273 317
#     4   9  19  35  55  82 111 137 177 230 273 317
#     4   9  19  36  57  79 104 138 181 227 275 325
#     4  11  24  37  50  76 112 145 182 227 268 314
#     4   9  19  36  57  79 104 138 181 227 275 325
#     4  10  22  38  54  80 116 148 180 216 258 318
#
# _framework density 21.769233
#
# number of rings (size 3 to 8) (size 9 to 14) (size 15 to 20)
#    0.000    2.286    0.000    4.286    0.000    8.000 
#    0.000    0.000    0.000   10.286    0.000    0.000 
#    0.000    0.000    0.000    0.000    0.000    0.000 
#
# Total GULP energy -313105.345549 kJ/mol
# GULP energy per Si atom -5591.166885 kJ/mol
# Density = 2.171968 g / cm^3
# Si number density = 21.769233 Si / 1000 Ang^3
#
#
#
# Elastic Constant Matrix: (Units=GPa)
#
#
# Indices 1 2 3 4 5 6 
#
# 1 47.5336 -8.4792 26.9902 0.0000 0.0000 -4.9124
# 2 -8.4792 47.5336 26.9902 0.0000 0.0000 4.9124
# 3 26.9902 26.9902 175.8097 0.0000 0.0000 0.0000
# 4 0.0000 0.0000 0.0000 15.4042 0.0000 0.0000
# 5 0.0000 0.0000 0.0000 0.0000 15.4042 0.0000
# 6 -4.9124 4.9124 0.0000 0.0000 0.0000 21.8135
#
#
#
# Elastic Compliance Matrix: (Units=1/GPa)
#
#
# Indices 1 2 3 4 5 6 
#
# 1 0.025545 0.006957 -0.004990 0.000000 0.000000 0.004186
# 2 0.006957 0.025545 -0.004990 0.000000 0.000000 -0.004186
# 3 -0.004990 -0.004990 0.007220 0.000000 0.000000 0.000000
# 4 0.000000 0.000000 0.000000 0.064917 0.000000 0.000000
# 5 0.000000 0.000000 0.000000 0.000000 0.064917 0.000000
# 6 0.004186 -0.004186 0.000000 0.000000 0.000000 0.047729
#
#
# Mechanical properties :
#
#
# Convention : Reuss Voigt Hill
#
# Bulk Modulus (GPa) = 19.13317 40.20881 29.67099
# Shear Modulus (GPa) = 19.27982 25.54940 22.41461
#
# Velocity S-wave (km/s) = 2.97921 3.42957 3.21229
# Velocity P-wave (km/s) = 4.54339 5.84749 5.23620
#
# Compressibility (1/GPa) = 0.05226524
#
# Stress axis : x y z
#
# Youngs Moduli (GPa) = 39.14715 39.14715 138.50423
#
# Poissons Ratio (x) = -0.27236 0.69109
# Poissons Ratio (y) = -0.27236 0.69109
# Poissons Ratio (z) = 0.19533 0.19533
#
# Static dielectric constant tensor:
#      x y z
#    x 1.792850 0.000000 0.000000 
#    y 0.000000 1.792850 0.000000 
#    z 0.000000 0.000000 1.784170 
# 
# From -- ./inp_files/2256.got.cif
#   From: 2010.05.17/outbox.cif.g08.bks.cpg/sg85_cif.got.tgz:2256.got - 2010.06.03 19:01:16.
