data_PCOD9544022
_publ_section_title
;
Structure prediction by ZEFSAII (Michael W. Deem and Ramdas Pophale) SiO2 
 PCOD9544022
Probable space group: P 42/M
;
_chemical_formula_sum "Si O2"
_cell_formula_units_Z 38
_cell_length_a 12.729038
_cell_length_b 12.729038
_cell_length_c 13.756303
_cell_angle_alpha 90.000000
_cell_angle_beta 90.000000
_cell_angle_gamma 90.000000
_cell_volume 2228.911881
_symmetry_space_group_name_H-M "P 42/M"
_symmetry_group_IT_number 84
_symmetry_cell_setting 'tetragonal'
loop_
_space_group_symop_operation_xyz
x,y,z
-y,x,1/2+z
-x,-y,z
y,-x,1/2+z
-x,-y,-z
y,-x,1/2-z
x,y,-z
-y,x,1/2-z
loop_
_atom_site_type_symbol
_atom_site_label
_atom_site_fract_x
_atom_site_fract_y
_atom_site_fract_z
Si Si1 0.119663 0.103808 0.706232
Si Si2 0.696396 0.755772 0.210754
Si Si3 0.500000 0.500000 0.250000
Si Si4 0.056855 0.203269 0.500000
Si Si5 0.465043 0.727286 0.200952
Si Si6 0.847487 0.560763 0.500000
Si Si7 0.321507 0.152405 0.000000
O O1 0.223940 0.164093 0.739198
O O2 0.090065 0.140558 0.597172
O O3 0.020803 0.133191 0.776128
O O4 0.575012 0.768045 0.245305
O O5 0.734933 0.638002 0.232969
O O6 0.690026 0.779702 0.096747
O O7 0.484811 0.603421 0.186391
O O8 0.101343 0.323171 0.500000
O O9 0.933401 0.229361 0.500000
O O10 0.442198 0.781765 0.099294
O O11 0.896999 0.440992 0.500000
#
# Coordination Sequence:
#
# PCOD9544022 Si02
#       7
#     8   8   2   4   8   4   4
#     4  11  24  39  59  84 116 151 191 238 289 336
#     4  10  19  38  55  87 116 154 186 238 285 342
#     4   8  16  30  48  80 120 154 184 230 280 344
#     4  12  21  38  60  87 111 150 198 245 280 342
#     4   9  18  32  56  81 120 149 188 231 289 340
#     4  10  19  31  55  88 111 146 193 241 286 335
#     4  10  21  35  60  84 117 149 196 237 289 341
#
# _framework density 17.048676
#
# number of rings (size 3 to 8) (size 9 to 14) (size 15 to 20)
#    0.000    1.895    4.211    0.316    0.000    2.947 
#    0.000    8.421    0.000    0.000    0.000    2.947 
#    0.000    0.000    0.000    0.000    0.000    0.000 
#
# Total GULP energy -211544.967614 kJ/mol
# GULP energy per Si atom -5566.972832 kJ/mol
# Density = 1.700987 g / cm^3
# Si number density = 17.048676 Si / 1000 Ang^3
#
#
#
# Elastic Constant Matrix: (Units=GPa)
#
#
# Indices 1 2 3 4 5 6 
#
# 1 70.5958 37.1776 28.8805 0.0000 0.0000 7.9004
# 2 37.1776 70.5958 28.8805 0.0000 0.0000 -7.9004
# 3 28.8805 28.8805 92.0353 0.0000 0.0000 0.0000
# 4 0.0000 0.0000 0.0000 22.8085 0.0000 0.0000
# 5 0.0000 0.0000 0.0000 0.0000 22.8085 0.0000
# 6 7.9004 -7.9004 0.0000 0.0000 0.0000 30.1679
#
#
#
# Elastic Compliance Matrix: (Units=1/GPa)
#
#
# Indices 1 2 3 4 5 6 
#
# 1 0.022654 -0.011499 -0.003500 0.000000 0.000000 -0.008944
# 2 -0.011499 0.022654 -0.003500 0.000000 0.000000 0.008944
# 3 -0.003500 -0.003500 0.013062 0.000000 0.000000 0.000000
# 4 0.000000 0.000000 0.000000 0.043843 0.000000 0.000000
# 5 0.000000 0.000000 0.000000 0.000000 0.043843 0.000000
# 6 -0.008944 0.008944 0.000000 0.000000 0.000000 0.037832
#
#
# Mechanical properties :
#
#
# Convention : Reuss Voigt Hill
#
# Bulk Modulus (GPa) = 46.79386 47.01155 46.90271
# Shear Modulus (GPa) = 21.92875 24.37621 23.15248
#
# Velocity S-wave (km/s) = 3.59031 3.78537 3.68913
# Velocity P-wave (km/s) = 6.68535 6.83668 6.76144
#
# Compressibility (1/GPa) = 0.02137032
#
# Stress axis : x y z
#
# Youngs Moduli (GPa) = 44.14291 44.14291 76.55684
#
# Poissons Ratio (x) = 0.50760 0.26797
# Poissons Ratio (y) = 0.50760 0.26797
# Poissons Ratio (z) = 0.15451 0.15451
#
# Static dielectric constant tensor:
#      x y z
#    x 1.603770 0.000000 0.000000 
#    y 0.000000 1.603770 0.000000 
#    z 0.000000 0.000000 1.533740 
# 
# From -- ./inp_files/2983.got.cif
#   From: 2010.05.17/outbox.cif.g08.bks.cpg/sg84_2_cif.got.tgz:2983.got - 2010.06.03 18:57:40.
