data_PCOD9544730
_publ_section_title
;
Structure prediction by ZEFSAII (Michael W. Deem and Ramdas Pophale) SiO2 
 PCOD9544730
Probable space group: P 4/N
;
_chemical_formula_sum "Si O2"
_cell_formula_units_Z 36
_cell_length_a 10.405243
_cell_length_b 10.405243
_cell_length_c 15.904611
_cell_angle_alpha 90.000000
_cell_angle_beta 90.000000
_cell_angle_gamma 90.000000
_cell_volume 1721.977631
_symmetry_space_group_name_H-M "P 4/N"
_symmetry_group_IT_number 85
_symmetry_cell_setting 'tetragonal'
loop_
_space_group_symop_operation_xyz
x,y,z
1/2-y,x,z
1/2-x,1/2-y,z
y,1/2-x,z
-x,-y,-z
1/2+y,-x,-z
1/2+x,1/2+y,-z
-y,1/2+x,-z
loop_
_atom_site_type_symbol
_atom_site_label
_atom_site_fract_x
_atom_site_fract_y
_atom_site_fract_z
Si Si1 0.750000 0.250000 0.500000
Si Si2 0.514627 0.858202 0.464908
Si Si3 0.750000 0.750000 0.542486
Si Si4 0.404943 0.116646 0.722498
Si Si5 0.102451 0.105306 0.027712
Si Si6 0.096663 0.111142 0.230484
O O1 0.706155 0.375859 0.448862
O O2 0.594492 0.773390 0.530717
O O3 0.592411 0.870044 0.378342
O O4 0.500000 0.000000 0.500000
O O5 0.426034 0.263332 0.752985
O O6 0.513549 0.013876 0.743769
O O7 0.248295 0.073385 0.999524
O O8 0.101558 0.110005 0.129137
O O9 0.000000 0.000000 0.000000
O O10 0.241404 0.075146 0.259436
#
# Coordination Sequence:
#
# PCOD9544730 Si02
#       6
#     2   8   2   8   8   8
#     4  12  24  36  64  88 108 148 196 238 292 352
#     4  12  23  40  60  85 113 147 191 239 291 346
#     4  12  20  44  60  76 120 148 180 238 304 332
#     4  11  22  40  59  81 114 151 188 237 288 339
#     4   9  19  37  60  85 119 153 188 231 279 330
#     4   9  21  41  59  83 117 153 189 233 281 335
#
# _framework density 20.906195
#
# number of rings (size 3 to 8) (size 9 to 14) (size 15 to 20)
#    0.000    1.556    4.444    1.333    0.000    6.667 
#    0.000    6.667    0.000    0.000    0.000    0.000 
#    0.000    0.000    0.000    0.000    0.000    0.000 
#
# Total GULP energy -200514.654998 kJ/mol
# GULP energy per Si atom -5569.851528 kJ/mol
# Density = 2.085861 g / cm^3
# Si number density = 20.906195 Si / 1000 Ang^3
#
#
#
# Elastic Constant Matrix: (Units=GPa)
#
#
# Indices 1 2 3 4 5 6 
#
# 1 174.5965 134.3901 17.5408 0.0000 0.0000 11.4881
# 2 134.3901 174.5965 17.5408 0.0000 0.0000 -11.4881
# 3 17.5408 17.5408 28.4384 0.0000 0.0000 0.0000
# 4 0.0000 0.0000 0.0000 25.1871 0.0000 0.0000
# 5 0.0000 0.0000 0.0000 0.0000 25.1871 0.0000
# 6 11.4881 -11.4881 0.0000 0.0000 0.0000 59.1937
#
#
#
# Elastic Compliance Matrix: (Units=1/GPa)
#
#
# Indices 1 2 3 4 5 6 
#
# 1 0.015727 -0.012247 -0.002147 0.000000 0.000000 -0.005429
# 2 -0.012247 0.015727 -0.002147 0.000000 0.000000 0.005429
# 3 -0.002147 -0.002147 0.037812 0.000000 0.000000 0.000000
# 4 0.000000 0.000000 0.000000 0.039703 0.000000 0.000000
# 5 0.000000 0.000000 0.000000 0.000000 0.039703 0.000000
# 6 -0.005429 0.005429 0.000000 0.000000 0.000000 0.019001
#
#
# Mechanical properties :
#
#
# Convention : Reuss Voigt Hill
#
# Bulk Modulus (GPa) = 27.63519 79.61942 53.62730
# Shear Modulus (GPa) = 23.49460 35.79087 29.64273
#
# Velocity S-wave (km/s) = 3.35596 4.14209 3.76958
# Velocity P-wave (km/s) = 5.31639 7.81298 6.68232
#
# Compressibility (1/GPa) = 0.03618574
#
# Stress axis : x y z
#
# Youngs Moduli (GPa) = 63.58433 63.58433 26.44690
#
# Poissons Ratio (x) = 0.77872 0.05677
# Poissons Ratio (y) = 0.77872 0.05677
# Poissons Ratio (z) = 0.13648 0.13648
#
# Static dielectric constant tensor:
#      x y z
#    x 1.787330 0.000000 0.000000 
#    y 0.000000 1.787330 0.000000 
#    z 0.000000 0.000000 1.819520 
# 
# From -- ./inp_files/2212.got.cif
#   From: 2010.05.17/outbox.cif.g08.bks.cpg/sg85_cif.got.tgz:2212.got - 2010.06.03 19:01:16.
