data_PCOD9544072
_publ_section_title
;
Structure prediction by ZEFSAII (Michael W. Deem and Ramdas Pophale) SiO2 
 PCOD9544072
Probable space group: P 42/M
;
_chemical_formula_sum "Si O2"
_cell_formula_units_Z 48
_cell_length_a 8.717996
_cell_length_b 8.717996
_cell_length_c 28.344207
_cell_angle_alpha 90.000000
_cell_angle_beta 90.000000
_cell_angle_gamma 90.000000
_cell_volume 2154.257640
_symmetry_space_group_name_H-M "P 42/M"
_symmetry_group_IT_number 84
_symmetry_cell_setting 'tetragonal'
loop_
_space_group_symop_operation_xyz
x,y,z
-y,x,1/2+z
-x,-y,z
y,-x,1/2+z
-x,-y,-z
y,-x,1/2-z
x,y,-z
-y,x,1/2-z
loop_
_atom_site_type_symbol
_atom_site_label
_atom_site_fract_x
_atom_site_fract_y
_atom_site_fract_z
Si Si1 0.093395 0.162929 0.554569
Si Si2 0.187309 0.204660 0.808001
Si Si3 0.321427 0.981044 0.393178
Si Si4 0.794382 0.325157 0.443591
Si Si5 0.099922 0.342673 0.709124
Si Si6 0.505192 0.682096 0.859842
O O1 0.130009 0.189723 0.500000
O O2 0.244842 0.129168 0.583395
O O3 0.971946 0.290906 0.569878
O O4 0.000000 0.000000 0.557372
O O5 0.172794 0.288920 0.758167
O O6 0.337667 0.268026 0.834118
O O7 0.049703 0.243604 0.842944
O O8 0.213259 0.023998 0.803381
O O9 0.500000 0.000000 0.386612
O O10 0.291432 0.831023 0.426416
O O11 0.783961 0.340791 0.500000
O O12 0.732999 0.468027 0.413872
O O13 0.226239 0.376213 0.669167
O O14 0.000000 0.500000 0.715336
O O15 0.500000 0.500000 0.856990
#
# Coordination Sequence:
#
# PCOD9544072 Si02
#       6
#     8   8   8   8   8   8
#     4   8  15  31  57  87 126 172 212 272 346 411
#     4  10  23  43  63  93 130 174 221 287 348 421
#     4  10  19  35  59  94 135 175 227 285 353 423
#     4   9  19  39  62  94 133 174 229 282 351 426
#     4  10  23  44  66  95 132 173 231 283 351 422
#     4  10  23  41  69  98 129 180 225 286 352 420
#
# _framework density 22.281457
#
# number of rings (size 3 to 8) (size 9 to 14) (size 15 to 20)
#    0.000    2.500    0.000    2.000    4.667    2.000 
#   18.000    3.333    0.000   13.500    0.000    0.000 
#    0.000    0.000    0.000    0.000    0.000    0.000 
#
# Total GULP energy -268446.728110 kJ/mol
# GULP energy per Si atom -5592.640169 kJ/mol
# Density = 2.223074 g / cm^3
# Si number density = 22.281457 Si / 1000 Ang^3
#
#
#
# Elastic Constant Matrix: (Units=GPa)
#
#
# Indices 1 2 3 4 5 6 
#
# 1 67.8298 19.9564 40.8255 0.0000 0.0000 0.8372
# 2 19.9564 67.8298 40.8255 0.0000 0.0000 -0.8372
# 3 40.8255 40.8255 128.8524 0.0000 0.0000 0.0000
# 4 0.0000 0.0000 0.0000 13.1980 0.0000 0.0000
# 5 0.0000 0.0000 0.0000 0.0000 13.1980 0.0000
# 6 0.8372 -0.8372 0.0000 0.0000 0.0000 17.2867
#
#
#
# Elastic Compliance Matrix: (Units=1/GPa)
#
#
# Indices 1 2 3 4 5 6 
#
# 1 0.018537 -0.002386 -0.005117 0.000000 0.000000 -0.001013
# 2 -0.002386 0.018537 -0.005117 0.000000 0.000000 0.001013
# 3 -0.005117 -0.005117 0.011004 0.000000 0.000000 0.000000
# 4 0.000000 0.000000 0.000000 0.075769 0.000000 0.000000
# 5 0.000000 0.000000 0.000000 0.000000 0.075769 0.000000
# 6 -0.001013 0.001013 0.000000 0.000000 0.000000 0.057946
#
#
# Mechanical properties :
#
#
# Convention : Reuss Voigt Hill
#
# Bulk Modulus (GPa) = 43.78981 51.96964 47.87973
# Shear Modulus (GPa) = 17.21669 19.59688 18.40678
#
# Velocity S-wave (km/s) = 2.78275 2.96888 2.87732
# Velocity P-wave (km/s) = 5.47911 5.92681 5.70735
#
# Compressibility (1/GPa) = 0.02283636
#
# Stress axis : x y z
#
# Youngs Moduli (GPa) = 53.94505 53.94505 90.88017
#
# Poissons Ratio (x) = 0.12874 0.46506
# Poissons Ratio (y) = 0.12874 0.46506
# Poissons Ratio (z) = 0.27605 0.27605
#
# Static dielectric constant tensor:
#      x y z
#    x 1.852930 0.000000 0.000000 
#    y 0.000000 1.852930 0.000000 
#    z 0.000000 0.000000 1.802120 
# 
# From -- ./inp_files/5791.got.cif
#   From: 2010.05.17/outbox.cif.g08.bks.cpg/sg84_3_cif.got.tgz:5791.got - 2010.06.03 18:57:40.
