data_PCOD9544292
_publ_section_title
;
Structure prediction by ZEFSAII (Michael W. Deem and Ramdas Pophale) SiO2 
 PCOD9544292
Probable space group: P 42/M
;
_chemical_formula_sum "Si O2"
_cell_formula_units_Z 40
_cell_length_a 8.741193
_cell_length_b 8.741193
_cell_length_c 24.897115
_cell_angle_alpha 90.000000
_cell_angle_beta 90.000000
_cell_angle_gamma 90.000000
_cell_volume 1902.350093
_symmetry_space_group_name_H-M "P 42/M"
_symmetry_group_IT_number 84
_symmetry_cell_setting 'tetragonal'
loop_
_space_group_symop_operation_xyz
x,y,z
-y,x,1/2+z
-x,-y,z
y,-x,1/2+z
-x,-y,-z
y,-x,1/2-z
x,y,-z
-y,x,1/2-z
loop_
_atom_site_type_symbol
_atom_site_label
_atom_site_fract_x
_atom_site_fract_y
_atom_site_fract_z
Si Si1 0.666051 0.578704 0.061284
Si Si2 0.867394 0.888833 0.637175
Si Si3 0.841755 0.798661 0.254156
Si Si4 0.614774 0.121857 0.654421
Si Si5 0.663940 0.947693 0.062996
O O1 0.500000 0.500000 0.066452
O O2 0.774587 0.531786 0.110306
O O3 0.665586 0.763676 0.067302
O O4 0.719266 0.544352 0.000000
O O5 0.805591 0.773299 0.683046
O O6 0.955309 0.795312 0.591952
O O7 0.737933 0.012877 0.623709
O O8 0.000000 0.000000 0.661307
O O9 0.789986 0.698062 0.203371
O O10 0.026522 0.787996 0.252677
O O11 0.500000 0.000000 0.679778
O O12 0.500000 0.000000 0.084721
O O13 0.671733 0.985240 0.000000
#
# Coordination Sequence:
#
# PCOD9544292 Si02
#       5
#     8   8   8   8   8
#     4  10  22  41  60  83 127 171 202 248 314 381
#     4  11  19  37  65  90 116 157 204 266 315 367
#     4   9  15  33  58  81 110 143 192 245 302 362
#     4  11  23  36  59  92 120 154 205 260 306 373
#     4  10  22  38  59  91 122 160 209 253 310 378
#
# _framework density 21.026622
#
# number of rings (size 3 to 8) (size 9 to 14) (size 15 to 20)
#    0.000    1.800    6.000    0.000    2.800    2.400 
#    0.000    0.000    0.000    0.000    0.000    0.000 
#    0.000    0.000    0.000    0.000    0.000    0.000 
#
# Total GULP energy -222688.043134 kJ/mol
# GULP energy per Si atom -5567.201078 kJ/mol
# Density = 2.097876 g / cm^3
# Si number density = 21.026622 Si / 1000 Ang^3
#
#
#
# Elastic Constant Matrix: (Units=GPa)
#
#
# Indices 1 2 3 4 5 6 
#
# 1 46.3498 15.2470 31.0046 0.0000 0.0000 3.0800
# 2 15.2470 46.3498 31.0046 0.0000 0.0000 -3.0800
# 3 31.0046 31.0046 108.1763 0.0000 0.0000 0.0000
# 4 0.0000 0.0000 0.0000 18.8324 0.0000 0.0000
# 5 0.0000 0.0000 0.0000 0.0000 18.8324 0.0000
# 6 3.0800 -3.0800 0.0000 0.0000 0.0000 33.7570
#
#
#
# Elastic Compliance Matrix: (Units=1/GPa)
#
#
# Indices 1 2 3 4 5 6 
#
# 1 0.027781 -0.004962 -0.006540 0.000000 0.000000 -0.002988
# 2 -0.004962 0.027781 -0.006540 0.000000 0.000000 0.002988
# 3 -0.006540 -0.006540 0.012993 0.000000 0.000000 0.000000
# 4 0.000000 0.000000 0.000000 0.053100 0.000000 0.000000
# 5 0.000000 0.000000 0.000000 0.000000 0.053100 0.000000
# 6 -0.002988 0.002988 0.000000 0.000000 0.000000 0.030169
#
#
# Mechanical properties :
#
#
# Convention : Reuss Voigt Hill
#
# Bulk Modulus (GPa) = 30.79785 39.48760 35.14273
# Shear Modulus (GPa) = 19.85455 22.52567 21.19011
#
# Velocity S-wave (km/s) = 3.07621 3.27661 3.17799
# Velocity P-wave (km/s) = 5.22459 5.75634 5.49690
#
# Compressibility (1/GPa) = 0.03246980
#
# Stress axis : x y z
#
# Youngs Moduli (GPa) = 35.99611 35.99611 76.96411
#
# Poissons Ratio (x) = 0.17863 0.50335
# Poissons Ratio (y) = 0.17863 0.50335
# Poissons Ratio (z) = 0.23542 0.23542
#
# Static dielectric constant tensor:
#      x y z
#    x 1.822430 0.000000 0.000000 
#    y 0.000000 1.822430 0.000000 
#    z 0.000000 0.000000 1.811800 
# 
# From -- ./inp_files/4849.got.cif
#   From: 2010.05.17/outbox.cif.g08.bks.cpg/sg84_3_cif.got.tgz:4849.got - 2010.06.03 18:57:40.
