data_PCOD9544903
_publ_section_title
;
Structure prediction by ZEFSAII (Michael W. Deem and Ramdas Pophale) SiO2 
 PCOD9544903
Probable space group: P 42/N
;
_chemical_formula_sum "Si O2"
_cell_formula_units_Z 36
_cell_length_a 9.225724
_cell_length_b 9.225724
_cell_length_c 17.218467
_cell_angle_alpha 90.000000
_cell_angle_beta 90.000000
_cell_angle_gamma 90.000000
_cell_volume 1465.532313
_symmetry_space_group_name_H-M "P 42/N"
_symmetry_group_IT_number 86
_space_group.IT_coordinate_system_code '2'
_symmetry_cell_setting 'tetragonal'
loop_
_space_group_symop_operation_xyz
x,y,z
-y,1/2+x,1/2+z
1/2-x,1/2-y,z
1/2+y,-x,1/2+z
-x,-y,-z
y,1/2-x,1/2-z
1/2+x,1/2+y,-z
1/2-y,x,1/2-z
loop_
_atom_site_type_symbol
_atom_site_label
_atom_site_fract_x
_atom_site_fract_y
_atom_site_fract_z
Si Si1 0.702726 0.894961 0.970693
Si Si2 0.677451 0.550229 0.213110
Si Si3 0.600543 0.182669 0.049419
Si Si4 0.250000 0.750000 0.724924
Si Si5 0.901351 0.434515 0.404172
O O1 0.750000 0.750000 0.012785
O O2 0.648088 0.022784 0.024418
O O3 0.850346 0.957957 0.934207
O O4 0.562421 0.847624 0.917655
O O5 0.600727 0.654649 0.278262
O O6 0.669409 0.380623 0.231866
O O7 0.591568 0.574967 0.133230
O O8 0.750000 0.250000 0.085127
O O9 0.575987 0.280200 0.971454
O O10 0.144797 0.663819 0.668016
#
# Coordination Sequence:
#
# PCOD9544903 Si02
#       5
#     8   8   8   4   8
#     4  10  20  37  59  91 124 162 213 249 314 360
#     4   9  20  39  64  92 115 160 215 254 321 383
#     4   9  19  38  62  86 125 174 205 253 303 379
#     4  10  18  40  64  88 126 156 206 270 308 376
#     4  10  19  40  62  91 127 164 202 266 315 369
#
# _framework density 24.564454000000001
#
# number of rings (size 3 to 8) (size 9 to 14) (size 15 to 20)
#    0.000    2.444    3.333    0.000    0.000    3.556 
#   16.000    2.222    0.000    0.000    0.000    0.000 
#    0.000    0.000    0.000    0.000    0.000    0.000 
#
# Total GULP energy -200739.458264 kJ/mol
# GULP energy per Si atom -5576.096063 kJ/mol
# Density = 2.450854 g / cm^3
# Si number density = 24.564454 Si / 1000 Ang^3
#
#
#
# Elastic Constant Matrix: (Units=GPa)
#
#
# Indices 1 2 3 4 5 6 
#
# 1 170.5969 54.7938 51.7141 0.0000 0.0000 7.8742
# 2 54.7938 170.5969 51.7141 0.0000 0.0000 -7.8742
# 3 51.7141 51.7141 82.3395 0.0000 0.0000 0.0000
# 4 0.0000 0.0000 0.0000 17.8897 0.0000 0.0000
# 5 0.0000 0.0000 0.0000 0.0000 17.8897 0.0000
# 6 7.8742 -7.8742 0.0000 0.0000 0.0000 32.9982
#
#
#
# Elastic Compliance Matrix: (Units=1/GPa)
#
#
# Indices 1 2 3 4 5 6 
#
# 1 0.007579 -0.001346 -0.003915 0.000000 0.000000 -0.002130
# 2 -0.001346 0.007579 -0.003915 0.000000 0.000000 0.002130
# 3 -0.003915 -0.003915 0.017062 0.000000 0.000000 0.000000
# 4 0.000000 0.000000 0.000000 0.055898 0.000000 0.000000
# 5 0.000000 0.000000 0.000000 0.000000 0.055898 0.000000
# 6 -0.002130 0.002130 0.000000 0.000000 0.000000 0.031321
#
#
# Mechanical properties :
#
#
# Convention : Reuss Voigt Hill
#
# Bulk Modulus (GPa) = 72.10095 82.21967 77.16031
# Shear Modulus (GPa) = 25.21282 31.44295 28.32788
#
# Velocity S-wave (km/s) = 3.20721 3.58162 3.39957
# Velocity P-wave (km/s) = 6.56738 7.11671 6.84756
#
# Compressibility (1/GPa) = 0.01386944
#
# Stress axis : x y z
#
# Youngs Moduli (GPa) = 131.94219 131.94219 58.60872
#
# Poissons Ratio (x) = 0.17758 0.22944
# Poissons Ratio (y) = 0.17758 0.22944
# Poissons Ratio (z) = 0.51653 0.51653
#
# Static dielectric constant tensor:
#      x y z
#    x 2.061530 0.000000 0.000000 
#    y 0.000000 2.061530 0.000000 
#    z 0.000000 0.000000 1.997720 
# 
# From -- ./inp_files/4003.got.cif
#   From: 2010.05.17/outbox.cif.g08.bks.cpg/sg86_3_cif.got.tgz:4003.got - 2010.06.03 19:03:11.
