data_PCOD9544325
_publ_section_title
;
Structure prediction by ZEFSAII (Michael W. Deem and Ramdas Pophale) SiO2 
 PCOD9544325
Probable space group: P 42/M
;
_chemical_formula_sum "Si O2"
_cell_formula_units_Z 40
_cell_length_a 8.336493
_cell_length_b 8.336493
_cell_length_c 23.283716
_cell_angle_alpha 90.000000
_cell_angle_beta 90.000000
_cell_angle_gamma 90.000000
_cell_volume 1618.151101
_symmetry_space_group_name_H-M "P 42/M"
_symmetry_group_IT_number 84
_symmetry_cell_setting 'tetragonal'
loop_
_space_group_symop_operation_xyz
x,y,z
-y,x,1/2+z
-x,-y,z
y,-x,1/2+z
-x,-y,-z
y,-x,1/2-z
x,y,-z
-y,x,1/2-z
loop_
_atom_site_type_symbol
_atom_site_label
_atom_site_fract_x
_atom_site_fract_y
_atom_site_fract_z
Si Si1 0.338153 0.914521 0.433434
Si Si2 0.246306 0.798435 0.934872
Si Si3 0.669720 0.881596 0.124509
Si Si4 0.602166 0.337160 0.826857
Si Si5 0.193332 0.146735 0.239707
O O1 0.368034 0.872162 0.500000
O O2 0.271351 0.760629 0.401459
O O3 0.500000 0.000000 0.411768
O O4 0.202794 0.053599 0.432187
O O5 0.300049 0.669962 0.886832
O O6 0.321046 0.973032 0.920432
O O7 0.292470 0.752995 0.000000
O O8 0.515951 0.810240 0.157595
O O9 0.763141 0.939286 0.179874
O O10 0.500000 0.500000 0.819712
O O11 0.714934 0.294430 0.771968
O O12 0.014528 0.203712 0.223220
#
# Coordination Sequence:
#
# PCOD9544325 Si02
#       5
#     8   8   8   8   8
#     4  10  22  43  71 107 146 194 253 314 379 450
#     4  11  24  46  75 107 152 203 261 315 375 466
#     4  12  25  42  71 106 145 196 249 315 385 457
#     4  12  28  48  71 111 153 196 248 315 403 465
#     4  11  26  48  75 102 142 194 259 318 372 463
#
# _framework density 24.719569
#
# number of rings (size 3 to 8) (size 9 to 14) (size 15 to 20)
#    0.000    0.800    2.000    4.200    5.600    4.400 
#    0.000    0.000    0.000    0.000    0.000    0.000 
#    0.000    0.000    0.000    0.000    0.000    0.000 
#
# Total GULP energy -223092.395406 kJ/mol
# GULP energy per Si atom -5577.309885 kJ/mol
# Density = 2.466331 g / cm^3
# Si number density = 24.719569 Si / 1000 Ang^3
#
#
#
# Elastic Constant Matrix: (Units=GPa)
#
#
# Indices 1 2 3 4 5 6 
#
# 1 103.7076 28.6996 32.7278 0.0000 0.0000 2.4048
# 2 28.6996 103.7076 32.7278 0.0000 0.0000 -2.4048
# 3 32.7278 32.7278 101.9005 0.0000 0.0000 0.0000
# 4 0.0000 0.0000 0.0000 114.4237 0.0000 0.0000
# 5 0.0000 0.0000 0.0000 0.0000 114.4237 0.0000
# 6 2.4048 -2.4048 0.0000 0.0000 0.0000 49.0604
#
#
#
# Elastic Compliance Matrix: (Units=1/GPa)
#
#
# Indices 1 2 3 4 5 6 
#
# 1 0.011176 -0.002198 -0.002883 0.000000 0.000000 -0.000656
# 2 -0.002198 0.011176 -0.002883 0.000000 0.000000 0.000656
# 3 -0.002883 -0.002883 0.011666 0.000000 0.000000 0.000000
# 4 0.000000 0.000000 0.000000 0.008739 0.000000 0.000000
# 5 0.000000 0.000000 0.000000 0.000000 0.008739 0.000000
# 6 -0.000656 0.000656 0.000000 0.000000 0.000000 0.020447
#
#
# Mechanical properties :
#
#
# Convention : Reuss Voigt Hill
#
# Bulk Modulus (GPa) = 55.28644 55.29178 55.28911
# Shear Modulus (GPa) = 53.24653 69.92561 61.58607
#
# Velocity S-wave (km/s) = 4.64618 5.32437 4.99680
# Velocity P-wave (km/s) = 7.15518 7.75982 7.46363
#
# Compressibility (1/GPa) = 0.01808762
#
# Stress axis : x y z
#
# Youngs Moduli (GPa) = 89.47803 89.47803 85.72157
#
# Poissons Ratio (x) = 0.19668 0.24718
# Poissons Ratio (y) = 0.19668 0.24718
# Poissons Ratio (z) = 0.25801 0.25801
#
# Static dielectric constant tensor:
#      x y z
#    x 2.126970 0.000000 0.000000 
#    y 0.000000 2.126970 0.000000 
#    z 0.000000 0.000000 2.107800 
# 
# From -- ./inp_files/4822.got.cif
#   From: 2010.05.17/outbox.cif.g08.bks.cpg/sg84_3_cif.got.tgz:4822.got - 2010.06.03 18:57:40.
