data_PCOD9544202
_publ_section_title
;
Structure prediction by ZEFSAII (Michael W. Deem and Ramdas Pophale) SiO2 
 PCOD9544202
Probable space group: P 42/M
;
_chemical_formula_sum "Si O2"
_cell_formula_units_Z 40
_cell_length_a 15.200875
_cell_length_b 15.200875
_cell_length_c 8.190332
_cell_angle_alpha 90.000000
_cell_angle_beta 90.000000
_cell_angle_gamma 90.000000
_cell_volume 1892.512174
_symmetry_space_group_name_H-M "P 42/M"
_symmetry_group_IT_number 84
_symmetry_cell_setting 'tetragonal'
loop_
_space_group_symop_operation_xyz
x,y,z
-y,x,1/2+z
-x,-y,z
y,-x,1/2+z
-x,-y,-z
y,-x,1/2-z
x,y,-z
-y,x,1/2-z
loop_
_atom_site_type_symbol
_atom_site_label
_atom_site_fract_x
_atom_site_fract_y
_atom_site_fract_z
Si Si1 0.896462 0.913173 0.189309
Si Si2 0.718789 0.387854 0.809534
Si Si3 0.751803 0.579177 0.804972
Si Si4 0.111205 0.701635 0.305938
Si Si5 0.592045 0.047453 0.697414
O O1 0.803210 0.874536 0.241460
O O2 0.981080 0.888073 0.293962
O O3 0.913100 0.890420 0.000000
O O4 0.712915 0.486768 0.741118
O O5 0.657882 0.314833 0.727940
O O6 0.819868 0.359279 0.787009
O O7 0.695717 0.388643 0.000000
O O8 0.851527 0.594393 0.744416
O O9 0.760442 0.568409 0.000000
O O10 0.126085 0.694678 0.500000
O O11 0.013253 0.669477 0.265978
O O12 0.598046 0.046640 0.500000
O O13 0.500000 0.000000 0.742668
#
# Coordination Sequence:
#
# PCOD9544202 Si02
#       5
#     8   8   8   8   8
#     4  10  22  39  58  83 117 158 201 246 295 356
#     4  11  24  43  66  91 124 165 208 255 315 375
#     4  10  23  43  65  93 126 162 206 257 309 368
#     4  11  24  39  59  92 125 157 204 255 304 364
#     4  10  20  40  65  88 121 161 199 244 303 362
#
# _framework density 21.135928
#
# number of rings (size 3 to 8) (size 9 to 14) (size 15 to 20)
#    0.000    1.600    2.000    2.400    2.800    6.400 
#    0.000    2.000    0.000    0.000    0.000    0.000 
#    0.000    0.000    0.000    0.000    0.000    0.000 
#
# Total GULP energy -223543.272520 kJ/mol
# GULP energy per Si atom -5588.581813 kJ/mol
# Density = 2.108782 g / cm^3
# Si number density = 21.135928 Si / 1000 Ang^3
#
#
#
# Elastic Constant Matrix: (Units=GPa)
#
#
# Indices 1 2 3 4 5 6 
#
# 1 71.8710 28.0262 -7.3585 0.0000 0.0000 9.0858
# 2 28.0262 71.8710 -7.3585 0.0000 0.0000 -9.0858
# 3 -7.3585 -7.3585 8.9847 0.0000 0.0000 0.0000
# 4 0.0000 0.0000 0.0000 26.2510 0.0000 0.0000
# 5 0.0000 0.0000 0.0000 0.0000 26.2510 0.0000
# 6 9.0858 -9.0858 0.0000 0.0000 0.0000 32.0391
#
#
#
# Elastic Compliance Matrix: (Units=1/GPa)
#
#
# Indices 1 2 3 4 5 6 
#
# 1 0.018615 -0.007231 0.009323 0.000000 0.000000 -0.007329
# 2 -0.007231 0.018615 0.009323 0.000000 0.000000 0.007329
# 3 0.009323 0.009323 0.126572 0.000000 0.000000 0.000000
# 4 0.000000 0.000000 0.000000 0.038094 0.000000 0.000000
# 5 0.000000 0.000000 0.000000 0.000000 0.038094 0.000000
# 6 -0.007329 0.007329 0.000000 0.000000 0.000000 0.035369
#
#
# Mechanical properties :
#
#
# Convention : Reuss Voigt Hill
#
# Bulk Modulus (GPa) = 5.35809 19.92724 12.64266
# Shear Modulus (GPa) = 15.88627 26.20270 21.04449
#
# Velocity S-wave (km/s) = 2.74455 3.52479 3.15885
# Velocity P-wave (km/s) = 3.54739 5.10040 4.39307
#
# Compressibility (1/GPa) = 0.18663356
#
# Stress axis : x y z
#
# Youngs Moduli (GPa) = 53.72123 53.72123 7.90063
#
# Poissons Ratio (x) = 0.38845 -0.07366
# Poissons Ratio (y) = 0.38845 -0.07366
# Poissons Ratio (z) = -0.50087 -0.50087
#
# Static dielectric constant tensor:
#      x y z
#    x 1.755200 0.000000 0.000000 
#    y 0.000000 1.755200 0.000000 
#    z 0.000000 0.000000 1.732510 
# 
# From -- ./inp_files/802.got.cif
#   From: 2010.05.17/outbox.cif.g08.bks.cpg/sg84_1_cif.got.tgz:802.got - 2010.06.03 18:57:40.
