data_PCOD9544102
_publ_section_title
;
Structure prediction by ZEFSAII (Michael W. Deem and Ramdas Pophale) SiO2 
 PCOD9544102
Probable space group: P 42/M
;
_chemical_formula_sum "Si O2"
_cell_formula_units_Z 40
_cell_length_a 12.849230
_cell_length_b 12.849230
_cell_length_c 8.674722
_cell_angle_alpha 90.000000
_cell_angle_beta 90.000000
_cell_angle_gamma 90.000000
_cell_volume 1432.220125
_symmetry_space_group_name_H-M "P 42/M"
_symmetry_group_IT_number 84
_symmetry_cell_setting 'tetragonal'
loop_
_space_group_symop_operation_xyz
x,y,z
-y,x,1/2+z
-x,-y,z
y,-x,1/2+z
-x,-y,-z
y,-x,1/2-z
x,y,-z
-y,x,1/2-z
loop_
_atom_site_type_symbol
_atom_site_label
_atom_site_fract_x
_atom_site_fract_y
_atom_site_fract_z
Si Si1 0.623585 0.420726 0.829460
Si Si2 0.831331 0.589924 0.500000
Si Si3 0.130928 0.603950 0.170772
Si Si4 0.162573 0.363935 0.172782
Si Si5 0.140402 0.942189 0.674457
Si Si6 0.920354 0.368128 0.500000
O O1 0.545835 0.380441 0.699346
O O2 0.744578 0.396001 0.824131
O O3 0.581787 0.398447 0.000000
O O4 0.784960 0.633472 0.342055
O O5 0.838877 0.465622 0.500000
O O6 0.955447 0.614801 0.500000
O O7 0.106979 0.478257 0.177973
O O8 0.098752 0.666814 0.324033
O O9 0.096312 0.640743 0.000000
O O10 0.094057 0.259448 0.183730
O O11 0.209940 0.358214 0.000000
O O12 0.105943 0.917386 0.500000
O O13 0.063280 0.881888 0.790302
#
# Coordination Sequence:
#
# PCOD9544102 Si02
#       6
#     8   4   8   8   8   4
#     4  10  20  33  54  78 104 139 180 221 264 314
#     4   9  18  32  54  79 102 138 177 212 260 314
#     4   9  19  35  54  77 107 141 176 218 268 317
#     4   9  19  35  54  77 107 141 176 218 268 317
#     4  10  20  33  54  78 104 139 180 221 264 314
#     4   9  18  32  54  79 102 138 177 212 260 314
#
# _framework density 27.928667000000001
#
# number of rings (size 3 to 8) (size 9 to 14) (size 15 to 20)
#    0.000    2.600    0.000    2.400    5.600    0.800 
#    0.000    6.000    0.000    2.400    0.000    0.000 
#    0.000    0.000    0.000    0.000    0.000    0.000 
#
# Total GULP energy -223578.311280 kJ/mol
# GULP energy per Si atom -5589.457782 kJ/mol
# Density = 2.786510 g / cm^3
# Si number density = 27.928667 Si / 1000 Ang^3
#
#
#
# Elastic Constant Matrix: (Units=GPa)
#
#
# Indices 1 2 3 4 5 6 
#
# 1 79.3825 34.1017 36.7683 0.0000 0.0000 -10.5521
# 2 34.1017 79.3825 36.7683 0.0000 0.0000 10.5521
# 3 36.7683 36.7683 284.4912 0.0000 0.0000 0.0000
# 4 0.0000 0.0000 0.0000 46.9129 0.0000 0.0000
# 5 0.0000 0.0000 0.0000 0.0000 46.9129 0.0000
# 6 -10.5521 10.5521 0.0000 0.0000 0.0000 18.5902
#
#
#
# Elastic Compliance Matrix: (Units=1/GPa)
#
#
# Indices 1 2 3 4 5 6 
#
# 1 0.019823 -0.010206 -0.001243 0.000000 0.000000 0.017045
# 2 -0.010206 0.019823 -0.001243 0.000000 0.000000 -0.017045
# 3 -0.001243 -0.001243 0.003836 0.000000 0.000000 0.000000
# 4 0.000000 0.000000 0.000000 0.021316 0.000000 0.000000
# 5 0.000000 0.000000 0.000000 0.000000 0.021316 0.000000
# 6 0.017045 -0.017045 0.000000 0.000000 0.000000 0.073141
#
#
# Mechanical properties :
#
#
# Convention : Reuss Voigt Hill
#
# Bulk Modulus (GPa) = 55.25179 73.17032 64.21105
# Shear Modulus (GPa) = 26.22309 44.85770 35.54040
#
# Velocity S-wave (km/s) = 3.06752 4.01203 3.57114
# Velocity P-wave (km/s) = 5.68967 6.90780 6.32812
#
# Compressibility (1/GPa) = 0.01809896
#
# Stress axis : x y z
#
# Youngs Moduli (GPa) = 50.44690 50.44690 260.66567
#
# Poissons Ratio (x) = 0.51484 0.32400
# Poissons Ratio (y) = 0.51484 0.32400
# Poissons Ratio (z) = 0.06270 0.06270
#
# Static dielectric constant tensor:
#      x y z
#    x 2.222650 0.000000 0.000000 
#    y 0.000000 2.222650 0.000000 
#    z 0.000000 0.000000 2.143500 
# 
# From -- ./inp_files/829.got.cif
#   From: 2010.05.17/outbox.cif.g08.bks.cpg/sg84_1_cif.got.tgz:829.got - 2010.06.03 18:57:40.
