data_PCOD9544698
_publ_section_title
;
Structure prediction by ZEFSAII (Michael W. Deem and Ramdas Pophale) SiO2 
 PCOD9544698
Probable space group: P 4/N
;
_chemical_formula_sum "Si O2"
_cell_formula_units_Z 50
_cell_length_a 14.337390
_cell_length_b 14.337390
_cell_length_c 11.446458
_cell_angle_alpha 90.000000
_cell_angle_beta 90.000000
_cell_angle_gamma 90.000000
_cell_volume 2352.942514
_symmetry_space_group_name_H-M "P 4/N"
_symmetry_group_IT_number 85
_symmetry_cell_setting 'tetragonal'
loop_
_space_group_symop_operation_xyz
x,y,z
1/2-y,x,z
1/2-x,1/2-y,z
y,1/2-x,z
-x,-y,-z
1/2+y,-x,-z
1/2+x,1/2+y,-z
-y,1/2+x,-z
loop_
_atom_site_type_symbol
_atom_site_label
_atom_site_fract_x
_atom_site_fract_y
_atom_site_fract_z
Si Si1 0.014941 0.269246 0.993074
Si Si2 0.559533 0.425645 0.924707
Si Si3 0.956951 0.493005 0.333939
Si Si4 0.593263 0.741944 0.751274
Si Si5 0.050884 0.150536 0.462436
Si Si6 0.750000 0.750000 0.491393
Si Si7 0.882250 0.670515 0.226363
O O1 0.052079 0.241887 0.120205
O O2 0.931051 0.339747 0.017005
O O3 0.089891 0.322463 0.910922
O O4 0.982882 0.176244 0.930787
O O5 0.561269 0.452128 0.788434
O O6 0.500000 0.500000 0.000000
O O7 0.868409 0.488873 0.421905
O O8 0.954723 0.602758 0.291706
O O9 0.049229 0.460194 0.400613
O O10 0.666720 0.656794 0.742047
O O11 0.526023 0.723984 0.640923
O O12 0.155188 0.182290 0.500651
O O13 0.870788 0.779870 0.253069
#
# Coordination Sequence:
#
# PCOD9544698 Si02
#       7
#     8   8   8   8   8   2   8
#     4  12  24  40  67  97 140 182 239 301 374 438
#     4  12  24  44  65  97 139 185 235 299 372 440
#     4  11  25  42  61  99 152 183 222 302 379 431
#     4  11  20  36  63  97 132 171 230 296 354 425
#     4  11  24  41  64 102 144 184 233 296 371 428
#     4  12  24  44  76 108 134 188 260 300 348 454
#     4  11  22  38  65 101 137 182 241 305 369 435
#
# _framework density 21.249987999999998
#
# number of rings (size 3 to 8) (size 9 to 14) (size 15 to 20)
#    0.000    0.640    4.800    3.840    2.240    1.600 
#    0.000    0.000    0.000    0.000    0.000    0.000 
#    0.000    0.000    0.000    0.000    0.000    0.000 
#
# Total GULP energy -278338.681394 kJ/mol
# GULP energy per Si atom -5566.773628 kJ/mol
# Density = 2.120162 g / cm^3
# Si number density = 21.249988 Si / 1000 Ang^3
#
#
#
# Elastic Constant Matrix: (Units=GPa)
#
#
# Indices 1 2 3 4 5 6 
#
# 1 77.2881 41.0605 11.0546 0.0000 0.0000 3.4587
# 2 41.0605 77.2881 11.0546 0.0000 0.0000 -3.4587
# 3 11.0546 11.0546 115.6254 0.0000 0.0000 0.0000
# 4 0.0000 0.0000 0.0000 31.1199 0.0000 0.0000
# 5 0.0000 0.0000 0.0000 0.0000 31.1199 0.0000
# 6 3.4587 -3.4587 0.0000 0.0000 0.0000 41.2231
#
#
#
# Elastic Compliance Matrix: (Units=1/GPa)
#
#
# Indices 1 2 3 4 5 6 
#
# 1 0.018328 -0.009725 -0.000823 0.000000 0.000000 -0.002354
# 2 -0.009725 0.018328 -0.000823 0.000000 0.000000 0.002354
# 3 -0.000823 -0.000823 0.008806 0.000000 0.000000 0.000000
# 4 0.000000 0.000000 0.000000 0.032134 0.000000 0.000000
# 5 0.000000 0.000000 0.000000 0.000000 0.032134 0.000000
# 6 -0.002354 0.002354 0.000000 0.000000 0.000000 0.024653
#
#
# Mechanical properties :
#
#
# Convention : Reuss Voigt Hill
#
# Bulk Modulus (GPa) = 44.00958 44.06009 44.03484
# Shear Modulus (GPa) = 30.35890 34.49470 32.42680
#
# Velocity S-wave (km/s) = 3.78386 4.03337 3.91060
# Velocity P-wave (km/s) = 6.31233 6.51689 6.41543
#
# Compressibility (1/GPa) = 0.02272232
#
# Stress axis : x y z
#
# Youngs Moduli (GPa) = 54.56136 54.56136 113.56029
#
# Poissons Ratio (x) = 0.53059 0.09341
# Poissons Ratio (y) = 0.53059 0.09341
# Poissons Ratio (z) = 0.04488 0.04488
#
# Static dielectric constant tensor:
#      x y z
#    x 1.785200 0.000000 0.000000 
#    y 0.000000 1.785200 0.000000 
#    z 0.000000 0.000000 1.967050 
# 
# From -- ./inp_files/1687.got.cif
#   From: 2010.05.17/outbox.cif.g08.bks.cpg/sg85_cif.got.tgz:1687.got - 2010.06.03 19:01:16.
