data_PCOD9544832
_publ_section_title
;
Structure prediction by ZEFSAII (Michael W. Deem and Ramdas Pophale) SiO2 
 PCOD9544832
Probable space group: P 4/N
;
_chemical_formula_sum "Si O2"
_cell_formula_units_Z 28
_cell_length_a 8.391518
_cell_length_b 8.391518
_cell_length_c 17.581705
_cell_angle_alpha 90.000000
_cell_angle_beta 90.000000
_cell_angle_gamma 90.000000
_cell_volume 1238.061019
_symmetry_space_group_name_H-M "P 4/N"
_symmetry_group_IT_number 85
_symmetry_cell_setting 'tetragonal'
loop_
_space_group_symop_operation_xyz
x,y,z
1/2-y,x,z
1/2-x,1/2-y,z
y,1/2-x,z
-x,-y,-z
1/2+y,-x,-z
1/2+x,1/2+y,-z
-y,1/2+x,-z
loop_
_atom_site_type_symbol
_atom_site_label
_atom_site_fract_x
_atom_site_fract_y
_atom_site_fract_z
Si Si1 0.430374 0.050740 0.919599
Si Si2 0.831024 0.998456 0.611063
Si Si3 0.250000 0.750000 0.500000
Si Si4 0.866688 0.395691 0.224821
Si Si5 0.750000 0.750000 0.252817
O O1 0.464676 0.238466 0.914903
O O2 0.478382 0.946192 0.846604
O O3 0.500000 0.000000 0.000000
O O4 0.860666 0.148032 0.556630
O O5 0.844739 0.042565 0.699260
O O6 0.650265 0.944030 0.595542
O O7 0.750000 0.250000 0.203158
O O8 0.767925 0.554130 0.248190
#
# Coordination Sequence:
#
# PCOD9544832 Si02
#       5
#     8   8   2   8   2
#     4  11  26  45  68 106 146 194 258 322 400 484
#     4  11  26  47  72 113 156 202 279 338 411 503
#     4  12  24  48  76 112 156 222 260 352 428 484
#     4  12  24  46  76 111 150 209 270 334 408 496
#     4  12  24  48  76 112 156 204 274 320 408 496
#
# _framework density 22.616008000000001
#
# number of rings (size 3 to 8) (size 9 to 14) (size 15 to 20)
#    0.000    0.571    4.286    2.571    4.000    0.000 
#    0.000    2.857    0.000    0.000    0.000    0.000 
#    0.000    0.000    0.000    0.000    0.000    0.000 
#
# Total GULP energy -156052.560305 kJ/mol
# GULP energy per Si atom -5573.305725 kJ/mol
# Density = 2.256453 g / cm^3
# Si number density = 22.616008 Si / 1000 Ang^3
#
#
#
# Elastic Constant Matrix: (Units=GPa)
#
#
# Indices 1 2 3 4 5 6 
#
# 1 87.1050 15.6997 26.6300 0.0000 0.0000 -7.2678
# 2 15.6997 87.1050 26.6300 0.0000 0.0000 7.2678
# 3 26.6300 26.6300 171.7913 0.0000 0.0000 0.0000
# 4 0.0000 0.0000 0.0000 35.7662 0.0000 0.0000
# 5 0.0000 0.0000 0.0000 0.0000 35.7662 0.0000
# 6 -7.2678 7.2678 0.0000 0.0000 0.0000 4.8028
#
#
#
# Elastic Compliance Matrix: (Units=1/GPa)
#
#
# Indices 1 2 3 4 5 6 
#
# 1 0.015408 -0.004831 -0.001640 0.000000 0.000000 0.030627
# 2 -0.004831 0.015408 -0.001640 0.000000 0.000000 -0.030627
# 3 -0.001640 -0.001640 0.006329 0.000000 0.000000 0.000000
# 4 0.000000 0.000000 0.000000 0.027959 0.000000 0.000000
# 5 0.000000 0.000000 0.000000 0.000000 0.027959 0.000000
# 6 0.030627 -0.030627 0.000000 0.000000 0.000000 0.300906
#
#
# Mechanical properties :
#
#
# Convention : Reuss Voigt Hill
#
# Bulk Modulus (GPa) = 47.79114 53.76898 50.78006
# Shear Modulus (GPa) = 11.98567 33.73646 22.86106
#
# Velocity S-wave (km/s) = 2.30459 3.86645 3.18281
# Velocity P-wave (km/s) = 5.31592 6.61506 6.00075
#
# Compressibility (1/GPa) = 0.02092438
#
# Stress axis : x y z
#
# Youngs Moduli (GPa) = 64.90210 64.90210 157.99513
#
# Poissons Ratio (x) = 0.31356 0.25903
# Poissons Ratio (y) = 0.31356 0.25903
# Poissons Ratio (z) = 0.10641 0.10641
#
# Static dielectric constant tensor:
#      x y z
#    x 1.862200 0.000000 0.000000 
#    y 0.000000 1.862200 0.000000 
#    z 0.000000 0.000000 1.890990 
# 
# From -- ./inp_files/2052.got.cif
#   From: 2010.05.17/outbox.cif.g08.bks.cpg/sg85_cif.got.tgz:2052.got - 2010.06.03 19:01:16.
