data_PCOD9544426
_publ_section_title
;
Structure prediction by ZEFSAII (Michael W. Deem and Ramdas Pophale) SiO2 
 PCOD9544426
Probable space group: P 42/M
;
_chemical_formula_sum "Si O2"
_cell_formula_units_Z 40
_cell_length_a 9.616410
_cell_length_b 9.616410
_cell_length_c 22.575082
_cell_angle_alpha 90.000000
_cell_angle_beta 90.000000
_cell_angle_gamma 90.000000
_cell_volume 2087.638413
_symmetry_space_group_name_H-M "P 42/M"
_symmetry_group_IT_number 84
_symmetry_cell_setting 'tetragonal'
loop_
_space_group_symop_operation_xyz
x,y,z
-y,x,1/2+z
-x,-y,z
y,-x,1/2+z
-x,-y,-z
y,-x,1/2-z
x,y,-z
-y,x,1/2-z
loop_
_atom_site_type_symbol
_atom_site_label
_atom_site_fract_x
_atom_site_fract_y
_atom_site_fract_z
Si Si1 0.482923 0.666103 0.432768
Si Si2 0.161536 0.010664 0.932702
Si Si3 0.649251 0.786919 0.143828
Si Si4 0.683612 0.224165 0.877204
Si Si5 0.850136 0.175134 0.243315
O O1 0.500000 0.500000 0.438902
O O2 0.466462 0.721966 0.500000
O O3 0.355154 0.689056 0.389079
O O4 0.620191 0.709735 0.398518
O O5 0.244516 0.866804 0.928255
O O6 0.257202 0.102088 0.890576
O O7 0.160172 0.063714 0.000000
O O8 0.000000 0.000000 0.913249
O O9 0.481894 0.804096 0.134367
O O10 0.705848 0.799851 0.210756
O O11 0.767430 0.192859 0.817512
O O12 0.017384 0.181800 0.234669
#
# Coordination Sequence:
#
# PCOD9544426 Si02
#       5
#     8   8   8   8   8
#     4   9  20  40  63  93 129 161 202 265 328 375
#     4  11  23  41  65  95 131 167 208 259 320 387
#     4  11  23  40  65  95 123 168 217 265 319 379
#     4  11  23  40  65  95 123 168 217 265 319 379
#     4  11  24  42  61  84 130 172 211 264 321 378
#
# _framework density 19.160404
#
# number of rings (size 3 to 8) (size 9 to 14) (size 15 to 20)
#    0.000    1.400    2.000    3.000    2.800    3.200 
#    0.000    3.000    0.000    7.200    0.000    0.000 
#    0.000    0.000    0.000    0.000    0.000    0.000 
#
# Total GULP energy -223024.662441 kJ/mol
# GULP energy per Si atom -5575.616561 kJ/mol
# Density = 1.911679 g / cm^3
# Si number density = 19.160404 Si / 1000 Ang^3
#
#
#
# Elastic Constant Matrix: (Units=GPa)
#
#
# Indices 1 2 3 4 5 6 
#
# 1 92.3774 13.5285 16.3732 0.0000 0.0000 4.1035
# 2 13.5285 92.3774 16.3732 0.0000 0.0000 -4.1035
# 3 16.3732 16.3732 69.8821 0.0000 0.0000 0.0000
# 4 0.0000 0.0000 0.0000 45.5193 0.0000 0.0000
# 5 0.0000 0.0000 0.0000 0.0000 45.5193 0.0000
# 6 4.1035 -4.1035 0.0000 0.0000 0.0000 17.0424
#
#
#
# Elastic Compliance Matrix: (Units=1/GPa)
#
#
# Indices 1 2 3 4 5 6 
#
# 1 0.011594 -0.001414 -0.002385 0.000000 0.000000 -0.003132
# 2 -0.001414 0.011594 -0.002385 0.000000 0.000000 0.003132
# 3 -0.002385 -0.002385 0.015427 0.000000 0.000000 0.000000
# 4 0.000000 0.000000 0.000000 0.021969 0.000000 0.000000
# 5 0.000000 0.000000 0.000000 0.000000 0.021969 0.000000
# 6 -0.003132 0.003132 0.000000 0.000000 0.000000 0.060186
#
#
# Mechanical properties :
#
#
# Convention : Reuss Voigt Hill
#
# Bulk Modulus (GPa) = 38.10005 38.57631 38.33818
# Shear Modulus (GPa) = 30.51446 35.50701 33.01074
#
# Velocity S-wave (km/s) = 3.99504 4.30949 4.15524
# Velocity P-wave (km/s) = 6.41938 6.70368 6.56307
#
# Compressibility (1/GPa) = 0.02624668
#
# Stress axis : x y z
#
# Youngs Moduli (GPa) = 86.25028 86.25028 64.81943
#
# Poissons Ratio (x) = 0.12199 0.15460
# Poissons Ratio (y) = 0.12199 0.15460
# Poissons Ratio (z) = 0.20572 0.20572
#
# Static dielectric constant tensor:
#      x y z
#    x 1.765070 0.000000 0.000000 
#    y 0.000000 1.765070 0.000000 
#    z 0.000000 0.000000 1.662310 
# 
# From -- ./inp_files/4810.got.cif
#   From: 2010.05.17/outbox.cif.g08.bks.cpg/sg84_3_cif.got.tgz:4810.got - 2010.06.03 18:57:40.
