data_PCOD9544062
_publ_section_title
;
Structure prediction by ZEFSAII (Michael W. Deem and Ramdas Pophale) SiO2 
 PCOD9544062
Probable space group: P 42/M
;
_chemical_formula_sum "Si O2"
_cell_formula_units_Z 58
_cell_length_a 17.537471
_cell_length_b 17.537471
_cell_length_c 7.664753
_cell_angle_alpha 90.000000
_cell_angle_beta 90.000000
_cell_angle_gamma 90.000000
_cell_volume 2357.393577
_symmetry_space_group_name_H-M "P 42/M"
_symmetry_group_IT_number 84
_symmetry_cell_setting 'tetragonal'
loop_
_space_group_symop_operation_xyz
x,y,z
-y,x,1/2+z
-x,-y,z
y,-x,1/2+z
-x,-y,-z
y,-x,1/2-z
x,y,-z
-y,x,1/2-z
loop_
_atom_site_type_symbol
_atom_site_label
_atom_site_fract_x
_atom_site_fract_y
_atom_site_fract_z
Si Si1 0.049733 0.322477 0.289316
Si Si2 0.386886 0.110541 0.787929
Si Si3 0.560916 0.341961 0.795122
Si Si4 0.166227 0.450588 0.287631
Si Si5 0.688116 0.730236 0.788251
Si Si6 0.159409 0.198921 0.204592
Si Si7 0.104696 0.045685 0.313094
Si Si8 0.500000 0.500000 0.750000
O O1 0.048297 0.326848 0.500000
O O2 0.115601 0.380026 0.224797
O O3 0.079208 0.239412 0.239552
O O4 0.966329 0.346588 0.225057
O O5 0.475108 0.117645 0.740693
O O6 0.351998 0.191412 0.735546
O O7 0.382209 0.108752 0.000000
O O8 0.544275 0.255033 0.732381
O O9 0.652685 0.346291 0.784137
O O10 0.522176 0.412481 0.694543
O O11 0.537162 0.349416 0.000000
O O12 0.170399 0.446703 0.500000
O O13 0.774700 0.745164 0.726825
O O14 0.684922 0.723340 0.000000
O O15 0.162968 0.113142 0.274598
O O16 0.172203 0.192365 0.000000
O O17 0.120088 0.010133 0.500000
O O18 0.023153 0.089393 0.315897
#
# Coordination Sequence:
#
# PCOD9544062 Si02
#       8
#     8   8   8   8   8   8   8   2
#     4  10  19  34  60  88 114 153 201 253 309 369
#     4   9  18  33  57  88 115 148 195 250 309 370
#     4  11  23  41  64  91 124 162 209 257 315 386
#     4   9  17  33  58  88 118 147 193 253 307 370
#     4  10  22  40  61  86 123 164 206 257 314 373
#     4  11  23  38  57  86 123 166 210 255 309 370
#     4  11  23  41  64  92 127 167 212 263 315 371
#     4  12  26  40  64  98 130 164 208 266 326 392
#
# _framework density 24.603441
#
# number of rings (size 3 to 8) (size 9 to 14) (size 15 to 20)
#    0.000    1.793    1.379    3.517    1.931    4.414 
#    0.000    0.690    0.000    2.483    0.000    0.000 
#    0.000    0.000    0.000    0.000    0.000    0.000 
#
# Total GULP energy -323931.368056 kJ/mol
# GULP energy per Si atom -5585.023587 kJ/mol
# Density = 2.454744 g / cm^3
# Si number density = 24.603441 Si / 1000 Ang^3
#
#
#
# Elastic Constant Matrix: (Units=GPa)
#
#
# Indices 1 2 3 4 5 6 
#
# 1 94.5432 26.1768 6.1719 0.0000 0.0000 -10.0193
# 2 26.1768 94.5432 6.1719 0.0000 0.0000 10.0193
# 3 6.1719 6.1719 64.4701 0.0000 0.0000 0.0000
# 4 0.0000 0.0000 0.0000 8.0731 0.0000 0.0000
# 5 0.0000 0.0000 0.0000 0.0000 8.0731 0.0000
# 6 -10.0193 10.0193 0.0000 0.0000 0.0000 41.7922
#
#
#
# Elastic Compliance Matrix: (Units=1/GPa)
#
#
# Indices 1 2 3 4 5 6 
#
# 1 0.012049 -0.003684 -0.000801 0.000000 0.000000 0.003772
# 2 -0.003684 0.012049 -0.000801 0.000000 0.000000 -0.003772
# 3 -0.000801 -0.000801 0.015664 0.000000 0.000000 0.000000
# 4 0.000000 0.000000 0.000000 0.123868 0.000000 0.000000
# 5 0.000000 0.000000 0.000000 0.000000 0.123868 0.000000
# 6 0.003772 -0.003772 0.000000 0.000000 0.000000 0.025736
#
#
# Mechanical properties :
#
#
# Convention : Reuss Voigt Hill
#
# Bulk Modulus (GPa) = 34.25592 36.73307 35.49449
# Shear Modulus (GPa) = 14.99090 25.92342 20.45716
#
# Velocity S-wave (km/s) = 2.47108 3.24952 2.88666
# Velocity P-wave (km/s) = 4.70054 5.38903 5.05652
#
# Compressibility (1/GPa) = 0.02919204
#
# Stress axis : x y z
#
# Youngs Moduli (GPa) = 82.99408 82.99408 63.83898
#
# Poissons Ratio (x) = 0.30571 0.05113
# Poissons Ratio (y) = 0.30571 0.05113
# Poissons Ratio (z) = 0.06647 0.06647
#
# Static dielectric constant tensor:
#      x y z
#    x 1.953380 0.000000 0.000000 
#    y 0.000000 1.953380 0.000000 
#    z 0.000000 0.000000 1.931980 
# 
# From -- ./inp_files/1185.got.cif
#   From: 2010.05.17/outbox.cif.g08.bks.cpg/sg84_1_cif.got.tgz:1185.got - 2010.06.03 18:57:40.
