data_PCOD9544504
_publ_section_title
;
Structure prediction by ZEFSAII (Michael W. Deem and Ramdas Pophale) SiO2 
 PCOD9544504
Probable space group: P 4/N
;
_chemical_formula_sum "Si O2"
_cell_formula_units_Z 56
_cell_length_a 23.043279
_cell_length_b 23.043279
_cell_length_c 5.143330
_cell_angle_alpha 90.000000
_cell_angle_beta 90.000000
_cell_angle_gamma 90.000000
_cell_volume 2731.070720
_symmetry_space_group_name_H-M "P 4/N"
_symmetry_group_IT_number 85
_symmetry_cell_setting 'tetragonal'
loop_
_space_group_symop_operation_xyz
x,y,z
1/2-y,x,z
1/2-x,1/2-y,z
y,1/2-x,z
-x,-y,-z
1/2+y,-x,-z
1/2+x,1/2+y,-z
-y,1/2+x,-z
loop_
_atom_site_type_symbol
_atom_site_label
_atom_site_fract_x
_atom_site_fract_y
_atom_site_fract_z
Si Si1 0.843106 0.764581 0.784289
Si Si2 0.095658 0.532894 0.927588
Si Si3 0.464547 0.431050 0.401794
Si Si4 0.480388 0.868722 0.814024
Si Si5 0.627808 0.646821 0.411405
Si Si6 0.545991 0.698376 0.037222
Si Si7 0.526501 0.809259 0.342994
O O1 0.795552 0.813660 0.870389
O O2 0.846058 0.791057 0.489697
O O3 0.910809 0.763228 0.860118
O O4 0.073130 0.493754 0.684857
O O5 0.080655 0.598954 0.861087
O O6 0.160433 0.511658 0.002669
O O7 0.063116 0.514780 0.190517
O O8 0.418635 0.479785 0.320370
O O9 0.424493 0.372741 0.393555
O O10 0.485778 0.820013 0.592662
O O11 0.505081 0.845947 0.089445
O O12 0.594370 0.653771 0.144583
O O13 0.670311 0.592395 0.405273
O O14 0.527776 0.742791 0.262545
#
# Coordination Sequence:
#
# PCOD9544504 Si02
#       7
#     8   8   8   8   8   8   8
#     4  11  23  36  55  77 109 153 207 251 281 321
#     4  11  21  36  58  82 113 142 190 234 289 357
#     4  10  19  32  55  81 107 146 181 231 289 341
#     4  11  22  38  55  86 112 148 182 239 296 353
#     4  10  21  36  54  78 109 149 197 242 282 332
#     4  11  23  37  57  82 110 155 192 241 290 343
#     4  11  25  37  61  82 120 149 195 238 297 342
#
# _framework density 20.504776
#
# number of rings (size 3 to 8) (size 9 to 14) (size 15 to 20)
#    0.000    1.286    1.429    6.000    8.000    0.000 
#    0.000    1.429    0.000    0.000    0.000    0.000 
#    0.000    3.429    0.000    0.000    0.000    0.000 
#
# Total GULP energy -311781.942590 kJ/mol
# GULP energy per Si atom -5567.534689 kJ/mol
# Density = 2.045811 g / cm^3
# Si number density = 20.504776 Si / 1000 Ang^3
#
#
#
# Elastic Constant Matrix: (Units=GPa)
#
#
# Indices 1 2 3 4 5 6 
#
# 1 62.3691 43.7221 11.6400 0.0000 0.0000 -1.3499
# 2 43.7221 62.3691 11.6400 0.0000 0.0000 1.3499
# 3 11.6400 11.6400 95.1210 0.0000 0.0000 0.0000
# 4 0.0000 0.0000 0.0000 26.5694 0.0000 0.0000
# 5 0.0000 0.0000 0.0000 0.0000 26.5694 0.0000
# 6 -1.3499 1.3499 0.0000 0.0000 0.0000 27.5265
#
#
#
# Elastic Compliance Matrix: (Units=1/GPa)
#
#
# Indices 1 2 3 4 5 6 
#
# 1 0.031849 -0.022163 -0.001185 0.000000 0.000000 0.002649
# 2 -0.022163 0.031849 -0.001185 0.000000 0.000000 -0.002649
# 3 -0.001185 -0.001185 0.010803 0.000000 0.000000 0.000000
# 4 0.000000 0.000000 0.000000 0.037637 0.000000 0.000000
# 5 0.000000 0.000000 0.000000 0.000000 0.037637 0.000000
# 6 0.002649 -0.002649 0.000000 0.000000 0.000000 0.036588
#
#
# Mechanical properties :
#
#
# Convention : Reuss Voigt Hill
#
# Bulk Modulus (GPa) = 39.31775 39.31815 39.31795
# Shear Modulus (GPa) = 20.49952 26.32352 23.41152
#
# Velocity S-wave (km/s) = 3.16530 3.58687 3.38266
# Velocity P-wave (km/s) = 5.70749 6.03083 5.87138
#
# Compressibility (1/GPa) = 0.02543380
#
# Stress axis : x y z
#
# Youngs Moduli (GPa) = 31.39844 31.39844 92.56677
#
# Poissons Ratio (x) = 0.69588 0.10972
# Poissons Ratio (y) = 0.69588 0.10972
# Poissons Ratio (z) = 0.03722 0.03722
#
# Static dielectric constant tensor:
#      x y z
#    x 1.817200 0.000000 0.000000 
#    y 0.000000 1.817200 0.000000 
#    z 0.000000 0.000000 1.887810 
# 
# From -- ./inp_files/559.got.cif
#   From: 2010.05.17/outbox.cif.g08.bks.cpg/sg85_cif.got.tgz:559.got - 2010.06.03 19:01:16.
