data_PCOD9544188
_publ_section_title
;
Structure prediction by ZEFSAII (Michael W. Deem and Ramdas Pophale) SiO2 
 PCOD9544188
Probable space group: P 42/M
;
_chemical_formula_sum "Si O2"
_cell_formula_units_Z 40
_cell_length_a 8.770681
_cell_length_b 8.770681
_cell_length_c 25.020444
_cell_angle_alpha 90.000000
_cell_angle_beta 90.000000
_cell_angle_gamma 90.000000
_cell_volume 1924.693782
_symmetry_space_group_name_H-M "P 42/M"
_symmetry_group_IT_number 84
_symmetry_cell_setting 'tetragonal'
loop_
_space_group_symop_operation_xyz
x,y,z
-y,x,1/2+z
-x,-y,z
y,-x,1/2+z
-x,-y,-z
y,-x,1/2-z
x,y,-z
-y,x,1/2-z
loop_
_atom_site_type_symbol
_atom_site_label
_atom_site_fract_x
_atom_site_fract_y
_atom_site_fract_z
Si Si1 0.403597 0.354052 0.060475
Si Si2 0.862720 0.416941 0.058718
Si Si3 0.222059 0.152245 0.142649
Si Si4 0.652253 0.707245 0.748701
Si Si5 0.855626 0.197674 0.854744
O O1 0.500000 0.500000 0.083472
O O2 0.248756 0.444454 0.051822
O O3 0.344239 0.218448 0.099043
O O4 0.463829 0.313053 0.000000
O O5 0.792916 0.284731 0.093493
O O6 0.000000 0.500000 0.088822
O O7 0.911239 0.360347 0.000000
O O8 0.275313 0.220452 0.198692
O O9 0.040000 0.191011 0.136818
O O10 0.216160 0.969719 0.146072
O O11 0.705014 0.530897 0.745882
O O12 0.710329 0.802622 0.697548
#
# Coordination Sequence:
#
# PCOD9544188 Si02
#       5
#     8   8   8   8   8
#     4  10  22  40  64  93 129 171 216 264 317 383
#     4  10  20  38  64  93 126 169 215 258 312 382
#     4  11  24  41  64  92 131 169 211 267 328 387
#     4  11  26  43  65  92 122 166 217 266 324 394
#     4  11  24  41  63  95 130 167 211 268 327 387
#
# _framework density 20.782526000000001
#
# number of rings (size 3 to 8) (size 9 to 14) (size 15 to 20)
#    0.000    1.400    2.000    2.400    5.600    4.800 
#    0.000    2.000    0.000    3.600    0.000    0.000 
#    0.000    0.000    0.000    0.000    0.000    0.000 
#
# Total GULP energy -222708.667460 kJ/mol
# GULP energy per Si atom -5567.716686 kJ/mol
# Density = 2.073522 g / cm^3
# Si number density = 20.782526 Si / 1000 Ang^3
#
#
#
# Elastic Constant Matrix: (Units=GPa)
#
#
# Indices 1 2 3 4 5 6 
#
# 1 48.1476 23.2653 20.8269 0.0000 0.0000 8.1238
# 2 23.2653 48.1476 20.8269 0.0000 0.0000 -8.1238
# 3 20.8269 20.8269 92.9603 0.0000 0.0000 0.0000
# 4 0.0000 0.0000 0.0000 38.4033 0.0000 0.0000
# 5 0.0000 0.0000 0.0000 0.0000 38.4033 0.0000
# 6 8.1238 -8.1238 0.0000 0.0000 0.0000 34.2460
#
#
#
# Elastic Compliance Matrix: (Units=1/GPa)
#
#
# Indices 1 2 3 4 5 6 
#
# 1 0.031832 -0.015724 -0.003609 0.000000 0.000000 -0.011281
# 2 -0.015724 0.031832 -0.003609 0.000000 0.000000 0.011281
# 3 -0.003609 -0.003609 0.012374 0.000000 0.000000 0.000000
# 4 0.000000 0.000000 0.000000 0.026039 0.000000 0.000000
# 5 0.000000 0.000000 0.000000 0.000000 0.026039 0.000000
# 6 -0.011281 0.011281 0.000000 0.000000 0.000000 0.034553
#
#
# Mechanical properties :
#
#
# Convention : Reuss Voigt Hill
#
# Bulk Modulus (GPa) = 33.16199 35.45486 34.30842
# Shear Modulus (GPa) = 22.87239 30.49960 26.68600
#
# Velocity S-wave (km/s) = 3.32107 3.83503 3.58726
# Velocity P-wave (km/s) = 5.54051 6.05862 5.80535
#
# Compressibility (1/GPa) = 0.03015501
#
# Stress axis : x y z
#
# Youngs Moduli (GPa) = 31.41511 31.41511 80.81227
#
# Poissons Ratio (x) = 0.49396 0.29164
# Poissons Ratio (y) = 0.49396 0.29164
# Poissons Ratio (z) = 0.11337 0.11337
#
# Static dielectric constant tensor:
#      x y z
#    x 1.833250 0.000000 0.000000 
#    y 0.000000 1.833250 0.000000 
#    z 0.000000 0.000000 1.846810 
# 
# From -- ./inp_files/4799.got.cif
#   From: 2010.05.17/outbox.cif.g08.bks.cpg/sg84_3_cif.got.tgz:4799.got - 2010.06.03 18:57:40.
