data_PCOD9544607
_publ_section_title
;
Structure prediction by ZEFSAII (Michael W. Deem and Ramdas Pophale) SiO2 
 PCOD9544607
Probable space group: P 4/N
;
_chemical_formula_sum "Si O2"
_cell_formula_units_Z 56
_cell_length_a 14.864945
_cell_length_b 14.864945
_cell_length_c 12.097979
_cell_angle_alpha 90.000000
_cell_angle_beta 90.000000
_cell_angle_gamma 90.000000
_cell_volume 2673.249164
_symmetry_space_group_name_H-M "P 4/N"
_symmetry_group_IT_number 85
_symmetry_cell_setting 'tetragonal'
loop_
_space_group_symop_operation_xyz
x,y,z
1/2-y,x,z
1/2-x,1/2-y,z
y,1/2-x,z
-x,-y,-z
1/2+y,-x,-z
1/2+x,1/2+y,-z
-y,1/2+x,-z
loop_
_atom_site_type_symbol
_atom_site_label
_atom_site_fract_x
_atom_site_fract_y
_atom_site_fract_z
Si Si1 0.149863 0.765658 0.345546
Si Si2 0.889870 0.813784 0.198493
Si Si3 0.955974 0.948833 0.642435
Si Si4 0.408198 0.628237 0.800813
Si Si5 0.990170 0.852347 0.430005
Si Si6 0.090856 0.544020 0.955699
Si Si7 0.457222 0.822787 0.767803
O O1 0.250000 0.750000 0.387691
O O2 0.129918 0.690654 0.252694
O O3 0.154630 0.862711 0.290532
O O4 0.067991 0.775933 0.430907
O O5 0.793624 0.866703 0.183825
O O6 0.926908 0.829508 0.324553
O O7 0.969070 0.851079 0.114640
O O8 0.952478 0.870189 0.552133
O O9 0.036301 0.945658 0.732778
O O10 0.864608 0.957141 0.709295
O O11 0.968405 0.047973 0.589682
O O12 0.461510 0.717503 0.768934
O O13 0.413629 0.631025 0.932417
O O14 0.058540 0.626837 0.881954
O O15 0.000000 0.500000 0.000000
#
# Coordination Sequence:
#
# PCOD9544607 Si02
#       7
#     8   8   8   8   8   8   8
#     4   9  20  41  56  93 133 164 213 271 324 397
#     4  11  26  44  67  98 130 174 233 286 334 399
#     4  10  21  42  61  96 122 175 212 267 334 400
#     4  11  24  38  64  93 131 170 220 267 338 396
#     4  10  21  39  70  87 130 169 221 268 333 400
#     4  12  24  39  66  92 133 178 217 273 338 400
#     4  10  22  40  58  93 130 168 223 267 333 406
#
# _framework density 20.948288999999999
#
# number of rings (size 3 to 8) (size 9 to 14) (size 15 to 20)
#    0.000    1.571    4.286    0.000    8.000    1.143 
#    7.714    0.000    0.000    0.429    0.000    0.000 
#    0.000    0.000    0.000    0.000    0.000    0.000 
#
# Total GULP energy -311886.409951 kJ/mol
# GULP energy per Si atom -5569.400178 kJ/mol
# Density = 2.090061 g / cm^3
# Si number density = 20.948289 Si / 1000 Ang^3
#
#
#
# Elastic Constant Matrix: (Units=GPa)
#
#
# Indices 1 2 3 4 5 6 
#
# 1 59.1196 36.2926 41.7231 0.0000 0.0000 -2.6713
# 2 36.2926 59.1196 41.7231 0.0000 0.0000 2.6713
# 3 41.7231 41.7231 133.2076 0.0000 0.0000 0.0000
# 4 0.0000 0.0000 0.0000 16.2475 0.0000 0.0000
# 5 0.0000 0.0000 0.0000 0.0000 16.2475 0.0000
# 6 -2.6713 2.6713 0.0000 0.0000 0.0000 32.6617
#
#
#
# Elastic Compliance Matrix: (Units=1/GPa)
#
#
# Indices 1 2 3 4 5 6 
#
# 1 0.029549 -0.015114 -0.004521 0.000000 0.000000 0.003653
# 2 -0.015114 0.029549 -0.004521 0.000000 0.000000 -0.003653
# 3 -0.004521 -0.004521 0.010339 0.000000 0.000000 0.000000
# 4 0.000000 0.000000 0.000000 0.061548 0.000000 0.000000
# 5 0.000000 0.000000 0.000000 0.000000 0.061548 0.000000
# 6 0.003653 -0.003653 0.000000 0.000000 0.000000 0.031214
#
#
# Mechanical properties :
#
#
# Convention : Reuss Voigt Hill
#
# Bulk Modulus (GPa) = 47.33881 54.54714 50.94298
# Shear Modulus (GPa) = 17.91463 21.81190 19.86326
#
# Velocity S-wave (km/s) = 2.92752 3.23030 3.08263
# Velocity P-wave (km/s) = 5.83731 6.32524 6.08617
#
# Compressibility (1/GPa) = 0.02112431
#
# Stress axis : x y z
#
# Youngs Moduli (GPa) = 33.84221 33.84221 96.71720
#
# Poissons Ratio (x) = 0.51148 0.43729
# Poissons Ratio (y) = 0.51148 0.43729
# Poissons Ratio (z) = 0.15301 0.15301
#
# Static dielectric constant tensor:
#      x y z
#    x 1.356470 0.000000 0.000000 
#    y 0.000000 1.356470 0.000000 
#    z 0.000000 0.000000 1.745760 
# 
# From -- ./inp_files/1765.got.cif
#   From: 2010.05.17/outbox.cif.g08.bks.cpg/sg85_cif.got.tgz:1765.got - 2010.06.03 19:01:16.
