data_PCOD9544434
_publ_section_title
;
Structure prediction by ZEFSAII (Michael W. Deem and Ramdas Pophale) SiO2 
 PCOD9544434
Probable space group: P 42/M
;
_chemical_formula_sum "Si O2"
_cell_formula_units_Z 40
_cell_length_a 8.852415
_cell_length_b 8.852415
_cell_length_c 23.253794
_cell_angle_alpha 90.000000
_cell_angle_beta 90.000000
_cell_angle_gamma 90.000000
_cell_volume 1822.289411
_symmetry_space_group_name_H-M "P 42/M"
_symmetry_group_IT_number 84
_symmetry_cell_setting 'tetragonal'
loop_
_space_group_symop_operation_xyz
x,y,z
-y,x,1/2+z
-x,-y,z
y,-x,1/2+z
-x,-y,-z
y,-x,1/2-z
x,y,-z
-y,x,1/2-z
loop_
_atom_site_type_symbol
_atom_site_label
_atom_site_fract_x
_atom_site_fract_y
_atom_site_fract_z
Si Si1 0.093232 0.139622 0.388233
Si Si2 0.636915 0.882073 0.184624
Si Si3 0.864293 0.382526 0.815506
Si Si4 0.231399 0.660074 0.500000
Si Si5 0.591597 0.356489 0.610093
Si Si6 0.686113 0.132062 0.000000
O O1 0.231665 0.089745 0.348627
O O2 0.166587 0.234277 0.439942
O O3 0.974844 0.233284 0.348840
O O4 0.000000 0.000000 0.412873
O O5 0.666782 0.829866 0.249991
O O6 0.595818 0.732124 0.149900
O O7 0.500000 0.000000 0.184812
O O8 0.738484 0.474897 0.851117
O O9 0.000000 0.500000 0.812042
O O10 0.323569 0.716603 0.555472
O O11 0.212112 0.476819 0.500000
O O12 0.052653 0.694532 0.500000
O O13 0.500000 0.500000 0.587971
#
# Coordination Sequence:
#
# PCOD9544434 Si02
#       6
#     8   8   8   4   8   4
#     4  12  26  46  74 102 141 190 241 300 356 432
#     4  11  25  44  70 101 142 189 240 290 359 446
#     4  11  28  44  66 106 144 183 235 299 368 429
#     4  11  23  44  74  99 139 188 239 297 350 436
#     4  12  25  43  70 105 139 182 235 299 361 420
#     4  11  23  46  72 108 137 185 255 293 352 438
#
# _framework density 21.950410999999999
#
# number of rings (size 3 to 8) (size 9 to 14) (size 15 to 20)
#    0.000    0.600    2.000    5.400   11.200    0.800 
#    0.000    1.000    0.000    0.000    0.000    0.000 
#    0.000    0.000    0.000    0.000    0.000    0.000 
#
# Total GULP energy -223544.385005 kJ/mol
# GULP energy per Si atom -5588.609625 kJ/mol
# Density = 2.190045 g / cm^3
# Si number density = 21.950411 Si / 1000 Ang^3
#
#
#
# Elastic Constant Matrix: (Units=GPa)
#
#
# Indices 1 2 3 4 5 6 
#
# 1 66.3091 -11.3666 5.7549 0.0000 0.0000 -2.2584
# 2 -11.3666 66.3091 5.7549 0.0000 0.0000 2.2584
# 3 5.7549 5.7549 129.4066 0.0000 0.0000 0.0000
# 4 0.0000 0.0000 0.0000 22.9556 0.0000 0.0000
# 5 0.0000 0.0000 0.0000 0.0000 22.9556 0.0000
# 6 -2.2584 2.2584 0.0000 0.0000 0.0000 34.5868
#
#
#
# Elastic Compliance Matrix: (Units=1/GPa)
#
#
# Indices 1 2 3 4 5 6 
#
# 1 0.015648 0.002724 -0.000817 0.000000 0.000000 0.000844
# 2 0.002724 0.015648 -0.000817 0.000000 0.000000 -0.000844
# 3 -0.000817 -0.000817 0.007800 0.000000 0.000000 0.000000
# 4 0.000000 0.000000 0.000000 0.043562 0.000000 0.000000
# 5 0.000000 0.000000 0.000000 0.000000 0.043562 0.000000
# 6 0.000844 -0.000844 0.000000 0.000000 0.000000 0.029023
#
#
# Mechanical properties :
#
#
# Convention : Reuss Voigt Hill
#
# Bulk Modulus (GPa) = 24.22707 29.14569 26.68638
# Shear Modulus (GPa) = 29.97224 33.55837 31.76530
#
# Velocity S-wave (km/s) = 3.69921 3.91426 3.80826
# Velocity P-wave (km/s) = 5.41357 5.80822 5.61436
#
# Compressibility (1/GPa) = 0.04127615
#
# Stress axis : x y z
#
# Youngs Moduli (GPa) = 63.90774 63.90774 128.20100
#
# Poissons Ratio (x) = -0.17411 0.10474
# Poissons Ratio (y) = -0.17411 0.10474
# Poissons Ratio (z) = 0.05221 0.05221
#
# Static dielectric constant tensor:
#      x y z
#    x 1.793510 0.000000 0.000000 
#    y 0.000000 1.793510 0.000000 
#    z 0.000000 0.000000 1.809590 
# 
# From -- ./inp_files/4873.got.cif
#   From: 2010.05.17/outbox.cif.g08.bks.cpg/sg84_3_cif.got.tgz:4873.got - 2010.06.03 18:57:40.
