data_PCOD9544316
_publ_section_title
;
Structure prediction by ZEFSAII (Michael W. Deem and Ramdas Pophale) SiO2 
 PCOD9544316
Probable space group: P 42/M
;
_chemical_formula_sum "Si O2"
_cell_formula_units_Z 40
_cell_length_a 15.187647
_cell_length_b 15.187647
_cell_length_c 8.251079
_cell_angle_alpha 90.000000
_cell_angle_beta 90.000000
_cell_angle_gamma 90.000000
_cell_volume 1903.232014
_symmetry_space_group_name_H-M "P 42/M"
_symmetry_group_IT_number 84
_symmetry_cell_setting 'tetragonal'
loop_
_space_group_symop_operation_xyz
x,y,z
-y,x,1/2+z
-x,-y,z
y,-x,1/2+z
-x,-y,-z
y,-x,1/2-z
x,y,-z
-y,x,1/2-z
loop_
_atom_site_type_symbol
_atom_site_label
_atom_site_fract_x
_atom_site_fract_y
_atom_site_fract_z
Si Si1 0.384265 0.733863 0.192975
Si Si2 0.100379 0.285321 0.190132
Si Si3 0.253251 0.577741 0.196170
Si Si4 0.100585 0.914511 0.181895
Si Si5 0.949462 0.410902 0.802304
O O1 0.356470 0.823834 0.280458
O O2 0.317333 0.657030 0.244159
O O3 0.484750 0.713880 0.236292
O O4 0.375555 0.746408 0.000000
O O5 0.125014 0.194876 0.277590
O O6 0.008812 0.328052 0.249000
O O7 0.092182 0.266653 0.000000
O O8 0.151869 0.591668 0.250038
O O9 0.252983 0.573315 0.000000
O O10 0.019997 0.889358 0.297255
O O11 0.073917 0.891942 0.000000
O O12 0.000000 0.500000 0.750670
O O13 0.949873 0.411081 0.000000
#
# Coordination Sequence:
#
# PCOD9544316 Si02
#       5
#     8   8   8   8   8
#     4  11  24  40  62  92 124 161 208 266 321 374
#     4  11  22  38  63  91 123 164 205 255 314 376
#     4  10  22  42  64  88 121 163 206 254 316 384
#     4  11  23  41  61  87 123 165 212 257 308 369
#     4   9  17  35  63  88 112 154 200 240 299 367
#
# _framework density 21.016881000000001
#
# number of rings (size 3 to 8) (size 9 to 14) (size 15 to 20)
#    0.000    1.600    2.000    3.600    2.800    2.000 
#    0.000    5.000    0.000    0.000    0.000    0.000 
#    0.000    0.000    0.000    0.000    0.000    0.000 
#
# Total GULP energy -223613.932929 kJ/mol
# GULP energy per Si atom -5590.348323 kJ/mol
# Density = 2.096905 g / cm^3
# Si number density = 21.016881 Si / 1000 Ang^3
#
#
#
# Elastic Constant Matrix: (Units=GPa)
#
#
# Indices 1 2 3 4 5 6 
#
# 1 87.2002 34.4857 5.1333 0.0000 0.0000 -10.8560
# 2 34.4857 87.2002 5.1333 0.0000 0.0000 10.8560
# 3 5.1333 5.1333 32.2609 0.0000 0.0000 0.0000
# 4 0.0000 0.0000 0.0000 24.4221 0.0000 0.0000
# 5 0.0000 0.0000 0.0000 0.0000 24.4221 0.0000
# 6 -10.8560 10.8560 0.0000 0.0000 0.0000 33.7946
#
#
#
# Elastic Compliance Matrix: (Units=1/GPa)
#
#
# Indices 1 2 3 4 5 6 
#
# 1 0.015096 -0.006767 -0.001325 0.000000 0.000000 0.007023
# 2 -0.006767 0.015096 -0.001325 0.000000 0.000000 -0.007023
# 3 -0.001325 -0.001325 0.031419 0.000000 0.000000 0.000000
# 4 0.000000 0.000000 0.000000 0.040947 0.000000 0.000000
# 5 0.000000 0.000000 0.000000 0.000000 0.040947 0.000000
# 6 0.007023 -0.007023 0.000000 0.000000 0.000000 0.034103
#
#
# Mechanical properties :
#
#
# Convention : Reuss Voigt Hill
#
# Bulk Modulus (GPa) = 23.37716 32.90734 28.14225
# Shear Modulus (GPa) = 23.73034 27.32170 25.52602
#
# Velocity S-wave (km/s) = 3.36387 3.60945 3.48882
# Velocity P-wave (km/s) = 5.12198 5.74999 5.44504
#
# Compressibility (1/GPa) = 0.04277679
#
# Stress axis : x y z
#
# Youngs Moduli (GPa) = 66.24173 66.24173 31.82782
#
# Poissons Ratio (x) = 0.44823 0.04219
# Poissons Ratio (y) = 0.44823 0.04219
# Poissons Ratio (z) = 0.08780 0.08780
#
# Static dielectric constant tensor:
#      x y z
#    x 1.743920 0.000000 0.000000 
#    y 0.000000 1.743920 0.000000 
#    z 0.000000 0.000000 1.748540 
# 
# From -- ./inp_files/765.got.cif
#   From: 2010.05.17/outbox.cif.g08.bks.cpg/sg84_1_cif.got.tgz:765.got - 2010.06.03 18:57:40.
