data_PCOD9544535
_publ_section_title
;
Structure prediction by ZEFSAII (Michael W. Deem and Ramdas Pophale) SiO2 
 PCOD9544535
Probable space group: P 4/N
;
_chemical_formula_sum "Si O2"
_cell_formula_units_Z 48
_cell_length_a 20.479134
_cell_length_b 20.479134
_cell_length_c 5.213797
_cell_angle_alpha 90.000000
_cell_angle_beta 90.000000
_cell_angle_gamma 90.000000
_cell_volume 2186.640025
_symmetry_space_group_name_H-M "P 4/N"
_symmetry_group_IT_number 85
_symmetry_cell_setting 'tetragonal'
loop_
_space_group_symop_operation_xyz
x,y,z
1/2-y,x,z
1/2-x,1/2-y,z
y,1/2-x,z
-x,-y,-z
1/2+y,-x,-z
1/2+x,1/2+y,-z
-y,1/2+x,-z
loop_
_atom_site_type_symbol
_atom_site_label
_atom_site_fract_x
_atom_site_fract_y
_atom_site_fract_z
Si Si1 0.378059 0.346963 0.773290
Si Si2 0.921336 0.020703 0.764909
Si Si3 0.003955 0.105624 0.098346
Si Si4 0.991837 0.662156 0.271684
Si Si5 0.716299 0.981682 0.578502
Si Si6 0.255478 0.146316 0.181935
O O1 0.339436 0.412802 0.719128
O O2 0.428847 0.330124 0.555402
O O3 0.348371 0.279728 0.883732
O O4 0.426379 0.368036 0.004196
O O5 0.974870 0.961909 0.765361
O O6 0.885476 0.019373 0.493886
O O7 0.960544 0.084661 0.855910
O O8 0.868497 0.011171 0.997306
O O9 0.974833 0.165511 0.261820
O O10 0.011047 0.734749 0.368592
O O11 0.755292 0.930096 0.760275
O O12 0.315405 0.191764 0.281928
#
# Coordination Sequence:
#
# PCOD9544535 Si02
#       6
#     8   8   8   8   8   8
#     4  10  20  33  52  74 105 149 189 236 271 332
#     4  10  22  39  55  83 106 149 183 237 276 338
#     4   9  21  35  58  75 110 141 194 222 286 332
#     4  11  23  35  57  79 116 141 188 232 285 322
#     4  11  21  33  53  78 107 147 184 232 281 333
#     4  10  21  33  47  70 105 150 199 235 265 312
#
# _framework density 21.951487
#
# number of rings (size 3 to 8) (size 9 to 14) (size 15 to 20)
#    0.000    1.833    1.667    2.000   11.667    2.000 
#    0.000    1.667    0.000    0.000    0.000    0.000 
#    0.000    4.000    0.000    0.000    0.000    0.000 
#
# Total GULP energy -267465.121932 kJ/mol
# GULP energy per Si atom -5572.190040 kJ/mol
# Density = 2.190152 g / cm^3
# Si number density = 21.951487 Si / 1000 Ang^3
#
#
#
# Elastic Constant Matrix: (Units=GPa)
#
#
# Indices 1 2 3 4 5 6 
#
# 1 59.6702 22.1668 15.3542 0.0000 0.0000 -2.7337
# 2 22.1668 59.6702 15.3542 0.0000 0.0000 2.7337
# 3 15.3542 15.3542 79.7459 0.0000 0.0000 0.0000
# 4 0.0000 0.0000 0.0000 36.1764 0.0000 0.0000
# 5 0.0000 0.0000 0.0000 0.0000 36.1764 0.0000
# 6 -2.7337 2.7337 0.0000 0.0000 0.0000 28.3379
#
#
#
# Elastic Compliance Matrix: (Units=1/GPa)
#
#
# Indices 1 2 3 4 5 6 
#
# 1 0.020108 -0.006937 -0.002536 0.000000 0.000000 0.002609
# 2 -0.006937 0.020108 -0.002536 0.000000 0.000000 -0.002609
# 3 -0.002536 -0.002536 0.013516 0.000000 0.000000 0.000000
# 4 0.000000 0.000000 0.000000 0.027642 0.000000 0.000000
# 5 0.000000 0.000000 0.000000 0.000000 0.027642 0.000000
# 6 0.002609 -0.002609 0.000000 0.000000 0.000000 0.035792
#
#
# Mechanical properties :
#
#
# Convention : Reuss Voigt Hill
#
# Bulk Modulus (GPa) = 33.65349 33.87077 33.76213
# Shear Modulus (GPa) = 27.97508 29.88556 28.93032
#
# Velocity S-wave (km/s) = 3.57375 3.69377 3.63426
# Velocity P-wave (km/s) = 5.69149 5.80131 5.74666
#
# Compressibility (1/GPa) = 0.02971460
#
# Stress axis : x y z
#
# Youngs Moduli (GPa) = 49.73201 49.73201 73.98437
#
# Poissons Ratio (x) = 0.34498 0.18762
# Poissons Ratio (y) = 0.34498 0.18762
# Poissons Ratio (z) = 0.12612 0.12612
#
# Static dielectric constant tensor:
#      x y z
#    x 1.887320 0.000000 0.000000 
#    y 0.000000 1.887320 0.000000 
#    z 0.000000 0.000000 2.060960 
# 
# From -- ./inp_files/448.got.cif
#   From: 2010.05.17/outbox.cif.g08.bks.cpg/sg85_cif.got.tgz:448.got - 2010.06.03 19:01:16.
