data_PCOD9544877
_publ_section_title
;
Structure prediction by ZEFSAII (Michael W. Deem and Ramdas Pophale) SiO2 
 PCOD9544877
Probable space group: P 42/N
;
_chemical_formula_sum "Si O2"
_cell_formula_units_Z 36
_cell_length_a 13.398272
_cell_length_b 13.398272
_cell_length_c 8.460954
_cell_angle_alpha 90.000000
_cell_angle_beta 90.000000
_cell_angle_gamma 90.000000
_cell_volume 1518.857095
_symmetry_space_group_name_H-M "P 42/N"
_symmetry_group_IT_number 86
_space_group.IT_coordinate_system_code '2'
_symmetry_cell_setting 'tetragonal'
loop_
_space_group_symop_operation_xyz
x,y,z
-y,1/2+x,1/2+z
1/2-x,1/2-y,z
1/2+y,-x,1/2+z
-x,-y,-z
y,1/2-x,1/2-z
1/2+x,1/2+y,-z
1/2-y,x,1/2-z
loop_
_atom_site_type_symbol
_atom_site_label
_atom_site_fract_x
_atom_site_fract_y
_atom_site_fract_z
Si Si1 0.835132 0.391663 0.539575
Si Si2 0.393878 0.388515 0.146367
Si Si3 0.557305 0.691441 0.517286
Si Si4 0.168152 0.629333 0.834708
Si Si5 0.750000 0.750000 0.035144
O O1 0.894038 0.492766 0.583191
O O2 0.835678 0.379802 0.352041
O O3 0.720789 0.396785 0.600734
O O4 0.862849 0.286277 0.621276
O O5 0.304720 0.462858 0.088275
O O6 0.408596 0.372034 0.331941
O O7 0.340626 0.290206 0.073390
O O8 0.468974 0.638545 0.428511
O O9 0.647954 0.709752 0.393060
#
# Coordination Sequence:
#
# PCOD9544877 Si02
#       5
#     8   8   8   8   4
#     4  11  23  41  62  88 117 157 200 250 301 356
#     4  10  17  37  64  87 121 154 198 236 299 348
#     4  10  17  37  64  87 121 154 198 236 299 348
#     4  11  23  41  62  88 117 157 200 250 301 356
#     4   8  17  36  61  86 121 160 195 236 297 348
#
# _framework density 23.702033
#
# number of rings (size 3 to 8) (size 9 to 14) (size 15 to 20)
#    1.333    0.444    2.222    6.000    0.000    0.889 
#    4.000    2.222    0.000    0.000    0.000    0.000 
#    0.000    0.000    0.000    0.000    0.000    0.000 
#
# Total GULP energy -200505.763222 kJ/mol
# GULP energy per Si atom -5569.604534 kJ/mol
# Density = 2.364809 g / cm^3
# Si number density = 23.702033 Si / 1000 Ang^3
#
#
#
# Elastic Constant Matrix: (Units=GPa)
#
#
# Indices 1 2 3 4 5 6 
#
# 1 95.9239 -22.9056 18.3531 0.0000 0.0000 8.2095
# 2 -22.9056 95.9239 18.3531 0.0000 0.0000 -8.2095
# 3 18.3531 18.3531 99.3307 0.0000 0.0000 0.0000
# 4 0.0000 0.0000 0.0000 26.6651 0.0000 0.0000
# 5 0.0000 0.0000 0.0000 0.0000 26.6651 0.0000
# 6 8.2095 -8.2095 0.0000 0.0000 0.0000 4.9501
#
#
#
# Elastic Compliance Matrix: (Units=1/GPa)
#
#
# Indices 1 2 3 4 5 6 
#
# 1 0.013007 0.002090 -0.002790 0.000000 0.000000 -0.018106
# 2 0.002090 0.013007 -0.002790 0.000000 0.000000 0.018106
# 3 -0.002790 -0.002790 0.011098 0.000000 0.000000 0.000000
# 4 0.000000 0.000000 0.000000 0.037502 0.000000 0.000000
# 5 0.000000 0.000000 0.000000 0.000000 0.037502 0.000000
# 6 -0.018106 0.018106 0.000000 0.000000 0.000000 0.262072
#
#
# Mechanical properties :
#
#
# Convention : Reuss Voigt Hill
#
# Bulk Modulus (GPa) = 33.18393 35.41997 34.30195
# Shear Modulus (GPa) = 12.78080 30.14791 21.46436
#
# Velocity S-wave (km/s) = 2.32465 3.57032 3.01257
# Velocity P-wave (km/s) = 4.60827 5.65442 5.15794
#
# Compressibility (1/GPa) = 0.03013507
#
# Stress axis : x y z
#
# Youngs Moduli (GPa) = 76.87981 76.87981 90.10461
#
# Poissons Ratio (x) = -0.16069 0.25135
# Poissons Ratio (y) = -0.16069 0.25135
# Poissons Ratio (z) = 0.21446 0.21446
#
# Static dielectric constant tensor:
#      x y z
#    x 2.012380 0.000000 0.000000 
#    y 0.000000 2.012380 0.000000 
#    z 0.000000 0.000000 1.876020 
# 
# From -- ./inp_files/1045.got.cif
#   From: 2010.05.17/outbox.cif.g08.bks.cpg/sg86_1_cif.got.tgz:1045.got - 2010.06.03 19:03:11.
