data_PCOD9544682
_publ_section_title
;
Structure prediction by ZEFSAII (Michael W. Deem and Ramdas Pophale) SiO2 
 PCOD9544682
Probable space group: P 4/N
;
_chemical_formula_sum "Si O2"
_cell_formula_units_Z 58
_cell_length_a 17.635680
_cell_length_b 17.635680
_cell_length_c 8.959114
_cell_angle_alpha 90.000000
_cell_angle_beta 90.000000
_cell_angle_gamma 90.000000
_cell_volume 2786.438632
_symmetry_space_group_name_H-M "P 4/N"
_symmetry_group_IT_number 85
_symmetry_cell_setting 'tetragonal'
loop_
_space_group_symop_operation_xyz
x,y,z
1/2-y,x,z
1/2-x,1/2-y,z
y,1/2-x,z
-x,-y,-z
1/2+y,-x,-z
1/2+x,1/2+y,-z
-y,1/2+x,-z
loop_
_atom_site_type_symbol
_atom_site_label
_atom_site_fract_x
_atom_site_fract_y
_atom_site_fract_z
Si Si1 0.431128 0.529903 0.102384
Si Si2 0.750000 0.750000 0.399741
Si Si3 0.236173 0.127463 0.226996
Si Si4 0.385446 0.366633 0.640947
Si Si5 0.035192 0.814108 0.246002
Si Si6 0.636764 0.222756 0.532356
Si Si7 0.809445 0.938995 0.074693
Si Si8 0.990219 0.648894 0.606930
O O1 0.437175 0.618825 0.137927
O O2 0.417335 0.494052 0.267854
O O3 0.500000 0.500000 0.000000
O O4 0.358790 0.501604 0.010824
O O5 0.666456 0.706407 0.393884
O O6 0.313616 0.169092 0.267064
O O7 0.220242 0.050012 0.311495
O O8 0.227445 0.114483 0.050783
O O9 0.474911 0.349238 0.637074
O O10 0.360987 0.393767 0.807367
O O11 0.370366 0.436142 0.530356
O O12 0.099856 0.766464 0.328259
O O13 0.982097 0.756154 0.159025
O O14 0.669975 0.291260 0.431291
O O15 0.572395 0.173525 0.451137
#
# Coordination Sequence:
#
# PCOD9544682 Si02
#       8
#     8   2   8   8   8   8   8   8
#     4  11  25  48  71  99 145 186 233 290 353 426
#     4  12  24  36  64 106 152 176 224 274 356 440
#     4  10  24  39  61  95 144 186 223 273 347 428
#     4  12  24  39  72 104 139 185 228 291 352 430
#     4  12  24  47  70 101 144 179 240 292 353 432
#     4  11  24  48  74  98 133 181 239 306 361 411
#     4  11  23  43  65 100 132 187 236 275 358 415
#     4  11  25  45  66 108 134 183 236 293 362 414
#
# _framework density 20.815100000000001
#
# number of rings (size 3 to 8) (size 9 to 14) (size 15 to 20)
#    0.000    0.828    5.517    0.828    5.793    0.552 
#    7.448    0.000    0.000    0.000    0.000    0.000 
#    0.000    0.000    0.000    0.000    0.000    0.000 
#
# Total GULP energy -323632.062261 kJ/mol
# GULP energy per Si atom -5579.863142 kJ/mol
# Density = 2.076772 g / cm^3
# Si number density = 20.815100 Si / 1000 Ang^3
#
#
#
# Elastic Constant Matrix: (Units=GPa)
#
#
# Indices 1 2 3 4 5 6 
#
# 1 78.5552 15.3102 16.8288 0.0000 0.0000 -5.8327
# 2 15.3102 78.5552 16.8288 0.0000 0.0000 5.8327
# 3 16.8288 16.8288 79.0094 0.0000 0.0000 0.0000
# 4 0.0000 0.0000 0.0000 23.6842 0.0000 0.0000
# 5 0.0000 0.0000 0.0000 0.0000 23.6842 0.0000
# 6 -5.8327 5.8327 0.0000 0.0000 0.0000 54.5007
#
#
#
# Elastic Compliance Matrix: (Units=1/GPa)
#
#
# Indices 1 2 3 4 5 6 
#
# 1 0.013832 -0.002298 -0.002457 0.000000 0.000000 0.001726
# 2 -0.002298 0.013832 -0.002457 0.000000 0.000000 -0.001726
# 3 -0.002457 -0.002457 0.013703 0.000000 0.000000 0.000000
# 4 0.000000 0.000000 0.000000 0.042222 0.000000 0.000000
# 5 0.000000 0.000000 0.000000 0.000000 0.042222 0.000000
# 6 0.001726 -0.001726 0.000000 0.000000 0.000000 0.018718
#
#
# Mechanical properties :
#
#
# Convention : Reuss Voigt Hill
#
# Bulk Modulus (GPa) = 37.11259 37.11727 37.11493
# Shear Modulus (GPa) = 29.77349 32.85060 31.31204
#
# Velocity S-wave (km/s) = 3.78614 3.97698 3.88273
# Velocity P-wave (km/s) = 6.08124 6.24172 6.16200
#
# Compressibility (1/GPa) = 0.02694504
#
# Stress axis : x y z
#
# Youngs Moduli (GPa) = 72.29500 72.29500 72.97498
#
# Poissons Ratio (x) = 0.16611 0.17929
# Poissons Ratio (y) = 0.16611 0.17929
# Poissons Ratio (z) = 0.17762 0.17762
#
# Static dielectric constant tensor:
#      x y z
#    x 1.757480 0.000000 0.000000 
#    y 0.000000 1.757480 0.000000 
#    z 0.000000 0.000000 1.786680 
# 
# From -- ./inp_files/1190.got.cif
#   From: 2010.05.17/outbox.cif.g08.bks.cpg/sg85_cif.got.tgz:1190.got - 2010.06.03 19:01:16.
