data_PCOD9544192
_publ_section_title
;
Structure prediction by ZEFSAII (Michael W. Deem and Ramdas Pophale) SiO2 
 PCOD9544192
Probable space group: P 42/M
;
_chemical_formula_sum "Si O2"
_cell_formula_units_Z 40
_cell_length_a 8.338438
_cell_length_b 8.338438
_cell_length_c 24.875130
_cell_angle_alpha 90.000000
_cell_angle_beta 90.000000
_cell_angle_gamma 90.000000
_cell_volume 1729.556552
_symmetry_space_group_name_H-M "P 42/M"
_symmetry_group_IT_number 84
_symmetry_cell_setting 'tetragonal'
loop_
_space_group_symop_operation_xyz
x,y,z
-y,x,1/2+z
-x,-y,z
y,-x,1/2+z
-x,-y,-z
y,-x,1/2-z
x,y,-z
-y,x,1/2-z
loop_
_atom_site_type_symbol
_atom_site_label
_atom_site_fract_x
_atom_site_fract_y
_atom_site_fract_z
Si Si1 0.685656 0.472148 0.828667
Si Si2 0.195216 0.015176 0.057933
Si Si3 0.650824 0.820327 0.437937
Si Si4 0.862606 0.178784 0.778928
Si Si5 0.107238 0.256037 0.133519
O O1 0.500000 0.500000 0.818768
O O2 0.717393 0.435711 0.892121
O O3 0.746896 0.327179 0.791113
O O4 0.803822 0.625474 0.825271
O O5 0.230456 0.135045 0.106025
O O6 0.248420 0.832945 0.062547
O O7 0.246183 0.080870 0.000000
O O8 0.000000 0.000000 0.056918
O O9 0.596076 0.816675 0.500000
O O10 0.663134 0.003942 0.414904
O O11 0.827950 0.965849 0.666458
O O12 0.004086 0.208415 0.734910
#
# Coordination Sequence:
#
# PCOD9544192 Si02
#       5
#     8   8   8   8   8
#     4  11  25  45  63  98 149 180 210 276 360 429
#     4   8  15  29  59  98 131 168 220 279 318 367
#     4   9  18  34  65  99 136 185 234 275 319 396
#     4  10  23  42  74  97 116 167 234 293 336 403
#     4  10  20  38  65  97 135 169 225 284 346 400
#
# _framework density 23.127313999999998
#
# number of rings (size 3 to 8) (size 9 to 14) (size 15 to 20)
#    0.000    2.400    0.000    4.200   14.000    2.800 
#    7.200    1.000    0.000    2.400    0.000    0.000 
#    0.000    0.000    0.000    0.000    0.000    5.000 
#
# Total GULP energy -223097.862429 kJ/mol
# GULP energy per Si atom -5577.446561 kJ/mol
# Density = 2.307468 g / cm^3
# Si number density = 23.127314 Si / 1000 Ang^3
#
#
#
# Elastic Constant Matrix: (Units=GPa)
#
#
# Indices 1 2 3 4 5 6 
#
# 1 103.5556 52.7197 33.7630 0.0000 0.0000 -14.0927
# 2 52.7197 103.5556 33.7630 0.0000 0.0000 14.0927
# 3 33.7630 33.7630 123.6588 0.0000 0.0000 0.0000
# 4 0.0000 0.0000 0.0000 21.2494 0.0000 0.0000
# 5 0.0000 0.0000 0.0000 0.0000 21.2494 0.0000
# 6 -14.0927 14.0927 0.0000 0.0000 0.0000 25.7524
#
#
#
# Elastic Compliance Matrix: (Units=1/GPa)
#
#
# Indices 1 2 3 4 5 6 
#
# 1 0.017747 -0.010492 -0.001981 0.000000 0.000000 0.015454
# 2 -0.010492 0.017747 -0.001981 0.000000 0.000000 -0.015454
# 3 -0.001981 -0.001981 0.009168 0.000000 0.000000 0.000000
# 4 0.000000 0.000000 0.000000 0.047060 0.000000 0.000000
# 5 0.000000 0.000000 0.000000 0.000000 0.047060 0.000000
# 6 0.015454 -0.015454 0.000000 0.000000 0.000000 0.055745
#
#
# Mechanical properties :
#
#
# Convention : Reuss Voigt Hill
#
# Bulk Modulus (GPa) = 63.47241 63.47349 63.47295
# Shear Modulus (GPa) = 21.86396 27.68520 24.77458
#
# Velocity S-wave (km/s) = 3.07803 3.46364 3.27651
# Velocity P-wave (km/s) = 6.33535 6.59549 6.46673
#
# Compressibility (1/GPa) = 0.01575488
#
# Stress axis : x y z
#
# Youngs Moduli (GPa) = 56.34745 56.34745 109.06995
#
# Poissons Ratio (x) = 0.59121 0.21605
# Poissons Ratio (y) = 0.59121 0.21605
# Poissons Ratio (z) = 0.11161 0.11161
#
# Static dielectric constant tensor:
#      x y z
#    x 1.948760 0.000000 0.000000 
#    y 0.000000 1.948760 0.000000 
#    z 0.000000 0.000000 1.950220 
# 
# From -- ./inp_files/5338.got.cif
#   From: 2010.05.17/outbox.cif.g08.bks.cpg/sg84_3_cif.got.tgz:5338.got - 2010.06.03 18:57:40.
