data_PCOD9544032
_publ_section_title
;
Structure prediction by ZEFSAII (Michael W. Deem and Ramdas Pophale) SiO2 
 PCOD9544032
Probable space group: P 42/M
;
_chemical_formula_sum "Si O2"
_cell_formula_units_Z 48
_cell_length_a 18.317136
_cell_length_b 18.317136
_cell_length_c 8.859941
_cell_angle_alpha 90.000000
_cell_angle_beta 90.000000
_cell_angle_gamma 90.000000
_cell_volume 2972.665000
_symmetry_space_group_name_H-M "P 42/M"
_symmetry_group_IT_number 84
_symmetry_cell_setting 'tetragonal'
loop_
_space_group_symop_operation_xyz
x,y,z
-y,x,1/2+z
-x,-y,z
y,-x,1/2+z
-x,-y,-z
y,-x,1/2-z
x,y,-z
-y,x,1/2-z
loop_
_atom_site_type_symbol
_atom_site_label
_atom_site_fract_x
_atom_site_fract_y
_atom_site_fract_z
Si Si1 0.191104 0.814856 0.672549
Si Si2 0.203677 0.421886 0.681626
Si Si3 0.798830 0.417862 0.819399
Si Si4 0.917007 0.697652 0.680775
Si Si5 0.084574 0.693987 0.316066
Si Si6 0.686978 0.686140 0.174316
O O1 0.179703 0.837911 0.500000
O O2 0.227428 0.880392 0.763182
O O3 0.119239 0.772488 0.727998
O O4 0.252003 0.750484 0.673709
O O5 0.205006 0.426977 0.500000
O O6 0.195557 0.500846 0.754821
O O7 0.135854 0.369210 0.726932
O O8 0.276693 0.382000 0.741257
O O9 0.865411 0.368839 0.755550
O O10 0.724680 0.380060 0.758167
O O11 0.799657 0.417285 0.000000
O O12 0.917025 0.698590 0.500000
O O13 0.000416 0.688147 0.730082
O O14 0.090261 0.688875 0.500000
O O15 0.669530 0.669402 0.000000
#
# Coordination Sequence:
#
# PCOD9544032 Si02
#       6
#     8   8   8   8   8   8
#     4   8  15  28  47  67  90 119 155 196 238 280
#     4  10  19  32  50  73  99 128 160 198 240 286
#     4  11  21  32  48  72  99 129 162 197 236 284
#     4   9  18  31  49  70  94 124 160 197 239 288
#     4   9  18  33  49  68  95 128 160 197 242 287
#     4   9  17  32  51  70  93 124 161 201 238 279
#
# _framework density 16.147126
#
# number of rings (size 3 to 8) (size 9 to 14) (size 15 to 20)
#    0.000    2.667    0.000    3.500    0.000    6.000 
#    0.000    3.333    0.000    1.000    0.000    7.000 
#    0.000    0.000    0.000    0.000    0.000    0.000 
#
# Total GULP energy -267416.780110 kJ/mol
# GULP energy per Si atom -5571.182919 kJ/mol
# Density = 1.611037 g / cm^3
# Si number density = 16.147126 Si / 1000 Ang^3
#
#
#
# Elastic Constant Matrix: (Units=GPa)
#
#
# Indices 1 2 3 4 5 6 
#
# 1 88.9939 95.3741 44.6267 0.0000 0.0000 0.2711
# 2 95.3741 88.9939 44.6267 0.0000 0.0000 -0.2711
# 3 44.6267 44.6267 66.1761 0.0000 0.0000 0.0000
# 4 0.0000 0.0000 0.0000 22.6409 0.0000 0.0000
# 5 0.0000 0.0000 0.0000 0.0000 22.6409 0.0000
# 6 0.2711 -0.2711 0.0000 0.0000 0.0000 16.2670
#
#
#
# Elastic Compliance Matrix: (Units=1/GPa)
#
#
# Indices 1 2 3 4 5 6 
#
# 1 -0.074231 0.082284 -0.005431 0.000000 0.000000 0.002609
# 2 0.082284 -0.074231 -0.005431 0.000000 0.000000 -0.002609
# 3 -0.005431 -0.005431 0.022436 0.000000 0.000000 0.000000
# 4 0.000000 0.000000 0.000000 0.044168 0.000000 0.000000
# 5 0.000000 0.000000 0.000000 0.000000 0.044168 0.000000
# 6 0.002609 -0.002609 0.000000 0.000000 0.000000 0.061387
#
#
# Mechanical properties :
#
#
# Convention : Reuss Voigt Hill
#
# Bulk Modulus (GPa) = 59.45636 68.15763 63.80700
# Shear Modulus (GPa) = -44.03590 16.27887 -13.87852
#
# Velocity S-wave (km/s) = -5.22789 3.17860 -2.93491
# Velocity P-wave (km/s) = 0.67854 7.46815 5.30253
#
# Compressibility (1/GPa) = 0.01681906
#
# Stress axis : x y z
#
# Youngs Moduli (GPa) = -13.47141 -13.47141 44.57212
#
# Poissons Ratio (x) = 1.10848 0.24205
# Poissons Ratio (y) = 1.10848 0.24205
# Poissons Ratio (z) = -0.07316 -0.07316
#
# Static dielectric constant tensor:
#      x y z
#    x 1.535860 0.000000 0.000000 
#    y 0.000000 1.535860 0.000000 
#    z 0.000000 0.000000 1.546420 
# 
# From -- ./inp_files/970.got.cif
#   From: 2010.05.17/outbox.cif.g08.bks.cpg/sg84_1_cif.got.tgz:970.got - 2010.06.03 18:57:40.
