data_PCOD9544856
_publ_section_title
;
Structure prediction by ZEFSAII (Michael W. Deem and Ramdas Pophale) SiO2 
 PCOD9544856
Probable space group: P 4/N
;
_chemical_formula_sum "Si O2"
_cell_formula_units_Z 58
_cell_length_a 18.000000
_cell_length_b 18.000000
_cell_length_c 9.000000
_cell_angle_alpha 90.000000
_cell_angle_beta 90.000000
_cell_angle_gamma 90.000000
_cell_volume 2916.000000
_symmetry_space_group_name_H-M "P 4/N"
_symmetry_group_IT_number 85
_symmetry_cell_setting 'tetragonal'
loop_
_space_group_symop_operation_xyz
x,y,z
1/2-y,x,z
1/2-x,1/2-y,z
y,1/2-x,z
-x,-y,-z
1/2+y,-x,-z
1/2+x,1/2+y,-z
-y,1/2+x,-z
loop_
_atom_site_type_symbol
_atom_site_label
_atom_site_fract_x
_atom_site_fract_y
_atom_site_fract_z
Si Si1 0.362288 0.196526 0.492913
Si Si2 0.894492 0.668995 0.160742
Si Si3 0.750000 0.750000 0.065015
Si Si4 0.978801 0.987197 0.172389
Si Si5 0.487609 0.863759 0.661895
Si Si6 0.366689 0.889136 0.150725
Si Si7 0.223076 0.965888 0.030087
Si Si8 0.654496 0.181550 0.536952
O O1 0.346125 0.284137 0.458283
O O2 0.378808 0.194531 0.669874
O O3 0.432834 0.158031 0.412628
O O4 0.817889 0.687044 0.075541
O O5 0.921337 0.582636 0.174176
O O6 0.962894 0.710732 0.077499
O O7 0.937312 0.063901 0.209853
O O8 0.051221 0.979708 0.277157
O O9 0.000000 0.000000 0.000000
O O10 0.482137 0.813526 0.809904
O O11 0.420302 0.844564 0.548016
O O12 0.306590 0.938406 0.062424
O O13 0.335203 0.851980 0.299135
O O14 0.400518 0.825518 0.045005
O O15 0.656297 0.271042 0.548973
#
# Coordination Sequence:
#
# PCOD9544856 Si02
#       8
#     8   8   2   8   8   8   8   8
#     4  11  25  48  71 107 148 192 248 306 366 443
#     4  11  23  47  73 105 142 188 247 303 369 441
#     4  12  24  44  80 110 136 196 252 290 388 436
#     4  11  25  45  68 102 146 185 240 296 358 439
#     4  12  25  46  72 105 143 200 236 299 371 434
#     4  11  25  45  69 104 142 184 242 295 363 429
#     4  11  26  43  71 106 141 189 235 302 361 436
#     4  11  26  46  70 103 142 184 244 299 358 443
#
# _framework density 19.890260999999999
#
# number of rings (size 3 to 8) (size 9 to 14) (size 15 to 20)
#    0.000    0.828    5.517    1.655    5.793    3.586 
#    2.483    0.000    0.000    0.000    0.000    0.000 
#    0.000    0.000    0.000    0.000    0.000    0.000 
#
# Total GULP energy -323588.989512 kJ/mol
# GULP energy per Si atom -5579.120509 kJ/mol
# Density = 1.984499 g / cm^3
# Si number density = 19.890261 Si / 1000 Ang^3
#
#
#
# Elastic Constant Matrix: (Units=GPa)
#
#
# Indices 1 2 3 4 5 6 
#
# 1 145.5906 56.2562 18.2123 0.0000 0.0000 -8.4112
# 2 56.2562 145.5906 18.2123 0.0000 0.0000 8.4112
# 3 18.2123 18.2123 59.3685 0.0000 0.0000 0.0000
# 4 0.0000 0.0000 0.0000 34.8110 0.0000 0.0000
# 5 0.0000 0.0000 0.0000 0.0000 34.8110 0.0000
# 6 -8.4112 8.4112 0.0000 0.0000 0.0000 48.5268
#
#
#
# Elastic Compliance Matrix: (Units=1/GPa)
#
#
# Indices 1 2 3 4 5 6 
#
# 1 0.008408 -0.003164 -0.001609 0.000000 0.000000 0.002006
# 2 -0.003164 0.008408 -0.001609 0.000000 0.000000 -0.002006
# 3 -0.001609 -0.001609 0.017831 0.000000 0.000000 0.000000
# 4 0.000000 0.000000 0.000000 0.028727 0.000000 0.000000
# 5 0.000000 0.000000 0.000000 0.000000 0.028727 0.000000
# 6 0.002006 -0.002006 0.000000 0.000000 0.000000 0.021302
#
#
# Mechanical properties :
#
#
# Convention : Reuss Voigt Hill
#
# Bulk Modulus (GPa) = 45.69393 59.54570 52.61982
# Shear Modulus (GPa) = 37.46437 40.82102 39.14270
#
# Velocity S-wave (km/s) = 4.34470 4.53516 4.44095
# Velocity P-wave (km/s) = 6.94201 7.57797 7.26695
#
# Compressibility (1/GPa) = 0.02188474
#
# Stress axis : x y z
#
# Youngs Moduli (GPa) = 118.93311 118.93311 56.08199
#
# Poissons Ratio (x) = 0.37625 0.09023
# Poissons Ratio (y) = 0.37625 0.09023
# Poissons Ratio (z) = 0.19135 0.19135
#
# Static dielectric constant tensor:
#      x y z
#    x 1.725980 0.000000 0.000000 
#    y 0.000000 1.725980 0.000000 
#    z 0.000000 0.000000 1.716840 
# 
# From -- ./inp_files/1199.got.cif
#   From: 2010.05.17/outbox.ucp.g08.bks.cvg/sg85_cif.got.tgz:1199.got - 2010.06.11 10:35:07.
