data_PCOD9544222
_publ_section_title
;
Structure prediction by ZEFSAII (Michael W. Deem and Ramdas Pophale) SiO2 
 PCOD9544222
Probable space group: P 42/M
;
_chemical_formula_sum "Si O2"
_cell_formula_units_Z 58
_cell_length_a 17.285318
_cell_length_b 17.285318
_cell_length_c 9.435754
_cell_angle_alpha 90.000000
_cell_angle_beta 90.000000
_cell_angle_gamma 90.000000
_cell_volume 2819.235512
_symmetry_space_group_name_H-M "P 42/M"
_symmetry_group_IT_number 84
_symmetry_cell_setting 'tetragonal'
loop_
_space_group_symop_operation_xyz
x,y,z
-y,x,1/2+z
-x,-y,z
y,-x,1/2+z
-x,-y,-z
y,-x,1/2-z
x,y,-z
-y,x,1/2-z
loop_
_atom_site_type_symbol
_atom_site_label
_atom_site_fract_x
_atom_site_fract_y
_atom_site_fract_z
Si Si1 0.778317 0.502667 0.167305
Si Si2 0.198809 0.245321 0.662714
Si Si3 0.070445 0.839690 0.160565
Si Si4 0.901315 0.599980 0.335639
Si Si5 0.040291 0.692352 0.336768
Si Si6 0.222113 0.653620 0.662826
Si Si7 0.607314 0.532963 0.170039
Si Si8 0.000000 0.000000 0.250000
O O1 0.850843 0.542959 0.241800
O O2 0.764246 0.420812 0.242127
O O3 0.698023 0.549529 0.187735
O O4 0.790595 0.493478 0.000000
O O5 0.227744 0.240423 0.500000
O O6 0.159241 0.162341 0.695414
O O7 0.140987 0.316689 0.669743
O O8 0.269701 0.257546 0.768518
O O9 0.032508 0.773790 0.257439
O O10 0.032579 0.923966 0.171666
O O11 0.063106 0.812238 0.000000
O O12 0.902661 0.572657 0.500000
O O13 0.987330 0.621548 0.284507
O O14 0.017145 0.704651 0.500000
O O15 0.129758 0.669042 0.333560
O O16 0.246638 0.642036 0.500000
O O17 0.588332 0.449357 0.240812
O O18 0.590439 0.533179 0.000000
#
# Coordination Sequence:
#
# PCOD9544222 Si02
#       8
#     8   8   8   8   8   8   8   2
#     4  11  25  40  57  89 122 150 190 236 282 338
#     4   9  19  37  59  83 113 151 194 239 289 343
#     4  10  21  36  56  83 115 156 199 242 296 347
#     4  10  21  38  60  84 114 153 192 237 290 343
#     4   9  20  40  62  84 113 150 197 246 291 346
#     4  10  21  38  61  85 113 152 193 238 289 343
#     4  10  22  40  62  87 118 153 188 229 280 338
#     4  12  22  32  52  86 126 156 200 246 290 348
#
# _framework density 20.572953999999999
#
# number of rings (size 3 to 8) (size 9 to 14) (size 15 to 20)
#    0.000    2.069    0.000    2.690    1.931    6.621 
#    0.000    5.517    0.000    0.000    0.000    0.000 
#    0.000    0.000    0.000    0.000    0.000    0.000 
#
# Total GULP energy -323849.343726 kJ/mol
# GULP energy per Si atom -5583.609375 kJ/mol
# Density = 2.052613 g / cm^3
# Si number density = 20.572954 Si / 1000 Ang^3
#
#
#
# Elastic Constant Matrix: (Units=GPa)
#
#
# Indices 1 2 3 4 5 6 
#
# 1 48.9715 1.3017 20.8007 0.0000 0.0000 2.5010
# 2 1.3017 48.9715 20.8007 0.0000 0.0000 -2.5010
# 3 20.8007 20.8007 80.7999 0.0000 0.0000 0.0000
# 4 0.0000 0.0000 0.0000 23.5921 0.0000 0.0000
# 5 0.0000 0.0000 0.0000 0.0000 23.5921 0.0000
# 6 2.5010 -2.5010 0.0000 0.0000 0.0000 15.9938
#
#
#
# Elastic Compliance Matrix: (Units=1/GPa)
#
#
# Indices 1 2 3 4 5 6 
#
# 1 0.023302 0.001974 -0.006507 0.000000 0.000000 -0.003335
# 2 0.001974 0.023302 -0.006507 0.000000 0.000000 0.003335
# 3 -0.006507 -0.006507 0.015726 0.000000 0.000000 0.000000
# 4 0.000000 0.000000 0.000000 0.042387 0.000000 0.000000
# 5 0.000000 0.000000 0.000000 0.000000 0.042387 0.000000
# 6 -0.003335 0.003335 0.000000 0.000000 0.000000 0.063567
#
#
# Mechanical properties :
#
#
# Convention : Reuss Voigt Hill
#
# Bulk Modulus (GPa) = 24.84440 29.39437 27.11938
# Shear Modulus (GPa) = 20.31139 21.69159 21.00149
#
# Velocity S-wave (km/s) = 3.14552 3.25064 3.19851
# Velocity P-wave (km/s) = 5.02940 5.32989 5.18182
#
# Compressibility (1/GPa) = 0.04025052
#
# Stress axis : x y z
#
# Youngs Moduli (GPa) = 42.91536 42.91536 63.58716
#
# Poissons Ratio (x) = -0.08472 0.41375
# Poissons Ratio (y) = -0.08472 0.41375
# Poissons Ratio (z) = 0.27924 0.27924
#
# Static dielectric constant tensor:
#      x y z
#    x 1.747250 0.000000 0.000000 
#    y 0.000000 1.747250 0.000000 
#    z 0.000000 0.000000 1.700460 
# 
# From -- ./inp_files/1215.got.cif
#   From: 2010.05.17/outbox.cif.g08.bks.cpg/sg84_1_cif.got.tgz:1215.got - 2010.06.03 18:57:40.
