data_PCOD9544471
_publ_section_title
;
Structure prediction by ZEFSAII (Michael W. Deem and Ramdas Pophale) SiO2 
 PCOD9544471
Probable space group: P 42/M
;
_chemical_formula_sum "Si O2"
_cell_formula_units_Z 48
_cell_length_a 7.765548
_cell_length_b 7.765548
_cell_length_c 36.278945
_cell_angle_alpha 90.000000
_cell_angle_beta 90.000000
_cell_angle_gamma 90.000000
_cell_volume 2187.755912
_symmetry_space_group_name_H-M "P 42/M"
_symmetry_group_IT_number 84
_symmetry_cell_setting 'tetragonal'
loop_
_space_group_symop_operation_xyz
x,y,z
-y,x,1/2+z
-x,-y,z
y,-x,1/2+z
-x,-y,-z
y,-x,1/2-z
x,y,-z
-y,x,1/2-z
loop_
_atom_site_type_symbol
_atom_site_label
_atom_site_fract_x
_atom_site_fract_y
_atom_site_fract_z
Si Si1 0.801906 0.813150 0.595630
Si Si2 0.325023 0.229052 0.167851
Si Si3 0.819790 0.711661 0.324239
Si Si4 0.277897 0.318884 0.245932
Si Si5 0.211405 0.503912 0.958222
Si Si6 0.811248 0.219037 0.412433
O O1 0.763319 0.813766 0.639496
O O2 0.650751 0.735860 0.570878
O O3 0.988260 0.724963 0.588316
O O4 0.817896 0.012514 0.584986
O O5 0.526740 0.274296 0.171763
O O6 0.222174 0.292680 0.203746
O O7 0.263147 0.272837 0.127157
O O8 0.312643 0.022942 0.170685
O O9 0.799984 0.772040 0.282000
O O10 0.264355 0.522296 0.252850
O O11 0.276878 0.318322 0.944208
O O12 0.000000 0.500000 0.957777
O O13 0.264039 0.541044 0.000000
#
# Coordination Sequence:
#
# PCOD9544471 Si02
#       6
#     8   8   8   8   8   8
#     4   9  18  32  50  73  99 128 164 205 251 304
#     4   9  18  32  48  68  96 130 165 200 245 296
#     4   9  18  32  48  68  96 130 165 200 245 296
#     4   9  18  30  44  65  92 124 162 201 238 282
#     4   9  18  32  51  77 103 127 163 209 257 309
#     4   9  18  32  50  73  99 128 164 205 251 304
#
# _framework density 21.940293
#
# number of rings (size 3 to 8) (size 9 to 14) (size 15 to 20)
#    0.000    3.000    0.000    0.000    2.333    2.000 
#    0.000    3.333    0.000    2.000    0.000    4.667 
#    0.000    0.000    0.000    0.000    0.000    0.000 
#
# Total GULP energy -267417.433372 kJ/mol
# GULP energy per Si atom -5571.196529 kJ/mol
# Density = 2.189036 g / cm^3
# Si number density = 21.940293 Si / 1000 Ang^3
#
#
#
# Elastic Constant Matrix: (Units=GPa)
#
#
# Indices 1 2 3 4 5 6 
#
# 1 27.3986 -12.9904 2.8513 0.0000 0.0000 2.2187
# 2 -12.9904 27.3986 2.8513 0.0000 0.0000 -2.2187
# 3 2.8513 2.8513 106.5730 0.0000 0.0000 0.0000
# 4 0.0000 0.0000 0.0000 32.3669 0.0000 0.0000
# 5 0.0000 0.0000 0.0000 0.0000 32.3669 0.0000
# 6 2.2187 -2.2187 0.0000 0.0000 0.0000 4.5715
#
#
#
# Elastic Compliance Matrix: (Units=1/GPa)
#
#
# Indices 1 2 3 4 5 6 
#
# 1 0.048151 0.021997 -0.001877 0.000000 0.000000 -0.012694
# 2 0.021997 0.048151 -0.001877 0.000000 0.000000 0.012694
# 3 -0.001877 -0.001877 0.009484 0.000000 0.000000 0.000000
# 4 0.000000 0.000000 0.000000 0.030896 0.000000 0.000000
# 5 0.000000 0.000000 0.000000 0.000000 0.030896 0.000000
# 6 -0.012694 0.012694 0.000000 0.000000 0.000000 0.231068
#
#
# Mechanical properties :
#
#
# Convention : Reuss Voigt Hill
#
# Bulk Modulus (GPa) = 7.02880 16.31053 11.66967
# Shear Modulus (GPa) = 12.20756 25.10492 18.65624
#
# Velocity S-wave (km/s) = 2.36137 3.38633 2.91919
# Velocity P-wave (km/s) = 3.26272 4.76863 4.08565
#
# Compressibility (1/GPa) = 0.14227180
#
# Stress axis : x y z
#
# Youngs Moduli (GPa) = 20.76812 20.76812 105.44447
#
# Poissons Ratio (x) = -0.45683 0.19790
# Poissons Ratio (y) = -0.45683 0.19790
# Poissons Ratio (z) = 0.03898 0.03898
#
# Static dielectric constant tensor:
#      x y z
#    x 1.834380 0.000000 0.000000 
#    y 0.000000 1.834380 0.000000 
#    z 0.000000 0.000000 1.817810 
# 
# From -- ./inp_files/5787.got.cif
#   From: 2010.05.17/outbox.cif.g08.bks.cpg/sg84_3_cif.got.tgz:5787.got - 2010.06.03 18:57:40.
