data_PCOD9544968
_publ_section_title
;
Structure prediction by ZEFSAII (Michael W. Deem and Ramdas Pophale) SiO2 
 PCOD9544968
Probable space group: P 42/N
;
_chemical_formula_sum "Si O2"
_cell_formula_units_Z 32
_cell_length_a 16.213314
_cell_length_b 16.213314
_cell_length_c 5.015023
_cell_angle_alpha 90.000000
_cell_angle_beta 90.000000
_cell_angle_gamma 90.000000
_cell_volume 1318.306874
_symmetry_space_group_name_H-M "P 42/N"
_symmetry_group_IT_number 86
_space_group.IT_coordinate_system_code '2'
_symmetry_cell_setting 'tetragonal'
loop_
_space_group_symop_operation_xyz
x,y,z
-y,1/2+x,1/2+z
1/2-x,1/2-y,z
1/2+y,-x,1/2+z
-x,-y,-z
y,1/2-x,1/2-z
1/2+x,1/2+y,-z
1/2-y,x,1/2-z
loop_
_atom_site_type_symbol
_atom_site_label
_atom_site_fract_x
_atom_site_fract_y
_atom_site_fract_z
Si Si1 0.060179 0.726046 0.463335
Si Si2 0.096473 0.624240 0.919728
Si Si3 0.164787 0.357820 0.795171
Si Si4 0.067803 0.387694 0.313574
O O1 0.122331 0.686281 0.679711
O O2 0.070009 0.823199 0.462574
O O3 0.975014 0.698928 0.602641
O O4 0.070862 0.677306 0.182628
O O5 0.016415 0.574469 0.808284
O O6 0.261269 0.359456 0.735535
O O7 0.114486 0.412821 0.581183
O O8 0.134739 0.380021 0.087105
#
# Coordination Sequence:
#
# PCOD9544968 Si02
#       4
#     8   8   8   8
#     4  10  20  33  54  82 114 153 186 221 266 319
#     4  10  20  33  54  82 114 153 186 221 266 319
#     4  11  22  38  62  86 103 132 184 240 295 338
#     4  10  20  37  55  82 118 144 170 238 280 324
#
# _framework density 24.273561999999998
#
# number of rings (size 3 to 8) (size 9 to 14) (size 15 to 20)
#    1.500    0.250    2.500    3.000    0.000    5.000 
#    0.000    0.000    0.000    9.000    0.000    0.000 
#    0.000    0.000    0.000    0.000    0.000    0.000 
#
# Total GULP energy -178359.453684 kJ/mol
# GULP energy per Si atom -5573.732928 kJ/mol
# Density = 2.421831 g / cm^3
# Si number density = 24.273562 Si / 1000 Ang^3
#
#
#
# Elastic Constant Matrix: (Units=GPa)
#
#
# Indices 1 2 3 4 5 6 
#
# 1 77.7489 23.5111 31.7166 0.0000 0.0000 0.4356
# 2 23.5111 77.7489 31.7166 0.0000 0.0000 -0.4356
# 3 31.7166 31.7166 171.0277 0.0000 0.0000 0.0000
# 4 0.0000 0.0000 0.0000 14.8621 0.0000 0.0000
# 5 0.0000 0.0000 0.0000 0.0000 14.8621 0.0000
# 6 0.4356 -0.4356 0.0000 0.0000 0.0000 4.7150
#
#
#
# Elastic Compliance Matrix: (Units=1/GPa)
#
#
# Indices 1 2 3 4 5 6 
#
# 1 0.014819 -0.003646 -0.002072 0.000000 0.000000 -0.001706
# 2 -0.003646 0.014819 -0.002072 0.000000 0.000000 0.001706
# 3 -0.002072 -0.002072 0.006616 0.000000 0.000000 0.000000
# 4 0.000000 0.000000 0.000000 0.067285 0.000000 0.000000
# 5 0.000000 0.000000 0.000000 0.000000 0.067285 0.000000
# 6 -0.001706 0.001706 0.000000 0.000000 0.000000 0.212404
#
#
# Mechanical properties :
#
#
# Convention : Reuss Voigt Hill
#
# Bulk Modulus (GPa) = 48.36916 55.60154 51.98535
# Shear Modulus (GPa) = 12.32439 22.85993 17.59216
#
# Velocity S-wave (km/s) = 2.25573 3.07214 2.69503
# Velocity P-wave (km/s) = 5.17246 5.96155 5.58097
#
# Compressibility (1/GPa) = 0.02067433
#
# Stress axis : x y z
#
# Youngs Moduli (GPa) = 67.48014 67.48014 151.15922
#
# Poissons Ratio (x) = 0.24600 0.31322
# Poissons Ratio (y) = 0.24600 0.31322
# Poissons Ratio (z) = 0.13983 0.13983
#
# Static dielectric constant tensor:
#      x y z
#    x 2.014540 0.000000 0.000000 
#    y 0.000000 2.014540 0.000000 
#    z 0.000000 0.000000 1.978990 
# 
# From -- ./inp_files/256.got.cif
#   From: 2010.05.17/outbox.cif.g08.bks.cpg/sg86_1_cif.got.tgz:256.got - 2010.06.03 19:03:11.
