data_PCOD9544941
_publ_section_title
;
Structure prediction by ZEFSAII (Michael W. Deem and Ramdas Pophale) SiO2 
 PCOD9544941
Probable space group: P 42/N
;
_chemical_formula_sum "Si O2"
_cell_formula_units_Z 48
_cell_length_a 8.192172
_cell_length_b 8.192172
_cell_length_c 30.553019
_cell_angle_alpha 90.000000
_cell_angle_beta 90.000000
_cell_angle_gamma 90.000000
_cell_volume 2050.464498
_symmetry_space_group_name_H-M "P 42/N"
_symmetry_group_IT_number 86
_space_group.IT_coordinate_system_code '2'
_symmetry_cell_setting 'tetragonal'
loop_
_space_group_symop_operation_xyz
x,y,z
-y,1/2+x,1/2+z
1/2-x,1/2-y,z
1/2+y,-x,1/2+z
-x,-y,-z
y,1/2-x,1/2-z
1/2+x,1/2+y,-z
1/2-y,x,1/2-z
loop_
_atom_site_type_symbol
_atom_site_label
_atom_site_fract_x
_atom_site_fract_y
_atom_site_fract_z
Si Si1 0.508677 0.913853 0.433106
Si Si2 0.127212 0.503502 0.342346
Si Si3 0.837883 0.073619 0.419361
Si Si4 0.639900 0.989325 0.832582
Si Si5 0.557159 0.747369 0.516900
Si Si6 0.139100 0.000406 0.753771
O O1 0.474555 0.778862 0.469829
O O2 0.415376 0.904186 0.387253
O O3 0.703200 0.935916 0.426379
O O4 0.465103 0.087888 0.454656
O O5 0.024427 0.333481 0.341862
O O6 0.311283 0.440705 0.336742
O O7 0.080766 0.609680 0.300517
O O8 0.750000 0.250000 0.421482
O O9 0.907521 0.058169 0.370984
O O10 0.978765 0.099017 0.455730
O O11 0.607997 0.067092 0.785416
O O12 0.750000 0.750000 0.511194
O O13 0.042311 0.172035 0.753222
#
# Coordination Sequence:
#
# PCOD9544941 Si02
#       6
#     8   8   8   8   8   8
#     4  10  21  37  62  89 126 172 213 276 325 386
#     4  11  22  41  67  97 130 161 222 268 322 393
#     4  10  19  36  64  92 121 169 215 264 336 378
#     4  11  22  39  70  99 120 171 216 271 323 390
#     4  10  20  37  59  89 124 169 217 272 321 386
#     4  11  26  44  65  95 134 170 206 261 329 396
#
# _framework density 23.409327999999999
#
# number of rings (size 3 to 8) (size 9 to 14) (size 15 to 20)
#    0.000    1.500    3.333    3.000    0.000    4.000 
#    6.000    3.333    3.667    0.000    0.000    0.000 
#    0.000    0.000    0.000    0.000    0.000    0.000 
#
# Total GULP energy -268756.547556 kJ/mol
# GULP energy per Si atom -5599.094741 kJ/mol
# Density = 2.335605 g / cm^3
# Si number density = 23.409328 Si / 1000 Ang^3
#
#
#
# Elastic Constant Matrix: (Units=GPa)
#
#
# Indices 1 2 3 4 5 6 
#
# 1 44.1473 2.9837 16.3599 0.0000 0.0000 1.7509
# 2 2.9837 44.1473 16.3599 0.0000 0.0000 -1.7509
# 3 16.3599 16.3599 190.4653 0.0000 0.0000 0.0000
# 4 0.0000 0.0000 0.0000 76.1570 0.0000 0.0000
# 5 0.0000 0.0000 0.0000 0.0000 76.1570 0.0000
# 6 1.7509 -1.7509 0.0000 0.0000 0.0000 8.8215
#
#
#
# Elastic Compliance Matrix: (Units=1/GPa)
#
#
# Indices 1 2 3 4 5 6 
#
# 1 0.023637 -0.001074 -0.001938 0.000000 0.000000 -0.004905
# 2 -0.001074 0.023637 -0.001938 0.000000 0.000000 0.004905
# 3 -0.001938 -0.001938 0.005583 0.000000 0.000000 0.000000
# 4 0.000000 0.000000 0.000000 0.013131 0.000000 0.000000
# 5 0.000000 0.000000 0.000000 0.000000 0.013131 0.000000
# 6 -0.004905 0.004905 0.000000 0.000000 0.000000 0.115307
#
#
# Mechanical properties :
#
#
# Convention : Reuss Voigt Hill
#
# Bulk Modulus (GPa) = 23.27914 38.90742 31.09328
# Shear Modulus (GPa) = 22.86826 48.43085 35.64955
#
# Velocity S-wave (km/s) = 3.12891 4.55342 3.90664
# Velocity P-wave (km/s) = 4.79785 6.65593 5.80176
#
# Compressibility (1/GPa) = 0.04295691
#
# Stress axis : x y z
#
# Youngs Moduli (GPa) = 42.30712 42.30712 179.10781
#
# Poissons Ratio (x) = 0.04543 0.34711
# Poissons Ratio (y) = 0.04543 0.34711
# Poissons Ratio (z) = 0.08199 0.08199
#
# Static dielectric constant tensor:
#      x y z
#    x 1.916120 0.000000 0.000000 
#    y 0.000000 1.916120 0.000000 
#    z 0.000000 0.000000 1.850110 
# 
# From -- ./inp_files/5189.got.cif
#   From: 2010.05.17/outbox.cif.g08.bks.cpg/sg86_3_cif.got.tgz:5189.got - 2010.06.03 19:03:11.
