data_PCOD9544659
_publ_section_title
;
Structure prediction by ZEFSAII (Michael W. Deem and Ramdas Pophale) SiO2 
 PCOD9544659
Probable space group: P 4/N
;
_chemical_formula_sum "Si O2"
_cell_formula_units_Z 48
_cell_length_a 14.152602
_cell_length_b 14.152602
_cell_length_c 11.384381
_cell_angle_alpha 90.000000
_cell_angle_beta 90.000000
_cell_angle_gamma 90.000000
_cell_volume 2280.247609
_symmetry_space_group_name_H-M "P 4/N"
_symmetry_group_IT_number 85
_symmetry_cell_setting 'tetragonal'
loop_
_space_group_symop_operation_xyz
x,y,z
1/2-y,x,z
1/2-x,1/2-y,z
y,1/2-x,z
-x,-y,-z
1/2+y,-x,-z
1/2+x,1/2+y,-z
-y,1/2+x,-z
loop_
_atom_site_type_symbol
_atom_site_label
_atom_site_fract_x
_atom_site_fract_y
_atom_site_fract_z
Si Si1 0.805333 0.109201 0.031407
Si Si2 0.890212 0.825505 0.725621
Si Si3 0.332783 0.524386 0.729079
Si Si4 0.500269 0.377632 0.715183
Si Si5 0.521421 0.921467 0.900651
Si Si6 0.957101 0.100343 0.460602
O O1 0.849426 0.093069 0.160052
O O2 0.696367 0.139986 0.030399
O O3 0.825116 0.013013 0.961017
O O4 0.786253 0.873248 0.714760
O O5 0.924136 0.873997 0.847319
O O6 0.965413 0.853724 0.625508
O O7 0.401245 0.433838 0.716347
O O8 0.228217 0.488870 0.759297
O O9 0.362016 0.583265 0.612869
O O10 0.562176 0.449686 0.791809
O O11 0.547829 0.355230 0.588866
O O12 0.500000 0.000000 0.000000
O O13 0.000000 0.000000 0.500000
#
# Coordination Sequence:
#
# PCOD9544659 Si02
#       6
#     8   8   8   8   8   8
#     4  11  24  41  66  98 132 177 228 274 329 405
#     4  11  26  44  69 100 131 173 225 275 334 402
#     4  11  23  45  65  97 134 177 225 273 339 398
#     4  11  24  41  68  97 132 175 223 273 342 396
#     4  12  23  42  67  94 132 177 214 274 333 398
#     4  10  22  43  64  95 130 176 217 273 333 397
#
# _framework density 21.050346999999999
#
# number of rings (size 3 to 8) (size 9 to 14) (size 15 to 20)
#    0.000    1.000    6.667    0.000    9.333    0.333 
#    0.000    0.000    0.000    0.000    0.000    0.000 
#    0.000    0.000    0.000    0.000    0.000    0.000 
#
# Total GULP energy -267374.658899 kJ/mol
# GULP energy per Si atom -5570.305394 kJ/mol
# Density = 2.100243 g / cm^3
# Si number density = 21.050347 Si / 1000 Ang^3
#
#
#
# Elastic Constant Matrix: (Units=GPa)
#
#
# Indices 1 2 3 4 5 6 
#
# 1 74.8832 16.0869 19.6038 0.0000 0.0000 3.1913
# 2 16.0869 74.8832 19.6038 0.0000 0.0000 -3.1913
# 3 19.6038 19.6038 99.6480 0.0000 0.0000 0.0000
# 4 0.0000 0.0000 0.0000 18.6374 0.0000 0.0000
# 5 0.0000 0.0000 0.0000 0.0000 18.6374 0.0000
# 6 3.1913 -3.1913 0.0000 0.0000 0.0000 29.4960
#
#
#
# Elastic Compliance Matrix: (Units=1/GPa)
#
#
# Indices 1 2 3 4 5 6 
#
# 1 0.014611 -0.002599 -0.002363 0.000000 0.000000 -0.001862
# 2 -0.002599 0.014611 -0.002363 0.000000 0.000000 0.001862
# 3 -0.002363 -0.002363 0.010965 0.000000 0.000000 0.000000
# 4 0.000000 0.000000 0.000000 0.053655 0.000000 0.000000
# 5 0.000000 0.000000 0.000000 0.000000 0.053655 0.000000
# 6 -0.001862 0.001862 0.000000 0.000000 0.000000 0.034306
#
#
# Mechanical properties :
#
#
# Convention : Reuss Voigt Hill
#
# Bulk Modulus (GPa) = 39.16136 40.00036 39.58086
# Shear Modulus (GPa) = 24.39437 26.29550 25.34493
#
# Velocity S-wave (km/s) = 3.40789 3.53820 3.47366
# Velocity P-wave (km/s) = 5.84201 5.97790 5.91034
#
# Compressibility (1/GPa) = 0.02553538
#
# Stress axis : x y z
#
# Youngs Moduli (GPa) = 68.44380 68.44380 91.19888
#
# Poissons Ratio (x) = 0.17792 0.21550
# Poissons Ratio (y) = 0.17792 0.21550
# Poissons Ratio (z) = 0.16173 0.16173
#
# Static dielectric constant tensor:
#      x y z
#    x 1.817230 0.000000 0.000000 
#    y 0.000000 1.817230 0.000000 
#    z 0.000000 0.000000 2.496310 
# 
# From -- ./inp_files/1646.got.cif
#   From: 2010.05.17/outbox.cif.g08.bks.cpg/sg85_cif.got.tgz:1646.got - 2010.06.03 19:01:16.
