data_PCOD9544632
_publ_section_title
;
Structure prediction by ZEFSAII (Michael W. Deem and Ramdas Pophale) SiO2 
 PCOD9544632
Probable space group: P 4/N
;
_chemical_formula_sum "Si O2"
_cell_formula_units_Z 40
_cell_length_a 18.680912
_cell_length_b 18.680912
_cell_length_c 5.070586
_cell_angle_alpha 90.000000
_cell_angle_beta 90.000000
_cell_angle_gamma 90.000000
_cell_volume 1769.515219
_symmetry_space_group_name_H-M "P 4/N"
_symmetry_group_IT_number 85
_symmetry_cell_setting 'tetragonal'
loop_
_space_group_symop_operation_xyz
x,y,z
1/2-y,x,z
1/2-x,1/2-y,z
y,1/2-x,z
-x,-y,-z
1/2+y,-x,-z
1/2+x,1/2+y,-z
-y,1/2+x,-z
loop_
_atom_site_type_symbol
_atom_site_label
_atom_site_fract_x
_atom_site_fract_y
_atom_site_fract_z
Si Si1 0.468545 0.122654 0.532611
Si Si2 0.731137 0.995049 0.205866
Si Si3 0.143367 0.761687 0.930643
Si Si4 0.056366 0.104165 0.038140
Si Si5 0.124171 0.573800 0.404320
O O1 0.464112 0.203472 0.632825
O O2 0.440498 0.073915 0.775574
O O3 0.551941 0.105753 0.479044
O O4 0.424061 0.106185 0.271836
O O5 0.756747 0.064822 0.040897
O O6 0.669676 0.025001 0.399162
O O7 0.688609 0.938629 0.026862
O O8 0.192102 0.809547 0.128934
O O9 0.130942 0.818783 0.700569
O O10 0.975892 0.099504 0.157131
#
# Coordination Sequence:
#
# PCOD9544632 Si02
#       5
#     8   8   8   8   8
#     4  12  26  44  73  99 143 183 227 296 357 402
#     4  11  26  42  66 107 139 183 243 287 354 428
#     4  10  22  39  60  95 150 200 235 279 341 425
#     4  11  26  45  69 103 137 180 236 291 348 415
#     4  11  24  41  66 104 137 183 237 287 340 428
#
# _framework density 22.605063999999999
#
# number of rings (size 3 to 8) (size 9 to 14) (size 15 to 20)
#    0.000    1.000    4.000    1.200   14.000    0.000 
#    0.000    2.000    0.000    0.600    5.200    0.000 
#    0.000    0.000    0.000    0.000    0.000    0.000 
#
# Total GULP energy -223736.812240 kJ/mol
# GULP energy per Si atom -5593.420306 kJ/mol
# Density = 2.255361 g / cm^3
# Si number density = 22.605064 Si / 1000 Ang^3
#
#
#
# Elastic Constant Matrix: (Units=GPa)
#
#
# Indices 1 2 3 4 5 6 
#
# 1 39.8182 44.0875 20.2008 0.0000 0.0000 12.3190
# 2 44.0875 39.8182 20.2008 0.0000 0.0000 -12.3190
# 3 20.2008 20.2008 77.5956 0.0000 0.0000 0.0000
# 4 0.0000 0.0000 0.0000 17.1691 0.0000 0.0000
# 5 0.0000 0.0000 0.0000 0.0000 17.1691 0.0000
# 6 12.3190 -12.3190 0.0000 0.0000 0.0000 28.8275
#
#
#
# Elastic Compliance Matrix: (Units=1/GPa)
#
#
# Indices 1 2 3 4 5 6 
#
# 1 -0.026976 0.040602 -0.003547 0.000000 0.000000 0.028878
# 2 0.040602 -0.026976 -0.003547 0.000000 0.000000 -0.028878
# 3 -0.003547 -0.003547 0.014734 0.000000 0.000000 0.000000
# 4 0.000000 0.000000 0.000000 0.058244 0.000000 0.000000
# 5 0.000000 0.000000 0.000000 0.000000 0.058244 0.000000
# 6 0.028878 -0.028878 0.000000 0.000000 0.000000 0.010008
#
#
# Mechanical properties :
#
#
# Convention : Reuss Voigt Hill
#
# Bulk Modulus (GPa) = 35.97471 36.24559 36.11015
# Shear Modulus (GPa) = 169.31437 17.48269 93.39853
#
# Velocity S-wave (km/s) = 8.66393 2.78402 6.43484
# Velocity P-wave (km/s) = 10.77190 5.13843 8.43912
#
# Compressibility (1/GPa) = 0.02779731
#
# Stress axis : x y z
#
# Youngs Moduli (GPa) = -37.07061 -37.07061 67.86868
#
# Poissons Ratio (x) = 1.50513 0.24076
# Poissons Ratio (y) = 1.50513 0.24076
# Poissons Ratio (z) = -0.13150 -0.13150
#
# Static dielectric constant tensor:
#      x y z
#    x 1.856750 0.000000 0.000000 
#    y 0.000000 1.856750 0.000000 
#    z 0.000000 0.000000 1.946490 
# 
# From -- ./inp_files/335.got.cif
#   From: 2010.05.17/outbox.cif.g08.bks.cpg/sg85_cif.got.tgz:335.got - 2010.06.03 19:01:16.
