data_PCOD9544441
_publ_section_title
;
Structure prediction by ZEFSAII (Michael W. Deem and Ramdas Pophale) SiO2 
 PCOD9544441
Probable space group: P 42/M
;
_chemical_formula_sum "Si O2"
_cell_formula_units_Z 48
_cell_length_a 9.218995
_cell_length_b 9.218995
_cell_length_c 27.505913
_cell_angle_alpha 90.000000
_cell_angle_beta 90.000000
_cell_angle_gamma 90.000000
_cell_volume 2337.723937
_symmetry_space_group_name_H-M "P 42/M"
_symmetry_group_IT_number 84
_symmetry_cell_setting 'tetragonal'
loop_
_space_group_symop_operation_xyz
x,y,z
-y,x,1/2+z
-x,-y,z
y,-x,1/2+z
-x,-y,-z
y,-x,1/2-z
x,y,-z
-y,x,1/2-z
loop_
_atom_site_type_symbol
_atom_site_label
_atom_site_fract_x
_atom_site_fract_y
_atom_site_fract_z
Si Si1 0.589226 0.150657 0.920461
Si Si2 0.327415 0.034866 0.315758
Si Si3 0.157658 0.074502 0.415785
Si Si4 0.922379 0.658520 0.000000
Si Si5 0.657636 0.429815 0.500000
Si Si6 0.174235 0.483908 0.687356
Si Si7 0.252520 0.263627 0.232654
O O1 0.758982 0.137625 0.934248
O O2 0.590057 0.198565 0.864099
O O3 0.500000 0.000000 0.922831
O O4 0.497541 0.258791 0.953760
O O5 0.249768 0.076892 0.365823
O O6 0.304085 0.150317 0.273057
O O7 0.500000 0.000000 0.322176
O O8 0.241374 0.898839 0.293496
O O9 0.250956 0.980559 0.453789
O O10 0.000000 0.000000 0.408925
O O11 0.000000 0.500000 0.000000
O O12 0.746127 0.650925 0.000000
O O13 0.500000 0.500000 0.500000
O O14 0.256483 0.635343 0.688805
O O15 0.234743 0.405009 0.734746
O O16 0.000000 0.500000 0.692699
#
# Coordination Sequence:
#
# PCOD9544441 Si02
#       7
#     8   8   8   4   4   8   8
#     4  11  25  47  73 103 145 180 236 294 351 426
#     4  12  27  44  67 101 146 185 239 293 360 417
#     4  12  27  46  77 110 137 189 242 295 360 424
#     4  12  27  52  79 108 150 180 232 298 353 432
#     4  12  27  50  77 106 138 190 226 282 365 420
#     4  11  24  44  66 100 141 183 235 287 346 414
#     4  12  22  45  65  96 141 189 234 294 342 422
#
# _framework density 20.532792000000001
#
# number of rings (size 3 to 8) (size 9 to 14) (size 15 to 20)
#    0.000    0.333    5.000    3.500    9.333    0.333 
#    3.000    0.000    0.000    0.000    0.000    0.000 
#    0.000    0.000    0.000    0.000    0.000    0.000 
#
# Total GULP energy -267997.743255 kJ/mol
# GULP energy per Si atom -5583.286318 kJ/mol
# Density = 2.048606 g / cm^3
# Si number density = 20.532792 Si / 1000 Ang^3
#
#
#
# Elastic Constant Matrix: (Units=GPa)
#
#
# Indices 1 2 3 4 5 6 
#
# 1 195.0322 15.4780 49.7417 0.0000 0.0000 -22.1540
# 2 15.4780 195.0322 49.7417 0.0000 0.0000 22.1540
# 3 49.7417 49.7417 95.6041 0.0000 0.0000 0.0000
# 4 0.0000 0.0000 0.0000 7.6155 0.0000 0.0000
# 5 0.0000 0.0000 0.0000 0.0000 7.6155 0.0000
# 6 -22.1540 22.1540 0.0000 0.0000 0.0000 40.3486
#
#
#
# Elastic Compliance Matrix: (Units=1/GPa)
#
#
# Indices 1 2 3 4 5 6 
#
# 1 0.006371 -0.000072 -0.003277 0.000000 0.000000 0.003537
# 2 -0.000072 0.006371 -0.003277 0.000000 0.000000 -0.003537
# 3 -0.003277 -0.003277 0.013870 0.000000 0.000000 0.000000
# 4 0.000000 0.000000 0.000000 0.131311 0.000000 0.000000
# 5 0.000000 0.000000 0.000000 0.000000 0.131311 0.000000
# 6 0.003537 -0.003537 0.000000 0.000000 0.000000 0.028668
#
#
# Mechanical properties :
#
#
# Convention : Reuss Voigt Hill
#
# Bulk Modulus (GPa) = 74.85594 79.51012 77.18303
# Shear Modulus (GPa) = 14.89836 35.82973 25.36405
#
# Velocity S-wave (km/s) = 2.69660 4.18185 3.51849
# Velocity P-wave (km/s) = 6.79937 7.88192 7.36058
#
# Compressibility (1/GPa) = 0.01335899
#
# Stress axis : x y z
#
# Youngs Moduli (GPa) = 156.96838 156.96838 72.09705
#
# Poissons Ratio (x) = 0.01122 0.23629
# Poissons Ratio (y) = 0.01122 0.23629
# Poissons Ratio (z) = 0.51445 0.51445
#
# Static dielectric constant tensor:
#      x y z
#    x 1.757990 0.000000 0.000000 
#    y 0.000000 1.757990 0.000000 
#    z 0.000000 0.000000 1.712780 
# 
# From -- ./inp_files/5890.got.cif
#   From: 2010.05.17/outbox.cif.g08.bks.cpg/sg84_3_cif.got.tgz:5890.got - 2010.06.03 18:57:40.
