data_PCOD9544119
_publ_section_title
;
Structure prediction by ZEFSAII (Michael W. Deem and Ramdas Pophale) SiO2 
 PCOD9544119
Probable space group: P 42/M
;
_chemical_formula_sum "Si O2"
_cell_formula_units_Z 48
_cell_length_a 14.139997
_cell_length_b 14.139997
_cell_length_c 11.584896
_cell_angle_alpha 90.000000
_cell_angle_beta 90.000000
_cell_angle_gamma 90.000000
_cell_volume 2316.278489
_symmetry_space_group_name_H-M "P 42/M"
_symmetry_group_IT_number 84
_symmetry_cell_setting 'tetragonal'
loop_
_space_group_symop_operation_xyz
x,y,z
-y,x,1/2+z
-x,-y,z
y,-x,1/2+z
-x,-y,-z
y,-x,1/2-z
x,y,-z
-y,x,1/2-z
loop_
_atom_site_type_symbol
_atom_site_label
_atom_site_fract_x
_atom_site_fract_y
_atom_site_fract_z
Si Si1 0.844586 0.638967 0.500000
Si Si2 0.087545 0.833362 0.500000
Si Si3 0.523143 0.731188 0.366435
Si Si4 0.134731 0.875791 0.000000
Si Si5 0.342193 0.714441 0.782283
Si Si6 0.607049 0.933169 0.000000
Si Si7 0.920302 0.421551 0.248946
Si Si8 0.873506 0.214302 0.752617
O O1 0.861368 0.752020 0.500000
O O2 0.779891 0.621923 0.387909
O O3 0.951889 0.598253 0.500000
O O4 0.085810 0.718825 0.500000
O O5 0.122316 0.847160 0.633982
O O6 0.986453 0.882088 0.500000
O O7 0.523502 0.712149 0.500000
O O8 0.603604 0.665334 0.311405
O O9 0.418380 0.724785 0.317298
O O10 0.559142 0.836963 0.339382
O O11 0.103917 0.833846 0.123972
O O12 0.235391 0.748841 0.755657
O O13 0.566657 0.890303 0.117326
O O14 0.941034 0.308572 0.248250
O O15 0.000000 0.500000 0.227671
#
# Coordination Sequence:
#
# PCOD9544119 Si02
#       8
#     4   4   8   4   8   4   8   8
#     4   9  16  35  63  82 116 158 197 232 289 367
#     4   9  18  35  60  90 112 148 209 248 282 362
#     4  11  24  41  57  84 121 159 205 247 299 351
#     4   9  18  36  61  84 119 160 195 234 293 374
#     4  10  21  39  60  82 117 161 200 248 299 350
#     4   9  17  32  57  93 120 146 193 240 296 362
#     4  10  20  34  58  93 126 150 188 248 307 368
#     4   9  20  36  62  88 122 160 192 245 314 357
#
# _framework density 20.722898000000001
#
# number of rings (size 3 to 8) (size 9 to 14) (size 15 to 20)
#    0.000    2.333    0.833    1.250    4.667    2.667 
#    3.000    1.667    0.000    1.500    0.000    0.000 
#    0.000    0.000    0.000    0.000    0.000    0.000 
#
# Total GULP energy -267346.498500 kJ/mol
# GULP energy per Si atom -5569.718719 kJ/mol
# Density = 2.067573 g / cm^3
# Si number density = 20.722898 Si / 1000 Ang^3
#
#
#
# Elastic Constant Matrix: (Units=GPa)
#
#
# Indices 1 2 3 4 5 6 
#
# 1 42.2657 4.9333 10.3366 0.0000 0.0000 -6.0963
# 2 4.9333 42.2657 10.3366 0.0000 0.0000 6.0963
# 3 10.3366 10.3366 95.1242 0.0000 0.0000 0.0000
# 4 0.0000 0.0000 0.0000 13.1642 0.0000 0.0000
# 5 0.0000 0.0000 0.0000 0.0000 13.1642 0.0000
# 6 -6.0963 6.0963 0.0000 0.0000 0.0000 31.4435
#
#
#
# Elastic Compliance Matrix: (Units=1/GPa)
#
#
# Indices 1 2 3 4 5 6 
#
# 1 0.025421 -0.003176 -0.002417 0.000000 0.000000 0.005544
# 2 -0.003176 0.025421 -0.002417 0.000000 0.000000 -0.005544
# 3 -0.002417 -0.002417 0.011038 0.000000 0.000000 0.000000
# 4 0.000000 0.000000 0.000000 0.075964 0.000000 0.000000
# 5 0.000000 0.000000 0.000000 0.000000 0.075964 0.000000
# 6 0.005544 -0.005544 0.000000 0.000000 0.000000 0.033953
#
#
# Mechanical properties :
#
#
# Convention : Reuss Voigt Hill
#
# Bulk Modulus (GPa) = 21.80548 25.65206 23.72877
# Shear Modulus (GPa) = 17.91674 21.82432 19.87053
#
# Velocity S-wave (km/s) = 2.94358 3.24875 3.09992
# Velocity P-wave (km/s) = 4.70086 5.14567 4.92829
#
# Compressibility (1/GPa) = 0.04586002
#
# Stress axis : x y z
#
# Youngs Moduli (GPa) = 39.33694 39.33694 90.59677
#
# Poissons Ratio (x) = 0.12492 0.21900
# Poissons Ratio (y) = 0.12492 0.21900
# Poissons Ratio (z) = 0.09509 0.09509
#
# Static dielectric constant tensor:
#      x y z
#    x 1.766440 0.000000 0.000000 
#    y 0.000000 1.766440 0.000000 
#    z 0.000000 0.000000 1.777200 
# 
# From -- ./inp_files/2217.got.cif
#   From: 2010.05.17/outbox.cif.g08.bks.cpg/sg84_2_cif.got.tgz:2217.got - 2010.06.03 18:57:40.
