data_PCOD9544783
_publ_section_title
;
Structure prediction by ZEFSAII (Michael W. Deem and Ramdas Pophale) SiO2 
 PCOD9544783
Probable space group: P 4/N
;
_chemical_formula_sum "Si O2"
_cell_formula_units_Z 50
_cell_length_a 8.933366
_cell_length_b 8.933366
_cell_length_c 31.655013
_cell_angle_alpha 90.000000
_cell_angle_beta 90.000000
_cell_angle_gamma 90.000000
_cell_volume 2526.229202
_symmetry_space_group_name_H-M "P 4/N"
_symmetry_group_IT_number 85
_symmetry_cell_setting 'tetragonal'
loop_
_space_group_symop_operation_xyz
x,y,z
1/2-y,x,z
1/2-x,1/2-y,z
y,1/2-x,z
-x,-y,-z
1/2+y,-x,-z
1/2+x,1/2+y,-z
-y,1/2+x,-z
loop_
_atom_site_type_symbol
_atom_site_label
_atom_site_fract_x
_atom_site_fract_y
_atom_site_fract_z
Si Si1 0.914847 0.559473 0.041235
Si Si2 0.435977 0.417420 0.540944
Si Si3 0.389039 0.459240 0.122235
Si Si4 0.048293 0.401352 0.378152
Si Si5 0.533067 0.880937 0.716354
Si Si6 0.585155 0.331747 0.796866
Si Si7 0.250000 0.250000 0.800970
O O1 0.952287 0.735508 0.041484
O O2 0.965075 0.466898 0.082121
O O3 0.000000 0.500000 0.000000
O O4 0.260523 0.453165 0.539897
O O5 0.500000 0.500000 0.500000
O O6 0.517603 0.468184 0.583606
O O7 0.209772 0.449054 0.120794
O O8 0.419233 0.550654 0.164643
O O9 0.049298 0.221571 0.381312
O O10 0.985901 0.428728 0.330995
O O11 0.553258 0.700966 0.720461
O O12 0.418744 0.925924 0.752352
O O13 0.750000 0.250000 0.798386
O O14 0.435837 0.231648 0.801033
#
# Coordination Sequence:
#
# PCOD9544783 Si02
#       7
#     8   8   8   8   8   8   2
#     4  11  26  45  70 100 138 180 230 290 351 428
#     4  11  24  41  60  89 125 164 213 274 340 411
#     4  11  25  43  69 102 138 181 235 289 352 428
#     4   9  19  38  64  93 125 168 219 273 331 405
#     4   9  18  39  67  94 133 182 233 282 347 422
#     4  12  26  45  69 102 144 190 236 295 368 420
#     4  12  28  44  68 104 140 176 244 296 340 436
#
# _framework density 19.792342999999999
#
# number of rings (size 3 to 8) (size 9 to 14) (size 15 to 20)
#    0.000    1.440    0.000    5.760    4.480    7.680 
#    8.640    0.000    0.000    0.000    0.000    0.000 
#    0.000    0.000    0.000    0.000    0.000    0.000 
#
# Total GULP energy -278745.290515 kJ/mol
# GULP energy per Si atom -5574.905810 kJ/mol
# Density = 1.974729 g / cm^3
# Si number density = 19.792343 Si / 1000 Ang^3
#
#
#
# Elastic Constant Matrix: (Units=GPa)
#
#
# Indices 1 2 3 4 5 6 
#
# 1 149.6872 48.8396 99.7796 0.0000 0.0000 124.2370
# 2 48.8396 149.6872 99.7796 0.0000 0.0000 -124.2370
# 3 99.7796 99.7796 197.2184 0.0000 0.0000 0.0000
# 4 0.0000 0.0000 0.0000 37.5761 0.0000 0.0000
# 5 0.0000 0.0000 0.0000 0.0000 37.5761 0.0000
# 6 124.2370 -124.2370 0.0000 0.0000 0.0000 416.8760
#
#
#
# Elastic Compliance Matrix: (Units=1/GPa)
#
#
# Indices 1 2 3 4 5 6 
#
# 1 0.023783 -0.013533 -0.005186 0.000000 0.000000 -0.011121
# 2 -0.013533 0.023783 -0.005186 0.000000 0.000000 0.011121
# 3 -0.005186 -0.005186 0.010318 0.000000 0.000000 0.000000
# 4 0.000000 0.000000 0.000000 0.026613 0.000000 0.000000
# 5 0.000000 0.000000 0.000000 0.000000 0.026613 0.000000
# 6 -0.011121 0.011121 0.000000 0.000000 0.000000 0.009027
#
#
# Mechanical properties :
#
#
# Convention : Reuss Voigt Hill
#
# Bulk Modulus (GPa) = 99.26068 110.37671 104.81870
# Shear Modulus (GPa) = 29.18769 114.95192 72.06981
#
# Velocity S-wave (km/s) = 3.84434 7.62922 6.04086
# Velocity P-wave (km/s) = 8.36452 11.55401 10.08614
#
# Compressibility (1/GPa) = 0.01007448
#
# Stress axis : x y z
#
# Youngs Moduli (GPa) = 42.04634 42.04634 96.92002
#
# Poissons Ratio (x) = 0.56903 0.50260
# Poissons Ratio (y) = 0.56903 0.50260
# Poissons Ratio (z) = 0.21804 0.21804
#
# Static dielectric constant tensor:
#      x y z
#    x 1.704090 0.000000 0.000000 
#    y 0.000000 1.704090 0.000000 
#    z 0.000000 0.000000 1.674210 
# 
# From -- ./inp_files/2479.got.cif
#   From: 2010.05.17/outbox.cif.g08.bks.cpg/sg85_cif.got.tgz:2479.got - 2010.06.03 19:01:16.
