data_PCOD9544050
_publ_section_title
;
Structure prediction by ZEFSAII (Michael W. Deem and Ramdas Pophale) SiO2 
 PCOD9544050
Probable space group: P 42/M
;
_chemical_formula_sum "Si O2"
_cell_formula_units_Z 32
_cell_length_a 8.862432
_cell_length_b 8.862432
_cell_length_c 19.255895
_cell_angle_alpha 90.000000
_cell_angle_beta 90.000000
_cell_angle_gamma 90.000000
_cell_volume 1512.410003
_symmetry_space_group_name_H-M "P 42/M"
_symmetry_group_IT_number 84
_symmetry_cell_setting 'tetragonal'
loop_
_space_group_symop_operation_xyz
x,y,z
-y,x,1/2+z
-x,-y,z
y,-x,1/2+z
-x,-y,-z
y,-x,1/2-z
x,y,-z
-y,x,1/2-z
loop_
_atom_site_type_symbol
_atom_site_label
_atom_site_fract_x
_atom_site_fract_y
_atom_site_fract_z
Si Si1 0.277687 0.545815 0.278956
Si Si2 0.168263 0.929666 0.577340
Si Si3 0.230713 0.046910 0.724007
Si Si4 0.433718 0.168217 0.922786
O O1 0.407793 0.670377 0.268229
O O2 0.123424 0.622644 0.255396
O O3 0.263811 0.501963 0.359192
O O4 0.230130 0.963184 0.500000
O O5 0.161070 0.748259 0.584868
O O6 0.249749 0.997628 0.644461
O O7 0.000000 0.000000 0.579562
O O8 0.094784 0.168854 0.731868
O O9 0.500000 0.000000 0.918515
O O10 0.468158 0.227178 0.000000
#
# Coordination Sequence:
#
# PCOD9544050 Si02
#       4
#     8   8   8   8
#     4  11  26  42  59  90 127 164 211 255 314 382
#     4  10  19  33  54  92 127 150 196 257 306 363
#     4  11  20  36  61  90 118 159 205 258 310 363
#     4  10  22  39  64  92 123 166 208 254 312 377
#
# _framework density 21.158283999999998
#
# number of rings (size 3 to 8) (size 9 to 14) (size 15 to 20)
#    0.000    1.500    5.000    0.000    7.000    0.000 
#    0.000    3.750    0.000    3.000    0.000    0.000 
#    0.000    0.000    0.000    0.000    0.000    0.000 
#
# Total GULP energy -178848.274307 kJ/mol
# GULP energy per Si atom -5589.008572 kJ/mol
# Density = 2.111013 g / cm^3
# Si number density = 21.158284 Si / 1000 Ang^3
#
#
#
# Elastic Constant Matrix: (Units=GPa)
#
#
# Indices 1 2 3 4 5 6 
#
# 1 35.8653 29.9897 25.7917 0.0000 0.0000 8.7796
# 2 29.9897 35.8653 25.7917 0.0000 0.0000 -8.7796
# 3 25.7917 25.7917 201.0960 0.0000 0.0000 0.0000
# 4 0.0000 0.0000 0.0000 17.9740 0.0000 0.0000
# 5 0.0000 0.0000 0.0000 0.0000 17.9740 0.0000
# 6 8.7796 -8.7796 0.0000 0.0000 0.0000 42.4785
#
#
#
# Elastic Compliance Matrix: (Units=1/GPa)
#
#
# Indices 1 2 3 4 5 6 
#
# 1 0.231011 -0.214131 -0.002165 0.000000 0.000000 -0.092003
# 2 -0.214131 0.231011 -0.002165 0.000000 0.000000 0.092003
# 3 -0.002165 -0.002165 0.005528 0.000000 0.000000 0.000000
# 4 0.000000 0.000000 0.000000 0.055636 0.000000 0.000000
# 5 0.000000 0.000000 0.000000 0.000000 0.055636 0.000000
# 6 -0.092003 0.092003 0.000000 0.000000 0.000000 0.061572
#
#
# Mechanical properties :
#
#
# Convention : Reuss Voigt Hill
#
# Bulk Modulus (GPa) = 32.64841 48.44142 40.54492
# Shear Modulus (GPa) = 4.59759 28.43554 16.51656
#
# Velocity S-wave (km/s) = 1.47569 3.66996 2.79699
# Velocity P-wave (km/s) = 4.28575 6.39552 5.44381
#
# Compressibility (1/GPa) = 0.03062936
#
# Stress axis : x y z
#
# Youngs Moduli (GPa) = 4.32879 4.32879 180.89372
#
# Poissons Ratio (x) = 0.92693 0.39164
# Poissons Ratio (y) = 0.92693 0.39164
# Poissons Ratio (z) = 0.00937 0.00937
#
# Static dielectric constant tensor:
#      x y z
#    x 1.769030 0.000000 0.000000 
#    y 0.000000 1.769030 0.000000 
#    z 0.000000 0.000000 1.791120 
# 
# From -- ./inp_files/4090.got.cif
#   From: 2010.05.17/outbox.cif.g08.bks.cpg/sg84_3_cif.got.tgz:4090.got - 2010.06.03 18:57:40.
