data_PCOD9544111
_publ_section_title
;
Structure prediction by ZEFSAII (Michael W. Deem and Ramdas Pophale) SiO2 
 PCOD9544111
Probable space group: P 42/M
;
_chemical_formula_sum "Si O2"
_cell_formula_units_Z 40
_cell_length_a 9.665497
_cell_length_b 9.665497
_cell_length_c 23.945040
_cell_angle_alpha 90.000000
_cell_angle_beta 90.000000
_cell_angle_gamma 90.000000
_cell_volume 2236.989510
_symmetry_space_group_name_H-M "P 42/M"
_symmetry_group_IT_number 84
_symmetry_cell_setting 'tetragonal'
loop_
_space_group_symop_operation_xyz
x,y,z
-y,x,1/2+z
-x,-y,z
y,-x,1/2+z
-x,-y,-z
y,-x,1/2-z
x,y,-z
-y,x,1/2-z
loop_
_atom_site_type_symbol
_atom_site_label
_atom_site_fract_x
_atom_site_fract_y
_atom_site_fract_z
Si Si1 0.114617 0.661196 0.668824
Si Si2 0.839680 0.617397 0.150070
Si Si3 0.349629 0.127666 0.703937
Si Si4 0.656100 0.446414 0.933592
Si Si5 0.180301 0.346020 0.640298
O O1 0.239684 0.762747 0.657752
O O2 0.073041 0.672237 0.733947
O O3 0.168856 0.506007 0.658151
O O4 0.980143 0.692113 0.631444
O O5 0.809919 0.504019 0.198462
O O6 0.772832 0.541406 0.096233
O O7 0.002881 0.648912 0.158597
O O8 0.241722 0.244794 0.687384
O O9 0.500000 0.500000 0.919451
O O10 0.667433 0.290787 0.909516
O O11 0.671346 0.450222 0.000000
#
# Coordination Sequence:
#
# PCOD9544111 Si02
#       5
#     8   8   8   8   8
#     4  11  19  34  54  80 118 147 179 221 274 336
#     4  10  20  35  54  81 108 147 184 224 272 330
#     4  10  20  34  53  81 116 147 183 218 270 337
#     4  10  20  39  60  80 103 141 192 244 279 313
#     4  10  21  34  52  82 110 143 182 226 273 330
#
# _framework density 17.881173
#
# number of rings (size 3 to 8) (size 9 to 14) (size 15 to 20)
#    0.000    1.800    2.000    4.800    0.000    0.800 
#    0.000   15.000    0.000    0.000    0.000   14.000 
#    0.000    0.000    0.000    0.000    0.000    0.000 
#
# Total GULP energy -222821.448445 kJ/mol
# GULP energy per Si atom -5570.536211 kJ/mol
# Density = 1.784047 g / cm^3
# Si number density = 17.881173 Si / 1000 Ang^3
#
#
#
# Elastic Constant Matrix: (Units=GPa)
#
#
# Indices 1 2 3 4 5 6 
#
# 1 102.3471 65.3062 29.9223 0.0000 0.0000 1.7247
# 2 65.3062 102.3471 29.9223 0.0000 0.0000 -1.7247
# 3 29.9223 29.9223 81.0574 0.0000 0.0000 0.0000
# 4 0.0000 0.0000 0.0000 18.0885 0.0000 0.0000
# 5 0.0000 0.0000 0.0000 0.0000 18.0885 0.0000
# 6 1.7247 -1.7247 0.0000 0.0000 0.0000 30.4950
#
#
#
# Elastic Compliance Matrix: (Units=1/GPa)
#
#
# Indices 1 2 3 4 5 6 
#
# 1 0.017005 -0.010135 -0.002536 0.000000 0.000000 -0.001535
# 2 -0.010135 0.017005 -0.002536 0.000000 0.000000 0.001535
# 3 -0.002536 -0.002536 0.014209 0.000000 0.000000 0.000000
# 4 0.000000 0.000000 0.000000 0.055284 0.000000 0.000000
# 5 0.000000 0.000000 0.000000 0.000000 0.055284 0.000000
# 6 -0.001535 0.001535 0.000000 0.000000 0.000000 0.032966
#
#
# Mechanical properties :
#
#
# Convention : Reuss Voigt Hill
#
# Bulk Modulus (GPa) = 56.16390 59.56147 57.86268
# Shear Modulus (GPa) = 21.92000 24.04112 22.98056
#
# Velocity S-wave (km/s) = 3.50504 3.67071 3.58883
# Velocity P-wave (km/s) = 6.91796 7.16571 7.04292
#
# Compressibility (1/GPa) = 0.01780503
#
# Stress axis : x y z
#
# Youngs Moduli (GPa) = 58.80613 58.80613 70.37652
#
# Poissons Ratio (x) = 0.59601 0.17848
# Poissons Ratio (y) = 0.59601 0.17848
# Poissons Ratio (z) = 0.14913 0.14913
#
# Static dielectric constant tensor:
#      x y z
#    x 1.631090 0.000000 0.000000 
#    y 0.000000 1.631090 0.000000 
#    z 0.000000 0.000000 1.594760 
# 
# From -- ./inp_files/4842.got.cif
#   From: 2010.05.17/outbox.cif.g08.bks.cpg/sg84_3_cif.got.tgz:4842.got - 2010.06.03 18:57:40.
