data_PCOD9544313
_publ_section_title
;
Structure prediction by ZEFSAII (Michael W. Deem and Ramdas Pophale) SiO2 
 PCOD9544313
Probable space group: P 42/M
;
_chemical_formula_sum "Si O2"
_cell_formula_units_Z 40
_cell_length_a 8.356222
_cell_length_b 8.356222
_cell_length_c 27.867124
_cell_angle_alpha 90.000000
_cell_angle_beta 90.000000
_cell_angle_gamma 90.000000
_cell_volume 1945.862232
_symmetry_space_group_name_H-M "P 42/M"
_symmetry_group_IT_number 84
_symmetry_cell_setting 'tetragonal'
loop_
_space_group_symop_operation_xyz
x,y,z
-y,x,1/2+z
-x,-y,z
y,-x,1/2+z
-x,-y,-z
y,-x,1/2-z
x,y,-z
-y,x,1/2-z
loop_
_atom_site_type_symbol
_atom_site_label
_atom_site_fract_x
_atom_site_fract_y
_atom_site_fract_z
Si Si1 0.214128 0.305892 0.633874
Si Si2 0.831610 0.413546 0.785664
Si Si3 0.896461 0.145830 0.618568
Si Si4 0.363174 0.293332 0.817691
Si Si5 0.320877 0.067398 0.555133
O O1 0.259259 0.203232 0.681620
O O2 0.268237 0.483839 0.648076
O O3 0.307545 0.218299 0.590767
O O4 0.029694 0.286158 0.617286
O O5 0.684603 0.532272 0.798708
O O6 0.817263 0.381498 0.729177
O O7 0.000000 0.500000 0.795659
O O8 0.760339 0.209517 0.652569
O O9 0.807936 0.066157 0.572920
O O10 0.000000 0.000000 0.638846
O O11 0.287933 0.110086 0.500000
O O12 0.500000 0.000000 0.558628
#
# Coordination Sequence:
#
# PCOD9544313 Si02
#       5
#     8   8   8   8   8
#     4  11  22  39  63  96 130 172 221 281 327 398
#     4  12  24  40  60  90 133 181 223 269 338 406
#     4  10  22  41  63  93 128 171 221 273 330 396
#     4  12  24  41  62  93 135 178 224 278 336 410
#     4  10  22  44  71  99 132 177 225 277 345 412
#
# _framework density 20.556442000000001
#
# number of rings (size 3 to 8) (size 9 to 14) (size 15 to 20)
#    0.000    1.000    2.000    6.600    0.000    3.600 
#    0.000    1.000    0.000   10.800    0.000    0.000 
#    0.000    0.000    0.000    0.000    0.000    0.000 
#
# Total GULP energy -223165.496726 kJ/mol
# GULP energy per Si atom -5579.137418 kJ/mol
# Density = 2.050965 g / cm^3
# Si number density = 20.556442 Si / 1000 Ang^3
#
#
#
# Elastic Constant Matrix: (Units=GPa)
#
#
# Indices 1 2 3 4 5 6 
#
# 1 69.0837 6.2384 32.6400 0.0000 0.0000 2.4316
# 2 6.2384 69.0837 32.6400 0.0000 0.0000 -2.4316
# 3 32.6400 32.6400 134.3604 0.0000 0.0000 0.0000
# 4 0.0000 0.0000 0.0000 29.4855 0.0000 0.0000
# 5 0.0000 0.0000 0.0000 0.0000 29.4855 0.0000
# 6 2.4316 -2.4316 0.0000 0.0000 0.0000 36.9654
#
#
#
# Elastic Compliance Matrix: (Units=1/GPa)
#
#
# Indices 1 2 3 4 5 6 
#
# 1 0.016405 0.000412 -0.004085 0.000000 0.000000 -0.001052
# 2 0.000412 0.016405 -0.004085 0.000000 0.000000 0.001052
# 3 -0.004085 -0.004085 0.009428 0.000000 0.000000 0.000000
# 4 0.000000 0.000000 0.000000 0.033915 0.000000 0.000000
# 5 0.000000 0.000000 0.000000 0.000000 0.033915 0.000000
# 6 -0.001052 0.001052 0.000000 0.000000 0.000000 0.027191
#
#
# Mechanical properties :
#
#
# Convention : Reuss Voigt Hill
#
# Bulk Modulus (GPa) = 37.42486 46.17383 41.79934
# Shear Modulus (GPa) = 30.92466 32.58791 31.75629
#
# Velocity S-wave (km/s) = 3.88284 3.98589 3.93470
# Velocity P-wave (km/s) = 6.19252 6.61013 6.40473
#
# Compressibility (1/GPa) = 0.02672020
#
# Stress axis : x y z
#
# Youngs Moduli (GPa) = 60.95611 60.95611 106.07207
#
# Poissons Ratio (x) = -0.02510 0.43334
# Poissons Ratio (y) = -0.02510 0.43334
# Poissons Ratio (z) = 0.24903 0.24903
#
# Static dielectric constant tensor:
#      x y z
#    x 1.801040 0.000000 0.000000 
#    y 0.000000 1.801040 0.000000 
#    z 0.000000 0.000000 1.701280 
# 
# From -- ./inp_files/5327.got.cif
#   From: 2010.05.17/outbox.cif.g08.bks.cpg/sg84_3_cif.got.tgz:5327.got - 2010.06.03 18:57:40.
