data_PCOD9544697
_publ_section_title
;
Structure prediction by ZEFSAII (Michael W. Deem and Ramdas Pophale) SiO2 
 PCOD9544697
Probable space group: P 4/N
;
_chemical_formula_sum "Si O2"
_cell_formula_units_Z 56
_cell_length_a 15.727242
_cell_length_b 15.727242
_cell_length_c 12.521607
_cell_angle_alpha 90.000000
_cell_angle_beta 90.000000
_cell_angle_gamma 90.000000
_cell_volume 3097.171170
_symmetry_space_group_name_H-M "P 4/N"
_symmetry_group_IT_number 85
_symmetry_cell_setting 'tetragonal'
loop_
_space_group_symop_operation_xyz
x,y,z
1/2-y,x,z
1/2-x,1/2-y,z
y,1/2-x,z
-x,-y,-z
1/2+y,-x,-z
1/2+x,1/2+y,-z
-y,1/2+x,-z
loop_
_atom_site_type_symbol
_atom_site_label
_atom_site_fract_x
_atom_site_fract_y
_atom_site_fract_z
Si Si1 0.324880 0.002673 0.840360
Si Si2 0.621816 0.305165 0.027878
Si Si3 0.643823 0.551074 0.245027
Si Si4 0.201166 0.619579 0.645916
Si Si5 0.386895 0.644185 0.728315
Si Si6 0.120696 0.308119 0.521284
Si Si7 0.732354 0.455914 0.567956
O O1 0.333487 0.931731 0.747307
O O2 0.229313 0.037386 0.823260
O O3 0.391186 0.076655 0.816503
O O4 0.332759 0.955995 0.953229
O O5 0.606958 0.320255 0.152460
O O6 0.706672 0.356882 0.995573
O O7 0.606209 0.457614 0.268913
O O8 0.670488 0.593291 0.357438
O O9 0.290548 0.660537 0.684269
O O10 0.127503 0.678431 0.598953
O O11 0.228568 0.558126 0.549494
O O12 0.453671 0.691186 0.652498
O O13 0.141926 0.208331 0.504874
O O14 0.040850 0.323554 0.442971
#
# Coordination Sequence:
#
# PCOD9544697 Si02
#       7
#     8   8   8   8   8   8   8
#     4  11  23  39  63  91 115 158 200 257 306 360
#     4  11  22  40  62  86 123 156 200 245 309 377
#     4  11  20  40  61  89 121 146 207 253 304 355
#     4  11  20  35  55  88 120 157 198 239 303 361
#     4  11  23  36  57  91 121 165 191 245 310 368
#     4  11  22  39  62  85 117 162 205 253 303 355
#     4  12  21  35  58  86 125 158 200 243 298 368
#
# _framework density 18.081015000000001
#
# number of rings (size 3 to 8) (size 9 to 14) (size 15 to 20)
#    0.000    0.857    8.571    1.286    2.000    2.000 
#    0.000    2.857    0.000    0.000    0.000    0.000 
#    0.000    0.000    0.000    0.000    0.000    0.000 
#
# Total GULP energy -312662.278963 kJ/mol
# GULP energy per Si atom -5583.254981 kJ/mol
# Density = 1.803986 g / cm^3
# Si number density = 18.081015 Si / 1000 Ang^3
#
#
#
# Elastic Constant Matrix: (Units=GPa)
#
#
# Indices 1 2 3 4 5 6 
#
# 1 58.5501 21.7483 16.1994 0.0000 0.0000 2.3562
# 2 21.7483 58.5501 16.1994 0.0000 0.0000 -2.3562
# 3 16.1994 16.1994 98.6307 0.0000 0.0000 0.0000
# 4 0.0000 0.0000 0.0000 16.4760 0.0000 0.0000
# 5 0.0000 0.0000 0.0000 0.0000 16.4760 0.0000
# 6 2.3562 -2.3562 0.0000 0.0000 0.0000 19.4083
#
#
#
# Elastic Compliance Matrix: (Units=1/GPa)
#
#
# Indices 1 2 3 4 5 6 
#
# 1 0.020470 -0.007132 -0.002191 0.000000 0.000000 -0.003351
# 2 -0.007132 0.020470 -0.002191 0.000000 0.000000 0.003351
# 3 -0.002191 -0.002191 0.010858 0.000000 0.000000 0.000000
# 4 0.000000 0.000000 0.000000 0.060694 0.000000 0.000000
# 5 0.000000 0.000000 0.000000 0.000000 0.060694 0.000000
# 6 -0.003351 0.003351 0.000000 0.000000 0.000000 0.052338
#
#
# Mechanical properties :
#
#
# Convention : Reuss Voigt Hill
#
# Bulk Modulus (GPa) = 34.75733 36.00279 35.38006
# Shear Modulus (GPa) = 19.36927 21.24433 20.30680
#
# Velocity S-wave (km/s) = 3.27655 3.43148 3.35491
# Velocity P-wave (km/s) = 5.79475 5.97120 5.88364
#
# Compressibility (1/GPa) = 0.02877091
#
# Stress axis : x y z
#
# Youngs Moduli (GPa) = 48.85311 48.85311 92.09463
#
# Poissons Ratio (x) = 0.34843 0.20174
# Poissons Ratio (y) = 0.34843 0.20174
# Poissons Ratio (z) = 0.10702 0.10702
#
# Static dielectric constant tensor:
#      x y z
#    x 1.642630 0.000000 0.000000 
#    y 0.000000 1.642630 0.000000 
#    z 0.000000 0.000000 1.595260 
# 
# From -- ./inp_files/1750.got.cif
#   From: 2010.05.17/outbox.cif.g08.bks.cpg/sg85_cif.got.tgz:1750.got - 2010.06.03 19:01:16.
