data_PCOD9544948
_publ_section_title
;
Structure prediction by ZEFSAII (Michael W. Deem and Ramdas Pophale) SiO2 
 PCOD9544948
Probable space group: P 42/N
;
_chemical_formula_sum "Si O2"
_cell_formula_units_Z 26
_cell_length_a 11.675100
_cell_length_b 11.675100
_cell_length_c 7.046885
_cell_angle_alpha 90.000000
_cell_angle_beta 90.000000
_cell_angle_gamma 90.000000
_cell_volume 960.546519
_symmetry_space_group_name_H-M "P 42/N"
_symmetry_group_IT_number 86
_space_group.IT_coordinate_system_code '2'
_symmetry_cell_setting 'tetragonal'
loop_
_space_group_symop_operation_xyz
x,y,z
-y,1/2+x,1/2+z
1/2-x,1/2-y,z
1/2+y,-x,1/2+z
-x,-y,-z
y,1/2-x,1/2-z
1/2+x,1/2+y,-z
1/2-y,x,1/2-z
loop_
_atom_site_type_symbol
_atom_site_label
_atom_site_fract_x
_atom_site_fract_y
_atom_site_fract_z
Si Si1 0.473436 0.648018 0.069792
Si Si2 0.646029 0.342576 0.342464
Si Si3 0.697849 0.533898 0.973427
Si Si4 0.250000 0.250000 0.250000
O O1 0.602284 0.604481 0.091470
O O2 0.456210 0.780079 0.124285
O O3 0.388604 0.548716 0.148861
O O4 0.426579 0.648495 0.850110
O O5 0.750000 0.250000 0.328424
O O6 0.560192 0.298529 0.506026
O O7 0.762483 0.635767 0.869823
#
# Coordination Sequence:
#
# PCOD9544948 Si02
#       4
#     8   8   8   2
#     4  10  21  39  63  95 128 172 229 275 329 406
#     4  10  19  37  63  91 128 173 221 275 334 394
#     4  10  21  37  61  90 130 172 221 268 338 394
#     4  12  20  40  60  94 136 172 216 280 346 400
#
# _framework density 27.067926
#
# number of rings (size 3 to 8) (size 9 to 14) (size 15 to 20)
#    0.000    1.846    3.077    2.769    0.000    0.000 
#    0.000   15.385    0.000    0.000    0.000    0.000 
#    0.000    0.000    0.000    0.000    0.000    0.000 
#
# Total GULP energy -144903.454460 kJ/mol
# GULP energy per Si atom -5573.209787 kJ/mol
# Density = 2.700632 g / cm^3
# Si number density = 27.067926 Si / 1000 Ang^3
#
#
#
# Elastic Constant Matrix: (Units=GPa)
#
#
# Indices 1 2 3 4 5 6 
#
# 1 149.4536 64.8773 24.8895 0.0000 0.0000 -0.4954
# 2 64.8773 149.4536 24.8895 0.0000 0.0000 0.4954
# 3 24.8895 24.8895 47.7656 0.0000 0.0000 0.0000
# 4 0.0000 0.0000 0.0000 20.4550 0.0000 0.0000
# 5 0.0000 0.0000 0.0000 0.0000 20.4550 0.0000
# 6 -0.4954 0.4954 0.0000 0.0000 0.0000 67.9711
#
#
#
# Elastic Compliance Matrix: (Units=1/GPa)
#
#
# Indices 1 2 3 4 5 6 
#
# 1 0.008566 -0.003258 -0.002766 0.000000 0.000000 0.000086
# 2 -0.003258 0.008566 -0.002766 0.000000 0.000000 -0.000086
# 3 -0.002766 -0.002766 0.023818 0.000000 0.000000 0.000000
# 4 0.000000 0.000000 0.000000 0.048888 0.000000 0.000000
# 5 0.000000 0.000000 0.000000 0.000000 0.048888 0.000000
# 6 0.000086 -0.000086 0.000000 0.000000 0.000000 0.014713
#
#
# Mechanical properties :
#
#
# Convention : Reuss Voigt Hill
#
# Bulk Modulus (GPa) = 42.78887 63.99839 53.39363
# Shear Modulus (GPa) = 27.96262 37.24400 32.60331
#
# Velocity S-wave (km/s) = 3.21760 3.71340 3.47436
# Velocity P-wave (km/s) = 5.44483 6.48697 5.98861
#
# Compressibility (1/GPa) = 0.02337057
#
# Stress axis : x y z
#
# Youngs Moduli (GPa) = 116.73567 116.73567 41.98497
#
# Poissons Ratio (x) = 0.38036 0.11613
# Poissons Ratio (y) = 0.38036 0.11613
# Poissons Ratio (z) = 0.32288 0.32288
#
# Static dielectric constant tensor:
#      x y z
#    x 2.170680 0.000000 0.000000 
#    y 0.000000 2.170680 0.000000 
#    z 0.000000 0.000000 2.426450 
# 
# From -- ./inp_files/1736.got.cif
#   From: 2010.05.17/outbox.cif.g08.bks.cpg/sg86_1_cif.got.tgz:1736.got - 2010.06.03 19:03:11.
