data_PCOD9544728
_publ_section_title
;
Structure prediction by ZEFSAII (Michael W. Deem and Ramdas Pophale) SiO2 
 PCOD9544728
Probable space group: P 4/N
;
_chemical_formula_sum "Si O2"
_cell_formula_units_Z 38
_cell_length_a 9.610891
_cell_length_b 9.610891
_cell_length_c 23.911595
_cell_angle_alpha 90.000000
_cell_angle_beta 90.000000
_cell_angle_gamma 90.000000
_cell_volume 2208.695518
_symmetry_space_group_name_H-M "P 4/N"
_symmetry_group_IT_number 85
_symmetry_cell_setting 'tetragonal'
loop_
_space_group_symop_operation_xyz
x,y,z
1/2-y,x,z
1/2-x,1/2-y,z
y,1/2-x,z
-x,-y,-z
1/2+y,-x,-z
1/2+x,1/2+y,-z
-y,1/2+x,-z
loop_
_atom_site_type_symbol
_atom_site_label
_atom_site_fract_x
_atom_site_fract_y
_atom_site_fract_z
Si Si1 0.519642 0.773392 0.924262
Si Si2 0.914883 0.368523 0.520487
Si Si3 0.250000 0.750000 0.283281
Si Si4 0.479664 0.217491 0.641400
Si Si5 0.750000 0.250000 0.000000
Si Si6 0.275106 0.480259 0.208227
O O1 0.602985 0.629754 0.935324
O O2 0.487021 0.777738 0.858026
O O3 0.382931 0.781630 0.961321
O O4 0.913881 0.245836 0.474434
O O5 0.000000 0.500000 0.500000
O O6 0.975280 0.303375 0.576905
O O7 0.383150 0.788523 0.321058
O O8 0.285666 0.617559 0.244867
O O9 0.401971 0.364295 0.651418
O O10 0.130797 0.397924 0.219379
#
# Coordination Sequence:
#
# PCOD9544728 Si02
#       6
#     8   8   4   8   2   8
#     4   9  19  34  51  75 111 149 185 230 285 327
#     4  11  22  39  62  83 108 143 180 213 258 320
#     4  12  21  36  61  85 108 141 186 228 270 330
#     4  11  24  40  57  83 117 143 169 219 279 321
#     4  12  18  28  52  84 108 142 196 236 270 332
#     4   9  19  37  57  78 108 148 188 229 275 328
#
# _framework density 17.204726000000001
#
# number of rings (size 3 to 8) (size 9 to 14) (size 15 to 20)
#    0.000    1.684    2.105    5.053    0.000    0.421 
#    0.000    0.000    0.000    0.000    0.000   17.684 
#    0.000    0.000    0.000    0.000    0.000    0.000 
#
# Total GULP energy -212081.466928 kJ/mol
# GULP energy per Si atom -5581.091235 kJ/mol
# Density = 1.716557 g / cm^3
# Si number density = 17.204726 Si / 1000 Ang^3
#
#
#
# Elastic Constant Matrix: (Units=GPa)
#
#
# Indices 1 2 3 4 5 6 
#
# 1 92.1258 19.6828 31.9614 0.0000 0.0000 -3.9255
# 2 19.6828 92.1258 31.9614 0.0000 0.0000 3.9255
# 3 31.9614 31.9614 58.7470 0.0000 0.0000 0.0000
# 4 0.0000 0.0000 0.0000 26.9378 0.0000 0.0000
# 5 0.0000 0.0000 0.0000 0.0000 26.9378 0.0000
# 6 -3.9255 3.9255 0.0000 0.0000 0.0000 18.6153
#
#
#
# Elastic Compliance Matrix: (Units=1/GPa)
#
#
# Indices 1 2 3 4 5 6 
#
# 1 0.013554 -0.000573 -0.007063 0.000000 0.000000 0.002979
# 2 -0.000573 0.013554 -0.007063 0.000000 0.000000 -0.002979
# 3 -0.007063 -0.007063 0.024707 0.000000 0.000000 0.000000
# 4 0.000000 0.000000 0.000000 0.037123 0.000000 0.000000
# 5 0.000000 0.000000 0.000000 0.000000 0.037123 0.000000
# 6 0.002979 -0.002979 0.000000 0.000000 0.000000 0.054976
#
#
# Mechanical properties :
#
#
# Convention : Reuss Voigt Hill
#
# Bulk Modulus (GPa) = 44.60372 45.57889 45.09130
# Shear Modulus (GPa) = 22.94571 25.12437 24.03504
#
# Velocity S-wave (km/s) = 3.65593 3.82556 3.74170
# Velocity P-wave (km/s) = 6.61836 6.78696 6.70319
#
# Compressibility (1/GPa) = 0.02241965
#
# Stress axis : x y z
#
# Youngs Moduli (GPa) = 73.77741 73.77741 40.47409
#
# Poissons Ratio (x) = 0.04224 0.28586
# Poissons Ratio (y) = 0.04224 0.28586
# Poissons Ratio (z) = 0.52107 0.52107
#
# Static dielectric constant tensor:
#      x y z
#    x 1.580190 0.000000 0.000000 
#    y 0.000000 1.580190 0.000000 
#    z 0.000000 0.000000 1.559560 
# 
# From -- ./inp_files/2324.got.cif
#   From: 2010.05.17/outbox.cif.g08.bks.cpg/sg85_cif.got.tgz:2324.got - 2010.06.03 19:01:16.
