data_PCOD9544367
_publ_section_title
;
Structure prediction by ZEFSAII (Michael W. Deem and Ramdas Pophale) SiO2 
 PCOD9544367
Probable space group: P 42/M
;
_chemical_formula_sum "Si O2"
_cell_formula_units_Z 20
_cell_length_a 5.177361
_cell_length_b 5.177361
_cell_length_c 29.422916
_cell_angle_alpha 90.000000
_cell_angle_beta 90.000000
_cell_angle_gamma 90.000000
_cell_volume 788.683232
_symmetry_space_group_name_H-M "P 42/M"
_symmetry_group_IT_number 84
_symmetry_cell_setting 'tetragonal'
loop_
_space_group_symop_operation_xyz
x,y,z
-y,x,1/2+z
-x,-y,z
y,-x,1/2+z
-x,-y,-z
y,-x,1/2-z
x,y,-z
-y,x,1/2-z
loop_
_atom_site_type_symbol
_atom_site_label
_atom_site_fract_x
_atom_site_fract_y
_atom_site_fract_z
Si Si1 0.000000 0.000000 0.250000
Si Si2 0.500000 0.000000 0.500000
Si Si3 0.678252 0.252659 0.820979
Si Si4 0.249148 0.317471 0.575435
O O1 0.104059 0.780288 0.216556
O O2 0.705103 0.906224 0.539677
O O3 0.500000 0.500000 0.814366
O O4 0.780698 0.251653 0.872674
O O5 0.500000 0.000000 0.817127
O O6 0.500000 0.500000 0.568741
O O7 0.000000 0.500000 0.568221
#
# Coordination Sequence:
#
# PCOD9544367 Si02
#       4
#     2   2   8   8
#     4  12  28  44  80 110 144 200 268 316 408 478
#     4  12  24  42  80 104 144 202 264 302 402 462
#     4  10  26  48  73 107 156 199 258 329 402 476
#     4  10  24  46  68 105 149 194 250 321 386 467
#
# _framework density 25.358723000000001
#
# number of rings (size 3 to 8) (size 9 to 14) (size 15 to 20)
#    0.000    1.600    0.000    1.200    5.600   12.800 
#    0.000    0.000    0.000    0.000    0.000    0.000 
#    0.000    0.000    0.000    0.000    0.000    0.000 
#
# Total GULP energy -111717.464978 kJ/mol
# GULP energy per Si atom -5585.873249 kJ/mol
# Density = 2.530101 g / cm^3
# Si number density = 25.358723 Si / 1000 Ang^3
#
#
#
# Elastic Constant Matrix: (Units=GPa)
#
#
# Indices 1 2 3 4 5 6 
#
# 1 150.0427 57.1407 82.4315 0.0000 0.0000 -1.9195
# 2 57.1407 150.0427 82.4315 0.0000 0.0000 1.9195
# 3 82.4315 82.4315 208.7929 0.0000 0.0000 0.0000
# 4 0.0000 0.0000 0.0000 9.5681 0.0000 0.0000
# 5 0.0000 0.0000 0.0000 0.0000 9.5681 0.0000
# 6 -1.9195 1.9195 0.0000 0.0000 0.0000 46.3536
#
#
#
# Elastic Compliance Matrix: (Units=1/GPa)
#
#
# Indices 1 2 3 4 5 6 
#
# 1 0.008910 -0.001872 -0.002778 0.000000 0.000000 0.000447
# 2 -0.001872 0.008910 -0.002778 0.000000 0.000000 -0.000447
# 3 -0.002778 -0.002778 0.006983 0.000000 0.000000 0.000000
# 4 0.000000 0.000000 0.000000 0.104514 0.000000 0.000000
# 5 0.000000 0.000000 0.000000 0.000000 0.104514 0.000000
# 6 0.000447 -0.000447 0.000000 0.000000 0.000000 0.021610
#
#
# Mechanical properties :
#
#
# Convention : Reuss Voigt Hill
#
# Bulk Modulus (GPa) = 100.55650 105.87618 103.21634
# Shear Modulus (GPa) = 18.27388 32.22293 25.24840
#
# Velocity S-wave (km/s) = 2.68734 3.56853 3.15881
# Velocity P-wave (km/s) = 7.02629 7.66950 7.35493
#
# Compressibility (1/GPa) = 0.00994466
#
# Stress axis : x y z
#
# Youngs Moduli (GPa) = 112.23337 112.23337 143.19928
#
# Poissons Ratio (x) = 0.21015 0.39787
# Poissons Ratio (y) = 0.21015 0.39787
# Poissons Ratio (z) = 0.31183 0.31183
#
# Static dielectric constant tensor:
#      x y z
#    x 1.941970 0.000000 0.000000 
#    y 0.000000 1.941970 0.000000 
#    z 0.000000 0.000000 1.972880 
# 
# From -- ./inp_files/5494.got.cif
#   From: 2010.05.17/outbox.cif.g08.bks.cpg/sg84_3_cif.got.tgz:5494.got - 2010.06.03 18:57:40.
