data_PCOD9544376
_publ_section_title
;
Structure prediction by ZEFSAII (Michael W. Deem and Ramdas Pophale) SiO2 
 PCOD9544376
Probable space group: P 42/M
;
_chemical_formula_sum "Si O2"
_cell_formula_units_Z 20
_cell_length_a 5.091754
_cell_length_b 5.091754
_cell_length_c 33.378147
_cell_angle_alpha 90.000000
_cell_angle_beta 90.000000
_cell_angle_gamma 90.000000
_cell_volume 865.360464
_symmetry_space_group_name_H-M "P 42/M"
_symmetry_group_IT_number 84
_symmetry_cell_setting 'tetragonal'
loop_
_space_group_symop_operation_xyz
x,y,z
-y,x,1/2+z
-x,-y,z
y,-x,1/2+z
-x,-y,-z
y,-x,1/2-z
x,y,-z
-y,x,1/2-z
loop_
_atom_site_type_symbol
_atom_site_label
_atom_site_fract_x
_atom_site_fract_y
_atom_site_fract_z
Si Si1 0.000000 0.000000 0.750000
Si Si2 0.500000 0.000000 0.500000
Si Si3 0.000000 0.000000 0.560397
Si Si4 0.000000 0.500000 0.615146
Si Si5 0.734695 0.669419 0.186573
O O1 0.789762 0.889753 0.780775
O O2 0.264952 0.953329 0.534316
O O3 0.069976 0.255280 0.586935
O O4 0.213228 0.626505 0.645089
O O5 0.500000 0.500000 0.202969
O O6 0.000000 0.500000 0.180848
#
# Coordination Sequence:
#
# PCOD9544376 Si02
#       5
#     2   2   4   4   8
#     4  12  30  48  70 116 160 206 280 340 402 484
#     4  10  28  52  80 130 154 210 252 316 416 478
#     4  11  27  50  87 117 166 200 260 327 393 504
#     4  12  28  51  78 119 152 216 264 331 398 475
#     4  12  29  49  78 113 156 217 269 340 402 473
#
# _framework density 23.111756
#
# number of rings (size 3 to 8) (size 9 to 14) (size 15 to 20)
#    0.000    0.400    0.000    6.000   16.800    4.800 
#    0.000    0.000    0.000    0.000    0.000    0.000 
#    0.000    0.000    0.000    0.000    0.000    0.000 
#
# Total GULP energy -111366.953651 kJ/mol
# GULP energy per Si atom -5568.347683 kJ/mol
# Density = 2.305915 g / cm^3
# Si number density = 23.111756 Si / 1000 Ang^3
#
#
#
# Elastic Constant Matrix: (Units=GPa)
#
#
# Indices 1 2 3 4 5 6 
#
# 1 160.2503 44.5901 64.6021 0.0000 0.0000 1.7594
# 2 44.5901 160.2503 64.6021 0.0000 0.0000 -1.7594
# 3 64.6021 64.6021 171.3007 0.0000 0.0000 0.0000
# 4 0.0000 0.0000 0.0000 49.9381 0.0000 0.0000
# 5 0.0000 0.0000 0.0000 0.0000 49.9381 0.0000
# 6 1.7594 -1.7594 0.0000 0.0000 0.0000 56.7670
#
#
#
# Elastic Compliance Matrix: (Units=1/GPa)
#
#
# Indices 1 2 3 4 5 6 
#
# 1 0.007530 -0.001124 -0.002416 0.000000 0.000000 -0.000268
# 2 -0.001124 0.007530 -0.002416 0.000000 0.000000 0.000268
# 3 -0.002416 -0.002416 0.007660 0.000000 0.000000 0.000000
# 4 0.000000 0.000000 0.000000 0.020025 0.000000 0.000000
# 5 0.000000 0.000000 0.000000 0.000000 0.020025 0.000000
# 6 -0.000268 0.000268 0.000000 0.000000 0.000000 0.017632
#
#
# Mechanical properties :
#
#
# Convention : Reuss Voigt Hill
#
# Bulk Modulus (GPa) = 92.52371 93.26555 92.89463
# Shear Modulus (GPa) = 52.12911 52.52912 52.32912
#
# Velocity S-wave (km/s) = 4.75439 4.77259 4.76350
# Velocity P-wave (km/s) = 8.38207 8.41498 8.39854
#
# Compressibility (1/GPa) = 0.01080804
#
# Stress axis : x y z
#
# Youngs Moduli (GPa) = 132.80429 132.80429 130.55254
#
# Poissons Ratio (x) = 0.14931 0.31538
# Poissons Ratio (y) = 0.14931 0.31538
# Poissons Ratio (z) = 0.32082 0.32082
#
# Static dielectric constant tensor:
#      x y z
#    x 1.880370 0.000000 0.000000 
#    y 0.000000 1.880370 0.000000 
#    z 0.000000 0.000000 1.866790 
# 
# From -- ./inp_files/5575.got.cif
#   From: 2010.05.17/outbox.cif.g08.bks.cpg/sg84_3_cif.got.tgz:5575.got - 2010.06.03 18:57:40.
