data_PCOD9544772
_publ_section_title
;
Structure prediction by ZEFSAII (Michael W. Deem and Ramdas Pophale) SiO2 
 PCOD9544772
Probable space group: P 4/N
;
_chemical_formula_sum "Si O2"
_cell_formula_units_Z 50
_cell_length_a 9.513015
_cell_length_b 9.513015
_cell_length_c 26.420689
_cell_angle_alpha 90.000000
_cell_angle_beta 90.000000
_cell_angle_gamma 90.000000
_cell_volume 2391.005098
_symmetry_space_group_name_H-M "P 4/N"
_symmetry_group_IT_number 85
_symmetry_cell_setting 'tetragonal'
loop_
_space_group_symop_operation_xyz
x,y,z
1/2-y,x,z
1/2-x,1/2-y,z
y,1/2-x,z
-x,-y,-z
1/2+y,-x,-z
1/2+x,1/2+y,-z
-y,1/2+x,-z
loop_
_atom_site_type_symbol
_atom_site_label
_atom_site_fract_x
_atom_site_fract_y
_atom_site_fract_z
Si Si1 0.313362 0.032752 0.223134
Si Si2 0.408003 0.073856 0.456476
Si Si3 0.410303 0.767974 0.881892
Si Si4 0.157755 0.042697 0.737822
Si Si5 0.750000 0.750000 0.067702
Si Si6 0.566721 0.884215 0.383187
Si Si7 0.499841 0.042590 0.941596
O O1 0.417763 0.159041 0.239675
O O2 0.285915 0.009152 0.163576
O O3 0.393646 0.896913 0.243372
O O4 0.440624 0.239751 0.459563
O O5 0.500000 0.000000 0.500000
O O6 0.456443 0.992465 0.405846
O O7 0.250000 0.750000 0.863857
O O8 0.447185 0.920630 0.903328
O O9 0.429109 0.660715 0.927638
O O10 0.318161 0.071359 0.755028
O O11 0.134573 0.051617 0.677248
O O12 0.681369 0.591688 0.066386
O O13 0.560819 0.721152 0.400014
O O14 0.500000 0.000000 0.000000
#
# Coordination Sequence:
#
# PCOD9544772 Si02
#       7
#     8   8   8   8   2   8   8
#     4  11  25  43  62  92 128 168 210 261 325 389
#     4  11  24  39  58  90 132 177 228 281 341 402
#     4  12  26  44  68  99 131 172 217 268 330 387
#     4   9  21  42  68  98 128 170 222 275 332 399
#     4  12  24  48  64 104 128 164 224 260 308 388
#     4   9  19  39  65  93 128 167 219 278 335 397
#     4  12  26  45  73  97 134 173 218 266 324 397
#
# _framework density 20.911708999999998
#
# number of rings (size 3 to 8) (size 9 to 14) (size 15 to 20)
#    0.000    1.280    3.200    2.880    2.240    5.120 
#    0.000    4.800    0.000    0.000    0.000    0.000 
#    0.000    0.000    0.000    0.000    0.000    0.000 
#
# Total GULP energy -278512.484581 kJ/mol
# GULP energy per Si atom -5570.249692 kJ/mol
# Density = 2.086411 g / cm^3
# Si number density = 20.911709 Si / 1000 Ang^3
#
#
#
# Elastic Constant Matrix: (Units=GPa)
#
#
# Indices 1 2 3 4 5 6 
#
# 1 70.0290 61.6690 13.7127 0.0000 0.0000 36.0765
# 2 61.6690 70.0290 13.7127 0.0000 0.0000 -36.0765
# 3 13.7127 13.7127 31.7292 0.0000 0.0000 0.0000
# 4 0.0000 0.0000 0.0000 21.2780 0.0000 0.0000
# 5 0.0000 0.0000 0.0000 0.0000 21.2780 0.0000
# 6 36.0765 -36.0765 0.0000 0.0000 0.0000 -46.3057
#
#
#
# Elastic Compliance Matrix: (Units=1/GPa)
#
#
# Indices 1 2 3 4 5 6 
#
# 1 0.011915 -0.003571 -0.003606 0.000000 0.000000 0.012065
# 2 -0.003571 0.011915 -0.003606 0.000000 0.000000 -0.012065
# 3 -0.003606 -0.003606 0.034634 0.000000 0.000000 0.000000
# 4 0.000000 0.000000 0.000000 0.046997 0.000000 0.000000
# 5 0.000000 0.000000 0.000000 0.000000 0.046997 0.000000
# 6 0.012065 -0.012065 0.000000 0.000000 0.000000 -0.002796
#
#
# Mechanical properties :
#
#
# Convention : Reuss Voigt Hill
#
# Bulk Modulus (GPa) = 27.10225 38.88624 32.99424
# Shear Modulus (GPa) = 27.24386 4.76290 16.00338
#
# Velocity S-wave (km/s) = 3.61335 1.51082 2.76938
# Velocity P-wave (km/s) = 5.51334 4.65610 5.10275
#
# Compressibility (1/GPa) = 0.03689731
#
# Stress axis : x y z
#
# Youngs Moduli (GPa) = 83.92706 83.92706 28.87356
#
# Poissons Ratio (x) = 0.29970 0.10412
# Poissons Ratio (y) = 0.29970 0.10412
# Poissons Ratio (z) = 0.30265 0.30265
#
# Static dielectric constant tensor:
#      x y z
#    x 1.743630 0.000000 0.000000 
#    y 0.000000 1.743630 0.000000 
#    z 0.000000 0.000000 1.743380 
# 
# From -- ./inp_files/2453.got.cif
#   From: 2010.05.17/outbox.cif.g08.bks.cpg/sg85_cif.got.tgz:2453.got - 2010.06.03 19:01:16.
