data_PCOD9544008
_publ_section_title
;
Structure prediction by ZEFSAII (Michael W. Deem and Ramdas Pophale) SiO2 
 PCOD9544008
Probable space group: P 42/M
;
_chemical_formula_sum "Si O2"
_cell_formula_units_Z 64
_cell_length_a 21.472396
_cell_length_b 21.472396
_cell_length_c 8.015395
_cell_angle_alpha 90.000000
_cell_angle_beta 90.000000
_cell_angle_gamma 90.000000
_cell_volume 3695.608397
_symmetry_space_group_name_H-M "P 42/M"
_symmetry_group_IT_number 84
_symmetry_cell_setting 'tetragonal'
loop_
_space_group_symop_operation_xyz
x,y,z
-y,x,1/2+z
-x,-y,z
y,-x,1/2+z
-x,-y,-z
y,-x,1/2-z
x,y,-z
-y,x,1/2-z
loop_
_atom_site_type_symbol
_atom_site_label
_atom_site_fract_x
_atom_site_fract_y
_atom_site_fract_z
Si Si1 0.317041 0.238194 0.690500
Si Si2 0.001305 0.726353 0.311135
Si Si3 0.444887 0.865715 0.197619
Si Si4 0.404668 0.000984 0.690043
Si Si5 0.888411 0.790920 0.194077
Si Si6 0.142971 0.581613 0.803539
Si Si7 0.863932 0.223599 0.700024
Si Si8 0.205642 0.318543 0.703642
O O1 0.333893 0.254619 0.500000
O O2 0.376041 0.199934 0.766883
O O3 0.265436 0.183841 0.698140
O O4 0.275933 0.297120 0.757352
O O5 0.003198 0.701585 0.500000
O O6 0.985235 0.668371 0.196094
O O7 0.067471 0.753750 0.265681
O O8 0.949208 0.778298 0.298521
O O9 0.508732 0.844500 0.282426
O O10 0.385216 0.824199 0.251653
O O11 0.436252 0.940134 0.229844
O O12 0.451118 0.857514 0.000000
O O13 0.427215 0.004594 0.500000
O O14 0.408922 0.071657 0.763705
O O15 0.847999 0.850993 0.238607
O O16 0.841535 0.733201 0.225982
O O17 0.904974 0.792986 0.000000
O O18 0.139133 0.598301 0.000000
O O19 0.851379 0.231916 0.500000
O O20 0.204397 0.315284 0.500000
#
# Coordination Sequence:
#
# PCOD9544008 Si02
#       8
#     8   8   8   8   8   8   8   8
#     4   9  17  32  51  69  91 120 157 196 234 278
#     4  11  20  31  48  69  94 120 151 194 240 287
#     4  11  22  33  47  69  98 132 164 193 234 278
#     4  11  21  33  47  67  95 128 166 199 229 272
#     4  10  19  31  48  69  90 117 152 193 238 284
#     4  10  21  34  48  68  95 130 165 196 232 275
#     4   9  19  32  47  68  92 116 149 194 242 285
#     4   9  18  32  49  69  93 121 155 195 236 277
#
# _framework density 17.317851000000001
#
# number of rings (size 3 to 8) (size 9 to 14) (size 15 to 20)
#    0.000    2.000    2.500    1.875    0.000    4.500 
#    0.000    0.000    0.000    0.375    0.000    2.625 
#    0.000    0.500    0.000    6.250    0.000    0.000 
#
# Total GULP energy -356403.487747 kJ/mol
# GULP energy per Si atom -5568.804496 kJ/mol
# Density = 1.727844 g / cm^3
# Si number density = 17.317851 Si / 1000 Ang^3
#
#
#
# Elastic Constant Matrix: (Units=GPa)
#
#
# Indices 1 2 3 4 5 6 
#
# 1 56.4220 24.8565 6.2063 0.0000 0.0000 1.9111
# 2 24.8565 56.4220 6.2063 0.0000 0.0000 -1.9111
# 3 6.2063 6.2063 10.7048 0.0000 0.0000 0.0000
# 4 0.0000 0.0000 0.0000 13.5344 0.0000 0.0000
# 5 0.0000 0.0000 0.0000 0.0000 13.5344 0.0000
# 6 1.9111 -1.9111 0.0000 0.0000 0.0000 18.4582
#
#
#
# Elastic Compliance Matrix: (Units=1/GPa)
#
#
# Indices 1 2 3 4 5 6 
#
# 1 0.022790 -0.009292 -0.007826 0.000000 0.000000 -0.003322
# 2 -0.009292 0.022790 -0.007826 0.000000 0.000000 0.003322
# 3 -0.007826 -0.007826 0.102491 0.000000 0.000000 0.000000
# 4 0.000000 0.000000 0.000000 0.073886 0.000000 0.000000
# 5 0.000000 0.000000 0.000000 0.000000 0.073886 0.000000
# 6 -0.003322 0.003322 0.000000 0.000000 0.000000 0.054864
#
#
# Mechanical properties :
#
#
# Convention : Reuss Voigt Hill
#
# Bulk Modulus (GPa) = 10.18497 22.00966 16.09732
# Shear Modulus (GPa) = 11.53870 14.85735 13.19803
#
# Velocity S-wave (km/s) = 2.58406 2.93221 2.76362
# Velocity P-wave (km/s) = 3.84670 4.91941 4.41575
#
# Compressibility (1/GPa) = 0.09818388
#
# Stress axis : x y z
#
# Youngs Moduli (GPa) = 43.87796 43.87796 9.75695
#
# Poissons Ratio (x) = 0.40771 0.07636
# Poissons Ratio (y) = 0.40771 0.07636
# Poissons Ratio (z) = 0.34339 0.34339
#
# Static dielectric constant tensor:
#      x y z
#    x 1.607110 0.000000 0.000000 
#    y 0.000000 1.607110 0.000000 
#    z 0.000000 0.000000 1.567970 
# 
# From -- ./inp_files/1386.got.cif
#   From: 2010.05.17/outbox.cif.g08.bks.cpg/sg84_1_cif.got.tgz:1386.got - 2010.06.03 18:57:40.
