data_PCOD9544860
_publ_section_title
;
Structure prediction by ZEFSAII (Michael W. Deem and Ramdas Pophale) SiO2 
 PCOD9544860
Probable space group: P 42/N
;
_chemical_formula_sum "Si O2"
_cell_formula_units_Z 60
_cell_length_a 13.735444
_cell_length_b 13.735444
_cell_length_c 14.009489
_cell_angle_alpha 90.000000
_cell_angle_beta 90.000000
_cell_angle_gamma 90.000000
_cell_volume 2643.064124
_symmetry_space_group_name_H-M "P 42/N"
_symmetry_group_IT_number 86
_space_group.IT_coordinate_system_code '2'
_symmetry_cell_setting 'tetragonal'
loop_
_space_group_symop_operation_xyz
x,y,z
-y,1/2+x,1/2+z
1/2-x,1/2-y,z
1/2+y,-x,1/2+z
-x,-y,-z
y,1/2-x,1/2-z
1/2+x,1/2+y,-z
1/2-y,x,1/2-z
loop_
_atom_site_type_symbol
_atom_site_label
_atom_site_fract_x
_atom_site_fract_y
_atom_site_fract_z
Si Si1 0.250000 0.750000 0.845169
Si Si2 0.155567 0.911868 0.714197
Si Si3 0.235688 0.401916 0.778682
Si Si4 0.638548 0.428130 0.961660
Si Si5 0.382355 0.788950 0.013449
Si Si6 0.096099 0.240694 0.059393
Si Si7 0.603489 0.735003 0.496787
Si Si8 0.995441 0.935797 0.852684
O O1 0.188133 0.821488 0.779572
O O2 0.322821 0.807853 0.916637
O O3 0.143932 0.883073 0.605114
O O4 0.054562 0.949089 0.757131
O O5 0.236752 0.995480 0.731975
O O6 0.336533 0.340628 0.778459
O O7 0.199469 0.404735 0.887967
O O8 0.657674 0.315285 0.948428
O O9 0.574989 0.475835 0.878311
O O10 0.730646 0.497482 0.972424
O O11 0.574601 0.434120 0.059911
O O12 0.495229 0.771165 0.988036
O O13 0.062868 0.167010 0.143671
O O14 0.166008 0.168980 0.998339
O O15 0.160958 0.338244 0.065311
#
# Coordination Sequence:
#
# PCOD9544860 Si02
#       8
#     4   8   8   8   8   8   8   8
#     4  12  24  44  58  84 114 170 230 258 296 368
#     4  12  23  37  63  90 124 165 211 257 317 381
#     4  11  21  32  53  97 140 154 189 257 329 393
#     4   9  17  33  57  85 123 158 210 248 309 383
#     4  11  22  38  59  86 120 167 205 267 317 378
#     4   9  17  31  53  87 128 162 205 247 311 371
#     4  10  16  29  53  87 125 170 197 249 315 380
#     4   9  17  32  55  87 123 163 201 250 303 389
#
# _framework density 22.700927
#
# number of rings (size 3 to 8) (size 9 to 14) (size 15 to 20)
#    0.000    1.733    4.000    4.400    1.867    0.000 
#    0.000    0.000    0.000    8.800    0.000    0.000 
#    0.000    5.067    0.000    0.000    0.000    0.000 
#
# Total GULP energy -335170.976471 kJ/mol
# GULP energy per Si atom -5586.182941 kJ/mol
# Density = 2.264926 g / cm^3
# Si number density = 22.700927 Si / 1000 Ang^3
#
#
#
# Elastic Constant Matrix: (Units=GPa)
#
#
# Indices 1 2 3 4 5 6 
#
# 1 58.1531 11.4667 -5.2493 0.0000 0.0000 -0.7181
# 2 11.4667 58.1531 -5.2493 0.0000 0.0000 0.7181
# 3 -5.2493 -5.2493 33.6591 0.0000 0.0000 0.0000
# 4 0.0000 0.0000 0.0000 20.6179 0.0000 0.0000
# 5 0.0000 0.0000 0.0000 0.0000 20.6179 0.0000
# 6 -0.7181 0.7181 0.0000 0.0000 0.0000 37.5498
#
#
#
# Elastic Compliance Matrix: (Units=1/GPa)
#
#
# Indices 1 2 3 4 5 6 
#
# 1 0.018071 -0.003361 0.002294 0.000000 0.000000 0.000410
# 2 -0.003361 0.018071 0.002294 0.000000 0.000000 -0.000410
# 3 0.002294 0.002294 0.030425 0.000000 0.000000 0.000000
# 4 0.000000 0.000000 0.000000 0.048502 0.000000 0.000000
# 5 0.000000 0.000000 0.000000 0.000000 0.048502 0.000000
# 6 0.000410 -0.000410 0.000000 0.000000 0.000000 0.026647
#
#
# Mechanical properties :
#
#
# Convention : Reuss Voigt Hill
#
# Bulk Modulus (GPa) = 14.48841 16.87794 15.68317
# Shear Modulus (GPa) = 23.72252 25.69027 24.70639
#
# Velocity S-wave (km/s) = 3.23616 3.36770 3.30258
# Velocity P-wave (km/s) = 4.51218 4.75110 4.63318
#
# Compressibility (1/GPa) = 0.06902070
#
# Stress axis : x y z
#
# Youngs Moduli (GPa) = 55.33756 55.33756 32.86753
#
# Poissons Ratio (x) = 0.18600 -0.07540
# Poissons Ratio (y) = 0.18600 -0.07540
# Poissons Ratio (z) = -0.12695 -0.12695
#
# Static dielectric constant tensor:
#      x y z
#    x 1.887510 0.000000 0.000000 
#    y 0.000000 1.887510 0.000000 
#    z 0.000000 0.000000 1.812840 
# 
# From -- ./inp_files/3088.got.cif
#   From: 2010.05.17/outbox.cif.g08.bks.cpg/sg86_2_cif.got.tgz:3088.got - 2010.06.03 19:03:11.
