data_PCOD9544366
_publ_section_title
;
Structure prediction by ZEFSAII (Michael W. Deem and Ramdas Pophale) SiO2 
 PCOD9544366
Probable space group: P 42/M
;
_chemical_formula_sum "Si O2"
_cell_formula_units_Z 34
_cell_length_a 8.878815
_cell_length_b 8.878815
_cell_length_c 20.527444
_cell_angle_alpha 90.000000
_cell_angle_beta 90.000000
_cell_angle_gamma 90.000000
_cell_volume 1618.247297
_symmetry_space_group_name_H-M "P 42/M"
_symmetry_group_IT_number 84
_symmetry_cell_setting 'tetragonal'
loop_
_space_group_symop_operation_xyz
x,y,z
-y,x,1/2+z
-x,-y,z
y,-x,1/2+z
-x,-y,-z
y,-x,1/2-z
x,y,-z
-y,x,1/2-z
loop_
_atom_site_type_symbol
_atom_site_label
_atom_site_fract_x
_atom_site_fract_y
_atom_site_fract_z
Si Si1 0.159814 0.336772 0.422992
Si Si2 0.860068 0.909622 0.850832
Si Si3 0.500000 0.500000 0.250000
Si Si4 0.052121 0.660828 0.922043
Si Si5 0.834363 0.447002 0.695027
O O1 0.151274 0.367077 0.500000
O O2 0.165581 0.483919 0.378511
O O3 0.021498 0.232867 0.398444
O O4 0.300934 0.226334 0.408311
O O5 0.940177 0.781110 0.891858
O O6 0.733860 0.843927 0.803578
O O7 0.000000 0.000000 0.821110
O O8 0.502165 0.671318 0.220524
O O9 0.000000 0.500000 0.897817
O O10 0.037575 0.667327 0.000000
O O11 0.000000 0.500000 0.722512
#
# Coordination Sequence:
#
# PCOD9544366 Si02
#       5
#     8   8   2   8   8
#     4   9  18  35  61  92 130 165 206 263 328 407
#     4   9  18  35  60  89 123 163 210 259 321 402
#     4  12  28  52  70  96 136 180 224 306 320 396
#     4   9  17  28  48  88 131 167 201 244 312 389
#     4  10  24  46  66  97 127 170 225 268 345 396
#
# _framework density 21.010387999999999
#
# number of rings (size 3 to 8) (size 9 to 14) (size 15 to 20)
#    0.000    2.588    0.000    0.706    3.294    8.000 
#   12.706    0.588    0.000    0.000    0.000    0.000 
#    0.000    0.000    0.000    0.000    0.000    0.000 
#
# Total GULP energy -189394.452476 kJ/mol
# GULP energy per Si atom -5570.425073 kJ/mol
# Density = 2.096257 g / cm^3
# Si number density = 21.010388 Si / 1000 Ang^3
#
#
#
# Elastic Constant Matrix: (Units=GPa)
#
#
# Indices 1 2 3 4 5 6 
#
# 1 134.2204 42.0034 39.3589 0.0000 0.0000 -6.5217
# 2 42.0034 134.2204 39.3589 0.0000 0.0000 6.5217
# 3 39.3589 39.3589 40.8386 0.0000 0.0000 0.0000
# 4 0.0000 0.0000 0.0000 -382.6928 0.0000 0.0000
# 5 0.0000 0.0000 0.0000 0.0000 -382.6928 0.0000
# 6 -6.5217 6.5217 0.0000 0.0000 0.0000 29.2422
#
#
#
# Elastic Compliance Matrix: (Units=1/GPa)
#
#
# Indices 1 2 3 4 5 6 
#
# 1 0.010581 -0.000616 -0.009603 0.000000 0.000000 0.002497
# 2 -0.000616 0.010581 -0.009603 0.000000 0.000000 -0.002497
# 3 -0.009603 -0.009603 0.042997 0.000000 0.000000 0.000000
# 4 0.000000 0.000000 0.000000 -0.002613 0.000000 0.000000
# 5 0.000000 0.000000 0.000000 0.000000 -0.002613 0.000000
# 6 0.002497 -0.002497 0.000000 0.000000 0.000000 0.035311
#
#
# Mechanical properties :
#
#
# Convention : Reuss Voigt Hill
#
# Bulk Modulus (GPa) = 40.79499 61.19130 50.99314
# Shear Modulus (GPa) = 35.19621 -134.65815 -49.73097
#
# Velocity S-wave (km/s) = 4.09734 -8.01438 -4.87043
# Velocity P-wave (km/s) = 6.46861 7.51352 2.70277
#
# Compressibility (1/GPa) = 0.02451282
#
# Stress axis : x y z
#
# Youngs Moduli (GPa) = 94.51112 94.51112 23.25727
#
# Poissons Ratio (x) = 0.05826 0.22335
# Poissons Ratio (y) = 0.05826 0.22335
# Poissons Ratio (z) = 0.90762 0.90762
#
# Static dielectric constant tensor:
#      x y z
#    x 1.791140 0.000000 0.000000 
#    y 0.000000 1.791140 0.000000 
#    z 0.000000 0.000000 1.743850 
# 
# From -- ./inp_files/4246.got.cif
#   From: 2010.05.17/outbox.cif.g08.bks.cpg/sg84_3_cif.got.tgz:4246.got - 2010.06.03 18:57:40.
