data_PCOD9544402
_publ_section_title
;
Structure prediction by ZEFSAII (Michael W. Deem and Ramdas Pophale) SiO2 
 PCOD9544402
Probable space group: P 42/M
;
_chemical_formula_sum "Si O2"
_cell_formula_units_Z 20
_cell_length_a 7.011983
_cell_length_b 7.011983
_cell_length_c 16.328837
_cell_angle_alpha 90.000000
_cell_angle_beta 90.000000
_cell_angle_gamma 90.000000
_cell_volume 802.854716
_symmetry_space_group_name_H-M "P 42/M"
_symmetry_group_IT_number 84
_symmetry_cell_setting 'tetragonal'
loop_
_space_group_symop_operation_xyz
x,y,z
-y,x,1/2+z
-x,-y,z
y,-x,1/2+z
-x,-y,-z
y,-x,1/2-z
x,y,-z
-y,x,1/2-z
loop_
_atom_site_type_symbol
_atom_site_label
_atom_site_fract_x
_atom_site_fract_y
_atom_site_fract_z
Si Si1 0.724485 0.985605 0.000000
Si Si2 0.545171 0.270587 0.500000
Si Si3 0.500000 0.500000 0.750000
Si Si4 0.273539 0.206932 0.644437
Si Si5 0.000000 0.000000 0.750000
O O1 0.221863 0.233787 0.000000
O O2 0.780517 0.094351 0.917621
O O3 0.500000 0.000000 0.000000
O O4 0.500000 0.500000 0.500000
O O5 0.447099 0.191640 0.581258
O O6 0.337439 0.393497 0.696292
O O7 0.199963 0.041003 0.703645
#
# Coordination Sequence:
#
# PCOD9544402 Si02
#       5
#     4   4   2   8   2
#     4  11  21  44  76 109 150 200 265 327 372 476
#     4  11  21  44  78 108 143 212 266 313 379 485
#     4  12  24  46  84 108 152 218 264 316 400 474
#     4  11  27  46  74 113 155 206 264 320 400 465
#     4  12  32  46  68 120 172 190 252 352 396 454
#
# _framework density 24.911110000000001
#
# number of rings (size 3 to 8) (size 9 to 14) (size 15 to 20)
#    0.000    0.800    6.000    0.000   11.200    3.200 
#    0.000    2.000    0.000    0.000    0.000    0.000 
#    0.000    0.000    0.000    0.000    0.000    0.000 
#
# Total GULP energy -111869.956457 kJ/mol
# GULP energy per Si atom -5593.497823 kJ/mol
# Density = 2.485441 g / cm^3
# Si number density = 24.911110 Si / 1000 Ang^3
#
#
#
# Elastic Constant Matrix: (Units=GPa)
#
#
# Indices 1 2 3 4 5 6 
#
# 1 177.7173 38.1154 61.7022 0.0000 0.0000 8.8497
# 2 38.1154 177.7173 61.7022 0.0000 0.0000 -8.8497
# 3 61.7022 61.7022 118.3217 0.0000 0.0000 0.0000
# 4 0.0000 0.0000 0.0000 64.0607 0.0000 0.0000
# 5 0.0000 0.0000 0.0000 0.0000 64.0607 0.0000
# 6 8.8497 -8.8497 0.0000 0.0000 0.0000 47.5522
#
#
#
# Elastic Compliance Matrix: (Units=1/GPa)
#
#
# Indices 1 2 3 4 5 6 
#
# 1 0.006969 -0.000367 -0.003443 0.000000 0.000000 -0.001365
# 2 -0.000367 0.006969 -0.003443 0.000000 0.000000 0.001365
# 3 -0.003443 -0.003443 0.012042 0.000000 0.000000 0.000000
# 4 0.000000 0.000000 0.000000 0.015610 0.000000 0.000000
# 5 0.000000 0.000000 0.000000 0.000000 0.015610 0.000000
# 6 -0.001365 0.001365 0.000000 0.000000 0.000000 0.021538
#
#
# Mechanical properties :
#
#
# Convention : Reuss Voigt Hill
#
# Bulk Modulus (GPa) = 87.14737 88.53286 87.84012
# Shear Modulus (GPa) = 51.51036 55.95050 53.73043
#
# Velocity S-wave (km/s) = 4.55220 4.74435 4.64927
# Velocity P-wave (km/s) = 7.91766 8.10114 8.00992
#
# Compressibility (1/GPa) = 0.01147482
#
# Stress axis : x y z
#
# Youngs Moduli (GPa) = 143.49408 143.49408 83.04291
#
# Poissons Ratio (x) = 0.05272 0.28588
# Poissons Ratio (y) = 0.05272 0.28588
# Poissons Ratio (z) = 0.49399 0.49399
#
# Static dielectric constant tensor:
#      x y z
#    x 1.992360 0.000000 0.000000 
#    y 0.000000 1.992360 0.000000 
#    z 0.000000 0.000000 2.327750 
# 
# From -- ./inp_files/2482.got.cif
#   From: 2010.05.17/outbox.cif.g08.bks.cpg/sg84_2_cif.got.tgz:2482.got - 2010.06.03 18:57:40.
