data_PCOD9544605
_publ_section_title
;
Structure prediction by ZEFSAII (Michael W. Deem and Ramdas Pophale) SiO2 
 PCOD9544605
Probable space group: P 4/N
;
_chemical_formula_sum "Si O2"
_cell_formula_units_Z 48
_cell_length_a 13.573797
_cell_length_b 13.573797
_cell_length_c 12.171259
_cell_angle_alpha 90.000000
_cell_angle_beta 90.000000
_cell_angle_gamma 90.000000
_cell_volume 2242.529702
_symmetry_space_group_name_H-M "P 4/N"
_symmetry_group_IT_number 85
_symmetry_cell_setting 'tetragonal'
loop_
_space_group_symop_operation_xyz
x,y,z
1/2-y,x,z
1/2-x,1/2-y,z
y,1/2-x,z
-x,-y,-z
1/2+y,-x,-z
1/2+x,1/2+y,-z
-y,1/2+x,-z
loop_
_atom_site_type_symbol
_atom_site_label
_atom_site_fract_x
_atom_site_fract_y
_atom_site_fract_z
Si Si1 0.681393 0.394707 0.478233
Si Si2 0.379338 0.604216 0.747524
Si Si3 0.322069 0.103981 0.732055
Si Si4 0.809709 0.086482 0.853478
Si Si5 0.475331 0.741936 0.080386
Si Si6 0.520655 0.051478 0.337528
O O1 0.789309 0.374647 0.525213
O O2 0.696018 0.417419 0.350547
O O3 0.615849 0.468999 0.551325
O O4 0.374968 0.715518 0.787566
O O5 0.343269 0.541787 0.851899
O O6 0.482212 0.571872 0.692162
O O7 0.374249 0.207858 0.708990
O O8 0.315695 0.063700 0.858695
O O9 0.386447 0.023295 0.668211
O O10 0.877656 0.174220 0.901930
O O11 0.875363 0.030739 0.764877
O O12 0.769150 0.020294 0.953259
#
# Coordination Sequence:
#
# PCOD9544605 Si02
#       6
#     8   8   8   8   8   8
#     4  11  23  40  67  96 126 163 211 270 329 382
#     4  12  23  40  62  94 130 166 212 265 324 391
#     4  10  21  39  60  90 130 168 212 259 312 387
#     4  11  23  39  62  96 129 166 213 267 322 379
#     4  11  22  37  65  93 129 170 212 263 324 382
#     4  11  24  42  65  96 127 170 216 264 330 387
#
# _framework density 21.404398
#
# number of rings (size 3 to 8) (size 9 to 14) (size 15 to 20)
#    0.000    1.000    5.000    3.000    2.333    2.000 
#    0.000    0.000    0.000    0.500    0.000    0.000 
#    0.000    0.000    0.000    0.000    0.000    0.000 
#
# Total GULP energy -267924.684816 kJ/mol
# GULP energy per Si atom -5581.764267 kJ/mol
# Density = 2.135568 g / cm^3
# Si number density = 21.404398 Si / 1000 Ang^3
#
#
#
# Elastic Constant Matrix: (Units=GPa)
#
#
# Indices 1 2 3 4 5 6 
#
# 1 69.4389 4.5346 2.3732 0.0000 0.0000 -7.3685
# 2 4.5346 69.4389 2.3732 0.0000 0.0000 7.3685
# 3 2.3732 2.3732 100.8751 0.0000 0.0000 0.0000
# 4 0.0000 0.0000 0.0000 21.8158 0.0000 0.0000
# 5 0.0000 0.0000 0.0000 0.0000 21.8158 0.0000
# 6 -7.3685 7.3685 0.0000 0.0000 0.0000 23.9181
#
#
#
# Elastic Compliance Matrix: (Units=1/GPa)
#
#
# Indices 1 2 3 4 5 6 
#
# 1 0.015052 -0.001514 -0.000319 0.000000 0.000000 0.005104
# 2 -0.001514 0.015052 -0.000319 0.000000 0.000000 -0.005104
# 3 -0.000319 -0.000319 0.009928 0.000000 0.000000 0.000000
# 4 0.000000 0.000000 0.000000 0.045838 0.000000 0.000000
# 5 0.000000 0.000000 0.000000 0.000000 0.045838 0.000000
# 6 0.005104 -0.005104 0.000000 0.000000 0.000000 0.044954
#
#
# Mechanical properties :
#
#
# Convention : Reuss Voigt Hill
#
# Bulk Modulus (GPa) = 27.98634 28.70169 28.34402
# Shear Modulus (GPa) = 25.92346 28.87474 27.39910
#
# Velocity S-wave (km/s) = 3.48390 3.67687 3.58169
# Velocity P-wave (km/s) = 5.41173 5.60930 5.51140
#
# Compressibility (1/GPa) = 0.03573171
#
# Stress axis : x y z
#
# Youngs Moduli (GPa) = 66.43446 66.43446 100.72282
#
# Poissons Ratio (x) = 0.10056 0.03208
# Poissons Ratio (y) = 0.10056 0.03208
# Poissons Ratio (z) = 0.02116 0.02116
#
# Static dielectric constant tensor:
#      x y z
#    x 1.807800 0.000000 0.000000 
#    y 0.000000 1.807800 0.000000 
#    z 0.000000 0.000000 1.782870 
# 
# From -- ./inp_files/1630.got.cif
#   From: 2010.05.17/outbox.cif.g08.bks.cpg/sg85_cif.got.tgz:1630.got - 2010.06.03 19:01:16.
