data_PCOD9544101
_publ_section_title
;
Structure prediction by ZEFSAII (Michael W. Deem and Ramdas Pophale) SiO2 
 PCOD9544101
Probable space group: P 42/M
;
_chemical_formula_sum "Si O2"
_cell_formula_units_Z 32
_cell_length_a 6.921900
_cell_length_b 6.921900
_cell_length_c 22.595033
_cell_angle_alpha 90.000000
_cell_angle_beta 90.000000
_cell_angle_gamma 90.000000
_cell_volume 1082.589029
_symmetry_space_group_name_H-M "P 42/M"
_symmetry_group_IT_number 84
_symmetry_cell_setting 'tetragonal'
loop_
_space_group_symop_operation_xyz
x,y,z
-y,x,1/2+z
-x,-y,z
y,-x,1/2+z
-x,-y,-z
y,-x,1/2-z
x,y,-z
-y,x,1/2-z
loop_
_atom_site_type_symbol
_atom_site_label
_atom_site_fract_x
_atom_site_fract_y
_atom_site_fract_z
Si Si1 0.741767 0.716407 0.756229
Si Si2 0.303559 0.878749 0.865815
Si Si3 0.276369 0.463043 0.000000
Si Si4 0.565568 0.217302 0.625886
Si Si5 0.724888 0.092053 0.000000
O O1 0.763724 0.481943 0.754184
O O2 0.869421 0.789399 0.701236
O O3 0.767241 0.734146 0.826159
O O4 0.338710 0.639175 0.871365
O O5 0.500000 0.000000 0.862125
O O6 0.217851 0.938622 0.929929
O O7 0.500000 0.500000 0.000000
O O8 0.232612 0.357200 0.059869
O O9 0.202463 0.680826 0.000000
O O10 0.500000 0.000000 0.632885
O O11 0.500000 0.000000 0.000000
#
# Coordination Sequence:
#
# PCOD9544101 Si02
#       5
#     8   8   4   8   4
#     4   9  18  29  49  77 109 140 190 242 286 347
#     4   9  17  31  51  76 104 148 193 234 286 361
#     4  10  21  31  54  81 109 142 189 246 298 354
#     4  10  20  33  51  79 113 144 184 247 304 350
#     4   8  16  29  48  75 100 136 181 226 273 342
#
# _framework density 29.558767
#
# number of rings (size 3 to 8) (size 9 to 14) (size 15 to 20)
#    0.000    2.750    0.000    1.125   10.500    0.000 
#    0.000    0.000    0.000    1.500    0.000   17.500 
#    0.000    0.000    0.000    0.000    0.000    0.000 
#
# Total GULP energy -178302.296775 kJ/mol
# GULP energy per Si atom -5571.946774 kJ/mol
# Density = 2.949149 g / cm^3
# Si number density = 29.558767 Si / 1000 Ang^3
#
#
#
# Elastic Constant Matrix: (Units=GPa)
#
#
# Indices 1 2 3 4 5 6 
#
# 1 120.6472 28.2407 56.5567 0.0000 0.0000 -7.9485
# 2 28.2407 120.6472 56.5567 0.0000 0.0000 7.9485
# 3 56.5567 56.5567 350.7615 0.0000 0.0000 0.0000
# 4 0.0000 0.0000 0.0000 3.7848 0.0000 0.0000
# 5 0.0000 0.0000 0.0000 0.0000 3.7848 0.0000
# 6 -7.9485 7.9485 0.0000 0.0000 0.0000 24.6610
#
#
#
# Elastic Compliance Matrix: (Units=1/GPa)
#
#
# Indices 1 2 3 4 5 6 
#
# 1 0.009556 -0.001901 -0.001234 0.000000 0.000000 0.003693
# 2 -0.001901 0.009556 -0.001234 0.000000 0.000000 -0.003693
# 3 -0.001234 -0.001234 0.003249 0.000000 0.000000 0.000000
# 4 0.000000 0.000000 0.000000 0.264218 0.000000 0.000000
# 5 0.000000 0.000000 0.000000 0.000000 0.264218 0.000000
# 6 0.003693 -0.003693 0.000000 0.000000 0.000000 0.042930
#
#
# Mechanical properties :
#
#
# Convention : Reuss Voigt Hill
#
# Bulk Modulus (GPa) = 73.41879 97.19601 85.30740
# Shear Modulus (GPa) = 8.23715 36.49290 22.36503
#
# Velocity S-wave (km/s) = 1.67115 3.51748 2.75367
# Velocity P-wave (km/s) = 5.34938 7.03211 6.24766
#
# Compressibility (1/GPa) = 0.01362049
#
# Stress axis : x y z
#
# Youngs Moduli (GPa) = 104.65136 104.65136 307.79427
#
# Poissons Ratio (x) = 0.19899 0.37986
# Poissons Ratio (y) = 0.19899 0.37986
# Poissons Ratio (z) = 0.12915 0.12915
#
# Static dielectric constant tensor:
#      x y z
#    x 2.350900 0.000000 0.000000 
#    y 0.000000 2.350900 0.000000 
#    z 0.000000 0.000000 2.296440 
# 
# From -- ./inp_files/4736.got.cif
#   From: 2010.05.17/outbox.cif.g08.bks.cpg/sg84_3_cif.got.tgz:4736.got - 2010.06.03 18:57:40.
