data_PCOD9544729
_publ_section_title
;
Structure prediction by ZEFSAII (Michael W. Deem and Ramdas Pophale) SiO2 
 PCOD9544729
Probable space group: P 4/N
;
_chemical_formula_sum "Si O2"
_cell_formula_units_Z 32
_cell_length_a 12.540730
_cell_length_b 12.540730
_cell_length_c 9.780896
_cell_angle_alpha 90.000000
_cell_angle_beta 90.000000
_cell_angle_gamma 90.000000
_cell_volume 1538.240623
_symmetry_space_group_name_H-M "P 4/N"
_symmetry_group_IT_number 85
_symmetry_cell_setting 'tetragonal'
loop_
_space_group_symop_operation_xyz
x,y,z
1/2-y,x,z
1/2-x,1/2-y,z
y,1/2-x,z
-x,-y,-z
1/2+y,-x,-z
1/2+x,1/2+y,-z
-y,1/2+x,-z
loop_
_atom_site_type_symbol
_atom_site_label
_atom_site_fract_x
_atom_site_fract_y
_atom_site_fract_z
Si Si1 0.232553 0.878089 0.328200
Si Si2 0.909087 0.669366 0.164188
Si Si3 0.902328 0.045880 0.415449
Si Si4 0.831119 0.095049 0.962216
O O1 0.250000 0.750000 0.314099
O O2 0.349463 0.929900 0.327054
O O3 0.180209 0.911131 0.470853
O O4 0.160798 0.914709 0.201155
O O5 0.887923 0.795665 0.151106
O O6 0.960427 0.646161 0.311914
O O7 0.993319 0.634305 0.048921
O O8 0.000000 0.000000 0.500000
O O9 0.704871 0.113750 0.992056
#
# Coordination Sequence:
#
# PCOD9544729 Si02
#       4
#     8   8   8   8
#     4  12  22  41  65  97 132 165 220 285 327 382
#     4  11  26  46  64  93 140 181 216 272 344 406
#     4  12  24  39  67  96 129 173 224 273 336 394
#     4  11  22  39  68  98 127 167 221 277 322 394
#
# _framework density 20.802987000000002
#
# number of rings (size 3 to 8) (size 9 to 14) (size 15 to 20)
#    0.000    0.500    7.500    1.500    3.500    3.000 
#    0.000    0.000    0.000    3.000    0.000    0.000 
#    0.000    0.000    0.000    0.000    0.000    0.000 
#
# Total GULP energy -179034.976391 kJ/mol
# GULP energy per Si atom -5594.843012 kJ/mol
# Density = 2.075564 g / cm^3
# Si number density = 20.802987 Si / 1000 Ang^3
#
#
#
# Elastic Constant Matrix: (Units=GPa)
#
#
# Indices 1 2 3 4 5 6 
#
# 1 77.6333 19.0200 13.0596 0.0000 0.0000 -3.2388
# 2 19.0200 77.6333 13.0596 0.0000 0.0000 3.2388
# 3 13.0596 13.0596 105.4607 0.0000 0.0000 0.0000
# 4 0.0000 0.0000 0.0000 28.6580 0.0000 0.0000
# 5 0.0000 0.0000 0.0000 0.0000 28.6580 0.0000
# 6 -3.2388 3.2388 0.0000 0.0000 0.0000 15.2623
#
#
#
# Elastic Compliance Matrix: (Units=1/GPa)
#
#
# Indices 1 2 3 4 5 6 
#
# 1 0.014088 -0.003383 -0.001326 0.000000 0.000000 0.003707
# 2 -0.003383 0.014088 -0.001326 0.000000 0.000000 -0.003707
# 3 -0.001326 -0.001326 0.009811 0.000000 0.000000 0.000000
# 4 0.000000 0.000000 0.000000 0.034894 0.000000 0.000000
# 5 0.000000 0.000000 0.000000 0.000000 0.034894 0.000000
# 6 0.003707 -0.003707 0.000000 0.000000 0.000000 0.067094
#
#
# Mechanical properties :
#
#
# Convention : Reuss Voigt Hill
#
# Bulk Modulus (GPa) = 38.58448 39.00064 38.79256
# Shear Modulus (GPa) = 25.56546 28.88817 27.22682
#
# Velocity S-wave (km/s) = 3.50942 3.73051 3.62165
# Velocity P-wave (km/s) = 5.91685 6.11097 6.01469
#
# Compressibility (1/GPa) = 0.02591715
#
# Stress axis : x y z
#
# Youngs Moduli (GPa) = 70.98446 70.98446 101.93148
#
# Poissons Ratio (x) = 0.24015 0.13512
# Poissons Ratio (y) = 0.24015 0.13512
# Poissons Ratio (z) = 0.09410 0.09410
#
# Static dielectric constant tensor:
#      x y z
#    x 1.767170 0.000000 0.000000 
#    y 0.000000 1.767170 0.000000 
#    z 0.000000 0.000000 1.766050 
# 
# From -- ./inp_files/1409.got.cif
#   From: 2010.05.17/outbox.cif.g08.bks.cpg/sg85_cif.got.tgz:1409.got - 2010.06.03 19:01:16.
