data_PCOD9544267
_publ_section_title
;
Structure prediction by ZEFSAII (Michael W. Deem and Ramdas Pophale) SiO2 
 PCOD9544267
Probable space group: P 42/M
;
_chemical_formula_sum "Si O2"
_cell_formula_units_Z 48
_cell_length_a 9.518975
_cell_length_b 9.518975
_cell_length_c 27.523163
_cell_angle_alpha 90.000000
_cell_angle_beta 90.000000
_cell_angle_gamma 90.000000
_cell_volume 2493.898159
_symmetry_space_group_name_H-M "P 42/M"
_symmetry_group_IT_number 84
_symmetry_cell_setting 'tetragonal'
loop_
_space_group_symop_operation_xyz
x,y,z
-y,x,1/2+z
-x,-y,z
y,-x,1/2+z
-x,-y,-z
y,-x,1/2-z
x,y,-z
-y,x,1/2-z
loop_
_atom_site_type_symbol
_atom_site_label
_atom_site_fract_x
_atom_site_fract_y
_atom_site_fract_z
Si Si1 0.864218 0.409033 0.794683
Si Si2 0.061609 0.845766 0.053459
Si Si3 0.423467 0.647796 0.641775
Si Si4 0.134734 0.897477 0.843372
Si Si5 0.404726 0.862435 0.443989
Si Si6 0.618069 0.893618 0.180054
O O1 0.731716 0.490940 0.816715
O O2 0.875799 0.247788 0.813206
O O3 0.859903 0.411391 0.736464
O O4 0.000000 0.500000 0.810467
O O5 0.159905 0.847471 0.100697
O O6 0.927214 0.748917 0.064316
O O7 0.118978 0.802243 0.000000
O O8 0.000000 0.000000 0.048937
O O9 0.500000 0.500000 0.635633
O O10 0.437404 0.741688 0.593594
O O11 0.257372 0.633048 0.654211
O O12 0.248952 0.004195 0.822904
O O13 0.000000 0.000000 0.843738
O O14 0.418084 0.817485 0.500000
O O15 0.500000 0.000000 0.436701
O O16 0.500000 0.000000 0.160046
#
# Coordination Sequence:
#
# PCOD9544267 Si02
#       6
#     8   8   8   8   8   8
#     4  11  25  41  63  89 124 171 220 268 329 394
#     4   9  17  32  58  88 119 156 197 253 318 377
#     4  12  25  41  66  91 129 175 216 267 335 402
#     4  11  22  38  63  92 125 160 215 269 319 375
#     4  10  21  40  66  98 129 164 216 272 323 386
#     4  11  27  42  60  90 127 170 217 273 321 395
#
# _framework density 19.246976
#
# number of rings (size 3 to 8) (size 9 to 14) (size 15 to 20)
#    0.000    1.333    0.000    6.500    9.333    0.333 
#    0.000    0.000    0.000    4.000    0.000    0.000 
#    0.000    0.000    0.000    0.000    0.000    0.000 
#
# Total GULP energy -267829.833415 kJ/mol
# GULP energy per Si atom -5579.788196 kJ/mol
# Density = 1.920317 g / cm^3
# Si number density = 19.246976 Si / 1000 Ang^3
#
#
#
# Elastic Constant Matrix: (Units=GPa)
#
#
# Indices 1 2 3 4 5 6 
#
# 1 110.1364 67.1300 27.2664 0.0000 0.0000 -5.8226
# 2 67.1300 110.1364 27.2664 0.0000 0.0000 5.8226
# 3 27.2664 27.2664 76.5228 0.0000 0.0000 0.0000
# 4 0.0000 0.0000 0.0000 -20.5427 0.0000 0.0000
# 5 0.0000 0.0000 0.0000 0.0000 -20.5427 0.0000
# 6 -5.8226 5.8226 0.0000 0.0000 0.0000 32.9644
#
#
#
# Elastic Compliance Matrix: (Units=1/GPa)
#
#
# Indices 1 2 3 4 5 6 
#
# 1 0.015378 -0.009042 -0.002258 0.000000 0.000000 0.004313
# 2 -0.009042 0.015378 -0.002258 0.000000 0.000000 -0.004313
# 3 -0.002258 -0.002258 0.014677 0.000000 0.000000 0.000000
# 4 0.000000 0.000000 0.000000 -0.048679 0.000000 0.000000
# 5 0.000000 0.000000 0.000000 0.000000 -0.048679 0.000000
# 6 0.004313 -0.004313 0.000000 0.000000 0.000000 0.031860
#
#
# Mechanical properties :
#
#
# Convention : Reuss Voigt Hill
#
# Bulk Modulus (GPa) = 54.59075 60.01345 57.30210
# Shear Modulus (GPa) = 380.08342 10.05132 195.06737
#
# Velocity S-wave (km/s) = 14.06789 2.28771 10.07818
# Velocity P-wave (km/s) = 17.09676 6.18276 12.85546
#
# Compressibility (1/GPa) = 0.01831812
#
# Stress axis : x y z
#
# Youngs Moduli (GPa) = 65.02777 65.02777 68.13485
#
# Poissons Ratio (x) = 0.58800 0.15382
# Poissons Ratio (y) = 0.58800 0.15382
# Poissons Ratio (z) = 0.14680 0.14680
#
# Static dielectric constant tensor:
#      x y z
#    x 1.385210 0.000000 0.000000 
#    y 0.000000 1.385210 0.000000 
#    z 0.000000 0.000000 1.718330 
# 
# From -- ./inp_files/5803.got.cif
#   From: 2010.05.17/outbox.cif.g08.bks.cpg/sg84_3_cif.got.tgz:5803.got - 2010.06.03 18:57:40.
