data_PCOD9544465
_publ_section_title
;
Structure prediction by ZEFSAII (Michael W. Deem and Ramdas Pophale) SiO2 
 PCOD9544465
Probable space group: P 42/M
;
_chemical_formula_sum "Si O2"
_cell_formula_units_Z 20
_cell_length_a 5.264336
_cell_length_b 5.264336
_cell_length_c 28.446047
_cell_angle_alpha 90.000000
_cell_angle_beta 90.000000
_cell_angle_gamma 90.000000
_cell_volume 788.331943
_symmetry_space_group_name_H-M "P 42/M"
_symmetry_group_IT_number 84
_symmetry_cell_setting 'tetragonal'
loop_
_space_group_symop_operation_xyz
x,y,z
-y,x,1/2+z
-x,-y,z
y,-x,1/2+z
-x,-y,-z
y,-x,1/2-z
x,y,-z
-y,x,1/2-z
loop_
_atom_site_type_symbol
_atom_site_label
_atom_site_fract_x
_atom_site_fract_y
_atom_site_fract_z
Si Si1 0.744383 0.838790 0.070087
Si Si2 0.745215 0.668954 0.822508
Si Si3 0.500000 0.000000 0.500000
Si Si4 0.000000 0.000000 0.750000
O O1 0.724342 0.784053 0.125345
O O2 0.795346 0.586117 0.041030
O O3 0.500000 0.000000 0.055536
O O4 0.000000 0.000000 0.059575
O O5 0.500000 0.500000 0.812998
O O6 0.000000 0.500000 0.821779
O O7 0.787401 0.884667 0.783936
#
# Coordination Sequence:
#
# PCOD9544465 Si02
#       4
#     8   8   2   2
#     4  12  27  51  80 116 165 215 279 348 424 517
#     4  12  29  53  83 120 167 222 279 355 437 519
#     4  12  28  50  80 124 158 224 278 348 436 506
#     4  12  32  52  84 122 164 216 288 360 416 526
#
# _framework density 25.370021000000001
#
# number of rings (size 3 to 8) (size 9 to 14) (size 15 to 20)
#    0.000    0.000    4.000    3.600    5.600    1.600 
#    0.000    0.000    0.000    0.000    0.000    0.000 
#    0.000    0.000    0.000    0.000    0.000    0.000 
#
# Total GULP energy -111868.414638 kJ/mol
# GULP energy per Si atom -5593.420732 kJ/mol
# Density = 2.531228 g / cm^3
# Si number density = 25.370021 Si / 1000 Ang^3
#
#
#
# Elastic Constant Matrix: (Units=GPa)
#
#
# Indices 1 2 3 4 5 6 
#
# 1 156.4727 77.7225 39.6921 0.0000 0.0000 6.2152
# 2 77.7225 156.4727 39.6921 0.0000 0.0000 -6.2152
# 3 39.6921 39.6921 217.2791 0.0000 0.0000 0.0000
# 4 0.0000 0.0000 0.0000 -64.7956 0.0000 0.0000
# 5 0.0000 0.0000 0.0000 0.0000 -64.7956 0.0000
# 6 6.2152 -6.2152 0.0000 0.0000 0.0000 70.8681
#
#
#
# Elastic Compliance Matrix: (Units=1/GPa)
#
#
# Indices 1 2 3 4 5 6 
#
# 1 0.008714 -0.004162 -0.000832 0.000000 0.000000 -0.001129
# 2 -0.004162 0.008714 -0.000832 0.000000 0.000000 0.001129
# 3 -0.000832 -0.000832 0.004906 0.000000 0.000000 0.000000
# 4 0.000000 0.000000 0.000000 -0.015433 0.000000 0.000000
# 5 0.000000 0.000000 0.000000 0.000000 -0.015433 0.000000
# 6 -0.001129 0.001129 0.000000 0.000000 0.000000 0.014309
#
#
# Mechanical properties :
#
#
# Convention : Reuss Voigt Hill
#
# Bulk Modulus (GPa) = 93.60042 93.82646 93.71344
# Shear Modulus (GPa) = 238.21773 13.12992 125.67382
#
# Velocity S-wave (km/s) = 9.70058 2.27741 7.04584
# Velocity P-wave (km/s) = 12.74529 6.63166 10.15927
#
# Compressibility (1/GPa) = 0.01068371
#
# Stress axis : x y z
#
# Youngs Moduli (GPa) = 114.75507 114.75507 203.82479
#
# Poissons Ratio (x) = 0.47766 0.16948
# Poissons Ratio (y) = 0.47766 0.16948
# Poissons Ratio (z) = 0.09542 0.09542
#
# Static dielectric constant tensor:
#      x y z
#    x 2.075370 0.000000 0.000000 
#    y 0.000000 2.075370 0.000000 
#    z 0.000000 0.000000 1.938260 
# 
# From -- ./inp_files/5196.got.cif
#   From: 2010.05.17/outbox.cif.g08.bks.cpg/sg84_3_cif.got.tgz:5196.got - 2010.06.03 18:57:40.
