data_PCOD9544337
_publ_section_title
;
Structure prediction by ZEFSAII (Michael W. Deem and Ramdas Pophale) SiO2 
 PCOD9544337
Probable space group: P 42/M
;
_chemical_formula_sum "Si O2"
_cell_formula_units_Z 34
_cell_length_a 12.982658
_cell_length_b 12.982658
_cell_length_c 10.539380
_cell_angle_alpha 90.000000
_cell_angle_beta 90.000000
_cell_angle_gamma 90.000000
_cell_volume 1776.406268
_symmetry_space_group_name_H-M "P 42/M"
_symmetry_group_IT_number 84
_symmetry_cell_setting 'tetragonal'
loop_
_space_group_symop_operation_xyz
x,y,z
-y,x,1/2+z
-x,-y,z
y,-x,1/2+z
-x,-y,-z
y,-x,1/2-z
x,y,-z
-y,x,1/2-z
loop_
_atom_site_type_symbol
_atom_site_label
_atom_site_fract_x
_atom_site_fract_y
_atom_site_fract_z
Si Si1 0.765456 0.194261 0.248953
Si Si2 0.707396 0.408745 0.353414
Si Si3 0.897393 0.563484 0.349253
Si Si4 0.879564 0.126010 0.000000
Si Si5 0.500000 0.500000 0.250000
Si Si6 0.115483 0.873846 0.500000
O O1 0.723680 0.310036 0.264704
O O2 0.667233 0.119729 0.229574
O O3 0.830510 0.168235 0.373807
O O4 0.835305 0.179515 0.125217
O O5 0.714705 0.375085 0.500000
O O6 0.798652 0.490209 0.330696
O O7 0.597324 0.460612 0.330089
O O8 0.902272 0.589711 0.500000
O O9 0.000000 0.500000 0.317249
O O10 0.002816 0.126494 0.000000
O O11 0.847329 0.005559 0.000000
#
# Coordination Sequence:
#
# PCOD9544337 Si02
#       6
#     8   8   8   4   2   4
#     4  12  23  43  70  99 130 176 224 275 337 400
#     4  11  24  42  65  98 131 173 219 280 332 398
#     4  10  23  41  66  96 132 175 222 268 338 408
#     4  11  26  44  67  98 131 183 222 269 341 411
#     4  12  22  44  68  90 132 178 228 272 338 410
#     4  11  26  44  67  96 139 171 224 285 331 399
#
# _framework density 19.139766000000002
#
# number of rings (size 3 to 8) (size 9 to 14) (size 15 to 20)
#    0.000    0.941    4.706    1.765    6.588    1.882 
#    2.118    1.765    0.000    0.000    0.000    0.000 
#    0.000    0.000    0.000    0.000    0.000    0.000 
#
# Total GULP energy -190119.847193 kJ/mol
# GULP energy per Si atom -5591.760212 kJ/mol
# Density = 1.909620 g / cm^3
# Si number density = 19.139766 Si / 1000 Ang^3
#
#
#
# Elastic Constant Matrix: (Units=GPa)
#
#
# Indices 1 2 3 4 5 6 
#
# 1 100.0357 33.1406 39.4603 0.0000 0.0000 -0.9670
# 2 33.1406 100.0357 39.4603 0.0000 0.0000 0.9670
# 3 39.4603 39.4603 111.4294 0.0000 0.0000 0.0000
# 4 0.0000 0.0000 0.0000 26.1856 0.0000 0.0000
# 5 0.0000 0.0000 0.0000 0.0000 26.1856 0.0000
# 6 -0.9670 0.9670 0.0000 0.0000 0.0000 28.9035
#
#
#
# Elastic Compliance Matrix: (Units=1/GPa)
#
#
# Indices 1 2 3 4 5 6 
#
# 1 0.012233 -0.002730 -0.003365 0.000000 0.000000 0.000501
# 2 -0.002730 0.012233 -0.003365 0.000000 0.000000 -0.000501
# 3 -0.003365 -0.003365 0.011358 0.000000 0.000000 0.000000
# 4 0.000000 0.000000 0.000000 0.038189 0.000000 0.000000
# 5 0.000000 0.000000 0.000000 0.000000 0.038189 0.000000
# 6 0.000501 -0.000501 0.000000 0.000000 0.000000 0.034631
#
#
# Mechanical properties :
#
#
# Convention : Reuss Voigt Hill
#
# Bulk Modulus (GPa) = 59.16191 59.51371 59.33781
# Shear Modulus (GPa) = 29.17337 29.55091 29.36214
#
# Velocity S-wave (km/s) = 3.90837 3.93358 3.92100
# Velocity P-wave (km/s) = 7.16552 7.19670 7.18113
#
# Compressibility (1/GPa) = 0.01690277
#
# Stress axis : x y z
#
# Youngs Moduli (GPa) = 81.74469 81.74469 88.04510
#
# Poissons Ratio (x) = 0.22317 0.29630
# Poissons Ratio (y) = 0.22317 0.29630
# Poissons Ratio (z) = 0.27510 0.27510
#
# Static dielectric constant tensor:
#      x y z
#    x 1.655610 0.000000 0.000000 
#    y 0.000000 1.655610 0.000000 
#    z 0.000000 0.000000 1.632000 
# 
# From -- ./inp_files/1983.got.cif
#   From: 2010.05.17/outbox.cif.g08.bks.cpg/sg84_1_cif.got.tgz:1983.got - 2010.06.03 18:57:40.
