data_PCOD9544759
_publ_section_title
;
Structure prediction by ZEFSAII (Michael W. Deem and Ramdas Pophale) SiO2 
 PCOD9544759
Probable space group: P 4/N
;
_chemical_formula_sum "Si O2"
_cell_formula_units_Z 42
_cell_length_a 8.515549
_cell_length_b 8.515549
_cell_length_c 28.587924
_cell_angle_alpha 90.000000
_cell_angle_beta 90.000000
_cell_angle_gamma 90.000000
_cell_volume 2073.041152
_symmetry_space_group_name_H-M "P 4/N"
_symmetry_group_IT_number 85
_symmetry_cell_setting 'tetragonal'
loop_
_space_group_symop_operation_xyz
x,y,z
1/2-y,x,z
1/2-x,1/2-y,z
y,1/2-x,z
-x,-y,-z
1/2+y,-x,-z
1/2+x,1/2+y,-z
-y,1/2+x,-z
loop_
_atom_site_type_symbol
_atom_site_label
_atom_site_fract_x
_atom_site_fract_y
_atom_site_fract_z
Si Si1 0.671008 0.496768 0.572612
Si Si2 0.076410 0.052201 0.048145
Si Si3 0.505329 0.654257 0.238975
Si Si4 0.609034 0.522407 0.850579
Si Si5 0.833388 0.001187 0.677930
Si Si6 0.250000 0.750000 0.500000
O O1 0.849995 0.561246 0.568171
O O2 0.647329 0.433916 0.625379
O O3 0.651486 0.364749 0.533688
O O4 0.263823 0.038078 0.048562
O O5 0.040854 0.973467 0.098331
O O6 0.000000 0.000000 0.000000
O O7 0.665503 0.553942 0.242950
O O8 0.437511 0.599104 0.189315
O O9 0.387165 0.611622 0.280530
O O10 0.798410 0.543768 0.846311
O O11 0.655602 0.940156 0.681904
#
# Coordination Sequence:
#
# PCOD9544759 Si02
#       6
#     8   8   8   8   8   2
#     4   9  20  37  55  81 114 145 183 226 267 320
#     4   9  19  35  54  78 108 141 179 224 269 316
#     4  11  24  37  51  79 114 140 170 220 276 324
#     4   9  19  37  58  78 103 140 185 224 263 319
#     4   9  19  37  59  79 103 140 183 222 262 317
#     4  12  20  32  60  88 112 148 184 224 276 322
#
# _framework density 20.260092
#
# number of rings (size 3 to 8) (size 9 to 14) (size 15 to 20)
#    0.000    2.476    0.000    4.000    0.000    9.524 
#    0.000    5.714    0.000    2.286    0.000    0.000 
#    0.000    0.000    0.000    0.000    0.000    0.000 
#
# Total GULP energy -234282.799892 kJ/mol
# GULP energy per Si atom -5578.161902 kJ/mol
# Density = 2.021398 g / cm^3
# Si number density = 20.260092 Si / 1000 Ang^3
#
#
#
# Elastic Constant Matrix: (Units=GPa)
#
#
# Indices 1 2 3 4 5 6 
#
# 1 33.4861 9.7962 41.2339 0.0000 0.0000 -0.8161
# 2 9.7962 33.4861 41.2339 0.0000 0.0000 0.8161
# 3 41.2339 41.2339 173.8945 0.0000 0.0000 0.0000
# 4 0.0000 0.0000 0.0000 23.7149 0.0000 0.0000
# 5 0.0000 0.0000 0.0000 0.0000 23.7149 0.0000
# 6 -0.8161 0.8161 0.0000 0.0000 0.0000 26.3905
#
#
#
# Elastic Compliance Matrix: (Units=1/GPa)
#
#
# Indices 1 2 3 4 5 6 
#
# 1 0.042224 -0.000079 -0.009993 0.000000 0.000000 0.001308
# 2 -0.000079 0.042224 -0.009993 0.000000 0.000000 -0.001308
# 3 -0.009993 -0.009993 0.010490 0.000000 0.000000 0.000000
# 4 0.000000 0.000000 0.000000 0.042168 0.000000 0.000000
# 5 0.000000 0.000000 0.000000 0.000000 0.042168 0.000000
# 6 0.001308 -0.001308 0.000000 0.000000 0.000000 0.037973
#
#
# Mechanical properties :
#
#
# Convention : Reuss Voigt Hill
#
# Bulk Modulus (GPa) = 18.24610 47.26609 32.75609
# Shear Modulus (GPa) = 18.13926 24.67091 21.40509
#
# Velocity S-wave (km/s) = 2.99544 3.49336 3.25393
# Velocity P-wave (km/s) = 4.58137 6.29696 5.50639
#
# Compressibility (1/GPa) = 0.05480623
#
# Stress axis : x y z
#
# Youngs Moduli (GPa) = 23.68342 23.68342 95.32972
#
# Poissons Ratio (x) = 0.00186 0.95267
# Poissons Ratio (y) = 0.00186 0.95267
# Poissons Ratio (z) = 0.23668 0.23668
#
# Static dielectric constant tensor:
#      x y z
#    x 1.752310 0.000000 0.000000 
#    y 0.000000 1.752310 0.000000 
#    z 0.000000 0.000000 1.753240 
# 
# From -- ./inp_files/2380.got.cif
#   From: 2010.05.17/outbox.cif.g08.bks.cpg/sg85_cif.got.tgz:2380.got - 2010.06.03 19:01:16.
