data_PCOD9544789
_publ_section_title
;
Structure prediction by ZEFSAII (Michael W. Deem and Ramdas Pophale) SiO2 
 PCOD9544789
Probable space group: P 4/N
;
_chemical_formula_sum "Si O2"
_cell_formula_units_Z 34
_cell_length_a 8.756725
_cell_length_b 8.756725
_cell_length_c 20.148616
_cell_angle_alpha 90.000000
_cell_angle_beta 90.000000
_cell_angle_gamma 90.000000
_cell_volume 1545.000564
_symmetry_space_group_name_H-M "P 4/N"
_symmetry_group_IT_number 85
_symmetry_cell_setting 'tetragonal'
loop_
_space_group_symop_operation_xyz
x,y,z
1/2-y,x,z
1/2-x,1/2-y,z
y,1/2-x,z
-x,-y,-z
1/2+y,-x,-z
1/2+x,1/2+y,-z
-y,1/2+x,-z
loop_
_atom_site_type_symbol
_atom_site_label
_atom_site_fract_x
_atom_site_fract_y
_atom_site_fract_z
Si Si1 0.641842 0.078329 0.969774
Si Si2 0.750000 0.250000 0.500000
Si Si3 0.177630 0.500296 0.392456
Si Si4 0.995110 0.665210 0.277384
Si Si5 0.329242 0.015452 0.178129
O O1 0.685850 0.004791 0.901114
O O2 0.588944 0.251668 0.964827
O O3 0.500000 0.000000 0.000000
O O4 0.613344 0.321040 0.455687
O O5 0.068269 0.350181 0.390358
O O6 0.113996 0.606919 0.333159
O O7 0.937014 0.839642 0.282162
O O8 0.088172 0.629683 0.209923
O O9 0.435707 0.159194 0.198933
#
# Coordination Sequence:
#
# PCOD9544789 Si02
#       5
#     8   2   8   8   8
#     4  11  24  41  63  94 128 171 216 274 340 407
#     4  12  24  44  72 108 144 188 226 284 332 408
#     4  11  24  44  71 105 142 185 230 278 339 402
#     4  11  26  45  68 100 136 178 227 286 344 405
#     4  11  24  43  67  95 129 173 223 280 345 413
#
# _framework density 22.006464999999999
#
# number of rings (size 3 to 8) (size 9 to 14) (size 15 to 20)
#    0.000    0.941    2.353    3.529    3.294    5.176 
#    0.000    2.353    0.000    0.000    0.000    0.000 
#    0.000    0.000    0.000    0.000    0.000    0.000 
#
# Total GULP energy -189467.808270 kJ/mol
# GULP energy per Si atom -5572.582596 kJ/mol
# Density = 2.195638 g / cm^3
# Si number density = 22.006465 Si / 1000 Ang^3
#
#
#
# Elastic Constant Matrix: (Units=GPa)
#
#
# Indices 1 2 3 4 5 6 
#
# 1 91.1897 42.3357 29.7372 0.0000 0.0000 0.3778
# 2 42.3357 91.1897 29.7372 0.0000 0.0000 -0.3778
# 3 29.7372 29.7372 87.3996 0.0000 0.0000 0.0000
# 4 0.0000 0.0000 0.0000 40.0237 0.0000 0.0000
# 5 0.0000 0.0000 0.0000 0.0000 40.0237 0.0000
# 6 0.3778 -0.3778 0.0000 0.0000 0.0000 42.3133
#
#
#
# Elastic Compliance Matrix: (Units=1/GPa)
#
#
# Indices 1 2 3 4 5 6 
#
# 1 0.014649 -0.005823 -0.003003 0.000000 0.000000 -0.000183
# 2 -0.005823 0.014649 -0.003003 0.000000 0.000000 0.000183
# 3 -0.003003 -0.003003 0.013485 0.000000 0.000000 0.000000
# 4 0.000000 0.000000 0.000000 0.024985 0.000000 0.000000
# 5 0.000000 0.000000 0.000000 0.000000 0.024985 0.000000
# 6 -0.000183 0.000183 0.000000 0.000000 0.000000 0.023636
#
#
# Mechanical properties :
#
#
# Convention : Reuss Voigt Hill
#
# Bulk Modulus (GPa) = 52.28471 52.59988 52.44229
# Shear Modulus (GPa) = 34.14723 35.67010 34.90867
#
# Velocity S-wave (km/s) = 3.94342 4.03040 3.98715
# Velocity P-wave (km/s) = 6.67417 6.75372 6.71406
#
# Compressibility (1/GPa) = 0.01912605
#
# Stress axis : x y z
#
# Youngs Moduli (GPa) = 68.26192 68.26192 74.15425
#
# Poissons Ratio (x) = 0.39746 0.22271
# Poissons Ratio (y) = 0.39746 0.22271
# Poissons Ratio (z) = 0.20501 0.20501
#
# Static dielectric constant tensor:
#      x y z
#    x 1.732570 0.000000 0.000000 
#    y 0.000000 1.732570 0.000000 
#    z 0.000000 0.000000 1.788830 
# 
# From -- ./inp_files/2183.got.cif
#   From: 2010.05.17/outbox.cif.g08.bks.cpg/sg85_cif.got.tgz:2183.got - 2010.06.03 19:01:16.
