data_PCOD9544360
_publ_section_title
;
Structure prediction by ZEFSAII (Michael W. Deem and Ramdas Pophale) SiO2 
 PCOD9544360
Probable space group: P 42/M
;
_chemical_formula_sum "Si O2"
_cell_formula_units_Z 32
_cell_length_a 8.520453
_cell_length_b 8.520453
_cell_length_c 22.018045
_cell_angle_alpha 90.000000
_cell_angle_beta 90.000000
_cell_angle_gamma 90.000000
_cell_volume 1598.468658
_symmetry_space_group_name_H-M "P 42/M"
_symmetry_group_IT_number 84
_symmetry_cell_setting 'tetragonal'
loop_
_space_group_symop_operation_xyz
x,y,z
-y,x,1/2+z
-x,-y,z
y,-x,1/2+z
-x,-y,-z
y,-x,1/2-z
x,y,-z
-y,x,1/2-z
loop_
_atom_site_type_symbol
_atom_site_label
_atom_site_fract_x
_atom_site_fract_y
_atom_site_fract_z
Si Si1 0.596605 0.836404 0.429511
Si Si2 0.662905 0.885244 0.770641
Si Si3 0.885602 0.856177 0.341157
Si Si4 0.551954 0.318961 0.681023
O O1 0.607724 0.794306 0.500000
O O2 0.766161 0.839358 0.396888
O O3 0.501658 0.720247 0.386306
O O4 0.500000 0.000000 0.425099
O O5 0.786912 0.910943 0.717338
O O6 0.520155 0.811392 0.728687
O O7 0.697443 0.735764 0.811810
O O8 0.694941 0.029813 0.817267
O O9 0.000000 0.000000 0.355053
O O10 0.500000 0.500000 0.691577
#
# Coordination Sequence:
#
# PCOD9544360 Si02
#       4
#     8   8   8   8
#     4  10  24  43  64  86 117 169 216 252 302 370
#     4  11  19  36  56  93 128 154 196 254 326 371
#     4  11  21  35  58  91 124 155 196 261 317 372
#     4  11  22  39  60  92 127 162 202 253 315 382
#
# _framework density 20.019161
#
# number of rings (size 3 to 8) (size 9 to 14) (size 15 to 20)
#    0.000    1.250    5.000    1.500    3.500    1.000 
#    0.000    1.250    0.000    1.500    0.000    0.000 
#    0.000    0.000    0.000    0.000    0.000    0.000 
#
# Total GULP energy -178190.012543 kJ/mol
# GULP energy per Si atom -5568.437892 kJ/mol
# Density = 1.997360 g / cm^3
# Si number density = 20.019161 Si / 1000 Ang^3
#
#
#
# Elastic Constant Matrix: (Units=GPa)
#
#
# Indices 1 2 3 4 5 6 
#
# 1 63.7185 21.9870 65.9433 0.0000 0.0000 -5.5555
# 2 21.9870 63.7185 65.9433 0.0000 0.0000 5.5555
# 3 65.9433 65.9433 192.5285 0.0000 0.0000 0.0000
# 4 0.0000 0.0000 0.0000 102.3917 0.0000 0.0000
# 5 0.0000 0.0000 0.0000 0.0000 102.3917 0.0000
# 6 -5.5555 5.5555 0.0000 0.0000 0.0000 27.7788
#
#
#
# Elastic Compliance Matrix: (Units=1/GPa)
#
#
# Indices 1 2 3 4 5 6 
#
# 1 0.024991 -0.000320 -0.008450 0.000000 0.000000 0.005062
# 2 -0.000320 0.024991 -0.008450 0.000000 0.000000 -0.005062
# 3 -0.008450 -0.008450 0.010983 0.000000 0.000000 0.000000
# 4 0.000000 0.000000 0.000000 0.009766 0.000000 0.000000
# 5 0.000000 0.000000 0.000000 0.000000 0.009766 0.000000
# 6 0.005062 -0.005062 0.000000 0.000000 0.000000 0.038023
#
#
# Mechanical properties :
#
#
# Convention : Reuss Voigt Hill
#
# Bulk Modulus (GPa) = 37.70104 69.74586 53.72345
# Shear Modulus (GPa) = 30.90188 57.58521 44.24354
#
# Velocity S-wave (km/s) = 3.93315 5.36912 4.70623
# Velocity P-wave (km/s) = 6.28487 8.56457 7.51170
#
# Compressibility (1/GPa) = 0.02652447
#
# Stress axis : x y z
#
# Youngs Moduli (GPa) = 40.01448 40.01448 91.05261
#
# Poissons Ratio (x) = 0.01279 0.76942
# Poissons Ratio (y) = 0.01279 0.76942
# Poissons Ratio (z) = 0.33813 0.33813
#
# Static dielectric constant tensor:
#      x y z
#    x 1.499280 0.000000 0.000000 
#    y 0.000000 1.499280 0.000000 
#    z 0.000000 0.000000 1.666690 
# 
# From -- ./inp_files/4095.got.cif
#   From: 2010.05.17/outbox.cif.g08.bks.cpg/sg84_3_cif.got.tgz:4095.got - 2010.06.03 18:57:40.
