data_PCOD9544579
_publ_section_title
;
Structure prediction by ZEFSAII (Michael W. Deem and Ramdas Pophale) SiO2 
 PCOD9544579
Probable space group: P 4/N
;
_chemical_formula_sum "Si O2"
_cell_formula_units_Z 44
_cell_length_a 14.013238
_cell_length_b 14.013238
_cell_length_c 11.429495
_cell_angle_alpha 90.000000
_cell_angle_beta 90.000000
_cell_angle_gamma 90.000000
_cell_volume 2244.419525
_symmetry_space_group_name_H-M "P 4/N"
_symmetry_group_IT_number 85
_symmetry_cell_setting 'tetragonal'
loop_
_space_group_symop_operation_xyz
x,y,z
1/2-y,x,z
1/2-x,1/2-y,z
y,1/2-x,z
-x,-y,-z
1/2+y,-x,-z
1/2+x,1/2+y,-z
-y,1/2+x,-z
loop_
_atom_site_type_symbol
_atom_site_label
_atom_site_fract_x
_atom_site_fract_y
_atom_site_fract_z
Si Si1 0.648348 0.007408 0.269367
Si Si2 0.750000 0.750000 0.471525
Si Si3 0.205792 0.404240 0.957510
Si Si4 0.840509 0.951946 0.407614
Si Si5 0.750000 0.250000 0.500000
Si Si6 0.407461 0.276980 0.228210
Si Si7 0.195059 0.931557 0.372092
O O1 0.672844 0.981126 0.135947
O O2 0.749218 0.994560 0.337761
O O3 0.574922 0.929074 0.323768
O O4 0.604937 0.111978 0.286358
O O5 0.807769 0.851195 0.461189
O O6 0.137264 0.312332 0.938171
O O7 0.207083 0.435040 0.092819
O O8 0.858110 0.020059 0.517517
O O9 0.657466 0.252856 0.420433
O O10 0.324843 0.354462 0.247754
O O11 0.496290 0.269426 0.312857
#
# Coordination Sequence:
#
# PCOD9544579 Si02
#       7
#     8   2   8   8   2   8   8
#     4  11  20  36  62  93 122 168 213 261 309 373
#     4   8  20  32  56  96 122 144 200 272 316 350
#     4   9  17  36  65  94 124 154 204 267 331 368
#     4  10  21  34  59  95 126 158 208 266 316 370
#     4  12  28  48  56  82 132 184 212 252 306 408
#     4   9  22  42  67  97 126 161 206 278 331 370
#     4  12  25  41  59  86 130 173 214 251 321 387
#
# _framework density 19.604177
#
# number of rings (size 3 to 8) (size 9 to 14) (size 15 to 20)
#    0.000    1.818    3.636    1.636    5.091    1.455 
#    0.000    5.455    0.000    0.000    0.000    0.000 
#    0.000    0.000    0.000    0.000    0.000    0.000 
#
# Total GULP energy -245123.202262 kJ/mol
# GULP energy per Si atom -5570.981870 kJ/mol
# Density = 1.955956 g / cm^3
# Si number density = 19.604177 Si / 1000 Ang^3
#
#
#
# Elastic Constant Matrix: (Units=GPa)
#
#
# Indices 1 2 3 4 5 6 
#
# 1 62.5630 -8.4981 31.4281 0.0000 0.0000 -2.8684
# 2 -8.4981 62.5630 31.4281 0.0000 0.0000 2.8684
# 3 31.4281 31.4281 89.7731 0.0000 0.0000 0.0000
# 4 0.0000 0.0000 0.0000 21.5174 0.0000 0.0000
# 5 0.0000 0.0000 0.0000 0.0000 21.5174 0.0000
# 6 -2.8684 2.8684 0.0000 0.0000 0.0000 9.0966
#
#
#
# Elastic Compliance Matrix: (Units=1/GPa)
#
#
# Indices 1 2 3 4 5 6 
#
# 1 0.022816 0.008376 -0.010920 0.000000 0.000000 0.004553
# 2 0.008376 0.022816 -0.010920 0.000000 0.000000 -0.004553
# 3 -0.010920 -0.010920 0.018785 0.000000 0.000000 0.000000
# 4 0.000000 0.000000 0.000000 0.046474 0.000000 0.000000
# 5 0.000000 0.000000 0.000000 0.000000 0.046474 0.000000
# 6 0.004553 -0.004553 0.000000 0.000000 0.000000 0.112803
#
#
# Mechanical properties :
#
#
# Convention : Reuss Voigt Hill
#
# Bulk Modulus (GPa) = 26.67430 35.95724 31.31577
# Shear Modulus (GPa) = 16.15037 21.12902 18.63969
#
# Velocity S-wave (km/s) = 2.87335 3.28652 3.08685
# Velocity P-wave (km/s) = 4.96428 5.72565 5.35851
#
# Compressibility (1/GPa) = 0.03748927
#
# Stress axis : x y z
#
# Youngs Moduli (GPa) = 43.82931 43.82931 53.23455
#
# Poissons Ratio (x) = -0.36710 0.58130
# Poissons Ratio (y) = -0.36710 0.58130
# Poissons Ratio (z) = 0.47860 0.47860
#
# Static dielectric constant tensor:
#      x y z
#    x 1.672450 0.000000 0.000000 
#    y 0.000000 1.672450 0.000000 
#    z 0.000000 0.000000 1.719320 
# 
# From -- ./inp_files/1616.got.cif
#   From: 2010.05.17/outbox.cif.g08.bks.cpg/sg85_cif.got.tgz:1616.got - 2010.06.03 19:01:16.
