data_PCOD9544719
_publ_section_title
;
Structure prediction by ZEFSAII (Michael W. Deem and Ramdas Pophale) SiO2 
 PCOD9544719
Probable space group: P 4/N
;
_chemical_formula_sum "Si O2"
_cell_formula_units_Z 56
_cell_length_a 14.731771
_cell_length_b 14.731771
_cell_length_c 12.725272
_cell_angle_alpha 90.000000
_cell_angle_beta 90.000000
_cell_angle_gamma 90.000000
_cell_volume 2761.703133
_symmetry_space_group_name_H-M "P 4/N"
_symmetry_group_IT_number 85
_symmetry_cell_setting 'tetragonal'
loop_
_space_group_symop_operation_xyz
x,y,z
1/2-y,x,z
1/2-x,1/2-y,z
y,1/2-x,z
-x,-y,-z
1/2+y,-x,-z
1/2+x,1/2+y,-z
-y,1/2+x,-z
loop_
_atom_site_type_symbol
_atom_site_label
_atom_site_fract_x
_atom_site_fract_y
_atom_site_fract_z
Si Si1 0.386775 0.192479 0.538225
Si Si2 0.885394 0.679470 0.876760
Si Si3 0.906557 0.928023 0.667729
Si Si4 0.620964 0.097740 0.385842
Si Si5 0.035124 0.698337 0.295183
Si Si6 0.310754 0.921543 0.374203
Si Si7 0.691539 0.608031 0.116305
O O1 0.363836 0.296598 0.564420
O O2 0.402541 0.171456 0.416221
O O3 0.474614 0.168908 0.604412
O O4 0.866948 0.786481 0.865443
O O5 0.941353 0.635814 0.782610
O O6 0.919243 0.670324 0.996039
O O7 0.981380 0.849320 0.662588
O O8 0.948130 0.022957 0.627974
O O9 0.694928 0.056112 0.307403
O O10 0.601072 0.204579 0.366447
O O11 0.661647 0.087231 0.502767
O O12 0.130884 0.649157 0.306462
O O13 0.973268 0.673490 0.196117
O O14 0.797546 0.636755 0.131752
#
# Coordination Sequence:
#
# PCOD9544719 Si02
#       7
#     8   8   8   8   8   8   8
#     4  11  22  35  56  92 131 159 194 263 335 382
#     4   9  18  37  65  93 125 162 202 257 329 393
#     4  12  23  38  63  96 124 163 216 272 321 390
#     4  12  24  42  61  88 132 175 213 264 323 387
#     4  12  24  37  63  88 127 171 218 259 312 386
#     4  12  25  40  62  91 127 178 222 256 317 395
#     4   9  20  39  66  96 128 166 208 265 332 386
#
# _framework density 20.277342999999998
#
# number of rings (size 3 to 8) (size 9 to 14) (size 15 to 20)
#    0.000    1.000    2.857    6.000    4.000    2.286 
#    0.000    0.714    3.143    0.000    0.000    0.000 
#    0.000    0.000    0.000    0.000    0.000    0.000 
#
# Total GULP energy -313000.764037 kJ/mol
# GULP energy per Si atom -5589.299358 kJ/mol
# Density = 2.023119 g / cm^3
# Si number density = 20.277343 Si / 1000 Ang^3
#
#
#
# Elastic Constant Matrix: (Units=GPa)
#
#
# Indices 1 2 3 4 5 6 
#
# 1 82.8051 12.2327 28.2162 0.0000 0.0000 6.8257
# 2 12.2327 82.8051 28.2162 0.0000 0.0000 -6.8257
# 3 28.2162 28.2162 103.2267 0.0000 0.0000 0.0000
# 4 0.0000 0.0000 0.0000 21.2977 0.0000 0.0000
# 5 0.0000 0.0000 0.0000 0.0000 21.2977 0.0000
# 6 6.8257 -6.8257 0.0000 0.0000 0.0000 13.5516
#
#
#
# Elastic Compliance Matrix: (Units=1/GPa)
#
#
# Indices 1 2 3 4 5 6 
#
# 1 0.014130 -0.001569 -0.003433 0.000000 0.000000 -0.007908
# 2 -0.001569 0.014130 -0.003433 0.000000 0.000000 0.007908
# 3 -0.003433 -0.003433 0.011564 0.000000 0.000000 0.000000
# 4 0.000000 0.000000 0.000000 0.046954 0.000000 0.000000
# 5 0.000000 0.000000 0.000000 0.000000 0.046954 0.000000
# 6 -0.007908 0.007908 0.000000 0.000000 0.000000 0.081758
#
#
# Mechanical properties :
#
#
# Convention : Reuss Voigt Hill
#
# Bulk Modulus (GPa) = 43.56831 45.12970 44.34900
# Shear Modulus (GPa) = 20.83222 24.57415 22.70319
#
# Velocity S-wave (km/s) = 3.20873 3.48502 3.34972
# Velocity P-wave (km/s) = 5.93808 6.20470 6.07285
#
# Compressibility (1/GPa) = 0.02295246
#
# Stress axis : x y z
#
# Youngs Moduli (GPa) = 70.77058 70.77058 86.47217
#
# Poissons Ratio (x) = 0.11106 0.29689
# Poissons Ratio (y) = 0.11106 0.29689
# Poissons Ratio (z) = 0.24298 0.24298
#
# Static dielectric constant tensor:
#      x y z
#    x 1.748460 0.000000 0.000000 
#    y 0.000000 1.748460 0.000000 
#    z 0.000000 0.000000 1.718370 
# 
# From -- ./inp_files/1730.got.cif
#   From: 2010.05.17/outbox.cif.g08.bks.cpg/sg85_cif.got.tgz:1730.got - 2010.06.03 19:01:16.
