data_PCOD9544344
_publ_section_title
;
Structure prediction by ZEFSAII (Michael W. Deem and Ramdas Pophale) SiO2 
 PCOD9544344
Probable space group: P 42/M
;
_chemical_formula_sum "Si O2"
_cell_formula_units_Z 48
_cell_length_a 8.747634
_cell_length_b 8.747634
_cell_length_c 28.379570
_cell_angle_alpha 90.000000
_cell_angle_beta 90.000000
_cell_angle_gamma 90.000000
_cell_volume 2171.635931
_symmetry_space_group_name_H-M "P 42/M"
_symmetry_group_IT_number 84
_symmetry_cell_setting 'tetragonal'
loop_
_space_group_symop_operation_xyz
x,y,z
-y,x,1/2+z
-x,-y,z
y,-x,1/2+z
-x,-y,-z
y,-x,1/2-z
x,y,-z
-y,x,1/2-z
loop_
_atom_site_type_symbol
_atom_site_label
_atom_site_fract_x
_atom_site_fract_y
_atom_site_fract_z
Si Si1 0.831023 0.844296 0.948962
Si Si2 0.019588 0.676553 0.284404
Si Si3 0.054241 0.177232 0.815123
Si Si4 0.111348 0.688477 0.094137
Si Si5 0.331586 0.929832 0.115422
Si Si6 0.672010 0.535478 0.054393
O O1 0.794211 0.955153 0.906053
O O2 0.699617 0.716623 0.947315
O O3 0.994081 0.762578 0.942793
O O4 0.823919 0.921961 0.000000
O O5 0.998891 0.762344 0.235559
O O6 0.904049 0.687335 0.328666
O O7 0.000000 0.500000 0.272151
O O8 0.166491 0.759742 0.309149
O O9 0.976775 0.276310 0.856573
O O10 0.000000 0.000000 0.819466
O O11 0.177792 0.522435 0.082893
O O12 0.275859 0.775154 0.091939
O O13 0.500000 0.000000 0.107424
O O14 0.500000 0.500000 0.071588
O O15 0.683957 0.478291 0.000000
#
# Coordination Sequence:
#
# PCOD9544344 Si02
#       6
#     8   8   8   8   8   8
#     4  11  23  39  61  91 124 165 214 264 317 391
#     4  11  22  38  66  93 122 162 209 262 317 387
#     4  12  20  41  66  91 124 166 214 261 323 393
#     4  12  22  38  64  94 123 167 214 268 321 387
#     4  11  23  39  60  92 126 161 208 265 327 383
#     4  10  23  43  63  88 128 174 215 265 330 394
#
# _framework density 22.103152999999999
#
# number of rings (size 3 to 8) (size 9 to 14) (size 15 to 20)
#    0.000    0.833    5.000    2.500    0.000    5.000 
#    0.000    0.000    0.000    0.500    0.000    0.000 
#    0.000    0.000    0.000    0.000    0.000    0.000 
#
# Total GULP energy -267297.982641 kJ/mol
# GULP energy per Si atom -5568.707972 kJ/mol
# Density = 2.205285 g / cm^3
# Si number density = 22.103153 Si / 1000 Ang^3
#
#
#
# Elastic Constant Matrix: (Units=GPa)
#
#
# Indices 1 2 3 4 5 6 
#
# 1 90.0538 13.9413 29.6320 0.0000 0.0000 -2.1918
# 2 13.9413 90.0538 29.6320 0.0000 0.0000 2.1918
# 3 29.6320 29.6320 118.7979 0.0000 0.0000 0.0000
# 4 0.0000 0.0000 0.0000 27.3181 0.0000 0.0000
# 5 0.0000 0.0000 0.0000 0.0000 27.3181 0.0000
# 6 -2.1918 2.1918 0.0000 0.0000 0.0000 35.9342
#
#
#
# Elastic Compliance Matrix: (Units=1/GPa)
#
#
# Indices 1 2 3 4 5 6 
#
# 1 0.012197 -0.000988 -0.002796 0.000000 0.000000 0.000804
# 2 -0.000988 0.012197 -0.002796 0.000000 0.000000 -0.000804
# 3 -0.002796 -0.002796 0.009812 0.000000 0.000000 0.000000
# 4 0.000000 0.000000 0.000000 0.036606 0.000000 0.000000
# 5 0.000000 0.000000 0.000000 0.000000 0.036606 0.000000
# 6 0.000804 -0.000804 0.000000 0.000000 0.000000 0.027927
#
#
# Mechanical properties :
#
#
# Convention : Reuss Voigt Hill
#
# Bulk Modulus (GPa) = 47.51258 49.47959 48.49608
# Shear Modulus (GPa) = 32.15031 33.16078 32.65555
#
# Velocity S-wave (km/s) = 3.81800 3.87754 3.84789
# Velocity P-wave (km/s) = 6.40146 6.51778 6.45988
#
# Compressibility (1/GPa) = 0.02104706
#
# Stress axis : x y z
#
# Youngs Moduli (GPa) = 81.98766 81.98766 101.91141
#
# Poissons Ratio (x) = 0.08099 0.28494
# Poissons Ratio (y) = 0.08099 0.28494
# Poissons Ratio (z) = 0.22923 0.22923
#
# Static dielectric constant tensor:
#      x y z
#    x 1.895760 0.000000 0.000000 
#    y 0.000000 1.895760 0.000000 
#    z 0.000000 0.000000 1.832650 
# 
# From -- ./inp_files/5819.got.cif
#   From: 2010.05.17/outbox.cif.g08.bks.cpg/sg84_3_cif.got.tgz:5819.got - 2010.06.03 18:57:40.
