data_PCOD9544733
_publ_section_title
;
Structure prediction by ZEFSAII (Michael W. Deem and Ramdas Pophale) SiO2 
 PCOD9544733
Probable space group: P 4/N
;
_chemical_formula_sum "Si O2"
_cell_formula_units_Z 60
_cell_length_a 11.847802
_cell_length_b 11.847802
_cell_length_c 19.888686
_cell_angle_alpha 90.000000
_cell_angle_beta 90.000000
_cell_angle_gamma 90.000000
_cell_volume 2791.783053
_symmetry_space_group_name_H-M "P 4/N"
_symmetry_group_IT_number 85
_symmetry_cell_setting 'tetragonal'
loop_
_space_group_symop_operation_xyz
x,y,z
1/2-y,x,z
1/2-x,1/2-y,z
y,1/2-x,z
-x,-y,-z
1/2+y,-x,-z
1/2+x,1/2+y,-z
-y,1/2+x,-z
loop_
_atom_site_type_symbol
_atom_site_label
_atom_site_fract_x
_atom_site_fract_y
_atom_site_fract_z
Si Si1 0.580748 0.662249 0.741606
Si Si2 0.425659 0.324847 0.997687
Si Si3 0.072668 0.823526 0.870555
Si Si4 0.691164 0.034065 0.279009
Si Si5 0.750000 0.250000 0.334556
Si Si6 0.324924 0.925158 0.867357
Si Si7 0.570090 0.488241 0.349836
Si Si8 0.846154 0.124078 0.460977
O O1 0.703738 0.604092 0.741081
O O2 0.505329 0.641289 0.807817
O O3 0.512751 0.607890 0.679772
O O4 0.308063 0.392354 0.999351
O O5 0.496239 0.349480 0.930618
O O6 0.503778 0.349058 0.061828
O O7 0.193580 0.885533 0.869224
O O8 0.101272 0.689295 0.868603
O O9 0.681053 0.169375 0.286583
O O10 0.661324 0.007858 0.202728
O O11 0.817224 0.006974 0.303099
O O12 0.607032 0.986199 0.333313
O O13 0.822276 0.179361 0.387587
O O14 0.586504 0.479861 0.430855
O O15 0.724461 0.100800 0.494797
#
# Coordination Sequence:
#
# PCOD9544733 Si02
#       8
#     8   8   8   8   4   8   8   8
#     4  11  24  41  66 101 136 172 225 295 364 413
#     4  11  26  43  59  84 126 176 226 288 359 425
#     4  11  22  42  65  92 121 167 229 294 348 418
#     4  11  23  39  63 101 134 186 228 280 351 423
#     4   8  17  36  64  88 129 168 224 276 314 399
#     4  11  24  38  63  92 128 167 226 285 349 427
#     4  11  24  40  69  99 141 184 225 283 342 414
#     4   8  17  38  65  99 138 174 227 269 323 393
#
# _framework density 21.491641999999999
#
# number of rings (size 3 to 8) (size 9 to 14) (size 15 to 20)
#    0.000    1.733    1.333    3.200    7.467    5.600 
#    0.000    6.000    0.000    0.000    0.000    0.000 
#    0.000    0.000    0.000    0.000    0.000    0.000 
#
# Total GULP energy -335048.357657 kJ/mol
# GULP energy per Si atom -5584.139294 kJ/mol
# Density = 2.144273 g / cm^3
# Si number density = 21.491642 Si / 1000 Ang^3
#
#
#
# Elastic Constant Matrix: (Units=GPa)
#
#
# Indices 1 2 3 4 5 6 
#
# 1 73.6983 12.7679 27.4704 0.0000 0.0000 -4.4523
# 2 12.7679 73.6983 27.4704 0.0000 0.0000 4.4523
# 3 27.4704 27.4704 104.3427 0.0000 0.0000 0.0000
# 4 0.0000 0.0000 0.0000 32.0034 0.0000 0.0000
# 5 0.0000 0.0000 0.0000 0.0000 32.0034 0.0000
# 6 -4.4523 4.4523 0.0000 0.0000 0.0000 6.5741
#
#
#
# Elastic Compliance Matrix: (Units=1/GPa)
#
#
# Indices 1 2 3 4 5 6 
#
# 1 0.016052 -0.002163 -0.003656 0.000000 0.000000 0.012336
# 2 -0.002163 0.016052 -0.003656 0.000000 0.000000 -0.012336
# 3 -0.003656 -0.003656 0.011509 0.000000 0.000000 0.000000
# 4 0.000000 0.000000 0.000000 0.031247 0.000000 0.000000
# 5 0.000000 0.000000 0.000000 0.000000 0.031247 0.000000
# 6 0.012336 -0.012336 0.000000 0.000000 0.000000 0.168820
#
#
# Mechanical properties :
#
#
# Convention : Reuss Voigt Hill
#
# Bulk Modulus (GPa) = 40.55093 43.01740 41.78416
# Shear Modulus (GPa) = 16.55090 26.38491 21.46790
#
# Velocity S-wave (km/s) = 2.77809 3.50763 3.16396
# Velocity P-wave (km/s) = 5.40367 6.03854 5.72990
#
# Compressibility (1/GPa) = 0.02466035
#
# Stress axis : x y z
#
# Youngs Moduli (GPa) = 62.29853 62.29853 86.88792
#
# Poissons Ratio (x) = 0.13477 0.31770
# Poissons Ratio (y) = 0.13477 0.31770
# Poissons Ratio (z) = 0.22779 0.22779
#
# Static dielectric constant tensor:
#      x y z
#    x 1.854830 0.000000 0.000000 
#    y 0.000000 1.854830 0.000000 
#    z 0.000000 0.000000 1.751650 
# 
# From -- ./inp_files/2285.got.cif
#   From: 2010.05.17/outbox.cif.g08.bks.cpg/sg85_cif.got.tgz:2285.got - 2010.06.03 19:01:16.
