data_PCOD9544631
_publ_section_title
;
Structure prediction by ZEFSAII (Michael W. Deem and Ramdas Pophale) SiO2 
 PCOD9544631
Probable space group: P 4/N
;
_chemical_formula_sum "Si O2"
_cell_formula_units_Z 60
_cell_length_a 12.241366
_cell_length_b 12.241366
_cell_length_c 19.842026
_cell_angle_alpha 90.000000
_cell_angle_beta 90.000000
_cell_angle_gamma 90.000000
_cell_volume 2973.348262
_symmetry_space_group_name_H-M "P 4/N"
_symmetry_group_IT_number 85
_symmetry_cell_setting 'tetragonal'
loop_
_space_group_symop_operation_xyz
x,y,z
1/2-y,x,z
1/2-x,1/2-y,z
y,1/2-x,z
-x,-y,-z
1/2+y,-x,-z
1/2+x,1/2+y,-z
-y,1/2+x,-z
loop_
_atom_site_type_symbol
_atom_site_label
_atom_site_fract_x
_atom_site_fract_y
_atom_site_fract_z
Si Si1 0.920863 0.261251 0.476802
Si Si2 0.663377 0.585927 0.887859
Si Si3 0.250000 0.750000 0.768132
Si Si4 0.482901 0.550443 0.215368
Si Si5 0.456909 0.797197 0.163275
Si Si6 0.733627 0.928721 0.406344
Si Si7 0.075739 0.691560 0.008776
Si Si8 0.113137 0.619941 0.661097
O O1 0.848534 0.151074 0.479686
O O2 0.930072 0.313972 0.403129
O O3 0.032104 0.238049 0.515975
O O4 0.794032 0.607900 0.884749
O O5 0.604863 0.515008 0.829762
O O6 0.649440 0.514049 0.955807
O O7 0.312043 0.669566 0.818134
O O8 0.163559 0.698646 0.716985
O O9 0.480366 0.677630 0.192968
O O10 0.605716 0.516544 0.200439
O O11 0.453134 0.533030 0.293755
O O12 0.472857 0.805289 0.083775
O O13 0.635345 0.844760 0.392402
O O14 0.707368 0.038114 0.365277
O O15 0.116949 0.814989 0.992515
#
# Coordination Sequence:
#
# PCOD9544631 Si02
#       8
#     8   8   4   8   8   8   8   8
#     4   9  18  38  63  92 120 160 211 267 314 384
#     4  11  26  46  68  98 137 177 228 289 354 407
#     4  10  22  42  62  92 130 170 218 270 322 390
#     4  11  26  44  65  98 135 183 220 278 342 406
#     4  11  25  42  66  97 133 172 223 285 336 407
#     4  10  22  39  60  92 132 164 204 265 331 385
#     4  11  22  39  70  98 125 173 226 282 343 408
#     4  10  22  38  64  93 122 176 213 261 323 399
#
# _framework density 20.179272000000001
#
# number of rings (size 3 to 8) (size 9 to 14) (size 15 to 20)
#    0.000    1.600    1.333    3.200   11.200    3.467 
#    2.400    0.000    0.000    1.600    0.000    0.000 
#    0.000    0.000    0.000    0.000    0.000    0.000 
#
# Total GULP energy -334830.970539 kJ/mol
# GULP energy per Si atom -5580.516176 kJ/mol
# Density = 2.013334 g / cm^3
# Si number density = 20.179272 Si / 1000 Ang^3
#
#
#
# Elastic Constant Matrix: (Units=GPa)
#
#
# Indices 1 2 3 4 5 6 
#
# 1 69.5735 21.9888 25.9540 0.0000 0.0000 -0.2054
# 2 21.9888 69.5735 25.9540 0.0000 0.0000 0.2054
# 3 25.9540 25.9540 125.6119 0.0000 0.0000 0.0000
# 4 0.0000 0.0000 0.0000 -44.8121 0.0000 0.0000
# 5 0.0000 0.0000 0.0000 0.0000 -44.8121 0.0000
# 6 -0.2054 0.2054 0.0000 0.0000 0.0000 15.5310
#
#
#
# Elastic Compliance Matrix: (Units=1/GPa)
#
#
# Indices 1 2 3 4 5 6 
#
# 1 0.016694 -0.004323 -0.002556 0.000000 0.000000 0.000278
# 2 -0.004323 0.016694 -0.002556 0.000000 0.000000 -0.000278
# 3 -0.002556 -0.002556 0.009017 0.000000 0.000000 0.000000
# 4 0.000000 0.000000 0.000000 -0.022315 0.000000 0.000000
# 5 0.000000 0.000000 0.000000 0.000000 -0.022315 0.000000
# 6 0.000278 -0.000278 0.000000 0.000000 0.000000 0.064395
#
#
# Mechanical properties :
#
#
# Convention : Reuss Voigt Hill
#
# Bulk Modulus (GPa) = 42.49106 45.83917 44.16512
# Shear Modulus (GPa) = 56.25239 -2.09451 27.07894
#
# Velocity S-wave (km/s) = 5.28553 -1.01990 3.66719
# Velocity P-wave (km/s) = 7.63882 4.62367 6.31387
#
# Compressibility (1/GPa) = 0.02353436
#
# Stress axis : x y z
#
# Youngs Moduli (GPa) = 59.90151 59.90151 110.89810
#
# Poissons Ratio (x) = 0.25898 0.28346
# Poissons Ratio (y) = 0.25898 0.28346
# Poissons Ratio (z) = 0.15311 0.15311
#
# Static dielectric constant tensor:
#      x y z
#    x 1.679190 0.000000 0.000000 
#    y 0.000000 1.679190 0.000000 
#    z 0.000000 0.000000 1.722500 
# 
# From -- ./inp_files/2269.got.cif
#   From: 2010.05.17/outbox.cif.g08.bks.cpg/sg85_cif.got.tgz:2269.got - 2010.06.03 19:01:16.
