data_PCOD9544823
_publ_section_title
;
Structure prediction by ZEFSAII (Michael W. Deem and Ramdas Pophale) SiO2 
 PCOD9544823
Probable space group: P 4/N
;
_chemical_formula_sum "Si O2"
_cell_formula_units_Z 50
_cell_length_a 8.864604
_cell_length_b 8.864604
_cell_length_c 31.832760
_cell_angle_alpha 90.000000
_cell_angle_beta 90.000000
_cell_angle_gamma 90.000000
_cell_volume 2501.456610
_symmetry_space_group_name_H-M "P 4/N"
_symmetry_group_IT_number 85
_symmetry_cell_setting 'tetragonal'
loop_
_space_group_symop_operation_xyz
x,y,z
1/2-y,x,z
1/2-x,1/2-y,z
y,1/2-x,z
-x,-y,-z
1/2+y,-x,-z
1/2+x,1/2+y,-z
-y,1/2+x,-z
loop_
_atom_site_type_symbol
_atom_site_label
_atom_site_fract_x
_atom_site_fract_y
_atom_site_fract_z
Si Si1 0.437300 0.079479 0.540988
Si Si2 0.029601 0.125835 0.287153
Si Si3 0.250000 0.250000 0.794326
Si Si4 0.167513 0.914878 0.795409
Si Si5 0.583081 0.558212 0.041661
Si Si6 0.457962 0.100655 0.633453
Si Si7 0.609187 0.960840 0.876376
O O1 0.454103 0.259514 0.539864
O O2 0.504159 0.042256 0.586983
O O3 0.500000 0.000000 0.500000
O O4 0.194811 0.052054 0.285448
O O5 0.927978 0.085012 0.247497
O O6 0.957275 0.064820 0.329994
O O7 0.436131 0.271176 0.794412
O O8 0.250000 0.750000 0.797890
O O9 0.060940 0.929096 0.836173
O O10 0.764046 0.545845 0.042552
O O11 0.528812 0.463225 0.081664
O O12 0.500000 0.500000 0.000000
O O13 0.451464 0.282971 0.637022
O O14 0.549222 0.790115 0.875661
#
# Coordination Sequence:
#
# PCOD9544823 Si02
#       7
#     8   8   2   8   8   8   8
#     4   9  19  37  58  86 122 163 213 274 339 412
#     4  11  25  43  63  94 136 176 223 284 357 422
#     4  12  28  44  76 104 136 184 248 280 352 444
#     4  12  28  47  72 107 142 185 240 299 361 425
#     4  11  26  45  70 103 142 184 238 293 349 431
#     4   9  21  39  62  89 122 168 225 281 342 420
#     4  11  25  45  71 102 142 185 232 293 361 422
#
# _framework density 19.988354999999999
#
# number of rings (size 3 to 8) (size 9 to 14) (size 15 to 20)
#    0.000    1.440    0.000    4.800    8.960    5.760 
#    0.000    4.800    0.000    0.000    0.000    0.000 
#    0.000    0.000    0.000    0.000    0.000    0.000 
#
# Total GULP energy -278765.471725 kJ/mol
# GULP energy per Si atom -5575.309435 kJ/mol
# Density = 1.994286 g / cm^3
# Si number density = 19.988355 Si / 1000 Ang^3
#
#
#
# Elastic Constant Matrix: (Units=GPa)
#
#
# Indices 1 2 3 4 5 6 
#
# 1 66.4459 83.0453 73.9744 0.0000 0.0000 12.7938
# 2 83.0453 66.4459 73.9744 0.0000 0.0000 -12.7938
# 3 73.9744 73.9744 213.8333 0.0000 0.0000 0.0000
# 4 0.0000 0.0000 0.0000 37.3935 0.0000 0.0000
# 5 0.0000 0.0000 0.0000 0.0000 37.3935 0.0000
# 6 12.7938 -12.7938 0.0000 0.0000 0.0000 26.7214
#
#
#
# Elastic Compliance Matrix: (Units=1/GPa)
#
#
# Indices 1 2 3 4 5 6 
#
# 1 -0.012245 0.022417 -0.003519 0.000000 0.000000 0.016595
# 2 0.022417 -0.012245 -0.003519 0.000000 0.000000 -0.016595
# 3 -0.003519 -0.003519 0.007111 0.000000 0.000000 0.000000
# 4 0.000000 0.000000 0.000000 0.026743 0.000000 0.000000
# 5 0.000000 0.000000 0.000000 0.000000 0.026743 0.000000
# 6 0.016595 -0.016595 0.000000 0.000000 0.000000 0.021532
#
#
# Mechanical properties :
#
#
# Convention : Reuss Voigt Hill
#
# Bulk Modulus (GPa) = 74.74136 89.85704 82.29920
# Shear Modulus (GPa) = 159.53631 28.01709 93.77670
#
# Velocity S-wave (km/s) = 8.94360 3.74795 6.85693
# Velocity P-wave (km/s) = 12.00517 7.98635 10.19573
#
# Compressibility (1/GPa) = 0.01337947
#
# Stress axis : x y z
#
# Youngs Moduli (GPa) = -81.66744 -81.66744 140.62209
#
# Poissons Ratio (x) = 1.83072 0.49484
# Poissons Ratio (y) = 1.83072 0.49484
# Poissons Ratio (z) = -0.28738 -0.28738
#
# Static dielectric constant tensor:
#      x y z
#    x 1.718530 0.000000 0.000000 
#    y 0.000000 1.718530 0.000000 
#    z 0.000000 0.000000 1.676510 
# 
# From -- ./inp_files/2478.got.cif
#   From: 2010.05.17/outbox.cif.g08.bks.cpg/sg85_cif.got.tgz:2478.got - 2010.06.03 19:01:16.
