data_PCOD9544334
_publ_section_title
;
Structure prediction by ZEFSAII (Michael W. Deem and Ramdas Pophale) SiO2 
 PCOD9544334
Probable space group: P 42/M
;
_chemical_formula_sum "Si O2"
_cell_formula_units_Z 56
_cell_length_a 14.383365
_cell_length_b 14.383365
_cell_length_c 14.004228
_cell_angle_alpha 90.000000
_cell_angle_beta 90.000000
_cell_angle_gamma 90.000000
_cell_volume 2897.211336
_symmetry_space_group_name_H-M "P 42/M"
_symmetry_group_IT_number 84
_symmetry_cell_setting 'tetragonal'
loop_
_space_group_symop_operation_xyz
x,y,z
-y,x,1/2+z
-x,-y,z
y,-x,1/2+z
-x,-y,-z
y,-x,1/2-z
x,y,-z
-y,x,1/2-z
loop_
_atom_site_type_symbol
_atom_site_label
_atom_site_fract_x
_atom_site_fract_y
_atom_site_fract_z
Si Si1 0.744924 0.604293 0.601325
Si Si2 0.197352 0.730654 0.387406
Si Si3 0.860376 0.684101 0.778783
Si Si4 0.424886 0.338521 0.857673
Si Si5 0.400561 0.044199 0.211131
Si Si6 0.647552 0.467347 0.864602
Si Si7 0.501233 0.862330 0.393710
O O1 0.784251 0.638040 0.500000
O O2 0.791418 0.648326 0.694098
O O3 0.741824 0.492818 0.603564
O O4 0.634034 0.618710 0.602312
O O5 0.184547 0.749398 0.500000
O O6 0.219817 0.822484 0.323603
O O7 0.294231 0.675696 0.370595
O O8 0.118825 0.659696 0.348287
O O9 0.868256 0.605810 0.861336
O O10 0.961502 0.672342 0.731530
O O11 0.413046 0.443734 0.894165
O O12 0.460203 0.351165 0.749997
O O13 0.436670 0.091036 0.310427
O O14 0.500000 0.000000 0.171666
O O15 0.753229 0.479174 0.894403
O O16 0.518456 0.898901 0.500000
#
# Coordination Sequence:
#
# PCOD9544334 Si02
#       7
#     8   8   8   8   8   8   8
#     4  12  24  35  52  77 114 164 213 252 294 353
#     4  12  23  39  64  90 119 156 203 254 314 369
#     4  11  22  41  61  83 121 158 202 257 314 361
#     4  12  20  33  53  76 117 161 204 247 293 352
#     4  10  23  40  62  90 126 164 203 256 308 368
#     4  12  20  33  53  76 116 163 200 244 294 354
#     4  11  20  35  58  84 117 158 204 252 305 362
#
# _framework density 19.328931999999998
#
# number of rings (size 3 to 8) (size 9 to 14) (size 15 to 20)
#    0.000    0.571    7.143    2.571    0.000    6.286 
#    0.000    0.000    0.000    0.429    0.000    1.000 
#    0.000    0.000    0.000    0.000    0.000    0.000 
#
# Total GULP energy -312126.945088 kJ/mol
# GULP energy per Si atom -5573.695448 kJ/mol
# Density = 1.928494 g / cm^3
# Si number density = 19.328932 Si / 1000 Ang^3
#
#
#
# Elastic Constant Matrix: (Units=GPa)
#
#
# Indices 1 2 3 4 5 6 
#
# 1 90.9290 36.5996 29.0196 0.0000 0.0000 -1.9270
# 2 36.5996 90.9290 29.0196 0.0000 0.0000 1.9270
# 3 29.0196 29.0196 135.6083 0.0000 0.0000 0.0000
# 4 0.0000 0.0000 0.0000 -23.4744 0.0000 0.0000
# 5 0.0000 0.0000 0.0000 0.0000 -23.4744 0.0000
# 6 -1.9270 1.9270 0.0000 0.0000 0.0000 29.8426
#
#
#
# Elastic Compliance Matrix: (Units=1/GPa)
#
#
# Indices 1 2 3 4 5 6 
#
# 1 0.013589 -0.004902 -0.001859 0.000000 0.000000 0.001194
# 2 -0.004902 0.013589 -0.001859 0.000000 0.000000 -0.001194
# 3 -0.001859 -0.001859 0.008170 0.000000 0.000000 0.000000
# 4 0.000000 0.000000 0.000000 -0.042600 0.000000 0.000000
# 5 0.000000 0.000000 0.000000 0.000000 -0.042600 0.000000
# 6 0.001194 -0.001194 0.000000 0.000000 0.000000 0.033663
#
#
# Mechanical properties :
#
#
# Convention : Reuss Voigt Hill
#
# Bulk Modulus (GPa) = 55.22283 56.30488 55.76385
# Shear Modulus (GPa) = 705.38316 11.43393 358.40855
#
# Velocity S-wave (km/s) = 19.12403 2.43481 13.63189
# Velocity P-wave (km/s) = 22.72158 6.09077 16.63382
#
# Compressibility (1/GPa) = 0.01810845
#
# Stress axis : x y z
#
# Youngs Moduli (GPa) = 73.58794 73.58794 122.40129
#
# Poissons Ratio (x) = 0.36071 0.22755
# Poissons Ratio (y) = 0.36071 0.22755
# Poissons Ratio (z) = 0.13681 0.13681
#
# Static dielectric constant tensor:
#      x y z
#    x 1.717610 0.000000 0.000000 
#    y 0.000000 1.717610 0.000000 
#    z 0.000000 0.000000 1.820220 
# 
# From -- ./inp_files/3145.got.cif
#   From: 2010.05.17/outbox.cif.g08.bks.cpg/sg84_2_cif.got.tgz:3145.got - 2010.06.03 18:57:40.
