data_PCOD9544577
_publ_section_title
;
Structure prediction by ZEFSAII (Michael W. Deem and Ramdas Pophale) SiO2 
 PCOD9544577
Probable space group: P 4/N
;
_chemical_formula_sum "Si O2"
_cell_formula_units_Z 48
_cell_length_a 21.926020
_cell_length_b 21.926020
_cell_length_c 5.440223
_cell_angle_alpha 90.000000
_cell_angle_beta 90.000000
_cell_angle_gamma 90.000000
_cell_volume 2615.389128
_symmetry_space_group_name_H-M "P 4/N"
_symmetry_group_IT_number 85
_symmetry_cell_setting 'tetragonal'
loop_
_space_group_symop_operation_xyz
x,y,z
1/2-y,x,z
1/2-x,1/2-y,z
y,1/2-x,z
-x,-y,-z
1/2+y,-x,-z
1/2+x,1/2+y,-z
-y,1/2+x,-z
loop_
_atom_site_type_symbol
_atom_site_label
_atom_site_fract_x
_atom_site_fract_y
_atom_site_fract_z
Si Si1 0.258018 0.842479 0.076497
Si Si2 0.486620 0.836356 0.422559
Si Si3 0.855740 0.384209 0.556750
Si Si4 0.485187 0.601806 0.948365
Si Si5 0.508312 0.906662 0.906050
Si Si6 0.218665 0.537994 0.819169
O O1 0.301317 0.848633 0.310085
O O2 0.302127 0.802274 0.897248
O O3 0.246185 0.912037 0.989352
O O4 0.413841 0.841420 0.473826
O O5 0.514262 0.860925 0.676486
O O6 0.496975 0.766569 0.347620
O O7 0.504878 0.875414 0.177551
O O8 0.881368 0.438494 0.730948
O O9 0.825690 0.418070 0.332026
O O10 0.544321 0.562408 0.887180
O O11 0.445392 0.554931 0.117439
O O12 0.503012 0.668598 0.046886
#
# Coordination Sequence:
#
# PCOD9544577 Si02
#       6
#     8   8   8   8   8   8
#     4  10  21  33  45  67 104 154 204 239 273 319
#     4  11  23  37  55  79 112 146 186 236 282 332
#     4  10  21  32  51  74 108 145 192 232 280 326
#     4   9  21  36  57  77 105 146 193 235 283 339
#     4  10  22  39  58  79 107 145 193 235 284 334
#     4  11  22  33  53  76 111 151 188 239 283 337
#
# _framework density 18.352910000000001
#
# number of rings (size 3 to 8) (size 9 to 14) (size 15 to 20)
#    0.000    1.833    3.333    0.000    9.333    2.000 
#    0.000    1.667    0.000    0.000    0.000    0.000 
#    0.000    0.667    2.000    0.000    0.000    0.000 
#
# Total GULP energy -267572.856844 kJ/mol
# GULP energy per Si atom -5574.434518 kJ/mol
# Density = 1.831114 g / cm^3
# Si number density = 18.352910 Si / 1000 Ang^3
#
#
#
# Elastic Constant Matrix: (Units=GPa)
#
#
# Indices 1 2 3 4 5 6 
#
# 1 58.5538 35.6595 19.0663 0.0000 0.0000 6.1244
# 2 35.6595 58.5538 19.0663 0.0000 0.0000 -6.1244
# 3 19.0663 19.0663 58.5628 0.0000 0.0000 0.0000
# 4 0.0000 0.0000 0.0000 5.9816 0.0000 0.0000
# 5 0.0000 0.0000 0.0000 0.0000 5.9816 0.0000
# 6 6.1244 -6.1244 0.0000 0.0000 0.0000 18.2970
#
#
#
# Elastic Compliance Matrix: (Units=1/GPa)
#
#
# Indices 1 2 3 4 5 6 
#
# 1 0.032716 -0.020491 -0.003980 0.000000 0.000000 -0.017810
# 2 -0.020491 0.032716 -0.003980 0.000000 0.000000 0.017810
# 3 -0.003980 -0.003980 0.019667 0.000000 0.000000 0.000000
# 4 0.000000 0.000000 0.000000 0.167180 0.000000 0.000000
# 5 0.000000 0.000000 0.000000 0.000000 0.167180 0.000000
# 6 -0.017810 0.017810 0.000000 0.000000 0.000000 0.066576
#
#
# Mechanical properties :
#
#
# Convention : Reuss Voigt Hill
#
# Bulk Modulus (GPa) = 35.46472 35.91720 35.69096
# Shear Modulus (GPa) = 9.05244 12.84392 10.94818
#
# Velocity S-wave (km/s) = 2.22332 2.64830 2.44506
# Velocity P-wave (km/s) = 5.09476 5.38183 5.24026
#
# Compressibility (1/GPa) = 0.02819704
#
# Stress axis : x y z
#
# Youngs Moduli (GPa) = 30.56584 30.56584 50.84577
#
# Poissons Ratio (x) = 0.62633 0.20237
# Poissons Ratio (y) = 0.62633 0.20237
# Poissons Ratio (z) = 0.12166 0.12166
#
# Static dielectric constant tensor:
#      x y z
#    x 1.650090 0.000000 0.000000 
#    y 0.000000 1.650090 0.000000 
#    z 0.000000 0.000000 1.771190 
# 
# From -- ./inp_files/444.got.cif
#   From: 2010.05.17/outbox.cif.g08.bks.cpg/sg85_cif.got.tgz:444.got - 2010.06.03 19:01:16.
