data_PCOD9544766
_publ_section_title
;
Structure prediction by ZEFSAII (Michael W. Deem and Ramdas Pophale) SiO2 
 PCOD9544766
Probable space group: P 4/N
;
_chemical_formula_sum "Si O2"
_cell_formula_units_Z 34
_cell_length_a 8.511284
_cell_length_b 8.511284
_cell_length_c 22.811727
_cell_angle_alpha 90.000000
_cell_angle_beta 90.000000
_cell_angle_gamma 90.000000
_cell_volume 1652.526108
_symmetry_space_group_name_H-M "P 4/N"
_symmetry_group_IT_number 85
_symmetry_cell_setting 'tetragonal'
loop_
_space_group_symop_operation_xyz
x,y,z
1/2-y,x,z
1/2-x,1/2-y,z
y,1/2-x,z
-x,-y,-z
1/2+y,-x,-z
1/2+x,1/2+y,-z
-y,1/2+x,-z
loop_
_atom_site_type_symbol
_atom_site_label
_atom_site_fract_x
_atom_site_fract_y
_atom_site_fract_z
Si Si1 0.332627 0.999009 0.277685
Si Si2 0.912544 0.540346 0.939277
Si Si3 0.855482 0.988888 0.173913
Si Si4 0.004019 0.828802 0.591750
Si Si5 0.750000 0.250000 0.500000
O O1 0.439988 0.155168 0.274522
O O2 0.354077 0.928752 0.342672
O O3 0.383334 0.898807 0.222468
O O4 0.959775 0.723479 0.932954
O O5 0.962953 0.413671 0.890521
O O6 0.000000 0.500000 0.000000
O O7 0.673978 0.948866 0.182075
O O8 0.850289 0.938615 0.586843
O O9 0.133987 0.847399 0.542137
#
# Coordination Sequence:
#
# PCOD9544766 Si02
#       5
#     8   8   8   8   2
#     4   9  19  37  59  81 109 148 193 238 287 347
#     4  11  24  41  62  89 120 155 197 240 284 338
#     4  11  24  39  57  86 120 151 190 240 290 343
#     4   9  20  37  55  81 116 150 190 240 291 353
#     4  12  20  32  60  88 112 152 196 238 300 364
#
# _framework density 20.574560999999999
#
# number of rings (size 3 to 8) (size 9 to 14) (size 15 to 20)
#    0.000    1.882    0.000    4.941    0.000   13.647 
#    0.000    0.000    0.000    2.824    0.000    0.000 
#    0.000    0.000    0.000    0.000    0.000    0.000 
#
# Total GULP energy -189769.714395 kJ/mol
# GULP energy per Si atom -5581.462188 kJ/mol
# Density = 2.052773 g / cm^3
# Si number density = 20.574561 Si / 1000 Ang^3
#
#
#
# Elastic Constant Matrix: (Units=GPa)
#
#
# Indices 1 2 3 4 5 6 
#
# 1 18.9727 28.9304 23.9078 0.0000 0.0000 -7.6209
# 2 28.9304 18.9727 23.9078 0.0000 0.0000 7.6209
# 3 23.9078 23.9078 138.3123 0.0000 0.0000 0.0000
# 4 0.0000 0.0000 0.0000 28.3811 0.0000 0.0000
# 5 0.0000 0.0000 0.0000 0.0000 28.3811 0.0000
# 6 -7.6209 7.6209 0.0000 0.0000 0.0000 25.1011
#
#
#
# Elastic Compliance Matrix: (Units=1/GPa)
#
#
# Indices 1 2 3 4 5 6 
#
# 1 -0.021667 0.046895 -0.004361 0.000000 0.000000 -0.020816
# 2 0.046895 -0.021667 -0.004361 0.000000 0.000000 0.020816
# 3 -0.004361 -0.004361 0.008738 0.000000 0.000000 0.000000
# 4 0.000000 0.000000 0.000000 0.035235 0.000000 0.000000
# 5 0.000000 0.000000 0.000000 0.000000 0.035235 0.000000
# 6 -0.020816 0.020816 0.000000 0.000000 0.000000 0.027199
#
#
# Mechanical properties :
#
#
# Convention : Reuss Voigt Hill
#
# Bulk Modulus (GPa) = 23.95155 36.63886 30.29521
# Shear Modulus (GPa) = 7802.03178 23.00677 3912.51928
#
# Velocity S-wave (km/s) = 61.64665 3.34760 43.65499
# Velocity P-wave (km/s) = 71.26532 5.72612 50.55459
#
# Compressibility (1/GPa) = 0.04175095
#
# Stress axis : x y z
#
# Youngs Moduli (GPa) = -46.15276 -46.15276 114.44819
#
# Poissons Ratio (x) = 2.16436 0.49909
# Poissons Ratio (y) = 2.16436 0.49909
# Poissons Ratio (z) = -0.20126 -0.20126
#
# Static dielectric constant tensor:
#      x y z
#    x 1.777110 0.000000 0.000000 
#    y 0.000000 1.777110 0.000000 
#    z 0.000000 0.000000 1.732510 
# 
# From -- ./inp_files/2169.got.cif
#   From: 2010.05.17/outbox.cif.g08.bks.cpg/sg85_cif.got.tgz:2169.got - 2010.06.03 19:01:16.
