data_PCOD9544004
_publ_section_title
;
Structure prediction by ZEFSAII (Michael W. Deem and Ramdas Pophale) SiO2 
 PCOD9544004
Probable space group: P 42/M
;
_chemical_formula_sum "Si O2"
_cell_formula_units_Z 48
_cell_length_a 18.487027
_cell_length_b 18.487027
_cell_length_c 8.169706
_cell_angle_alpha 90.000000
_cell_angle_beta 90.000000
_cell_angle_gamma 90.000000
_cell_volume 2792.161786
_symmetry_space_group_name_H-M "P 42/M"
_symmetry_group_IT_number 84
_symmetry_cell_setting 'tetragonal'
loop_
_space_group_symop_operation_xyz
x,y,z
-y,x,1/2+z
-x,-y,z
y,-x,1/2+z
-x,-y,-z
y,-x,1/2-z
x,y,-z
-y,x,1/2-z
loop_
_atom_site_type_symbol
_atom_site_label
_atom_site_fract_x
_atom_site_fract_y
_atom_site_fract_z
Si Si1 0.802506 0.693404 0.186876
Si Si2 0.437354 0.312289 0.689810
Si Si3 0.408779 0.685894 0.814247
Si Si4 0.090098 0.425673 0.193387
Si Si5 0.073547 0.584096 0.694915
Si Si6 0.685087 0.798670 0.801005
O O1 0.736962 0.635728 0.194001
O O2 0.866773 0.644350 0.262146
O O3 0.763179 0.766288 0.253886
O O4 0.823805 0.710003 0.000000
O O5 0.458527 0.307115 0.500000
O O6 0.507179 0.301234 0.797338
O O7 0.397037 0.388277 0.719415
O O8 0.375634 0.254554 0.729995
O O9 0.383979 0.701721 0.000000
O O10 0.108511 0.505178 0.265392
O O11 0.004742 0.415074 0.221651
O O12 0.105572 0.429787 0.000000
O O13 0.062893 0.586286 0.500000
O O14 0.122933 0.652651 0.743369
O O15 0.684650 0.794318 0.000000
#
# Coordination Sequence:
#
# PCOD9544004 Si02
#       6
#     8   8   8   8   8   8
#     4   9  18  32  48  65  86 113 144 178 217 261
#     4  10  20  31  43  59  78 104 139 178 219 259
#     4  10  20  31  43  59  78 104 139 178 219 259
#     4  10  19  30  46  67  92 120 149 182 219 262
#     4  10  19  30  46  67  92 120 149 182 219 262
#     4   9  18  32  48  65  86 113 144 178 217 261
#
# _framework density 17.19098
#
# number of rings (size 3 to 8) (size 9 to 14) (size 15 to 20)
#    0.000    2.333    0.000    4.000    0.000    7.667 
#    0.000    1.667    0.000    0.000    0.000    0.000 
#    0.000    0.667    0.000    8.333    0.000    0.000 
#
# Total GULP energy -267218.141428 kJ/mol
# GULP energy per Si atom -5567.044613 kJ/mol
# Density = 1.715185 g / cm^3
# Si number density = 17.190980 Si / 1000 Ang^3
#
#
#
# Elastic Constant Matrix: (Units=GPa)
#
#
# Indices 1 2 3 4 5 6 
#
# 1 63.3412 26.3762 0.6335 0.0000 0.0000 0.5250
# 2 26.3762 63.3412 0.6335 0.0000 0.0000 -0.5250
# 3 0.6335 0.6335 19.8165 0.0000 0.0000 0.0000
# 4 0.0000 0.0000 0.0000 9.4478 0.0000 0.0000
# 5 0.0000 0.0000 0.0000 0.0000 9.4478 0.0000
# 6 0.5250 -0.5250 0.0000 0.0000 0.0000 33.0150
#
#
#
# Elastic Compliance Matrix: (Units=1/GPa)
#
#
# Indices 1 2 3 4 5 6 
#
# 1 0.019108 -0.007957 -0.000356 0.000000 0.000000 -0.000430
# 2 -0.007957 0.019108 -0.000356 0.000000 0.000000 0.000430
# 3 -0.000356 -0.000356 0.050486 0.000000 0.000000 0.000000
# 4 0.000000 0.000000 0.000000 0.105844 0.000000 0.000000
# 5 0.000000 0.000000 0.000000 0.000000 0.105844 0.000000
# 6 -0.000430 0.000430 0.000000 0.000000 0.000000 0.030303
#
#
# Mechanical properties :
#
#
# Convention : Reuss Voigt Hill
#
# Bulk Modulus (GPa) = 14.01300 22.42057 18.21679
# Shear Modulus (GPa) = 13.44735 18.30584 15.87660
#
# Velocity S-wave (km/s) = 2.79988 3.26675 3.04228
# Velocity P-wave (km/s) = 4.31526 5.22487 4.79170
#
# Compressibility (1/GPa) = 0.07136231
#
# Stress axis : x y z
#
# Youngs Moduli (GPa) = 52.33408 52.33408 19.80752
#
# Poissons Ratio (x) = 0.41642 0.00706
# Poissons Ratio (y) = 0.41642 0.00706
# Poissons Ratio (z) = 0.01865 0.01865
#
# Static dielectric constant tensor:
#      x y z
#    x 1.617010 0.000000 0.000000 
#    y 0.000000 1.617010 0.000000 
#    z 0.000000 0.000000 1.606310 
# 
# From -- ./inp_files/1017.got.cif
#   From: 2010.05.17/outbox.cif.g08.bks.cpg/sg84_1_cif.got.tgz:1017.got - 2010.06.03 18:57:40.
