data_PCOD9544103
_publ_section_title
;
Structure prediction by ZEFSAII (Michael W. Deem and Ramdas Pophale) SiO2 
 PCOD9544103
Probable space group: P 42/M
;
_chemical_formula_sum "Si O2"
_cell_formula_units_Z 64
_cell_length_a 14.254951
_cell_length_b 14.254951
_cell_length_c 16.287986
_cell_angle_alpha 90.000000
_cell_angle_beta 90.000000
_cell_angle_gamma 90.000000
_cell_volume 3309.777848
_symmetry_space_group_name_H-M "P 42/M"
_symmetry_group_IT_number 84
_symmetry_cell_setting 'tetragonal'
loop_
_space_group_symop_operation_xyz
x,y,z
-y,x,1/2+z
-x,-y,z
y,-x,1/2+z
-x,-y,-z
y,-x,1/2-z
x,y,-z
-y,x,1/2-z
loop_
_atom_site_type_symbol
_atom_site_label
_atom_site_fract_x
_atom_site_fract_y
_atom_site_fract_z
Si Si1 0.721949 0.938702 0.755508
Si Si2 0.321900 0.815984 0.383432
Si Si3 0.694116 0.681005 0.598207
Si Si4 0.826402 0.334933 0.591731
Si Si5 0.021179 0.610953 0.091358
Si Si6 0.348262 0.533309 0.599443
Si Si7 0.319787 0.493285 0.094516
Si Si8 0.237306 0.844625 0.215557
O O1 0.668815 0.901132 0.836221
O O2 0.806358 0.865891 0.738048
O O3 0.656648 0.935914 0.673757
O O4 0.757129 0.042988 0.778868
O O5 0.228257 0.764490 0.413474
O O6 0.335912 0.921269 0.411866
O O7 0.413444 0.758193 0.407063
O O8 0.310204 0.813428 0.285941
O O9 0.705397 0.686834 0.500000
O O10 0.675547 0.572354 0.623138
O O11 0.591872 0.720610 0.626210
O O12 0.785119 0.727975 0.637681
O O13 0.860765 0.358983 0.500000
O O14 0.743022 0.404794 0.617148
O O15 0.000000 0.500000 0.102175
O O16 0.067287 0.622146 0.000000
O O17 0.357644 0.533924 0.500000
O O18 0.440088 0.589175 0.631791
O O19 0.346250 0.515044 0.000000
#
# Coordination Sequence:
#
# PCOD9544103 Si02
#       8
#     8   8   8   8   8   8   8   8
#     4  10  23  41  60  83 112 145 195 252 302 358
#     4   9  18  35  53  78 111 147 193 236 276 342
#     4  10  20  33  54  84 121 154 189 239 296 352
#     4   9  17  33  60  83 108 151 197 239 284 344
#     4  10  21  35  56  84 116 151 186 228 289 357
#     4   8  15  30  52  81 115 157 198 227 269 341
#     4   9  16  29  54  81 112 154 193 229 272 332
#     4  10  23  41  57  79 110 150 191 247 312 352
#
# _framework density 19.336644
#
# number of rings (size 3 to 8) (size 9 to 14) (size 15 to 20)
#    0.000    2.625    0.000    2.250    1.750    4.750 
#    4.500    0.000    0.000    2.625    0.000    6.125 
#    0.000    0.000    0.000    0.000    0.000    0.000 
#
# Total GULP energy -356329.345811 kJ/mol
# GULP energy per Si atom -5567.646028 kJ/mol
# Density = 1.929263 g / cm^3
# Si number density = 19.336644 Si / 1000 Ang^3
#
#
#
# Elastic Constant Matrix: (Units=GPa)
#
#
# Indices 1 2 3 4 5 6 
#
# 1 91.7443 34.0948 47.5223 0.0000 0.0000 -1.8977
# 2 34.0948 91.7443 47.5223 0.0000 0.0000 1.8977
# 3 47.5223 47.5223 105.1575 0.0000 0.0000 0.0000
# 4 0.0000 0.0000 0.0000 26.3030 0.0000 0.0000
# 5 0.0000 0.0000 0.0000 0.0000 26.3030 0.0000
# 6 -1.8977 1.8977 0.0000 0.0000 0.0000 18.8426
#
#
#
# Elastic Compliance Matrix: (Units=1/GPa)
#
#
# Indices 1 2 3 4 5 6 
#
# 1 0.014763 -0.002699 -0.005452 0.000000 0.000000 0.001759
# 2 -0.002699 0.014763 -0.005452 0.000000 0.000000 -0.001759
# 3 -0.005452 -0.005452 0.014437 0.000000 0.000000 0.000000
# 4 0.000000 0.000000 0.000000 0.038018 0.000000 0.000000
# 5 0.000000 0.000000 0.000000 0.000000 0.038018 0.000000
# 6 0.001759 -0.001759 0.000000 0.000000 0.000000 0.053425
#
#
# Mechanical properties :
#
#
# Convention : Reuss Voigt Hill
#
# Bulk Modulus (GPa) = 59.67335 60.76940 60.22137
# Shear Modulus (GPa) = 24.24614 24.92352 24.58483
#
# Velocity S-wave (km/s) = 3.54488 3.59406 3.56955
# Velocity P-wave (km/s) = 6.90523 6.97985 6.94264
#
# Compressibility (1/GPa) = 0.01675790
#
# Stress axis : x y z
#
# Youngs Moduli (GPa) = 67.73553 67.73553 69.26457
#
# Poissons Ratio (x) = 0.18280 0.37764
# Poissons Ratio (y) = 0.18280 0.37764
# Poissons Ratio (z) = 0.36931 0.36931
#
# Static dielectric constant tensor:
#      x y z
#    x 1.696810 0.000000 0.000000 
#    y 0.000000 1.696810 0.000000 
#    z 0.000000 0.000000 1.747920 
# 
# From -- ./inp_files/3888.got.cif
#   From: 2010.05.17/outbox.cif.g08.bks.cpg/sg84_2_cif.got.tgz:3888.got - 2010.06.03 18:57:40.
