data_PCOD9544958
_publ_section_title
;
Structure prediction by ZEFSAII (Michael W. Deem and Ramdas Pophale) SiO2 
 PCOD9544958
Probable space group: P 42/N
;
_chemical_formula_sum "Si O2"
_cell_formula_units_Z 40
_cell_length_a 8.454583
_cell_length_b 8.454583
_cell_length_c 25.081608
_cell_angle_alpha 90.000000
_cell_angle_beta 90.000000
_cell_angle_gamma 90.000000
_cell_volume 1792.832680
_symmetry_space_group_name_H-M "P 42/N"
_symmetry_group_IT_number 86
_space_group.IT_coordinate_system_code '2'
_symmetry_cell_setting 'tetragonal'
loop_
_space_group_symop_operation_xyz
x,y,z
-y,1/2+x,1/2+z
1/2-x,1/2-y,z
1/2+y,-x,1/2+z
-x,-y,-z
y,1/2-x,1/2-z
1/2+x,1/2+y,-z
1/2-y,x,1/2-z
loop_
_atom_site_type_symbol
_atom_site_label
_atom_site_fract_x
_atom_site_fract_y
_atom_site_fract_z
Si Si1 0.278592 0.008228 0.268513
Si Si2 0.971436 0.700728 0.222790
Si Si3 0.812647 0.563945 0.499843
Si Si4 0.072794 0.813926 0.112503
Si Si5 0.931951 0.804443 0.883700
O O1 0.143300 0.085162 0.232980
O O2 0.241478 0.982560 0.330543
O O3 0.361221 0.867700 0.238545
O O4 0.839559 0.571414 0.236307
O O5 0.970353 0.752971 0.162092
O O6 0.750000 0.750000 0.498324
O O7 0.754097 0.489512 0.444672
O O8 0.751100 0.507499 0.557979
O O9 0.000000 0.500000 0.500000
O O10 0.250000 0.750000 0.118874
O O11 0.066464 0.004624 0.114983
O O12 0.750000 0.750000 0.878858
#
# Coordination Sequence:
#
# PCOD9544958 Si02
#       5
#     8   8   8   8   8
#     4  11  21  36  65  91 125 169 219 264 333 397
#     4  11  25  39  59  92 132 169 214 271 341 407
#     4   9  21  39  68  92 127 179 229 275 348 420
#     4  11  23  41  66  93 131 169 223 280 347 409
#     4  10  19  40  63  91 122 171 217 266 324 409
#
# _framework density 22.311062
#
# number of rings (size 3 to 8) (size 9 to 14) (size 15 to 20)
#    0.000    1.600    4.000    1.200    2.800    0.000 
#    0.000    9.000    4.400    0.000    0.000    0.000 
#    0.000    0.000    0.000    0.000    0.000    0.000 
#
# Total GULP energy -223013.569449 kJ/mol
# GULP energy per Si atom -5575.339236 kJ/mol
# Density = 2.226028 g / cm^3
# Si number density = 22.311062 Si / 1000 Ang^3
#
#
#
# Elastic Constant Matrix: (Units=GPa)
#
#
# Indices 1 2 3 4 5 6 
#
# 1 14.3249 70.5563 22.1798 0.0000 0.0000 16.9537
# 2 70.5563 14.3249 22.1798 0.0000 0.0000 -16.9537
# 3 22.1798 22.1798 232.1964 0.0000 0.0000 0.0000
# 4 0.0000 0.0000 0.0000 49.1395 0.0000 0.0000
# 5 0.0000 0.0000 0.0000 0.0000 49.1395 0.0000
# 6 16.9537 -16.9537 0.0000 0.0000 0.0000 46.3128
#
#
#
# Elastic Compliance Matrix: (Units=1/GPa)
#
#
# Indices 1 2 3 4 5 6 
#
# 1 -0.001084 0.013484 -0.001184 0.000000 0.000000 0.005333
# 2 0.013484 -0.001084 -0.001184 0.000000 0.000000 -0.005333
# 3 -0.001184 -0.001184 0.004533 0.000000 0.000000 0.000000
# 4 0.000000 0.000000 0.000000 0.020350 0.000000 0.000000
# 5 0.000000 0.000000 0.000000 0.000000 0.020350 0.000000
# 6 0.005333 -0.005333 0.000000 0.000000 0.000000 0.017688
#
#
# Mechanical properties :
#
#
# Convention : Reuss Voigt Hill
#
# Bulk Modulus (GPa) = 40.65794 54.51974 47.58884
# Shear Modulus (GPa) = 107.01630 38.64706 72.83168
#
# Velocity S-wave (km/s) = 6.93323 4.16648 5.71967
# Velocity P-wave (km/s) = 9.07501 6.90183 8.06198
#
# Compressibility (1/GPa) = 0.02459544
#
# Stress axis : x y z
#
# Youngs Moduli (GPa) = -922.61956 -922.61956 220.60507
#
# Poissons Ratio (x) = 12.44067 0.26130
# Poissons Ratio (y) = 12.44067 0.26130
# Poissons Ratio (z) = -1.09283 -1.09283
#
# Static dielectric constant tensor:
#      x y z
#    x 1.885580 0.000000 0.000000 
#    y 0.000000 1.885580 0.000000 
#    z 0.000000 0.000000 1.809620 
# 
# From -- ./inp_files/4447.got.cif
#   From: 2010.05.17/outbox.cif.g08.bks.cpg/sg86_3_cif.got.tgz:4447.got - 2010.06.03 19:03:11.
