data_PCOD9544135
_publ_section_title
;
Structure prediction by ZEFSAII (Michael W. Deem and Ramdas Pophale) SiO2 
 PCOD9544135
Probable space group: P 42/M
;
_chemical_formula_sum "Si O2"
_cell_formula_units_Z 56
_cell_length_a 14.964572
_cell_length_b 14.964572
_cell_length_c 14.085915
_cell_angle_alpha 90.000000
_cell_angle_beta 90.000000
_cell_angle_gamma 90.000000
_cell_volume 3154.377481
_symmetry_space_group_name_H-M "P 42/M"
_symmetry_group_IT_number 84
_symmetry_cell_setting 'tetragonal'
loop_
_space_group_symop_operation_xyz
x,y,z
-y,x,1/2+z
-x,-y,z
y,-x,1/2+z
-x,-y,-z
y,-x,1/2-z
x,y,-z
-y,x,1/2-z
loop_
_atom_site_type_symbol
_atom_site_label
_atom_site_fract_x
_atom_site_fract_y
_atom_site_fract_z
Si Si1 0.273337 0.120662 0.612280
Si Si2 0.674432 0.224159 0.111782
Si Si3 0.694163 0.013498 0.112020
Si Si4 0.856177 0.979104 0.748535
Si Si5 0.282060 0.491922 0.272322
Si Si6 0.082383 0.566212 0.752263
Si Si7 0.565286 0.413964 0.387902
O O1 0.274998 0.110444 0.500000
O O2 0.253430 0.224626 0.634257
O O3 0.196800 0.061379 0.660086
O O4 0.364574 0.091563 0.661609
O O5 0.602945 0.276320 0.173927
O O6 0.667031 0.117262 0.127355
O O7 0.658263 0.241117 0.000000
O O8 0.786350 0.997470 0.167563
O O9 0.621981 0.948013 0.159302
O O10 0.703097 0.999470 0.000000
O O11 0.930605 0.907396 0.777912
O O12 0.179968 0.523581 0.261156
O O13 0.342070 0.557580 0.337201
O O14 0.333284 0.477572 0.172660
O O15 0.000000 0.500000 0.770712
O O16 0.500000 0.500000 0.378773
O O17 0.575799 0.394435 0.500000
#
# Coordination Sequence:
#
# PCOD9544135 Si02
#       7
#     8   8   8   8   8   8   8
#     4  10  22  39  59  85 118 159 202 239 293 365
#     4  10  20  36  63  89 117 160 205 247 300 363
#     4  10  21  39  58  85 122 159 202 251 297 355
#     4  10  20  35  59  87 116 154 199 252 302 347
#     4  12  21  42  65  90 125 161 198 255 310 361
#     4  11  24  40  61  88 123 160 202 247 301 362
#     4  11  24  42  65  96 125 156 202 255 314 374
#
# _framework density 17.753105999999999
#
# number of rings (size 3 to 8) (size 9 to 14) (size 15 to 20)
#    0.000    1.429    4.286    1.286    0.000    2.857 
#    0.000    1.429    0.000    0.000    0.000    0.000 
#    0.000    0.000    0.000    0.000    0.000    0.000 
#
# Total GULP energy -312738.513905 kJ/mol
# GULP energy per Si atom -5584.616320 kJ/mol
# Density = 1.771270 g / cm^3
# Si number density = 17.753106 Si / 1000 Ang^3
#
#
#
# Elastic Constant Matrix: (Units=GPa)
#
#
# Indices 1 2 3 4 5 6 
#
# 1 90.3527 38.6555 38.5859 0.0000 0.0000 -0.4944
# 2 38.6555 90.3527 38.5859 0.0000 0.0000 0.4944
# 3 38.5859 38.5859 80.2633 0.0000 0.0000 0.0000
# 4 0.0000 0.0000 0.0000 15.4745 0.0000 0.0000
# 5 0.0000 0.0000 0.0000 0.0000 15.4745 0.0000
# 6 -0.4944 0.4944 0.0000 0.0000 0.0000 16.9137
#
#
#
# Elastic Compliance Matrix: (Units=1/GPa)
#
#
# Indices 1 2 3 4 5 6 
#
# 1 0.015117 -0.004237 -0.005231 0.000000 0.000000 0.000566
# 2 -0.004237 0.015117 -0.005231 0.000000 0.000000 -0.000566
# 3 -0.005231 -0.005231 0.017488 0.000000 0.000000 0.000000
# 4 0.000000 0.000000 0.000000 0.064622 0.000000 0.000000
# 5 0.000000 0.000000 0.000000 0.000000 0.064622 0.000000
# 6 0.000566 -0.000566 0.000000 0.000000 0.000000 0.059157
#
#
# Mechanical properties :
#
#
# Convention : Reuss Voigt Hill
#
# Bulk Modulus (GPa) = 54.56627 54.73592 54.65110
# Shear Modulus (GPa) = 18.40743 19.24864 18.82804
#
# Velocity S-wave (km/s) = 3.22352 3.29635 3.26014
# Velocity P-wave (km/s) = 6.68264 6.73696 6.70985
#
# Compressibility (1/GPa) = 0.01832634
#
# Stress axis : x y z
#
# Youngs Moduli (GPa) = 66.14928 66.14928 57.18143
#
# Poissons Ratio (x) = 0.28027 0.29910
# Poissons Ratio (y) = 0.28027 0.29910
# Poissons Ratio (z) = 0.34600 0.34600
#
# Static dielectric constant tensor:
#      x y z
#    x 1.605840 0.000000 0.000000 
#    y 0.000000 1.605840 0.000000 
#    z 0.000000 0.000000 1.569340 
# 
# From -- ./inp_files/2239.got.cif
#   From: 2010.05.17/outbox.cif.g08.bks.cpg/sg84_2_cif.got.tgz:2239.got - 2010.06.03 18:57:40.
