data_PCOD9544861
_publ_section_title
;
Structure prediction by ZEFSAII (Michael W. Deem and Ramdas Pophale) SiO2 
 PCOD9544861
Probable space group: P 42/N
;
_chemical_formula_sum "Si O2"
_cell_formula_units_Z 48
_cell_length_a 11.003918
_cell_length_b 11.003918
_cell_length_c 17.992509
_cell_angle_alpha 90.000000
_cell_angle_beta 90.000000
_cell_angle_gamma 90.000000
_cell_volume 2178.644748
_symmetry_space_group_name_H-M "P 42/N"
_symmetry_group_IT_number 86
_space_group.IT_coordinate_system_code '2'
_symmetry_cell_setting 'tetragonal'
loop_
_space_group_symop_operation_xyz
x,y,z
-y,1/2+x,1/2+z
1/2-x,1/2-y,z
1/2+y,-x,1/2+z
-x,-y,-z
y,1/2-x,1/2-z
1/2+x,1/2+y,-z
1/2-y,x,1/2-z
loop_
_atom_site_type_symbol
_atom_site_label
_atom_site_fract_x
_atom_site_fract_y
_atom_site_fract_z
Si Si1 0.764351 0.106511 0.610928
Si Si2 0.750000 0.750000 0.986149
Si Si3 0.000370 0.159755 0.801691
Si Si4 0.750000 0.750000 0.250000
Si Si5 0.995200 0.864020 0.030596
Si Si6 0.387060 0.087228 0.133149
Si Si7 0.403037 0.598462 0.748110
Si Si8 0.750000 0.750000 0.750000
O O1 0.750000 0.250000 0.610386
O O2 0.684603 0.067718 0.682628
O O3 0.712269 0.063182 0.532130
O O4 0.889081 0.030007 0.618166
O O5 0.689364 0.857167 0.935439
O O6 0.857654 0.813571 0.030630
O O7 0.132243 0.224196 0.799174
O O8 0.956473 0.143653 0.885798
O O9 0.918766 0.257238 0.757653
O O10 0.027556 0.028407 0.766465
O O11 0.000000 0.000000 0.000000
O O12 0.340460 0.173213 0.199584
O O13 0.362882 0.954587 0.167328
#
# Coordination Sequence:
#
# PCOD9544861 Si02
#       8
#     8   4   8   2   8   8   8   2
#     4  11  23  40  59  93 130 166 206 270 326 386
#     4   9  23  41  64  92 116 171 220 258 313 398
#     4  10  21  37  62  92 118 167 207 260 319 394
#     4   8  18  36  62  86 128 152 214 272 316 378
#     4  11  22  44  67  88 130 173 221 261 332 400
#     4  10  20  37  63  90 121 159 208 265 318 375
#     4  11  21  40  62  93 125 156 210 264 323 380
#     4  10  16  32  62  84 112 158 208 250 302 380
#
# _framework density 22.032043999999999
#
# number of rings (size 3 to 8) (size 9 to 14) (size 15 to 20)
#    0.000    1.667    3.333    1.500    0.000    0.000 
#    9.000    1.667    0.000    0.000    0.000    0.000 
#    0.000    0.000    0.000    0.000    0.000    0.000 
#
# Total GULP energy -267862.286959 kJ/mol
# GULP energy per Si atom -5580.464312 kJ/mol
# Density = 2.198190 g / cm^3
# Si number density = 22.032044 Si / 1000 Ang^3
#
#
#
# Elastic Constant Matrix: (Units=GPa)
#
#
# Indices 1 2 3 4 5 6 
#
# 1 52.8376 -0.2408 0.8234 0.0000 0.0000 -1.4025
# 2 -0.2408 52.8376 0.8234 0.0000 0.0000 1.4025
# 3 0.8234 0.8234 90.4245 0.0000 0.0000 0.0000
# 4 0.0000 0.0000 0.0000 13.5581 0.0000 0.0000
# 5 0.0000 0.0000 0.0000 0.0000 13.5581 0.0000
# 6 -1.4025 1.4025 0.0000 0.0000 0.0000 19.4691
#
#
#
# Elastic Compliance Matrix: (Units=1/GPa)
#
#
# Indices 1 2 3 4 5 6 
#
# 1 0.018965 0.000053 -0.000173 0.000000 0.000000 0.001362
# 2 0.000053 0.018965 -0.000173 0.000000 0.000000 -0.001362
# 3 -0.000173 -0.000173 0.011062 0.000000 0.000000 0.000000
# 4 0.000000 0.000000 0.000000 0.073757 0.000000 0.000000
# 5 0.000000 0.000000 0.000000 0.000000 0.073757 0.000000
# 6 0.001362 -0.001362 0.000000 0.000000 0.000000 0.051560
#
#
# Mechanical properties :
#
#
# Convention : Reuss Voigt Hill
#
# Bulk Modulus (GPa) = 20.65887 22.10130 21.38008
# Shear Modulus (GPa) = 18.88311 22.29665 20.58988
#
# Velocity S-wave (km/s) = 2.93076 3.18466 3.06035
# Velocity P-wave (km/s) = 4.56613 4.85551 4.71304
#
# Compressibility (1/GPa) = 0.04840535
#
# Stress axis : x y z
#
# Youngs Moduli (GPa) = 52.72871 52.72871 90.39872
#
# Poissons Ratio (x) = -0.00279 0.01565
# Poissons Ratio (y) = -0.00279 0.01565
# Poissons Ratio (z) = 0.00913 0.00913
#
# Static dielectric constant tensor:
#      x y z
#    x 1.824180 0.000000 0.000000 
#    y 0.000000 1.824180 0.000000 
#    z 0.000000 0.000000 1.807530 
# 
# From -- ./inp_files/3646.got.cif
#   From: 2010.05.17/outbox.cif.g08.bks.cpg/sg86_2_cif.got.tgz:3646.got - 2010.06.03 19:03:11.
