data_PCOD9544216
_publ_section_title
;
Structure prediction by ZEFSAII (Michael W. Deem and Ramdas Pophale) SiO2 
 PCOD9544216
Probable space group: P 42/M
;
_chemical_formula_sum "Si O2"
_cell_formula_units_Z 48
_cell_length_a 8.458483
_cell_length_b 8.458483
_cell_length_c 27.046148
_cell_angle_alpha 90.000000
_cell_angle_beta 90.000000
_cell_angle_gamma 90.000000
_cell_volume 1935.041938
_symmetry_space_group_name_H-M "P 42/M"
_symmetry_group_IT_number 84
_symmetry_cell_setting 'tetragonal'
loop_
_space_group_symop_operation_xyz
x,y,z
-y,x,1/2+z
-x,-y,z
y,-x,1/2+z
-x,-y,-z
y,-x,1/2-z
x,y,-z
-y,x,1/2-z
loop_
_atom_site_type_symbol
_atom_site_label
_atom_site_fract_x
_atom_site_fract_y
_atom_site_fract_z
Si Si1 0.071037 0.679221 0.374392
Si Si2 0.619860 0.807103 0.353961
Si Si3 0.115197 0.277425 0.190612
Si Si4 0.669959 0.439724 0.444957
Si Si5 0.784048 0.196591 0.055171
Si Si6 0.392840 0.714199 0.773230
O O1 0.131650 0.781187 0.328212
O O2 0.227496 0.662390 0.408344
O O3 0.000000 0.500000 0.364507
O O4 0.951741 0.783202 0.407957
O O5 0.439741 0.827379 0.337346
O O6 0.654673 0.836587 0.411351
O O7 0.682089 0.642491 0.330438
O O8 0.726802 0.934088 0.324942
O O9 0.132316 0.320621 0.248161
O O10 0.500000 0.500000 0.426440
O O11 0.645205 0.369311 0.500000
O O12 0.772631 0.597631 0.451074
O O13 0.852924 0.179649 0.000000
O O14 0.573698 0.692479 0.758097
#
# Coordination Sequence:
#
# PCOD9544216 Si02
#       6
#     8   8   8   8   8   8
#     4  10  21  35  56  88 120 163 200 258 305 368
#     4  10  22  41  63  89 127 164 204 260 312 374
#     4  10  22  41  60  93 126 159 208 255 316 377
#     4   9  17  31  54  84 114 152 203 260 309 355
#     4  10  21  37  57  84 122 168 213 254 309 371
#     4   9  20  38  65  96 121 156 201 254 312 374
#
# _framework density 24.805664
#
# number of rings (size 3 to 8) (size 9 to 14) (size 15 to 20)
#    0.000    2.333    0.000    1.500    4.667    4.000 
#    3.000    5.000    0.000    0.000    0.000    0.000 
#    0.000    0.000    0.000    0.000    0.000    0.000 
#
# Total GULP energy -267994.156816 kJ/mol
# GULP energy per Si atom -5583.211600 kJ/mol
# Density = 2.474921 g / cm^3
# Si number density = 24.805664 Si / 1000 Ang^3
#
#
#
# Elastic Constant Matrix: (Units=GPa)
#
#
# Indices 1 2 3 4 5 6 
#
# 1 73.4646 3.1322 32.2764 0.0000 0.0000 -4.1572
# 2 3.1322 73.4646 32.2764 0.0000 0.0000 4.1572
# 3 32.2764 32.2764 85.7028 0.0000 0.0000 0.0000
# 4 0.0000 0.0000 0.0000 -385.3180 0.0000 0.0000
# 5 0.0000 0.0000 0.0000 0.0000 -385.3180 0.0000
# 6 -4.1572 4.1572 0.0000 0.0000 0.0000 25.6157
#
#
#
# Elastic Compliance Matrix: (Units=1/GPa)
#
#
# Indices 1 2 3 4 5 6 
#
# 1 0.016811 0.002315 -0.007203 0.000000 0.000000 0.002353
# 2 0.002315 0.016811 -0.007203 0.000000 0.000000 -0.002353
# 3 -0.007203 -0.007203 0.017094 0.000000 0.000000 0.000000
# 4 0.000000 0.000000 0.000000 -0.002595 0.000000 0.000000
# 5 0.000000 0.000000 0.000000 0.000000 -0.002595 0.000000
# 6 0.002353 -0.002353 0.000000 0.000000 0.000000 0.039802
#
#
# Mechanical properties :
#
#
# Convention : Reuss Voigt Hill
#
# Bulk Modulus (GPa) = 37.68837 40.88910 39.28873
# Shear Modulus (GPa) = 42.24620 -138.00760 -47.88070
#
# Velocity S-wave (km/s) = 4.13132 -7.46701 -4.39821
# Velocity P-wave (km/s) = 6.16308 7.60409 3.14949
#
# Compressibility (1/GPa) = 0.02653338
#
# Stress axis : x y z
#
# Youngs Moduli (GPa) = 59.48486 59.48486 58.50154
#
# Poissons Ratio (x) = -0.13769 0.42138
# Poissons Ratio (y) = -0.13769 0.42138
# Poissons Ratio (z) = 0.42846 0.42846
#
# Static dielectric constant tensor:
#      x y z
#    x 1.992760 0.000000 0.000000 
#    y 0.000000 1.992760 0.000000 
#    z 0.000000 0.000000 1.998760 
# 
# From -- ./inp_files/5786.got.cif
#   From: 2010.05.17/outbox.cif.g08.bks.cpg/sg84_3_cif.got.tgz:5786.got - 2010.06.03 18:57:40.
