data_PCOD9544781
_publ_section_title
;
Structure prediction by ZEFSAII (Michael W. Deem and Ramdas Pophale) SiO2 
 PCOD9544781
Probable space group: P 4/N
;
_chemical_formula_sum "Si O2"
_cell_formula_units_Z 32
_cell_length_a 9.787102
_cell_length_b 9.787102
_cell_length_c 18.704366
_cell_angle_alpha 90.000000
_cell_angle_beta 90.000000
_cell_angle_gamma 90.000000
_cell_volume 1791.641944
_symmetry_space_group_name_H-M "P 4/N"
_symmetry_group_IT_number 85
_symmetry_cell_setting 'tetragonal'
loop_
_space_group_symop_operation_xyz
x,y,z
1/2-y,x,z
1/2-x,1/2-y,z
y,1/2-x,z
-x,-y,-z
1/2+y,-x,-z
1/2+x,1/2+y,-z
-y,1/2+x,-z
loop_
_atom_site_type_symbol
_atom_site_label
_atom_site_fract_x
_atom_site_fract_y
_atom_site_fract_z
Si Si1 0.040724 0.151807 0.314448
Si Si2 0.059918 0.377229 0.780283
Si Si3 0.589868 0.379539 0.470576
Si Si4 0.582924 0.901938 0.051155
O O1 0.187504 0.075555 0.306421
O O2 0.966789 0.147089 0.391688
O O3 0.943550 0.066675 0.261268
O O4 0.067161 0.213960 0.764358
O O5 0.047007 0.411097 0.864726
O O6 0.500000 0.500000 0.500000
O O7 0.747730 0.421678 0.478034
O O8 0.564693 0.741432 0.037349
O O9 0.500000 0.000000 0.000000
#
# Coordination Sequence:
#
# PCOD9544781 Si02
#       4
#     8   8   8   8
#     4  11  24  41  60  86 121 155 193 247 300 354
#     4   9  21  40  61  87 118 157 199 243 296 352
#     4  11  24  41  62  88 118 153 196 244 300 352
#     4   9  19  37  59  86 122 157 197 243 290 349
#
# _framework density 17.860710999999998
#
# number of rings (size 3 to 8) (size 9 to 14) (size 15 to 20)
#    0.000    2.000    2.500    1.500    3.500    4.000 
#    0.000    7.500    0.000    0.000    0.000    0.000 
#    0.000    0.000    0.000    0.000    0.000    0.000 
#
# Total GULP energy -178235.013717 kJ/mol
# GULP energy per Si atom -5569.844179 kJ/mol
# Density = 1.782006 g / cm^3
# Si number density = 17.860711 Si / 1000 Ang^3
#
#
#
# Elastic Constant Matrix: (Units=GPa)
#
#
# Indices 1 2 3 4 5 6 
#
# 1 86.0174 70.1896 49.5401 0.0000 0.0000 1.9689
# 2 70.1896 86.0174 49.5401 0.0000 0.0000 -1.9689
# 3 49.5401 49.5401 66.2689 0.0000 0.0000 0.0000
# 4 0.0000 0.0000 0.0000 38.4368 0.0000 0.0000
# 5 0.0000 0.0000 0.0000 0.0000 38.4368 0.0000
# 6 1.9689 -1.9689 0.0000 0.0000 0.0000 41.7174
#
#
#
# Elastic Compliance Matrix: (Units=1/GPa)
#
#
# Indices 1 2 3 4 5 6 
#
# 1 0.038052 -0.025878 -0.009101 0.000000 0.000000 -0.003017
# 2 -0.025878 0.038052 -0.009101 0.000000 0.000000 0.003017
# 3 -0.009101 -0.009101 0.028698 0.000000 0.000000 0.000000
# 4 0.000000 0.000000 0.000000 0.026017 0.000000 0.000000
# 5 0.000000 0.000000 0.000000 0.000000 0.026017 0.000000
# 6 -0.003017 0.003017 0.000000 0.000000 0.000000 0.024256
#
#
# Mechanical properties :
#
#
# Convention : Reuss Voigt Hill
#
# Bulk Modulus (GPa) = 60.09003 64.09368 62.09185
# Shear Modulus (GPa) = 18.19509 28.32048 23.25779
#
# Velocity S-wave (km/s) = 3.19520 3.98632 3.61248
# Velocity P-wave (km/s) = 6.87962 7.55982 7.22772
#
# Compressibility (1/GPa) = 0.01664170
#
# Stress axis : x y z
#
# Youngs Moduli (GPa) = 26.27952 26.27952 34.84622
#
# Poissons Ratio (x) = 0.68006 0.31714
# Poissons Ratio (y) = 0.68006 0.31714
# Poissons Ratio (z) = 0.23918 0.23918
#
# Static dielectric constant tensor:
#      x y z
#    x 1.590890 0.000000 0.000000 
#    y 0.000000 1.590890 0.000000 
#    z 0.000000 0.000000 1.645110 
# 
# From -- ./inp_files/2145.got.cif
#   From: 2010.05.17/outbox.cif.g08.bks.cpg/sg85_cif.got.tgz:2145.got - 2010.06.03 19:01:16.
