data_PCOD9544269
_publ_section_title
;
Structure prediction by ZEFSAII (Michael W. Deem and Ramdas Pophale) SiO2 
 PCOD9544269
Probable space group: P 42/M
;
_chemical_formula_sum "Si O2"
_cell_formula_units_Z 22
_cell_length_a 5.347747
_cell_length_b 5.347747
_cell_length_c 30.729999
_cell_angle_alpha 90.000000
_cell_angle_beta 90.000000
_cell_angle_gamma 90.000000
_cell_volume 878.828741
_symmetry_space_group_name_H-M "P 42/M"
_symmetry_group_IT_number 84
_symmetry_cell_setting 'tetragonal'
loop_
_space_group_symop_operation_xyz
x,y,z
-y,x,1/2+z
-x,-y,z
y,-x,1/2+z
-x,-y,-z
y,-x,1/2-z
x,y,-z
-y,x,1/2-z
loop_
_atom_site_type_symbol
_atom_site_label
_atom_site_fract_x
_atom_site_fract_y
_atom_site_fract_z
Si Si1 0.500000 0.500000 0.750000
Si Si2 0.154290 0.235683 0.312751
Si Si3 0.834819 0.754307 0.500000
Si Si4 0.341347 0.742135 0.905169
O O1 0.708470 0.386907 0.781766
O O2 0.226153 0.171584 0.362791
O O3 0.000000 0.500000 0.313401
O O4 0.000000 0.000000 0.297038
O O5 0.694549 0.760351 0.453791
O O6 0.000000 0.500000 0.500000
O O7 0.000000 0.000000 0.500000
O O8 0.500000 0.500000 0.894028
O O9 0.500000 0.000000 0.908176
#
# Coordination Sequence:
#
# PCOD9544269 Si02
#       4
#     2   8   4   8
#     4  12  28  48  76 110 148 204 264 324 404 466
#     4  11  27  48  75 107 151 196 256 319 392 466
#     4  10  21  40  70 106 148 196 248 307 377 457
#     4  10  21  45  70 108 146 197 247 313 380 459
#
# _framework density 25.033321999999998
#
# number of rings (size 3 to 8) (size 9 to 14) (size 15 to 20)
#    0.000    1.455    1.818    1.636    5.091    0.000 
#    0.000   25.455    0.000    0.000    0.000    0.000 
#    0.000    0.000    0.000    0.000    0.000    0.000 
#
# Total GULP energy -123103.197686 kJ/mol
# GULP energy per Si atom -5595.599895 kJ/mol
# Density = 2.497634 g / cm^3
# Si number density = 25.033322 Si / 1000 Ang^3
#
#
#
# Elastic Constant Matrix: (Units=GPa)
#
#
# Indices 1 2 3 4 5 6 
#
# 1 119.7306 38.9665 24.7404 0.0000 0.0000 -2.2477
# 2 38.9665 119.7306 24.7404 0.0000 0.0000 2.2477
# 3 24.7404 24.7404 247.7358 0.0000 0.0000 0.0000
# 4 0.0000 0.0000 0.0000 -62.1109 0.0000 0.0000
# 5 0.0000 0.0000 0.0000 0.0000 -62.1109 0.0000
# 6 -2.2477 2.2477 0.0000 0.0000 0.0000 62.6658
#
#
#
# Elastic Compliance Matrix: (Units=1/GPa)
#
#
# Indices 1 2 3 4 5 6 
#
# 1 0.009455 -0.002951 -0.000650 0.000000 0.000000 0.000445
# 2 -0.002951 0.009455 -0.000650 0.000000 0.000000 -0.000445
# 3 -0.000650 -0.000650 0.004166 0.000000 0.000000 0.000000
# 4 0.000000 0.000000 0.000000 -0.016100 0.000000 0.000000
# 5 0.000000 0.000000 0.000000 0.000000 -0.016100 0.000000
# 6 0.000445 -0.000445 0.000000 0.000000 0.000000 0.015990
#
#
# Mechanical properties :
#
#
# Convention : Reuss Voigt Hill
#
# Bulk Modulus (GPa) = 68.60647 73.78799 71.19723
# Shear Modulus (GPa) = 247.21761 14.27211 130.74486
#
# Velocity S-wave (km/s) = 9.94836 2.39032 7.23476
# Velocity P-wave (km/s) = 12.62637 6.09574 9.91422
#
# Compressibility (1/GPa) = 0.01457589
#
# Stress axis : x y z
#
# Youngs Moduli (GPa) = 105.76231 105.76231 240.02188
#
# Poissons Ratio (x) = 0.31214 0.15590
# Poissons Ratio (y) = 0.31214 0.15590
# Poissons Ratio (z) = 0.06869 0.06869
#
# Static dielectric constant tensor:
#      x y z
#    x 2.204240 0.000000 0.000000 
#    y 0.000000 2.204240 0.000000 
#    z 0.000000 0.000000 2.184180 
# 
# From -- ./inp_files/5520.got.cif
#   From: 2010.05.17/outbox.cif.g08.bks.cpg/sg84_3_cif.got.tgz:5520.got - 2010.06.03 18:57:40.
