data_PCOD9544747
_publ_section_title
;
Structure prediction by ZEFSAII (Michael W. Deem and Ramdas Pophale) SiO2 
 PCOD9544747
Probable space group: P 4/N
;
_chemical_formula_sum "Si O2"
_cell_formula_units_Z 34
_cell_length_a 12.364899
_cell_length_b 12.364899
_cell_length_c 9.960027
_cell_angle_alpha 90.000000
_cell_angle_beta 90.000000
_cell_angle_gamma 90.000000
_cell_volume 1522.795772
_symmetry_space_group_name_H-M "P 4/N"
_symmetry_group_IT_number 85
_symmetry_cell_setting 'tetragonal'
loop_
_space_group_symop_operation_xyz
x,y,z
1/2-y,x,z
1/2-x,1/2-y,z
y,1/2-x,z
-x,-y,-z
1/2+y,-x,-z
1/2+x,1/2+y,-z
-y,1/2+x,-z
loop_
_atom_site_type_symbol
_atom_site_label
_atom_site_fract_x
_atom_site_fract_y
_atom_site_fract_z
Si Si1 0.240516 0.429009 0.509042
Si Si2 0.759442 0.081360 0.724229
Si Si3 0.966501 0.309864 0.779191
Si Si4 0.984021 0.082317 0.876407
Si Si5 0.250000 0.750000 0.500000
O O1 0.140748 0.348843 0.521445
O O2 0.227549 0.476035 0.359133
O O3 0.253716 0.509937 0.635262
O O4 0.655124 0.140827 0.789126
O O5 0.864666 0.064023 0.814299
O O6 0.789549 0.157272 0.598577
O O7 0.986867 0.213712 0.887218
O O8 0.046437 0.411595 0.790652
O O9 0.000000 0.000000 0.000000
#
# Coordination Sequence:
#
# PCOD9544747 Si02
#       5
#     8   8   8   8   2
#     4  11  23  41  71 112 155 193 241 317 404 470
#     4  12  23  45  72 113 149 194 253 317 385 460
#     4  12  25  46  75 106 149 196 257 313 388 460
#     4  12  29  47  71 103 145 206 256 311 372 459
#     4  12  20  36  72 110 144 176 244 316 378 436
#
# _framework density 22.327352999999999
#
# number of rings (size 3 to 8) (size 9 to 14) (size 15 to 20)
#    0.000    0.235    7.059    1.412    3.294    2.353 
#    0.000    0.000    0.000    0.000    0.000    0.000 
#    0.000    0.000    0.000    0.000    0.000    0.000 
#
# Total GULP energy -189631.528848 kJ/mol
# GULP energy per Si atom -5577.397907 kJ/mol
# Density = 2.227654 g / cm^3
# Si number density = 22.327353 Si / 1000 Ang^3
#
#
#
# Elastic Constant Matrix: (Units=GPa)
#
#
# Indices 1 2 3 4 5 6 
#
# 1 143.0625 58.9534 47.1760 0.0000 0.0000 -3.2015
# 2 58.9534 143.0625 47.1760 0.0000 0.0000 3.2015
# 3 47.1760 47.1760 66.5960 0.0000 0.0000 0.0000
# 4 0.0000 0.0000 0.0000 43.0957 0.0000 0.0000
# 5 0.0000 0.0000 0.0000 0.0000 43.0957 0.0000
# 6 -3.2015 3.2015 0.0000 0.0000 0.0000 61.9905
#
#
#
# Elastic Compliance Matrix: (Units=1/GPa)
#
#
# Indices 1 2 3 4 5 6 
#
# 1 0.009667 -0.002269 -0.005240 0.000000 0.000000 0.000616
# 2 -0.002269 0.009667 -0.005240 0.000000 0.000000 -0.000616
# 3 -0.005240 -0.005240 0.022440 0.000000 0.000000 0.000000
# 4 0.000000 0.000000 0.000000 0.023204 0.000000 0.000000
# 5 0.000000 0.000000 0.000000 0.000000 0.023204 0.000000
# 6 0.000616 -0.000616 0.000000 0.000000 0.000000 0.016195
#
#
# Mechanical properties :
#
#
# Convention : Reuss Voigt Hill
#
# Bulk Modulus (GPa) = 61.44752 73.25910 67.35331
# Shear Modulus (GPa) = 36.95413 42.93077 39.94245
#
# Velocity S-wave (km/s) = 4.07271 4.38972 4.23418
# Velocity P-wave (km/s) = 7.04960 7.65346 7.35773
#
# Compressibility (1/GPa) = 0.01627405
#
# Stress axis : x y z
#
# Youngs Moduli (GPa) = 103.44517 103.44517 44.56234
#
# Poissons Ratio (x) = 0.23475 0.23353
# Poissons Ratio (y) = 0.23475 0.23353
# Poissons Ratio (z) = 0.54210 0.54210
#
# Static dielectric constant tensor:
#      x y z
#    x 1.879170 0.000000 0.000000 
#    y 0.000000 1.879170 0.000000 
#    z 0.000000 0.000000 1.897660 
# 
# From -- ./inp_files/1499.got.cif
#   From: 2010.05.17/outbox.cif.g08.bks.cpg/sg85_cif.got.tgz:1499.got - 2010.06.03 19:01:16.
