data_PCOD9544051
_publ_section_title
;
Structure prediction by ZEFSAII (Michael W. Deem and Ramdas Pophale) SiO2 
 PCOD9544051
Probable space group: P 42/M
;
_chemical_formula_sum "Si O2"
_cell_formula_units_Z 48
_cell_length_a 17.605031
_cell_length_b 17.605031
_cell_length_c 8.372406
_cell_angle_alpha 90.000000
_cell_angle_beta 90.000000
_cell_angle_gamma 90.000000
_cell_volume 2594.919374
_symmetry_space_group_name_H-M "P 42/M"
_symmetry_group_IT_number 84
_symmetry_cell_setting 'tetragonal'
loop_
_space_group_symop_operation_xyz
x,y,z
-y,x,1/2+z
-x,-y,z
y,-x,1/2+z
-x,-y,-z
y,-x,1/2-z
x,y,-z
-y,x,1/2-z
loop_
_atom_site_type_symbol
_atom_site_label
_atom_site_fract_x
_atom_site_fract_y
_atom_site_fract_z
Si Si1 0.503325 0.620407 0.189698
Si Si2 0.209101 0.080969 0.809542
Si Si3 0.079593 0.620274 0.191146
Si Si4 0.793361 0.496749 0.193786
Si Si5 0.375988 0.909895 0.694340
Si Si6 0.798883 0.083763 0.306760
O O1 0.575929 0.570708 0.244829
O O2 0.506974 0.707605 0.244927
O O3 0.500146 0.617765 0.000000
O O4 0.291493 0.089791 0.730962
O O5 0.150252 0.144999 0.756120
O O6 0.179471 0.997652 0.763735
O O7 0.218027 0.086135 0.000000
O O8 0.150807 0.571218 0.249118
O O9 0.994404 0.598329 0.248756
O O10 0.077804 0.610380 0.000000
O O11 0.840164 0.571720 0.245124
O O12 0.789678 0.495698 0.000000
O O13 0.379064 0.911181 0.500000
O O14 0.288266 0.900551 0.740818
O O15 0.800705 0.078342 0.500000
#
# Coordination Sequence:
#
# PCOD9544051 Si02
#       6
#     8   8   8   8   8   8
#     4  11  23  41  61  81 108 140 176 219 269 319
#     4  10  20  33  51  75 102 135 177 222 267 314
#     4   9  18  33  53  78 110 144 176 214 261 312
#     4  10  19  33  57  86 110 139 179 214 253 312
#     4   8  15  31  54  77 105 142 178 211 251 306
#     4   9  19  35  52  72 100 136 176 215 261 314
#
# _framework density 18.497685000000001
#
# number of rings (size 3 to 8) (size 9 to 14) (size 15 to 20)
#    0.000    2.500    0.000    4.000    0.000    5.667 
#    0.000    6.667    0.000    5.000    0.000    0.000 
#    0.000    0.000    0.000    0.000    0.000    0.000 
#
# Total GULP energy -267722.627169 kJ/mol
# GULP energy per Si atom -5577.554733 kJ/mol
# Density = 1.845558 g / cm^3
# Si number density = 18.497685 Si / 1000 Ang^3
#
#
#
# Elastic Constant Matrix: (Units=GPa)
#
#
# Indices 1 2 3 4 5 6 
#
# 1 91.0881 43.1956 -2.8314 0.0000 0.0000 4.0648
# 2 43.1956 91.0881 -2.8314 0.0000 0.0000 -4.0648
# 3 -2.8314 -2.8314 24.1258 0.0000 0.0000 0.0000
# 4 0.0000 0.0000 0.0000 19.4651 0.0000 0.0000
# 5 0.0000 0.0000 0.0000 0.0000 19.4651 0.0000
# 6 4.0648 -4.0648 0.0000 0.0000 0.0000 47.3942
#
#
#
# Elastic Compliance Matrix: (Units=1/GPa)
#
#
# Indices 1 2 3 4 5 6 
#
# 1 0.014336 -0.006852 0.000878 0.000000 0.000000 -0.001817
# 2 -0.006852 0.014336 0.000878 0.000000 0.000000 0.001817
# 3 0.000878 0.000878 0.041655 0.000000 0.000000 0.000000
# 4 0.000000 0.000000 0.000000 0.051374 0.000000 0.000000
# 5 0.000000 0.000000 0.000000 0.000000 0.051374 0.000000
# 6 -0.001817 0.001817 0.000000 0.000000 0.000000 0.021411
#
#
# Mechanical properties :
#
#
# Convention : Reuss Voigt Hill
#
# Bulk Modulus (GPa) = 16.62881 31.26308 23.94594
# Shear Modulus (GPa) = 22.24950 28.51616 25.38283
#
# Velocity S-wave (km/s) = 3.47194 3.93059 3.70836
# Velocity P-wave (km/s) = 5.00816 6.12676 5.59548
#
# Compressibility (1/GPa) = 0.06013661
#
# Stress axis : x y z
#
# Youngs Moduli (GPa) = 69.75321 69.75321 24.00644
#
# Poissons Ratio (x) = 0.47797 -0.02108
# Poissons Ratio (y) = 0.47797 -0.02108
# Poissons Ratio (z) = -0.06126 -0.06126
#
# Static dielectric constant tensor:
#      x y z
#    x 1.630000 0.000000 0.000000 
#    y 0.000000 1.630000 0.000000 
#    z 0.000000 0.000000 1.643620 
# 
# From -- ./inp_files/967.got.cif
#   From: 2010.05.17/outbox.cif.g08.bks.cpg/sg84_1_cif.got.tgz:967.got - 2010.06.03 18:57:40.
