data_PCOD9544626
_publ_section_title
;
Structure prediction by ZEFSAII (Michael W. Deem and Ramdas Pophale) SiO2 
 PCOD9544626
Probable space group: P 4/N
;
_chemical_formula_sum "Si O2"
_cell_formula_units_Z 56
_cell_length_a 11.722630
_cell_length_b 11.722630
_cell_length_c 18.976196
_cell_angle_alpha 90.000000
_cell_angle_beta 90.000000
_cell_angle_gamma 90.000000
_cell_volume 2607.709881
_symmetry_space_group_name_H-M "P 4/N"
_symmetry_group_IT_number 85
_symmetry_cell_setting 'tetragonal'
loop_
_space_group_symop_operation_xyz
x,y,z
1/2-y,x,z
1/2-x,1/2-y,z
y,1/2-x,z
-x,-y,-z
1/2+y,-x,-z
1/2+x,1/2+y,-z
-y,1/2+x,-z
loop_
_atom_site_type_symbol
_atom_site_label
_atom_site_fract_x
_atom_site_fract_y
_atom_site_fract_z
Si Si1 0.621875 0.605341 0.250483
Si Si2 0.654794 0.415870 0.509441
Si Si3 0.484304 0.519572 0.616717
Si Si4 0.208414 0.438309 0.297897
Si Si5 0.230764 0.442007 0.143742
Si Si6 0.416253 0.802673 0.987170
Si Si7 0.409054 0.141387 0.905752
O O1 0.759451 0.595489 0.255462
O O2 0.553730 0.545218 0.312794
O O3 0.597793 0.556537 0.171909
O O4 0.789648 0.399494 0.500426
O O5 0.599382 0.471507 0.579720
O O6 0.609358 0.491853 0.444503
O O7 0.487741 0.652384 0.641070
O O8 0.120424 0.331341 0.301444
O O9 0.212492 0.495556 0.220970
O O10 0.131329 0.347831 0.138943
O O11 0.242797 0.527921 0.080056
O O12 0.503956 0.880055 0.031137
O O13 0.371712 0.696412 0.033909
O O14 0.398715 0.278979 0.911183
#
# Coordination Sequence:
#
# PCOD9544626 Si02
#       7
#     8   8   8   8   8   8   8
#     4   9  19  36  56  82 116 143 185 247 288 333
#     4  10  22  38  56  82 126 155 185 231 279 341
#     4  11  20  34  62  88 107 155 199 227 279 348
#     4   9  19  36  56  82 116 143 185 247 288 333
#     4   9  19  37  59  81 107 146 193 245 298 352
#     4  11  24  37  52  78 120 153 190 249 296 356
#     4   9  19  37  59  81 107 146 193 245 298 352
#
# _framework density 21.474781
#
# number of rings (size 3 to 8) (size 9 to 14) (size 15 to 20)
#    0.000    2.286    0.000    4.286    2.000    3.429 
#    7.714    0.000    0.000    6.857    0.000    0.000 
#    0.000    0.000    0.000    0.000    0.000    0.000 
#
# Total GULP energy -312147.106329 kJ/mol
# GULP energy per Si atom -5574.055470 kJ/mol
# Density = 2.142590 g / cm^3
# Si number density = 21.474781 Si / 1000 Ang^3
#
#
#
# Elastic Constant Matrix: (Units=GPa)
#
#
# Indices 1 2 3 4 5 6 
#
# 1 47.5353 12.5554 43.6312 0.0000 0.0000 3.6537
# 2 12.5554 47.5353 43.6312 0.0000 0.0000 -3.6537
# 3 43.6312 43.6312 127.5640 0.0000 0.0000 0.0000
# 4 0.0000 0.0000 0.0000 25.8003 0.0000 0.0000
# 5 0.0000 0.0000 0.0000 0.0000 25.8003 0.0000
# 6 3.6537 -3.6537 0.0000 0.0000 0.0000 12.3117
#
#
#
# Elastic Compliance Matrix: (Units=1/GPa)
#
#
# Indices 1 2 3 4 5 6 
#
# 1 0.031771 0.001294 -0.011309 0.000000 0.000000 -0.009045
# 2 0.001294 0.031771 -0.011309 0.000000 0.000000 0.009045
# 3 -0.011309 -0.011309 0.015575 0.000000 0.000000 0.000000
# 4 0.000000 0.000000 0.000000 0.038759 0.000000 0.000000
# 5 0.000000 0.000000 0.000000 0.000000 0.038759 0.000000
# 6 -0.009045 0.009045 0.000000 0.000000 0.000000 0.086592
#
#
# Mechanical properties :
#
#
# Convention : Reuss Voigt Hill
#
# Bulk Modulus (GPa) = 27.42152 46.91889 37.17020
# Shear Modulus (GPa) = 16.77665 20.97026 18.87345
#
# Velocity S-wave (km/s) = 2.79807 3.12830 2.96778
# Velocity P-wave (km/s) = 4.82036 5.91136 5.39351
#
# Compressibility (1/GPa) = 0.03646771
#
# Stress axis : x y z
#
# Youngs Moduli (GPa) = 31.47535 31.47535 64.20366
#
# Poissons Ratio (x) = -0.04072 0.72609
# Poissons Ratio (y) = -0.04072 0.72609
# Poissons Ratio (z) = 0.35596 0.35596
#
# Static dielectric constant tensor:
#      x y z
#    x 1.792510 0.000000 0.000000 
#    y 0.000000 1.792510 0.000000 
#    z 0.000000 0.000000 1.805020 
# 
# From -- ./inp_files/2254.got.cif
#   From: 2010.05.17/outbox.cif.g08.bks.cpg/sg85_cif.got.tgz:2254.got - 2010.06.03 19:01:16.
