data_PCOD9544974
_publ_section_title
;
Structure prediction by ZEFSAII (Michael W. Deem and Ramdas Pophale) SiO2 
 PCOD9544974
Probable space group: P 42/N
;
_chemical_formula_sum "Si O2"
_cell_formula_units_Z 56
_cell_length_a 12.328613
_cell_length_b 12.328613
_cell_length_c 19.393067
_cell_angle_alpha 90.000000
_cell_angle_beta 90.000000
_cell_angle_gamma 90.000000
_cell_volume 2947.643372
_symmetry_space_group_name_H-M "P 42/N"
_symmetry_group_IT_number 86
_space_group.IT_coordinate_system_code '2'
_symmetry_cell_setting 'tetragonal'
loop_
_space_group_symop_operation_xyz
x,y,z
-y,1/2+x,1/2+z
1/2-x,1/2-y,z
1/2+y,-x,1/2+z
-x,-y,-z
y,1/2-x,1/2-z
1/2+x,1/2+y,-z
1/2-y,x,1/2-z
loop_
_atom_site_type_symbol
_atom_site_label
_atom_site_fract_x
_atom_site_fract_y
_atom_site_fract_z
Si Si1 0.308074 0.420573 0.897427
Si Si2 0.088344 0.524874 0.441235
Si Si3 0.878125 0.240920 0.945980
Si Si4 0.870400 0.713451 0.558681
Si Si5 0.429806 0.989635 0.069709
Si Si6 0.084605 0.449521 0.817893
Si Si7 0.013077 0.204219 0.818752
O O1 0.379572 0.531981 0.897263
O O2 0.188579 0.433417 0.867522
O O3 0.374697 0.334359 0.853189
O O4 0.302720 0.379077 0.975866
O O5 0.190460 0.569278 0.485135
O O6 0.108152 0.405988 0.409196
O O7 0.000000 0.500000 0.500000
O O8 0.750000 0.250000 0.953342
O O9 0.915115 0.361426 0.930517
O O10 0.922375 0.181045 0.877322
O O11 0.750000 0.750000 0.576909
O O12 0.951921 0.813458 0.571564
O O13 0.499391 0.018048 0.137355
O O14 0.500000 0.000000 0.000000
O O15 0.031342 0.331422 0.801111
O O16 0.132195 0.502292 0.748983
#
# Coordination Sequence:
#
# PCOD9544974 Si02
#       7
#     8   8   8   8   8   8   8
#     4  11  20  33  58  90 123 154 197 246 304 369
#     4  10  20  34  55  89 113 157 194 245 299 358
#     4  11  22  37  59  88 122 160 200 249 315 365
#     4  11  20  37  61  86 117 155 205 249 304 370
#     4  11  23  35  58  88 123 157 194 256 308 363
#     4  11  22  35  57  92 126 157 196 252 316 360
#     4  11  21  35  59  88 125 161 199 247 306 376
#
# _framework density 18.998228000000001
#
# number of rings (size 3 to 8) (size 9 to 14) (size 15 to 20)
#    0.000    1.143    5.714    3.857    0.000    0.000 
#    0.000    0.000    6.286    0.000    0.000    0.000 
#    0.000    0.000    0.000    0.000    0.000    0.000 
#
# Total GULP energy -312197.796934 kJ/mol
# GULP energy per Si atom -5574.960660 kJ/mol
# Density = 1.895499 g / cm^3
# Si number density = 18.998228 Si / 1000 Ang^3
#
#
#
# Elastic Constant Matrix: (Units=GPa)
#
#
# Indices 1 2 3 4 5 6 
#
# 1 77.3063 18.3892 12.2866 0.0000 0.0000 -3.1828
# 2 18.3892 77.3063 12.2866 0.0000 0.0000 3.1828
# 3 12.2866 12.2866 54.6387 0.0000 0.0000 0.0000
# 4 0.0000 0.0000 0.0000 -7.5957 0.0000 0.0000
# 5 0.0000 0.0000 0.0000 0.0000 -7.5957 0.0000
# 6 -3.1828 3.1828 0.0000 0.0000 0.0000 28.0895
#
#
#
# Elastic Compliance Matrix: (Units=1/GPa)
#
#
# Indices 1 2 3 4 5 6 
#
# 1 0.014137 -0.003047 -0.002494 0.000000 0.000000 0.001947
# 2 -0.003047 0.014137 -0.002494 0.000000 0.000000 -0.001947
# 3 -0.002494 -0.002494 0.019424 0.000000 0.000000 0.000000
# 4 0.000000 0.000000 0.000000 -0.131654 0.000000 0.000000
# 5 0.000000 0.000000 0.000000 0.000000 -0.131654 0.000000
# 6 0.001947 -0.001947 0.000000 0.000000 0.000000 0.036042
#
#
# Mechanical properties :
#
#
# Convention : Reuss Voigt Hill
#
# Bulk Modulus (GPa) = 31.61693 32.79733 32.20713
# Shear Modulus (GPa) = -32.68881 13.66556 -9.51162
#
# Velocity S-wave (km/s) = -4.15254 2.68490 -2.23997
# Velocity P-wave (km/s) = 2.51263 5.18772 3.20929
#
# Compressibility (1/GPa) = 0.03162863
#
# Stress axis : x y z
#
# Youngs Moduli (GPa) = 70.73750 70.73750 51.48367
#
# Poissons Ratio (x) = 0.21551 0.12839
# Poissons Ratio (y) = 0.21551 0.12839
# Poissons Ratio (z) = 0.17641 0.17641
#
# Static dielectric constant tensor:
#      x y z
#    x 1.695280 0.000000 0.000000 
#    y 0.000000 1.695280 0.000000 
#    z 0.000000 0.000000 1.694630 
# 
# From -- ./inp_files/4657.got.cif
#   From: 2010.05.17/outbox.cif.g08.bks.cpg/sg86_3_cif.got.tgz:4657.got - 2010.06.03 19:03:11.
