data_PCOD9544419
_publ_section_title
;
Structure prediction by ZEFSAII (Michael W. Deem and Ramdas Pophale) SiO2 
 PCOD9544419
Probable space group: P 42/M
;
_chemical_formula_sum "Si O2"
_cell_formula_units_Z 48
_cell_length_a 8.741190
_cell_length_b 8.741190
_cell_length_c 29.997497
_cell_angle_alpha 90.000000
_cell_angle_beta 90.000000
_cell_angle_gamma 90.000000
_cell_volume 2292.060828
_symmetry_space_group_name_H-M "P 42/M"
_symmetry_group_IT_number 84
_symmetry_cell_setting 'tetragonal'
loop_
_space_group_symop_operation_xyz
x,y,z
-y,x,1/2+z
-x,-y,z
y,-x,1/2+z
-x,-y,-z
y,-x,1/2-z
x,y,-z
-y,x,1/2-z
loop_
_atom_site_type_symbol
_atom_site_label
_atom_site_fract_x
_atom_site_fract_y
_atom_site_fract_z
Si Si1 0.090436 0.636456 0.850444
Si Si2 0.215505 0.130875 0.739548
Si Si3 0.124415 0.123814 0.116372
Si Si4 0.636996 0.601171 0.388632
Si Si5 0.162691 0.587670 0.319685
Si Si6 0.069144 0.329358 0.448917
O O1 0.147032 0.750976 0.812444
O O2 0.239252 0.567989 0.872909
O O3 0.000000 0.500000 0.827304
O O4 0.977425 0.722580 0.884802
O O5 0.352273 0.197138 0.769954
O O6 0.051173 0.202576 0.750881
O O7 0.255510 0.144568 0.152694
O O8 0.211436 0.049592 0.074093
O O9 0.000000 0.000000 0.131101
O O10 0.500000 0.500000 0.408349
O O11 0.712829 0.510919 0.346808
O O12 0.775521 0.651062 0.420836
O O13 0.000000 0.500000 0.320539
O O14 0.097769 0.284828 0.500000
O O15 0.000000 0.500000 0.448077
#
# Coordination Sequence:
#
# PCOD9544419 Si02
#       6
#     8   8   8   8   8   8
#     4  12  26  42  64  99 133 179 225 280 337 398
#     4  11  23  37  64  97 131 173 230 283 322 381
#     4  12  20  41  69  95 129 171 221 276 337 392
#     4  12  25  45  68  93 138 180 217 273 348 413
#     4  12  21  40  65  93 128 182 226 273 329 396
#     4  11  24  44  74 104 129 170 226 279 340 420
#
# _framework density 20.941853999999999
#
# number of rings (size 3 to 8) (size 9 to 14) (size 15 to 20)
#    0.000    0.333    6.667    3.500    0.000    0.667 
#    0.000    0.000    0.000    1.000    0.000    0.000 
#    0.000    0.000    0.000    0.000    0.000    0.000 
#
# Total GULP energy -268194.869782 kJ/mol
# GULP energy per Si atom -5587.393120 kJ/mol
# Density = 2.089419 g / cm^3
# Si number density = 20.941854 Si / 1000 Ang^3
#
#
#
# Elastic Constant Matrix: (Units=GPa)
#
#
# Indices 1 2 3 4 5 6 
#
# 1 78.5840 14.3037 18.0381 0.0000 0.0000 -6.2395
# 2 14.3037 78.5840 18.0381 0.0000 0.0000 6.2395
# 3 18.0381 18.0381 91.7573 0.0000 0.0000 0.0000
# 4 0.0000 0.0000 0.0000 2.8553 0.0000 0.0000
# 5 0.0000 0.0000 0.0000 0.0000 2.8553 0.0000
# 6 -6.2395 6.2395 0.0000 0.0000 0.0000 43.4580
#
#
#
# Elastic Compliance Matrix: (Units=1/GPa)
#
#
# Indices 1 2 3 4 5 6 
#
# 1 0.013829 -0.002174 -0.002291 0.000000 0.000000 0.002298
# 2 -0.002174 0.013829 -0.002291 0.000000 0.000000 -0.002298
# 3 -0.002291 -0.002291 0.011799 0.000000 0.000000 0.000000
# 4 0.000000 0.000000 0.000000 0.350228 0.000000 0.000000
# 5 0.000000 0.000000 0.000000 0.000000 0.350228 0.000000
# 6 0.002298 -0.002298 0.000000 0.000000 0.000000 0.023670
#
#
# Mechanical properties :
#
#
# Convention : Reuss Voigt Hill
#
# Bulk Modulus (GPa) = 38.54289 38.85391 38.69840
# Shear Modulus (GPa) = 6.36339 23.07009 14.71674
#
# Velocity S-wave (km/s) = 1.74505 3.32268 2.65381
# Velocity P-wave (km/s) = 4.74394 5.77181 5.28293
#
# Compressibility (1/GPa) = 0.02594512
#
# Stress axis : x y z
#
# Youngs Moduli (GPa) = 72.31049 72.31049 84.75161
#
# Poissons Ratio (x) = 0.15718 0.19419
# Poissons Ratio (y) = 0.15718 0.19419
# Poissons Ratio (z) = 0.16569 0.16569
#
# Static dielectric constant tensor:
#      x y z
#    x 1.762830 0.000000 0.000000 
#    y 0.000000 1.762830 0.000000 
#    z 0.000000 0.000000 1.733190 
# 
# From -- ./inp_files/5756.got.cif
#   From: 2010.05.17/outbox.cif.g08.bks.cpg/sg84_3_cif.got.tgz:5756.got - 2010.06.03 18:57:40.
