data_PCOD9544250
_publ_section_title
;
Structure prediction by ZEFSAII (Michael W. Deem and Ramdas Pophale) SiO2 
 PCOD9544250
Probable space group: P 42/M
;
_chemical_formula_sum "Si O2"
_cell_formula_units_Z 48
_cell_length_a 17.079471
_cell_length_b 17.079471
_cell_length_c 9.158851
_cell_angle_alpha 90.000000
_cell_angle_beta 90.000000
_cell_angle_gamma 90.000000
_cell_volume 2671.713127
_symmetry_space_group_name_H-M "P 42/M"
_symmetry_group_IT_number 84
_symmetry_cell_setting 'tetragonal'
loop_
_space_group_symop_operation_xyz
x,y,z
-y,x,1/2+z
-x,-y,z
y,-x,1/2+z
-x,-y,-z
y,-x,1/2-z
x,y,-z
-y,x,1/2-z
loop_
_atom_site_type_symbol
_atom_site_label
_atom_site_fract_x
_atom_site_fract_y
_atom_site_fract_z
Si Si1 0.374293 0.008543 0.326483
Si Si2 0.215144 0.012115 0.164089
Si Si3 0.136849 0.846434 0.165211
Si Si4 0.835514 0.434785 0.673811
Si Si5 0.249166 0.727975 0.674034
Si Si6 0.175121 0.406323 0.174918
O O1 0.385540 0.016336 0.500000
O O2 0.285728 0.022767 0.275643
O O3 0.420703 0.078655 0.246721
O O4 0.390036 0.917037 0.287465
O O5 0.145430 0.065119 0.224133
O O6 0.189172 0.923255 0.163551
O O7 0.238879 0.035504 0.000000
O O8 0.188913 0.777484 0.230558
O O9 0.110763 0.831077 0.000000
O O10 0.845997 0.440898 0.500000
O O11 0.775743 0.362201 0.701088
O O12 0.802983 0.514863 0.741054
O O13 0.237412 0.741864 0.500000
O O14 0.334516 0.765459 0.708047
O O15 0.177345 0.418100 0.000000
#
# Coordination Sequence:
#
# PCOD9544250 Si02
#       6
#     8   8   8   8   8   8
#     4  11  21  35  58  86 115 153 193 232 285 344
#     4  11  23  37  55  81 113 149 195 246 289 333
#     4  11  23  37  57  82 109 151 199 241 286 340
#     4  11  23  37  58  88 120 151 188 237 288 341
#     4  10  21  39  60  83 114 152 187 233 290 341
#     4  10  22  39  59  84 117 154 191 232 285 346
#
# _framework density 17.966000999999999
#
# number of rings (size 3 to 8) (size 9 to 14) (size 15 to 20)
#    0.000    1.333    3.333    2.500    0.000    7.000 
#    0.000    1.667    0.000    0.500    0.000    3.500 
#    0.000    0.000    0.000    0.000    0.000    0.000 
#
# Total GULP energy -267735.630215 kJ/mol
# GULP energy per Si atom -5577.825629 kJ/mol
# Density = 1.792511 g / cm^3
# Si number density = 17.966001 Si / 1000 Ang^3
#
#
#
# Elastic Constant Matrix: (Units=GPa)
#
#
# Indices 1 2 3 4 5 6 
#
# 1 91.4311 52.4351 42.6203 0.0000 0.0000 -13.3991
# 2 52.4351 91.4311 42.6203 0.0000 0.0000 13.3991
# 3 42.6203 42.6203 52.2617 0.0000 0.0000 0.0000
# 4 0.0000 0.0000 0.0000 27.7965 0.0000 0.0000
# 5 0.0000 0.0000 0.0000 0.0000 27.7965 0.0000
# 6 -13.3991 13.3991 0.0000 0.0000 0.0000 1.5691
#
#
#
# Elastic Compliance Matrix: (Units=1/GPa)
#
#
# Indices 1 2 3 4 5 6 
#
# 1 0.004091 0.009359 -0.010968 0.000000 0.000000 -0.044981
# 2 0.009359 0.004091 -0.010968 0.000000 0.000000 0.044981
# 3 -0.010968 -0.010968 0.037024 0.000000 0.000000 0.000000
# 4 0.000000 0.000000 0.000000 0.035976 0.000000 0.000000
# 5 0.000000 0.000000 0.000000 0.000000 0.035976 0.000000
# 6 -0.044981 0.044981 0.000000 0.000000 0.000000 -0.130910
#
#
# Mechanical properties :
#
#
# Convention : Reuss Voigt Hill
#
# Bulk Modulus (GPa) = 49.87544 56.71950 53.29747
# Shear Modulus (GPa) = 276.42248 17.92896 147.17572
#
# Velocity S-wave (km/s) = 12.41743 3.16244 9.06073
# Velocity P-wave (km/s) = 15.27781 6.70625 11.79799
#
# Compressibility (1/GPa) = 0.02004995
#
# Stress axis : x y z
#
# Youngs Moduli (GPa) = 244.43536 244.43536 27.00921
#
# Poissons Ratio (x) = -2.28759 0.29625
# Poissons Ratio (y) = -2.28759 0.29625
# Poissons Ratio (z) = 2.68108 2.68108
#
# Static dielectric constant tensor:
#      x y z
#    x 1.629440 0.000000 0.000000 
#    y 0.000000 1.629440 0.000000 
#    z 0.000000 0.000000 1.608880 
# 
# From -- ./inp_files/1019.got.cif
#   From: 2010.05.17/outbox.cif.g08.bks.cpg/sg84_1_cif.got.tgz:1019.got - 2010.06.03 18:57:40.
