data_PCOD9544839
_publ_section_title
;
Structure prediction by ZEFSAII (Michael W. Deem and Ramdas Pophale) SiO2 
 PCOD9544839
Probable space group: P 4/N
;
_chemical_formula_sum "Si O2"
_cell_formula_units_Z 38
_cell_length_a 9.382452
_cell_length_b 9.382452
_cell_length_c 20.823524
_cell_angle_alpha 90.000000
_cell_angle_beta 90.000000
_cell_angle_gamma 90.000000
_cell_volume 1833.103262
_symmetry_space_group_name_H-M "P 4/N"
_symmetry_group_IT_number 85
_symmetry_cell_setting 'tetragonal'
loop_
_space_group_symop_operation_xyz
x,y,z
1/2-y,x,z
1/2-x,1/2-y,z
y,1/2-x,z
-x,-y,-z
1/2+y,-x,-z
1/2+x,1/2+y,-z
-y,1/2+x,-z
loop_
_atom_site_type_symbol
_atom_site_label
_atom_site_fract_x
_atom_site_fract_y
_atom_site_fract_z
Si Si1 0.174554 0.474049 0.264566
Si Si2 0.480114 0.304067 0.417271
Si Si3 0.159917 0.033517 0.811323
Si Si4 0.750000 0.250000 0.500000
Si Si5 0.526301 0.415892 0.066061
Si Si6 0.250000 0.250000 0.106671
Si Si7 0.250000 0.750000 0.000000
O O1 0.077457 0.334568 0.249387
O O2 0.178389 0.503135 0.340834
O O3 0.103367 0.603146 0.227050
O O4 0.352971 0.415073 0.431611
O O5 0.625647 0.317135 0.456091
O O6 0.323290 0.070069 0.796215
O O7 0.127470 0.003668 0.885951
O O8 0.384121 0.363829 0.100758
O O9 0.616178 0.279105 0.044448
O O10 0.500000 0.500000 0.000000
#
# Coordination Sequence:
#
# PCOD9544839 Si02
#       7
#     8   8   8   2   8   2   2
#     4   9  21  41  66  89 120 163 211 260 309 371
#     4   9  20  39  59  91 133 169 210 261 311 372
#     4  11  27  44  62  89 125 162 206 261 317 374
#     4  12  20  32  66 100 128 172 216 254 320 384
#     4  12  26  43  65  94 126 160 204 261 316 375
#     4  12  28  40  68  96 124 160 208 252 310 392
#     4  12  24  44  66  84 116 164 200 242 320 372
#
# _framework density 20.729876000000001
#
# number of rings (size 3 to 8) (size 9 to 14) (size 15 to 20)
#    0.000    1.474    2.105    3.158    2.947    4.211 
#    0.000    0.000    0.000    2.526    0.000    0.000 
#    0.000    0.000    0.000    0.000    0.000    0.000 
#
# Total GULP energy -211748.952258 kJ/mol
# GULP energy per Si atom -5572.340849 kJ/mol
# Density = 2.068269 g / cm^3
# Si number density = 20.729876 Si / 1000 Ang^3
#
#
#
# Elastic Constant Matrix: (Units=GPa)
#
#
# Indices 1 2 3 4 5 6 
#
# 1 56.3336 16.2809 30.6359 0.0000 0.0000 0.2648
# 2 16.2809 56.3336 30.6359 0.0000 0.0000 -0.2648
# 3 30.6359 30.6359 82.5432 0.0000 0.0000 0.0000
# 4 0.0000 0.0000 0.0000 23.4800 0.0000 0.0000
# 5 0.0000 0.0000 0.0000 0.0000 23.4800 0.0000
# 6 0.2648 -0.2648 0.0000 0.0000 0.0000 31.4754
#
#
#
# Elastic Compliance Matrix: (Units=1/GPa)
#
#
# Indices 1 2 3 4 5 6 
#
# 1 0.022510 -0.002460 -0.007442 0.000000 0.000000 -0.000210
# 2 -0.002460 0.022510 -0.007442 0.000000 0.000000 0.000210
# 3 -0.007442 -0.007442 0.017639 0.000000 0.000000 0.000000
# 4 0.000000 0.000000 0.000000 0.042589 0.000000 0.000000
# 5 0.000000 0.000000 0.000000 0.000000 0.042589 0.000000
# 6 -0.000210 0.000210 0.000000 0.000000 0.000000 0.031774
#
#
# Mechanical properties :
#
#
# Convention : Reuss Voigt Hill
#
# Bulk Modulus (GPa) = 35.74864 38.92398 37.33631
# Shear Modulus (GPa) = 22.35897 23.53090 22.94494
#
# Velocity S-wave (km/s) = 3.28775 3.37281 3.33055
# Velocity P-wave (km/s) = 5.62981 5.82969 5.73062
#
# Compressibility (1/GPa) = 0.02797309
#
# Stress axis : x y z
#
# Youngs Moduli (GPa) = 44.42405 44.42405 56.69275
#
# Poissons Ratio (x) = 0.10927 0.42190
# Poissons Ratio (y) = 0.10927 0.42190
# Poissons Ratio (z) = 0.33060 0.33060
#
# Static dielectric constant tensor:
#      x y z
#    x 1.781960 0.000000 0.000000 
#    y 0.000000 1.781960 0.000000 
#    z 0.000000 0.000000 1.745210 
# 
# From -- ./inp_files/2337.got.cif
#   From: 2010.05.17/outbox.cif.g08.bks.cpg/sg85_cif.got.tgz:2337.got - 2010.06.03 19:01:16.
