data_PCOD9544193
_publ_section_title
;
Structure prediction by ZEFSAII (Michael W. Deem and Ramdas Pophale) SiO2 
 PCOD9544193
Probable space group: P 42/M
;
_chemical_formula_sum "Si O2"
_cell_formula_units_Z 44
_cell_length_a 8.923302
_cell_length_b 8.923302
_cell_length_c 25.821242
_cell_angle_alpha 90.000000
_cell_angle_beta 90.000000
_cell_angle_gamma 90.000000
_cell_volume 2056.024620
_symmetry_space_group_name_H-M "P 42/M"
_symmetry_group_IT_number 84
_symmetry_cell_setting 'tetragonal'
loop_
_space_group_symop_operation_xyz
x,y,z
-y,x,1/2+z
-x,-y,z
y,-x,1/2+z
-x,-y,-z
y,-x,1/2-z
x,y,-z
-y,x,1/2-z
loop_
_atom_site_type_symbol
_atom_site_label
_atom_site_fract_x
_atom_site_fract_y
_atom_site_fract_z
Si Si1 0.218936 0.135215 0.500000
Si Si2 0.239889 0.803702 0.202742
Si Si3 0.285787 0.635136 0.597198
Si Si4 0.712307 0.370339 0.097038
Si Si5 0.000000 0.000000 0.250000
Si Si6 0.431342 0.186988 0.793714
Si Si7 0.787415 0.872712 0.000000
Si Si8 0.500000 0.500000 0.250000
O O1 0.313245 0.187168 0.549812
O O2 0.053691 0.211710 0.500000
O O3 0.185562 0.958528 0.500000
O O4 0.238318 0.717921 0.148561
O O5 0.190971 0.683944 0.246649
O O6 0.402713 0.884346 0.210601
O O7 0.121311 0.932153 0.211423
O O8 0.449223 0.713128 0.603796
O O9 0.321839 0.460114 0.586667
O O10 0.186936 0.640358 0.649660
O O11 0.194566 0.706313 0.550327
O O12 0.490454 0.360677 0.787899
#
# Coordination Sequence:
#
# PCOD9544193 Si02
#       8
#     4   8   8   8   2   8   4   2
#     4  11  26  43  56  80 128 173 200 239 300 366
#     4  10  22  40  63  91 124 160 199 244 299 358
#     4  10  20  38  68  97 116 146 204 264 305 352
#     4  10  21  40  66  94 121 152 198 257 310 357
#     4  12  28  40  52  86 136 172 200 236 288 366
#     4   9  17  36  65  92 118 152 197 249 300 349
#     4  11  26  43  60  86 122 165 206 245 296 362
#     4   8  12  28  60  94 120 140 180 240 304 350
#
# _framework density 21.400521999999999
#
# number of rings (size 3 to 8) (size 9 to 14) (size 15 to 20)
#    0.000    2.000    0.000    5.455    0.000    9.455 
#    0.000    5.455    0.000    0.000    0.000    0.000 
#    0.000    0.000    0.000    0.000    0.000    0.000 
#
# Total GULP energy -245796.095904 kJ/mol
# GULP energy per Si atom -5586.274907 kJ/mol
# Density = 2.135181 g / cm^3
# Si number density = 21.400522 Si / 1000 Ang^3
#
#
#
# Elastic Constant Matrix: (Units=GPa)
#
#
# Indices 1 2 3 4 5 6 
#
# 1 70.1599 63.2344 54.9611 0.0000 0.0000 2.2267
# 2 63.2344 70.1599 54.9611 0.0000 0.0000 -2.2267
# 3 54.9611 54.9611 170.9443 0.0000 0.0000 0.0000
# 4 0.0000 0.0000 0.0000 9.4043 0.0000 0.0000
# 5 0.0000 0.0000 0.0000 0.0000 9.4043 0.0000
# 6 2.2267 -2.2267 0.0000 0.0000 0.0000 40.9754
#
#
#
# Elastic Compliance Matrix: (Units=1/GPa)
#
#
# Indices 1 2 3 4 5 6 
#
# 1 0.079911 -0.069712 -0.003279 0.000000 0.000000 -0.008131
# 2 -0.069712 0.079911 -0.003279 0.000000 0.000000 0.008131
# 3 -0.003279 -0.003279 0.007958 0.000000 0.000000 0.000000
# 4 0.000000 0.000000 0.000000 0.106334 0.000000 0.000000
# 5 0.000000 0.000000 0.000000 0.000000 0.106334 0.000000
# 6 -0.008131 0.008131 0.000000 0.000000 0.000000 0.025289
#
#
# Mechanical properties :
#
#
# Convention : Reuss Voigt Hill
#
# Bulk Modulus (GPa) = 65.61876 73.06416 69.34146
# Shear Modulus (GPa) = 8.87538 21.16398 15.01968
#
# Velocity S-wave (km/s) = 2.03869 3.14816 2.65209
# Velocity P-wave (km/s) = 6.02250 6.88694 6.46918
#
# Compressibility (1/GPa) = 0.01523955
#
# Stress axis : x y z
#
# Youngs Moduli (GPa) = 12.51398 12.51398 125.65420
#
# Poissons Ratio (x) = 0.87238 0.41202
# Poissons Ratio (y) = 0.87238 0.41202
# Poissons Ratio (z) = 0.04103 0.04103
#
# Static dielectric constant tensor:
#      x y z
#    x 1.878580 0.000000 0.000000 
#    y 0.000000 1.878580 0.000000 
#    z 0.000000 0.000000 1.737310 
# 
# From -- ./inp_files/5724.got.cif
#   From: 2010.05.17/outbox.cif.g08.bks.cpg/sg84_3_cif.got.tgz:5724.got - 2010.06.03 18:57:40.
