data_PCOD9544737
_publ_section_title
;
Structure prediction by ZEFSAII (Michael W. Deem and Ramdas Pophale) SiO2 
 PCOD9544737
Probable space group: P 4/N
;
_chemical_formula_sum "Si O2"
_cell_formula_units_Z 64
_cell_length_a 21.052856
_cell_length_b 21.052856
_cell_length_c 8.328913
_cell_angle_alpha 90.000000
_cell_angle_beta 90.000000
_cell_angle_gamma 90.000000
_cell_volume 3691.563689
_symmetry_space_group_name_H-M "P 4/N"
_symmetry_group_IT_number 85
_symmetry_cell_setting 'tetragonal'
loop_
_space_group_symop_operation_xyz
x,y,z
1/2-y,x,z
1/2-x,1/2-y,z
y,1/2-x,z
-x,-y,-z
1/2+y,-x,-z
1/2+x,1/2+y,-z
-y,1/2+x,-z
loop_
_atom_site_type_symbol
_atom_site_label
_atom_site_fract_x
_atom_site_fract_y
_atom_site_fract_z
Si Si1 0.893164 0.319238 0.830368
Si Si2 0.914973 0.016504 0.266108
Si Si3 0.577130 0.020654 0.229127
Si Si4 0.619305 0.990047 0.591048
Si Si5 0.081804 0.812101 0.021081
Si Si6 0.384045 0.474907 0.368909
Si Si7 0.846470 0.285311 0.496421
Si Si8 0.029798 0.746951 0.707169
O O1 0.959249 0.357023 0.840351
O O2 0.843702 0.355585 0.943169
O O3 0.872197 0.325156 0.645794
O O4 0.899272 0.245379 0.864011
O O5 0.960675 0.076875 0.304143
O O6 0.891138 0.993705 0.441858
O O7 0.958327 0.963286 0.182567
O O8 0.526327 0.076027 0.265974
O O9 0.603920 0.003880 0.405471
O O10 0.632185 0.043270 0.110396
O O11 0.591918 0.921131 0.640111
O O12 0.692991 0.002340 0.612791
O O13 0.043042 0.775855 0.881910
O O14 0.312358 0.482741 0.310771
O O15 0.821982 0.216660 0.558374
O O16 0.902334 0.275391 0.368295
#
# Coordination Sequence:
#
# PCOD9544737 Si02
#       8
#     8   8   8   8   8   8   8   8
#     4  12  24  37  51  76 115 150 186 222 274 326
#     4   9  17  38  60  78 101 145 191 233 273 318
#     4   9  20  37  58  80 110 137 184 237 280 320
#     4   9  18  37  60  83 102 137 190 232 272 323
#     4  12  26  35  48  82 115 151 182 224 284 334
#     4   9  19  34  62  84 100 141 189 234 274 319
#     4  11  23  36  56  72 100 154 199 224 258 315
#     4  12  21  37  56  81 111 142 186 228 273 332
#
# _framework density 17.336825999999999
#
# number of rings (size 3 to 8) (size 9 to 14) (size 15 to 20)
#    0.000    1.625    3.750    3.000    5.250    0.750 
#    2.250    0.000    0.000    0.375    0.000    0.000 
#    0.000    0.500    0.000    0.000    0.000    0.000 
#
# Total GULP energy -357158.586038 kJ/mol
# GULP energy per Si atom -5580.602907 kJ/mol
# Density = 1.729737 g / cm^3
# Si number density = 17.336826 Si / 1000 Ang^3
#
#
#
# Elastic Constant Matrix: (Units=GPa)
#
#
# Indices 1 2 3 4 5 6 
#
# 1 63.3180 33.6930 25.1485 0.0000 0.0000 -0.1647
# 2 33.6930 63.3180 25.1485 0.0000 0.0000 0.1647
# 3 25.1485 25.1485 46.0053 0.0000 0.0000 0.0000
# 4 0.0000 0.0000 0.0000 28.0749 0.0000 0.0000
# 5 0.0000 0.0000 0.0000 0.0000 28.0749 0.0000
# 6 -0.1647 0.1647 0.0000 0.0000 0.0000 19.1981
#
#
#
# Elastic Compliance Matrix: (Units=1/GPa)
#
#
# Indices 1 2 3 4 5 6 
#
# 1 0.024072 -0.009687 -0.007863 0.000000 0.000000 0.000290
# 2 -0.009687 0.024072 -0.007863 0.000000 0.000000 -0.000290
# 3 -0.007863 -0.007863 0.030334 0.000000 0.000000 0.000000
# 4 0.000000 0.000000 0.000000 0.035619 0.000000 0.000000
# 5 0.000000 0.000000 0.000000 0.000000 0.035619 0.000000
# 6 0.000290 -0.000290 0.000000 0.000000 0.000000 0.052093
#
#
# Mechanical properties :
#
#
# Convention : Reuss Voigt Hill
#
# Bulk Modulus (GPa) = 36.16660 37.84680 37.00670
# Shear Modulus (GPa) = 19.09471 20.97968 20.03720
#
# Velocity S-wave (km/s) = 3.32233 3.48246 3.40333
# Velocity P-wave (km/s) = 5.96855 6.16828 6.06924
#
# Compressibility (1/GPa) = 0.02764982
#
# Stress axis : x y z
#
# Youngs Moduli (GPa) = 41.54246 41.54246 32.96669
#
# Poissons Ratio (x) = 0.40241 0.25923
# Poissons Ratio (y) = 0.40241 0.25923
# Poissons Ratio (z) = 0.32667 0.32667
#
# Static dielectric constant tensor:
#      x y z
#    x 1.602990 0.000000 0.000000 
#    y 0.000000 1.602990 0.000000 
#    z 0.000000 0.000000 1.645680 
# 
# From -- ./inp_files/1312.got.cif
#   From: 2010.05.17/outbox.cif.g08.bks.cpg/sg85_cif.got.tgz:1312.got - 2010.06.03 19:01:16.
