data_PCOD9544240
_publ_section_title
;
Structure prediction by ZEFSAII (Michael W. Deem and Ramdas Pophale) SiO2 
 PCOD9544240
Probable space group: P 42/M
;
_chemical_formula_sum "Si O2"
_cell_formula_units_Z 48
_cell_length_a 9.249010
_cell_length_b 9.249010
_cell_length_c 28.253763
_cell_angle_alpha 90.000000
_cell_angle_beta 90.000000
_cell_angle_gamma 90.000000
_cell_volume 2416.945157
_symmetry_space_group_name_H-M "P 42/M"
_symmetry_group_IT_number 84
_symmetry_cell_setting 'tetragonal'
loop_
_space_group_symop_operation_xyz
x,y,z
-y,x,1/2+z
-x,-y,z
y,-x,1/2+z
-x,-y,-z
y,-x,1/2-z
x,y,-z
-y,x,1/2-z
loop_
_atom_site_type_symbol
_atom_site_label
_atom_site_fract_x
_atom_site_fract_y
_atom_site_fract_z
Si Si1 0.654743 0.421892 0.392483
Si Si2 0.521614 0.166054 0.554926
Si Si3 0.054324 0.159545 0.635239
Si Si4 0.788690 0.672680 0.446500
Si Si5 0.196773 0.115782 0.268618
Si Si6 0.866686 0.388571 0.688920
O O1 0.500000 0.500000 0.391379
O O2 0.625177 0.260559 0.411585
O O3 0.754351 0.510820 0.429125
O O4 0.732072 0.437588 0.342069
O O5 0.573403 0.167983 0.500000
O O6 0.364931 0.243058 0.554956
O O7 0.500000 0.000000 0.569505
O O8 0.108619 0.248319 0.590604
O O9 0.177762 0.144808 0.675982
O O10 0.928227 0.248844 0.661055
O O11 0.000000 0.000000 0.623123
O O12 0.843220 0.675332 0.500000
O O13 0.338195 0.170479 0.241863
O O14 0.055014 0.184219 0.243207
O O15 0.000000 0.500000 0.689314
#
# Coordination Sequence:
#
# PCOD9544240 Si02
#       6
#     8   8   8   8   8   8
#     4  10  21  39  60  84 123 167 204 251 314 371
#     4   9  19  35  58  84 116 159 214 261 299 360
#     4  11  21  38  64  88 124 161 205 254 310 376
#     4  10  21  38  59  87 127 170 208 253 312 371
#     4   9  17  36  61  85 111 154 198 239 309 371
#     4  11  21  38  64  93 121 156 206 254 306 370
#
# _framework density 19.859780000000001
#
# number of rings (size 3 to 8) (size 9 to 14) (size 15 to 20)
#    0.000    2.000    5.000    0.500    2.333    2.333 
#    0.000   10.000    0.000    0.000    0.000    0.000 
#    0.000    0.000    0.000    0.000    0.000    0.000 
#
# Total GULP energy -267867.096932 kJ/mol
# GULP energy per Si atom -5580.564519 kJ/mol
# Density = 1.981458 g / cm^3
# Si number density = 19.859780 Si / 1000 Ang^3
#
#
#
# Elastic Constant Matrix: (Units=GPa)
#
#
# Indices 1 2 3 4 5 6 
#
# 1 60.3047 8.6163 32.0813 0.0000 0.0000 -3.7185
# 2 8.6163 60.3047 32.0813 0.0000 0.0000 3.7185
# 3 32.0813 32.0813 125.8872 0.0000 0.0000 0.0000
# 4 0.0000 0.0000 0.0000 14.5884 0.0000 0.0000
# 5 0.0000 0.0000 0.0000 0.0000 14.5884 0.0000
# 6 -3.7185 3.7185 0.0000 0.0000 0.0000 14.2195
#
#
#
# Elastic Compliance Matrix: (Units=1/GPa)
#
#
# Indices 1 2 3 4 5 6 
#
# 1 0.019563 -0.000540 -0.004848 0.000000 0.000000 0.005257
# 2 -0.000540 0.019563 -0.004848 0.000000 0.000000 -0.005257
# 3 -0.004848 -0.004848 0.010414 0.000000 0.000000 0.000000
# 4 0.000000 0.000000 0.000000 0.068548 0.000000 0.000000
# 5 0.000000 0.000000 0.000000 0.000000 0.068548 0.000000
# 6 0.005257 -0.005257 0.000000 0.000000 0.000000 0.073076
#
#
# Mechanical properties :
#
#
# Convention : Reuss Voigt Hill
#
# Bulk Modulus (GPa) = 34.40163 43.56158 38.98160
# Shear Modulus (GPa) = 17.24898 20.26041 18.75470
#
# Velocity S-wave (km/s) = 2.95029 3.19748 3.07637
# Velocity P-wave (km/s) = 5.38196 5.96775 5.68241
#
# Compressibility (1/GPa) = 0.02906839
#
# Stress axis : x y z
#
# Youngs Moduli (GPa) = 51.11760 51.11760 96.02078
#
# Poissons Ratio (x) = 0.02762 0.46548
# Poissons Ratio (y) = 0.02762 0.46548
# Poissons Ratio (z) = 0.24780 0.24780
#
# Static dielectric constant tensor:
#      x y z
#    x 1.711570 0.000000 0.000000 
#    y 0.000000 1.711570 0.000000 
#    z 0.000000 0.000000 1.716610 
# 
# From -- ./inp_files/5776.got.cif
#   From: 2010.05.17/outbox.cif.g08.bks.cpg/sg84_3_cif.got.tgz:5776.got - 2010.06.03 18:57:40.
