data_PCOD9544780
_publ_section_title
;
Structure prediction by ZEFSAII (Michael W. Deem and Ramdas Pophale) SiO2 
 PCOD9544780
Probable space group: P 4/N
;
_chemical_formula_sum "Si O2"
_cell_formula_units_Z 48
_cell_length_a 9.681863
_cell_length_b 9.681863
_cell_length_c 28.707727
_cell_angle_alpha 90.000000
_cell_angle_beta 90.000000
_cell_angle_gamma 90.000000
_cell_volume 2691.018439
_symmetry_space_group_name_H-M "P 4/N"
_symmetry_group_IT_number 85
_symmetry_cell_setting 'tetragonal'
loop_
_space_group_symop_operation_xyz
x,y,z
1/2-y,x,z
1/2-x,1/2-y,z
y,1/2-x,z
-x,-y,-z
1/2+y,-x,-z
1/2+x,1/2+y,-z
-y,1/2+x,-z
loop_
_atom_site_type_symbol
_atom_site_label
_atom_site_fract_x
_atom_site_fract_y
_atom_site_fract_z
Si Si1 0.587466 0.375322 0.481277
Si Si2 0.936681 0.887485 0.856475
Si Si3 0.420946 0.406824 0.036798
Si Si4 0.836654 0.534631 0.621157
Si Si5 0.142574 0.046754 0.678630
Si Si6 0.372709 0.441820 0.789598
O O1 0.500000 0.500000 0.500000
O O2 0.747277 0.419056 0.482933
O O3 0.526472 0.339019 0.431151
O O4 0.777951 0.935216 0.850450
O O5 0.968595 0.930009 0.909825
O O6 0.041759 0.952051 0.820098
O O7 0.257961 0.437263 0.030994
O O8 0.500000 0.500000 0.000000
O O9 0.923062 0.676953 0.628521
O O10 0.915704 0.422943 0.652859
O O11 0.305380 0.069278 0.667407
O O12 0.121623 0.030892 0.734201
O O13 0.209974 0.434079 0.799980
#
# Coordination Sequence:
#
# PCOD9544780 Si02
#       6
#     8   8   8   8   8   8
#     4  11  24  41  62  88 118 151 187 228 274 325
#     4   9  19  35  54  77 109 146 185 229 278 333
#     4   9  19  35  52  74 107 145 185 231 280 332
#     4  11  24  41  60  86 119 150 184 230 277 325
#     4   9  21  40  61  85 113 148 186 228 278 332
#     4   9  19  37  57  81 113 144 182 229 278 332
#
# _framework density 17.837112999999999
#
# number of rings (size 3 to 8) (size 9 to 14) (size 15 to 20)
#    0.000    2.333    1.667    2.000    2.333    4.667 
#    0.000   10.000    0.000    0.000    0.000    0.000 
#    0.000    0.000    0.000    0.000    0.000    0.000 
#
# Total GULP energy -267564.403077 kJ/mol
# GULP energy per Si atom -5574.258397 kJ/mol
# Density = 1.779651 g / cm^3
# Si number density = 17.837113 Si / 1000 Ang^3
#
#
#
# Elastic Constant Matrix: (Units=GPa)
#
#
# Indices 1 2 3 4 5 6 
#
# 1 38.7194 25.6873 17.5531 0.0000 0.0000 -0.5579
# 2 25.6873 38.7194 17.5531 0.0000 0.0000 0.5579
# 3 17.5531 17.5531 40.0719 0.0000 0.0000 0.0000
# 4 0.0000 0.0000 0.0000 36.6207 0.0000 0.0000
# 5 0.0000 0.0000 0.0000 0.0000 36.6207 0.0000
# 6 -0.5579 0.5579 0.0000 0.0000 0.0000 39.2722
#
#
#
# Elastic Compliance Matrix: (Units=1/GPa)
#
#
# Indices 1 2 3 4 5 6 
#
# 1 0.048612 -0.028215 -0.008934 0.000000 0.000000 0.001091
# 2 -0.028215 0.048612 -0.008934 0.000000 0.000000 -0.001091
# 3 -0.008934 -0.008934 0.032782 0.000000 0.000000 0.000000
# 4 0.000000 0.000000 0.000000 0.027307 0.000000 0.000000
# 5 0.000000 0.000000 0.000000 0.000000 0.027307 0.000000
# 6 0.001091 -0.001091 0.000000 0.000000 0.000000 0.025494
#
#
# Mechanical properties :
#
#
# Convention : Reuss Voigt Hill
#
# Bulk Modulus (GPa) = 26.42894 26.56642 26.49768
# Shear Modulus (GPa) = 15.87830 26.28387 21.08108
#
# Velocity S-wave (km/s) = 2.98683 3.84285 3.44156
# Velocity P-wave (km/s) = 5.17145 5.88355 5.53896
#
# Compressibility (1/GPa) = 0.03783731
#
# Stress axis : x y z
#
# Youngs Moduli (GPa) = 20.57117 20.57117 30.50416
#
# Poissons Ratio (x) = 0.58043 0.27254
# Poissons Ratio (y) = 0.58043 0.27254
# Poissons Ratio (z) = 0.18379 0.18379
#
# Static dielectric constant tensor:
#      x y z
#    x 1.573780 0.000000 0.000000 
#    y 0.000000 1.573780 0.000000 
#    z 0.000000 0.000000 1.580730 
# 
# From -- ./inp_files/2418.got.cif
#   From: 2010.05.17/outbox.cif.g08.bks.cpg/sg85_cif.got.tgz:2418.got - 2010.06.03 19:01:16.
