data_PCOD9544305
_publ_section_title
;
Structure prediction by ZEFSAII (Michael W. Deem and Ramdas Pophale) SiO2 
 PCOD9544305
Probable space group: P 42/M
;
_chemical_formula_sum "Si O2"
_cell_formula_units_Z 56
_cell_length_a 12.166630
_cell_length_b 12.166630
_cell_length_c 18.368470
_cell_angle_alpha 90.000000
_cell_angle_beta 90.000000
_cell_angle_gamma 90.000000
_cell_volume 2719.027407
_symmetry_space_group_name_H-M "P 42/M"
_symmetry_group_IT_number 84
_symmetry_cell_setting 'tetragonal'
loop_
_space_group_symop_operation_xyz
x,y,z
-y,x,1/2+z
-x,-y,z
y,-x,1/2+z
-x,-y,-z
y,-x,1/2-z
x,y,-z
-y,x,1/2-z
loop_
_atom_site_type_symbol
_atom_site_label
_atom_site_fract_x
_atom_site_fract_y
_atom_site_fract_z
Si Si1 0.210043 0.602216 0.417872
Si Si2 0.197050 0.285037 0.305157
Si Si3 0.385847 0.030143 0.207397
Si Si4 0.831553 0.716726 0.137266
Si Si5 0.513672 0.793049 0.418286
Si Si6 0.284992 0.076191 0.361303
Si Si7 0.391562 0.432985 0.639834
O O1 0.172402 0.578029 0.500000
O O2 0.119420 0.591733 0.354564
O O3 0.242689 0.730335 0.410729
O O4 0.313937 0.522806 0.400029
O O5 0.185291 0.249756 0.221061
O O6 0.207426 0.182205 0.359607
O O7 0.303776 0.365971 0.309533
O O8 0.083290 0.342525 0.325469
O O9 0.312678 0.065845 0.275236
O O10 0.500000 0.000000 0.244188
O O11 0.819915 0.584961 0.135780
O O12 0.954815 0.749183 0.113957
O O13 0.471340 0.802956 0.500000
O O14 0.609172 0.880776 0.404305
O O15 0.559410 0.669413 0.406267
O O16 0.500000 0.500000 0.667189
#
# Coordination Sequence:
#
# PCOD9544305 Si02
#       7
#     8   8   8   8   8   8   8
#     4  12  25  41  63  95 132 171 213 257 320 386
#     4  10  22  42  65  94 123 161 216 270 312 370
#     4  11  21  42  67  92 126 169 219 265 310 379
#     4  11  22  39  62  89 126 166 211 260 318 374
#     4  11  23  38  59  92 132 170 206 251 317 385
#     4  10  22  40  64  91 122 164 216 267 314 372
#     4  11  23  40  62  92 132 166 205 253 314 378
#
# _framework density 20.595597999999999
#
# number of rings (size 3 to 8) (size 9 to 14) (size 15 to 20)
#    0.000    1.143    4.286    3.000    0.000    2.571 
#    2.571    1.429    0.000    0.857    0.000    0.000 
#    0.000    0.000    0.000    0.000    0.000    0.000 
#
# Total GULP energy -312197.723306 kJ/mol
# GULP energy per Si atom -5574.959345 kJ/mol
# Density = 2.054872 g / cm^3
# Si number density = 20.595598 Si / 1000 Ang^3
#
#
#
# Elastic Constant Matrix: (Units=GPa)
#
#
# Indices 1 2 3 4 5 6 
#
# 1 95.8780 24.4217 3.2113 0.0000 0.0000 -3.0972
# 2 24.4217 95.8780 3.2113 0.0000 0.0000 3.0972
# 3 3.2113 3.2113 47.5904 0.0000 0.0000 0.0000
# 4 0.0000 0.0000 0.0000 -25.3955 0.0000 0.0000
# 5 0.0000 0.0000 0.0000 0.0000 -25.3955 0.0000
# 6 -3.0972 3.0972 0.0000 0.0000 0.0000 20.0033
#
#
#
# Elastic Compliance Matrix: (Units=1/GPa)
#
#
# Indices 1 2 3 4 5 6 
#
# 1 0.011264 -0.002921 -0.000563 0.000000 0.000000 0.002196
# 2 -0.002921 0.011264 -0.000563 0.000000 0.000000 -0.002196
# 3 -0.000563 -0.000563 0.021089 0.000000 0.000000 0.000000
# 4 0.000000 0.000000 0.000000 -0.039377 0.000000 0.000000
# 5 0.000000 0.000000 0.000000 0.000000 -0.039377 0.000000
# 6 0.002196 -0.002196 0.000000 0.000000 0.000000 0.050672
#
#
# Mechanical properties :
#
#
# Convention : Reuss Voigt Hill
#
# Bulk Modulus (GPa) = 28.15149 33.44833 30.79991
# Shear Modulus (GPa) = 140.96939 7.74262 74.35600
#
# Velocity S-wave (km/s) = 8.28221 1.94101 6.01508
# Velocity P-wave (km/s) = 10.25467 4.61510 7.95165
#
# Compressibility (1/GPa) = 0.03552210
#
# Stress axis : x y z
#
# Youngs Moduli (GPa) = 88.78002 88.78002 47.41900
#
# Poissons Ratio (x) = 0.25934 0.02669
# Poissons Ratio (y) = 0.25934 0.02669
# Poissons Ratio (z) = 0.04998 0.04998
#
# Static dielectric constant tensor:
#      x y z
#    x 1.766870 0.000000 0.000000 
#    y 0.000000 1.766870 0.000000 
#    z 0.000000 0.000000 1.718700 
# 
# From -- ./inp_files/4488.got.cif
#   From: 2010.05.17/outbox.cif.g08.bks.cpg/sg84_3_cif.got.tgz:4488.got - 2010.06.03 18:57:40.
