data_PCOD9544784
_publ_section_title
;
Structure prediction by ZEFSAII (Michael W. Deem and Ramdas Pophale) SiO2 
 PCOD9544784
Probable space group: P 4/N
;
_chemical_formula_sum "Si O2"
_cell_formula_units_Z 50
_cell_length_a 8.870420
_cell_length_b 8.870420
_cell_length_c 32.190307
_cell_angle_alpha 90.000000
_cell_angle_beta 90.000000
_cell_angle_gamma 90.000000
_cell_volume 2532.873414
_symmetry_space_group_name_H-M "P 4/N"
_symmetry_group_IT_number 85
_symmetry_cell_setting 'tetragonal'
loop_
_space_group_symop_operation_xyz
x,y,z
1/2-y,x,z
1/2-x,1/2-y,z
y,1/2-x,z
-x,-y,-z
1/2+y,-x,-z
1/2+x,1/2+y,-z
-y,1/2+x,-z
loop_
_atom_site_type_symbol
_atom_site_label
_atom_site_fract_x
_atom_site_fract_y
_atom_site_fract_z
Si Si1 0.603057 0.959741 0.622468
Si Si2 0.044056 0.399762 0.878537
Si Si3 0.121877 0.030613 0.787850
Si Si4 0.939646 0.581935 0.458918
Si Si5 0.413236 0.665522 0.706374
Si Si6 0.582283 0.938270 0.959253
Si Si7 0.250000 0.250000 0.286802
O O1 0.549332 0.785648 0.622696
O O2 0.530446 0.026847 0.581322
O O3 0.571343 0.058015 0.663724
O O4 0.048474 0.218408 0.880478
O O5 0.971890 0.430968 0.833175
O O6 0.968639 0.476958 0.917678
O O7 0.302209 0.052587 0.786572
O O8 0.086610 0.931907 0.748241
O O9 0.954587 0.762221 0.458619
O O10 0.000000 0.500000 0.500000
O O11 0.250000 0.750000 0.703347
O O12 0.563887 0.768118 0.711121
O O13 0.545515 0.761659 0.959806
O O14 0.500000 0.000000 0.000000
#
# Coordination Sequence:
#
# PCOD9544784 Si02
#       7
#     8   8   8   8   8   8   2
#     4  11  24  44  67  97 135 176 228 289 347 417
#     4   9  19  40  65  90 124 167 216 276 335 400
#     4   9  20  40  64  93 132 179 234 285 346 423
#     4  11  26  45  68 101 136 178 232 288 351 431
#     4  12  24  42  69  99 140 190 236 290 370 422
#     4  11  24  41  60  91 126 164 213 271 338 409
#     4  12  24  48  60 104 144 172 240 300 336 432
#
# _framework density 19.740424999999998
#
# number of rings (size 3 to 8) (size 9 to 14) (size 15 to 20)
#    0.000    1.440    1.600    3.840    2.240    6.400 
#    8.640    1.600    0.000    0.000    0.000    0.000 
#    0.000    0.000    0.000    0.000    0.000    0.000 
#
# Total GULP energy -278455.480543 kJ/mol
# GULP energy per Si atom -5569.109611 kJ/mol
# Density = 1.969550 g / cm^3
# Si number density = 19.740425 Si / 1000 Ang^3
#
#
#
# Elastic Constant Matrix: (Units=GPa)
#
#
# Indices 1 2 3 4 5 6 
#
# 1 86.1172 76.7384 96.1586 0.0000 0.0000 0.2941
# 2 76.7384 86.1172 96.1586 0.0000 0.0000 -0.2941
# 3 96.1586 96.1586 254.7115 0.0000 0.0000 0.0000
# 4 0.0000 0.0000 0.0000 38.8006 0.0000 0.0000
# 5 0.0000 0.0000 0.0000 0.0000 38.8006 0.0000
# 6 0.2941 -0.2941 0.0000 0.0000 0.0000 21.8268
#
#
#
# Elastic Compliance Matrix: (Units=1/GPa)
#
#
# Indices 1 2 3 4 5 6 
#
# 1 0.058897 -0.047817 -0.004183 0.000000 0.000000 -0.001438
# 2 -0.047817 0.058897 -0.004183 0.000000 0.000000 0.001438
# 3 -0.004183 -0.004183 0.007084 0.000000 0.000000 0.000000
# 4 0.000000 0.000000 0.000000 0.025773 0.000000 0.000000
# 5 0.000000 0.000000 0.000000 0.000000 0.025773 0.000000
# 6 -0.001438 0.001438 0.000000 0.000000 0.000000 0.045854
#
#
# Mechanical properties :
#
#
# Convention : Reuss Voigt Hill
#
# Bulk Modulus (GPa) = 79.91906 107.22860 93.57383
# Shear Modulus (GPa) = 14.75738 30.41164 22.58451
#
# Velocity S-wave (km/s) = 2.73714 3.92928 3.38609
# Velocity P-wave (km/s) = 7.11070 8.66157 7.92417
#
# Compressibility (1/GPa) = 0.01251266
#
# Stress axis : x y z
#
# Youngs Moduli (GPa) = 16.97885 16.97885 141.15723
#
# Poissons Ratio (x) = 0.81187 0.59045
# Poissons Ratio (y) = 0.81187 0.59045
# Poissons Ratio (z) = 0.07102 0.07102
#
# Static dielectric constant tensor:
#      x y z
#    x 1.634150 0.000000 0.000000 
#    y 0.000000 1.634150 0.000000 
#    z 0.000000 0.000000 1.723510 
# 
# From -- ./inp_files/2469.got.cif
#   From: 2010.05.17/outbox.cif.g08.bks.cpg/sg85_cif.got.tgz:2469.got - 2010.06.03 19:01:16.
