data_PCOD9544227
_publ_section_title
;
Structure prediction by ZEFSAII (Michael W. Deem and Ramdas Pophale) SiO2 
 PCOD9544227
Probable space group: P 42/M
;
_chemical_formula_sum "Si O2"
_cell_formula_units_Z 58
_cell_length_a 18.636437
_cell_length_b 18.636437
_cell_length_c 7.774852
_cell_angle_alpha 90.000000
_cell_angle_beta 90.000000
_cell_angle_gamma 90.000000
_cell_volume 2700.336593
_symmetry_space_group_name_H-M "P 42/M"
_symmetry_group_IT_number 84
_symmetry_cell_setting 'tetragonal'
loop_
_space_group_symop_operation_xyz
x,y,z
-y,x,1/2+z
-x,-y,z
y,-x,1/2+z
-x,-y,-z
y,-x,1/2-z
x,y,-z
-y,x,1/2-z
loop_
_atom_site_type_symbol
_atom_site_label
_atom_site_fract_x
_atom_site_fract_y
_atom_site_fract_z
Si Si1 0.880867 0.665650 0.797297
Si Si2 0.827193 0.869156 0.198509
Si Si3 0.256986 0.738974 0.187185
Si Si4 0.279111 0.495946 0.801082
Si Si5 0.495835 0.115168 0.707307
Si Si6 0.500000 0.000000 0.000000
Si Si7 0.972192 0.795011 0.206984
Si Si8 0.367847 0.361909 0.193521
O O1 0.812089 0.697203 0.701643
O O2 0.890872 0.582231 0.772423
O O3 0.948951 0.713970 0.749095
O O4 0.867431 0.677956 0.000000
O O5 0.764127 0.824152 0.286080
O O6 0.904870 0.843533 0.264599
O O7 0.817607 0.953096 0.215224
O O8 0.825081 0.846955 0.000000
O O9 0.292445 0.683193 0.313705
O O10 0.264858 0.705740 0.000000
O O11 0.198987 0.518205 0.740664
O O12 0.335128 0.560691 0.785827
O O13 0.318878 0.425387 0.726412
O O14 0.265163 0.476477 0.000000
O O15 0.478185 0.104245 0.500000
O O16 0.470041 0.056174 0.844969
O O17 0.979228 0.800918 0.000000
O O18 0.388384 0.384207 0.000000
#
# Coordination Sequence:
#
# PCOD9544227 Si02
#       8
#     8   8   8   8   8   2   8   8
#     4   9  18  37  63  85 114 159 205 254 313 376
#     4  10  21  37  55  81 117 156 199 256 318 380
#     4  11  21  35  61  90 118 154 208 259 310 383
#     4  10  23  43  67  97 134 178 219 275 342 397
#     4  10  22  44  67  91 136 178 217 276 333 395
#     4  12  26  40  68 102 132 174 234 258 332 406
#     4   9  19  35  55  80 113 151 200 252 311 374
#     4  11  23  41  67  95 130 172 217 269 331 396
#
# _framework density 21.478804
#
# number of rings (size 3 to 8) (size 9 to 14) (size 15 to 20)
#    0.000    1.931    1.379    3.103    1.931    4.414 
#    2.483    2.759    0.000    0.000    0.000    0.000 
#    0.000    0.000    0.000    0.000    0.000    0.000 
#
# Total GULP energy -322963.946281 kJ/mol
# GULP energy per Si atom -5568.343901 kJ/mol
# Density = 2.142992 g / cm^3
# Si number density = 21.478804 Si / 1000 Ang^3
#
#
#
# Elastic Constant Matrix: (Units=GPa)
#
#
# Indices 1 2 3 4 5 6 
#
# 1 61.0501 31.3391 7.9677 0.0000 0.0000 -7.2154
# 2 31.3391 61.0501 7.9677 0.0000 0.0000 7.2154
# 3 7.9677 7.9677 59.3841 0.0000 0.0000 0.0000
# 4 0.0000 0.0000 0.0000 22.8139 0.0000 0.0000
# 5 0.0000 0.0000 0.0000 0.0000 22.8139 0.0000
# 6 -7.2154 7.2154 0.0000 0.0000 0.0000 8.2029
#
#
#
# Elastic Compliance Matrix: (Units=1/GPa)
#
#
# Indices 1 2 3 4 5 6 
#
# 1 0.034922 -0.023841 -0.001487 0.000000 0.000000 0.051689
# 2 -0.023841 0.034922 -0.001487 0.000000 0.000000 -0.051689
# 3 -0.001487 -0.001487 0.017238 0.000000 0.000000 0.000000
# 4 0.000000 0.000000 0.000000 0.043833 0.000000 0.000000
# 5 0.000000 0.000000 0.000000 0.000000 0.043833 0.000000
# 6 0.051689 -0.051689 0.000000 0.000000 0.000000 0.212840
#
#
# Mechanical properties :
#
#
# Convention : Reuss Voigt Hill
#
# Bulk Modulus (GPa) = 29.89339 30.67039 30.28189
# Shear Modulus (GPa) = 11.05296 19.71348 15.38322
#
# Velocity S-wave (km/s) = 2.27094 3.03283 2.67910
# Velocity P-wave (km/s) = 4.56334 5.15504 4.86819
#
# Compressibility (1/GPa) = 0.03345221
#
# Stress axis : x y z
#
# Youngs Moduli (GPa) = 28.63552 28.63552 58.00982
#
# Poissons Ratio (x) = 0.68271 0.08624
# Poissons Ratio (y) = 0.68271 0.08624
# Poissons Ratio (z) = 0.04257 0.04257
#
# Static dielectric constant tensor:
#      x y z
#    x 1.774690 0.000000 0.000000 
#    y 0.000000 1.774690 0.000000 
#    z 0.000000 0.000000 1.798050 
# 
# From -- ./inp_files/1132.got.cif
#   From: 2010.05.17/outbox.cif.g08.bks.cpg/sg84_1_cif.got.tgz:1132.got - 2010.06.03 18:57:40.
