data_PCOD9544834
_publ_section_title
;
Structure prediction by ZEFSAII (Michael W. Deem and Ramdas Pophale) SiO2 
 PCOD9544834
Probable space group: P 4/N
;
_chemical_formula_sum "Si O2"
_cell_formula_units_Z 26
_cell_length_a 12.956619
_cell_length_b 12.956619
_cell_length_c 6.984891
_cell_angle_alpha 90.000000
_cell_angle_beta 90.000000
_cell_angle_gamma 90.000000
_cell_volume 1172.581423
_symmetry_space_group_name_H-M "P 4/N"
_symmetry_group_IT_number 85
_symmetry_cell_setting 'tetragonal'
loop_
_space_group_symop_operation_xyz
x,y,z
1/2-y,x,z
1/2-x,1/2-y,z
y,1/2-x,z
-x,-y,-z
1/2+y,-x,-z
1/2+x,1/2+y,-z
-y,1/2+x,-z
loop_
_atom_site_type_symbol
_atom_site_label
_atom_site_fract_x
_atom_site_fract_y
_atom_site_fract_z
Si Si1 0.946557 0.413501 0.870001
Si Si2 0.716842 0.436461 0.764599
Si Si3 0.672435 0.594809 0.459080
Si Si4 0.750000 0.250000 0.500000
O O1 0.839877 0.450262 0.777084
O O2 0.022238 0.370554 0.707886
O O3 0.921883 0.323687 0.022128
O O4 0.000000 0.500000 0.000000
O O5 0.662989 0.532653 0.658401
O O6 0.698386 0.335756 0.634489
O O7 0.794917 0.617143 0.443535
#
# Coordination Sequence:
#
# PCOD9544834 Si02
#       4
#     8   8   8   2
#     4  12  26  43  73 104 143 186 240 294 360 430
#     4  12  25  44  68 104 140 184 235 296 358 423
#     4  11  26  47  70 101 143 189 238 294 362 436
#     4  12  24  42  68 100 142 172 236 298 352 420
#
# _framework density 22.173300000000001
#
# number of rings (size 3 to 8) (size 9 to 14) (size 15 to 20)
#    0.000    0.308    3.077    5.538    4.308    2.462 
#    0.000    3.077    0.000    0.000    0.000    0.000 
#    0.000    0.000    0.000    0.000    0.000    0.000 
#
# Total GULP energy -145654.512668 kJ/mol
# GULP energy per Si atom -5602.096641 kJ/mol
# Density = 2.212283 g / cm^3
# Si number density = 22.173300 Si / 1000 Ang^3
#
#
#
# Elastic Constant Matrix: (Units=GPa)
#
#
# Indices 1 2 3 4 5 6 
#
# 1 82.3591 21.8066 32.0356 0.0000 0.0000 -7.8394
# 2 21.8066 82.3591 32.0356 0.0000 0.0000 7.8394
# 3 32.0356 32.0356 108.3780 0.0000 0.0000 0.0000
# 4 0.0000 0.0000 0.0000 39.7610 0.0000 0.0000
# 5 0.0000 0.0000 0.0000 0.0000 39.7610 0.0000
# 6 -7.8394 7.8394 0.0000 0.0000 0.0000 33.9820
#
#
#
# Elastic Compliance Matrix: (Units=1/GPa)
#
#
# Indices 1 2 3 4 5 6 
#
# 1 0.014649 -0.002915 -0.003468 0.000000 0.000000 0.004052
# 2 -0.002915 0.014649 -0.003468 0.000000 0.000000 -0.004052
# 3 -0.003468 -0.003468 0.011277 0.000000 0.000000 0.000000
# 4 0.000000 0.000000 0.000000 0.025150 0.000000 0.000000
# 5 0.000000 0.000000 0.000000 0.000000 0.025150 0.000000
# 6 0.004052 -0.004052 0.000000 0.000000 0.000000 0.031297
#
#
# Mechanical properties :
#
#
# Convention : Reuss Voigt Hill
#
# Bulk Modulus (GPa) = 47.91340 49.42797 48.67068
# Shear Modulus (GPa) = 33.59486 35.18203 34.38845
#
# Velocity S-wave (km/s) = 3.89666 3.98764 3.94241
# Velocity P-wave (km/s) = 6.47308 6.59862 6.53615
#
# Compressibility (1/GPa) = 0.02087099
#
# Stress axis : x y z
#
# Youngs Moduli (GPa) = 68.26613 68.26613 88.67333
#
# Poissons Ratio (x) = 0.19901 0.30754
# Poissons Ratio (y) = 0.19901 0.30754
# Poissons Ratio (z) = 0.23677 0.23677
#
# Static dielectric constant tensor:
#      x y z
#    x 1.832940 0.000000 0.000000 
#    y 0.000000 1.832940 0.000000 
#    z 0.000000 0.000000 1.752780 
# 
# From -- ./inp_files/136.got.cif
#   From: 2010.05.17/outbox.cif.g08.bks.cpg/sg85_cif.got.tgz:136.got - 2010.06.03 19:01:16.
