data_PCOD9544099
_publ_section_title
;
Structure prediction by ZEFSAII (Michael W. Deem and Ramdas Pophale) SiO2 
 PCOD9544099
Probable space group: P 42/M
;
_chemical_formula_sum "Si O2"
_cell_formula_units_Z 64
_cell_length_a 20.616743
_cell_length_b 20.616743
_cell_length_c 8.676588
_cell_angle_alpha 90.000000
_cell_angle_beta 90.000000
_cell_angle_gamma 90.000000
_cell_volume 3687.984527
_symmetry_space_group_name_H-M "P 42/M"
_symmetry_group_IT_number 84
_symmetry_cell_setting 'tetragonal'
loop_
_space_group_symop_operation_xyz
x,y,z
-y,x,1/2+z
-x,-y,z
y,-x,1/2+z
-x,-y,-z
y,-x,1/2-z
x,y,-z
-y,x,1/2-z
loop_
_atom_site_type_symbol
_atom_site_label
_atom_site_fract_x
_atom_site_fract_y
_atom_site_fract_z
Si Si1 0.709765 0.791047 0.814470
Si Si2 0.946840 0.632607 0.815419
Si Si3 0.909818 0.373777 0.683879
Si Si4 0.407773 0.522554 0.322832
Si Si5 0.858279 0.508461 0.183172
Si Si6 0.413197 0.749384 0.180048
Si Si7 0.327869 0.626893 0.182688
Si Si8 0.291875 0.826368 0.314685
O O1 0.683504 0.860943 0.765060
O O2 0.663571 0.736110 0.741061
O O3 0.784561 0.772178 0.778674
O O4 0.702939 0.786450 0.000000
O O5 0.906785 0.567499 0.769399
O O6 0.901527 0.694938 0.777668
O O7 0.017516 0.634089 0.744162
O O8 0.953477 0.629603 0.000000
O O9 0.911346 0.374310 0.500000
O O10 0.880174 0.441816 0.740746
O O11 0.467402 0.572560 0.298450
O O12 0.405266 0.500019 0.500000
O O13 0.344072 0.561799 0.275135
O O14 0.785549 0.530387 0.227410
O O15 0.862773 0.502002 0.000000
O O16 0.388445 0.676607 0.208677
O O17 0.348959 0.789544 0.225755
O O18 0.427842 0.755608 0.000000
O O19 0.323468 0.614930 0.000000
O O20 0.303306 0.820100 0.500000
#
# Coordination Sequence:
#
# PCOD9544099 Si02
#       8
#     8   8   8   8   8   8   8   8
#     4   9  19  35  51  70  97 127 157 190 233 280
#     4   9  18  32  50  70  92 125 166 199 230 277
#     4  11  22  32  46  71 102 130 156 195 243 283
#     4  11  22  37  54  69  87 111 144 191 243 293
#     4  10  20  33  48  66  94 133 171 201 232 279
#     4   9  17  29  47  70  93 117 154 200 238 276
#     4  10  20  34  52  73  94 120 155 194 240 290
#     4   8  15  31  52  68  88 122 160 193 226 272
#
# _framework density 17.353650999999999
#
# number of rings (size 3 to 8) (size 9 to 14) (size 15 to 20)
#    0.000    2.375    0.000    4.125    0.000    7.500 
#    0.000    1.250    0.000    0.000    0.000    0.000 
#    0.000    0.500    0.000    6.250    0.000    0.000 
#
# Total GULP energy -356853.532925 kJ/mol
# GULP energy per Si atom -5575.836452 kJ/mol
# Density = 1.731415 g / cm^3
# Si number density = 17.353651 Si / 1000 Ang^3
#
#
#
# Elastic Constant Matrix: (Units=GPa)
#
#
# Indices 1 2 3 4 5 6 
#
# 1 57.4774 48.0845 21.5801 0.0000 0.0000 4.0060
# 2 48.0845 57.4774 21.5801 0.0000 0.0000 -4.0060
# 3 21.5801 21.5801 22.4665 0.0000 0.0000 0.0000
# 4 0.0000 0.0000 0.0000 18.4673 0.0000 0.0000
# 5 0.0000 0.0000 0.0000 0.0000 18.4673 0.0000
# 6 4.0060 -4.0060 0.0000 0.0000 0.0000 18.5346
#
#
#
# Elastic Compliance Matrix: (Units=1/GPa)
#
#
# Indices 1 2 3 4 5 6 
#
# 1 0.073064 -0.057464 -0.014984 0.000000 0.000000 -0.028212
# 2 -0.057464 0.073064 -0.014984 0.000000 0.000000 0.028212
# 3 -0.014984 -0.014984 0.073297 0.000000 0.000000 0.000000
# 4 0.000000 0.000000 0.000000 0.054150 0.000000 0.000000
# 5 0.000000 0.000000 0.000000 0.000000 0.054150 0.000000
# 6 -0.028212 0.028212 0.000000 0.000000 0.000000 0.066149
#
#
# Mechanical properties :
#
#
# Convention : Reuss Voigt Hill
#
# Bulk Modulus (GPa) = 22.44200 35.54565 28.99382
# Shear Modulus (GPa) = 8.56765 14.17228 11.36996
#
# Velocity S-wave (km/s) = 2.22437 2.86085 2.56245
# Velocity P-wave (km/s) = 4.42236 5.60715 5.04963
#
# Compressibility (1/GPa) = 0.04455930
#
# Stress axis : x y z
#
# Youngs Moduli (GPa) = 13.68665 13.68665 13.64320
#
# Poissons Ratio (x) = 0.78649 0.20443
# Poissons Ratio (y) = 0.78649 0.20443
# Poissons Ratio (z) = 0.20508 0.20508
#
# Static dielectric constant tensor:
#      x y z
#    x 1.621990 0.000000 0.000000 
#    y 0.000000 1.621990 0.000000 
#    z 0.000000 0.000000 1.578490 
# 
# From -- ./inp_files/1375.got.cif
#   From: 2010.05.17/outbox.cif.g08.bks.cpg/sg84_1_cif.got.tgz:1375.got - 2010.06.03 18:57:40.
