data_PCOD9544027
_publ_section_title
;
Structure prediction by ZEFSAII (Michael W. Deem and Ramdas Pophale) SiO2 
 PCOD9544027
Probable space group: P 42/M
;
_chemical_formula_sum "Si O2"
_cell_formula_units_Z 64
_cell_length_a 21.417582
_cell_length_b 21.417582
_cell_length_c 8.190835
_cell_angle_alpha 90.000000
_cell_angle_beta 90.000000
_cell_angle_gamma 90.000000
_cell_volume 3757.241011
_symmetry_space_group_name_H-M "P 42/M"
_symmetry_group_IT_number 84
_symmetry_cell_setting 'tetragonal'
loop_
_space_group_symop_operation_xyz
x,y,z
-y,x,1/2+z
-x,-y,z
y,-x,1/2+z
-x,-y,-z
y,-x,1/2-z
x,y,-z
-y,x,1/2-z
loop_
_atom_site_type_symbol
_atom_site_label
_atom_site_fract_x
_atom_site_fract_y
_atom_site_fract_z
Si Si1 0.736594 0.187940 0.304793
Si Si2 0.919757 0.647810 0.308569
Si Si3 0.295338 0.182838 0.695294
Si Si4 0.225344 0.500170 0.188140
Si Si5 0.944969 0.368720 0.194326
Si Si6 0.093342 0.495952 0.688184
Si Si7 0.628188 0.281006 0.301294
Si Si8 0.386496 0.290593 0.190238
O O1 0.742348 0.190816 0.500000
O O2 0.705390 0.120800 0.262900
O O3 0.798848 0.222805 0.235297
O O4 0.680821 0.233164 0.244704
O O5 0.904786 0.645453 0.500000
O O6 0.908566 0.575796 0.243346
O O7 0.993126 0.657157 0.279444
O O8 0.303861 0.189950 0.500000
O O9 0.326974 0.116018 0.739257
O O10 0.336826 0.234356 0.788370
O O11 0.165439 0.515098 0.295024
O O12 0.256837 0.437889 0.252097
O O13 0.273882 0.555392 0.201041
O O14 0.204623 0.492409 0.000000
O O15 0.940134 0.443360 0.234466
O O16 0.951928 0.363781 0.000000
O O17 0.073502 0.492345 0.500000
O O18 0.629125 0.279646 0.500000
O O19 0.647997 0.349976 0.254269
O O20 0.403783 0.295103 0.000000
#
# Coordination Sequence:
#
# PCOD9544027 Si02
#       8
#     8   8   8   8   8   8   8   8
#     4  10  19  34  54  74  98 132 168 208 254 299
#     4  11  23  36  51  74 105 139 175 214 252 296
#     4  10  20  34  51  74 100 129 168 212 251 294
#     4  11  19  31  50  71  94 124 161 205 251 305
#     4  11  23  36  52  73 102 141 177 209 250 302
#     4  11  22  34  48  71 101 136 173 212 250 293
#     4   8  17  31  48  68  92 121 157 200 251 304
#     4  10  19  32  49  71  94 123 159 205 257 307
#
# _framework density 17.033776
#
# number of rings (size 3 to 8) (size 9 to 14) (size 15 to 20)
#    0.000    1.750    2.500    3.750    0.000    4.500 
#    0.000    1.875    0.000    0.375    0.000    2.625 
#    0.000    0.500    0.000    5.250    0.000    2.250 
#
# Total GULP energy -356407.515609 kJ/mol
# GULP energy per Si atom -5568.867431 kJ/mol
# Density = 1.699501 g / cm^3
# Si number density = 17.033776 Si / 1000 Ang^3
#
#
#
# Elastic Constant Matrix: (Units=GPa)
#
#
# Indices 1 2 3 4 5 6 
#
# 1 52.0137 20.7346 5.5595 0.0000 0.0000 1.1738
# 2 20.7346 52.0137 5.5595 0.0000 0.0000 -1.1738
# 3 5.5595 5.5595 35.7396 0.0000 0.0000 0.0000
# 4 0.0000 0.0000 0.0000 19.6856 0.0000 0.0000
# 5 0.0000 0.0000 0.0000 0.0000 19.6856 0.0000
# 6 1.1738 -1.1738 0.0000 0.0000 0.0000 18.0386
#
#
#
# Elastic Compliance Matrix: (Units=1/GPa)
#
#
# Indices 1 2 3 4 5 6 
#
# 1 0.023104 -0.009023 -0.002190 0.000000 0.000000 -0.002091
# 2 -0.009023 0.023104 -0.002190 0.000000 0.000000 0.002091
# 3 -0.002190 -0.002190 0.028662 0.000000 0.000000 0.000000
# 4 0.000000 0.000000 0.000000 0.050798 0.000000 0.000000
# 5 0.000000 0.000000 0.000000 0.000000 0.050798 0.000000
# 6 -0.002091 0.002091 0.000000 0.000000 0.000000 0.055709
#
#
# Mechanical properties :
#
#
# Convention : Reuss Voigt Hill
#
# Bulk Modulus (GPa) = 20.80655 22.60825 21.70740
# Shear Modulus (GPa) = 18.18159 18.67620 18.42889
#
# Velocity S-wave (km/s) = 3.27063 3.31482 3.29280
# Velocity P-wave (km/s) = 5.14821 5.28698 5.21805
#
# Compressibility (1/GPa) = 0.04806179
#
# Stress axis : x y z
#
# Youngs Moduli (GPa) = 43.28263 43.28263 34.88987
#
# Poissons Ratio (x) = 0.39055 0.07642
# Poissons Ratio (y) = 0.39055 0.07642
# Poissons Ratio (z) = 0.09480 0.09480
#
# Static dielectric constant tensor:
#      x y z
#    x 1.600820 0.000000 0.000000 
#    y 0.000000 1.600820 0.000000 
#    z 0.000000 0.000000 1.596820 
# 
# From -- ./inp_files/1359.got.cif
#   From: 2010.05.17/outbox.cif.g08.bks.cpg/sg84_1_cif.got.tgz:1359.got - 2010.06.03 18:57:40.
