data_PCOD9544180
_publ_section_title
;
Structure prediction by ZEFSAII (Michael W. Deem and Ramdas Pophale) SiO2 
 PCOD9544180
Probable space group: P 42/M
;
_chemical_formula_sum "Si O2"
_cell_formula_units_Z 38
_cell_length_a 11.472632
_cell_length_b 11.472632
_cell_length_c 13.775003
_cell_angle_alpha 90.000000
_cell_angle_beta 90.000000
_cell_angle_gamma 90.000000
_cell_volume 1813.083596
_symmetry_space_group_name_H-M "P 42/M"
_symmetry_group_IT_number 84
_symmetry_cell_setting 'tetragonal'
loop_
_space_group_symop_operation_xyz
x,y,z
-y,x,1/2+z
-x,-y,z
y,-x,1/2+z
-x,-y,-z
y,-x,1/2-z
x,y,-z
-y,x,1/2-z
loop_
_atom_site_type_symbol
_atom_site_label
_atom_site_fract_x
_atom_site_fract_y
_atom_site_fract_z
Si Si1 0.617325 0.426073 0.500000
Si Si2 0.000000 0.000000 0.750000
Si Si3 0.686510 0.153640 0.795040
Si Si4 0.387822 0.090790 0.500000
Si Si5 0.330054 0.733462 0.000000
Si Si6 0.443744 0.662663 0.706047
Si Si7 0.245673 0.072515 0.300999
O O1 0.500000 0.500000 0.500000
O O2 0.707600 0.532069 0.500000
O O3 0.611919 0.356052 0.600687
O O4 0.887503 0.971191 0.685367
O O5 0.574510 0.207556 0.742507
O O6 0.799364 0.226191 0.756336
O O7 0.699032 0.018953 0.773015
O O8 0.691837 0.188292 0.906344
O O9 0.377449 0.237259 0.500000
O O10 0.317260 0.066814 0.400687
O O11 0.500000 0.000000 0.500000
O O12 0.576829 0.620169 0.715719
#
# Coordination Sequence:
#
# PCOD9544180 Si02
#       7
#     4   2   8   4   4   8   8
#     4  12  20  34  55  84 105 144 196 234 278 332
#     4   8  16  38  60  84 108 146 204 246 276 336
#     4  10  20  38  59  84 113 149 189 238 286 345
#     4  10  22  37  53  89 118 153 186 231 303 353
#     4  10  20  38  60  75 115 154 194 228 283 354
#     4  11  21  35  55  81 112 145 190 236 281 331
#     4   9  20  36  59  84 114 148 190 236 292 340
#
# _framework density 20.958767999999999
#
# number of rings (size 3 to 8) (size 9 to 14) (size 15 to 20)
#    0.000    1.895    4.211    0.000    0.000    6.316 
#    0.000    7.368    0.000    1.263    0.000    0.000 
#    0.000    0.000    0.000    0.000    0.000    0.000 
#
# Total GULP energy -211728.132117 kJ/mol
# GULP energy per Si atom -5571.792950 kJ/mol
# Density = 2.091106 g / cm^3
# Si number density = 20.958768 Si / 1000 Ang^3
#
#
#
# Elastic Constant Matrix: (Units=GPa)
#
#
# Indices 1 2 3 4 5 6 
#
# 1 26.1294 -3.0227 14.0699 0.0000 0.0000 -5.6483
# 2 -3.0227 26.1294 14.0699 0.0000 0.0000 5.6483
# 3 14.0699 14.0699 97.5745 0.0000 0.0000 0.0000
# 4 0.0000 0.0000 0.0000 15.7571 0.0000 0.0000
# 5 0.0000 0.0000 0.0000 0.0000 15.7571 0.0000
# 6 -5.6483 5.6483 0.0000 0.0000 0.0000 26.0058
#
#
#
# Elastic Compliance Matrix: (Units=1/GPa)
#
#
# Indices 1 2 3 4 5 6 
#
# 1 0.044976 0.007521 -0.007570 0.000000 0.000000 0.008135
# 2 0.007521 0.044976 -0.007570 0.000000 0.000000 -0.008135
# 3 -0.007570 -0.007570 0.012432 0.000000 0.000000 0.000000
# 4 0.000000 0.000000 0.000000 0.063463 0.000000 0.000000
# 5 0.000000 0.000000 0.000000 0.000000 0.063463 0.000000
# 6 0.008135 -0.008135 0.000000 0.000000 0.000000 0.041987
#
#
# Mechanical properties :
#
#
# Convention : Reuss Voigt Hill
#
# Bulk Modulus (GPa) = 11.47511 22.22970 16.85241
# Shear Modulus (GPa) = 15.84369 19.81843 17.83106
#
# Velocity S-wave (km/s) = 2.75243 3.07838 2.91996
# Velocity P-wave (km/s) = 3.94818 4.82335 4.40754
#
# Compressibility (1/GPa) = 0.08714514
#
# Stress axis : x y z
#
# Youngs Moduli (GPa) = 22.23418 22.23418 80.43984
#
# Poissons Ratio (x) = -0.16721 0.60891
# Poissons Ratio (y) = -0.16721 0.60891
# Poissons Ratio (z) = 0.16831 0.16831
#
# Static dielectric constant tensor:
#      x y z
#    x 1.833140 0.000000 0.000000 
#    y 0.000000 1.833140 0.000000 
#    z 0.000000 0.000000 1.757990 
# 
# From -- ./inp_files/2981.got.cif
#   From: 2010.05.17/outbox.cif.g08.bks.cpg/sg84_2_cif.got.tgz:2981.got - 2010.06.03 18:57:40.
