data_PCOD9544536
_publ_section_title
;
Structure prediction by ZEFSAII (Michael W. Deem and Ramdas Pophale) SiO2 
 PCOD9544536
Probable space group: P 4/N
;
_chemical_formula_sum "Si O2"
_cell_formula_units_Z 56
_cell_length_a 10.968495
_cell_length_b 10.968495
_cell_length_c 21.199229
_cell_angle_alpha 90.000000
_cell_angle_beta 90.000000
_cell_angle_gamma 90.000000
_cell_volume 2550.434353
_symmetry_space_group_name_H-M "P 4/N"
_symmetry_group_IT_number 85
_symmetry_cell_setting 'tetragonal'
loop_
_space_group_symop_operation_xyz
x,y,z
1/2-y,x,z
1/2-x,1/2-y,z
y,1/2-x,z
-x,-y,-z
1/2+y,-x,-z
1/2+x,1/2+y,-z
-y,1/2+x,-z
loop_
_atom_site_type_symbol
_atom_site_label
_atom_site_fract_x
_atom_site_fract_y
_atom_site_fract_z
Si Si1 0.170146 0.439638 0.930102
Si Si2 0.336166 0.564018 0.279969
Si Si3 0.060362 0.170146 0.069898
Si Si4 0.163077 0.564607 0.500000
Si Si5 0.000000 0.000000 0.173134
Si Si6 0.564018 0.163834 0.720031
Si Si7 0.500001 0.999999 0.390497
O O1 0.096739 0.311290 0.926134
O O2 0.115618 0.515635 0.872878
O O3 0.148780 0.493066 1.000000
O O4 0.385114 0.489836 0.219973
O O5 0.406472 0.694319 0.278221
O O6 0.194318 0.593527 0.278221
O O7 0.383853 0.503978 0.344254
O O8 0.188710 0.096739 0.073866
O O9 0.984365 0.115618 0.127122
O O10 0.093653 0.695186 0.500000
O O11 0.115431 0.499670 0.437179
O O12 0.115431 0.499669 0.562820
O O13 0.885115 0.989836 0.219973
O O14 0.503976 0.116148 0.655746
#
# Coordination Sequence:
#
# PCOD9544536 Si02
#       7
#     8   8   8   8   8   8   8
#     4   9  18  32  49  71 101 135 169 208 260 320
#     4  10  21  36  53  74 102 136 173 212 255 303
#     4   9  18  32  49  71 101 135 169 208 260 320
#     4  10  20  36  60  86 110 136 168 206 248 296
#     4  11  19  31  53  77  99 128 174 222 261 299
#     4  10  21  36  53  74 102 136 173 212 255 303
#     4  10  20  33  57  80 102 134 172 202 238 294
#
# _framework density 21.957045000000001
#
# number of rings (size 3 to 8) (size 9 to 14) (size 15 to 20)
#    0.000    2.143    0.000    4.714    0.000    2.286 
#    0.000    0.000    0.000   62.571    0.000   12.000 
#    0.000    0.000    0.000    0.000    0.000    0.000 
#
# Total GULP energy -312880.015831 kJ/mol
# GULP energy per Si atom -5587.143140 kJ/mol
# Density = 2.190707 g / cm^3
# Si number density = 21.957045 Si / 1000 Ang^3
#
#
#
# Elastic Constant Matrix: (Units=GPa)
#
#
# Indices 1 2 3 4 5 6 
#
# 1 40.4014 9.2698 23.1721 0.0000 0.0000 -6.6307
# 2 9.2698 40.4014 23.1721 0.0000 0.0000 6.6307
# 3 23.1721 23.1721 168.5547 0.0000 0.0000 0.0000
# 4 0.0000 0.0000 0.0000 19.1417 0.0000 0.0000
# 5 0.0000 0.0000 0.0000 0.0000 19.1417 0.0000
# 6 -6.6307 6.6307 0.0000 0.0000 0.0000 31.8674
#
#
#
# Elastic Compliance Matrix: (Units=1/GPa)
#
#
# Indices 1 2 3 4 5 6 
#
# 1 0.029170 -0.006075 -0.003175 0.000000 0.000000 0.007334
# 2 -0.006075 0.029170 -0.003175 0.000000 0.000000 -0.007334
# 3 -0.003175 -0.003175 0.006806 0.000000 0.000000 0.000000
# 4 0.000000 0.000000 0.000000 0.052242 0.000000 0.000000
# 5 0.000000 0.000000 0.000000 0.000000 0.052242 0.000000
# 6 0.007334 -0.007334 0.000000 0.000000 0.000000 0.034432
#
#
# Mechanical properties :
#
#
# Convention : Reuss Voigt Hill
#
# Bulk Modulus (GPa) = 24.81674 40.06502 32.44088
# Shear Modulus (GPa) = 20.63177 26.94637 23.78907
#
# Velocity S-wave (km/s) = 3.06868 3.50699 3.29513
# Velocity P-wave (km/s) = 4.88699 5.88942 5.41147
#
# Compressibility (1/GPa) = 0.04029538
#
# Stress axis : x y z
#
# Youngs Moduli (GPa) = 34.28158 34.28158 146.93466
#
# Poissons Ratio (x) = 0.20828 0.46651
# Poissons Ratio (y) = 0.20828 0.46651
# Poissons Ratio (z) = 0.10884 0.10884
#
# Static dielectric constant tensor:
#      x y z
#    x 1.795610 0.000000 0.000000 
#    y 0.000000 1.795610 0.000000 
#    z 0.000000 0.000000 1.817430 
# 
# From -- ./inp_files/2241.got.cif
#   From: 2010.05.17/outbox.cif.g08.bks.cpg/sg85_cif.got.tgz:2241.got - 2010.06.03 19:01:16.
