data_PCOD9544282
_publ_section_title
;
Structure prediction by ZEFSAII (Michael W. Deem and Ramdas Pophale) SiO2 
 PCOD9544282
Probable space group: P 42/M
;
_chemical_formula_sum "Si O2"
_cell_formula_units_Z 40
_cell_length_a 10.906893
_cell_length_b 10.906893
_cell_length_c 13.700447
_cell_angle_alpha 90.000000
_cell_angle_beta 90.000000
_cell_angle_gamma 90.000000
_cell_volume 1629.809490
_symmetry_space_group_name_H-M "P 42/M"
_symmetry_group_IT_number 84
_symmetry_cell_setting 'tetragonal'
loop_
_space_group_symop_operation_xyz
x,y,z
-y,x,1/2+z
-x,-y,z
y,-x,1/2+z
-x,-y,-z
y,-x,1/2-z
x,y,-z
-y,x,1/2-z
loop_
_atom_site_type_symbol
_atom_site_label
_atom_site_fract_x
_atom_site_fract_y
_atom_site_fract_z
Si Si1 0.763428 0.112788 0.112356
Si Si2 0.243391 0.310237 0.792963
Si Si3 0.996281 0.215574 0.883785
Si Si4 0.140444 0.546556 0.110128
Si Si5 0.890973 0.405499 0.385603
O O1 0.684873 0.206429 0.178962
O O2 0.907630 0.103231 0.135217
O O3 0.714053 0.975913 0.116985
O O4 0.752614 0.153271 0.000000
O O5 0.224661 0.447685 0.835500
O O6 0.362623 0.234813 0.831324
O O7 0.123317 0.238332 0.832973
O O8 0.896492 0.320039 0.850792
O O9 0.017792 0.228843 0.000000
O O10 0.000000 0.500000 0.104806
O O11 0.187637 0.556923 0.000000
O O12 0.865568 0.437794 0.500000
O O13 0.000000 0.500000 0.348670
#
# Coordination Sequence:
#
# PCOD9544282 Si02
#       5
#     8   8   8   8   8
#     4  10  22  36  50  75 115 155 187 230 284 340
#     4  11  19  32  58  84 109 146 191 232 281 344
#     4   9  18  34  55  81 110 138 181 242 296 331
#     4   8  15  29  53  84 109 130 171 235 291 329
#     4  10  22  39  57  81 116 154 189 228 286 360
#
# _framework density 24.542748
#
# number of rings (size 3 to 8) (size 9 to 14) (size 15 to 20)
#    0.000    2.400    0.000    4.200    0.000    4.800 
#    0.000    5.000    0.000    1.800    0.000    9.800 
#    0.000    0.000    0.000    0.000    0.000    0.000 
#
# Total GULP energy -222798.192390 kJ/mol
# GULP energy per Si atom -5569.954810 kJ/mol
# Density = 2.448689 g / cm^3
# Si number density = 24.542748 Si / 1000 Ang^3
#
#
#
# Elastic Constant Matrix: (Units=GPa)
#
#
# Indices 1 2 3 4 5 6 
#
# 1 63.7879 51.4684 17.9121 0.0000 0.0000 -1.2606
# 2 51.4684 63.7879 17.9121 0.0000 0.0000 1.2606
# 3 17.9121 17.9121 119.2432 0.0000 0.0000 0.0000
# 4 0.0000 0.0000 0.0000 21.6727 0.0000 0.0000
# 5 0.0000 0.0000 0.0000 0.0000 21.6727 0.0000
# 6 -1.2606 1.2606 0.0000 0.0000 0.0000 49.3387
#
#
#
# Elastic Compliance Matrix: (Units=1/GPa)
#
#
# Indices 1 2 3 4 5 6 
#
# 1 0.045350 -0.036249 -0.001367 0.000000 0.000000 0.002085
# 2 -0.036249 0.045350 -0.001367 0.000000 0.000000 -0.002085
# 3 -0.001367 -0.001367 0.008797 0.000000 0.000000 0.000000
# 4 0.000000 0.000000 0.000000 0.046141 0.000000 0.000000
# 5 0.000000 0.000000 0.000000 0.000000 0.046141 0.000000
# 6 0.002085 -0.002085 0.000000 0.000000 0.000000 0.020375
#
#
# Mechanical properties :
#
#
# Convention : Reuss Voigt Hill
#
# Bulk Modulus (GPa) = 46.44493 46.82271 46.63382
# Shear Modulus (GPa) = 16.81816 29.17191 22.99504
#
# Velocity S-wave (km/s) = 2.62059 3.45137 3.06427
# Velocity P-wave (km/s) = 5.30300 5.91625 5.61800
#
# Compressibility (1/GPa) = 0.02153088
#
# Stress axis : x y z
#
# Youngs Moduli (GPa) = 22.05057 22.05057 113.67571
#
# Poissons Ratio (x) = 0.79931 0.15541
# Poissons Ratio (y) = 0.79931 0.15541
# Poissons Ratio (z) = 0.03015 0.03015
#
# Static dielectric constant tensor:
#      x y z
#    x 2.123820 0.000000 0.000000 
#    y 0.000000 2.123820 0.000000 
#    z 0.000000 0.000000 2.106350 
# 
# From -- ./inp_files/2898.got.cif
#   From: 2010.05.17/outbox.cif.g08.bks.cpg/sg84_2_cif.got.tgz:2898.got - 2010.06.03 18:57:40.
