data_PCOD9544956
_publ_section_title
;
Structure prediction by ZEFSAII (Michael W. Deem and Ramdas Pophale) SiO2 
 PCOD9544956
Probable space group: P 42/N
;
_chemical_formula_sum "Si O2"
_cell_formula_units_Z 40
_cell_length_a 8.443132
_cell_length_b 8.443132
_cell_length_c 25.063872
_cell_angle_alpha 90.000000
_cell_angle_beta 90.000000
_cell_angle_gamma 90.000000
_cell_volume 1786.715159
_symmetry_space_group_name_H-M "P 42/N"
_symmetry_group_IT_number 86
_space_group.IT_coordinate_system_code '2'
_symmetry_cell_setting 'tetragonal'
loop_
_space_group_symop_operation_xyz
x,y,z
-y,1/2+x,1/2+z
1/2-x,1/2-y,z
1/2+y,-x,1/2+z
-x,-y,-z
y,1/2-x,1/2-z
1/2+x,1/2+y,-z
1/2-y,x,1/2-z
loop_
_atom_site_type_symbol
_atom_site_label
_atom_site_fract_x
_atom_site_fract_y
_atom_site_fract_z
Si Si1 0.685858 0.930822 0.117959
Si Si2 0.790237 0.992742 0.231616
Si Si3 0.970531 0.784437 0.722931
Si Si4 0.564471 0.686890 0.499049
Si Si5 0.697652 0.070218 0.888014
O O1 0.750000 0.750000 0.123050
O O2 0.745257 0.019392 0.170509
O O3 0.494099 0.934756 0.117674
O O4 0.741519 0.991389 0.059843
O O5 0.921419 0.853923 0.234750
O O6 0.866128 0.137398 0.261709
O O7 0.920404 0.659149 0.767274
O O8 0.973914 0.731334 0.661992
O O9 0.750000 0.750000 0.500093
O O10 0.500000 0.500000 0.500000
O O11 0.492711 0.749486 0.554205
O O12 0.750000 0.250000 0.883556
#
# Coordination Sequence:
#
# PCOD9544956 Si02
#       5
#     8   8   8   8   8
#     4  10  19  39  63  98 126 167 222 283 321 402
#     4  11  20  37  67  93 127 166 225 280 334 390
#     4  11  27  42  59  93 135 172 222 276 351 411
#     4   9  21  42  68  94 139 182 231 287 350 414
#     4  11  24  41  67  93 132 180 226 278 355 415
#
# _framework density 22.387450000000001
#
# number of rings (size 3 to 8) (size 9 to 14) (size 15 to 20)
#    0.000    1.600    4.000    0.000    8.400    0.000 
#    0.000   15.000    0.000    0.000    0.000    0.000 
#    0.000    0.000    0.000    0.000    0.000    0.000 
#
# Total GULP energy -223029.865806 kJ/mol
# GULP energy per Si atom -5575.746645 kJ/mol
# Density = 2.233650 g / cm^3
# Si number density = 22.387450 Si / 1000 Ang^3
#
#
#
# Elastic Constant Matrix: (Units=GPa)
#
#
# Indices 1 2 3 4 5 6 
#
# 1 32.2453 45.4059 20.8743 0.0000 0.0000 -20.6711
# 2 45.4059 32.2453 20.8743 0.0000 0.0000 20.6711
# 3 20.8743 20.8743 240.7177 0.0000 0.0000 0.0000
# 4 0.0000 0.0000 0.0000 16.6064 0.0000 0.0000
# 5 0.0000 0.0000 0.0000 0.0000 16.6064 0.0000
# 6 -20.6711 20.6711 0.0000 0.0000 0.0000 35.7966
#
#
#
# Elastic Compliance Matrix: (Units=1/GPa)
#
#
# Indices 1 2 3 4 5 6 
#
# 1 -0.006747 0.020255 -0.001171 0.000000 0.000000 -0.015593
# 2 0.020255 -0.006747 -0.001171 0.000000 0.000000 0.015593
# 3 -0.001171 -0.001171 0.004357 0.000000 0.000000 0.000000
# 4 0.000000 0.000000 0.000000 0.060218 0.000000 0.000000
# 5 0.000000 0.000000 0.000000 0.000000 0.060218 0.000000
# 6 -0.015593 0.015593 0.000000 0.000000 0.000000 0.009927
#
#
# Mechanical properties :
#
#
# Convention : Reuss Voigt Hill
#
# Bulk Modulus (GPa) = 37.47046 53.27970 45.37508
# Shear Modulus (GPa) = 53.02381 28.33880 40.68131
#
# Velocity S-wave (km/s) = 4.87196 3.56172 4.26743
# Velocity P-wave (km/s) = 6.95857 6.38475 6.67782
#
# Compressibility (1/GPa) = 0.02668769
#
# Stress axis : x y z
#
# Youngs Moduli (GPa) = -148.21022 -148.21022 229.49481
#
# Poissons Ratio (x) = 3.00200 0.26882
# Poissons Ratio (y) = 3.00200 0.26882
# Poissons Ratio (z) = -0.17361 -0.17361
#
# Static dielectric constant tensor:
#      x y z
#    x 1.903000 0.000000 0.000000 
#    y 0.000000 1.903000 0.000000 
#    z 0.000000 0.000000 1.816360 
# 
# From -- ./inp_files/4465.got.cif
#   From: 2010.05.17/outbox.cif.g08.bks.cpg/sg86_3_cif.got.tgz:4465.got - 2010.06.03 19:03:11.
