data_PCOD9544928
_publ_section_title
;
Structure prediction by ZEFSAII (Michael W. Deem and Ramdas Pophale) SiO2 
 PCOD9544928
Probable space group: P 42/N
;
_chemical_formula_sum "Si O2"
_cell_formula_units_Z 64
_cell_length_a 24.002019
_cell_length_b 24.002019
_cell_length_c 5.214621
_cell_angle_alpha 90.000000
_cell_angle_beta 90.000000
_cell_angle_gamma 90.000000
_cell_volume 3004.127077
_symmetry_space_group_name_H-M "P 42/N"
_symmetry_group_IT_number 86
_space_group.IT_coordinate_system_code '2'
_symmetry_cell_setting 'tetragonal'
loop_
_space_group_symop_operation_xyz
x,y,z
-y,1/2+x,1/2+z
1/2-x,1/2-y,z
1/2+y,-x,1/2+z
-x,-y,-z
y,1/2-x,1/2-z
1/2+x,1/2+y,-z
1/2-y,x,1/2-z
loop_
_atom_site_type_symbol
_atom_site_label
_atom_site_fract_x
_atom_site_fract_y
_atom_site_fract_z
Si Si1 0.562805 0.358427 0.238945
Si Si2 0.456070 0.161405 0.773004
Si Si3 0.068321 0.119061 0.639726
Si Si4 0.476950 0.438534 0.139531
Si Si5 0.337180 0.635253 0.124691
Si Si6 0.384624 0.515971 0.235127
Si Si7 0.396615 0.725218 0.392039
Si Si8 0.504872 0.721085 0.144107
O O1 0.538774 0.420246 0.223672
O O2 0.568207 0.327874 0.506446
O O3 0.625208 0.356100 0.129167
O O4 0.520158 0.319102 0.078221
O O5 0.395642 0.131858 0.787209
O O6 0.484235 0.150411 0.492668
O O7 0.456864 0.224468 0.873893
O O8 0.492191 0.129249 0.986383
O O9 0.056913 0.099058 0.350173
O O10 0.042956 0.179882 0.684524
O O11 0.036032 0.081508 0.852183
O O12 0.448941 0.498732 0.178014
O O13 0.367097 0.580401 0.238392
O O14 0.345125 0.693974 0.266125
O O15 0.272980 0.621662 0.082547
O O16 0.445669 0.750852 0.221539
#
# Coordination Sequence:
#
# PCOD9544928 Si02
#       8
#     8   8   8   8   8   8   8   8
#     4  10  22  38  61  86 119 156 206 249 314 369
#     4  10  20  34  60  90 123 159 201 248 296 367
#     4   9  18  32  55  91 122 156 200 242 298 364
#     4   9  18  36  58  88 126 154 188 246 307 376
#     4  11  25  40  62  88 116 160 208 265 308 375
#     4  10  21  37  60  92 124 154 200 244 311 374
#     4  11  23  42  62  85 114 158 212 259 314 359
#     4  10  19  35  62  84 119 161 202 251 300 367
#
# _framework density 21.304024999999999
#
# number of rings (size 3 to 8) (size 9 to 14) (size 15 to 20)
#    0.000    2.000    2.500    0.750    1.750    2.500 
#    0.000    2.500    0.000    0.375    0.000    0.000 
#    0.000    6.500    0.000    0.000    0.000    1.375 
#
# Total GULP energy -356416.366692 kJ/mol
# GULP energy per Si atom -5569.005730 kJ/mol
# Density = 2.125554 g / cm^3
# Si number density = 21.304025 Si / 1000 Ang^3
#
#
#
# Elastic Constant Matrix: (Units=GPa)
#
#
# Indices 1 2 3 4 5 6 
#
# 1 81.5803 51.0672 5.7674 0.0000 0.0000 -9.1002
# 2 51.0672 81.5803 5.7674 0.0000 0.0000 9.1002
# 3 5.7674 5.7674 45.5063 0.0000 0.0000 0.0000
# 4 0.0000 0.0000 0.0000 13.7154 0.0000 0.0000
# 5 0.0000 0.0000 0.0000 0.0000 13.7154 0.0000
# 6 -9.1002 9.1002 0.0000 0.0000 0.0000 26.7460
#
#
#
# Elastic Compliance Matrix: (Units=1/GPa)
#
#
# Indices 1 2 3 4 5 6 
#
# 1 0.024370 -0.016747 -0.000966 0.000000 0.000000 0.013990
# 2 -0.016747 0.024370 -0.000966 0.000000 0.000000 -0.013990
# 3 -0.000966 -0.000966 0.022220 0.000000 0.000000 0.000000
# 4 0.000000 0.000000 0.000000 0.072911 0.000000 0.000000
# 5 0.000000 0.000000 0.000000 0.000000 0.072911 0.000000
# 6 0.013990 -0.013990 0.000000 0.000000 0.000000 0.046909
#
#
# Mechanical properties :
#
#
# Convention : Reuss Voigt Hill
#
# Bulk Modulus (GPa) = 29.76100 37.09679 33.42889
# Shear Modulus (GPa) = 16.01279 20.57301 18.29290
#
# Velocity S-wave (km/s) = 2.74457 3.11092 2.93347
# Velocity P-wave (km/s) = 4.90342 5.50950 5.21527
#
# Compressibility (1/GPa) = 0.03360102
#
# Stress axis : x y z
#
# Youngs Moduli (GPa) = 41.03374 41.03374 45.00476
#
# Poissons Ratio (x) = 0.68721 0.04348
# Poissons Ratio (y) = 0.68721 0.04348
# Poissons Ratio (z) = 0.03964 0.03964
#
# Static dielectric constant tensor:
#      x y z
#    x 1.857200 0.000000 0.000000 
#    y 0.000000 1.857200 0.000000 
#    z 0.000000 0.000000 1.870750 
# 
# From -- ./inp_files/545.got.cif
#   From: 2010.05.17/outbox.cif.g08.bks.cpg/sg86_1_cif.got.tgz:545.got - 2010.06.03 19:03:11.
