data_PCOD9544647
_publ_section_title
;
Structure prediction by ZEFSAII (Michael W. Deem and Ramdas Pophale) SiO2 
 PCOD9544647
Probable space group: P 4/N
;
_chemical_formula_sum "Si O2"
_cell_formula_units_Z 40
_cell_length_a 14.833128
_cell_length_b 14.833128
_cell_length_c 7.330777
_cell_angle_alpha 90.000000
_cell_angle_beta 90.000000
_cell_angle_gamma 90.000000
_cell_volume 1612.929917
_symmetry_space_group_name_H-M "P 4/N"
_symmetry_group_IT_number 85
_symmetry_cell_setting 'tetragonal'
loop_
_space_group_symop_operation_xyz
x,y,z
1/2-y,x,z
1/2-x,1/2-y,z
y,1/2-x,z
-x,-y,-z
1/2+y,-x,-z
1/2+x,1/2+y,-z
-y,1/2+x,-z
loop_
_atom_site_type_symbol
_atom_site_label
_atom_site_fract_x
_atom_site_fract_y
_atom_site_fract_z
Si Si1 0.390445 0.285698 0.625826
Si Si2 0.822572 0.122385 0.956100
Si Si3 0.934721 0.456193 0.773703
Si Si4 0.889657 0.437221 0.367412
Si Si5 0.188090 0.380655 0.184620
O O1 0.312760 0.356512 0.684610
O O2 0.492151 0.309791 0.675600
O O3 0.385219 0.299479 0.405549
O O4 0.876705 0.052865 0.082376
O O5 0.718220 0.133188 0.990607
O O6 0.845719 0.109700 0.745134
O O7 0.893966 0.420690 0.582798
O O8 0.868108 0.531053 0.860675
O O9 0.023114 0.508455 0.705751
O O10 0.133975 0.291144 0.125304
#
# Coordination Sequence:
#
# PCOD9544647 Si02
#       5
#     8   8   8   8   8
#     4   8  15  30  55  89 124 153 189 246 313 377
#     4  11  27  46  62  87 128 174 218 263 305 364
#     4  10  22  40  67  95 122 162 210 262 321 374
#     4  10  22  40  67  95 122 162 210 262 321 374
#     4   8  15  30  55  89 124 153 189 246 313 377
#
# _framework density 24.799590999999999
#
# number of rings (size 3 to 8) (size 9 to 14) (size 15 to 20)
#    0.000    2.600    0.000    1.800    5.600    1.600 
#    0.000    2.000    0.000    2.400    0.000    0.000 
#    0.000    0.000    0.000    0.000    0.000    0.000 
#
# Total GULP energy -223739.275240 kJ/mol
# GULP energy per Si atom -5593.481881 kJ/mol
# Density = 2.474315 g / cm^3
# Si number density = 24.799591 Si / 1000 Ang^3
#
#
#
# Elastic Constant Matrix: (Units=GPa)
#
#
# Indices 1 2 3 4 5 6 
#
# 1 55.1763 -4.3355 10.1797 0.0000 0.0000 0.2581
# 2 -4.3355 55.1763 10.1797 0.0000 0.0000 -0.2581
# 3 10.1797 10.1797 79.5208 0.0000 0.0000 0.0000
# 4 0.0000 0.0000 0.0000 16.2075 0.0000 0.0000
# 5 0.0000 0.0000 0.0000 0.0000 16.2075 0.0000
# 6 0.2581 -0.2581 0.0000 0.0000 0.0000 24.9530
#
#
#
# Elastic Compliance Matrix: (Units=1/GPa)
#
#
# Indices 1 2 3 4 5 6 
#
# 1 0.018768 0.001964 -0.002654 0.000000 0.000000 -0.000174
# 2 0.001964 0.018768 -0.002654 0.000000 0.000000 0.000174
# 3 -0.002654 -0.002654 0.013255 0.000000 0.000000 0.000000
# 4 0.000000 0.000000 0.000000 0.061700 0.000000 0.000000
# 5 0.000000 0.000000 0.000000 0.000000 0.061700 0.000000
# 6 -0.000174 0.000174 0.000000 0.000000 0.000000 0.040079
#
#
# Mechanical properties :
#
#
# Convention : Reuss Voigt Hill
#
# Bulk Modulus (GPa) = 22.67420 24.65790 23.66605
# Shear Modulus (GPa) = 21.21698 23.06355 22.14027
#
# Velocity S-wave (km/s) = 2.92813 3.05289 2.99116
# Velocity P-wave (km/s) = 4.53814 4.73195 4.63606
#
# Compressibility (1/GPa) = 0.04410299
#
# Stress axis : x y z
#
# Youngs Moduli (GPa) = 53.28088 53.28088 75.44429
#
# Poissons Ratio (x) = -0.10462 0.20023
# Poissons Ratio (y) = -0.10462 0.20023
# Poissons Ratio (z) = 0.14141 0.14141
#
# Static dielectric constant tensor:
#      x y z
#    x 1.964850 0.000000 0.000000 
#    y 0.000000 1.964850 0.000000 
#    z 0.000000 0.000000 1.990570 
# 
# From -- ./inp_files/925.got.cif
#   From: 2010.05.17/outbox.cif.g08.bks.cpg/sg85_cif.got.tgz:925.got - 2010.06.03 19:01:16.
