data_PCOD9544490
_publ_section_title
;
Structure prediction by ZEFSAII (Michael W. Deem and Ramdas Pophale) SiO2 
 PCOD9544490
Probable space group: P 4/N
;
_chemical_formula_sum "Si O2"
_cell_formula_units_Z 52
_cell_length_a 14.494177
_cell_length_b 14.494177
_cell_length_c 10.604737
_cell_angle_alpha 90.000000
_cell_angle_beta 90.000000
_cell_angle_gamma 90.000000
_cell_volume 2227.855524
_symmetry_space_group_name_H-M "P 4/N"
_symmetry_group_IT_number 85
_symmetry_cell_setting 'tetragonal'
loop_
_space_group_symop_operation_xyz
x,y,z
1/2-y,x,z
1/2-x,1/2-y,z
y,1/2-x,z
-x,-y,-z
1/2+y,-x,-z
1/2+x,1/2+y,-z
-y,1/2+x,-z
loop_
_atom_site_type_symbol
_atom_site_label
_atom_site_fract_x
_atom_site_fract_y
_atom_site_fract_z
Si Si1 0.098585 0.839404 0.130394
Si Si2 0.750000 0.250000 0.250028
Si Si3 0.400916 0.662995 0.631787
Si Si4 0.156496 0.127542 0.477588
Si Si5 0.442133 0.882489 0.621431
Si Si6 0.843642 0.872181 0.227314
Si Si7 0.619937 0.444202 0.120767
O O1 0.208927 0.826110 0.157134
O O2 0.072173 0.894486 0.257281
O O3 0.068218 0.732598 0.121695
O O4 0.084148 0.898366 0.006335
O O5 0.710035 0.326558 0.343454
O O6 0.430428 0.770082 0.625006
O O7 0.417365 0.608926 0.503905
O O8 0.424856 0.607316 0.758717
O O9 0.267244 0.126194 0.456676
O O10 0.141933 0.104125 0.625156
O O11 0.106814 0.051605 0.393316
O O12 0.732904 0.873706 0.207633
O O13 0.890672 0.946694 0.138457
#
# Coordination Sequence:
#
# PCOD9544490 Si02
#       7
#     8   4   8   8   8   8   8
#     4  10  20  29  52  78 118 143 176 208 268 319
#     4   8  16  30  44  74 106 156 178 200 236 328
#     4  10  18  27  50  75 112 138 175 212 263 306
#     4   9  19  38  60  77 100 139 185 229 270 319
#     4  11  19  32  49  84 108 137 172 222 266 322
#     4   9  19  38  62  79  96 137 193 231 256 311
#     4  11  19  36  53  82 110 151 178 216 258 322
#
# _framework density 23.340833
#
# number of rings (size 3 to 8) (size 9 to 14) (size 15 to 20)
#    0.000    2.154    1.538    6.462    0.000    1.231 
#    0.000    4.615    0.000    1.846    0.000    0.000 
#    0.000    0.000    0.000    0.000    0.000    0.000 
#
# Total GULP energy -290481.770113 kJ/mol
# GULP energy per Si atom -5586.187887 kJ/mol
# Density = 2.328771 g / cm^3
# Si number density = 23.340833 Si / 1000 Ang^3
#
#
#
# Elastic Constant Matrix: (Units=GPa)
#
#
# Indices 1 2 3 4 5 6 
#
# 1 111.6335 2.0550 50.3151 0.0000 0.0000 -26.9112
# 2 2.0550 111.6335 50.3151 0.0000 0.0000 26.9112
# 3 50.3151 50.3151 165.0198 0.0000 0.0000 0.0000
# 4 0.0000 0.0000 0.0000 29.1181 0.0000 0.0000
# 5 0.0000 0.0000 0.0000 0.0000 29.1181 0.0000
# 6 -26.9112 26.9112 0.0000 0.0000 0.0000 4.9146
#
#
#
# Elastic Compliance Matrix: (Units=1/GPa)
#
#
# Indices 1 2 3 4 5 6 
#
# 1 0.003323 0.008724 -0.003673 0.000000 0.000000 -0.029576
# 2 0.008724 0.003323 -0.003673 0.000000 0.000000 0.029576
# 3 -0.003673 -0.003673 0.008300 0.000000 0.000000 0.000000
# 4 0.000000 0.000000 0.000000 0.034343 0.000000 0.000000
# 5 0.000000 0.000000 0.000000 0.000000 0.034343 0.000000
# 6 -0.029576 0.029576 0.000000 0.000000 0.000000 -0.120431
#
#
# Mechanical properties :
#
#
# Convention : Reuss Voigt Hill
#
# Bulk Modulus (GPa) = 56.49260 65.96188 61.22724
# Shear Modulus (GPa) = -148.56869 31.67027 -58.44921
#
# Velocity S-wave (km/s) = -7.98687 3.68756 -5.00959
# Velocity P-wave (km/s) = 7.79727 6.81560 2.67816
#
# Compressibility (1/GPa) = 0.01770143
#
# Stress axis : x y z
#
# Youngs Moduli (GPa) = 300.93372 300.93372 120.48395
#
# Poissons Ratio (x) = -2.62544 0.44257
# Poissons Ratio (y) = -2.62544 0.44257
# Poissons Ratio (z) = 1.10541 1.10541
#
# Static dielectric constant tensor:
#      x y z
#    x 1.976540 0.000000 0.000000 
#    y 0.000000 1.976540 0.000000 
#    z 0.000000 0.000000 1.843350 
# 
# From -- ./inp_files/1125.got.cif
#   From: 2010.05.17/outbox.cif.g08.bks.cpg/sg85_cif.got.tgz:1125.got - 2010.06.03 19:01:16.
