data_PCOD9545906
_publ_section_title
;
Structure prediction by ZEFSAII (Michael W. Deem and Ramdas Pophale) SiO2 
 PCOD9545906
Probable space group: I 4/M
;
_chemical_formula_sum "Si O2"
_cell_formula_units_Z 72
_cell_length_a 10.291913
_cell_length_b 10.291913
_cell_length_c 34.657776
_cell_angle_alpha 90.000000
_cell_angle_beta 90.000000
_cell_angle_gamma 90.000000
_cell_volume 3671.072007
_symmetry_space_group_name_H-M "I 4/M"
_symmetry_group_IT_number 87
_symmetry_cell_setting 'tetragonal'
loop_
_space_group_symop_operation_xyz
x,y,z
-y,x,z
-x,-y,z
y,-x,z
-x,-y,-z
y,-x,-z
x,y,-z
-y,x,-z
1/2+x,1/2+y,1/2+z
1/2-y,1/2+x,1/2+z
1/2-x,1/2-y,1/2+z
1/2+y,1/2-x,1/2+z
1/2-x,1/2-y,1/2-z
1/2+y,1/2-x,1/2-z
1/2+x,1/2+y,1/2-z
1/2-y,1/2+x,1/2-z
loop_
_atom_site_type_symbol
_atom_site_label
_atom_site_fract_x
_atom_site_fract_y
_atom_site_fract_z
Si Si1 0.207896 0.551712 0.741644
Si Si2 0.023054 0.219024 0.915957
Si Si3 0.681921 0.398225 0.820601
Si Si4 0.348388 0.028161 0.162402
Si Si5 0.523243 0.719271 0.500000
O O1 0.087478 0.649843 0.746095
O O2 0.309230 0.594961 0.773833
O O3 0.237320 0.536283 0.696517
O O4 0.024658 0.311371 0.879231
O O5 0.030382 0.285876 0.958202
O O6 0.136537 0.111098 0.913887
O O7 0.671236 0.549601 0.832898
O O8 0.815534 0.337202 0.835276
O O9 0.500000 0.000000 0.171565
O O10 0.389774 0.636396 0.500000
#
# Coordination Sequence:
#
# PCOD9545906 Si02
#       5
#    16  16  16  16   8
#     4   9  16  33  48  66  93 129 170 209 261 294
#     4   9  19  33  55  83 107 134 168 210 264 316
#     4  10  22  36  51  71  98 141 183 212 254 311
#     4  11  21  33  52  77 108 134 172 218 264 298
#     4   7  12  30  53  76 108 135 158 202 264 319
#
# _framework density 19.612798999999999
#
# number of rings (size 3 to 8) (size 9 to 14) (size 15 to 20)
#    0.000    2.556    4.444    1.333    3.111    5.333 
#    0.000    2.778    0.000    0.000    0.000    0.000 
#    0.000    1.778    0.000    0.000    0.000    0.000 
#
# Total GULP energy -200834.692007 kJ/mol
# GULP energy per Si atom -5578.741445 kJ/mol
# Density = 1.956816 g / cm^3
# Si number density = 19.612799 Si / 1000 Ang^3
#
#
#
# Elastic Constant Matrix: (Units=GPa)
#
#
# Indices 1 2 3 4 5 6 
#
# 1 20.6684 12.7555 -6.6295 0.0000 0.0000 0.5111
# 2 12.7555 20.6684 -6.6295 0.0000 0.0000 -0.5111
# 3 -6.6295 -6.6295 126.6993 0.0000 0.0000 0.0000
# 4 0.0000 0.0000 0.0000 22.4373 0.0000 0.0000
# 5 0.0000 0.0000 0.0000 0.0000 22.4373 0.0000
# 6 0.5111 -0.5111 0.0000 0.0000 0.0000 10.5990
#
#
#
# Elastic Compliance Matrix: (Units=1/GPa)
#
#
# Indices 1 2 3 4 5 6 
#
# 1 0.078861 -0.048308 0.001599 0.000000 0.000000 -0.006132
# 2 -0.048308 0.078861 0.001599 0.000000 0.000000 0.006132
# 3 0.001599 0.001599 0.008060 0.000000 0.000000 0.000000
# 4 0.000000 0.000000 0.000000 0.044569 0.000000 0.000000
# 5 0.000000 0.000000 0.000000 0.000000 0.044569 0.000000
# 6 -0.006132 0.006132 0.000000 0.000000 0.000000 0.094940
#
#
# Mechanical properties :
#
#
# Convention : Reuss Voigt Hill
#
# Bulk Modulus (GPa) = 13.23443 18.55879 15.89661
# Shear Modulus (GPa) = 10.74653 22.33069 16.53861
#
# Velocity S-wave (km/s) = 2.34334 3.37794 2.90704
# Velocity P-wave (km/s) = 3.75289 4.96962 4.40348
#
# Compressibility (1/GPa) = 0.07556050
#
# Stress axis : x y z
#
# Youngs Moduli (GPa) = 12.68059 12.68059 124.06945
#
# Poissons Ratio (x) = 0.61257 -0.19835
# Poissons Ratio (y) = 0.61257 -0.19835
# Poissons Ratio (z) = -0.02027 -0.02027
#
# Static dielectric constant tensor:
#      x y z
#    x 1.715360 0.000000 0.000000 
#    y 0.000000 1.715360 0.000000 
#    z 0.000000 0.000000 1.726160 
# 
# From -- ./inp_files/6171.got.cif
#   From: 2010.05.17/outbox.cif.g08.bks.cpg/sg87_4_cif.got.tgz:6171.got - 2010.06.03 19:07:00.
