data_PCOD9545581
_publ_section_title
;
Structure prediction by ZEFSAII (Michael W. Deem and Ramdas Pophale) SiO2 
 PCOD9545581
Probable space group: I 4/M
;
_chemical_formula_sum "Si O2"
_cell_formula_units_Z 96
_cell_length_a 22.822017
_cell_length_b 22.822017
_cell_length_c 9.163985
_cell_angle_alpha 90.000000
_cell_angle_beta 90.000000
_cell_angle_gamma 90.000000
_cell_volume 4773.010818
_symmetry_space_group_name_H-M "I 4/M"
_symmetry_group_IT_number 87
_symmetry_cell_setting 'tetragonal'
loop_
_space_group_symop_operation_xyz
x,y,z
-y,x,z
-x,-y,z
y,-x,z
-x,-y,-z
y,-x,-z
x,y,-z
-y,x,-z
1/2+x,1/2+y,1/2+z
1/2-y,1/2+x,1/2+z
1/2-x,1/2-y,1/2+z
1/2+y,1/2-x,1/2+z
1/2-x,1/2-y,1/2-z
1/2+y,1/2-x,1/2-z
1/2+x,1/2+y,1/2-z
1/2-y,1/2+x,1/2-z
loop_
_atom_site_type_symbol
_atom_site_label
_atom_site_fract_x
_atom_site_fract_y
_atom_site_fract_z
Si Si1 0.735528 0.848254 0.165864
Si Si2 0.441909 0.148530 0.164744
Si Si3 0.565996 0.339192 0.677829
Si Si4 0.950132 0.360620 0.841429
Si Si5 0.069264 0.158629 0.176981
Si Si6 0.646050 0.770284 0.327033
O O1 0.789560 0.887022 0.226221
O O2 0.684436 0.896629 0.154714
O O3 0.705150 0.795152 0.252648
O O4 0.750613 0.829072 0.000000
O O5 0.423179 0.080748 0.173505
O O6 0.508334 0.154786 0.210000
O O7 0.403567 0.183750 0.279574
O O8 0.429364 0.168675 0.000000
O O9 0.564618 0.334132 0.500000
O O10 0.498236 0.332732 0.727543
O O11 0.596125 0.401425 0.714718
O O12 0.980551 0.356850 0.000000
O O13 0.116200 0.208849 0.221310
O O14 0.067056 0.161752 0.000000
O O15 0.653655 0.769250 0.500000
#
# Coordination Sequence:
#
# PCOD9545581 Si02
#       6
#    16  16  16  16  16  16
#     4   9  18  33  52  75 105 140 174 214 266 317
#     4  10  20  32  47  68  94 129 172 215 264 318
#     4   9  17  31  51  76 108 143 180 221 268 321
#     4   9  18  31  45  64  93 129 168 211 261 314
#     4   9  18  31  50  77 107 142 180 221 269 320
#     4  10  19  32  51  76 105 136 174 218 264 315
#
# _framework density 20.11309
#
# number of rings (size 3 to 8) (size 9 to 14) (size 15 to 20)
#    0.000    2.667    0.000    3.000    0.000    7.333 
#    0.000    3.333    0.000    1.000    0.000    0.000 
#    0.000    0.000    0.000   10.333    0.000   11.000 
#
# Total GULP energy -267234.043369 kJ/mol
# GULP energy per Si atom -5567.375904 kJ/mol
# Density = 2.006731 g / cm^3
# Si number density = 20.113090 Si / 1000 Ang^3
#
#
#
# Elastic Constant Matrix: (Units=GPa)
#
#
# Indices 1 2 3 4 5 6 
#
# 1 -37.3443 213.0227 29.9438 0.0000 0.0000 -3.6770
# 2 213.0227 -37.3443 29.9438 0.0000 0.0000 3.6770
# 3 29.9438 29.9438 31.3519 0.0000 0.0000 0.0000
# 4 0.0000 0.0000 0.0000 -0.2796 0.0000 0.0000
# 5 0.0000 0.0000 0.0000 0.0000 -0.2796 0.0000
# 6 -3.6770 3.6770 0.0000 0.0000 0.0000 20.9446
#
#
#
# Elastic Compliance Matrix: (Units=1/GPa)
#
#
# Indices 1 2 3 4 5 6 
#
# 1 0.002233 0.006207 -0.008061 0.000000 0.000000 -0.000698
# 2 0.006207 0.002233 -0.008061 0.000000 0.000000 0.000698
# 3 -0.008061 -0.008061 0.047294 0.000000 0.000000 0.000000
# 4 0.000000 0.000000 0.000000 -3.576179 0.000000 0.000000
# 5 0.000000 0.000000 0.000000 0.000000 -3.576179 0.000000
# 6 -0.000698 0.000698 0.000000 0.000000 0.000000 0.047500
#
#
# Mechanical properties :
#
#
# Convention : Reuss Voigt Hill
#
# Bulk Modulus (GPa) = 31.31850 55.83156 43.57503
# Shear Modulus (GPa) = -0.71198 -17.00606 -8.85902
#
# Velocity S-wave (km/s) = -0.59562 -2.91094 -2.10099
# Velocity P-wave (km/s) = 3.88999 4.06460 3.97825
#
# Compressibility (1/GPa) = 0.03193001
#
# Stress axis : x y z
#
# Youngs Moduli (GPa) = 447.77216 447.77216 21.14428
#
# Poissons Ratio (x) = -2.77929 0.17045
# Poissons Ratio (y) = -2.77929 0.17045
# Poissons Ratio (z) = 3.60955 3.60955
#
# Static dielectric constant tensor:
#      x y z
#    x 1.745040 0.000000 0.000000 
#    y 0.000000 1.745040 0.000000 
#    z 0.000000 0.000000 1.703780 
# 
# From -- ./inp_files/1309.got.cif
#   From: 2010.05.17/outbox.cif.g08.bks.cpg/sg87_1_cif.got.tgz:1309.got - 2010.06.03 19:07:00.
