data_PCOD9545537
_publ_section_title
;
Structure prediction by ZEFSAII (Michael W. Deem and Ramdas Pophale) SiO2 
 PCOD9545537
Probable space group: I 4/M
;
_chemical_formula_sum "Si O2"
_cell_formula_units_Z 72
_cell_length_a 19.862849
_cell_length_b 19.862849
_cell_length_c 10.174935
_cell_angle_alpha 90.000000
_cell_angle_beta 90.000000
_cell_angle_gamma 90.000000
_cell_volume 4014.345294
_symmetry_space_group_name_H-M "I 4/M"
_symmetry_group_IT_number 87
_symmetry_cell_setting 'tetragonal'
loop_
_space_group_symop_operation_xyz
x,y,z
-y,x,z
-x,-y,z
y,-x,z
-x,-y,-z
y,-x,-z
x,y,-z
-y,x,-z
1/2+x,1/2+y,1/2+z
1/2-y,1/2+x,1/2+z
1/2-x,1/2-y,1/2+z
1/2+y,1/2-x,1/2+z
1/2-x,1/2-y,1/2-z
1/2+y,1/2-x,1/2-z
1/2+x,1/2+y,1/2-z
1/2-y,1/2+x,1/2-z
loop_
_atom_site_type_symbol
_atom_site_label
_atom_site_fract_x
_atom_site_fract_y
_atom_site_fract_z
Si Si1 0.645620 0.736874 0.226167
Si Si2 0.506446 0.269217 0.203424
Si Si3 0.346762 0.771015 0.855153
Si Si4 0.379362 0.339273 0.500000
Si Si5 0.693493 0.520465 0.500000
Si Si6 0.112163 0.012326 0.500000
O O1 0.570945 0.749237 0.169650
O O2 0.695405 0.684475 0.153835
O O3 0.686089 0.806219 0.247561
O O4 0.635618 0.702886 0.369301
O O5 0.572853 0.228995 0.159867
O O6 0.511411 0.269264 0.361524
O O7 0.515837 0.340898 0.129391
O O8 0.330627 0.797564 0.000000
O O9 0.336699 0.406153 0.500000
O O10 0.458199 0.358232 0.500000
O O11 0.071661 0.942320 0.500000
#
# Coordination Sequence:
#
# PCOD9545537 Si02
#       6
#    16  16  16   8   8   8
#     4  10  22  36  56  85 114 149 193 245 286 355
#     4  11  22  38  58  81 118 156 194 239 299 347
#     4  11  21  36  60  85 114 152 195 244 299 350
#     4  10  18  36  50  76 111 147 193 226 279 329
#     4  10  22  33  53  76 111 156 193 230 276 339
#     4  11  24  37  53  84 122 160 199 240 289 355
#
# _framework density 17.935676999999998
#
# number of rings (size 3 to 8) (size 9 to 14) (size 15 to 20)
#    0.000    1.444    4.444    1.333    4.667    0.222 
#    0.000    0.000    0.000    0.667    0.000    1.556 
#    0.000    0.000    0.000    0.000    0.000    0.000 
#
# Total GULP energy -200533.087964 kJ/mol
# GULP energy per Si atom -5570.363555 kJ/mol
# Density = 1.789485 g / cm^3
# Si number density = 17.935677 Si / 1000 Ang^3
#
#
#
# Elastic Constant Matrix: (Units=GPa)
#
#
# Indices 1 2 3 4 5 6 
#
# 1 83.5087 41.5890 -1.2699 0.0000 0.0000 7.7215
# 2 41.5890 83.5087 -1.2699 0.0000 0.0000 -7.7215
# 3 -1.2699 -1.2699 73.4046 0.0000 0.0000 0.0000
# 4 0.0000 0.0000 0.0000 14.0294 0.0000 0.0000
# 5 0.0000 0.0000 0.0000 0.0000 14.0294 0.0000
# 6 7.7215 -7.7215 0.0000 0.0000 0.0000 10.0069
#
#
#
# Elastic Compliance Matrix: (Units=1/GPa)
#
#
# Indices 1 2 3 4 5 6 
#
# 1 0.020663 -0.012666 0.000138 0.000000 0.000000 -0.025718
# 2 -0.012666 0.020663 0.000138 0.000000 0.000000 0.025718
# 3 0.000138 0.000138 0.013628 0.000000 0.000000 0.000000
# 4 0.000000 0.000000 0.000000 0.071279 0.000000 0.000000
# 5 0.000000 0.000000 0.000000 0.000000 0.071279 0.000000
# 6 -0.025718 0.025718 0.000000 0.000000 0.000000 0.139620
#
#
# Mechanical properties :
#
#
# Convention : Reuss Voigt Hill
#
# Bulk Modulus (GPa) = 33.14069 35.39116 34.26593
# Shear Modulus (GPa) = 13.44199 21.03801 17.24000
#
# Velocity S-wave (km/s) = 2.74059 3.42858 3.10371
# Velocity P-wave (km/s) = 5.34154 5.95388 5.65600
#
# Compressibility (1/GPa) = 0.03017439
#
# Stress axis : x y z
#
# Youngs Moduli (GPa) = 48.39566 48.39566 73.37885
#
# Poissons Ratio (x) = 0.61300 -0.01015
# Poissons Ratio (y) = 0.61300 -0.01015
# Poissons Ratio (z) = -0.00670 -0.00670
#
# Static dielectric constant tensor:
#      x y z
#    x 1.618420 0.000000 0.000000 
#    y 0.000000 1.618420 0.000000 
#    z 0.000000 0.000000 1.634580 
# 
# From -- ./inp_files/1111.got.cif
#   From: 2010.05.17/outbox.cif.g08.bks.cpg/sg87_1_cif.got.tgz:1111.got - 2010.06.03 19:07:00.
