data_PCOD9545127
_publ_section_title
;
Structure prediction by ZEFSAII (Michael W. Deem and Ramdas Pophale) SiO2 
 PCOD9545127
Probable space group: P 42/N
;
_chemical_formula_sum "Si O2"
_cell_formula_units_Z 56
_cell_length_a 10.988542
_cell_length_b 10.988542
_cell_length_c 21.396431
_cell_angle_alpha 90.000000
_cell_angle_beta 90.000000
_cell_angle_gamma 90.000000
_cell_volume 2583.577433
_symmetry_space_group_name_H-M "P 42/N"
_symmetry_group_IT_number 86
_space_group.IT_coordinate_system_code '2'
_symmetry_cell_setting 'tetragonal'
loop_
_space_group_symop_operation_xyz
x,y,z
-y,1/2+x,1/2+z
1/2-x,1/2-y,z
1/2+y,-x,1/2+z
-x,-y,-z
y,1/2-x,1/2-z
1/2+x,1/2+y,-z
1/2-y,x,1/2-z
loop_
_atom_site_type_symbol
_atom_site_label
_atom_site_fract_x
_atom_site_fract_y
_atom_site_fract_z
Si Si1 0.607828 0.783428 0.852516
Si Si2 0.118782 0.324272 0.902151
Si Si3 0.464014 0.527147 0.702669
Si Si4 0.412126 0.083061 0.540258
Si Si5 0.506854 0.477932 0.156329
Si Si6 0.075907 0.170533 0.473421
Si Si7 0.390809 0.750330 0.627183
O O1 0.750000 0.750000 0.835851
O O2 0.530114 0.662551 0.846301
O O3 0.612079 0.833071 0.923515
O O4 0.547410 0.892628 0.812950
O O5 0.250000 0.250000 0.893370
O O6 0.037949 0.215772 0.932083
O O7 0.065587 0.389343 0.841533
O O8 0.113625 0.424379 0.957885
O O9 0.450581 0.491347 0.774387
O O10 0.413866 0.661130 0.685726
O O11 0.383871 0.194380 0.494647
O O12 0.500000 0.000000 0.500000
O O13 0.488288 0.105760 0.603799
O O14 0.381492 0.549470 0.140063
O O15 0.956099 0.190483 0.432811
O O16 0.250000 0.750000 0.615701
#
# Coordination Sequence:
#
# PCOD9545127 Si02
#       7
#     8   8   8   8   8   8   8
#     4  11  20  39  68 100 136 174 231 298 353 423
#     4  10  23  45  66  95 138 176 227 291 334 431
#     4  11  25  41  66 102 134 187 235 277 361 427
#     4  11  20  38  69  96 126 177 232 276 348 406
#     4  12  23  41  66 100 137 186 228 285 354 431
#     4  10  21  41  67 100 131 173 233 283 358 407
#     4  11  23  42  67  99 138 176 225 292 350 423
#
# _framework density 21.675370000000001
#
# number of rings (size 3 to 8) (size 9 to 14) (size 15 to 20)
#    0.000    1.143    4.286    3.857    0.000    2.286 
#   12.857    0.000    0.000    0.000    0.000    0.000 
#    0.000    0.000    0.000    0.000    0.000    0.000 
#
# Total GULP energy -312419.772422 kJ/mol
# GULP energy per Si atom -5578.924508 kJ/mol
# Density = 2.162604 g / cm^3
# Si number density = 21.675370 Si / 1000 Ang^3
#
#
#
# Elastic Constant Matrix: (Units=GPa)
#
#
# Indices 1 2 3 4 5 6 
#
# 1 79.9124 14.5402 33.9775 0.0000 0.0000 -2.8977
# 2 14.5402 79.9124 33.9775 0.0000 0.0000 2.8977
# 3 33.9775 33.9775 165.7495 0.0000 0.0000 0.0000
# 4 0.0000 0.0000 0.0000 20.6081 0.0000 0.0000
# 5 0.0000 0.0000 0.0000 0.0000 20.6081 0.0000
# 6 -2.8977 2.8977 0.0000 0.0000 0.0000 28.8679
#
#
#
# Elastic Compliance Matrix: (Units=1/GPa)
#
#
# Indices 1 2 3 4 5 6 
#
# 1 0.013927 -0.001508 -0.002546 0.000000 0.000000 0.001549
# 2 -0.001508 0.013927 -0.002546 0.000000 0.000000 -0.001549
# 3 -0.002546 -0.002546 0.007077 0.000000 0.000000 0.000000
# 4 0.000000 0.000000 0.000000 0.048525 0.000000 0.000000
# 5 0.000000 0.000000 0.000000 0.000000 0.048525 0.000000
# 6 0.001549 -0.001549 0.000000 0.000000 0.000000 0.034952
#
#
# Mechanical properties :
#
#
# Convention : Reuss Voigt Hill
#
# Bulk Modulus (GPa) = 46.01589 54.50718 50.26153
# Shear Modulus (GPa) = 26.68465 30.22208 28.45336
#
# Velocity S-wave (km/s) = 3.51252 3.73809 3.62706
# Velocity P-wave (km/s) = 6.14215 6.62063 6.38587
#
# Compressibility (1/GPa) = 0.02173163
#
# Stress axis : x y z
#
# Youngs Moduli (GPa) = 71.80475 71.80475 141.30395
#
# Poissons Ratio (x) = 0.10826 0.35973
# Poissons Ratio (y) = 0.10826 0.35973
# Poissons Ratio (z) = 0.18280 0.18280
#
# Static dielectric constant tensor:
#      x y z
#    x 1.871810 0.000000 0.000000 
#    y 0.000000 1.871810 0.000000 
#    z 0.000000 0.000000 1.799070 
# 
# From -- ./inp_files/4190.got.cif
#   From: 2010.05.17/outbox.cif.g08.bks.cpg/sg86_3_cif.got.tgz:4190.got - 2010.06.03 19:03:11.
