data_PCOD9545556
_publ_section_title
;
Structure prediction by ZEFSAII (Michael W. Deem and Ramdas Pophale) SiO2 
 PCOD9545556
Probable space group: I 4/M
;
_chemical_formula_sum "Si O2"
_cell_formula_units_Z 96
_cell_length_a 27.627234
_cell_length_b 27.627234
_cell_length_c 8.826518
_cell_angle_alpha 90.000000
_cell_angle_beta 90.000000
_cell_angle_gamma 90.000000
_cell_volume 6736.963951
_symmetry_space_group_name_H-M "I 4/M"
_symmetry_group_IT_number 87
_symmetry_cell_setting 'tetragonal'
loop_
_space_group_symop_operation_xyz
x,y,z
-y,x,z
-x,-y,z
y,-x,z
-x,-y,-z
y,-x,-z
x,y,-z
-y,x,-z
1/2+x,1/2+y,1/2+z
1/2-y,1/2+x,1/2+z
1/2-x,1/2-y,1/2+z
1/2+y,1/2-x,1/2+z
1/2-x,1/2-y,1/2-z
1/2+y,1/2-x,1/2-z
1/2+x,1/2+y,1/2-z
1/2-y,1/2+x,1/2-z
loop_
_atom_site_type_symbol
_atom_site_label
_atom_site_fract_x
_atom_site_fract_y
_atom_site_fract_z
Si Si1 0.325854 0.246982 0.671680
Si Si2 0.982612 0.433056 0.327202
Si Si3 0.997095 0.664471 0.178856
Si Si4 0.830947 0.390733 0.179753
Si Si5 0.599915 0.198788 0.678968
Si Si6 0.766808 0.824840 0.671625
O O1 0.344927 0.249126 0.500000
O O2 0.362282 0.218476 0.780878
O O3 0.277854 0.213363 0.668437
O O4 0.308290 0.298952 0.730765
O O5 0.968820 0.443014 0.500000
O O6 0.951147 0.463149 0.208089
O O7 0.982992 0.378092 0.284452
O O8 0.941943 0.671653 0.232857
O O9 0.041805 0.701713 0.196412
O O10 0.996251 0.651290 0.000000
O O11 0.874362 0.352922 0.225832
O O12 0.835862 0.399851 0.000000
O O13 0.610743 0.201822 0.500000
O O14 0.627372 0.242243 0.761406
O O15 0.783328 0.832147 0.500000
#
# Coordination Sequence:
#
# PCOD9545556 Si02
#       6
#    16  16  16  16  16  16
#     4   9  16  27  43  62  83 104 127 159 201 246
#     4  11  21  33  46  58  72  94 128 170 213 252
#     4  11  21  32  44  59  80 106 136 169 208 250
#     4  10  19  31  45  61  81 106 138 174 211 248
#     4   9  19  32  44  58  79 106 135 169 208 250
#     4   9  16  26  43  64  82 100 126 161 200 243
#
# _framework density 14.249743
#
# number of rings (size 3 to 8) (size 9 to 14) (size 15 to 20)
#    0.000    2.167    0.000    5.000    0.000    7.333 
#    0.000    0.000    0.000    0.000    0.000    0.000 
#    0.000    0.000    0.000    0.000    0.000    0.833 
#
# Total GULP energy -267225.083753 kJ/mol
# GULP energy per Si atom -5567.189245 kJ/mol
# Density = 1.421731 g / cm^3
# Si number density = 14.249743 Si / 1000 Ang^3
#
#
#
# Elastic Constant Matrix: (Units=GPa)
#
#
# Indices 1 2 3 4 5 6 
#
# 1 33.3825 18.3536 12.1979 0.0000 0.0000 8.2405
# 2 18.3536 33.3825 12.1979 0.0000 0.0000 -8.2405
# 3 12.1979 12.1979 48.5981 0.0000 0.0000 0.0000
# 4 0.0000 0.0000 0.0000 19.8877 0.0000 0.0000
# 5 0.0000 0.0000 0.0000 0.0000 19.8877 0.0000
# 6 8.2405 -8.2405 0.0000 0.0000 0.0000 96.7695
#
#
#
# Elastic Compliance Matrix: (Units=1/GPa)
#
#
# Indices 1 2 3 4 5 6 
#
# 1 0.047658 -0.025734 -0.005503 0.000000 0.000000 -0.006250
# 2 -0.025734 0.047658 -0.005503 0.000000 0.000000 0.006250
# 3 -0.005503 -0.005503 0.023339 0.000000 0.000000 0.000000
# 4 0.000000 0.000000 0.000000 0.050282 0.000000 0.000000
# 5 0.000000 0.000000 0.000000 0.000000 0.050282 0.000000
# 6 -0.006250 0.006250 0.000000 0.000000 0.000000 0.011398
#
#
# Mechanical properties :
#
#
# Convention : Reuss Voigt Hill
#
# Bulk Modulus (GPa) = 22.13583 22.31798 22.22691
# Shear Modulus (GPa) = 15.66638 32.14991 23.90815
#
# Velocity S-wave (km/s) = 3.31934 4.75507 4.10053
# Velocity P-wave (km/s) = 5.50078 6.77079 6.16856
#
# Compressibility (1/GPa) = 0.04517562
#
# Stress axis : x y z
#
# Youngs Moduli (GPa) = 20.98299 20.98299 42.84629
#
# Poissons Ratio (x) = 0.53998 0.23577
# Poissons Ratio (y) = 0.53998 0.23577
# Poissons Ratio (z) = 0.11546 0.11546
#
# Static dielectric constant tensor:
#      x y z
#    x 1.487800 0.000000 0.000000 
#    y 0.000000 1.487800 0.000000 
#    z 0.000000 0.000000 1.376380 
# 
# From -- ./inp_files/1529.got.cif
#   From: 2010.05.17/outbox.cif.g08.bks.cpg/sg87_1_cif.got.tgz:1529.got - 2010.06.03 19:07:00.
