data_PCOD9545011
_publ_section_title
;
Structure prediction by ZEFSAII (Michael W. Deem and Ramdas Pophale) SiO2 
 PCOD9545011
Probable space group: P 42/N
;
_chemical_formula_sum "Si O2"
_cell_formula_units_Z 48
_cell_length_a 18.246213
_cell_length_b 18.246213
_cell_length_c 7.851118
_cell_angle_alpha 90.000000
_cell_angle_beta 90.000000
_cell_angle_gamma 90.000000
_cell_volume 2613.827877
_symmetry_space_group_name_H-M "P 42/N"
_symmetry_group_IT_number 86
_space_group.IT_coordinate_system_code '2'
_symmetry_cell_setting 'tetragonal'
loop_
_space_group_symop_operation_xyz
x,y,z
-y,1/2+x,1/2+z
1/2-x,1/2-y,z
1/2+y,-x,1/2+z
-x,-y,-z
y,1/2-x,1/2-z
1/2+x,1/2+y,-z
1/2-y,x,1/2-z
loop_
_atom_site_type_symbol
_atom_site_label
_atom_site_fract_x
_atom_site_fract_y
_atom_site_fract_z
Si Si1 0.628685 0.709839 0.998150
Si Si2 0.877890 0.213088 0.114609
Si Si3 0.250000 0.250000 0.250000
Si Si4 0.584410 0.454932 0.176084
Si Si5 0.750000 0.250000 0.364895
Si Si6 0.949033 0.588298 0.651803
Si Si7 0.004503 0.323386 0.010367
Si Si8 0.750000 0.750000 0.250000
O O1 0.690754 0.703165 0.143319
O O2 0.675808 0.751975 0.855814
O O3 0.599936 0.633732 0.919492
O O4 0.563950 0.763766 0.053164
O O5 0.822214 0.223983 0.960558
O O6 0.906465 0.131042 0.136059
O O7 0.823183 0.227630 0.268485
O O8 0.939751 0.273774 0.088780
O O9 0.496957 0.466669 0.190172
O O10 0.626758 0.478550 0.349776
O O11 0.611097 0.499721 0.008825
O O12 0.963729 0.631036 0.828501
#
# Coordination Sequence:
#
# PCOD9545011 Si02
#       8
#     8   8   2   8   4   8   8   2
#     4  11  21  40  64  91 125 167 212 264 320 384
#     4  11  21  40  63  91 124 166 212 263 318 381
#     4  10  20  38  64  86 120 162 208 258 316 374
#     4  11  24  43  63  94 132 168 212 269 322 386
#     4  10  22  38  64  90 124 162 212 270 314 372
#     4  11  24  42  64  94 131 169 213 267 325 388
#     4  12  23  41  67  94 126 170 220 260 326 393
#     4  10  24  38  64  98 128 162 220 274 318 384
#
# _framework density 18.363869999999999
#
# number of rings (size 3 to 8) (size 9 to 14) (size 15 to 20)
#    0.000    1.000    5.000    2.500    0.000    0.000 
#    0.000    0.000    0.000    0.000    0.000    0.000 
#    0.000    0.000    0.000    0.000    0.000    0.000 
#
# Total GULP energy -267439.466605 kJ/mol
# GULP energy per Si atom -5571.655554 kJ/mol
# Density = 1.832207 g / cm^3
# Si number density = 18.363870 Si / 1000 Ang^3
#
#
#
# Elastic Constant Matrix: (Units=GPa)
#
#
# Indices 1 2 3 4 5 6 
#
# 1 98.5523 25.4761 48.1438 0.0000 0.0000 -0.2713
# 2 25.4761 98.5523 48.1438 0.0000 0.0000 0.2713
# 3 48.1438 48.1438 101.2271 0.0000 0.0000 0.0000
# 4 0.0000 0.0000 0.0000 33.1094 0.0000 0.0000
# 5 0.0000 0.0000 0.0000 0.0000 33.1094 0.0000
# 6 -0.2713 0.2713 0.0000 0.0000 0.0000 38.1312
#
#
#
# Elastic Compliance Matrix: (Units=1/GPa)
#
#
# Indices 1 2 3 4 5 6 
#
# 1 0.013234 -0.000451 -0.006079 0.000000 0.000000 0.000097
# 2 -0.000451 0.013234 -0.006079 0.000000 0.000000 -0.000097
# 3 -0.006079 -0.006079 0.015661 0.000000 0.000000 0.000000
# 4 0.000000 0.000000 0.000000 0.030203 0.000000 0.000000
# 5 0.000000 0.000000 0.000000 0.000000 0.030203 0.000000
# 6 0.000097 -0.000097 0.000000 0.000000 0.000000 0.026227
#
#
# Mechanical properties :
#
#
# Convention : Reuss Voigt Hill
#
# Bulk Modulus (GPa) = 59.14076 60.20658 59.67367
# Shear Modulus (GPa) = 31.32495 32.64120 31.98307
#
# Velocity S-wave (km/s) = 4.13460 4.22058 4.17781
# Velocity P-wave (km/s) = 7.42079 7.52380 7.47247
#
# Compressibility (1/GPa) = 0.01690881
#
# Stress axis : x y z
#
# Youngs Moduli (GPa) = 75.56507 75.56507 63.85140
#
# Poissons Ratio (x) = 0.03411 0.38817
# Poissons Ratio (y) = 0.03411 0.38817
# Poissons Ratio (z) = 0.45938 0.45938
#
# Static dielectric constant tensor:
#      x y z
#    x 1.637220 0.000000 0.000000 
#    y 0.000000 1.637220 0.000000 
#    z 0.000000 0.000000 1.671530 
# 
# From -- ./inp_files/1373.got.cif
#   From: 2010.05.17/outbox.cif.g08.bks.cpg/sg86_1_cif.got.tgz:1373.got - 2010.06.03 19:03:11.
