data_PCOD9545380
_publ_section_title
;
Structure prediction by ZEFSAII (Michael W. Deem and Ramdas Pophale) SiO2 
 PCOD9545380
Probable space group: P 42/N
;
_chemical_formula_sum "Si O2"
_cell_formula_units_Z 36
_cell_length_a 8.024426
_cell_length_b 8.024426
_cell_length_c 23.343548
_cell_angle_alpha 90.000000
_cell_angle_beta 90.000000
_cell_angle_gamma 90.000000
_cell_volume 1503.124032
_symmetry_space_group_name_H-M "P 42/N"
_symmetry_group_IT_number 86
_space_group.IT_coordinate_system_code '2'
_symmetry_cell_setting 'tetragonal'
loop_
_space_group_symop_operation_xyz
x,y,z
-y,1/2+x,1/2+z
1/2-x,1/2-y,z
1/2+y,-x,1/2+z
-x,-y,-z
y,1/2-x,1/2-z
1/2+x,1/2+y,-z
1/2-y,x,1/2-z
loop_
_atom_site_type_symbol
_atom_site_label
_atom_site_fract_x
_atom_site_fract_y
_atom_site_fract_z
Si Si1 0.750000 0.250000 0.433674
Si Si2 0.484129 0.708645 0.352741
Si Si3 0.052775 0.191244 0.512791
Si Si4 0.299189 0.999170 0.668732
Si Si5 0.987058 0.321429 0.235662
O O1 0.584232 0.220313 0.471908
O O2 0.750828 0.096612 0.389360
O O3 0.503720 0.707912 0.420901
O O4 0.640648 0.615138 0.322692
O O5 0.334290 0.597944 0.327148
O O6 0.530699 0.897914 0.339196
O O7 0.250000 0.250000 0.505039
O O8 0.000000 0.000000 0.500000
O O9 0.344451 0.887843 0.722353
O O10 0.147454 0.442367 0.240890
#
# Coordination Sequence:
#
# PCOD9545380 Si02
#       5
#     4   8   8   8   8
#     4  12  26  46  80 108 150 200 252 310 382 460
#     4  11  23  46  68 103 147 185 243 309 375 457
#     4  12  26  49  75 112 154 199 256 317 379 459
#     4  11  23  45  71 103 142 190 241 304 383 449
#     4  11  26  44  70 105 144 194 250 314 381 454
#
# _framework density 23.950119999999998
#
# number of rings (size 3 to 8) (size 9 to 14) (size 15 to 20)
#    0.000    0.667    4.444    2.667    0.000   11.556 
#    0.000    0.000    0.000    0.000    0.000    0.000 
#    0.000    0.000    0.000    0.000    0.000    0.000 
#
# Total GULP energy -200850.970403 kJ/mol
# GULP energy per Si atom -5579.193622 kJ/mol
# Density = 2.389561 g / cm^3
# Si number density = 23.950120 Si / 1000 Ang^3
#
#
#
# Elastic Constant Matrix: (Units=GPa)
#
#
# Indices 1 2 3 4 5 6 
#
# 1 103.0324 8.5584 26.5226 0.0000 0.0000 5.2195
# 2 8.5584 103.0324 26.5226 0.0000 0.0000 -5.2195
# 3 26.5226 26.5226 107.2119 0.0000 0.0000 0.0000
# 4 0.0000 0.0000 0.0000 21.8398 0.0000 0.0000
# 5 0.0000 0.0000 0.0000 0.0000 21.8398 0.0000
# 6 5.2195 -5.2195 0.0000 0.0000 0.0000 49.4532
#
#
#
# Elastic Compliance Matrix: (Units=1/GPa)
#
#
# Indices 1 2 3 4 5 6 
#
# 1 0.010433 -0.000277 -0.002512 0.000000 0.000000 -0.001130
# 2 -0.000277 0.010433 -0.002512 0.000000 0.000000 0.001130
# 3 -0.002512 -0.002512 0.010570 0.000000 0.000000 0.000000
# 4 0.000000 0.000000 0.000000 0.045788 0.000000 0.000000
# 5 0.000000 0.000000 0.000000 0.000000 0.045788 0.000000
# 6 -0.001130 0.001130 0.000000 0.000000 0.000000 0.020460
#
#
# Mechanical properties :
#
#
# Convention : Reuss Voigt Hill
#
# Bulk Modulus (GPa) = 48.00274 48.49821 48.25048
# Shear Modulus (GPa) = 31.05225 35.40479 33.22852
#
# Velocity S-wave (km/s) = 3.60465 3.84900 3.72883
# Velocity P-wave (km/s) = 6.11645 6.32825 6.22325
#
# Compressibility (1/GPa) = 0.02083214
#
# Stress axis : x y z
#
# Youngs Moduli (GPa) = 95.85257 95.85257 94.60421
#
# Poissons Ratio (x) = 0.02656 0.23768
# Poissons Ratio (y) = 0.02656 0.23768
# Poissons Ratio (z) = 0.24081 0.24081
#
# Static dielectric constant tensor:
#      x y z
#    x 1.978600 0.000000 0.000000 
#    y 0.000000 1.978600 0.000000 
#    z 0.000000 0.000000 1.904580 
# 
# From -- ./inp_files/3995.got.cif
#   From: 2010.05.17/outbox.cif.g08.bks.cpg/sg86_2_cif.got.tgz:3995.got - 2010.06.03 19:03:11.
