data_PCOD9545953
_publ_section_title
;
Structure prediction by ZEFSAII (Michael W. Deem and Ramdas Pophale) SiO2 
 PCOD9545953
Probable space group: I 4/M
;
_chemical_formula_sum "Si O2"
_cell_formula_units_Z 72
_cell_length_a 14.298342
_cell_length_b 14.298342
_cell_length_c 16.184698
_cell_angle_alpha 90.000000
_cell_angle_beta 90.000000
_cell_angle_gamma 90.000000
_cell_volume 3308.841480
_symmetry_space_group_name_H-M "I 4/M"
_symmetry_group_IT_number 87
_symmetry_cell_setting 'tetragonal'
loop_
_space_group_symop_operation_xyz
x,y,z
-y,x,z
-x,-y,z
y,-x,z
-x,-y,-z
y,-x,-z
x,y,-z
-y,x,-z
1/2+x,1/2+y,1/2+z
1/2-y,1/2+x,1/2+z
1/2-x,1/2-y,1/2+z
1/2+y,1/2-x,1/2+z
1/2-x,1/2-y,1/2-z
1/2+y,1/2-x,1/2-z
1/2+x,1/2+y,1/2-z
1/2-y,1/2+x,1/2-z
loop_
_atom_site_type_symbol
_atom_site_label
_atom_site_fract_x
_atom_site_fract_y
_atom_site_fract_z
Si Si1 0.939480 0.144611 0.336293
Si Si2 0.944178 0.144778 0.000000
Si Si3 0.609201 0.990766 0.902012
Si Si4 0.315333 0.799893 0.905418
Si Si5 0.760496 0.878854 0.167197
O O1 0.900367 0.227723 0.393204
O O2 0.919333 0.183384 0.244340
O O3 0.048116 0.118325 0.348217
O O4 0.922788 0.197249 0.916054
O O5 0.051520 0.116554 0.000000
O O6 0.655064 0.093187 0.890914
O O7 0.500000 0.000000 0.886584
O O8 0.654982 0.916073 0.839924
O O9 0.620064 0.964820 0.000000
O O10 0.231907 0.771099 0.844243
O O11 0.281675 0.792043 0.000000
#
# Coordination Sequence:
#
# PCOD9545953 Si02
#       5
#    16   8  16  16  16
#     4  11  26  45  67  96 135 178 227 284 338 399
#     4  11  20  32  61  98 130 163 211 270 340 404
#     4  10  22  41  66  99 137 175 223 281 340 406
#     4  11  24  43  69  96 134 184 230 277 339 405
#     4  12  22  41  69  96 135 171 222 280 345 405
#
# _framework density 21.759882999999999
#
# number of rings (size 3 to 8) (size 9 to 14) (size 15 to 20)
#    0.000    1.000    2.222    4.667    3.111    2.667 
#    0.000    1.111    0.000    0.000    0.000    0.000 
#    0.000    0.000    0.000    0.000    0.000    0.000 
#
# Total GULP energy -201441.343085 kJ/mol
# GULP energy per Si atom -5595.592863 kJ/mol
# Density = 2.171036 g / cm^3
# Si number density = 21.759883 Si / 1000 Ang^3
#
#
#
# Elastic Constant Matrix: (Units=GPa)
#
#
# Indices 1 2 3 4 5 6 
#
# 1 86.4213 -6.7597 -3.7274 0.0000 0.0000 -1.2426
# 2 -6.7597 86.4213 -3.7274 0.0000 0.0000 1.2426
# 3 -3.7274 -3.7274 43.5545 0.0000 0.0000 0.0000
# 4 0.0000 0.0000 0.0000 9.3333 0.0000 0.0000
# 5 0.0000 0.0000 0.0000 0.0000 9.3333 0.0000
# 6 -1.2426 1.2426 0.0000 0.0000 0.0000 43.2637
#
#
#
# Elastic Compliance Matrix: (Units=1/GPa)
#
#
# Indices 1 2 3 4 5 6 
#
# 1 0.011697 0.000957 0.001083 0.000000 0.000000 0.000308
# 2 0.000957 0.011697 0.001083 0.000000 0.000000 -0.000308
# 3 0.001083 0.001083 0.023145 0.000000 0.000000 0.000000
# 4 0.000000 0.000000 0.000000 0.107143 0.000000 0.000000
# 5 0.000000 0.000000 0.000000 0.000000 0.107144 0.000000
# 6 0.000308 -0.000308 0.000000 0.000000 0.000000 0.023132
#
#
# Mechanical properties :
#
#
# Convention : Reuss Voigt Hill
#
# Bulk Modulus (GPa) = 18.94446 20.88533 19.91490
# Shear Modulus (GPa) = 16.93152 27.76017 22.34584
#
# Velocity S-wave (km/s) = 2.79248 3.57564 3.20805
# Velocity P-wave (km/s) = 4.37291 5.16390 4.78478
#
# Compressibility (1/GPa) = 0.05278588
#
# Stress axis : x y z
#
# Youngs Moduli (GPa) = 85.49028 85.49028 43.20573
#
# Poissons Ratio (x) = -0.08183 -0.04679
# Poissons Ratio (y) = -0.08183 -0.04679
# Poissons Ratio (z) = -0.09258 -0.09258
#
# Static dielectric constant tensor:
#      x y z
#    x 1.814830 0.000000 0.000000 
#    y 0.000000 1.814830 0.000000 
#    z 0.000000 0.000000 1.793000 
# 
# From -- ./inp_files/4249.got.cif
#   From: 2010.05.17/outbox.cif.g08.bks.cpg/sg87_3_cif.got.tgz:4249.got - 2010.06.03 19:07:00.
