data_PCOD9545631
_publ_section_title
;
Structure prediction by ZEFSAII (Michael W. Deem and Ramdas Pophale) SiO2 
 PCOD9545631
Probable space group: I 4/M
;
_chemical_formula_sum "Si O2"
_cell_formula_units_Z 72
_cell_length_a 22.149942
_cell_length_b 22.149942
_cell_length_c 7.627190
_cell_angle_alpha 90.000000
_cell_angle_beta 90.000000
_cell_angle_gamma 90.000000
_cell_volume 3742.051428
_symmetry_space_group_name_H-M "I 4/M"
_symmetry_group_IT_number 87
_symmetry_cell_setting 'tetragonal'
loop_
_space_group_symop_operation_xyz
x,y,z
-y,x,z
-x,-y,z
y,-x,z
-x,-y,-z
y,-x,-z
x,y,-z
-y,x,-z
1/2+x,1/2+y,1/2+z
1/2-y,1/2+x,1/2+z
1/2-x,1/2-y,1/2+z
1/2+y,1/2-x,1/2+z
1/2-x,1/2-y,1/2-z
1/2+y,1/2-x,1/2-z
1/2+x,1/2+y,1/2-z
1/2-y,1/2+x,1/2-z
loop_
_atom_site_type_symbol
_atom_site_label
_atom_site_fract_x
_atom_site_fract_y
_atom_site_fract_z
Si Si1 0.900505 0.976808 0.500000
Si Si2 0.117511 0.375236 0.712462
Si Si3 0.309458 0.435704 0.297017
Si Si4 0.006335 0.682186 0.293064
Si Si5 0.757676 0.680353 0.709515
O O1 0.858064 0.965446 0.669048
O O2 0.956508 0.929817 0.500000
O O3 0.116079 0.373950 0.500000
O O4 0.130136 0.443836 0.766261
O O5 0.177158 0.340616 0.776127
O O6 0.057107 0.342876 0.775049
O O7 0.329575 0.434239 0.500000
O O8 0.244696 0.470178 0.289669
O O9 0.292813 0.367694 0.231371
O O10 0.000894 0.694619 0.500000
O O11 0.758457 0.673137 0.500000
O O12 0.750000 0.750000 0.750000
#
# Coordination Sequence:
#
# PCOD9545631 Si02
#       5
#     8  16  16  16  16
#     4  11  26  46  68  94 122 161 210 256 308 370
#     4   9  20  35  51  78 117 157 202 253 301 360
#     4  10  22  42  64  90 127 162 201 256 311 366
#     4  10  19  35  58  84 118 163 207 249 304 363
#     4   9  19  34  55  85 118 153 195 250 307 360
#
# _framework density 19.240780999999998
#
# number of rings (size 3 to 8) (size 9 to 14) (size 15 to 20)
#    0.000    2.333    1.111    2.000    1.556    5.778 
#    0.000    5.556    0.000    0.000    0.000    0.000 
#    0.000    0.000    0.000    0.000    0.000    0.000 
#
# Total GULP energy -200839.495443 kJ/mol
# GULP energy per Si atom -5578.874873 kJ/mol
# Density = 1.919699 g / cm^3
# Si number density = 19.240781 Si / 1000 Ang^3
#
#
#
# Elastic Constant Matrix: (Units=GPa)
#
#
# Indices 1 2 3 4 5 6 
#
# 1 105.6091 43.9030 24.0437 0.0000 0.0000 14.8412
# 2 43.9030 105.6091 24.0437 0.0000 0.0000 -14.8412
# 3 24.0437 24.0437 78.3662 0.0000 0.0000 0.0000
# 4 0.0000 0.0000 0.0000 22.9394 0.0000 0.0000
# 5 0.0000 0.0000 0.0000 0.0000 22.9394 0.0000
# 6 14.8412 -14.8412 0.0000 0.0000 0.0000 22.2007
#
#
#
# Elastic Compliance Matrix: (Units=1/GPa)
#
#
# Indices 1 2 3 4 5 6 
#
# 1 0.015654 -0.008233 -0.002277 0.000000 0.000000 -0.015969
# 2 -0.008233 0.015654 -0.002277 0.000000 0.000000 0.015969
# 3 -0.002277 -0.002277 0.014158 0.000000 0.000000 0.000000
# 4 0.000000 0.000000 0.000000 0.043593 0.000000 0.000000
# 5 0.000000 0.000000 0.000000 0.000000 0.043593 0.000000
# 6 -0.015969 0.015969 0.000000 0.000000 0.000000 0.066394
#
#
# Mechanical properties :
#
#
# Convention : Reuss Voigt Hill
#
# Bulk Modulus (GPa) = 50.27140 52.61836 51.44488
# Shear Modulus (GPa) = 21.62166 26.78884 24.20525
#
# Velocity S-wave (km/s) = 3.35586 3.73539 3.55070
# Velocity P-wave (km/s) = 6.41872 6.78313 6.60344
#
# Compressibility (1/GPa) = 0.01989203
#
# Stress axis : x y z
#
# Youngs Moduli (GPa) = 63.88165 63.88165 70.63298
#
# Poissons Ratio (x) = 0.52595 0.16081
# Poissons Ratio (y) = 0.52595 0.16081
# Poissons Ratio (z) = 0.14544 0.14544
#
# Static dielectric constant tensor:
#      x y z
#    x 1.672010 0.000000 0.000000 
#    y 0.000000 1.672010 0.000000 
#    z 0.000000 0.000000 1.789800 
# 
# From -- ./inp_files/1081.got.cif
#   From: 2010.05.17/outbox.cif.g08.bks.cpg/sg87_1_cif.got.tgz:1081.got - 2010.06.03 19:07:00.
