data_PCOD9545482
_publ_section_title
;
Structure prediction by ZEFSAII (Michael W. Deem and Ramdas Pophale) SiO2 
 PCOD9545482
Probable space group: I 4/M
;
_chemical_formula_sum "Si O2"
_cell_formula_units_Z 64
_cell_length_a 27.459261
_cell_length_b 27.459261
_cell_length_c 5.424571
_cell_angle_alpha 90.000000
_cell_angle_beta 90.000000
_cell_angle_gamma 90.000000
_cell_volume 4090.186284
_symmetry_space_group_name_H-M "I 4/M"
_symmetry_group_IT_number 87
_symmetry_cell_setting 'tetragonal'
loop_
_space_group_symop_operation_xyz
x,y,z
-y,x,z
-x,-y,z
y,-x,z
-x,-y,-z
y,-x,-z
x,y,-z
-y,x,-z
1/2+x,1/2+y,1/2+z
1/2-y,1/2+x,1/2+z
1/2-x,1/2-y,1/2+z
1/2+y,1/2-x,1/2+z
1/2-x,1/2-y,1/2-z
1/2+y,1/2-x,1/2-z
1/2+x,1/2+y,1/2-z
1/2-y,1/2+x,1/2-z
loop_
_atom_site_type_symbol
_atom_site_label
_atom_site_fract_x
_atom_site_fract_y
_atom_site_fract_z
Si Si1 0.991241 0.708257 0.000000
Si Si2 0.277555 0.657285 0.000000
Si Si3 0.734558 0.644105 0.000000
Si Si4 0.631555 0.118689 0.500000
Si Si5 0.234191 0.558346 0.000000
Si Si6 0.824386 0.717564 0.000000
Si Si7 0.909192 0.633707 0.000000
Si Si8 0.104013 0.725548 0.000000
O O1 0.048986 0.706280 0.000000
O O2 0.972729 0.733869 0.250568
O O3 0.962617 0.656747 0.000000
O O4 0.329747 0.682673 0.000000
O O5 0.275875 0.598855 0.000000
O O6 0.249669 0.672670 0.251872
O O7 0.745002 0.614721 0.250628
O O8 0.774763 0.687295 0.000000
O O9 0.683097 0.089509 0.500000
O O10 0.605932 0.102881 0.249216
O O11 0.637357 0.176762 0.500000
O O12 0.869872 0.679219 0.000000
#
# Coordination Sequence:
#
# PCOD9545482 Si02
#       8
#     8   8   8   8   8   8   8   8
#     4  10  20  30  49  61  85 117 159 193 220 267
#     4  12  20  30  47  66  92 122 160 185 223 256
#     4  12  23  30  43  67  99 127 145 183 237 271
#     4  10  16  29  46  60  89 111 138 194 229 250
#     4  10  17  33  47  66  81 115 161 198 209 249
#     4  12  17  32  46  68  91 122 155 192 217 255
#     4  10  16  30  48  62  82 115 151 198 219 240
#     4  12  21  34  42  66  95 124 149 183 243 275
#
# _framework density 15.647209999999999
#
# number of rings (size 3 to 8) (size 9 to 14) (size 15 to 20)
#    0.000    1.000    7.500    3.000    0.000    0.000 
#    0.000    0.000    0.000    0.000    0.000    0.000 
#    0.000   48.000    0.000    0.000    0.000   43.750 
#
# Total GULP energy -178460.968569 kJ/mol
# GULP energy per Si atom -5576.905268 kJ/mol
# Density = 1.561160 g / cm^3
# Si number density = 15.647210 Si / 1000 Ang^3
#
#
#
# Elastic Constant Matrix: (Units=GPa)
#
#
# Indices 1 2 3 4 5 6 
#
# 1 30.0647 25.0940 19.9141 0.0000 0.0000 -6.2534
# 2 25.0940 30.0647 19.9141 0.0000 0.0000 6.2534
# 3 19.9141 19.9141 167.0231 0.0000 0.0000 0.0000
# 4 0.0000 0.0000 0.0000 12.1619 0.0000 0.0000
# 5 0.0000 0.0000 0.0000 0.0000 12.1619 0.0000
# 6 -6.2534 6.2534 0.0000 0.0000 0.0000 -0.9871
#
#
#
# Elastic Compliance Matrix: (Units=1/GPa)
#
#
# Indices 1 2 3 4 5 6 
#
# 1 0.015857 0.003981 -0.002365 0.000000 0.000000 -0.075237
# 2 0.003981 0.015857 -0.002365 0.000000 0.000000 0.075237
# 3 -0.002365 -0.002365 0.006551 0.000000 0.000000 0.000000
# 4 0.000000 0.000000 0.000000 0.082224 0.000000 0.000000
# 5 0.000000 0.000000 0.000000 0.000000 0.082224 0.000000
# 6 -0.075237 0.075237 0.000000 0.000000 0.000000 -0.059805
#
#
# Mechanical properties :
#
#
# Convention : Reuss Voigt Hill
#
# Bulk Modulus (GPa) = 27.19972 39.66630 33.43301
# Shear Modulus (GPa) = 31.91582 15.48271 23.69926
#
# Velocity S-wave (km/s) = 4.52122 3.14902 3.89601
# Velocity P-wave (km/s) = 6.68402 6.21508 6.45381
#
# Compressibility (1/GPa) = 0.03676509
#
# Stress axis : x y z
#
# Youngs Moduli (GPa) = 63.06435 63.06435 152.64384
#
# Poissons Ratio (x) = -0.25103 0.36103
# Poissons Ratio (y) = -0.25103 0.36103
# Poissons Ratio (z) = 0.14916 0.14916
#
# Static dielectric constant tensor:
#      x y z
#    x 1.511900 0.000000 0.000000 
#    y 0.000000 1.511900 0.000000 
#    z 0.000000 0.000000 1.614360 
# 
# From -- ./inp_files/241.got.cif
#   From: 2010.05.17/outbox.cif.g08.bks.cpg/sg87_1_cif.got.tgz:241.got - 2010.06.03 19:07:00.
