data_PCOD9545337
_publ_section_title
;
Structure prediction by ZEFSAII (Michael W. Deem and Ramdas Pophale) SiO2 
 PCOD9545337
Probable space group: P 42/N
;
_chemical_formula_sum "Si O2"
_cell_formula_units_Z 48
_cell_length_a 9.475611
_cell_length_b 9.475611
_cell_length_c 26.988334
_cell_angle_alpha 90.000000
_cell_angle_beta 90.000000
_cell_angle_gamma 90.000000
_cell_volume 2423.207046
_symmetry_space_group_name_H-M "P 42/N"
_symmetry_group_IT_number 86
_space_group.IT_coordinate_system_code '2'
_symmetry_cell_setting 'tetragonal'
loop_
_space_group_symop_operation_xyz
x,y,z
-y,1/2+x,1/2+z
1/2-x,1/2-y,z
1/2+y,-x,1/2+z
-x,-y,-z
y,1/2-x,1/2-z
1/2+x,1/2+y,-z
1/2-y,x,1/2-z
loop_
_atom_site_type_symbol
_atom_site_label
_atom_site_fract_x
_atom_site_fract_y
_atom_site_fract_z
Si Si1 0.906379 0.423032 0.283276
Si Si2 0.940431 0.592592 0.383443
Si Si3 0.906282 0.409709 0.790767
Si Si4 0.067079 0.460996 0.890955
Si Si5 0.422435 0.757767 0.040645
Si Si6 0.738725 0.081977 0.573034
O O1 0.912680 0.531577 0.329084
O O2 0.743779 0.424219 0.265145
O O3 0.934444 0.260471 0.298404
O O4 0.016474 0.474221 0.242380
O O5 0.847942 0.505851 0.423009
O O6 0.926450 0.764163 0.388404
O O7 0.098579 0.551665 0.397587
O O8 0.986688 0.403117 0.843097
O O9 0.042632 0.627233 0.894614
O O10 0.988359 0.403100 0.939644
O O11 0.250000 0.750000 0.045701
O O12 0.467548 0.734447 0.983800
O O13 0.750000 0.250000 0.567346
#
# Coordination Sequence:
#
# PCOD9545337 Si02
#       6
#     8   8   8   8   8   8
#     4  11  25  44  66  93 125 162 207 264 323 381
#     4  11  22  40  65  93 127 168 217 261 317 382
#     4  11  25  44  66  93 125 162 207 264 323 381
#     4  11  22  40  65  93 127 168 217 261 317 382
#     4  11  21  39  63  93 133 171 213 265 312 371
#     4   9  22  39  61  93 131 171 213 263 318 371
#
# _framework density 19.808458999999999
#
# number of rings (size 3 to 8) (size 9 to 14) (size 15 to 20)
#    0.000    1.333    1.667    3.500    2.333    2.000 
#    0.000    7.500    0.000    0.000    0.000    0.000 
#    0.000    0.000    0.000    0.000    0.000    0.000 
#
# Total GULP energy -267757.711743 kJ/mol
# GULP energy per Si atom -5578.285661 kJ/mol
# Density = 1.976337 g / cm^3
# Si number density = 19.808459 Si / 1000 Ang^3
#
#
#
# Elastic Constant Matrix: (Units=GPa)
#
#
# Indices 1 2 3 4 5 6 
#
# 1 97.2740 17.9822 15.8883 0.0000 0.0000 -0.4394
# 2 17.9822 97.2740 15.8883 0.0000 0.0000 0.4394
# 3 15.8883 15.8883 40.4403 0.0000 0.0000 0.0000
# 4 0.0000 0.0000 0.0000 -174.2074 0.0000 0.0000
# 5 0.0000 0.0000 0.0000 0.0000 -174.2074 0.0000
# 6 -0.4394 0.4394 0.0000 0.0000 0.0000 27.4717
#
#
#
# Elastic Compliance Matrix: (Units=1/GPa)
#
#
# Indices 1 2 3 4 5 6 
#
# 1 0.011172 -0.001442 -0.003823 0.000000 0.000000 0.000202
# 2 -0.001442 0.011172 -0.003823 0.000000 0.000000 -0.000202
# 3 -0.003823 -0.003823 0.027732 0.000000 0.000000 0.000000
# 4 0.000000 0.000000 0.000000 -0.005740 0.000000 0.000000
# 5 0.000000 0.000000 0.000000 0.000000 -0.005740 0.000000
# 6 0.000202 -0.000202 0.000000 0.000000 0.000000 0.036408
#
#
# Mechanical properties :
#
#
# Convention : Reuss Voigt Hill
#
# Bulk Modulus (GPa) = 31.34715 37.16732 34.25723
# Shear Modulus (GPa) = 48.16418 -51.83997 -1.83789
#
# Velocity S-wave (km/s) = 4.93637 -5.12127 -0.96429
# Velocity P-wave (km/s) = 6.95340 4.02067 4.01148
#
# Compressibility (1/GPa) = 0.03190083
#
# Stress axis : x y z
#
# Youngs Moduli (GPa) = 89.50879 89.50879 36.05979
#
# Poissons Ratio (x) = 0.12905 0.13785
# Poissons Ratio (y) = 0.12905 0.13785
# Poissons Ratio (z) = 0.34218 0.34218
#
# Static dielectric constant tensor:
#      x y z
#    x 1.583370 0.000000 0.000000 
#    y 0.000000 1.583370 0.000000 
#    z 0.000000 0.000000 1.681520 
# 
# From -- ./inp_files/5186.got.cif
#   From: 2010.05.17/outbox.cif.g08.bks.cpg/sg86_3_cif.got.tgz:5186.got - 2010.06.03 19:03:11.
