data_PCOD9545026
_publ_section_title
;
Structure prediction by ZEFSAII (Michael W. Deem and Ramdas Pophale) SiO2 
 PCOD9545026
Probable space group: P 42/N
;
_chemical_formula_sum "Si O2"
_cell_formula_units_Z 48
_cell_length_a 11.265476
_cell_length_b 11.265476
_cell_length_c 17.918080
_cell_angle_alpha 90.000000
_cell_angle_beta 90.000000
_cell_angle_gamma 90.000000
_cell_volume 2274.000546
_symmetry_space_group_name_H-M "P 42/N"
_symmetry_group_IT_number 86
_space_group.IT_coordinate_system_code '2'
_symmetry_cell_setting 'tetragonal'
loop_
_space_group_symop_operation_xyz
x,y,z
-y,1/2+x,1/2+z
1/2-x,1/2-y,z
1/2+y,-x,1/2+z
-x,-y,-z
y,1/2-x,1/2-z
1/2+x,1/2+y,-z
1/2-y,x,1/2-z
loop_
_atom_site_type_symbol
_atom_site_label
_atom_site_fract_x
_atom_site_fract_y
_atom_site_fract_z
Si Si1 0.921458 0.842462 0.026317
Si Si2 0.875038 0.824161 0.861084
Si Si3 0.929578 0.830493 0.479757
Si Si4 0.718148 0.122069 0.363870
Si Si5 0.521706 0.161419 0.247971
Si Si6 0.981489 0.035235 0.377142
O O1 0.875130 0.705964 0.031044
O O2 0.808224 0.927544 0.039561
O O3 0.033200 0.853220 0.081032
O O4 0.940858 0.851776 0.938019
O O5 0.750000 0.750000 0.871661
O O6 0.830507 0.940505 0.820446
O O7 0.972279 0.763150 0.807186
O O8 0.972164 0.866394 0.563089
O O9 0.001013 0.913108 0.423072
O O10 0.750000 0.250000 0.398876
O O11 0.650870 0.147234 0.285495
O O12 0.846341 0.061477 0.356038
O O13 0.483119 0.049080 0.199386
#
# Coordination Sequence:
#
# PCOD9545026 Si02
#       6
#     8   8   8   8   8   8
#     4  10  20  39  65  98 118 163 225 270 313 382
#     4  12  21  38  71  99 111 156 233 292 304 360
#     4   9  18  37  71  94 119 157 227 275 311 373
#     4  11  27  42  57  91 144 175 197 264 344 403
#     4  12  23  40  64  94 128 167 214 269 328 379
#     4  10  21  41  64  92 130 173 208 265 330 392
#
# _framework density 21.108174999999999
#
# number of rings (size 3 to 8) (size 9 to 14) (size 15 to 20)
#    0.000    1.333    5.000    1.000    2.333    2.000 
#    0.000    2.500    0.000    0.000    0.000    0.000 
#    0.000    0.000    0.000    0.000    0.000    0.000 
#
# Total GULP energy -267555.846515 kJ/mol
# GULP energy per Si atom -5574.080136 kJ/mol
# Density = 2.106013 g / cm^3
# Si number density = 21.108175 Si / 1000 Ang^3
#
#
#
# Elastic Constant Matrix: (Units=GPa)
#
#
# Indices 1 2 3 4 5 6 
#
# 1 82.2226 15.9258 19.4505 0.0000 0.0000 -12.5113
# 2 15.9258 82.2226 19.4505 0.0000 0.0000 12.5113
# 3 19.4505 19.4505 61.1073 0.0000 0.0000 0.0000
# 4 0.0000 0.0000 0.0000 19.2121 0.0000 0.0000
# 5 0.0000 0.0000 0.0000 0.0000 19.2121 0.0000
# 6 -12.5113 12.5113 0.0000 0.0000 0.0000 27.1037
#
#
#
# Elastic Compliance Matrix: (Units=1/GPa)
#
#
# Indices 1 2 3 4 5 6 
#
# 1 0.014963 -0.003303 -0.003711 0.000000 0.000000 0.008432
# 2 -0.003303 0.014963 -0.003711 0.000000 0.000000 -0.008432
# 3 -0.003711 -0.003711 0.018727 0.000000 0.000000 0.000000
# 4 0.000000 0.000000 0.000000 0.052051 0.000000 0.000000
# 5 0.000000 0.000000 0.000000 0.000000 0.052051 0.000000
# 6 0.008432 -0.008432 0.000000 0.000000 0.000000 0.044680
#
#
# Mechanical properties :
#
#
# Convention : Reuss Voigt Hill
#
# Bulk Modulus (GPa) = 36.76281 37.24514 37.00397
# Shear Modulus (GPa) = 21.93440 24.48729 23.21084
#
# Velocity S-wave (km/s) = 3.22707 3.40970 3.31964
# Velocity P-wave (km/s) = 5.59817 5.76061 5.67997
#
# Compressibility (1/GPa) = 0.02720141
#
# Stress axis : x y z
#
# Youngs Moduli (GPa) = 66.83218 66.83218 53.39816
#
# Poissons Ratio (x) = 0.22076 0.19817
# Poissons Ratio (y) = 0.22076 0.19817
# Poissons Ratio (z) = 0.24803 0.24803
#
# Static dielectric constant tensor:
#      x y z
#    x 1.840710 0.000000 0.000000 
#    y 0.000000 1.840710 0.000000 
#    z 0.000000 0.000000 1.741880 
# 
# From -- ./inp_files/3590.got.cif
#   From: 2010.05.17/outbox.cif.g08.bks.cpg/sg86_2_cif.got.tgz:3590.got - 2010.06.03 19:03:11.
