data_PCOD9545351
_publ_section_title
;
Structure prediction by ZEFSAII (Michael W. Deem and Ramdas Pophale) SiO2 
 PCOD9545351
Probable space group: P 42/N
;
_chemical_formula_sum "Si O2"
_cell_formula_units_Z 42
_cell_length_a 14.394797
_cell_length_b 14.394797
_cell_length_c 9.556308
_cell_angle_alpha 90.000000
_cell_angle_beta 90.000000
_cell_angle_gamma 90.000000
_cell_volume 1980.164307
_symmetry_space_group_name_H-M "P 42/N"
_symmetry_group_IT_number 86
_space_group.IT_coordinate_system_code '2'
_symmetry_cell_setting 'tetragonal'
loop_
_space_group_symop_operation_xyz
x,y,z
-y,1/2+x,1/2+z
1/2-x,1/2-y,z
1/2+y,-x,1/2+z
-x,-y,-z
y,1/2-x,1/2-z
1/2+x,1/2+y,-z
1/2-y,x,1/2-z
loop_
_atom_site_type_symbol
_atom_site_label
_atom_site_fract_x
_atom_site_fract_y
_atom_site_fract_z
Si Si1 0.250000 0.250000 0.250000
Si Si2 0.381041 0.722642 0.000385
Si Si3 0.834275 0.633388 0.214052
Si Si4 0.419939 0.262296 0.422417
Si Si5 0.593436 0.945708 0.470953
Si Si6 0.375405 0.716998 0.669312
O O1 0.328610 0.296431 0.343751
O O2 0.483543 0.678754 0.006370
O O3 0.363857 0.819024 0.085619
O O4 0.309863 0.655958 0.085389
O O5 0.354262 0.724949 0.835300
O O6 0.740427 0.639237 0.308471
O O7 0.908535 0.583153 0.308265
O O8 0.807446 0.581118 0.075154
O O9 0.406216 0.151297 0.444844
O O10 0.514322 0.288663 0.346646
O O11 0.500000 0.000000 0.500000
#
# Coordination Sequence:
#
# PCOD9545351 Si02
#       6
#     2   8   8   8   8   8
#     4  12  24  44  66  96 144 176 244 290 352 416
#     4  11  24  42  64  99 133 179 225 291 341 421
#     4   9  20  38  63  89 122 172 221 268 330 404
#     4  11  23  41  66  95 133 186 223 284 347 421
#     4  11  22  39  66  95 136 171 225 286 350 411
#     4  11  24  40  68  95 132 180 228 278 360 401
#
# _framework density 21.210360000000001
#
# number of rings (size 3 to 8) (size 9 to 14) (size 15 to 20)
#    0.000    1.333    1.905    5.714    5.333    0.000 
#    0.000    0.000    0.000    6.857    0.000    0.000 
#    0.000    0.000    0.000    0.000    0.000    0.000 
#
# Total GULP energy -234498.090904 kJ/mol
# GULP energy per Si atom -5583.287879 kJ/mol
# Density = 2.116208 g / cm^3
# Si number density = 21.210360 Si / 1000 Ang^3
#
#
#
# Elastic Constant Matrix: (Units=GPa)
#
#
# Indices 1 2 3 4 5 6 
#
# 1 76.7599 4.3541 23.7218 0.0000 0.0000 -0.6203
# 2 4.3541 76.7599 23.7218 0.0000 0.0000 0.6203
# 3 23.7218 23.7218 119.1063 0.0000 0.0000 0.0000
# 4 0.0000 0.0000 0.0000 18.8736 0.0000 0.0000
# 5 0.0000 0.0000 0.0000 0.0000 18.8736 0.0000
# 6 -0.6203 0.6203 0.0000 0.0000 0.0000 35.2820
#
#
#
# Elastic Compliance Matrix: (Units=1/GPa)
#
#
# Indices 1 2 3 4 5 6 
#
# 1 0.013885 0.000069 -0.002779 0.000000 0.000000 0.000243
# 2 0.000069 0.013885 -0.002779 0.000000 0.000000 -0.000243
# 3 -0.002779 -0.002779 0.009503 0.000000 0.000000 0.000000
# 4 0.000000 0.000000 0.000000 0.052984 0.000000 0.000000
# 5 0.000000 0.000000 0.000000 0.000000 0.052984 0.000000
# 6 0.000243 -0.000243 0.000000 0.000000 0.000000 0.028352
#
#
# Mechanical properties :
#
#
# Convention : Reuss Voigt Hill
#
# Bulk Modulus (GPa) = 38.03141 41.80242 39.91692
# Shear Modulus (GPa) = 26.13232 29.32775 27.73004
#
# Velocity S-wave (km/s) = 3.51387 3.72251 3.61970
# Velocity P-wave (km/s) = 5.86793 6.18283 6.02744
#
# Compressibility (1/GPa) = 0.02629405
#
# Stress axis : x y z
#
# Youngs Moduli (GPa) = 72.02267 72.02267 105.23141
#
# Poissons Ratio (x) = -0.00499 0.29245
# Poissons Ratio (y) = -0.00499 0.29245
# Poissons Ratio (z) = 0.20016 0.20016
#
# Static dielectric constant tensor:
#      x y z
#    x 1.825330 0.000000 0.000000 
#    y 0.000000 1.825330 0.000000 
#    z 0.000000 0.000000 1.787970 
# 
# From -- ./inp_files/1173.got.cif
#   From: 2010.05.17/outbox.cif.g08.bks.cpg/sg86_1_cif.got.tgz:1173.got - 2010.06.03 19:03:11.
