data_PCOD9545793
_publ_section_title
;
Structure prediction by ZEFSAII (Michael W. Deem and Ramdas Pophale) SiO2 
 PCOD9545793
Probable space group: I 4/M
;
_chemical_formula_sum "Si O2"
_cell_formula_units_Z 56
_cell_length_a 17.518145
_cell_length_b 17.518145
_cell_length_c 7.806797
_cell_angle_alpha 90.000000
_cell_angle_beta 90.000000
_cell_angle_gamma 90.000000
_cell_volume 2395.792053
_symmetry_space_group_name_H-M "I 4/M"
_symmetry_group_IT_number 87
_symmetry_cell_setting 'tetragonal'
loop_
_space_group_symop_operation_xyz
x,y,z
-y,x,z
-x,-y,z
y,-x,z
-x,-y,-z
y,-x,-z
x,y,-z
-y,x,-z
1/2+x,1/2+y,1/2+z
1/2-y,1/2+x,1/2+z
1/2-x,1/2-y,1/2+z
1/2+y,1/2-x,1/2+z
1/2-x,1/2-y,1/2-z
1/2+y,1/2-x,1/2-z
1/2+x,1/2+y,1/2-z
1/2-y,1/2+x,1/2-z
loop_
_atom_site_type_symbol
_atom_site_label
_atom_site_fract_x
_atom_site_fract_y
_atom_site_fract_z
Si Si1 0.013605 0.614392 0.811015
Si Si2 0.795070 0.124688 0.700103
Si Si3 0.790678 0.645088 0.797092
Si Si4 0.540470 0.623475 0.500000
O O1 0.078775 0.549047 0.811352
O O2 0.059294 0.687491 0.751032
O O3 0.980548 0.623847 0.000000
O O4 0.810340 0.106711 0.500000
O O5 0.706663 0.150455 0.718486
O O6 0.836031 0.204403 0.752732
O O7 0.826226 0.062488 0.832889
O O8 0.795318 0.655056 0.000000
O O9 0.453526 0.593030 0.500000
#
# Coordination Sequence:
#
# PCOD9545793 Si02
#       4
#    16  16  16   8
#     4  11  22  36  54  81 123 168 208 250 301 362
#     4  10  22  41  67  96 124 159 210 262 318 378
#     4  10  20  38  64  93 125 162 203 259 317 374
#     4  11  26  46  66  92 130 172 216 269 324 378
#
# _framework density 23.374316
#
# number of rings (size 3 to 8) (size 9 to 14) (size 15 to 20)
#    0.000    1.571    1.429    4.286    4.000    3.429 
#    0.000    4.286    0.000    0.000    0.000    0.000 
#    0.000    0.000    0.000    0.000    0.000    0.000 
#
# Total GULP energy -156614.629220 kJ/mol
# GULP energy per Si atom -5593.379615 kJ/mol
# Density = 2.332112 g / cm^3
# Si number density = 23.374316 Si / 1000 Ang^3
#
#
#
# Elastic Constant Matrix: (Units=GPa)
#
#
# Indices 1 2 3 4 5 6 
#
# 1 47.5504 55.3989 17.7205 0.0000 0.0000 13.5951
# 2 55.3989 47.5504 17.7205 0.0000 0.0000 -13.5951
# 3 17.7205 17.7205 110.2384 0.0000 0.0000 0.0000
# 4 0.0000 0.0000 0.0000 19.0173 0.0000 0.0000
# 5 0.0000 0.0000 0.0000 0.0000 19.0173 0.0000
# 6 13.5951 -13.5951 0.0000 0.0000 0.0000 56.1857
#
#
#
# Elastic Compliance Matrix: (Units=1/GPa)
#
#
# Indices 1 2 3 4 5 6 
#
# 1 -0.029515 0.039797 -0.001653 0.000000 0.000000 0.016771
# 2 0.039797 -0.029515 -0.001653 0.000000 0.000000 -0.016771
# 3 -0.001653 -0.001653 0.009603 0.000000 0.000000 0.000000
# 4 0.000000 0.000000 0.000000 0.052584 0.000000 0.000000
# 5 0.000000 0.000000 0.000000 0.000000 0.052584 0.000000
# 6 0.016771 -0.016771 0.000000 0.000000 0.000000 0.009682
#
#
# Mechanical properties :
#
#
# Convention : Reuss Voigt Hill
#
# Bulk Modulus (GPa) = 42.45174 43.00211 42.72692
# Shear Modulus (GPa) = 17096.93660 26.47735 8561.70698
#
# Velocity S-wave (km/s) = 85.61711 3.36929 60.58730
# Velocity P-wave (km/s) = 98.95414 5.79425 70.09099
#
# Compressibility (1/GPa) = 0.02355616
#
# Stress axis : x y z
#
# Youngs Moduli (GPa) = -33.88162 -33.88162 104.13799
#
# Poissons Ratio (x) = 1.34839 0.17213
# Poissons Ratio (y) = 1.34839 0.17213
# Poissons Ratio (z) = -0.05600 -0.05600
#
# Static dielectric constant tensor:
#      x y z
#    x 1.901070 0.000000 0.000000 
#    y 0.000000 1.901070 0.000000 
#    z 0.000000 0.000000 1.818780 
# 
# From -- ./inp_files/739.got.cif
#   From: 2010.05.17/outbox.cif.g08.bks.cpg/sg87_1_cif.got.tgz:739.got - 2010.06.03 19:07:00.
