data_PCOD9545154
_publ_section_title
;
Structure prediction by ZEFSAII (Michael W. Deem and Ramdas Pophale) SiO2 
 PCOD9545154
Probable space group: P 42/N
;
_chemical_formula_sum "Si O2"
_cell_formula_units_Z 56
_cell_length_a 11.344421
_cell_length_b 11.344421
_cell_length_c 20.416114
_cell_angle_alpha 90.000000
_cell_angle_beta 90.000000
_cell_angle_gamma 90.000000
_cell_volume 2627.469917
_symmetry_space_group_name_H-M "P 42/N"
_symmetry_group_IT_number 86
_space_group.IT_coordinate_system_code '2'
_symmetry_cell_setting 'tetragonal'
loop_
_space_group_symop_operation_xyz
x,y,z
-y,1/2+x,1/2+z
1/2-x,1/2-y,z
1/2+y,-x,1/2+z
-x,-y,-z
y,1/2-x,1/2-z
1/2+x,1/2+y,-z
1/2-y,x,1/2-z
loop_
_atom_site_type_symbol
_atom_site_label
_atom_site_fract_x
_atom_site_fract_y
_atom_site_fract_z
Si Si1 0.287658 0.612869 0.162201
Si Si2 0.107656 0.565097 0.438623
Si Si3 0.456798 0.178985 0.987256
Si Si4 0.867356 0.540233 0.385242
Si Si5 0.463348 0.701588 0.520011
Si Si6 0.080347 0.293004 0.722625
Si Si7 0.365831 0.675524 0.792429
O O1 0.250000 0.750000 0.155716
O O2 0.429012 0.615699 0.161868
O O3 0.240380 0.549337 0.096302
O O4 0.239250 0.567999 0.232189
O O5 0.206519 0.478371 0.467470
O O6 0.093494 0.692521 0.475940
O O7 0.146184 0.576571 0.361986
O O8 0.973429 0.519774 0.435772
O O9 0.453771 0.239081 0.916034
O O10 0.580766 0.109431 0.991618
O O11 0.344471 0.095991 0.002559
O O12 0.893741 0.662266 0.350037
O O13 0.162314 0.374586 0.767707
O O14 0.946829 0.319287 0.736800
O O15 0.250000 0.750000 0.808324
#
# Coordination Sequence:
#
# PCOD9545154 Si02
#       7
#     8   8   8   8   8   8   8
#     4  11  20  41  64  93 132 178 230 270 338 424
#     4  11  23  45  63  97 134 173 229 292 334 409
#     4  11  23  41  64  99 127 175 227 278 344 408
#     4  11  23  41  69  93 136 180 218 281 353 403
#     4  11  23  39  68  96 130 175 227 285 338 412
#     4  10  22  39  60  98 137 164 214 284 345 401
#     4  10  22  39  66  92 128 184 220 272 342 408
#
# _framework density 21.313278
#
# number of rings (size 3 to 8) (size 9 to 14) (size 15 to 20)
#    0.000    1.286    2.857    3.429    0.000    5.143 
#   12.857    0.000    0.000    0.000    0.000    0.000 
#    0.000    0.000    0.000    0.000    0.000    0.000 
#
# Total GULP energy -312390.389410 kJ/mol
# GULP energy per Si atom -5578.399811 kJ/mol
# Density = 2.126477 g / cm^3
# Si number density = 21.313278 Si / 1000 Ang^3
#
#
#
# Elastic Constant Matrix: (Units=GPa)
#
#
# Indices 1 2 3 4 5 6 
#
# 1 78.3924 5.1023 27.4709 0.0000 0.0000 6.5656
# 2 5.1023 78.3924 27.4709 0.0000 0.0000 -6.5656
# 3 27.4709 27.4709 101.2724 0.0000 0.0000 0.0000
# 4 0.0000 0.0000 0.0000 29.4219 0.0000 0.0000
# 5 0.0000 0.0000 0.0000 0.0000 29.4219 0.0000
# 6 6.5656 -6.5656 0.0000 0.0000 0.0000 19.7716
#
#
#
# Elastic Compliance Matrix: (Units=1/GPa)
#
#
# Indices 1 2 3 4 5 6 
#
# 1 0.014543 0.000036 -0.003955 0.000000 0.000000 -0.004818
# 2 0.000036 0.014543 -0.003955 0.000000 0.000000 0.004818
# 3 -0.003955 -0.003955 0.012020 0.000000 0.000000 0.000000
# 4 0.000000 0.000000 0.000000 0.033988 0.000000 0.000000
# 5 0.000000 0.000000 0.000000 0.000000 0.033988 0.000000
# 6 -0.004818 0.004818 0.000000 0.000000 0.000000 0.053777
#
#
# Mechanical properties :
#
#
# Convention : Reuss Voigt Hill
#
# Bulk Modulus (GPa) = 39.43329 42.01615 40.72472
# Shear Modulus (GPa) = 26.72932 28.92396 27.82664
#
# Velocity S-wave (km/s) = 3.54519 3.68786 3.61723
# Velocity P-wave (km/s) = 5.94136 6.15550 6.04938
#
# Compressibility (1/GPa) = 0.02535929
#
# Stress axis : x y z
#
# Youngs Moduli (GPa) = 68.76008 68.76008 83.19587
#
# Poissons Ratio (x) = -0.00246 0.32901
# Poissons Ratio (y) = -0.00246 0.32901
# Poissons Ratio (z) = 0.27192 0.27192
#
# Static dielectric constant tensor:
#      x y z
#    x 1.816120 0.000000 0.000000 
#    y 0.000000 1.816120 0.000000 
#    z 0.000000 0.000000 1.912360 
# 
# From -- ./inp_files/4175.got.cif
#   From: 2010.05.17/outbox.cif.g08.bks.cpg/sg86_3_cif.got.tgz:4175.got - 2010.06.03 19:03:11.
