data_PCOD9545066
_publ_section_title
;
Structure prediction by ZEFSAII (Michael W. Deem and Ramdas Pophale) SiO2 
 PCOD9545066
Probable space group: P 42/N
;
_chemical_formula_sum "Si O2"
_cell_formula_units_Z 40
_cell_length_a 7.977559
_cell_length_b 7.977559
_cell_length_c 26.473348
_cell_angle_alpha 90.000000
_cell_angle_beta 90.000000
_cell_angle_gamma 90.000000
_cell_volume 1684.802189
_symmetry_space_group_name_H-M "P 42/N"
_symmetry_group_IT_number 86
_space_group.IT_coordinate_system_code '2'
_symmetry_cell_setting 'tetragonal'
loop_
_space_group_symop_operation_xyz
x,y,z
-y,1/2+x,1/2+z
1/2-x,1/2-y,z
1/2+y,-x,1/2+z
-x,-y,-z
y,1/2-x,1/2-z
1/2+x,1/2+y,-z
1/2-y,x,1/2-z
loop_
_atom_site_type_symbol
_atom_site_label
_atom_site_fract_x
_atom_site_fract_y
_atom_site_fract_z
Si Si1 0.753205 0.948418 0.987622
Si Si2 0.018723 0.071296 0.581593
Si Si3 0.508480 0.598950 0.198917
Si Si4 0.640018 0.081951 0.404981
Si Si5 0.405613 0.018255 0.806765
O O1 0.750000 0.750000 0.992249
O O2 0.592745 0.981285 0.951244
O O3 0.900065 0.032209 0.955298
O O4 0.719802 0.025235 0.043031
O O5 0.941645 0.069369 0.637698
O O6 0.220457 0.062802 0.590576
O O7 0.434518 0.534649 0.146349
O O8 0.433266 0.548500 0.253208
O O9 0.499891 0.801972 0.194505
O O10 0.706423 0.555803 0.198062
O O11 0.750000 0.250000 0.399959
#
# Coordination Sequence:
#
# PCOD9545066 Si02
#       5
#     8   8   8   8   8
#     4  10  21  34  52  73 106 141 175 209 261 319
#     4   9  19  35  53  75 102 135 174 219 253 310
#     4   8  14  26  51  80  96 122 166 219 262 296
#     4   9  18  33  53  74 101 140 180 206 258 327
#     4   8  14  27  51  78  99 118 166 223 260 290
#
# _framework density 23.741658999999999
#
# number of rings (size 3 to 8) (size 9 to 14) (size 15 to 20)
#    0.000    3.200    0.000    1.200    5.600    0.800 
#    0.000    0.000   17.600    0.000    0.000    0.000 
#    0.000    0.000    0.000    0.000    0.000    0.000 
#
# Total GULP energy -222991.470904 kJ/mol
# GULP energy per Si atom -5574.786773 kJ/mol
# Density = 2.368762 g / cm^3
# Si number density = 23.741659 Si / 1000 Ang^3
#
#
#
# Elastic Constant Matrix: (Units=GPa)
#
#
# Indices 1 2 3 4 5 6 
#
# 1 31.9646 -5.5223 19.6379 0.0000 0.0000 0.3909
# 2 -5.5223 31.9646 19.6379 0.0000 0.0000 -0.3909
# 3 19.6379 19.6379 282.2990 0.0000 0.0000 0.0000
# 4 0.0000 0.0000 0.0000 22.7761 0.0000 0.0000
# 5 0.0000 0.0000 0.0000 0.0000 22.7761 0.0000
# 6 0.3909 -0.3909 0.0000 0.0000 0.0000 13.0932
#
#
#
# Elastic Compliance Matrix: (Units=1/GPa)
#
#
# Indices 1 2 3 4 5 6 
#
# 1 0.034434 0.007742 -0.002934 0.000000 0.000000 -0.000797
# 2 0.007742 0.034434 -0.002934 0.000000 0.000000 0.000797
# 3 -0.002934 -0.002934 0.003951 0.000000 0.000000 0.000000
# 4 0.000000 0.000000 0.000000 0.043906 0.000000 0.000000
# 5 0.000000 0.000000 0.000000 0.000000 0.043906 0.000000
# 6 -0.000797 0.000797 0.000000 0.000000 0.000000 0.076423
#
#
# Mechanical properties :
#
#
# Convention : Reuss Voigt Hill
#
# Bulk Modulus (GPa) = 13.06045 45.97056 29.51550
# Shear Modulus (GPa) = 19.31781 32.56073 25.93927
#
# Velocity S-wave (km/s) = 2.85558 3.70734 3.30898
# Velocity P-wave (km/s) = 4.04790 6.14253 5.20174
#
# Compressibility (1/GPa) = 0.07656706
#
# Stress axis : x y z
#
# Youngs Moduli (GPa) = 29.04073 29.04073 253.13003
#
# Poissons Ratio (x) = -0.22483 0.74267
# Poissons Ratio (y) = -0.22483 0.74267
# Poissons Ratio (z) = 0.08520 0.08520
#
# Static dielectric constant tensor:
#      x y z
#    x 1.958280 0.000000 0.000000 
#    y 0.000000 1.958280 0.000000 
#    z 0.000000 0.000000 2.023770 
# 
# From -- ./inp_files/4814.got.cif
#   From: 2010.05.17/outbox.cif.g08.bks.cpg/sg86_3_cif.got.tgz:4814.got - 2010.06.03 19:03:11.
