data_PCOD9545251
_publ_section_title
;
Structure prediction by ZEFSAII (Michael W. Deem and Ramdas Pophale) SiO2 
 PCOD9545251
Probable space group: P 42/N
;
_chemical_formula_sum "Si O2"
_cell_formula_units_Z 30
_cell_length_a 11.074537
_cell_length_b 11.074537
_cell_length_c 10.857690
_cell_angle_alpha 90.000000
_cell_angle_beta 90.000000
_cell_angle_gamma 90.000000
_cell_volume 1331.645405
_symmetry_space_group_name_H-M "P 42/N"
_symmetry_group_IT_number 86
_space_group.IT_coordinate_system_code '2'
_symmetry_cell_setting 'tetragonal'
loop_
_space_group_symop_operation_xyz
x,y,z
-y,1/2+x,1/2+z
1/2-x,1/2-y,z
1/2+y,-x,1/2+z
-x,-y,-z
y,1/2-x,1/2-z
1/2+x,1/2+y,-z
1/2-y,x,1/2-z
loop_
_atom_site_type_symbol
_atom_site_label
_atom_site_fract_x
_atom_site_fract_y
_atom_site_fract_z
Si Si1 0.619930 0.870923 0.940425
Si Si2 0.023830 0.877669 0.331986
Si Si3 0.250000 0.750000 0.942267
Si Si4 0.010990 0.862568 0.046766
Si Si5 0.250000 0.250000 0.250000
O O1 0.514947 0.949030 0.875491
O O2 0.721888 0.860781 0.837885
O O3 0.568674 0.738157 0.975124
O O4 0.665947 0.928619 0.066263
O O5 0.147415 0.807673 0.357247
O O6 0.983772 0.864061 0.192302
O O7 0.146652 0.812823 0.023914
O O8 0.000000 0.000000 0.000000
#
# Coordination Sequence:
#
# PCOD9545251 Si02
#       5
#     8   8   4   8   2
#     4  10  25  40  65  98 132 182 221 290 341 425
#     4  10  23  44  64  98 138 171 240 283 347 422
#     4  10  24  42  70 100 136 190 230 296 358 430
#     4  11  24  42  70 102 135 189 230 291 361 424
#     4  12  24  44  66  96 140 176 224 278 376 412
#
# _framework density 22.528521999999999
#
# number of rings (size 3 to 8) (size 9 to 14) (size 15 to 20)
#    0.000    1.600    0.000    2.400   11.200    0.000 
#    0.000    0.000    0.000    0.000    0.000    0.000 
#    0.000    0.000    0.000    0.000    0.000    0.000 
#
# Total GULP energy -167757.932857 kJ/mol
# GULP energy per Si atom -5591.931095 kJ/mol
# Density = 2.247725 g / cm^3
# Si number density = 22.528522 Si / 1000 Ang^3
#
#
#
# Elastic Constant Matrix: (Units=GPa)
#
#
# Indices 1 2 3 4 5 6 
#
# 1 64.4859 2.5179 18.1366 0.0000 0.0000 1.5545
# 2 2.5179 64.4859 18.1366 0.0000 0.0000 -1.5545
# 3 18.1366 18.1366 150.7253 0.0000 0.0000 0.0000
# 4 0.0000 0.0000 0.0000 13.9931 0.0000 0.0000
# 5 0.0000 0.0000 0.0000 0.0000 13.9931 0.0000
# 6 1.5545 -1.5545 0.0000 0.0000 0.0000 19.6824
#
#
#
# Elastic Compliance Matrix: (Units=1/GPa)
#
#
# Indices 1 2 3 4 5 6 
#
# 1 0.016083 -0.000119 -0.001921 0.000000 0.000000 -0.001280
# 2 -0.000119 0.016083 -0.001921 0.000000 0.000000 0.001280
# 3 -0.001921 -0.001921 0.007097 0.000000 0.000000 0.000000
# 4 0.000000 0.000000 0.000000 0.071464 0.000000 0.000000
# 5 0.000000 0.000000 0.000000 0.000000 0.071464 0.000000
# 6 -0.001280 0.001280 0.000000 0.000000 0.000000 0.051009
#
#
# Mechanical properties :
#
#
# Convention : Reuss Voigt Hill
#
# Bulk Modulus (GPa) = 31.90617 39.69769 35.80193
# Shear Modulus (GPa) = 19.87539 25.59414 22.73477
#
# Velocity S-wave (km/s) = 2.97346 3.37423 3.18017
# Velocity P-wave (km/s) = 5.09725 5.73061 5.42318
#
# Compressibility (1/GPa) = 0.03134190
#
# Stress axis : x y z
#
# Youngs Moduli (GPa) = 62.17738 62.17738 140.90691
#
# Poissons Ratio (x) = 0.00737 0.27068
# Poissons Ratio (y) = 0.00737 0.27068
# Poissons Ratio (z) = 0.11944 0.11944
#
# Static dielectric constant tensor:
#      x y z
#    x 1.862390 0.000000 0.000000 
#    y 0.000000 1.862390 0.000000 
#    z 0.000000 0.000000 1.786600 
# 
# From -- ./inp_files/1849.got.cif
#   From: 2010.05.17/outbox.cif.g08.bks.cpg/sg86_1_cif.got.tgz:1849.got - 2010.06.03 19:03:11.
