data_PCOD9545187
_publ_section_title
;
Structure prediction by ZEFSAII (Michael W. Deem and Ramdas Pophale) SiO2 
 PCOD9545187
Probable space group: P 42/N
;
_chemical_formula_sum "Si O2"
_cell_formula_units_Z 26
_cell_length_a 9.527147
_cell_length_b 9.527147
_cell_length_c 11.914639
_cell_angle_alpha 90.000000
_cell_angle_beta 90.000000
_cell_angle_gamma 90.000000
_cell_volume 1081.450438
_symmetry_space_group_name_H-M "P 42/N"
_symmetry_group_IT_number 86
_space_group.IT_coordinate_system_code '2'
_symmetry_cell_setting 'tetragonal'
loop_
_space_group_symop_operation_xyz
x,y,z
-y,1/2+x,1/2+z
1/2-x,1/2-y,z
1/2+y,-x,1/2+z
-x,-y,-z
y,1/2-x,1/2-z
1/2+x,1/2+y,-z
1/2-y,x,1/2-z
loop_
_atom_site_type_symbol
_atom_site_label
_atom_site_fract_x
_atom_site_fract_y
_atom_site_fract_z
Si Si1 0.515488 0.302448 0.887319
Si Si2 0.740033 0.065367 0.806766
Si Si3 0.750000 0.750000 0.250000
Si Si4 0.969552 0.627679 0.909401
O O1 0.618560 0.181355 0.832630
O O2 0.629899 0.423760 0.892819
O O3 0.377534 0.323881 0.814617
O O4 0.457123 0.254881 0.005932
O O5 0.076848 0.684869 0.814539
O O6 0.659166 0.922931 0.834097
O O7 0.000000 0.500000 0.000000
#
# Coordination Sequence:
#
# PCOD9545187 Si02
#       4
#     8   8   2   8
#     4  10  23  40  66  96 137 185 231 293 360 425
#     4  10  22  42  65  97 136 181 233 293 354 428
#     4  12  24  44  64 102 144 184 244 300 356 434
#     4  10  22  42  67 100 138 185 239 292 358 430
#
# _framework density 24.041785999999998
#
# number of rings (size 3 to 8) (size 9 to 14) (size 15 to 20)
#    0.000    1.846    0.000    3.692    0.000   15.385 
#    0.000    4.615    0.000    0.000    0.000    0.000 
#    0.000    0.000    0.000    0.000    0.000    0.000 
#
# Total GULP energy -144762.024422 kJ/mol
# GULP energy per Si atom -5567.770170 kJ/mol
# Density = 2.398707 g / cm^3
# Si number density = 24.041786 Si / 1000 Ang^3
#
#
#
# Elastic Constant Matrix: (Units=GPa)
#
#
# Indices 1 2 3 4 5 6 
#
# 1 64.5317 25.6904 13.7759 0.0000 0.0000 2.2623
# 2 25.6904 64.5317 13.7759 0.0000 0.0000 -2.2623
# 3 13.7759 13.7759 67.8403 0.0000 0.0000 0.0000
# 4 0.0000 0.0000 0.0000 -102.6957 0.0000 0.0000
# 5 0.0000 0.0000 0.0000 0.0000 -102.6957 0.0000
# 6 2.2623 -2.2623 0.0000 0.0000 0.0000 40.5025
#
#
#
# Elastic Compliance Matrix: (Units=1/GPa)
#
#
# Indices 1 2 3 4 5 6 
#
# 1 0.018865 -0.007049 -0.002400 0.000000 0.000000 -0.001447
# 2 -0.007049 0.018865 -0.002400 0.000000 0.000000 0.001447
# 3 -0.002400 -0.002400 0.015715 0.000000 0.000000 0.000000
# 4 0.000000 0.000000 0.000000 -0.009738 0.000000 0.000000
# 5 0.000000 0.000000 0.000000 0.000000 -0.009738 0.000000
# 6 -0.001447 0.001447 0.000000 0.000000 0.000000 0.024852
#
#
# Mechanical properties :
#
#
# Convention : Reuss Voigt Hill
#
# Bulk Modulus (GPa) = 33.61342 33.70977 33.66160
# Shear Modulus (GPa) = 54.09205 -23.40033 15.34586
#
# Velocity S-wave (km/s) = 4.74848 -3.12319 2.52920
# Velocity P-wave (km/s) = 6.63895 1.02274 4.74982
#
# Compressibility (1/GPa) = 0.02975003
#
# Stress axis : x y z
#
# Youngs Moduli (GPa) = 53.00691 53.00691 63.63347
#
# Poissons Ratio (x) = 0.37364 0.15269
# Poissons Ratio (y) = 0.37364 0.15269
# Poissons Ratio (z) = 0.12719 0.12719
#
# Static dielectric constant tensor:
#      x y z
#    x 2.836220 0.000000 0.000000 
#    y 0.000000 2.836220 0.000000 
#    z 0.000000 0.000000 2.001960 
# 
# From -- ./inp_files/3291.got.cif
#   From: 2010.05.17/outbox.cif.g08.bks.cpg/sg86_2_cif.got.tgz:3291.got - 2010.06.03 19:03:11.
