data_PCOD9545551
_publ_section_title
;
Structure prediction by ZEFSAII (Michael W. Deem and Ramdas Pophale) SiO2 
 PCOD9545551
Probable space group: I 4/M
;
_chemical_formula_sum "Si O2"
_cell_formula_units_Z 116
_cell_length_a 18.273809
_cell_length_b 18.273809
_cell_length_c 14.954150
_cell_angle_alpha 90.000000
_cell_angle_beta 90.000000
_cell_angle_gamma 90.000000
_cell_volume 4993.670644
_symmetry_space_group_name_H-M "I 4/M"
_symmetry_group_IT_number 87
_symmetry_cell_setting 'tetragonal'
loop_
_space_group_symop_operation_xyz
x,y,z
-y,x,z
-x,-y,z
y,-x,z
-x,-y,-z
y,-x,-z
x,y,-z
-y,x,-z
1/2+x,1/2+y,1/2+z
1/2-y,1/2+x,1/2+z
1/2-x,1/2-y,1/2+z
1/2+y,1/2-x,1/2+z
1/2-x,1/2-y,1/2-z
1/2+y,1/2-x,1/2-z
1/2+x,1/2+y,1/2-z
1/2-y,1/2+x,1/2-z
loop_
_atom_site_type_symbol
_atom_site_label
_atom_site_fract_x
_atom_site_fract_y
_atom_site_fract_z
Si Si1 0.528002 0.771805 0.326560
Si Si2 0.091825 0.924665 0.609087
Si Si3 0.005131 0.396955 0.714182
Si Si4 0.634781 0.234435 0.604021
Si Si5 0.631190 0.149869 0.899336
Si Si6 0.500000 0.500000 0.636101
Si Si7 0.908398 0.866124 0.896440
Si Si8 0.794948 0.200226 0.609871
O O1 0.540072 0.819920 0.238606
O O2 0.442316 0.778188 0.348217
O O3 0.583679 0.811193 0.395018
O O4 0.553211 0.689312 0.329369
O O5 0.092152 0.924980 0.500000
O O6 0.154085 0.867800 0.637378
O O7 0.009648 0.900432 0.637480
O O8 0.958065 0.432627 0.797432
O O9 0.942651 0.380120 0.644160
O O10 0.625336 0.212663 0.500000
O O11 0.647348 0.321785 0.606071
O O12 0.710178 0.198856 0.638757
O O13 0.666481 0.223932 0.859357
O O14 0.613329 0.169590 0.000000
O O15 0.449116 0.573275 0.627446
O O16 0.932895 0.853629 0.000000
O O17 0.792616 0.201579 0.500000
#
# Coordination Sequence:
#
# PCOD9545551 Si02
#       8
#    16  16  16  16  16   4  16  16
#     4  11  20  34  57  82 118 163 202 241 301 363
#     4   8  14  27  48  73 102 139 181 230 297 360
#     4   9  21  42  61  80 116 155 196 249 306 365
#     4  10  19  30  48  82 124 156 195 246 289 348
#     4  10  19  36  63  87 113 157 203 248 305 363
#     4  12  21  28  48  84 128 172 209 246 297 356
#     4  11  19  29  49  82 123 168 207 241 290 357
#     4   9  17  30  50  80 115 147 185 243 296 342
#
# _framework density 23.229405
#
# number of rings (size 3 to 8) (size 9 to 14) (size 15 to 20)
#    0.000    2.207    2.759    2.276    0.000    0.000 
#    2.483    7.586    0.000    0.000    0.000    0.000 
#    0.000    0.000    0.000    0.000    0.000    0.000 
#
# Total GULP energy -323371.027945 kJ/mol
# GULP energy per Si atom -5575.362551 kJ/mol
# Density = 2.317653 g / cm^3
# Si number density = 23.229405 Si / 1000 Ang^3
#
#
#
# Elastic Constant Matrix: (Units=GPa)
#
#
# Indices 1 2 3 4 5 6 
#
# 1 130.7064 47.4229 16.7967 0.0000 0.0000 -1.4473
# 2 47.4229 130.7064 16.7967 0.0000 0.0000 1.4473
# 3 16.7967 16.7967 24.4544 0.0000 0.0000 0.0000
# 4 0.0000 0.0000 0.0000 0.4968 0.0000 0.0000
# 5 0.0000 0.0000 0.0000 0.0000 0.4968 0.0000
# 6 -1.4473 1.4473 0.0000 0.0000 0.0000 46.8671
#
#
#
# Elastic Compliance Matrix: (Units=1/GPa)
#
#
# Indices 1 2 3 4 5 6 
#
# 1 0.009235 -0.002785 -0.004430 0.000000 0.000000 0.000371
# 2 -0.002785 0.009235 -0.004430 0.000000 0.000000 -0.000371
# 3 -0.004430 -0.004430 0.046978 0.000000 0.000000 0.000000
# 4 0.000000 0.000000 0.000000 2.012920 0.000000 0.000000
# 5 0.000000 0.000000 0.000000 0.000000 2.012920 0.000000
# 6 0.000371 -0.000371 0.000000 0.000000 0.000000 0.021360
#
#
# Mechanical properties :
#
#
# Convention : Reuss Voigt Hill
#
# Bulk Modulus (GPa) = 23.72068 49.76665 36.74367
# Shear Modulus (GPa) = 1.20482 23.22885 12.21684
#
# Velocity S-wave (km/s) = 0.72096 3.16567 2.29579
# Velocity P-wave (km/s) = 3.30556 5.90190 4.78326
#
# Compressibility (1/GPa) = 0.04215731
#
# Stress axis : x y z
#
# Youngs Moduli (GPa) = 108.28725 108.28725 21.28666
#
# Poissons Ratio (x) = 0.30162 0.09430
# Poissons Ratio (y) = 0.30162 0.09430
# Poissons Ratio (z) = 0.47969 0.47969
#
# Static dielectric constant tensor:
#      x y z
#    x 1.890730 0.000000 0.000000 
#    y 0.000000 1.890730 0.000000 
#    z 0.000000 0.000000 1.918200 
# 
# From -- ./inp_files/4603.got.cif
#   From: 2010.05.17/outbox.cif.g08.bks.cpg/sg87_3_cif.got.tgz:4603.got - 2010.06.03 19:07:00.
