data_PCOD9545975
_publ_section_title
;
Structure prediction by ZEFSAII (Michael W. Deem and Ramdas Pophale) SiO2 
 PCOD9545975
Probable space group: I 4/M
;
_chemical_formula_sum "Si O2"
_cell_formula_units_Z 60
_cell_length_a 16.218874
_cell_length_b 16.218874
_cell_length_c 9.317445
_cell_angle_alpha 90.000000
_cell_angle_beta 90.000000
_cell_angle_gamma 90.000000
_cell_volume 2450.971367
_symmetry_space_group_name_H-M "I 4/M"
_symmetry_group_IT_number 87
_symmetry_cell_setting 'tetragonal'
loop_
_space_group_symop_operation_xyz
x,y,z
-y,x,z
-x,-y,z
y,-x,z
-x,-y,-z
y,-x,-z
x,y,-z
-y,x,-z
1/2+x,1/2+y,1/2+z
1/2-y,1/2+x,1/2+z
1/2-x,1/2-y,1/2+z
1/2+y,1/2-x,1/2+z
1/2-x,1/2-y,1/2-z
1/2+y,1/2-x,1/2-z
1/2+x,1/2+y,1/2-z
1/2-y,1/2+x,1/2-z
loop_
_atom_site_type_symbol
_atom_site_label
_atom_site_fract_x
_atom_site_fract_y
_atom_site_fract_z
Si Si1 0.413145 0.693346 0.746963
Si Si2 0.860647 0.807314 0.000000
Si Si3 0.803301 0.511671 0.500000
Si Si4 0.500000 0.000000 0.750000
Si Si5 0.109469 0.521152 0.000000
Si Si6 0.472882 0.306623 0.000000
Si Si7 0.692617 0.277422 0.000000
O O1 0.362676 0.630948 0.643307
O O2 0.457337 0.755256 0.639677
O O3 0.351364 0.743869 0.850832
O O4 0.480347 0.659737 0.859907
O O5 0.764688 0.780435 0.000000
O O6 0.914229 0.723173 0.000000
O O7 0.891179 0.559157 0.500000
O O8 0.424751 0.020483 0.644633
O O9 0.206788 0.520329 0.000000
O O10 0.375770 0.315904 0.000000
#
# Coordination Sequence:
#
# PCOD9545975 Si02
#       7
#    16   8   8   4   8   8   8
#     4  10  23  39  62  95 130 169 219 283 347 398
#     4  11  23  42  69  99 131 181 238 287 337 407
#     4  11  23  40  64  92 133 173 224 284 340 405
#     4  10  24  38  52  86 132 174 216 250 328 422
#     4  11  23  39  61  92 131 179 219 271 341 410
#     4  11  22  41  67  95 132 173 224 289 350 419
#     4  11  23  40  67  97 127 171 233 288 338 405
#
# _framework density 24.480087999999999
#
# number of rings (size 3 to 8) (size 9 to 14) (size 15 to 20)
#    0.000    1.333    0.000    5.600    0.000    8.533 
#    0.000    0.000    0.000   56.000    0.000    0.000 
#    0.000    0.000    0.000    0.000    0.000    0.000 
#
# Total GULP energy -167533.576632 kJ/mol
# GULP energy per Si atom -5584.452554 kJ/mol
# Density = 2.442437 g / cm^3
# Si number density = 24.480088 Si / 1000 Ang^3
#
#
#
# Elastic Constant Matrix: (Units=GPa)
#
#
# Indices 1 2 3 4 5 6 
#
# 1 91.1974 11.8702 31.3677 0.0000 0.0000 5.6434
# 2 11.8702 91.1974 31.3677 0.0000 0.0000 -5.6434
# 3 31.3677 31.3677 192.3563 0.0000 0.0000 0.0000
# 4 0.0000 0.0000 0.0000 26.1356 0.0000 0.0000
# 5 0.0000 0.0000 0.0000 0.0000 26.1356 0.0000
# 6 5.6434 -5.6434 0.0000 0.0000 0.0000 34.1527
#
#
#
# Elastic Compliance Matrix: (Units=1/GPa)
#
#
# Indices 1 2 3 4 5 6 
#
# 1 0.011841 -0.001069 -0.001757 0.000000 0.000000 -0.002133
# 2 -0.001069 0.011841 -0.001757 0.000000 0.000000 0.002133
# 3 -0.001757 -0.001757 0.005772 0.000000 0.000000 0.000000
# 4 0.000000 0.000000 0.000000 0.038262 0.000000 0.000000
# 5 0.000000 0.000000 0.000000 0.000000 0.038262 0.000000
# 6 -0.002133 0.002133 0.000000 0.000000 0.000000 0.029985
#
#
# Mechanical properties :
#
#
# Convention : Reuss Voigt Hill
#
# Bulk Modulus (GPa) = 49.28889 58.21801 53.75345
# Shear Modulus (GPa) = 32.91886 37.29450 35.10668
#
# Velocity S-wave (km/s) = 3.67102 3.90739 3.79105
# Velocity P-wave (km/s) = 6.17629 6.64758 6.41626
#
# Compressibility (1/GPa) = 0.02028855
#
# Stress axis : x y z
#
# Youngs Moduli (GPa) = 84.45569 84.45569 173.26334
#
# Poissons Ratio (x) = 0.09028 0.30434
# Poissons Ratio (y) = 0.09028 0.30434
# Poissons Ratio (z) = 0.14835 0.14835
#
# Static dielectric constant tensor:
#      x y z
#    x 1.995570 0.000000 0.000000 
#    y 0.000000 1.995570 0.000000 
#    z 0.000000 0.000000 1.937700 
# 
# From -- ./inp_files/785.got.cif
#   From: 2010.05.17/outbox.cif.g08.bks.cpg/sg87_1_cif.got.tgz:785.got - 2010.06.03 19:07:00.
