data_PCOD9545215
_publ_section_title
;
Structure prediction by ZEFSAII (Michael W. Deem and Ramdas Pophale) SiO2 
 PCOD9545215
Probable space group: P 42/N
;
_chemical_formula_sum "Si O2"
_cell_formula_units_Z 42
_cell_length_a 11.832557
_cell_length_b 11.832557
_cell_length_c 15.685497
_cell_angle_alpha 90.000000
_cell_angle_beta 90.000000
_cell_angle_gamma 90.000000
_cell_volume 2196.117105
_symmetry_space_group_name_H-M "P 42/N"
_symmetry_group_IT_number 86
_space_group.IT_coordinate_system_code '2'
_symmetry_cell_setting 'tetragonal'
loop_
_space_group_symop_operation_xyz
x,y,z
-y,1/2+x,1/2+z
1/2-x,1/2-y,z
1/2+y,-x,1/2+z
-x,-y,-z
y,1/2-x,1/2-z
1/2+x,1/2+y,-z
1/2-y,x,1/2-z
loop_
_atom_site_type_symbol
_atom_site_label
_atom_site_fract_x
_atom_site_fract_y
_atom_site_fract_z
Si Si1 0.051337 0.319967 0.860864
Si Si2 0.250000 0.250000 0.250000
Si Si3 0.551679 0.558971 0.189588
Si Si4 0.943971 0.745928 0.442019
Si Si5 0.043044 0.314282 0.369843
Si Si6 0.140078 0.825953 0.545639
O O1 0.032989 0.409911 0.785274
O O2 0.047990 0.194965 0.821272
O O3 0.169851 0.351017 0.904670
O O4 0.951596 0.328191 0.929065
O O5 0.140097 0.268672 0.308638
O O6 0.650952 0.523327 0.125303
O O7 0.435376 0.501201 0.161434
O O8 0.912407 0.686229 0.531917
O O9 0.054402 0.819447 0.466449
O O10 0.934267 0.231886 0.378790
O O11 0.250000 0.750000 0.531073
#
# Coordination Sequence:
#
# PCOD9545215 Si02
#       6
#     8   2   8   8   8   8
#     4  12  22  41  71  99 135 173 230 279 334 403
#     4  12  24  48  64 104 134 180 240 268 352 408
#     4  12  23  42  67 103 135 173 227 280 339 398
#     4  10  24  40  65 102 126 181 218 271 338 396
#     4  10  25  43  69  94 137 177 222 278 338 405
#     4  10  22  45  65  94 134 178 222 278 336 397
#
# _framework density 19.124663999999999
#
# number of rings (size 3 to 8) (size 9 to 14) (size 15 to 20)
#    1.143    0.000    3.810    2.857    2.667    0.000 
#    0.000    2.857    0.000    0.000    0.000    0.000 
#    0.000    0.000    0.000    0.000    0.000    0.000 
#
# Total GULP energy -234343.573533 kJ/mol
# GULP energy per Si atom -5579.608894 kJ/mol
# Density = 1.908114 g / cm^3
# Si number density = 19.124664 Si / 1000 Ang^3
#
#
#
# Elastic Constant Matrix: (Units=GPa)
#
#
# Indices 1 2 3 4 5 6 
#
# 1 37.5680 0.2880 3.2484 0.0000 0.0000 9.5442
# 2 0.2880 37.5680 3.2484 0.0000 0.0000 -9.5442
# 3 3.2484 3.2484 63.7634 0.0000 0.0000 0.0000
# 4 0.0000 0.0000 0.0000 6.0450 0.0000 0.0000
# 5 0.0000 0.0000 0.0000 0.0000 6.0450 0.0000
# 6 9.5442 -9.5442 0.0000 0.0000 0.0000 37.2405
#
#
#
# Elastic Compliance Matrix: (Units=1/GPa)
#
#
# Indices 1 2 3 4 5 6 
#
# 1 0.028762 -0.002113 -0.001358 0.000000 0.000000 -0.007913
# 2 -0.002113 0.028762 -0.001358 0.000000 0.000000 0.007913
# 3 -0.001358 -0.001358 0.015821 0.000000 0.000000 0.000000
# 4 0.000000 0.000000 0.000000 0.165425 0.000000 0.000000
# 5 0.000000 0.000000 0.000000 0.000000 0.165425 0.000000
# 6 -0.007913 0.007913 0.000000 0.000000 0.000000 0.030908
#
#
# Mechanical properties :
#
#
# Convention : Reuss Voigt Hill
#
# Bulk Modulus (GPa) = 15.70137 16.94098 16.32118
# Shear Modulus (GPa) = 10.72982 18.67375 14.70178
#
# Velocity S-wave (km/s) = 2.37121 3.12817 2.77561
# Velocity P-wave (km/s) = 3.96544 4.68238 4.33874
#
# Compressibility (1/GPa) = 0.06368871
#
# Stress axis : x y z
#
# Youngs Moduli (GPa) = 34.76771 34.76771 63.20590
#
# Poissons Ratio (x) = 0.07348 0.08581
# Poissons Ratio (y) = 0.07348 0.08581
# Poissons Ratio (z) = 0.04720 0.04720
#
# Static dielectric constant tensor:
#      x y z
#    x 1.654060 0.000000 0.000000 
#    y 0.000000 1.654060 0.000000 
#    z 0.000000 0.000000 1.645250 
# 
# From -- ./inp_files/3471.got.cif
#   From: 2010.05.17/outbox.cif.g08.bks.cpg/sg86_2_cif.got.tgz:3471.got - 2010.06.03 19:03:11.
