data_PCOD9545029
_publ_section_title
;
Structure prediction by ZEFSAII (Michael W. Deem and Ramdas Pophale) SiO2 
 PCOD9545029
Probable space group: P 42/N
;
_chemical_formula_sum "Si O2"
_cell_formula_units_Z 32
_cell_length_a 9.027038
_cell_length_b 9.027038
_cell_length_c 18.530716
_cell_angle_alpha 90.000000
_cell_angle_beta 90.000000
_cell_angle_gamma 90.000000
_cell_volume 1510.020146
_symmetry_space_group_name_H-M "P 42/N"
_symmetry_group_IT_number 86
_space_group.IT_coordinate_system_code '2'
_symmetry_cell_setting 'tetragonal'
loop_
_space_group_symop_operation_xyz
x,y,z
-y,1/2+x,1/2+z
1/2-x,1/2-y,z
1/2+y,-x,1/2+z
-x,-y,-z
y,1/2-x,1/2-z
1/2+x,1/2+y,-z
1/2-y,x,1/2-z
loop_
_atom_site_type_symbol
_atom_site_label
_atom_site_fract_x
_atom_site_fract_y
_atom_site_fract_z
Si Si1 0.106294 0.392416 0.906660
Si Si2 0.276407 0.921575 0.036891
Si Si3 0.916099 0.265761 0.707499
Si Si4 0.017236 0.893158 0.147287
O O1 0.157240 0.472278 0.834026
O O2 0.934235 0.429510 0.923332
O O3 0.095993 0.215684 0.895048
O O4 0.201946 0.466301 0.970842
O O5 0.250000 0.750000 0.012548
O O6 0.141835 0.950391 0.092266
O O7 0.750000 0.250000 0.679731
O O8 0.918003 0.213866 0.790424
O O9 0.978056 0.427217 0.687321
#
# Coordination Sequence:
#
# PCOD9545029 Si02
#       4
#     8   8   8   8
#     4  10  20  39  68  97 130 172 217 270 338 404
#     4   9  20  40  66  99 136 172 215 278 336 395
#     4  12  24  40  65  96 129 173 225 276 336 401
#     4  11  23  41  67  97 131 176 229 280 331 404
#
# _framework density 21.191770000000002
#
# number of rings (size 3 to 8) (size 9 to 14) (size 15 to 20)
#    0.000    1.500    2.500    3.750    0.000    1.000 
#    0.000    6.250    0.000    0.000    0.000    0.000 
#    0.000    0.000    0.000    0.000    0.000    0.000 
#
# Total GULP energy -178681.359730 kJ/mol
# GULP energy per Si atom -5583.792492 kJ/mol
# Density = 2.114354 g / cm^3
# Si number density = 21.191770 Si / 1000 Ang^3
#
#
#
# Elastic Constant Matrix: (Units=GPa)
#
#
# Indices 1 2 3 4 5 6 
#
# 1 98.1203 61.6062 43.7631 0.0000 0.0000 14.7593
# 2 61.6062 98.1203 43.7631 0.0000 0.0000 -14.7593
# 3 43.7631 43.7631 117.0183 0.0000 0.0000 0.0000
# 4 0.0000 0.0000 0.0000 33.0007 0.0000 0.0000
# 5 0.0000 0.0000 0.0000 0.0000 33.0007 0.0000
# 6 14.7593 -14.7593 0.0000 0.0000 0.0000 32.4761
#
#
#
# Elastic Compliance Matrix: (Units=1/GPa)
#
#
# Indices 1 2 3 4 5 6 
#
# 1 0.025583 -0.017709 -0.002945 0.000000 0.000000 -0.019675
# 2 -0.017709 0.025583 -0.002945 0.000000 0.000000 0.019675
# 3 -0.002945 -0.002945 0.010748 0.000000 0.000000 0.000000
# 4 0.000000 0.000000 0.000000 0.030302 0.000000 0.000000
# 5 0.000000 0.000000 0.000000 0.000000 0.030302 0.000000
# 6 -0.019675 0.019675 0.000000 0.000000 0.000000 0.048675
#
#
# Mechanical properties :
#
#
# Convention : Reuss Voigt Hill
#
# Bulk Modulus (GPa) = 67.94593 67.94706 67.94649
# Shear Modulus (GPa) = 22.39162 30.63727 26.51444
#
# Velocity S-wave (km/s) = 3.25409 3.80638 3.54102
# Velocity P-wave (km/s) = 6.80080 7.17291 6.98933
#
# Compressibility (1/GPa) = 0.01471759
#
# Stress axis : x y z
#
# Youngs Moduli (GPa) = 39.08802 39.08802 93.03719
#
# Poissons Ratio (x) = 0.69220 0.27399
# Poissons Ratio (y) = 0.69220 0.27399
# Poissons Ratio (z) = 0.11511 0.11511
#
# Static dielectric constant tensor:
#      x y z
#    x 1.798390 0.000000 0.000000 
#    y 0.000000 1.798390 0.000000 
#    z 0.000000 0.000000 1.776150 
# 
# From -- ./inp_files/3842.got.cif
#   From: 2010.05.17/outbox.cif.g08.bks.cpg/sg86_2_cif.got.tgz:3842.got - 2010.06.03 19:03:11.
