data_PCOD9545814
_publ_section_title
;
Structure prediction by ZEFSAII (Michael W. Deem and Ramdas Pophale) SiO2 
 PCOD9545814
Probable space group: I 4/M
;
_chemical_formula_sum "Si O2"
_cell_formula_units_Z 88
_cell_length_a 15.438381
_cell_length_b 15.438381
_cell_length_c 21.720517
_cell_angle_alpha 90.000000
_cell_angle_beta 90.000000
_cell_angle_gamma 90.000000
_cell_volume 5176.946387
_symmetry_space_group_name_H-M "I 4/M"
_symmetry_group_IT_number 87
_symmetry_cell_setting 'tetragonal'
loop_
_space_group_symop_operation_xyz
x,y,z
-y,x,z
-x,-y,z
y,-x,z
-x,-y,-z
y,-x,-z
x,y,-z
-y,x,-z
1/2+x,1/2+y,1/2+z
1/2-y,1/2+x,1/2+z
1/2-x,1/2-y,1/2+z
1/2+y,1/2-x,1/2+z
1/2-x,1/2-y,1/2-z
1/2+y,1/2-x,1/2-z
1/2+x,1/2+y,1/2-z
1/2-y,1/2+x,1/2-z
loop_
_atom_site_type_symbol
_atom_site_label
_atom_site_fract_x
_atom_site_fract_y
_atom_site_fract_z
Si Si1 0.765493 0.512817 0.500000
Si Si2 0.683449 0.699343 0.500000
Si Si3 0.156602 0.597668 0.808013
Si Si4 0.321192 0.102167 0.682367
Si Si5 0.411369 0.384317 0.000000
Si Si6 0.595598 0.006090 0.105979
Si Si7 0.696192 0.713085 0.103064
O O1 0.704149 0.596835 0.500000
O O2 0.719408 0.418901 0.500000
O O3 0.828859 0.516876 0.558981
O O4 0.731095 0.743039 0.559050
O O5 0.151391 0.647210 0.743487
O O6 0.189581 0.499158 0.801588
O O7 0.060314 0.593408 0.836897
O O8 0.214673 0.647648 0.857285
O O9 0.398418 0.107421 0.632639
O O10 0.239646 0.146020 0.650248
O O11 0.515313 0.382504 0.000000
O O12 0.371108 0.335912 0.941221
O O13 0.500000 0.000000 0.076424
#
# Coordination Sequence:
#
# PCOD9545814 Si02
#       7
#     8   8  16  16   8  16  16
#     4  12  21  43  54  84 114 150 192 247 287 342
#     4  11  24  36  60  76 112 143 198 240 284 339
#     4  11  21  36  58  86 118 150 186 228 285 346
#     4  11  21  36  58  86 118 150 186 228 285 346
#     4  10  22  41  60  81 118 156 194 238 280 340
#     4  10  21  34  59  87 118 151 182 231 297 345
#     4  11  22  38  56  89 109 152 189 239 280 335
#
# _framework density 16.998438
#
# number of rings (size 3 to 8) (size 9 to 14) (size 15 to 20)
#    0.000    1.182    5.455    1.909    0.000    0.182 
#    0.000    0.000    0.000    0.000    0.000    0.000 
#    0.000    0.000    0.000    0.000    0.000    0.000 
#
# Total GULP energy -245686.330647 kJ/mol
# GULP energy per Si atom -5583.780242 kJ/mol
# Density = 1.695975 g / cm^3
# Si number density = 16.998438 Si / 1000 Ang^3
#
#
#
# Elastic Constant Matrix: (Units=GPa)
#
#
# Indices 1 2 3 4 5 6 
#
# 1 64.0861 23.4213 22.1447 0.0000 0.0000 0.9652
# 2 23.4213 64.0861 22.1447 0.0000 0.0000 -0.9652
# 3 22.1447 22.1447 78.9371 0.0000 0.0000 0.0000
# 4 0.0000 0.0000 0.0000 20.4908 0.0000 0.0000
# 5 0.0000 0.0000 0.0000 0.0000 20.4908 0.0000
# 6 0.9652 -0.9652 0.0000 0.0000 0.0000 29.1958
#
#
#
# Elastic Compliance Matrix: (Units=1/GPa)
#
#
# Indices 1 2 3 4 5 6 
#
# 1 0.018974 -0.005656 -0.003736 0.000000 0.000000 -0.000814
# 2 -0.005656 0.018974 -0.003736 0.000000 0.000000 0.000814
# 3 -0.003736 -0.003736 0.014765 0.000000 0.000000 0.000000
# 4 0.000000 0.000000 0.000000 0.048802 0.000000 0.000000
# 5 0.000000 0.000000 0.000000 0.000000 0.048802 0.000000
# 6 -0.000814 0.000814 0.000000 0.000000 0.000000 0.034305
#
#
# Mechanical properties :
#
#
# Convention : Reuss Voigt Hill
#
# Bulk Modulus (GPa) = 37.79783 38.05897 37.92840
# Shear Modulus (GPa) = 22.75841 23.32872 23.04356
#
# Velocity S-wave (km/s) = 3.66300 3.70862 3.68588
# Velocity P-wave (km/s) = 6.33833 6.38567 6.36204
#
# Compressibility (1/GPa) = 0.02645654
#
# Stress axis : x y z
#
# Youngs Moduli (GPa) = 52.70291 52.70291 67.72915
#
# Poissons Ratio (x) = 0.29807 0.25306
# Poissons Ratio (y) = 0.29807 0.25306
# Poissons Ratio (z) = 0.19692 0.19692
#
# Static dielectric constant tensor:
#      x y z
#    x 1.558930 0.000000 0.000000 
#    y 0.000000 1.558930 0.000000 
#    z 0.000000 0.000000 1.556580 
# 
# From -- ./inp_files/5222.got.cif
#   From: 2010.05.17/outbox.cif.g08.bks.cpg/sg87_3_cif.got.tgz:5222.got - 2010.06.03 19:07:00.
