data_PCOD9545490
_publ_section_title
;
Structure prediction by ZEFSAII (Michael W. Deem and Ramdas Pophale) SiO2 
 PCOD9545490
Probable space group: I 4/M
;
_chemical_formula_sum "Si O2"
_cell_formula_units_Z 104
_cell_length_a 15.504048
_cell_length_b 15.504048
_cell_length_c 27.150383
_cell_angle_alpha 90.000000
_cell_angle_beta 90.000000
_cell_angle_gamma 90.000000
_cell_volume 6526.287008
_symmetry_space_group_name_H-M "I 4/M"
_symmetry_group_IT_number 87
_symmetry_cell_setting 'tetragonal'
loop_
_space_group_symop_operation_xyz
x,y,z
-y,x,z
-x,-y,z
y,-x,z
-x,-y,-z
y,-x,-z
x,y,-z
-y,x,-z
1/2+x,1/2+y,1/2+z
1/2-y,1/2+x,1/2+z
1/2-x,1/2-y,1/2+z
1/2+y,1/2-x,1/2+z
1/2-x,1/2-y,1/2-z
1/2+y,1/2-x,1/2-z
1/2+x,1/2+y,1/2-z
1/2-y,1/2+x,1/2-z
loop_
_atom_site_type_symbol
_atom_site_label
_atom_site_fract_x
_atom_site_fract_y
_atom_site_fract_z
Si Si1 0.127371 0.064505 0.726556
Si Si2 0.554763 0.633641 0.500000
Si Si3 0.221461 0.952881 0.103308
Si Si4 0.621314 0.129083 0.298841
Si Si5 0.308036 0.055447 0.693829
Si Si6 0.684088 0.622152 0.335799
Si Si7 0.033895 0.412308 0.127589
O O1 0.209914 0.087570 0.693469
O O2 0.151940 0.085038 0.783334
O O3 0.036938 0.110971 0.718461
O O4 0.454262 0.608180 0.500000
O O5 0.570895 0.683421 0.550570
O O6 0.195038 0.878720 0.142577
O O7 0.323445 0.967031 0.098633
O O8 0.184127 0.042019 0.126001
O O9 0.597000 0.150690 0.242891
O O10 0.651158 0.217362 0.325336
O O11 0.533431 0.100728 0.326944
O O12 0.685568 0.048442 0.300361
O O13 0.370189 0.076776 0.648751
O O14 0.000000 0.500000 0.102588
#
# Coordination Sequence:
#
# PCOD9545490 Si02
#       7
#    16   8  16  16  16  16  16
#     4  10  20  30  41  61  93 130 161 199 235 270
#     4  11  22  34  53  76 100 126 155 191 233 286
#     4  11  20  34  49  71  95 122 159 193 238 286
#     4   9  17  27  43  67  92 126 162 201 227 264
#     4  10  17  29  45  63  90 124 168 197 231 269
#     4  10  19  29  45  66  96 127 158 194 233 280
#     4   9  19  32  49  68  94 124 157 197 239 272
#
# _framework density 15.935554
#
# number of rings (size 3 to 8) (size 9 to 14) (size 15 to 20)
#    0.000    2.077    4.615    0.000    0.000    1.538 
#    0.000    3.462    0.000    0.000    0.000    0.000 
#    0.000    0.000    0.000    0.000    0.000    5.077 
#
# Total GULP energy -289799.562733 kJ/mol
# GULP energy per Si atom -5573.068514 kJ/mol
# Density = 1.589928 g / cm^3
# Si number density = 15.935554 Si / 1000 Ang^3
#
#
#
# Elastic Constant Matrix: (Units=GPa)
#
#
# Indices 1 2 3 4 5 6 
#
# 1 66.6125 5.5078 6.9670 0.0000 0.0000 -0.5633
# 2 5.5078 66.6125 6.9670 0.0000 0.0000 0.5633
# 3 6.9670 6.9670 27.3339 0.0000 0.0000 0.0000
# 4 0.0000 0.0000 0.0000 7.5905 0.0000 0.0000
# 5 0.0000 0.0000 0.0000 0.0000 7.5905 0.0000
# 6 -0.5633 0.5633 0.0000 0.0000 0.0000 11.7474
#
#
#
# Elastic Compliance Matrix: (Units=1/GPa)
#
#
# Indices 1 2 3 4 5 6 
#
# 1 0.015482 -0.000898 -0.003717 0.000000 0.000000 0.000785
# 2 -0.000898 0.015482 -0.003717 0.000000 0.000000 -0.000785
# 3 -0.003717 -0.003717 0.038479 0.000000 0.000000 0.000000
# 4 0.000000 0.000000 0.000000 0.131743 0.000000 0.000000
# 5 0.000000 0.000000 0.000000 0.000000 0.131743 0.000000
# 6 0.000785 -0.000785 0.000000 0.000000 0.000000 0.085201
#
#
# Mechanical properties :
#
#
# Convention : Reuss Voigt Hill
#
# Bulk Modulus (GPa) = 18.94715 22.16030 20.55373
# Shear Modulus (GPa) = 11.05246 14.79349 12.92297
#
# Velocity S-wave (km/s) = 2.63643 3.05016 2.85081
# Velocity P-wave (km/s) = 4.60254 5.13235 4.87465
#
# Compressibility (1/GPa) = 0.05277837
#
# Stress axis : x y z
#
# Youngs Moduli (GPa) = 64.59162 64.59162 25.98786
#
# Poissons Ratio (x) = 0.05800 0.09660
# Poissons Ratio (y) = 0.05800 0.09660
# Poissons Ratio (z) = 0.24010 0.24010
#
# Static dielectric constant tensor:
#      x y z
#    x 1.555060 0.000000 0.000000 
#    y 0.000000 1.555060 0.000000 
#    z 0.000000 0.000000 1.483590 
# 
# From -- ./inp_files/5883.got.cif
#   From: 2010.05.17/outbox.cif.g08.bks.cpg/sg87_3_cif.got.tgz:5883.got - 2010.06.03 19:07:00.
