data_PCOD9545666
_publ_section_title
;
Structure prediction by ZEFSAII (Michael W. Deem and Ramdas Pophale) SiO2 
 PCOD9545666
Probable space group: I 4/M
;
_chemical_formula_sum "Si O2"
_cell_formula_units_Z 96
_cell_length_a 25.561539
_cell_length_b 25.561539
_cell_length_c 8.883954
_cell_angle_alpha 90.000000
_cell_angle_beta 90.000000
_cell_angle_gamma 90.000000
_cell_volume 5804.706924
_symmetry_space_group_name_H-M "I 4/M"
_symmetry_group_IT_number 87
_symmetry_cell_setting 'tetragonal'
loop_
_space_group_symop_operation_xyz
x,y,z
-y,x,z
-x,-y,z
y,-x,z
-x,-y,-z
y,-x,-z
x,y,-z
-y,x,-z
1/2+x,1/2+y,1/2+z
1/2-y,1/2+x,1/2+z
1/2-x,1/2-y,1/2+z
1/2+y,1/2-x,1/2+z
1/2-x,1/2-y,1/2-z
1/2+y,1/2-x,1/2-z
1/2+x,1/2+y,1/2-z
1/2-y,1/2+x,1/2-z
loop_
_atom_site_type_symbol
_atom_site_label
_atom_site_fract_x
_atom_site_fract_y
_atom_site_fract_z
Si Si1 0.441848 0.122576 0.165950
Si Si2 0.554502 0.243868 0.322907
Si Si3 0.748210 0.054578 0.672475
Si Si4 0.365381 0.055777 0.670758
Si Si5 0.166887 0.751805 0.319315
Si Si6 0.332685 0.250233 0.680574
O O1 0.446576 0.184998 0.167124
O O2 0.403960 0.102455 0.293183
O O3 0.501277 0.103760 0.184326
O O4 0.422455 0.106387 0.000000
O O5 0.554959 0.254114 0.500000
O O6 0.500132 0.264621 0.250307
O O7 0.554760 0.181897 0.287208
O O8 0.609243 0.260677 0.247404
O O9 0.767262 0.056652 0.500000
O O10 0.758856 0.108843 0.758195
O O11 0.344099 0.059050 0.500000
O O12 0.165116 0.755090 0.500000
O O13 0.194231 0.695399 0.280642
O O14 0.206223 0.794911 0.252636
O O15 0.332356 0.254233 0.500000
#
# Coordination Sequence:
#
# PCOD9545666 Si02
#       6
#    16  16  16  16  16  16
#     4   9  19  32  44  60  82 111 149 192 236 282
#     4  11  21  33  50  70  94 124 159 199 241 288
#     4  10  20  34  50  69  95 126 160 197 240 290
#     4  10  20  32  45  61  82 111 149 192 238 286
#     4  10  20  34  52  74 102 134 166 203 248 297
#     4  10  20  33  51  76 103 132 167 205 247 295
#
# _framework density 16.538302000000002
#
# number of rings (size 3 to 8) (size 9 to 14) (size 15 to 20)
#    0.000    2.000    0.000    5.500    0.000    9.000 
#    0.000    1.667    0.000    0.000    0.000    0.000 
#    0.000    0.667    0.000    6.667    0.000    4.000 
#
# Total GULP energy -267558.409414 kJ/mol
# GULP energy per Si atom -5574.133529 kJ/mol
# Density = 1.650066 g / cm^3
# Si number density = 16.538302 Si / 1000 Ang^3
#
#
#
# Elastic Constant Matrix: (Units=GPa)
#
#
# Indices 1 2 3 4 5 6 
#
# 1 80.9017 24.5332 38.9455 0.0000 0.0000 -0.4924
# 2 24.5332 80.9017 38.9455 0.0000 0.0000 0.4924
# 3 38.9455 38.9455 97.9067 0.0000 0.0000 0.0000
# 4 0.0000 0.0000 0.0000 25.4464 0.0000 0.0000
# 5 0.0000 0.0000 0.0000 0.0000 25.4464 0.0000
# 6 -0.4924 0.4924 0.0000 0.0000 0.0000 16.1478
#
#
#
# Elastic Compliance Matrix: (Units=1/GPa)
#
#
# Indices 1 2 3 4 5 6 
#
# 1 0.015591 -0.002159 -0.005343 0.000000 0.000000 0.000541
# 2 -0.002159 0.015591 -0.005343 0.000000 0.000000 -0.000541
# 3 -0.005343 -0.005343 0.014464 0.000000 0.000000 0.000000
# 4 0.000000 0.000000 0.000000 0.039298 0.000000 0.000000
# 5 0.000000 0.000000 0.000000 0.000000 0.039298 0.000000
# 6 0.000541 -0.000541 0.000000 0.000000 0.000000 0.061961
#
#
# Mechanical properties :
#
#
# Convention : Reuss Voigt Hill
#
# Bulk Modulus (GPa) = 50.10976 51.61762 50.86369
# Shear Modulus (GPa) = 22.87856 23.89384 23.38620
#
# Velocity S-wave (km/s) = 3.72340 3.80512 3.76448
# Velocity P-wave (km/s) = 6.98927 7.11224 7.05103
#
# Compressibility (1/GPa) = 0.01995619
#
# Stress axis : x y z
#
# Youngs Moduli (GPa) = 64.14069 64.14069 69.13526
#
# Poissons Ratio (x) = 0.13849 0.36938
# Poissons Ratio (y) = 0.13849 0.36938
# Poissons Ratio (z) = 0.34269 0.34269
#
# Static dielectric constant tensor:
#      x y z
#    x 1.568850 0.000000 0.000000 
#    y 0.000000 1.568850 0.000000 
#    z 0.000000 0.000000 1.570710 
# 
# From -- ./inp_files/1378.got.cif
#   From: 2010.05.17/outbox.cif.g08.bks.cpg/sg87_1_cif.got.tgz:1378.got - 2010.06.03 19:07:00.
