data_PCOD9545687
_publ_section_title
;
Structure prediction by ZEFSAII (Michael W. Deem and Ramdas Pophale) SiO2 
 PCOD9545687
Probable space group: I 4/M
;
_chemical_formula_sum "Si O2"
_cell_formula_units_Z 56
_cell_length_a 17.415799
_cell_length_b 17.415799
_cell_length_c 7.582576
_cell_angle_alpha 90.000000
_cell_angle_beta 90.000000
_cell_angle_gamma 90.000000
_cell_volume 2299.871542
_symmetry_space_group_name_H-M "I 4/M"
_symmetry_group_IT_number 87
_symmetry_cell_setting 'tetragonal'
loop_
_space_group_symop_operation_xyz
x,y,z
-y,x,z
-x,-y,z
y,-x,z
-x,-y,-z
y,-x,-z
x,y,-z
-y,x,-z
1/2+x,1/2+y,1/2+z
1/2-y,1/2+x,1/2+z
1/2-x,1/2-y,1/2+z
1/2+y,1/2-x,1/2+z
1/2-x,1/2-y,1/2-z
1/2+y,1/2-x,1/2-z
1/2+x,1/2+y,1/2-z
1/2-y,1/2+x,1/2-z
loop_
_atom_site_type_symbol
_atom_site_label
_atom_site_fract_x
_atom_site_fract_y
_atom_site_fract_z
Si Si1 0.490363 0.118412 0.198079
Si Si2 0.638110 0.779802 0.785154
Si Si3 0.377937 0.714136 0.298369
Si Si4 0.875868 0.960858 0.500000
O O1 0.422206 0.055127 0.190313
O O2 0.445708 0.191426 0.269934
O O3 0.518409 0.131792 0.000000
O O4 0.660762 0.698068 0.709768
O O5 0.704232 0.841836 0.736610
O O6 0.638876 0.775318 0.000000
O O7 0.403828 0.720999 0.500000
O O8 0.438776 0.675931 0.168123
O O9 0.952081 0.906658 0.500000
#
# Coordination Sequence:
#
# PCOD9545687 Si02
#       4
#    16  16  16   8
#     4  10  20  34  50  77 120 160 201 240 286 351
#     4   9  19  37  60  90 124 158 199 254 307 366
#     4  10  21  40  66  93 121 155 204 257 313 369
#     4  11  26  46  64  90 128 166 212 263 314 374
#
# _framework density 24.349187000000001
#
# number of rings (size 3 to 8) (size 9 to 14) (size 15 to 20)
#    0.000    2.143    1.429    1.714    2.000    5.714 
#    0.000    4.286    0.000    0.000    0.000    0.000 
#    0.000    0.000    0.000    0.000    0.000    0.000 
#
# Total GULP energy -156718.305200 kJ/mol
# GULP energy per Si atom -5597.082329 kJ/mol
# Density = 2.429377 g / cm^3
# Si number density = 24.349187 Si / 1000 Ang^3
#
#
#
# Elastic Constant Matrix: (Units=GPa)
#
#
# Indices 1 2 3 4 5 6 
#
# 1 48.1649 78.1527 29.8863 0.0000 0.0000 -12.3865
# 2 78.1527 48.1649 29.8863 0.0000 0.0000 12.3865
# 3 29.8863 29.8863 109.8810 0.0000 0.0000 0.0000
# 4 0.0000 0.0000 0.0000 26.9674 0.0000 0.0000
# 5 0.0000 0.0000 0.0000 0.0000 26.9674 0.0000
# 6 -12.3865 12.3865 0.0000 0.0000 0.0000 70.0793
#
#
#
# Elastic Compliance Matrix: (Units=1/GPa)
#
#
# Indices 1 2 3 4 5 6 
#
# 1 -0.010006 0.019092 -0.002471 0.000000 0.000000 -0.005143
# 2 0.019092 -0.010006 -0.002471 0.000000 0.000000 0.005143
# 3 -0.002471 -0.002471 0.010445 0.000000 0.000000 0.000000
# 4 0.000000 0.000000 0.000000 0.037082 0.000000 0.000000
# 5 0.000000 0.000000 0.000000 0.000000 0.037082 0.000000
# 6 -0.005143 0.005143 0.000000 0.000000 0.000000 0.012451
#
#
# Mechanical properties :
#
#
# Convention : Reuss Voigt Hill
#
# Bulk Modulus (GPa) = 53.38492 53.56237 53.47364
# Shear Modulus (GPa) = 90.92090 29.35517 60.13804
#
# Velocity S-wave (km/s) = 6.11731 3.47593 4.97512
# Velocity P-wave (km/s) = 8.47748 6.17696 7.41695
#
# Compressibility (1/GPa) = 0.01873188
#
# Stress axis : x y z
#
# Youngs Moduli (GPa) = -99.93886 -99.93886 95.73903
#
# Poissons Ratio (x) = 1.90804 0.23660
# Poissons Ratio (y) = 1.90804 0.23660
# Poissons Ratio (z) = -0.24698 -0.24698
#
# Static dielectric constant tensor:
#      x y z
#    x 1.961260 0.000000 0.000000 
#    y 0.000000 1.961260 0.000000 
#    z 0.000000 0.000000 1.848090 
# 
# From -- ./inp_files/735.got.cif
#   From: 2010.05.17/outbox.cif.g08.bks.cpg/sg87_1_cif.got.tgz:735.got - 2010.06.03 19:07:00.
