data_PCOD9545224
_publ_section_title
;
Structure prediction by ZEFSAII (Michael W. Deem and Ramdas Pophale) SiO2 
 PCOD9545224
Probable space group: P 42/N
;
_chemical_formula_sum "Si O2"
_cell_formula_units_Z 48
_cell_length_a 11.677227
_cell_length_b 11.677227
_cell_length_c 17.379371
_cell_angle_alpha 90.000000
_cell_angle_beta 90.000000
_cell_angle_gamma 90.000000
_cell_volume 2369.809848
_symmetry_space_group_name_H-M "P 42/N"
_symmetry_group_IT_number 86
_space_group.IT_coordinate_system_code '2'
_symmetry_cell_setting 'tetragonal'
loop_
_space_group_symop_operation_xyz
x,y,z
-y,1/2+x,1/2+z
1/2-x,1/2-y,z
1/2+y,-x,1/2+z
-x,-y,-z
y,1/2-x,1/2-z
1/2+x,1/2+y,-z
1/2-y,x,1/2-z
loop_
_atom_site_type_symbol
_atom_site_label
_atom_site_fract_x
_atom_site_fract_y
_atom_site_fract_z
Si Si1 0.351813 0.980526 0.448987
Si Si2 0.877673 0.297715 0.676408
Si Si3 0.877851 0.694553 0.846078
Si Si4 0.470705 0.707656 0.704775
Si Si5 0.926254 0.084764 0.887492
Si Si6 0.577200 0.681580 0.247283
O O1 0.385509 0.866026 0.402820
O O2 0.338954 0.951400 0.538019
O O3 0.242669 0.042963 0.413488
O O4 0.457629 0.063034 0.424327
O O5 0.750000 0.250000 0.678225
O O6 0.873679 0.387470 0.747284
O O7 0.976031 0.205770 0.691817
O O8 0.750000 0.750000 0.848326
O O9 0.946353 0.730922 0.768351
O O10 0.862434 0.559031 0.846701
O O11 0.407087 0.805005 0.655732
O O12 0.021774 0.112495 0.823444
O O13 0.619581 0.808858 0.222807
#
# Coordination Sequence:
#
# PCOD9545224 Si02
#       6
#     8   8   8   8   8   8
#     4  10  23  38  59  89 134 163 200 257 320 382
#     4  11  22  40  67  91 117 166 208 265 321 364
#     4  11  18  33  59  96 120 153 203 266 315 362
#     4  11  19  33  64  92 121 153 211 268 311 368
#     4  11  21  41  60  90 128 166 207 256 316 372
#     4  11  24  43  64  89 124 170 221 256 300 387
#
# _framework density 20.254791000000001
#
# number of rings (size 3 to 8) (size 9 to 14) (size 15 to 20)
#    0.000    1.167    6.667    1.000    0.000    0.000 
#    9.000    0.000    0.000    2.000    0.000    0.000 
#    0.000    0.000    0.000    0.000    0.000    0.000 
#
# Total GULP energy -267943.522477 kJ/mol
# GULP energy per Si atom -5582.156718 kJ/mol
# Density = 2.020869 g / cm^3
# Si number density = 20.254791 Si / 1000 Ang^3
#
#
#
# Elastic Constant Matrix: (Units=GPa)
#
#
# Indices 1 2 3 4 5 6 
#
# 1 44.1016 4.0664 13.1986 0.0000 0.0000 0.4901
# 2 4.0664 44.1016 13.1986 0.0000 0.0000 -0.4901
# 3 13.1986 13.1986 87.8672 0.0000 0.0000 0.0000
# 4 0.0000 0.0000 0.0000 17.1729 0.0000 0.0000
# 5 0.0000 0.0000 0.0000 0.0000 17.1729 0.0000
# 6 0.4901 -0.4901 0.0000 0.0000 0.0000 31.4092
#
#
#
# Elastic Compliance Matrix: (Units=1/GPa)
#
#
# Indices 1 2 3 4 5 6 
#
# 1 0.023805 -0.001182 -0.003398 0.000000 0.000000 -0.000390
# 2 -0.001182 0.023805 -0.003398 0.000000 0.000000 0.000390
# 3 -0.003398 -0.003398 0.012402 0.000000 0.000000 0.000000
# 4 0.000000 0.000000 0.000000 0.058231 0.000000 0.000000
# 5 0.000000 0.000000 0.000000 0.000000 0.058231 0.000000
# 6 -0.000390 0.000390 0.000000 0.000000 0.000000 0.031850
#
#
# Mechanical properties :
#
#
# Convention : Reuss Voigt Hill
#
# Bulk Modulus (GPa) = 22.69902 26.33307 24.51605
# Shear Modulus (GPa) = 20.92337 22.85812 21.89074
#
# Velocity S-wave (km/s) = 3.21753 3.36300 3.29107
# Velocity P-wave (km/s) = 5.00344 5.30178 5.15477
#
# Compressibility (1/GPa) = 0.04405476
#
# Stress axis : x y z
#
# Youngs Moduli (GPa) = 42.00752 42.00752 80.63406
#
# Poissons Ratio (x) = 0.04967 0.27401
# Poissons Ratio (y) = 0.04967 0.27401
# Poissons Ratio (z) = 0.14275 0.14275
#
# Static dielectric constant tensor:
#      x y z
#    x 1.781260 0.000000 0.000000 
#    y 0.000000 1.781260 0.000000 
#    z 0.000000 0.000000 1.693450 
# 
# From -- ./inp_files/3550.got.cif
#   From: 2010.05.17/outbox.cif.g08.bks.cpg/sg86_2_cif.got.tgz:3550.got - 2010.06.03 19:03:11.
