data_PCOD9545925
_publ_section_title
;
Structure prediction by ZEFSAII (Michael W. Deem and Ramdas Pophale) SiO2 
 PCOD9545925
Probable space group: I 4/M
;
_chemical_formula_sum "Si O2"
_cell_formula_units_Z 52
_cell_length_a 10.944455
_cell_length_b 10.944455
_cell_length_c 18.021179
_cell_angle_alpha 90.000000
_cell_angle_beta 90.000000
_cell_angle_gamma 90.000000
_cell_volume 2158.596558
_symmetry_space_group_name_H-M "I 4/M"
_symmetry_group_IT_number 87
_symmetry_cell_setting 'tetragonal'
loop_
_space_group_symop_operation_xyz
x,y,z
-y,x,z
-x,-y,z
y,-x,z
-x,-y,-z
y,-x,-z
x,y,-z
-y,x,-z
1/2+x,1/2+y,1/2+z
1/2-y,1/2+x,1/2+z
1/2-x,1/2-y,1/2+z
1/2+y,1/2-x,1/2+z
1/2-x,1/2-y,1/2-z
1/2+y,1/2-x,1/2-z
1/2+x,1/2+y,1/2-z
1/2-y,1/2+x,1/2-z
loop_
_atom_site_type_symbol
_atom_site_label
_atom_site_fract_x
_atom_site_fract_y
_atom_site_fract_z
Si Si1 0.251685 0.389305 0.000000
Si Si2 0.500000 0.500000 0.500000
Si Si3 0.788215 0.502677 0.500000
Si Si4 0.696386 0.236232 0.373165
Si Si5 0.906826 0.822300 0.747329
Si Si6 0.500000 0.500000 0.000000
O O1 0.272724 0.313982 0.924663
O O2 0.103473 0.390096 0.000000
O O3 0.348417 0.498734 0.000000
O O4 0.646127 0.453439 0.500000
O O5 0.797161 0.585527 0.426447
O O6 0.716308 0.146529 0.303612
O O7 0.692527 0.369384 0.333530
O O8 0.048051 0.842154 0.730819
#
# Coordination Sequence:
#
# PCOD9545925 Si02
#       6
#     8   2   8  16  16   2
#     4  11  25  45  75 105 140 186 249 305 371 437
#     4  12  20  36  76 114 132 180 228 306 372 424
#     4  11  22  42  74 107 144 182 246 313 365 436
#     4  10  22  40  65 108 141 184 239 307 364 433
#     4  10  22  38  68 100 144 197 246 296 365 447
#     4  12  32  48  80 102 144 204 244 310 380 472
#
# _framework density 24.089725999999999
#
# number of rings (size 3 to 8) (size 9 to 14) (size 15 to 20)
#    0.000    1.538    3.077    1.846    4.308    0.000 
#    0.000    3.077   20.308    8.308    0.000    0.000 
#    0.000    0.000    0.000    0.000    0.000    0.000 
#
# Total GULP energy -144762.017753 kJ/mol
# GULP energy per Si atom -5567.769914 kJ/mol
# Density = 2.403490 g / cm^3
# Si number density = 24.089726 Si / 1000 Ang^3
#
#
#
# Elastic Constant Matrix: (Units=GPa)
#
#
# Indices 1 2 3 4 5 6 
#
# 1 89.6353 59.7950 45.5866 0.0000 0.0000 3.4236
# 2 59.7950 89.6353 45.5866 0.0000 0.0000 -3.4236
# 3 45.5866 45.5866 128.9881 0.0000 0.0000 0.0000
# 4 0.0000 0.0000 0.0000 -7.3900 0.0000 0.0000
# 5 0.0000 0.0000 0.0000 0.0000 -7.3900 0.0000
# 6 3.4236 -3.4236 0.0000 0.0000 0.0000 38.5527
#
#
#
# Elastic Compliance Matrix: (Units=1/GPa)
#
#
# Indices 1 2 3 4 5 6 
#
# 1 0.021370 -0.012838 -0.003015 0.000000 0.000000 -0.003038
# 2 -0.012838 0.021370 -0.003015 0.000000 0.000000 0.003038
# 3 -0.003015 -0.003015 0.009884 0.000000 0.000000 0.000000
# 4 0.000000 0.000000 0.000000 -0.135319 0.000000 0.000000
# 5 0.000000 0.000000 0.000000 0.000000 -0.135319 0.000000
# 6 -0.003038 0.003038 0.000000 0.000000 0.000000 0.026478
#
#
# Mechanical properties :
#
#
# Convention : Reuss Voigt Hill
#
# Bulk Modulus (GPa) = 67.17519 67.79945 67.48732
# Shear Modulus (GPa) = -33.59441 15.24059 -9.17691
#
# Velocity S-wave (km/s) = -3.73842 2.51800 -1.95390
# Velocity P-wave (km/s) = 3.05148 6.05470 4.79432
#
# Compressibility (1/GPa) = 0.01488645
#
# Stress axis : x y z
#
# Youngs Moduli (GPa) = 46.79387 46.79387 101.17398
#
# Poissons Ratio (x) = 0.60076 0.30507
# Poissons Ratio (y) = 0.60076 0.30507
# Poissons Ratio (z) = 0.14110 0.14110
#
# Static dielectric constant tensor:
#      x y z
#    x 1.961240 0.000000 0.000000 
#    y 0.000000 1.961240 0.000000 
#    z 0.000000 0.000000 1.942670 
# 
# From -- ./inp_files/4952.got.cif
#   From: 2010.05.17/outbox.cif.g08.bks.cpg/sg87_3_cif.got.tgz:4952.got - 2010.06.03 19:07:00.
