data_PCOD9545801
_publ_section_title
;
Structure prediction by ZEFSAII (Michael W. Deem and Ramdas Pophale) SiO2 
 PCOD9545801
Probable space group: I 4/M
;
_chemical_formula_sum "Si O2"
_cell_formula_units_Z 116
_cell_length_a 18.370460
_cell_length_b 18.370460
_cell_length_c 16.902281
_cell_angle_alpha 90.000000
_cell_angle_beta 90.000000
_cell_angle_gamma 90.000000
_cell_volume 5704.077008
_symmetry_space_group_name_H-M "I 4/M"
_symmetry_group_IT_number 87
_symmetry_cell_setting 'tetragonal'
loop_
_space_group_symop_operation_xyz
x,y,z
-y,x,z
-x,-y,z
y,-x,z
-x,-y,-z
y,-x,-z
x,y,-z
-y,x,-z
1/2+x,1/2+y,1/2+z
1/2-y,1/2+x,1/2+z
1/2-x,1/2-y,1/2+z
1/2+y,1/2-x,1/2+z
1/2-x,1/2-y,1/2-z
1/2+y,1/2-x,1/2-z
1/2+x,1/2+y,1/2-z
1/2-y,1/2+x,1/2-z
loop_
_atom_site_type_symbol
_atom_site_label
_atom_site_fract_x
_atom_site_fract_y
_atom_site_fract_z
Si Si1 0.276072 0.711425 0.144002
Si Si2 0.237836 0.488461 0.189274
Si Si3 0.593408 0.575140 0.594726
Si Si4 0.108033 0.546585 0.268790
Si Si5 0.149569 0.931691 0.411222
Si Si6 0.000000 0.000000 0.607622
Si Si7 0.278472 0.359415 0.304824
Si Si8 0.628494 0.155918 0.907812
O O1 0.314821 0.648764 0.093640
O O2 0.307586 0.698361 0.232099
O O3 0.188920 0.719045 0.148469
O O4 0.305507 0.790262 0.115339
O O5 0.180516 0.548682 0.216988
O O6 0.310192 0.524334 0.157478
O O7 0.250290 0.432051 0.261123
O O8 0.201948 0.442412 0.118303
O O9 0.510894 0.598690 0.614670
O O10 0.601758 0.582053 0.500000
O O11 0.653974 0.619551 0.640778
O O12 0.085729 0.461476 0.270962
O O13 0.124499 0.585246 0.351740
O O14 0.163733 0.959813 0.500000
O O15 0.063186 0.936390 0.397607
O O16 0.629968 0.138860 0.000000
#
# Coordination Sequence:
#
# PCOD9545801 Si02
#       8
#    16  16  16  16  16   4  16  16
#     4  10  24  39  62  92 127 164 215 270 325 379
#     4  10  23  39  64  90 128 166 210 263 323 379
#     4   9  20  39  62  92 132 169 209 268 326 378
#     4   9  20  39  64  92 126 168 207 267 323 372
#     4  12  25  42  64  93 131 169 211 267 327 392
#     4  12  25  44  64  92 132 164 205 262 325 388
#     4  10  22  40  61  90 123 170 212 260 315 391
#     4  10  20  40  64  89 122 168 216 261 322 390
#
# _framework density 20.336331000000001
#
# number of rings (size 3 to 8) (size 9 to 14) (size 15 to 20)
#    0.000    1.931    0.000    3.517    9.655    1.103 
#    2.483    8.276    0.000    0.000    0.000    0.000 
#    0.000    0.000    0.000    0.000    0.000    0.000 
#
# Total GULP energy -323285.871408 kJ/mol
# GULP energy per Si atom -5573.894335 kJ/mol
# Density = 2.029005 g / cm^3
# Si number density = 20.336331 Si / 1000 Ang^3
#
#
#
# Elastic Constant Matrix: (Units=GPa)
#
#
# Indices 1 2 3 4 5 6 
#
# 1 103.7911 42.6127 57.8280 0.0000 0.0000 0.9391
# 2 42.6127 103.7911 57.8280 0.0000 0.0000 -0.9391
# 3 57.8280 57.8280 82.3459 0.0000 0.0000 0.0000
# 4 0.0000 0.0000 0.0000 18.4743 0.0000 0.0000
# 5 0.0000 0.0000 0.0000 0.0000 18.4743 0.0000
# 6 0.9391 -0.9391 0.0000 0.0000 0.0000 29.3493
#
#
#
# Elastic Compliance Matrix: (Units=1/GPa)
#
#
# Indices 1 2 3 4 5 6 
#
# 1 0.015851 -0.000510 -0.010773 0.000000 0.000000 -0.000524
# 2 -0.000510 0.015851 -0.010773 0.000000 0.000000 0.000524
# 3 -0.010773 -0.010773 0.027275 0.000000 0.000000 0.000000
# 4 0.000000 0.000000 0.000000 0.054129 0.000000 0.000000
# 5 0.000000 0.000000 0.000000 0.000000 0.054129 0.000000
# 6 -0.000524 0.000524 0.000000 0.000000 0.000000 0.034106
#
#
# Mechanical properties :
#
#
# Convention : Reuss Voigt Hill
#
# Bulk Modulus (GPa) = 67.27695 67.38505 67.33100
# Shear Modulus (GPa) = 19.96712 22.03689 21.00201
#
# Velocity S-wave (km/s) = 3.13684 3.29541 3.21710
# Velocity P-wave (km/s) = 6.80247 6.90557 6.85422
#
# Compressibility (1/GPa) = 0.01486393
#
# Stress axis : x y z
#
# Youngs Moduli (GPa) = 63.08560 63.08560 36.66306
#
# Poissons Ratio (x) = 0.03219 0.39499
# Poissons Ratio (y) = 0.03219 0.39499
# Poissons Ratio (z) = 0.67965 0.67965
#
# Static dielectric constant tensor:
#      x y z
#    x 1.755140 0.000000 0.000000 
#    y 0.000000 1.755140 0.000000 
#    z 0.000000 0.000000 1.702440 
# 
# From -- ./inp_files/4599.got.cif
#   From: 2010.05.17/outbox.cif.g08.bks.cpg/sg87_3_cif.got.tgz:4599.got - 2010.06.03 19:07:00.
