data_PCOD9545293
_publ_section_title
;
Structure prediction by ZEFSAII (Michael W. Deem and Ramdas Pophale) SiO2 
 PCOD9545293
Probable space group: P 42/N
;
_chemical_formula_sum "Si O2"
_cell_formula_units_Z 50
_cell_length_a 8.816571
_cell_length_b 8.816571
_cell_length_c 29.841990
_cell_angle_alpha 90.000000
_cell_angle_beta 90.000000
_cell_angle_gamma 90.000000
_cell_volume 2319.675305
_symmetry_space_group_name_H-M "P 42/N"
_symmetry_group_IT_number 86
_space_group.IT_coordinate_system_code '2'
_symmetry_cell_setting 'tetragonal'
loop_
_space_group_symop_operation_xyz
x,y,z
-y,1/2+x,1/2+z
1/2-x,1/2-y,z
1/2+y,-x,1/2+z
-x,-y,-z
y,1/2-x,1/2-z
1/2+x,1/2+y,-z
1/2-y,x,1/2-z
loop_
_atom_site_type_symbol
_atom_site_label
_atom_site_fract_x
_atom_site_fract_y
_atom_site_fract_z
Si Si1 0.486084 0.138766 0.179505
Si Si2 0.298824 0.498217 0.943703
Si Si3 0.902642 0.301488 0.835598
Si Si4 0.250000 0.250000 0.017782
Si Si5 0.250000 0.250000 0.250000
Si Si6 0.001925 0.195712 0.747146
Si Si7 0.250000 0.250000 0.629981
Si Si8 0.022801 0.717086 0.923445
O O1 0.393082 0.234812 0.216311
O O2 0.511830 0.207644 0.130406
O O3 0.394405 0.981751 0.171668
O O4 0.641585 0.086942 0.203518
O O5 0.279070 0.395700 0.900185
O O6 0.151502 0.605970 0.942713
O O7 0.437300 0.612040 0.937669
O O8 0.309059 0.382790 0.984951
O O9 0.750000 0.250000 0.862262
O O10 0.897441 0.202944 0.790316
O O11 0.082396 0.276745 0.848377
O O12 0.371068 0.175769 0.050858
O O13 0.078998 0.360449 0.743394
#
# Coordination Sequence:
#
# PCOD9545293 Si02
#       8
#     8   8   8   4   2   8   4   8
#     4  11  23  42  60  95 138 184 236 291 344 417
#     4  10  24  44  69 102 137 179 222 284 358 432
#     4  11  22  39  64  96 131 184 247 284 349 409
#     4  11  23  44  76 100 140 172 228 290 355 435
#     4  12  26  40  54  88 144 188 230 300 346 392
#     4   9  19  37  62  90 128 181 233 287 342 406
#     4  11  22  44  68  95 148 179 235 295 342 409
#     4  11  23  44  71 104 137 180 229 282 359 425
#
# _framework density 21.554739000000001
#
# number of rings (size 3 to 8) (size 9 to 14) (size 15 to 20)
#    0.000    1.440    1.600    4.320    0.000    3.840 
#   11.520    0.000    0.000    0.000    0.000    0.000 
#    0.000    0.000    0.000    0.000    0.000    0.000 
#
# Total GULP energy -278926.737005 kJ/mol
# GULP energy per Si atom -5578.534740 kJ/mol
# Density = 2.150568 g / cm^3
# Si number density = 21.554739 Si / 1000 Ang^3
#
#
#
# Elastic Constant Matrix: (Units=GPa)
#
#
# Indices 1 2 3 4 5 6 
#
# 1 78.6715 1.9026 33.6897 0.0000 0.0000 -5.4450
# 2 1.9026 78.6715 33.6897 0.0000 0.0000 5.4450
# 3 33.6897 33.6897 127.7486 0.0000 0.0000 0.0000
# 4 0.0000 0.0000 0.0000 4.9331 0.0000 0.0000
# 5 0.0000 0.0000 0.0000 0.0000 4.9331 0.0000
# 6 -5.4450 5.4450 0.0000 0.0000 0.0000 18.8602
#
#
#
# Elastic Compliance Matrix: (Units=1/GPa)
#
#
# Indices 1 2 3 4 5 6 
#
# 1 0.014752 0.001170 -0.004199 0.000000 0.000000 0.003921
# 2 0.001170 0.014752 -0.004199 0.000000 0.000000 -0.003921
# 3 -0.004199 -0.004199 0.010043 0.000000 0.000000 0.000000
# 4 0.000000 0.000000 0.000000 0.202711 0.000000 0.000000
# 5 0.000000 0.000000 0.000000 0.000000 0.202711 0.000000
# 6 0.003921 -0.003921 0.000000 0.000000 0.000000 0.055286
#
#
# Mechanical properties :
#
#
# Convention : Reuss Voigt Hill
#
# Bulk Modulus (GPa) = 39.85463 47.07283 43.46373
# Shear Modulus (GPa) = 9.55887 20.13260 14.84574
#
# Velocity S-wave (km/s) = 2.10816 3.05949 2.62724
# Velocity P-wave (km/s) = 4.94529 5.86232 5.42322
#
# Compressibility (1/GPa) = 0.02509119
#
# Stress axis : x y z
#
# Youngs Moduli (GPa) = 67.78583 67.78583 99.57585
#
# Poissons Ratio (x) = -0.07931 0.41812
# Poissons Ratio (y) = -0.07931 0.41812
# Poissons Ratio (z) = 0.28463 0.28463
#
# Static dielectric constant tensor:
#      x y z
#    x 1.869920 0.000000 0.000000 
#    y 0.000000 1.869920 0.000000 
#    z 0.000000 0.000000 1.778340 
# 
# From -- ./inp_files/5278.got.cif
#   From: 2010.05.17/outbox.cif.g08.bks.cpg/sg86_3_cif.got.tgz:5278.got - 2010.06.03 19:03:11.
