data_PCOD9545327
_publ_section_title
;
Structure prediction by ZEFSAII (Michael W. Deem and Ramdas Pophale) SiO2 
 PCOD9545327
Probable space group: P 42/N
;
_chemical_formula_sum "Si O2"
_cell_formula_units_Z 46
_cell_length_a 11.017322
_cell_length_b 11.017322
_cell_length_c 18.207755
_cell_angle_alpha 90.000000
_cell_angle_beta 90.000000
_cell_angle_gamma 90.000000
_cell_volume 2210.082502
_symmetry_space_group_name_H-M "P 42/N"
_symmetry_group_IT_number 86
_space_group.IT_coordinate_system_code '2'
_symmetry_cell_setting 'tetragonal'
loop_
_space_group_symop_operation_xyz
x,y,z
-y,1/2+x,1/2+z
1/2-x,1/2-y,z
1/2+y,-x,1/2+z
-x,-y,-z
y,1/2-x,1/2-z
1/2+x,1/2+y,-z
1/2-y,x,1/2-z
loop_
_atom_site_type_symbol
_atom_site_label
_atom_site_fract_x
_atom_site_fract_y
_atom_site_fract_z
Si Si1 0.781116 0.426664 0.092334
Si Si2 0.250000 0.250000 0.250000
Si Si3 0.051203 0.277093 0.734459
Si Si4 0.250000 0.750000 0.020125
Si Si5 0.142950 0.931085 0.634260
Si Si6 0.633960 0.834161 0.022230
Si Si7 0.540839 0.855798 0.859279
O O1 0.710795 0.504253 0.152258
O O2 0.841223 0.523729 0.036806
O O3 0.891644 0.357364 0.136021
O O4 0.698455 0.345289 0.039332
O O5 0.213815 0.130918 0.301175
O O6 0.149118 0.380198 0.755277
O O7 0.936869 0.289918 0.788368
O O8 0.169393 0.675541 0.075829
O O9 0.999603 0.931931 0.648720
O O10 0.192967 0.048801 0.591173
O O11 0.750000 0.750000 0.027207
O O12 0.577770 0.817839 0.941928
#
# Coordination Sequence:
#
# PCOD9545327 Si02
#       7
#     8   2   8   4   8   8   8
#     4  11  23  42  65  95 133 172 219 282 338 395
#     4  12  28  40  72 100 132 190 224 264 344 424
#     4  11  22  41  68  98 128 177 229 282 342 410
#     4  12  24  40  66  96 136 180 222 264 356 410
#     4  11  23  42  65  95 133 172 219 282 338 395
#     4  11  19  42  72  91 117 176 229 268 327 391
#     4  11  22  44  65  88 132 174 214 267 337 391
#
# _framework density 20.813703
#
# number of rings (size 3 to 8) (size 9 to 14) (size 15 to 20)
#    0.000    0.870    7.826    2.087    0.000    3.478 
#    0.000    3.478    3.826    0.000    0.000    0.000 
#    0.000    0.000    0.000    0.000    0.000    0.000 
#
# Total GULP energy -256124.413727 kJ/mol
# GULP energy per Si atom -5567.922038 kJ/mol
# Density = 2.076633 g / cm^3
# Si number density = 20.813703 Si / 1000 Ang^3
#
#
#
# Elastic Constant Matrix: (Units=GPa)
#
#
# Indices 1 2 3 4 5 6 
#
# 1 22.2410 5.2278 17.9241 0.0000 0.0000 -7.2407
# 2 5.2278 22.2410 17.9241 0.0000 0.0000 7.2407
# 3 17.9241 17.9241 107.5081 0.0000 0.0000 0.0000
# 4 0.0000 0.0000 0.0000 46.6267 0.0000 0.0000
# 5 0.0000 0.0000 0.0000 0.0000 46.6267 0.0000
# 6 -7.2407 7.2407 0.0000 0.0000 0.0000 26.3797
#
#
#
# Elastic Compliance Matrix: (Units=1/GPa)
#
#
# Indices 1 2 3 4 5 6 
#
# 1 0.061613 -0.015084 -0.007757 0.000000 0.000000 0.021052
# 2 -0.015084 0.061613 -0.007757 0.000000 0.000000 -0.021052
# 3 -0.007757 -0.007757 0.011888 0.000000 0.000000 0.000000
# 4 0.000000 0.000000 0.000000 0.021447 0.000000 0.000000
# 5 0.000000 0.000000 0.000000 0.000000 0.021447 0.000000
# 6 0.021052 -0.021052 0.000000 0.000000 0.000000 0.049464
#
#
# Mechanical properties :
#
#
# Convention : Reuss Voigt Hill
#
# Bulk Modulus (GPa) = 13.52886 26.01578 19.77232
# Shear Modulus (GPa) = 15.95875 31.32091 23.63983
#
# Velocity S-wave (km/s) = 2.77202 3.88341 3.37379
# Velocity P-wave (km/s) = 4.09384 5.71265 4.96960
#
# Compressibility (1/GPa) = 0.07391607
#
# Stress axis : x y z
#
# Youngs Moduli (GPa) = 16.23046 16.23046 84.11633
#
# Poissons Ratio (x) = 0.24482 0.65252
# Poissons Ratio (y) = 0.24482 0.65252
# Poissons Ratio (z) = 0.12591 0.12591
#
# Static dielectric constant tensor:
#      x y z
#    x 1.805500 0.000000 0.000000 
#    y 0.000000 1.805500 0.000000 
#    z 0.000000 0.000000 1.739830 
# 
# From -- ./inp_files/3623.got.cif
#   From: 2010.05.17/outbox.cif.g08.bks.cpg/sg86_2_cif.got.tgz:3623.got - 2010.06.03 19:03:11.
