data_PCOD9545393
_publ_section_title
;
Structure prediction by ZEFSAII (Michael W. Deem and Ramdas Pophale) SiO2 
 PCOD9545393
Probable space group: P 42/N
;
_chemical_formula_sum "Si O2"
_cell_formula_units_Z 26
_cell_length_a 10.830171
_cell_length_b 10.830171
_cell_length_c 8.948116
_cell_angle_alpha 90.000000
_cell_angle_beta 90.000000
_cell_angle_gamma 90.000000
_cell_volume 1049.547826
_symmetry_space_group_name_H-M "P 42/N"
_symmetry_group_IT_number 86
_space_group.IT_coordinate_system_code '2'
_symmetry_cell_setting 'tetragonal'
loop_
_space_group_symop_operation_xyz
x,y,z
-y,1/2+x,1/2+z
1/2-x,1/2-y,z
1/2+y,-x,1/2+z
-x,-y,-z
y,1/2-x,1/2-z
1/2+x,1/2+y,-z
1/2-y,x,1/2-z
loop_
_atom_site_type_symbol
_atom_site_label
_atom_site_fract_x
_atom_site_fract_y
_atom_site_fract_z
Si Si1 0.678369 0.421535 0.374299
Si Si2 0.429922 0.877447 0.456926
Si Si3 0.349548 0.083539 0.999459
Si Si4 0.250000 0.250000 0.250000
O O1 0.810155 0.373230 0.432948
O O2 0.641107 0.377454 0.209873
O O3 0.663498 0.569934 0.385965
O O4 0.560739 0.390935 0.480055
O O5 0.548227 0.787647 0.459022
O O6 0.500000 0.000000 0.500000
O O7 0.339642 0.164356 0.150103
#
# Coordination Sequence:
#
# PCOD9545393 Si02
#       4
#     8   8   8   2
#     4  11  25  44  69 102 139 189 248 314 380 457
#     4  12  25  43  70 102 144 191 247 312 384 459
#     4  11  24  42  67  97 137 184 243 306 378 450
#     4  12  24  44  70 100 144 196 244 314 384 460
#
# _framework density 24.772572
#
# number of rings (size 3 to 8) (size 9 to 14) (size 15 to 20)
#    0.000    0.615    0.000    8.308    0.000    9.846 
#    0.000    3.077    0.000    0.000    0.000    0.000 
#    0.000    0.000    0.000    0.000    0.000    0.000 
#
# Total GULP energy -144937.264569 kJ/mol
# GULP energy per Si atom -5574.510176 kJ/mol
# Density = 2.471619 g / cm^3
# Si number density = 24.772572 Si / 1000 Ang^3
#
#
#
# Elastic Constant Matrix: (Units=GPa)
#
#
# Indices 1 2 3 4 5 6 
#
# 1 110.9370 4.3086 37.1634 0.0000 0.0000 8.6005
# 2 4.3086 110.9370 37.1634 0.0000 0.0000 -8.6005
# 3 37.1634 37.1634 112.2577 0.0000 0.0000 0.0000
# 4 0.0000 0.0000 0.0000 5.2311 0.0000 0.0000
# 5 0.0000 0.0000 0.0000 0.0000 5.2311 0.0000
# 6 8.6005 -8.6005 0.0000 0.0000 0.0000 32.6231
#
#
#
# Elastic Compliance Matrix: (Units=1/GPa)
#
#
# Indices 1 2 3 4 5 6 
#
# 1 0.010414 0.000619 -0.003652 0.000000 0.000000 -0.002582
# 2 0.000619 0.010414 -0.003652 0.000000 0.000000 0.002582
# 3 -0.003652 -0.003652 0.011326 0.000000 0.000000 0.000000
# 4 0.000000 0.000000 0.000000 0.191163 0.000000 0.000000
# 5 0.000000 0.000000 0.000000 0.000000 0.191163 0.000000
# 6 -0.002582 0.002582 0.000000 0.000000 0.000000 0.032015
#
#
# Mechanical properties :
#
#
# Convention : Reuss Voigt Hill
#
# Bulk Modulus (GPa) = 53.24214 54.60026 53.92120
# Shear Modulus (GPa) = 10.72667 25.65015 18.18841
#
# Velocity S-wave (km/s) = 2.08314 3.22129 2.71258
# Velocity P-wave (km/s) = 5.22733 5.99367 5.62357
#
# Compressibility (1/GPa) = 0.01878212
#
# Stress axis : x y z
#
# Youngs Moduli (GPa) = 96.02614 96.02614 88.28938
#
# Poissons Ratio (x) = -0.05943 0.32247
# Poissons Ratio (y) = -0.05943 0.32247
# Poissons Ratio (z) = 0.35073 0.35073
#
# Static dielectric constant tensor:
#      x y z
#    x 2.394090 0.000000 0.000000 
#    y 0.000000 2.394090 0.000000 
#    z 0.000000 0.000000 -20.485340 
# 
# From -- ./inp_files/755.got.cif
#   From: 2010.05.17/outbox.cif.g08.bks.cpg/sg86_1_cif.got.tgz:755.got - 2010.06.03 19:03:11.
