data_PCOD9545507
_publ_section_title
;
Structure prediction by ZEFSAII (Michael W. Deem and Ramdas Pophale) SiO2 
 PCOD9545507
Probable space group: I 4/M
;
_chemical_formula_sum "Si O2"
_cell_formula_units_Z 80
_cell_length_a 14.144156
_cell_length_b 14.144156
_cell_length_c 18.904621
_cell_angle_alpha 90.000000
_cell_angle_beta 90.000000
_cell_angle_gamma 90.000000
_cell_volume 3782.004579
_symmetry_space_group_name_H-M "I 4/M"
_symmetry_group_IT_number 87
_symmetry_cell_setting 'tetragonal'
loop_
_space_group_symop_operation_xyz
x,y,z
-y,x,z
-x,-y,z
y,-x,z
-x,-y,-z
y,-x,-z
x,y,-z
-y,x,-z
1/2+x,1/2+y,1/2+z
1/2-y,1/2+x,1/2+z
1/2-x,1/2-y,1/2+z
1/2+y,1/2-x,1/2+z
1/2-x,1/2-y,1/2-z
1/2+y,1/2-x,1/2-z
1/2+x,1/2+y,1/2-z
1/2-y,1/2+x,1/2-z
loop_
_atom_site_type_symbol
_atom_site_label
_atom_site_fract_x
_atom_site_fract_y
_atom_site_fract_z
Si Si1 0.790170 0.720049 0.080918
Si Si2 0.023976 0.611117 0.578810
Si Si3 0.878434 0.904026 0.645131
Si Si4 0.838889 0.806809 0.217521
Si Si5 0.963736 0.648014 0.728879
O O1 0.868928 0.636098 0.085676
O O2 0.696424 0.663093 0.105792
O O3 0.815729 0.804797 0.134547
O O4 0.781603 0.750220 0.000000
O O5 0.995868 0.643363 0.500000
O O6 0.973457 0.660260 0.644836
O O7 0.000000 0.500000 0.584984
O O8 0.856781 0.892848 0.729388
O O9 0.985277 0.873045 0.627967
O O10 0.750000 0.750000 0.250000
O O11 0.927884 0.738845 0.231061
O O12 0.889693 0.564017 0.743943
#
# Coordination Sequence:
#
# PCOD9545507 Si02
#       5
#    16  16  16  16  16
#     4  10  20  36  57  85 121 155 190 246 312 369
#     4  10  18  30  50  84 120 151 185 230 293 365
#     4  10  22  39  60  86 114 158 213 256 296 350
#     4  10  21  35  55  81 112 150 199 245 293 354
#     4  11  18  31  54  82 109 150 192 240 301 362
#
# _framework density 21.152802999999999
#
# number of rings (size 3 to 8) (size 9 to 14) (size 15 to 20)
#    0.000    1.800    4.000    1.200    2.800    0.800 
#    0.000    7.000    0.000    1.200    0.000    1.400 
#    0.000    0.000    0.000    0.000    0.000    0.000 
#
# Total GULP energy -223356.078273 kJ/mol
# GULP energy per Si atom -5583.901957 kJ/mol
# Density = 2.110466 g / cm^3
# Si number density = 21.152803 Si / 1000 Ang^3
#
#
#
# Elastic Constant Matrix: (Units=GPa)
#
#
# Indices 1 2 3 4 5 6 
#
# 1 31.1153 -15.2524 -7.2591 0.0000 0.0000 -1.3018
# 2 -15.2524 31.1153 -7.2591 0.0000 0.0000 1.3018
# 3 -7.2591 -7.2591 169.3890 0.0000 0.0000 0.0000
# 4 0.0000 0.0000 0.0000 18.8055 0.0000 0.0000
# 5 0.0000 0.0000 0.0000 0.0000 18.8054 0.0000
# 6 -1.3018 1.3018 0.0000 0.0000 0.0000 16.0189
#
#
#
# Elastic Compliance Matrix: (Units=1/GPa)
#
#
# Indices 1 2 3 4 5 6 
#
# 1 0.043640 0.021974 0.002812 0.000000 0.000000 0.001761
# 2 0.021974 0.043640 0.002812 0.000000 0.000000 -0.001761
# 3 0.002812 0.002812 0.006145 0.000000 0.000000 0.000000
# 4 0.000000 0.000000 0.000000 0.053176 0.000000 0.000000
# 5 0.000000 0.000000 0.000000 0.000000 0.053176 0.000000
# 6 0.001761 -0.001761 0.000000 0.000000 0.000000 0.062712
#
#
# Mechanical properties :
#
#
# Convention : Reuss Voigt Hill
#
# Bulk Modulus (GPa) = 6.72863 19.11984 12.92423
# Shear Modulus (GPa) = 19.46794 28.15198 23.80996
#
# Velocity S-wave (km/s) = 3.03701 3.65209 3.35866
# Velocity P-wave (km/s) = 3.93520 5.18095 4.60044
#
# Compressibility (1/GPa) = 0.14861874
#
# Stress axis : x y z
#
# Youngs Moduli (GPa) = 22.91501 22.91501 162.74533
#
# Poissons Ratio (x) = -0.50353 -0.45761
# Poissons Ratio (y) = -0.50353 -0.45761
# Poissons Ratio (z) = -0.06443 -0.06443
#
# Static dielectric constant tensor:
#      x y z
#    x 1.812110 0.000000 0.000000 
#    y 0.000000 1.812110 0.000000 
#    z 0.000000 0.000000 1.797710 
# 
# From -- ./inp_files/5063.got.cif
#   From: 2010.05.17/outbox.cif.g08.bks.cpg/sg87_3_cif.got.tgz:5063.got - 2010.06.03 19:07:00.
