data_PCOD9545754
_publ_section_title
;
Structure prediction by ZEFSAII (Michael W. Deem and Ramdas Pophale) SiO2 
 PCOD9545754
Probable space group: I 4/M
;
_chemical_formula_sum "Si O2"
_cell_formula_units_Z 120
_cell_length_a 25.327254
_cell_length_b 25.327254
_cell_length_c 7.990435
_cell_angle_alpha 90.000000
_cell_angle_beta 90.000000
_cell_angle_gamma 90.000000
_cell_volume 5125.622703
_symmetry_space_group_name_H-M "I 4/M"
_symmetry_group_IT_number 87
_symmetry_cell_setting 'tetragonal'
loop_
_space_group_symop_operation_xyz
x,y,z
-y,x,z
-x,-y,z
y,-x,z
-x,-y,-z
y,-x,-z
x,y,-z
-y,x,-z
1/2+x,1/2+y,1/2+z
1/2-y,1/2+x,1/2+z
1/2-x,1/2-y,1/2+z
1/2+y,1/2-x,1/2+z
1/2-x,1/2-y,1/2-z
1/2+y,1/2-x,1/2-z
1/2+x,1/2+y,1/2-z
1/2-y,1/2+x,1/2-z
loop_
_atom_site_type_symbol
_atom_site_label
_atom_site_fract_x
_atom_site_fract_y
_atom_site_fract_z
Si Si1 0.253574 0.373069 0.802645
Si Si2 0.215544 0.010741 0.799558
Si Si3 0.792472 0.418690 0.705883
Si Si4 0.441067 0.565331 0.000000
Si Si5 0.873743 0.071610 0.812486
Si Si6 0.420291 0.009980 0.690766
Si Si7 0.394612 0.862605 0.204979
Si Si8 0.834377 0.788511 0.186383
O O1 0.280959 0.428775 0.755561
O O2 0.194193 0.375411 0.733542
O O3 0.285191 0.320278 0.757672
O O4 0.249055 0.373460 0.000000
O O5 0.262808 0.971899 0.736734
O O6 0.161524 0.979194 0.761447
O O7 0.218895 0.011053 0.000000
O O8 0.789984 0.418812 0.500000
O O9 0.852373 0.407245 0.756960
O O10 0.759698 0.366866 0.765309
O O11 0.429049 0.503060 0.000000
O O12 0.415035 0.585695 0.830120
O O13 0.832656 0.119620 0.823286
O O14 0.896056 0.063383 0.000000
O O15 0.413038 0.991696 0.500000
O O16 0.465970 0.055230 0.691742
O O17 0.372043 0.044810 0.757270
O O18 0.395673 0.863138 0.000000
O O19 0.819142 0.770895 0.000000
#
# Coordination Sequence:
#
# PCOD9545754 Si02
#       8
#    16  16  16   8  16  16  16  16
#     4  11  23  34  53  87 120 146 182 237 293 342
#     4   9  19  36  59  85 107 144 198 242 285 342
#     4   8  16  36  60  77 106 151 191 228 281 343
#     4  11  26  40  56  86 120 158 202 244 299 373
#     4   9  21  39  61  86 115 153 199 251 305 353
#     4  10  20  36  58  82 112 150 193 234 282 340
#     4   9  20  36  54  83 119 152 183 230 291 342
#     4   9  19  37  59  83 108 145 196 239 280 345
#
# _framework density 23.41179
#
# number of rings (size 3 to 8) (size 9 to 14) (size 15 to 20)
#    0.000    2.600    0.000    2.800    5.600    1.067 
#    0.000    2.667    0.000    4.000    0.000    0.000 
#    0.000    0.000    0.000    0.000    0.000    0.000 
#
# Total GULP energy -334905.106954 kJ/mol
# GULP energy per Si atom -5581.751783 kJ/mol
# Density = 2.335850 g / cm^3
# Si number density = 23.411790 Si / 1000 Ang^3
#
#
#
# Elastic Constant Matrix: (Units=GPa)
#
#
# Indices 1 2 3 4 5 6 
#
# 1 53.2004 -4.7597 6.5576 0.0000 0.0000 -9.2187
# 2 -4.7597 53.2004 6.5576 0.0000 0.0000 9.2187
# 3 6.5576 6.5576 38.1489 0.0000 0.0000 0.0000
# 4 0.0000 0.0000 0.0000 -21.4140 0.0000 0.0000
# 5 0.0000 0.0000 0.0000 0.0000 -21.4140 0.0000
# 6 -9.2187 9.2187 0.0000 0.0000 0.0000 14.5150
#
#
#
# Elastic Compliance Matrix: (Units=1/GPa)
#
#
# Indices 1 2 3 4 5 6 
#
# 1 0.021636 0.000015 -0.003722 0.000000 0.000000 0.013732
# 2 0.000015 0.021636 -0.003722 0.000000 0.000000 -0.013732
# 3 -0.003722 -0.003722 0.027493 0.000000 0.000000 0.000000
# 4 0.000000 0.000000 0.000000 -0.046698 0.000000 0.000000
# 5 0.000000 0.000000 0.000000 0.000000 -0.046698 0.000000
# 6 0.013732 -0.013732 0.000000 0.000000 0.000000 0.086337
#
#
# Mechanical properties :
#
#
# Convention : Reuss Voigt Hill
#
# Bulk Modulus (GPa) = 17.88642 17.91788 17.90215
# Shear Modulus (GPa) = 51.44070 3.41701 27.42886
#
# Velocity S-wave (km/s) = 4.69253 1.20942 3.42655
# Velocity P-wave (km/s) = 6.08410 3.10165 4.82890
#
# Compressibility (1/GPa) = 0.05590833
#
# Stress axis : x y z
#
# Youngs Moduli (GPa) = 46.21828 46.21828 36.37346
#
# Poissons Ratio (x) = -0.00069 0.13537
# Poissons Ratio (y) = -0.00069 0.13537
# Poissons Ratio (z) = 0.17201 0.17201
#
# Static dielectric constant tensor:
#      x y z
#    x 1.946760 0.000000 0.000000 
#    y 0.000000 1.946760 0.000000 
#    z 0.000000 0.000000 1.866320 
# 
# From -- ./inp_files/1701.got.cif
#   From: 2010.05.17/outbox.cif.g08.bks.cpg/sg87_1_cif.got.tgz:1701.got - 2010.06.03 19:07:00.
