data_PCOD9545036
_publ_section_title
;
Structure prediction by ZEFSAII (Michael W. Deem and Ramdas Pophale) SiO2 
 PCOD9545036
Probable space group: P 42/N
;
_chemical_formula_sum "Si O2"
_cell_formula_units_Z 56
_cell_length_a 13.086309
_cell_length_b 13.086309
_cell_length_c 13.643814
_cell_angle_alpha 90.000000
_cell_angle_beta 90.000000
_cell_angle_gamma 90.000000
_cell_volume 2336.523385
_symmetry_space_group_name_H-M "P 42/N"
_symmetry_group_IT_number 86
_space_group.IT_coordinate_system_code '2'
_symmetry_cell_setting 'tetragonal'
loop_
_space_group_symop_operation_xyz
x,y,z
-y,1/2+x,1/2+z
1/2-x,1/2-y,z
1/2+y,-x,1/2+z
-x,-y,-z
y,1/2-x,1/2-z
1/2+x,1/2+y,-z
1/2-y,x,1/2-z
loop_
_atom_site_type_symbol
_atom_site_label
_atom_site_fract_x
_atom_site_fract_y
_atom_site_fract_z
Si Si1 0.067639 0.570589 0.272506
Si Si2 0.878071 0.009901 0.011886
Si Si3 0.789115 0.637032 0.459532
Si Si4 0.643892 0.619540 0.741048
Si Si5 0.991735 0.384471 0.041630
Si Si6 0.640486 0.295534 0.411490
Si Si7 0.854873 0.624923 0.262677
O O1 0.052813 0.632834 0.374649
O O2 0.147229 0.602546 0.187920
O O3 0.044591 0.092323 0.195751
O O4 0.956029 0.577919 0.220306
O O5 0.803298 0.076279 0.945045
O O6 0.842196 0.894867 0.988223
O O7 0.000000 0.000000 0.000000
O O8 0.750000 0.750000 0.439328
O O9 0.695500 0.570958 0.494684
O O10 0.830457 0.574519 0.365841
O O11 0.622346 0.740560 0.717921
O O12 0.035078 0.369792 0.153360
O O13 0.000000 0.500000 0.000000
O O14 0.878248 0.355050 0.001784
O O15 0.750000 0.250000 0.389412
O O16 0.744310 0.621449 0.214911
#
# Coordination Sequence:
#
# PCOD9545036 Si02
#       7
#     8   8   8   8   8   8   8
#     4  11  27  48  76 116 161 211 282 344 427 503
#     4  11  28  50  78 114 164 222 275 348 428 519
#     4  11  23  39  73 104 145 203 263 332 404 490
#     4  11  29  50  79 117 161 216 283 348 422 503
#     4  12  26  49  78 115 162 212 279 351 432 508
#     4  12  28  51  79 121 168 222 280 354 444 522
#     4  10  20  40  67 105 150 196 262 326 403 474
#
# _framework density 23.967231999999999
#
# number of rings (size 3 to 8) (size 9 to 14) (size 15 to 20)
#    0.000    0.857    2.857    2.571    8.000    4.000 
#    0.000    0.000    0.000    0.000    0.000    0.000 
#    0.000    0.000    0.000    0.000    0.000    0.000 
#
# Total GULP energy -311800.243269 kJ/mol
# GULP energy per Si atom -5567.861487 kJ/mol
# Density = 2.391268 g / cm^3
# Si number density = 23.967232 Si / 1000 Ang^3
#
#
#
# Elastic Constant Matrix: (Units=GPa)
#
#
# Indices 1 2 3 4 5 6 
#
# 1 135.4886 53.9303 39.5393 0.0000 0.0000 4.7185
# 2 53.9303 135.4886 39.5393 0.0000 0.0000 -4.7185
# 3 39.5393 39.5393 119.2352 0.0000 0.0000 0.0000
# 4 0.0000 0.0000 0.0000 5.2378 0.0000 0.0000
# 5 0.0000 0.0000 0.0000 0.0000 5.2378 0.0000
# 6 4.7185 -4.7185 0.0000 0.0000 0.0000 46.0988
#
#
#
# Elastic Compliance Matrix: (Units=1/GPa)
#
#
# Indices 1 2 3 4 5 6 
#
# 1 0.009268 -0.003140 -0.002032 0.000000 0.000000 -0.001270
# 2 -0.003140 0.009268 -0.002032 0.000000 0.000000 0.001270
# 3 -0.002032 -0.002032 0.009734 0.000000 0.000000 0.000000
# 4 0.000000 0.000000 0.000000 0.190921 0.000000 0.000000
# 5 0.000000 0.000000 0.000000 0.000000 0.190921 0.000000
# 6 -0.001270 0.001270 0.000000 0.000000 0.000000 0.021953
#
#
# Mechanical properties :
#
#
# Convention : Reuss Voigt Hill
#
# Bulk Modulus (GPa) = 72.14083 72.91450 72.52766
# Shear Modulus (GPa) = 11.08419 28.46177 19.77298
#
# Velocity S-wave (km/s) = 2.15285 3.44979 2.87540
# Velocity P-wave (km/s) = 6.02867 6.80858 6.43046
#
# Compressibility (1/GPa) = 0.01386178
#
# Stress axis : x y z
#
# Youngs Moduli (GPa) = 107.89975 107.89975 102.72834
#
# Poissons Ratio (x) = 0.33883 0.20874
# Poissons Ratio (y) = 0.33883 0.20874
# Poissons Ratio (z) = 0.21925 0.21925
#
# Static dielectric constant tensor:
#      x y z
#    x 1.908500 0.000000 0.000000 
#    y 0.000000 1.908500 0.000000 
#    z 0.000000 0.000000 2.191830 
# 
# From -- ./inp_files/4648.got.cif
#   From: 2010.05.17/outbox.cif.g08.bks.cpg/sg86_3_cif.got.tgz:4648.got - 2010.06.03 19:03:11.
