data_PCOD9545620
_publ_section_title
;
Structure prediction by ZEFSAII (Michael W. Deem and Ramdas Pophale) SiO2 
 PCOD9545620
Probable space group: I 4/M
;
_chemical_formula_sum "Si O2"
_cell_formula_units_Z 88
_cell_length_a 12.648656
_cell_length_b 12.648656
_cell_length_c 29.384125
_cell_angle_alpha 90.000000
_cell_angle_beta 90.000000
_cell_angle_gamma 90.000000
_cell_volume 4701.122042
_symmetry_space_group_name_H-M "I 4/M"
_symmetry_group_IT_number 87
_symmetry_cell_setting 'tetragonal'
loop_
_space_group_symop_operation_xyz
x,y,z
-y,x,z
-x,-y,z
y,-x,z
-x,-y,-z
y,-x,-z
x,y,-z
-y,x,-z
1/2+x,1/2+y,1/2+z
1/2-y,1/2+x,1/2+z
1/2-x,1/2-y,1/2+z
1/2+y,1/2-x,1/2+z
1/2-x,1/2-y,1/2-z
1/2+y,1/2-x,1/2-z
1/2+x,1/2+y,1/2-z
1/2-y,1/2+x,1/2-z
loop_
_atom_site_type_symbol
_atom_site_label
_atom_site_fract_x
_atom_site_fract_y
_atom_site_fract_z
Si Si1 0.486925 0.871068 0.950681
Si Si2 0.386500 0.636444 0.753929
Si Si3 0.778489 0.737789 0.177708
Si Si4 0.393553 0.642597 0.500000
Si Si5 0.053069 0.386379 0.868041
Si Si6 0.287457 0.149136 0.914051
O O1 0.412311 0.861006 0.907486
O O2 0.600933 0.824359 0.938334
O O3 0.500000 0.000000 0.953411
O O4 0.448368 0.835356 0.000000
O O5 0.356654 0.512848 0.753493
O O6 0.334073 0.691678 0.797633
O O7 0.336304 0.694795 0.710304
O O8 0.885436 0.669916 0.172025
O O9 0.742767 0.778271 0.128350
O O10 0.356391 0.521473 0.500000
O O11 0.357014 0.701508 0.454046
O O12 0.000000 0.500000 0.855839
O O13 0.965236 0.311462 0.890842
#
# Coordination Sequence:
#
# PCOD9545620 Si02
#       6
#    16  16  16   8  16  16
#     4   8  15  30  51  78 113 153 184 232 275 320
#     4  10  24  43  63  85 117 152 191 241 308 373
#     4  11  22  39  64  89 115 152 197 248 300 354
#     4  11  22  32  47  80 124 163 195 232 282 346
#     4   9  20  33  58  87 117 154 197 247 292 340
#     4  10  19  34  55  80 119 153 198 233 284 351
#
# _framework density 18.718935999999999
#
# number of rings (size 3 to 8) (size 9 to 14) (size 15 to 20)
#    0.000    2.636    0.909    2.182    6.364    0.000 
#    1.636    1.818    0.000    0.000    0.000    0.000 
#    0.000    2.909    0.000    0.000    0.000    0.000 
#
# Total GULP energy -245287.895656 kJ/mol
# GULP energy per Si atom -5574.724901 kJ/mol
# Density = 1.867633 g / cm^3
# Si number density = 18.718936 Si / 1000 Ang^3
#
#
#
# Elastic Constant Matrix: (Units=GPa)
#
#
# Indices 1 2 3 4 5 6 
#
# 1 36.1898 11.3154 22.0150 0.0000 0.0000 -0.0136
# 2 11.3154 36.1898 22.0150 0.0000 0.0000 0.0136
# 3 22.0150 22.0150 81.6278 0.0000 0.0000 0.0000
# 4 0.0000 0.0000 0.0000 21.4495 0.0000 0.0000
# 5 0.0000 0.0000 0.0000 0.0000 21.4495 0.0000
# 6 -0.0136 0.0136 0.0000 0.0000 0.0000 21.7732
#
#
#
# Elastic Compliance Matrix: (Units=1/GPa)
#
#
# Indices 1 2 3 4 5 6 
#
# 1 0.034134 -0.006068 -0.007569 0.000000 0.000000 0.000025
# 2 -0.006068 0.034134 -0.007569 0.000000 0.000000 -0.000025
# 3 -0.007569 -0.007569 0.016334 0.000000 0.000000 0.000000
# 4 0.000000 0.000000 0.000000 0.046621 0.000000 0.000000
# 5 0.000000 0.000000 0.000000 0.000000 0.046621 0.000000
# 6 0.000025 -0.000025 0.000000 0.000000 0.000000 0.045928
#
#
# Mechanical properties :
#
#
# Convention : Reuss Voigt Hill
#
# Bulk Modulus (GPa) = 23.70338 29.41090 26.55714
# Shear Modulus (GPa) = 17.84133 19.51191 18.67662
#
# Velocity S-wave (km/s) = 3.09061 3.23207 3.16213
# Velocity P-wave (km/s) = 5.04243 5.44741 5.24883
#
# Compressibility (1/GPa) = 0.04218808
#
# Stress axis : x y z
#
# Youngs Moduli (GPa) = 29.29633 29.29633 61.22326
#
# Poissons Ratio (x) = 0.17777 0.46342
# Poissons Ratio (y) = 0.17777 0.46342
# Poissons Ratio (z) = 0.22176 0.22176
#
# Static dielectric constant tensor:
#      x y z
#    x 1.647650 0.000000 0.000000 
#    y 0.000000 1.647650 0.000000 
#    z 0.000000 0.000000 1.667720 
# 
# From -- ./inp_files/6573.got.cif
#   From: 2010.05.17/outbox.cif.g08.bks.cpg/sg87_4_cif.got.tgz:6573.got - 2010.06.03 19:07:00.
