data_PCOD9545760
_publ_section_title
;
Structure prediction by ZEFSAII (Michael W. Deem and Ramdas Pophale) SiO2 
 PCOD9545760
Probable space group: I 4/M
;
_chemical_formula_sum "Si O2"
_cell_formula_units_Z 108
_cell_length_a 14.878866
_cell_length_b 14.878866
_cell_length_c 22.270664
_cell_angle_alpha 90.000000
_cell_angle_beta 90.000000
_cell_angle_gamma 90.000000
_cell_volume 4930.294149
_symmetry_space_group_name_H-M "I 4/M"
_symmetry_group_IT_number 87
_symmetry_cell_setting 'tetragonal'
loop_
_space_group_symop_operation_xyz
x,y,z
-y,x,z
-x,-y,z
y,-x,z
-x,-y,-z
y,-x,-z
x,y,-z
-y,x,-z
1/2+x,1/2+y,1/2+z
1/2-y,1/2+x,1/2+z
1/2-x,1/2-y,1/2+z
1/2+y,1/2-x,1/2+z
1/2-x,1/2-y,1/2-z
1/2+y,1/2-x,1/2-z
1/2+x,1/2+y,1/2-z
1/2-y,1/2+x,1/2-z
loop_
_atom_site_type_symbol
_atom_site_label
_atom_site_fract_x
_atom_site_fract_y
_atom_site_fract_z
Si Si1 0.325422 0.955336 0.668420
Si Si2 0.934649 0.865673 0.000000
Si Si3 0.617321 0.162390 0.428728
Si Si4 0.662429 0.847452 0.281513
Si Si5 0.681330 0.265326 0.068278
Si Si6 0.920719 0.727817 0.894191
Si Si7 0.360673 0.358918 0.182307
Si Si8 0.000000 0.000000 0.277386
O O1 0.364690 0.931741 0.603808
O O2 0.358899 0.881918 0.716863
O O3 0.220363 0.931752 0.671165
O O4 0.348077 0.054405 0.688828
O O5 0.913210 0.814114 0.061844
O O6 0.040645 0.883545 0.000000
O O7 0.606055 0.157930 0.500000
O O8 0.711965 0.215700 0.417391
O O9 0.524360 0.199737 0.401545
O O10 0.609159 0.775842 0.324074
O O11 0.769351 0.829336 0.283745
O O12 0.666809 0.159042 0.077259
O O13 0.623118 0.321900 0.115236
O O14 0.665890 0.291577 0.000000
O O15 0.409395 0.437449 0.216964
#
# Coordination Sequence:
#
# PCOD9545760 Si02
#       8
#    16   8  16  16  16  16  16   4
#     4  11  23  43  64  94 132 171 218 270 328 403
#     4  11  22  38  66  97 136 181 232 295 348 398
#     4  10  20  36  60  90 124 171 216 269 326 389
#     4  11  24  41  65  96 129 175 218 268 336 400
#     4   9  18  35  57  87 126 165 212 259 324 393
#     4  11  20  35  60  92 126 173 220 266 329 396
#     4  10  22  40  68  91 120 166 211 270 335 383
#     4  12  20  44  73  88 124 156 213 284 320 386
#
# _framework density 21.905387999999999
#
# number of rings (size 3 to 8) (size 9 to 14) (size 15 to 20)
#    0.000    1.556    2.963    2.222    0.000    2.074 
#    1.333    3.333    0.000    0.000    0.000    0.000 
#    0.000    0.000    0.000    0.000    0.000    0.000 
#
# Total GULP energy -300648.293370 kJ/mol
# GULP energy per Si atom -5567.560988 kJ/mol
# Density = 2.185553 g / cm^3
# Si number density = 21.905388 Si / 1000 Ang^3
#
#
#
# Elastic Constant Matrix: (Units=GPa)
#
#
# Indices 1 2 3 4 5 6 
#
# 1 74.1688 12.8250 17.8219 0.0000 0.0000 -32.8254
# 2 12.8250 74.1688 17.8219 0.0000 0.0000 32.8254
# 3 17.8219 17.8219 55.6789 0.0000 0.0000 0.0000
# 4 0.0000 0.0000 0.0000 16.8129 0.0000 0.0000
# 5 0.0000 0.0000 0.0000 0.0000 16.8129 0.0000
# 6 -32.8254 32.8254 0.0000 0.0000 0.0000 -54.0791
#
#
#
# Elastic Compliance Matrix: (Units=1/GPa)
#
#
# Indices 1 2 3 4 5 6 
#
# 1 0.011556 0.001674 -0.004235 0.000000 0.000000 -0.005998
# 2 0.001674 0.011556 -0.004235 0.000000 0.000000 0.005998
# 3 -0.004235 -0.004235 0.020671 0.000000 0.000000 0.000000
# 4 0.000000 0.000000 0.000000 0.059478 0.000000 0.000000
# 5 0.000000 0.000000 0.000000 0.000000 0.059478 0.000000
# 6 -0.005998 0.005998 0.000000 0.000000 0.000000 -0.011210
#
#
# Mechanical properties :
#
#
# Convention : Reuss Voigt Hill
#
# Bulk Modulus (GPa) = 33.12093 33.43934 33.28013
# Shear Modulus (GPa) = 28.54121 6.27917 17.41019
#
# Velocity S-wave (km/s) = 3.61353 1.69491 2.82226
# Velocity P-wave (km/s) = 5.70640 4.37365 5.08388
#
# Compressibility (1/GPa) = 0.03019239
#
# Stress axis : x y z
#
# Youngs Moduli (GPa) = 86.53415 86.53415 48.37679
#
# Poissons Ratio (x) = -0.14486 0.20486
# Poissons Ratio (y) = -0.14486 0.20486
# Poissons Ratio (z) = 0.36645 0.36645
#
# Static dielectric constant tensor:
#      x y z
#    x 1.834730 0.000000 0.000000 
#    y 0.000000 1.834730 0.000000 
#    z 0.000000 0.000000 1.817230 
# 
# From -- ./inp_files/5935.got.cif
#   From: 2010.05.17/outbox.cif.g08.bks.cpg/sg87_3_cif.got.tgz:5935.got - 2010.06.03 19:07:00.
