data_PCOD9545920
_publ_section_title
;
Structure prediction by ZEFSAII (Michael W. Deem and Ramdas Pophale) SiO2 
 PCOD9545920
Probable space group: I 4/M
;
_chemical_formula_sum "Si O2"
_cell_formula_units_Z 96
_cell_length_a 24.056641
_cell_length_b 24.056641
_cell_length_c 8.982870
_cell_angle_alpha 90.000000
_cell_angle_beta 90.000000
_cell_angle_gamma 90.000000
_cell_volume 5198.584278
_symmetry_space_group_name_H-M "I 4/M"
_symmetry_group_IT_number 87
_symmetry_cell_setting 'tetragonal'
loop_
_space_group_symop_operation_xyz
x,y,z
-y,x,z
-x,-y,z
y,-x,z
-x,-y,-z
y,-x,-z
x,y,-z
-y,x,-z
1/2+x,1/2+y,1/2+z
1/2-y,1/2+x,1/2+z
1/2-x,1/2-y,1/2+z
1/2+y,1/2-x,1/2+z
1/2-x,1/2-y,1/2-z
1/2+y,1/2-x,1/2-z
1/2+x,1/2+y,1/2-z
1/2-y,1/2+x,1/2-z
loop_
_atom_site_type_symbol
_atom_site_label
_atom_site_fract_x
_atom_site_fract_y
_atom_site_fract_z
Si Si1 0.813565 0.692607 0.675193
Si Si2 0.881333 0.396056 0.333941
Si Si3 0.512459 0.726105 0.171953
Si Si4 0.358359 0.994102 0.336567
Si Si5 0.607919 0.285269 0.322089
Si Si6 0.369447 0.297117 0.676975
O O1 0.805695 0.703039 0.500000
O O2 0.868909 0.657741 0.710910
O O3 0.764365 0.650595 0.726957
O O4 0.826763 0.750632 0.757185
O O5 0.857980 0.387885 0.500000
O O6 0.940810 0.368144 0.325772
O O7 0.886880 0.460340 0.294354
O O8 0.515726 0.792873 0.173054
O O9 0.452517 0.713224 0.246162
O O10 0.569000 0.706479 0.252885
O O11 0.512647 0.707340 0.000000
O O12 0.378885 0.976057 0.500000
O O13 0.599917 0.277514 0.500000
O O14 0.643102 0.341220 0.296468
O O15 0.373157 0.288100 0.500000
#
# Coordination Sequence:
#
# PCOD9545920 Si02
#       6
#    16  16  16  16  16  16
#     4  11  21  35  57  86 119 152 190 238 289 340
#     4  11  22  36  56  79 108 151 196 242 290 337
#     4  11  22  38  61  87 117 153 191 235 288 346
#     4  10  22  38  54  79 112 148 196 244 286 337
#     4  10  23  40  60  88 120 156 194 236 286 344
#     4  11  23  39  60  88 121 155 194 235 285 346
#
# _framework density 18.466566
#
# number of rings (size 3 to 8) (size 9 to 14) (size 15 to 20)
#    0.000    1.333    3.333    2.500    0.000    4.333 
#    0.000    1.667    0.000    0.500    0.000    3.500 
#    0.000    0.000    0.000    0.000    0.000    0.000 
#
# Total GULP energy -267749.925832 kJ/mol
# GULP energy per Si atom -5578.123455 kJ/mol
# Density = 1.842454 g / cm^3
# Si number density = 18.466566 Si / 1000 Ang^3
#
#
#
# Elastic Constant Matrix: (Units=GPa)
#
#
# Indices 1 2 3 4 5 6 
#
# 1 986.6418 -848.1681 47.3970 0.0000 0.0000 733.5369
# 2 -848.1681 986.6418 47.3970 0.0000 0.0000 -733.5369
# 3 47.3970 47.3970 76.3885 0.0000 0.0000 0.0000
# 4 0.0000 0.0000 0.0000 25.3880 0.0000 0.0000
# 5 0.0000 0.0000 0.0000 0.0000 25.3880 0.0000
# 6 733.5369 -733.5369 0.0000 0.0000 0.0000 629.1322
#
#
#
# Elastic Compliance Matrix: (Units=1/GPa)
#
#
# Indices 1 2 3 4 5 6 
#
# 1 0.010300 0.002254 -0.007789 0.000000 0.000000 -0.009382
# 2 0.002254 0.010300 -0.007789 0.000000 0.000000 0.009382
# 3 -0.007789 -0.007789 0.022757 0.000000 0.000000 0.000000
# 4 0.000000 0.000000 0.000000 0.039389 0.000000 0.000000
# 5 0.000000 0.000000 0.000000 0.000000 0.039389 0.000000
# 6 -0.009382 0.009382 0.000000 0.000000 0.000000 0.023467
#
#
# Mechanical properties :
#
#
# Convention : Reuss Voigt Hill
#
# Bulk Modulus (GPa) = 59.85329 60.32488 60.08909
# Shear Modulus (GPa) = 28.11801 322.85139 175.48470
#
# Velocity S-wave (km/s) = 3.90634 13.23668 9.75882
# Velocity P-wave (km/s) = 7.26829 16.32026 12.63288
#
# Compressibility (1/GPa) = 0.01670752
#
# Stress axis : x y z
#
# Youngs Moduli (GPa) = 97.08455 97.08455 43.94215
#
# Poissons Ratio (x) = -0.21879 0.34228
# Poissons Ratio (y) = -0.21879 0.34228
# Poissons Ratio (z) = 0.75623 0.75623
#
# Static dielectric constant tensor:
#      x y z
#    x 1.640290 0.000000 0.000000 
#    y 0.000000 1.640290 0.000000 
#    z 0.000000 0.000000 1.659920 
# 
# From -- ./inp_files/1366.got.cif
#   From: 2010.05.17/outbox.cif.g08.bks.cpg/sg87_1_cif.got.tgz:1366.got - 2010.06.03 19:07:00.
