data_PCOD9545865
_publ_section_title
;
Structure prediction by ZEFSAII (Michael W. Deem and Ramdas Pophale) SiO2 
 PCOD9545865
Probable space group: I 4/M
;
_chemical_formula_sum "Si O2"
_cell_formula_units_Z 112
_cell_length_a 15.496529
_cell_length_b 15.496529
_cell_length_c 21.947788
_cell_angle_alpha 90.000000
_cell_angle_beta 90.000000
_cell_angle_gamma 90.000000
_cell_volume 5270.594727
_symmetry_space_group_name_H-M "I 4/M"
_symmetry_group_IT_number 87
_symmetry_cell_setting 'tetragonal'
loop_
_space_group_symop_operation_xyz
x,y,z
-y,x,z
-x,-y,z
y,-x,z
-x,-y,-z
y,-x,-z
x,y,-z
-y,x,-z
1/2+x,1/2+y,1/2+z
1/2-y,1/2+x,1/2+z
1/2-x,1/2-y,1/2+z
1/2+y,1/2-x,1/2+z
1/2-x,1/2-y,1/2-z
1/2+y,1/2-x,1/2-z
1/2+x,1/2+y,1/2-z
1/2-y,1/2+x,1/2-z
loop_
_atom_site_type_symbol
_atom_site_label
_atom_site_fract_x
_atom_site_fract_y
_atom_site_fract_z
Si Si1 0.635266 0.930004 0.067156
Si Si2 0.635005 0.135076 0.931321
Si Si3 0.279014 0.305899 0.606816
Si Si4 0.524958 0.641157 0.929284
Si Si5 0.732035 0.335051 0.791708
Si Si6 0.603985 0.599185 0.293380
Si Si7 0.811958 0.479154 0.147862
O O1 0.726720 0.881154 0.073014
O O2 0.572033 0.890598 0.117105
O O3 0.641634 0.032036 0.073640
O O4 0.599462 0.911082 0.000000
O O5 0.731439 0.172625 0.929233
O O6 0.578199 0.167256 0.872926
O O7 0.599549 0.156286 0.000000
O O8 0.205592 0.253435 0.643456
O O9 0.344401 0.350966 0.654031
O O10 0.432686 0.595909 0.919374
O O11 0.534469 0.722145 0.886899
O O12 0.531007 0.666905 0.000000
O O13 0.750000 0.250000 0.750000
O O14 0.637287 0.363211 0.770873
O O15 0.791135 0.423631 0.789841
O O16 0.502487 0.617455 0.298114
#
# Coordination Sequence:
#
# PCOD9545865 Si02
#       7
#    16  16  16  16  16  16  16
#     4  10  21  38  58  86 127 169 213 261 313 387
#     4  11  23  37  60  95 129 169 216 262 325 401
#     4  10  21  39  61  88 121 167 208 265 322 386
#     4   9  19  33  49  79 125 166 200 242 300 374
#     4   9  22  40  58  85 116 155 206 259 319 379
#     4  10  21  38  63  89 116 152 207 271 325 383
#     4  11  22  35  60  86 122 163 212 261 319 382
#
# _framework density 21.249973000000001
#
# number of rings (size 3 to 8) (size 9 to 14) (size 15 to 20)
#    0.000    2.000    0.000    3.429    6.000    1.143 
#    0.000    1.429    0.000    0.000    0.000    6.000 
#    0.000    0.000    0.000    0.000    0.000    0.000 
#
# Total GULP energy -312065.731244 kJ/mol
# GULP energy per Si atom -5572.602344 kJ/mol
# Density = 2.120161 g / cm^3
# Si number density = 21.249973 Si / 1000 Ang^3
#
#
#
# Elastic Constant Matrix: (Units=GPa)
#
#
# Indices 1 2 3 4 5 6 
#
# 1 90.8125 40.9654 19.2496 0.0000 0.0000 -9.5530
# 2 40.9654 90.8125 19.2496 0.0000 0.0000 9.5530
# 3 19.2496 19.2496 42.0267 0.0000 0.0000 0.0000
# 4 0.0000 0.0000 0.0000 6.9364 0.0000 0.0000
# 5 0.0000 0.0000 0.0000 0.0000 6.9364 0.0000
# 6 -9.5530 9.5530 0.0000 0.0000 0.0000 32.0267
#
#
#
# Elastic Compliance Matrix: (Units=1/GPa)
#
#
# Indices 1 2 3 4 5 6 
#
# 1 0.015706 -0.006945 -0.004013 0.000000 0.000000 0.006756
# 2 -0.006945 0.015706 -0.004013 0.000000 0.000000 -0.006756
# 3 -0.004013 -0.004013 0.027470 0.000000 0.000000 0.000000
# 4 0.000000 0.000000 0.000000 0.144167 0.000000 0.000000
# 5 0.000000 0.000000 0.000000 0.000000 0.144167 0.000000
# 6 0.006756 -0.006756 0.000000 0.000000 0.000000 0.035255
#
#
# Mechanical properties :
#
#
# Convention : Reuss Voigt Hill
#
# Bulk Modulus (GPa) = 34.55304 42.50899 38.53102
# Shear Modulus (GPa) = 11.84667 18.79236 15.31952
#
# Velocity S-wave (km/s) = 2.36369 2.97702 2.68791
# Velocity P-wave (km/s) = 4.87288 5.64487 5.27302
#
# Compressibility (1/GPa) = 0.02894102
#
# Stress axis : x y z
#
# Youngs Moduli (GPa) = 63.67012 63.67012 36.40290
#
# Poissons Ratio (x) = 0.44219 0.14608
# Poissons Ratio (y) = 0.44219 0.14608
# Poissons Ratio (z) = 0.25549 0.25549
#
# Static dielectric constant tensor:
#      x y z
#    x 1.782380 0.000000 0.000000 
#    y 0.000000 1.782380 0.000000 
#    z 0.000000 0.000000 1.842410 
# 
# From -- ./inp_files/5878.got.cif
#   From: 2010.05.17/outbox.cif.g08.bks.cpg/sg87_3_cif.got.tgz:5878.got - 2010.06.03 19:07:00.
