data_PCOD9545753
_publ_section_title
;
Structure prediction by ZEFSAII (Michael W. Deem and Ramdas Pophale) SiO2 
 PCOD9545753
Probable space group: I 4/M
;
_chemical_formula_sum "Si O2"
_cell_formula_units_Z 96
_cell_length_a 15.574174
_cell_length_b 15.574174
_cell_length_c 19.396006
_cell_angle_alpha 90.000000
_cell_angle_beta 90.000000
_cell_angle_gamma 90.000000
_cell_volume 4704.596214
_symmetry_space_group_name_H-M "I 4/M"
_symmetry_group_IT_number 87
_symmetry_cell_setting 'tetragonal'
loop_
_space_group_symop_operation_xyz
x,y,z
-y,x,z
-x,-y,z
y,-x,z
-x,-y,-z
y,-x,-z
x,y,-z
-y,x,-z
1/2+x,1/2+y,1/2+z
1/2-y,1/2+x,1/2+z
1/2-x,1/2-y,1/2+z
1/2+y,1/2-x,1/2+z
1/2-x,1/2-y,1/2-z
1/2+y,1/2-x,1/2-z
1/2+x,1/2+y,1/2-z
1/2-y,1/2+x,1/2-z
loop_
_atom_site_type_symbol
_atom_site_label
_atom_site_fract_x
_atom_site_fract_y
_atom_site_fract_z
Si Si1 0.038095 0.139656 0.078000
Si Si2 0.219831 0.856187 0.415870
Si Si3 0.967194 0.415507 0.611368
Si Si4 0.637826 0.134312 0.310000
Si Si5 0.543428 0.790377 0.685950
Si Si6 0.453517 0.723758 0.076460
O O1 0.052726 0.208303 0.137553
O O2 0.941875 0.101296 0.083461
O O3 0.047964 0.175969 0.000000
O O4 0.232207 0.852488 0.500000
O O5 0.307058 0.833474 0.375557
O O6 0.138333 0.800077 0.392971
O O7 0.196881 0.954471 0.394292
O O8 0.874559 0.434420 0.641615
O O9 0.961906 0.326020 0.573035
O O10 0.000000 0.500000 0.573298
O O11 0.040593 0.400980 0.669543
O O12 0.557025 0.195107 0.292685
O O13 0.702945 0.110235 0.248840
O O14 0.450544 0.685078 0.000000
#
# Coordination Sequence:
#
# PCOD9545753 Si02
#       6
#    16  16  16  16  16  16
#     4   9  21  44  67  87 118 158 203 257 309 361
#     4   9  19  36  56  79 114 156 197 245 295 350
#     4   9  19  33  54  79 112 153 191 231 294 351
#     4  10  20  36  57  85 121 155 195 242 298 354
#     4  11  20  36  62  88 115 158 198 243 300 366
#     4   9  18  34  54  79 112 148 192 241 290 350
#
# _framework density 20.405577000000001
#
# number of rings (size 3 to 8) (size 9 to 14) (size 15 to 20)
#    0.000    2.500    1.667    0.500    0.000    3.333 
#    6.000   10.000    0.000    0.000    0.000    0.000 
#    0.000    0.000    0.000    0.000    0.000    0.000 
#
# Total GULP energy -267358.171818 kJ/mol
# GULP energy per Si atom -5569.961913 kJ/mol
# Density = 2.035913 g / cm^3
# Si number density = 20.405577 Si / 1000 Ang^3
#
#
#
# Elastic Constant Matrix: (Units=GPa)
#
#
# Indices 1 2 3 4 5 6 
#
# 1 41.0626 10.1929 11.1784 0.0000 0.0000 1.1761
# 2 10.1929 41.0626 11.1784 0.0000 0.0000 -1.1761
# 3 11.1784 11.1784 76.5750 0.0000 0.0000 0.0000
# 4 0.0000 0.0000 0.0000 84.8447 0.0000 0.0000
# 5 0.0000 0.0000 0.0000 0.0000 84.8447 0.0000
# 6 1.1761 -1.1761 0.0000 0.0000 0.0000 18.7576
#
#
#
# Elastic Compliance Matrix: (Units=1/GPa)
#
#
# Indices 1 2 3 4 5 6 
#
# 1 0.026693 -0.005856 -0.003042 0.000000 0.000000 -0.002041
# 2 -0.005856 0.026693 -0.003042 0.000000 0.000000 0.002041
# 3 -0.003042 -0.003042 0.013947 0.000000 0.000000 0.000000
# 4 0.000000 0.000000 0.000000 0.011786 0.000000 0.000000
# 5 0.000000 0.000000 0.000000 0.000000 0.011786 0.000000
# 6 -0.002041 0.002041 0.000000 0.000000 0.000000 0.053568
#
#
# Mechanical properties :
#
#
# Convention : Reuss Voigt Hill
#
# Bulk Modulus (GPa) = 23.01292 24.86661 23.93976
# Shear Modulus (GPa) = 27.34658 46.09946 36.72302
#
# Velocity S-wave (km/s) = 3.66478 4.75822 4.24684
# Velocity P-wave (km/s) = 5.40460 6.51154 5.98372
#
# Compressibility (1/GPa) = 0.04345386
#
# Stress axis : x y z
#
# Youngs Moduli (GPa) = 37.46265 37.46265 71.69916
#
# Poissons Ratio (x) = 0.21940 0.21809
# Poissons Ratio (y) = 0.21940 0.21809
# Poissons Ratio (z) = 0.11395 0.11395
#
# Static dielectric constant tensor:
#      x y z
#    x 1.738820 0.000000 0.000000 
#    y 0.000000 1.738820 0.000000 
#    z 0.000000 0.000000 1.781330 
# 
# From -- ./inp_files/5314.got.cif
#   From: 2010.05.17/outbox.cif.g08.bks.cpg/sg87_3_cif.got.tgz:5314.got - 2010.06.03 19:07:00.
