data_PCOD9545892
_publ_section_title
;
Structure prediction by ZEFSAII (Michael W. Deem and Ramdas Pophale) SiO2 
 PCOD9545892
Probable space group: I 4/M
;
_chemical_formula_sum "Si O2"
_cell_formula_units_Z 104
_cell_length_a 14.801273
_cell_length_b 14.801273
_cell_length_c 16.621180
_cell_angle_alpha 90.000000
_cell_angle_beta 90.000000
_cell_angle_gamma 90.000000
_cell_volume 3641.329593
_symmetry_space_group_name_H-M "I 4/M"
_symmetry_group_IT_number 87
_symmetry_cell_setting 'tetragonal'
loop_
_space_group_symop_operation_xyz
x,y,z
-y,x,z
-x,-y,z
y,-x,z
-x,-y,-z
y,-x,-z
x,y,-z
-y,x,-z
1/2+x,1/2+y,1/2+z
1/2-y,1/2+x,1/2+z
1/2-x,1/2-y,1/2+z
1/2+y,1/2-x,1/2+z
1/2-x,1/2-y,1/2-z
1/2+y,1/2-x,1/2-z
1/2+x,1/2+y,1/2-z
1/2-y,1/2+x,1/2-z
loop_
_atom_site_type_symbol
_atom_site_label
_atom_site_fract_x
_atom_site_fract_y
_atom_site_fract_z
Si Si1 0.610371 0.925717 0.369355
Si Si2 0.619843 0.084258 0.500000
Si Si3 0.698429 0.026346 0.761742
Si Si4 0.725818 0.105162 0.000000
Si Si5 0.309388 0.216517 0.860582
Si Si6 0.113391 0.137371 0.171804
Si Si7 0.338168 0.418384 0.500000
Si Si8 0.108008 0.097162 0.641992
O O1 0.599668 0.007679 0.430011
O O2 0.689635 0.951039 0.306613
O O3 0.527453 0.892016 0.314395
O O4 0.623061 0.838746 0.425116
O O5 0.651129 0.155477 0.429971
O O6 0.788351 0.814583 0.831892
O O7 0.703515 0.119123 0.711734
O O8 0.808429 0.173883 0.000000
O O9 0.766865 0.002121 0.000000
O O10 0.326970 0.321458 0.884733
O O11 0.109779 0.082715 0.087334
O O12 0.107206 0.093260 0.260336
O O13 0.035788 0.215332 0.180573
O O14 0.005698 0.124206 0.614473
#
# Coordination Sequence:
#
# PCOD9545892 Si02
#       8
#    16   8  16   8  16  16   8  16
#     4  10  22  44  74 111 159 206 273 346 408 495
#     4   9  21  42  70 106 157 204 259 329 419 489
#     4  10  21  40  71 107 151 204 271 331 411 482
#     4  11  26  51  75 117 167 221 274 340 424 501
#     4  10  22  41  67 105 147 202 258 327 409 478
#     4  11  24  42  69 107 147 204 263 331 406 478
#     4  12  27  45  77 111 163 217 271 332 418 499
#     4  10  23  43  66  98 144 193 258 328 394 479
#
# _framework density 28.560997
#
# number of rings (size 3 to 8) (size 9 to 14) (size 15 to 20)
#    0.000    1.692    1.538    2.308    2.154    9.077 
#    0.000    3.846    0.000   11.077    0.000    0.000 
#    0.000    0.000    0.000    0.000    0.000    0.000 
#
# Total GULP energy -290013.833063 kJ/mol
# GULP energy per Si atom -5577.189097 kJ/mol
# Density = 2.849599 g / cm^3
# Si number density = 28.560997 Si / 1000 Ang^3
#
#
#
# Elastic Constant Matrix: (Units=GPa)
#
#
# Indices 1 2 3 4 5 6 
#
# 1 194.7637 77.7941 41.0783 0.0000 0.0000 -10.9994
# 2 77.7941 194.7637 41.0783 0.0000 0.0000 10.9994
# 3 41.0783 41.0783 146.8807 0.0000 0.0000 0.0000
# 4 0.0000 0.0000 0.0000 47.2363 0.0000 0.0000
# 5 0.0000 0.0000 0.0000 0.0000 47.2363 0.0000
# 6 -10.9994 10.9994 0.0000 0.0000 0.0000 37.4273
#
#
#
# Elastic Compliance Matrix: (Units=1/GPa)
#
#
# Indices 1 2 3 4 5 6 
#
# 1 0.006528 -0.002521 -0.001121 0.000000 0.000000 0.002660
# 2 -0.002521 0.006528 -0.001121 0.000000 0.000000 -0.002660
# 3 -0.001121 -0.001121 0.007435 0.000000 0.000000 0.000000
# 4 0.000000 0.000000 0.000000 0.021170 0.000000 0.000000
# 5 0.000000 0.000000 0.000000 0.000000 0.021170 0.000000
# 6 0.002660 -0.002660 0.000000 0.000000 0.000000 0.028282
#
#
# Mechanical properties :
#
#
# Convention : Reuss Voigt Hill
#
# Bulk Modulus (GPa) = 91.18927 95.14552 93.16740
# Shear Modulus (GPa) = 47.94164 51.47715 49.70939
#
# Velocity S-wave (km/s) = 4.10148 4.25002 4.17641
# Velocity P-wave (km/s) = 7.37745 7.58083 7.47983
#
# Compressibility (1/GPa) = 0.01096620
#
# Stress axis : x y z
#
# Youngs Moduli (GPa) = 153.18478 153.18479 134.49854
#
# Poissons Ratio (x) = 0.38623 0.15071
# Poissons Ratio (y) = 0.38623 0.15071
# Poissons Ratio (z) = 0.17165 0.17165
#
# Static dielectric constant tensor:
#      x y z
#    x 2.288630 0.000000 0.000000 
#    y 0.000000 2.288630 0.000000 
#    z 0.000000 0.000000 2.218250 
# 
# From -- ./inp_files/4561.got.cif
#   From: 2010.05.17/outbox.cif.g08.bks.cpg/sg87_3_cif.got.tgz:4561.got - 2010.06.03 19:07:00.
