data_PCOD9545116
_publ_section_title
;
Structure prediction by ZEFSAII (Michael W. Deem and Ramdas Pophale) SiO2 
 PCOD9545116
Probable space group: P 42/N
;
_chemical_formula_sum "Si O2"
_cell_formula_units_Z 40
_cell_length_a 16.039945
_cell_length_b 16.039945
_cell_length_c 6.806445
_cell_angle_alpha 90.000000
_cell_angle_beta 90.000000
_cell_angle_gamma 90.000000
_cell_volume 1751.161051
_symmetry_space_group_name_H-M "P 42/N"
_symmetry_group_IT_number 86
_space_group.IT_coordinate_system_code '2'
_symmetry_cell_setting 'tetragonal'
loop_
_space_group_symop_operation_xyz
x,y,z
-y,1/2+x,1/2+z
1/2-x,1/2-y,z
1/2+y,-x,1/2+z
-x,-y,-z
y,1/2-x,1/2-z
1/2+x,1/2+y,-z
1/2-y,x,1/2-z
loop_
_atom_site_type_symbol
_atom_site_label
_atom_site_fract_x
_atom_site_fract_y
_atom_site_fract_z
Si Si1 0.560943 0.189292 0.894754
Si Si2 0.703589 0.636226 0.341057
Si Si3 0.429973 0.649201 0.902079
Si Si4 0.941430 0.445884 0.219529
Si Si5 0.868137 0.555681 0.900830
O O1 0.463940 0.192042 0.821839
O O2 0.617500 0.141217 0.740873
O O3 0.593761 0.279575 0.945238
O O4 0.568256 0.139506 0.099690
O O5 0.661691 0.698797 0.178006
O O6 0.649986 0.654059 0.540730
O O7 0.506583 0.682630 0.765571
O O8 0.448653 0.575500 0.052641
O O9 0.038713 0.462174 0.179955
O O10 0.877983 0.509023 0.109936
#
# Coordination Sequence:
#
# PCOD9545116 Si02
#       5
#     8   8   8   8   8
#     4  10  24  41  65  99 133 183 238 280 345 410
#     4  10  21  40  66  98 138 172 210 279 350 413
#     4  11  22  41  67  95 134 181 232 290 338 402
#     4   9  19  37  61  93 128 168 218 274 328 402
#     4   9  19  37  64  95 125 169 221 263 338 416
#
# _framework density 22.841988000000001
#
# number of rings (size 3 to 8) (size 9 to 14) (size 15 to 20)
#    0.000    2.200    0.000    3.000    0.000    6.400 
#    0.000   11.000    0.000    0.000    0.000    0.000 
#    0.000    0.000    0.000    0.000    0.000    0.000 
#
# Total GULP energy -222884.031986 kJ/mol
# GULP energy per Si atom -5572.100800 kJ/mol
# Density = 2.279000 g / cm^3
# Si number density = 22.841988 Si / 1000 Ang^3
#
#
#
# Elastic Constant Matrix: (Units=GPa)
#
#
# Indices 1 2 3 4 5 6 
#
# 1 87.8780 40.6322 46.7735 0.0000 0.0000 5.5752
# 2 40.6322 87.8780 46.7735 0.0000 0.0000 -5.5752
# 3 46.7735 46.7735 134.7917 0.0000 0.0000 0.0000
# 4 0.0000 0.0000 0.0000 18.7441 0.0000 0.0000
# 5 0.0000 0.0000 0.0000 0.0000 18.7441 0.0000
# 6 5.5752 -5.5752 0.0000 0.0000 0.0000 24.8944
#
#
#
# Elastic Compliance Matrix: (Units=1/GPa)
#
#
# Indices 1 2 3 4 5 6 
#
# 1 0.016379 -0.005968 -0.003613 0.000000 0.000000 -0.005005
# 2 -0.005968 0.016379 -0.003613 0.000000 0.000000 0.005005
# 3 -0.003613 -0.003613 0.009926 0.000000 0.000000 0.000000
# 4 0.000000 0.000000 0.000000 0.053350 0.000000 0.000000
# 5 0.000000 0.000000 0.000000 0.000000 0.053350 0.000000
# 6 -0.005005 0.005005 0.000000 0.000000 0.000000 0.042411
#
#
# Mechanical properties :
#
#
# Convention : Reuss Voigt Hill
#
# Bulk Modulus (GPa) = 61.35835 64.32291 62.84063
# Shear Modulus (GPa) = 22.35979 24.23441 23.29710
#
# Velocity S-wave (km/s) = 3.13212 3.26077 3.19709
# Velocity P-wave (km/s) = 6.32460 6.51137 6.41866
#
# Compressibility (1/GPa) = 0.01629770
#
# Stress axis : x y z
#
# Youngs Moduli (GPa) = 61.05303 61.05303 100.74357
#
# Poissons Ratio (x) = 0.36435 0.36397
# Poissons Ratio (y) = 0.36435 0.36397
# Poissons Ratio (z) = 0.22057 0.22057
#
# Static dielectric constant tensor:
#      x y z
#    x 1.955460 0.000000 0.000000 
#    y 0.000000 1.955460 0.000000 
#    z 0.000000 0.000000 1.847680 
# 
# From -- ./inp_files/283.got.cif
#   From: 2010.05.17/outbox.cif.g08.bks.cpg/sg86_1_cif.got.tgz:283.got - 2010.06.03 19:03:11.
