data_PCOD9545456
_publ_section_title
;
Structure prediction by ZEFSAII (Michael W. Deem and Ramdas Pophale) SiO2 
 PCOD9545456
Probable space group: P 42/N
;
_chemical_formula_sum "Si O2"
_cell_formula_units_Z 18
_cell_length_a 5.482049
_cell_length_b 5.482049
_cell_length_c 24.385805
_cell_angle_alpha 90.000000
_cell_angle_beta 90.000000
_cell_angle_gamma 90.000000
_cell_volume 732.863214
_symmetry_space_group_name_H-M "P 42/N"
_symmetry_group_IT_number 86
_space_group.IT_coordinate_system_code '2'
_symmetry_cell_setting 'tetragonal'
loop_
_space_group_symop_operation_xyz
x,y,z
-y,1/2+x,1/2+z
1/2-x,1/2-y,z
1/2+y,-x,1/2+z
-x,-y,-z
y,1/2-x,1/2-z
1/2+x,1/2+y,-z
1/2-y,x,1/2-z
loop_
_atom_site_type_symbol
_atom_site_label
_atom_site_fract_x
_atom_site_fract_y
_atom_site_fract_z
Si Si1 0.500293 0.399041 0.061540
Si Si2 0.001192 0.113131 0.822452
Si Si3 0.250000 0.250000 0.250000
O O1 0.250000 0.250000 0.068276
O O2 0.504749 0.584496 0.111866
O O3 0.750000 0.250000 0.067721
O O4 0.500000 0.500000 0.000000
O O5 0.750000 0.250000 0.809603
O O6 0.250000 0.250000 0.807558
O O7 0.956884 0.858822 0.790603
#
# Coordination Sequence:
#
# PCOD9545456 Si02
#       3
#     8   8   2
#     4  12  24  46  76 114 158 202 265 339 414 501
#     4  12  29  51  81 116 161 214 274 341 419 498
#     4  12  32  52  76 116 168 208 288 328 418 508
#
# _framework density 24.561198999999998
#
# number of rings (size 3 to 8) (size 9 to 14) (size 15 to 20)
#    0.000    0.000    2.222    6.667    6.222    0.000 
#    0.000    0.000    0.000    0.000    0.000    0.000 
#    0.000    0.000    0.000    0.000    0.000    0.000 
#
# Total GULP energy -100872.777957 kJ/mol
# GULP energy per Si atom -5604.043220 kJ/mol
# Density = 2.450530 g / cm^3
# Si number density = 24.561199 Si / 1000 Ang^3
#
#
#
# Elastic Constant Matrix: (Units=GPa)
#
#
# Indices 1 2 3 4 5 6 
#
# 1 158.8089 71.2108 34.9988 0.0000 0.0000 4.1378
# 2 71.2108 158.8089 34.9988 0.0000 0.0000 -4.1378
# 3 34.9988 34.9988 194.5641 0.0000 0.0000 0.0000
# 4 0.0000 0.0000 0.0000 -63.6500 0.0000 0.0000
# 5 0.0000 0.0000 0.0000 0.0000 -63.6500 0.0000
# 6 4.1378 -4.1378 0.0000 0.0000 0.0000 67.8746
#
#
#
# Elastic Compliance Matrix: (Units=1/GPa)
#
#
# Indices 1 2 3 4 5 6 
#
# 1 0.008041 -0.003441 -0.000827 0.000000 0.000000 -0.000700
# 2 -0.003441 0.008041 -0.000827 0.000000 0.000000 0.000700
# 3 -0.000827 -0.000827 0.005437 0.000000 0.000000 0.000000
# 4 0.000000 0.000000 0.000000 -0.015711 0.000000 0.000000
# 5 0.000000 0.000000 0.000000 0.000000 -0.015711 0.000000
# 6 -0.000700 0.000700 0.000000 0.000000 0.000000 0.014818
#
#
# Mechanical properties :
#
#
# Convention : Reuss Voigt Hill
#
# Bulk Modulus (GPa) = 88.28864 88.28874 88.28869
# Shear Modulus (GPa) = 264.79612 12.84650 138.82131
#
# Velocity S-wave (km/s) = 10.39446 2.28949 7.52617
# Velocity P-wave (km/s) = 13.41954 6.55847 10.56167
#
# Compressibility (1/GPa) = 0.01132648
#
# Stress axis : x y z
#
# Youngs Moduli (GPa) = 124.36947 124.36947 183.91352
#
# Poissons Ratio (x) = 0.42800 0.15216
# Poissons Ratio (y) = 0.42800 0.15216
# Poissons Ratio (z) = 0.10289 0.10289
#
# Static dielectric constant tensor:
#      x y z
#    x 1.894410 0.000000 0.000000 
#    y 0.000000 1.894410 0.000000 
#    z 0.000000 0.000000 2.190460 
# 
# From -- ./inp_files/3714.got.cif
#   From: 2010.05.17/outbox.cif.g08.bks.cpg/sg86_2_cif.got.tgz:3714.got - 2010.06.03 19:03:11.
