data_PCOD9545446
_publ_section_title
;
Structure prediction by ZEFSAII (Michael W. Deem and Ramdas Pophale) SiO2 
 PCOD9545446
Probable space group: P 42/N
;
_chemical_formula_sum "Si O2"
_cell_formula_units_Z 40
_cell_length_a 11.706708
_cell_length_b 11.706708
_cell_length_c 12.609140
_cell_angle_alpha 90.000000
_cell_angle_beta 90.000000
_cell_angle_gamma 90.000000
_cell_volume 1728.044963
_symmetry_space_group_name_H-M "P 42/N"
_symmetry_group_IT_number 86
_space_group.IT_coordinate_system_code '2'
_symmetry_cell_setting 'tetragonal'
loop_
_space_group_symop_operation_xyz
x,y,z
-y,1/2+x,1/2+z
1/2-x,1/2-y,z
1/2+y,-x,1/2+z
-x,-y,-z
y,1/2-x,1/2-z
1/2+x,1/2+y,-z
1/2-y,x,1/2-z
loop_
_atom_site_type_symbol
_atom_site_label
_atom_site_fract_x
_atom_site_fract_y
_atom_site_fract_z
Si Si1 0.588510 0.349955 0.249731
Si Si2 0.250000 0.750000 0.597458
Si Si3 0.947031 0.312204 0.065561
Si Si4 0.492578 0.273240 0.635233
Si Si5 0.750000 0.750000 0.250000
Si Si6 0.326874 0.077095 0.082507
Si Si7 0.250000 0.250000 0.250000
O O1 0.646630 0.249669 0.319899
O O2 0.532489 0.287459 0.150588
O O3 0.678065 0.439227 0.202224
O O4 0.508382 0.397710 0.341449
O O5 0.265080 0.639134 0.524100
O O6 0.877260 0.416562 0.120767
O O7 0.071404 0.351401 0.027517
O O8 0.366149 0.282889 0.685602
O O9 0.472050 0.248251 0.509970
O O10 0.255454 0.145356 0.169207
#
# Coordination Sequence:
#
# PCOD9545446 Si02
#       7
#     8   4   8   8   2   8   2
#     4  12  23  45  73 106 140 182 246 304 363 435
#     4  12  22  42  72 108 138 176 240 306 350 440
#     4  12  23  42  75 103 133 186 239 303 361 425
#     4  12  25  46  68 104 141 189 237 299 360 436
#     4  12  30  44  64 102 156 196 242 292 372 450
#     4  12  26  45  70 102 143 191 235 295 372 435
#     4  12  26  48  68  94 152 192 238 296 360 434
#
# _framework density 23.147548
#
# number of rings (size 3 to 8) (size 9 to 14) (size 15 to 20)
#    0.000    0.000    8.000    2.400    2.800    0.000 
#    0.000    1.000    0.000    0.000    0.000    0.000 
#    0.000    0.000    0.000    0.000    0.000    0.000 
#
# Total GULP energy -223057.900368 kJ/mol
# GULP energy per Si atom -5576.447509 kJ/mol
# Density = 2.309486 g / cm^3
# Si number density = 23.147548 Si / 1000 Ang^3
#
#
#
# Elastic Constant Matrix: (Units=GPa)
#
#
# Indices 1 2 3 4 5 6 
#
# 1 74.8315 8.6081 43.0909 0.0000 0.0000 7.5139
# 2 8.6081 74.8315 43.0909 0.0000 0.0000 -7.5139
# 3 43.0909 43.0909 156.4486 0.0000 0.0000 0.0000
# 4 0.0000 0.0000 0.0000 22.4905 0.0000 0.0000
# 5 0.0000 0.0000 0.0000 0.0000 22.4905 0.0000
# 6 7.5139 -7.5139 0.0000 0.0000 0.0000 17.8795
#
#
#
# Elastic Compliance Matrix: (Units=1/GPa)
#
#
# Indices 1 2 3 4 5 6 
#
# 1 0.016721 0.000029 -0.004613 0.000000 0.000000 -0.007015
# 2 0.000029 0.016721 -0.004613 0.000000 0.000000 0.007015
# 3 -0.004613 -0.004613 0.008933 0.000000 0.000000 0.000000
# 4 0.000000 0.000000 0.000000 0.044463 0.000000 0.000000
# 5 0.000000 0.000000 0.000000 0.000000 0.044463 0.000000
# 6 -0.007015 0.007015 0.000000 0.000000 0.000000 0.061826
#
#
# Mechanical properties :
#
#
# Convention : Reuss Voigt Hill
#
# Bulk Modulus (GPa) = 41.70299 55.07680 48.38990
# Shear Modulus (GPa) = 22.77730 26.66023 24.71876
#
# Velocity S-wave (km/s) = 3.14029 3.39743 3.27139
# Velocity P-wave (km/s) = 5.58604 6.26382 5.93461
#
# Compressibility (1/GPa) = 0.02397910
#
# Stress axis : x y z
#
# Youngs Moduli (GPa) = 59.80500 59.80500 111.94148
#
# Poissons Ratio (x) = -0.00172 0.51643
# Poissons Ratio (y) = -0.00172 0.51643
# Poissons Ratio (z) = 0.27591 0.27591
#
# Static dielectric constant tensor:
#      x y z
#    x 2.006270 0.000000 0.000000 
#    y 0.000000 2.006270 0.000000 
#    z 0.000000 0.000000 1.847800 
# 
# From -- ./inp_files/2984.got.cif
#   From: 2010.05.17/outbox.cif.g08.bks.cpg/sg86_2_cif.got.tgz:2984.got - 2010.06.03 19:03:11.
