data_PCOD9545043
_publ_section_title
;
Structure prediction by ZEFSAII (Michael W. Deem and Ramdas Pophale) SiO2 
 PCOD9545043
Probable space group: P 42/N
;
_chemical_formula_sum "Si O2"
_cell_formula_units_Z 40
_cell_length_a 8.261407
_cell_length_b 8.261407
_cell_length_c 27.127707
_cell_angle_alpha 90.000000
_cell_angle_beta 90.000000
_cell_angle_gamma 90.000000
_cell_volume 1851.488942
_symmetry_space_group_name_H-M "P 42/N"
_symmetry_group_IT_number 86
_space_group.IT_coordinate_system_code '2'
_symmetry_cell_setting 'tetragonal'
loop_
_space_group_symop_operation_xyz
x,y,z
-y,1/2+x,1/2+z
1/2-x,1/2-y,z
1/2+y,-x,1/2+z
-x,-y,-z
y,1/2-x,1/2-z
1/2+x,1/2+y,-z
1/2-y,x,1/2-z
loop_
_atom_site_type_symbol
_atom_site_label
_atom_site_fract_x
_atom_site_fract_y
_atom_site_fract_z
Si Si1 0.063962 0.941469 0.258237
Si Si2 0.250000 0.250000 0.250000
Si Si3 0.250000 0.750000 0.839701
Si Si4 0.750000 0.250000 0.326592
Si Si5 0.250000 0.250000 0.750000
Si Si6 0.750000 0.250000 0.496809
Si Si7 0.991619 0.324658 0.580931
Si Si8 0.327203 0.514667 0.587520
O O1 0.153934 0.867389 0.304666
O O2 0.137240 0.862526 0.208089
O O3 0.878308 0.887877 0.266748
O O4 0.093450 0.132546 0.259459
O O5 0.350840 0.628965 0.873807
O O6 0.657377 0.371414 0.364580
O O7 0.617239 0.165220 0.531916
O O8 0.658680 0.374890 0.460981
O O9 0.145221 0.440845 0.584867
O O10 0.055272 0.139493 0.586046
#
# Coordination Sequence:
#
# PCOD9545043 Si02
#       8
#     8   2   4   4   2   4   8   8
#     4  11  26  45  70  98 144 186 238 278 352 398
#     4  12  28  48  68 108 140 186 236 308 340 392
#     4  10  24  42  62 100 134 182 234 292 336 420
#     4  10  24  42  62 100 134 182 234 292 336 420
#     4  12  28  48  76 100 132 210 244 276 332 448
#     4  10  20  42  60  94 128 162 228 286 352 414
#     4  10  22  38  65  93 129 176 226 284 355 427
#     4  10  22  38  65  93 129 176 226 284 355 427
#
# _framework density 21.604236
#
# number of rings (size 3 to 8) (size 9 to 14) (size 15 to 20)
#    0.000    1.600    0.000    3.600   11.200    0.000 
#    0.000    0.000    0.000    4.800    0.000    0.000 
#    0.000    0.000    0.000    0.000    0.000    0.000 
#
# Total GULP energy -222963.391099 kJ/mol
# GULP energy per Si atom -5574.084777 kJ/mol
# Density = 2.155506 g / cm^3
# Si number density = 21.604236 Si / 1000 Ang^3
#
#
#
# Elastic Constant Matrix: (Units=GPa)
#
#
# Indices 1 2 3 4 5 6 
#
# 1 89.9931 22.1411 27.1420 0.0000 0.0000 -4.8015
# 2 22.1411 89.9931 27.1420 0.0000 0.0000 4.8015
# 3 27.1420 27.1420 126.7974 0.0000 0.0000 0.0000
# 4 0.0000 0.0000 0.0000 68.6682 0.0000 0.0000
# 5 0.0000 0.0000 0.0000 0.0000 68.6682 0.0000
# 6 -4.8015 4.8015 0.0000 0.0000 0.0000 42.4579
#
#
#
# Elastic Compliance Matrix: (Units=1/GPa)
#
#
# Indices 1 2 3 4 5 6 
#
# 1 0.012463 -0.002514 -0.002130 0.000000 0.000000 0.001694
# 2 -0.002514 0.012463 -0.002130 0.000000 0.000000 -0.001694
# 3 -0.002130 -0.002130 0.008798 0.000000 0.000000 0.000000
# 4 0.000000 0.000000 0.000000 0.014563 0.000000 0.000000
# 5 0.000000 0.000000 0.000000 0.000000 0.014563 0.000000
# 6 0.001694 -0.001694 0.000000 0.000000 0.000000 0.023936
#
#
# Mechanical properties :
#
#
# Convention : Reuss Voigt Hill
#
# Bulk Modulus (GPa) = 49.56017 51.07040 50.31528
# Shear Modulus (GPa) = 46.70303 51.31609 49.00956
#
# Velocity S-wave (km/s) = 4.65451 4.87897 4.76806
# Velocity P-wave (km/s) = 7.20248 7.44510 7.32480
#
# Compressibility (1/GPa) = 0.02017749
#
# Stress axis : x y z
#
# Youngs Moduli (GPa) = 80.23582 80.23582 113.65803
#
# Poissons Ratio (x) = 0.20175 0.24205
# Poissons Ratio (y) = 0.20175 0.24205
# Poissons Ratio (z) = 0.17087 0.17087
#
# Static dielectric constant tensor:
#      x y z
#    x 1.794370 0.000000 0.000000 
#    y 0.000000 1.794370 0.000000 
#    z 0.000000 0.000000 1.781600 
# 
# From -- ./inp_files/4602.got.cif
#   From: 2010.05.17/outbox.cif.g08.bks.cpg/sg86_3_cif.got.tgz:4602.got - 2010.06.03 19:03:11.
