data_PCOD9545954
_publ_section_title
;
Structure prediction by ZEFSAII (Michael W. Deem and Ramdas Pophale) SiO2 
 PCOD9545954
Probable space group: I 4/M
;
_chemical_formula_sum "Si O2"
_cell_formula_units_Z 88
_cell_length_a 16.257059
_cell_length_b 16.257059
_cell_length_c 15.093364
_cell_angle_alpha 90.000000
_cell_angle_beta 90.000000
_cell_angle_gamma 90.000000
_cell_volume 3989.054865
_symmetry_space_group_name_H-M "I 4/M"
_symmetry_group_IT_number 87
_symmetry_cell_setting 'tetragonal'
loop_
_space_group_symop_operation_xyz
x,y,z
-y,x,z
-x,-y,z
y,-x,z
-x,-y,-z
y,-x,-z
x,y,-z
-y,x,-z
1/2+x,1/2+y,1/2+z
1/2-y,1/2+x,1/2+z
1/2-x,1/2-y,1/2+z
1/2+y,1/2-x,1/2+z
1/2-x,1/2-y,1/2-z
1/2+y,1/2-x,1/2-z
1/2+x,1/2+y,1/2-z
1/2-y,1/2+x,1/2-z
loop_
_atom_site_type_symbol
_atom_site_label
_atom_site_fract_x
_atom_site_fract_y
_atom_site_fract_z
Si Si1 0.873665 0.063721 0.000000
Si Si2 0.348931 0.219338 0.844446
Si Si3 0.248288 0.470277 0.099728
Si Si4 0.169845 0.192501 0.154737
Si Si5 0.876827 0.940958 0.268485
Si Si6 0.437577 0.884269 0.749356
O O1 0.821820 0.098760 0.916724
O O2 0.965696 0.106684 0.000000
O O3 0.429777 0.251911 0.893297
O O4 0.256232 0.228942 0.880491
O O5 0.349848 0.255636 0.743732
O O6 0.360757 0.122263 0.830141
O O7 0.333272 0.432934 0.136927
O O8 0.180288 0.442380 0.170812
O O9 0.230630 0.445917 0.000000
O O10 0.181123 0.100494 0.195806
O O11 0.963575 0.895983 0.257568
O O12 0.598418 0.029279 0.783765
#
# Coordination Sequence:
#
# PCOD9545954 Si02
#       6
#     8  16  16  16  16  16
#     4  11  26  42  66 104 140 174 229 290 334 412
#     4  10  22  41  67  91 127 178 218 268 342 401
#     4  11  23  40  64  99 132 170 221 280 329 400
#     4  11  22  42  66  96 129 175 222 273 337 399
#     4  11  22  40  65  94 133 180 218 265 335 409
#     4   9  19  39  64  90 125 169 219 271 335 404
#
# _framework density 22.060365000000001
#
# number of rings (size 3 to 8) (size 9 to 14) (size 15 to 20)
#    0.000    1.545    3.636    1.091    1.273    2.182 
#    1.636    8.182    0.000    0.000    0.000    0.000 
#    0.000    0.000    0.000    0.000    0.000    0.000 
#
# Total GULP energy -245448.530870 kJ/mol
# GULP energy per Si atom -5578.375702 kJ/mol
# Density = 2.201015 g / cm^3
# Si number density = 22.060365 Si / 1000 Ang^3
#
#
#
# Elastic Constant Matrix: (Units=GPa)
#
#
# Indices 1 2 3 4 5 6 
#
# 1 60.8947 13.3448 2.0299 0.0000 0.0000 -11.2297
# 2 13.3448 60.8947 2.0299 0.0000 0.0000 11.2297
# 3 2.0299 2.0299 71.3352 0.0000 0.0000 0.0000
# 4 0.0000 0.0000 0.0000 19.2423 0.0000 0.0000
# 5 0.0000 0.0000 0.0000 0.0000 19.2423 0.0000
# 6 -11.2297 11.2297 0.0000 0.0000 0.0000 19.6224
#
#
#
# Elastic Compliance Matrix: (Units=1/GPa)
#
#
# Indices 1 2 3 4 5 6 
#
# 1 0.021156 -0.007665 -0.000384 0.000000 0.000000 0.016494
# 2 -0.007665 0.021156 -0.000384 0.000000 0.000000 -0.016494
# 3 -0.000384 -0.000384 0.014040 0.000000 0.000000 0.000000
# 4 0.000000 0.000000 0.000000 0.051969 0.000000 0.000000
# 5 0.000000 0.000000 0.000000 0.000000 0.051969 0.000000
# 6 0.016494 -0.016494 0.000000 0.000000 0.000000 0.069841
#
#
# Mechanical properties :
#
#
# Convention : Reuss Voigt Hill
#
# Bulk Modulus (GPa) = 25.32517 25.32598 25.32558
# Shear Modulus (GPa) = 19.21899 23.33607 21.27753
#
# Velocity S-wave (km/s) = 2.95481 3.25595 3.10903
# Velocity P-wave (km/s) = 4.81104 5.06362 4.93894
#
# Compressibility (1/GPa) = 0.03948641
#
# Stress axis : x y z
#
# Youngs Moduli (GPa) = 47.26763 47.26763 71.22418
#
# Poissons Ratio (x) = 0.36232 0.02734
# Poissons Ratio (y) = 0.36232 0.02734
# Poissons Ratio (z) = 0.01815 0.01815
#
# Static dielectric constant tensor:
#      x y z
#    x 1.869160 0.000000 0.000000 
#    y 0.000000 1.869160 0.000000 
#    z 0.000000 0.000000 1.789390 
# 
# From -- ./inp_files/3659.got.cif
#   From: 2010.05.17/outbox.cif.g08.bks.cpg/sg87_2_cif.got.tgz:3659.got - 2010.06.03 19:07:00.
