data_PCOD9545426
_publ_section_title
;
Structure prediction by ZEFSAII (Michael W. Deem and Ramdas Pophale) SiO2 
 PCOD9545426
Probable space group: P 42/N
;
_chemical_formula_sum "Si O2"
_cell_formula_units_Z 32
_cell_length_a 8.498424
_cell_length_b 8.498424
_cell_length_c 19.381645
_cell_angle_alpha 90.000000
_cell_angle_beta 90.000000
_cell_angle_gamma 90.000000
_cell_volume 1399.804626
_symmetry_space_group_name_H-M "P 42/N"
_symmetry_group_IT_number 86
_space_group.IT_coordinate_system_code '2'
_symmetry_cell_setting 'tetragonal'
loop_
_space_group_symop_operation_xyz
x,y,z
-y,1/2+x,1/2+z
1/2-x,1/2-y,z
1/2+y,-x,1/2+z
-x,-y,-z
y,1/2-x,1/2-z
1/2+x,1/2+y,-z
1/2-y,x,1/2-z
loop_
_atom_site_type_symbol
_atom_site_label
_atom_site_fract_x
_atom_site_fract_y
_atom_site_fract_z
Si Si1 0.550347 0.583782 0.738678
Si Si2 0.762649 0.575181 0.010302
Si Si3 0.603355 0.419408 0.402143
Si Si4 0.870844 0.601823 0.351511
O O1 0.535038 0.770841 0.747117
O O2 0.519938 0.555671 0.658570
O O3 0.432533 0.490516 0.789734
O O4 0.750000 0.750000 0.977769
O O5 0.641286 0.551919 0.073548
O O6 0.927964 0.590208 0.049732
O O7 0.776455 0.443639 0.952026
O O8 0.767993 0.444338 0.363207
O O9 0.750000 0.750000 0.337733
#
# Coordination Sequence:
#
# PCOD9545426 Si02
#       4
#     8   8   8   8
#     4  11  26  43  66 100 142 185 226 289 352 414
#     4   8  17  36  69  96 129 176 220 295 342 413
#     4   9  19  37  67  96 132 175 227 282 346 411
#     4   9  21  41  71 101 132 182 237 288 342 418
#
# _framework density 22.860334000000002
#
# number of rings (size 3 to 8) (size 9 to 14) (size 15 to 20)
#    0.000    3.250    0.000    0.000   10.500    2.000 
#    0.000    1.250   11.000    0.000    0.000    0.000 
#    0.000    0.000    0.000    0.000    0.000    0.000 
#
# Total GULP energy -178468.707355 kJ/mol
# GULP energy per Si atom -5577.147105 kJ/mol
# Density = 2.280830 g / cm^3
# Si number density = 22.860334 Si / 1000 Ang^3
#
#
#
# Elastic Constant Matrix: (Units=GPa)
#
#
# Indices 1 2 3 4 5 6 
#
# 1 56.0254 55.8353 43.0015 0.0000 0.0000 -3.1062
# 2 55.8353 56.0254 43.0015 0.0000 0.0000 3.1062
# 3 43.0015 43.0015 71.3541 0.0000 0.0000 0.0000
# 4 0.0000 0.0000 0.0000 104.0770 0.0000 0.0000
# 5 0.0000 0.0000 0.0000 0.0000 104.0770 0.0000
# 6 -3.1062 3.1062 0.0000 0.0000 0.0000 33.4856
#
#
#
# Elastic Compliance Matrix: (Units=1/GPa)
#
#
# Indices 1 2 3 4 5 6 
#
# 1 -1.286465 1.303123 -0.010039 0.000000 0.000000 -0.240215
# 2 1.303123 -1.286465 -0.010039 0.000000 0.000000 0.240215
# 3 -0.010039 -0.010039 0.026115 0.000000 0.000000 0.000000
# 4 0.000000 0.000000 0.000000 0.009608 0.000000 0.000000
# 5 0.000000 0.000000 0.000000 0.000000 0.009608 0.000000
# 6 -0.240215 0.240215 0.000000 0.000000 0.000000 -0.014702
#
#
# Mechanical properties :
#
#
# Convention : Reuss Voigt Hill
#
# Bulk Modulus (GPa) = 51.88117 51.89793 51.88955
# Shear Modulus (GPa) = -0.98001 51.09903 25.05951
#
# Velocity S-wave (km/s) = -0.65546 4.73299 3.31448
# Velocity P-wave (km/s) = 4.70864 7.25395 6.11519
#
# Compressibility (1/GPa) = 0.01927481
#
# Stress axis : x y z
#
# Youngs Moduli (GPa) = -0.77732 -0.77732 38.29284
#
# Poissons Ratio (x) = 1.01295 0.38442
# Poissons Ratio (y) = 1.01295 0.38442
# Poissons Ratio (z) = -0.00780 -0.00780
#
# Static dielectric constant tensor:
#      x y z
#    x 1.951700 0.000000 0.000000 
#    y 0.000000 1.951700 0.000000 
#    z 0.000000 0.000000 1.835960 
# 
# From -- ./inp_files/3809.got.cif
#   From: 2010.05.17/outbox.cif.g08.bks.cpg/sg86_2_cif.got.tgz:3809.got - 2010.06.03 19:03:11.
