data_PCOD9545364
_publ_section_title
;
Structure prediction by ZEFSAII (Michael W. Deem and Ramdas Pophale) SiO2 
 PCOD9545364
Probable space group: P 42/N
;
_chemical_formula_sum "Si O2"
_cell_formula_units_Z 40
_cell_length_a 9.188943
_cell_length_b 9.188943
_cell_length_c 22.573125
_cell_angle_alpha 90.000000
_cell_angle_beta 90.000000
_cell_angle_gamma 90.000000
_cell_volume 1905.999585
_symmetry_space_group_name_H-M "P 42/N"
_symmetry_group_IT_number 86
_space_group.IT_coordinate_system_code '2'
_symmetry_cell_setting 'tetragonal'
loop_
_space_group_symop_operation_xyz
x,y,z
-y,1/2+x,1/2+z
1/2-x,1/2-y,z
1/2+y,-x,1/2+z
-x,-y,-z
y,1/2-x,1/2-z
1/2+x,1/2+y,-z
1/2-y,x,1/2-z
loop_
_atom_site_type_symbol
_atom_site_label
_atom_site_fract_x
_atom_site_fract_y
_atom_site_fract_z
Si Si1 0.942521 0.404188 0.423909
Si Si2 0.593370 0.941689 0.307483
Si Si3 0.388059 0.063072 0.821878
Si Si4 0.928747 0.536723 0.935817
Si Si5 0.910119 0.197715 0.037814
O O1 0.926590 0.431966 0.354977
O O2 0.800858 0.414475 0.465960
O O3 0.003332 0.242456 0.435414
O O4 0.036176 0.545062 0.444223
O O5 0.764484 0.904103 0.310710
O O6 0.522957 0.784447 0.324867
O O7 0.554871 0.994944 0.241517
O O8 0.480180 0.026571 0.880276
O O9 0.963905 0.707781 0.933149
O O10 0.000000 0.500000 0.000000
O O11 0.750000 0.250000 0.055981
#
# Coordination Sequence:
#
# PCOD9545364 Si02
#       5
#     8   8   8   8   8
#     4  11  24  40  63  93 127 166 214 259 322 387
#     4   9  19  40  63  91 121 168 223 264 306 383
#     4   9  20  38  65  91 124 166 217 267 317 372
#     4  12  23  39  62  95 130 165 207 266 327 381
#     4  11  23  41  61  92 126 164 209 262 324 382
#
# _framework density 20.986362
#
# number of rings (size 3 to 8) (size 9 to 14) (size 15 to 20)
#    0.000    1.600    2.000    4.200    2.800    0.000 
#    3.600    0.000    0.000    0.000    0.000    0.000 
#    0.000    0.000    0.000    0.000    0.000    0.000 
#
# Total GULP energy -222793.544397 kJ/mol
# GULP energy per Si atom -5569.838610 kJ/mol
# Density = 2.093860 g / cm^3
# Si number density = 20.986362 Si / 1000 Ang^3
#
#
#
# Elastic Constant Matrix: (Units=GPa)
#
#
# Indices 1 2 3 4 5 6 
#
# 1 80.2293 27.6231 40.7761 0.0000 0.0000 5.1346
# 2 27.6231 80.2293 40.7761 0.0000 0.0000 -5.1346
# 3 40.7761 40.7761 169.6059 0.0000 0.0000 0.0000
# 4 0.0000 0.0000 0.0000 27.0619 0.0000 0.0000
# 5 0.0000 0.0000 0.0000 0.0000 27.0619 0.0000
# 6 5.1346 -5.1346 0.0000 0.0000 0.0000 30.5038
#
#
#
# Elastic Compliance Matrix: (Units=1/GPa)
#
#
# Indices 1 2 3 4 5 6 
#
# 1 0.015493 -0.004162 -0.002724 0.000000 0.000000 -0.003308
# 2 -0.004162 0.015493 -0.002724 0.000000 0.000000 0.003308
# 3 -0.002724 -0.002724 0.007206 0.000000 0.000000 0.000000
# 4 0.000000 0.000000 0.000000 0.036952 0.000000 0.000000
# 5 0.000000 0.000000 0.000000 0.000000 0.036952 0.000000
# 6 -0.003308 0.003308 0.000000 0.000000 0.000000 0.033897
#
#
# Mechanical properties :
#
#
# Convention : Reuss Voigt Hill
#
# Bulk Modulus (GPa) = 52.70826 60.93503 56.82164
# Shear Modulus (GPa) = 29.14792 31.65149 30.39970
#
# Velocity S-wave (km/s) = 3.73084 3.88776 3.81011
# Velocity P-wave (km/s) = 6.61278 7.01794 6.81837
#
# Compressibility (1/GPa) = 0.01897236
#
# Stress axis : x y z
#
# Youngs Moduli (GPa) = 64.54327 64.54327 138.77321
#
# Poissons Ratio (x) = 0.26860 0.37807
# Poissons Ratio (y) = 0.26860 0.37807
# Poissons Ratio (z) = 0.17584 0.17584
#
# Static dielectric constant tensor:
#      x y z
#    x 1.797030 0.000000 0.000000 
#    y 0.000000 1.797030 0.000000 
#    z 0.000000 0.000000 1.846380 
# 
# From -- ./inp_files/4489.got.cif
#   From: 2010.05.17/outbox.cif.g08.bks.cpg/sg86_3_cif.got.tgz:4489.got - 2010.06.03 19:03:11.
