data_PCOD9545956
_publ_section_title
;
Structure prediction by ZEFSAII (Michael W. Deem and Ramdas Pophale) SiO2 
 PCOD9545956
Probable space group: I 4/M
;
_chemical_formula_sum "Si O2"
_cell_formula_units_Z 84
_cell_length_a 17.685223
_cell_length_b 17.685223
_cell_length_c 13.034976
_cell_angle_alpha 90.000000
_cell_angle_beta 90.000000
_cell_angle_gamma 90.000000
_cell_volume 4076.911806
_symmetry_space_group_name_H-M "I 4/M"
_symmetry_group_IT_number 87
_symmetry_cell_setting 'tetragonal'
loop_
_space_group_symop_operation_xyz
x,y,z
-y,x,z
-x,-y,z
y,-x,z
-x,-y,-z
y,-x,-z
x,y,-z
-y,x,-z
1/2+x,1/2+y,1/2+z
1/2-y,1/2+x,1/2+z
1/2-x,1/2-y,1/2+z
1/2+y,1/2-x,1/2+z
1/2-x,1/2-y,1/2-z
1/2+y,1/2-x,1/2-z
1/2+x,1/2+y,1/2-z
1/2-y,1/2+x,1/2-z
loop_
_atom_site_type_symbol
_atom_site_label
_atom_site_fract_x
_atom_site_fract_y
_atom_site_fract_z
Si Si1 0.952969 0.118645 0.384542
Si Si2 0.260923 0.861053 0.184911
Si Si3 0.250040 0.471018 0.265238
Si Si4 0.000000 0.500000 0.750000
Si Si5 0.930560 0.375977 0.382309
Si Si6 0.823572 0.284366 0.117022
O O1 0.940222 0.150104 0.500000
O O2 0.937556 0.177420 0.294416
O O3 0.041194 0.094320 0.376987
O O4 0.342683 0.855495 0.130856
O O5 0.206615 0.801092 0.131376
O O6 0.275792 0.833970 0.302186
O O7 0.234548 0.947598 0.185900
O O8 0.187250 0.478992 0.176293
O O9 0.217389 0.410314 0.345163
O O10 0.055685 0.546473 0.677577
O O11 0.951676 0.382070 0.500000
O O12 0.815943 0.309139 0.000000
#
# Coordination Sequence:
#
# PCOD9545956 Si02
#       6
#    16  16  16   4  16  16
#     4   9  18  33  55  84 116 150 188 237 297 350
#     4  10  22  42  59  86 123 153 203 242 290 361
#     4  11  21  38  58  89 114 149 200 244 290 352
#     4  12  22  44  52  94 116 148 198 240 292 350
#     4  11  23  39  61  84 118 156 192 240 296 351
#     4  10  23  40  61  86 118 158 196 245 295 350
#
# _framework density 20.603829999999999
#
# number of rings (size 3 to 8) (size 9 to 14) (size 15 to 20)
#    0.000    1.714    1.905    3.143    0.000    3.048 
#    0.000    4.762    0.000    0.000    0.000    4.000 
#    0.000    0.000    0.000    0.000    0.000    0.000 
#
# Total GULP energy -234776.270365 kJ/mol
# GULP energy per Si atom -5589.911199 kJ/mol
# Density = 2.055693 g / cm^3
# Si number density = 20.603830 Si / 1000 Ang^3
#
#
#
# Elastic Constant Matrix: (Units=GPa)
#
#
# Indices 1 2 3 4 5 6 
#
# 1 50.5218 -23.9214 1.8838 0.0000 0.0000 2.6072
# 2 -23.9214 50.5218 1.8838 0.0000 0.0000 -2.6072
# 3 1.8838 1.8838 84.1944 0.0000 0.0000 0.0000
# 4 0.0000 0.0000 0.0000 11.4696 0.0000 0.0000
# 5 0.0000 0.0000 0.0000 0.0000 11.4696 0.0000
# 6 2.6072 -2.6072 0.0000 0.0000 0.0000 21.9440
#
#
#
# Elastic Compliance Matrix: (Units=1/GPa)
#
#
# Indices 1 2 3 4 5 6 
#
# 1 0.025629 0.012084 -0.000844 0.000000 0.000000 -0.001609
# 2 0.012084 0.025629 -0.000844 0.000000 0.000000 0.001609
# 3 -0.000844 -0.000844 0.011915 0.000000 0.000000 0.000000
# 4 0.000000 0.000000 0.000000 0.087187 0.000000 0.000000
# 5 0.000000 0.000000 0.000000 0.000000 0.087187 0.000000
# 6 -0.001609 0.001609 0.000000 0.000000 0.000000 0.045953
#
#
# Mechanical properties :
#
#
# Convention : Reuss Voigt Hill
#
# Bulk Modulus (GPa) = 11.90961 16.10335 14.00648
# Shear Modulus (GPa) = 17.20004 22.66944 19.93474
#
# Velocity S-wave (km/s) = 2.89242 3.32061 3.11388
# Velocity P-wave (km/s) = 4.11675 4.74706 4.44310
#
# Compressibility (1/GPa) = 0.08396579
#
# Stress axis : x y z
#
# Youngs Moduli (GPa) = 39.01773 39.01773 83.92757
#
# Poissons Ratio (x) = -0.47147 0.07082
# Poissons Ratio (y) = -0.47147 0.07082
# Poissons Ratio (z) = 0.03292 0.03292
#
# Static dielectric constant tensor:
#      x y z
#    x 1.744540 0.000000 0.000000 
#    y 0.000000 1.744540 0.000000 
#    z 0.000000 0.000000 1.711890 
# 
# From -- ./inp_files/2671.got.cif
#   From: 2010.05.17/outbox.cif.g08.bks.cpg/sg87_2_cif.got.tgz:2671.got - 2010.06.03 19:07:00.
