data_PCOD9545297
_publ_section_title
;
Structure prediction by ZEFSAII (Michael W. Deem and Ramdas Pophale) SiO2 
 PCOD9545297
Probable space group: P 42/N
;
_chemical_formula_sum "Si O2"
_cell_formula_units_Z 50
_cell_length_a 12.702866
_cell_length_b 12.702866
_cell_length_c 12.036073
_cell_angle_alpha 90.000000
_cell_angle_beta 90.000000
_cell_angle_gamma 90.000000
_cell_volume 1942.174496
_symmetry_space_group_name_H-M "P 42/N"
_symmetry_group_IT_number 86
_space_group.IT_coordinate_system_code '2'
_symmetry_cell_setting 'tetragonal'
loop_
_space_group_symop_operation_xyz
x,y,z
-y,1/2+x,1/2+z
1/2-x,1/2-y,z
1/2+y,-x,1/2+z
-x,-y,-z
y,1/2-x,1/2-z
1/2+x,1/2+y,-z
1/2-y,x,1/2-z
loop_
_atom_site_type_symbol
_atom_site_label
_atom_site_fract_x
_atom_site_fract_y
_atom_site_fract_z
Si Si1 0.034460 0.212749 0.156157
Si Si2 0.250000 0.250000 0.250000
Si Si3 0.152467 0.934105 0.543131
Si Si4 0.241868 0.499565 0.950389
Si Si5 0.735382 0.134034 0.253979
Si Si6 0.513486 0.125275 0.338436
Si Si7 0.832668 0.858879 0.321906
O O1 0.153177 0.255495 0.166201
O O2 0.993947 0.264761 0.269534
O O3 0.048662 0.087283 0.168045
O O4 0.977198 0.267637 0.052078
O O5 0.058857 0.865895 0.489473
O O6 0.209892 0.857085 0.627684
O O7 0.127877 0.029703 0.629080
O O8 0.279015 0.555778 0.837912
O O9 0.213497 0.379473 0.921671
O O10 0.334597 0.515535 0.036753
O O11 0.750000 0.250000 0.202212
O O12 0.620879 0.086628 0.284628
O O13 0.869736 0.790626 0.212641
#
# Coordination Sequence:
#
# PCOD9545297 Si02
#       7
#     8   2   8   8   8   8   8
#     4  10  24  44  72 110 148 194 260 317 389 474
#     4   8  20  40  68 100 150 192 236 304 392 462
#     4  12  26  47  79 111 154 213 253 331 404 480
#     4  12  27  48  79 110 157 211 259 329 401 487
#     4  12  27  51  72 107 155 204 272 319 392 473
#     4  11  26  46  76 111 148 207 261 324 394 478
#     4  11  27  47  74 116 158 194 255 325 403 481
#
# _framework density 25.744340999999999
#
# number of rings (size 3 to 8) (size 9 to 14) (size 15 to 20)
#    0.000    0.800    4.800    0.480   13.440    1.920 
#    0.000    0.000    0.000    0.000    0.000    0.000 
#    0.000    0.000    0.000    0.000    0.000    0.000 
#
# Total GULP energy -278829.096077 kJ/mol
# GULP energy per Si atom -5576.581922 kJ/mol
# Density = 2.568575 g / cm^3
# Si number density = 25.744341 Si / 1000 Ang^3
#
#
#
# Elastic Constant Matrix: (Units=GPa)
#
#
# Indices 1 2 3 4 5 6 
#
# 1 97.2064 19.2357 29.7702 0.0000 0.0000 4.3516
# 2 19.2357 97.2064 29.7702 0.0000 0.0000 -4.3516
# 3 29.7702 29.7702 115.9192 0.0000 0.0000 0.0000
# 4 0.0000 0.0000 0.0000 31.5725 0.0000 0.0000
# 5 0.0000 0.0000 0.0000 0.0000 31.5725 0.0000
# 6 4.3516 -4.3516 0.0000 0.0000 0.0000 32.8714
#
#
#
# Elastic Compliance Matrix: (Units=1/GPa)
#
#
# Indices 1 2 3 4 5 6 
#
# 1 0.011452 -0.001566 -0.002539 0.000000 0.000000 -0.001723
# 2 -0.001566 0.011452 -0.002539 0.000000 0.000000 0.001723
# 3 -0.002539 -0.002539 0.009931 0.000000 0.000000 0.000000
# 4 0.000000 0.000000 0.000000 0.031673 0.000000 0.000000
# 5 0.000000 0.000000 0.000000 0.000000 0.031673 0.000000
# 6 -0.001723 0.001723 0.000000 0.000000 0.000000 0.030878
#
#
# Mechanical properties :
#
#
# Convention : Reuss Voigt Hill
#
# Bulk Modulus (GPa) = 51.15777 51.98713 51.57245
# Shear Modulus (GPa) = 34.04558 34.64034 34.34296
#
# Velocity S-wave (km/s) = 3.64049 3.67216 3.65636
# Velocity P-wave (km/s) = 6.13070 6.18200 6.15640
#
# Compressibility (1/GPa) = 0.01954737
#
# Stress axis : x y z
#
# Youngs Moduli (GPa) = 87.32138 87.32138 100.69674
#
# Poissons Ratio (x) = 0.13672 0.25567
# Poissons Ratio (y) = 0.13672 0.25567
# Poissons Ratio (z) = 0.22171 0.22171
#
# Static dielectric constant tensor:
#      x y z
#    x 2.204750 0.000000 0.000000 
#    y 0.000000 2.204750 0.000000 
#    z 0.000000 0.000000 1.987210 
# 
# From -- ./inp_files/2314.got.cif
#   From: 2010.05.17/outbox.cif.g08.bks.cpg/sg86_2_cif.got.tgz:2314.got - 2010.06.03 19:03:11.
