data_PCOD9545661
_publ_section_title
;
Structure prediction by ZEFSAII (Michael W. Deem and Ramdas Pophale) SiO2 
 PCOD9545661
Probable space group: I 4/M
;
_chemical_formula_sum "Si O2"
_cell_formula_units_Z 64
_cell_length_a 19.598974
_cell_length_b 19.598974
_cell_length_c 8.997411
_cell_angle_alpha 90.000000
_cell_angle_beta 90.000000
_cell_angle_gamma 90.000000
_cell_volume 3456.083551
_symmetry_space_group_name_H-M "I 4/M"
_symmetry_group_IT_number 87
_symmetry_cell_setting 'tetragonal'
loop_
_space_group_symop_operation_xyz
x,y,z
-y,x,z
-x,-y,z
y,-x,z
-x,-y,-z
y,-x,-z
x,y,-z
-y,x,-z
1/2+x,1/2+y,1/2+z
1/2-y,1/2+x,1/2+z
1/2-x,1/2-y,1/2+z
1/2+y,1/2-x,1/2+z
1/2-x,1/2-y,1/2-z
1/2+y,1/2-x,1/2-z
1/2+x,1/2+y,1/2-z
1/2-y,1/2+x,1/2-z
loop_
_atom_site_type_symbol
_atom_site_label
_atom_site_fract_x
_atom_site_fract_y
_atom_site_fract_z
Si Si1 0.249598 0.859494 0.172605
Si Si2 0.908148 0.479924 0.166138
Si Si3 0.358641 0.763851 0.326974
Si Si4 0.003521 0.247749 0.670201
O O1 0.315874 0.825659 0.252040
O O2 0.191460 0.801380 0.181204
O O3 0.221364 0.929354 0.244752
O O4 0.266351 0.871950 0.000000
O O5 0.944831 0.432540 0.285996
O O6 0.828032 0.479623 0.167776
O O7 0.931336 0.461965 0.000000
O O8 0.370803 0.781026 0.500000
O O9 0.430070 0.744572 0.249483
O O10 0.999402 0.222833 0.500000
#
# Coordination Sequence:
#
# PCOD9545661 Si02
#       4
#    16  16  16  16
#     4  10  21  37  57  81 110 144 182 225 272 322
#     4  10  20  31  44  66  97 133 169 204 247 300
#     4  10  21  37  57  81 110 144 182 225 272 322
#     4  11  22  34  53  79 105 138 179 222 269 321
#
# _framework density 18.518070000000002
#
# number of rings (size 3 to 8) (size 9 to 14) (size 15 to 20)
#    0.000    1.750    0.000    5.250    0.000   11.000 
#    0.000    0.000    0.000    0.750    0.000    5.250 
#    0.000    0.000    0.000    0.000    0.000    0.000 
#
# Total GULP energy -178541.876938 kJ/mol
# GULP energy per Si atom -5579.433654 kJ/mol
# Density = 1.847592 g / cm^3
# Si number density = 18.518070 Si / 1000 Ang^3
#
#
#
# Elastic Constant Matrix: (Units=GPa)
#
#
# Indices 1 2 3 4 5 6 
#
# 1 81.4157 -3.6163 40.8529 0.0000 0.0000 -1.1405
# 2 -3.6163 81.4157 40.8529 0.0000 0.0000 1.1405
# 3 40.8529 40.8529 149.7128 0.0000 0.0000 0.0000
# 4 0.0000 0.0000 0.0000 26.2858 0.0000 0.0000
# 5 0.0000 0.0000 0.0000 0.0000 26.2858 0.0000
# 6 -1.1405 1.1405 0.0000 0.0000 0.0000 15.3805
#
#
#
# Elastic Compliance Matrix: (Units=1/GPa)
#
#
# Indices 1 2 3 4 5 6 
#
# 1 0.014900 0.003116 -0.004916 0.000000 0.000000 0.000874
# 2 0.003116 0.014900 -0.004916 0.000000 0.000000 -0.000874
# 3 -0.004916 -0.004916 0.009363 0.000000 0.000000 0.000000
# 4 0.000000 0.000000 0.000000 0.038043 0.000000 0.000000
# 5 0.000000 0.000000 0.000000 0.000000 0.038043 0.000000
# 6 0.000874 -0.000874 0.000000 0.000000 0.000000 0.065147
#
#
# Mechanical properties :
#
#
# Convention : Reuss Voigt Hill
#
# Bulk Modulus (GPa) = 38.86405 52.08035 45.47220
# Shear Modulus (GPa) = 24.70287 29.22075 26.96181
#
# Velocity S-wave (km/s) = 3.65634 3.97666 3.81986
# Velocity P-wave (km/s) = 6.23360 7.01928 6.63807
#
# Compressibility (1/GPa) = 0.02573072
#
# Stress axis : x y z
#
# Youngs Moduli (GPa) = 67.11313 67.11313 106.80875
#
# Poissons Ratio (x) = -0.20916 0.52510
# Poissons Ratio (y) = -0.20916 0.52510
# Poissons Ratio (z) = 0.32995 0.32995
#
# Static dielectric constant tensor:
#      x y z
#    x 1.652590 0.000000 0.000000 
#    y 0.000000 1.652590 0.000000 
#    z 0.000000 0.000000 1.688150 
# 
# From -- ./inp_files/960.got.cif
#   From: 2010.05.17/outbox.cif.g08.bks.cpg/sg87_1_cif.got.tgz:960.got - 2010.06.03 19:07:00.
