data_PCOD9545973
_publ_section_title
;
Structure prediction by ZEFSAII (Michael W. Deem and Ramdas Pophale) SiO2 
 PCOD9545973
Probable space group: I 4/M
;
_chemical_formula_sum "Si O2"
_cell_formula_units_Z 96
_cell_length_a 15.185275
_cell_length_b 15.185275
_cell_length_c 20.993601
_cell_angle_alpha 90.000000
_cell_angle_beta 90.000000
_cell_angle_gamma 90.000000
_cell_volume 4840.968551
_symmetry_space_group_name_H-M "I 4/M"
_symmetry_group_IT_number 87
_symmetry_cell_setting 'tetragonal'
loop_
_space_group_symop_operation_xyz
x,y,z
-y,x,z
-x,-y,z
y,-x,z
-x,-y,-z
y,-x,-z
x,y,-z
-y,x,-z
1/2+x,1/2+y,1/2+z
1/2-y,1/2+x,1/2+z
1/2-x,1/2-y,1/2+z
1/2+y,1/2-x,1/2+z
1/2-x,1/2-y,1/2-z
1/2+y,1/2-x,1/2-z
1/2+x,1/2+y,1/2-z
1/2-y,1/2+x,1/2-z
loop_
_atom_site_type_symbol
_atom_site_label
_atom_site_fract_x
_atom_site_fract_y
_atom_site_fract_z
Si Si1 0.697768 0.857579 0.616135
Si Si2 0.639185 0.533799 0.922994
Si Si3 0.107842 0.594295 0.253833
Si Si4 0.899419 0.724421 0.000000
Si Si5 0.726409 0.798264 0.183783
Si Si6 0.169290 0.079138 0.000000
Si Si7 0.565985 0.375388 0.353499
O O1 0.765923 0.935488 0.601259
O O2 0.644863 0.873163 0.680855
O O3 0.629323 0.832263 0.561038
O O4 0.757494 0.770893 0.628231
O O5 0.562358 0.603173 0.903424
O O6 0.642184 0.534739 0.000000
O O7 0.116057 0.491699 0.264593
O O8 0.167965 0.628821 0.196462
O O9 0.837904 0.813347 0.000000
O O10 0.002845 0.753745 0.000000
O O11 0.750000 0.750000 0.250000
O O12 0.791871 0.880282 0.171504
O O13 0.126898 0.062094 0.069349
O O14 0.616238 0.464542 0.332644
#
# Coordination Sequence:
#
# PCOD9545973 Si02
#       7
#    16  16  16   8  16   8  16
#     4  11  22  40  63  94 125 157 211 252 313 374
#     4   9  19  37  63  94 127 160 195 254 323 372
#     4  10  25  44  64  82 114 169 214 255 301 365
#     4  12  24  35  60  98 128 171 193 254 317 368
#     4  10  23  38  58  82 117 159 206 251 303 359
#     4  12  20  33  56  90 136 156 198 233 305 388
#     4  11  21  35  59  90 126 161 196 248 311 378
#
# _framework density 19.830742999999998
#
# number of rings (size 3 to 8) (size 9 to 14) (size 15 to 20)
#    0.000    1.500    4.167    0.500    9.333    0.833 
#    0.000    0.000    0.000   11.000    0.000    0.000 
#    0.000    0.000    0.000    0.000    0.000    0.000 
#
# Total GULP energy -267465.402325 kJ/mol
# GULP energy per Si atom -5572.195882 kJ/mol
# Density = 1.978561 g / cm^3
# Si number density = 19.830743 Si / 1000 Ang^3
#
#
#
# Elastic Constant Matrix: (Units=GPa)
#
#
# Indices 1 2 3 4 5 6 
#
# 1 -3.7310 67.3529 16.8955 0.0000 0.0000 -13.3645
# 2 67.3529 -3.7310 16.8955 0.0000 0.0000 13.3645
# 3 16.8955 16.8955 51.2905 0.0000 0.0000 0.0000
# 4 0.0000 0.0000 0.0000 19.1051 0.0000 0.0000
# 5 0.0000 0.0000 0.0000 0.0000 19.1051 0.0000
# 6 -13.3645 13.3645 0.0000 0.0000 0.0000 31.4082
#
#
#
# Elastic Compliance Matrix: (Units=1/GPa)
#
#
# Indices 1 2 3 4 5 6 
#
# 1 0.003462 0.015589 -0.006276 0.000000 0.000000 -0.005160
# 2 0.015589 0.003462 -0.006276 0.000000 0.000000 0.005160
# 3 -0.006276 -0.006276 0.023631 0.000000 0.000000 0.000000
# 4 0.000000 0.000000 0.000000 0.052342 0.000000 0.000000
# 5 0.000000 0.000000 0.000000 0.000000 0.052342 0.000000
# 6 -0.005160 0.005160 0.000000 0.000000 0.000000 0.027447
#
#
# Mechanical properties :
#
#
# Convention : Reuss Voigt Hill
#
# Bulk Modulus (GPa) = 27.29932 27.34626 27.32279
# Shear Modulus (GPa) = 29.61731 10.10264 19.85998
#
# Velocity S-wave (km/s) = 3.86878 2.25953 3.16804
# Velocity P-wave (km/s) = 5.80970 4.54171 5.21439
#
# Compressibility (1/GPa) = 0.03663095
#
# Stress axis : x y z
#
# Youngs Moduli (GPa) = 288.87228 288.87227 42.31690
#
# Poissons Ratio (x) = -4.50329 0.26556
# Poissons Ratio (y) = -4.50329 0.26556
# Poissons Ratio (z) = 1.81283 1.81283
#
# Static dielectric constant tensor:
#      x y z
#    x 1.716230 0.000000 0.000000 
#    y 0.000000 1.716230 0.000000 
#    z 0.000000 0.000000 1.783910 
# 
# From -- ./inp_files/5358.got.cif
#   From: 2010.05.17/outbox.cif.g08.bks.cpg/sg87_3_cif.got.tgz:5358.got - 2010.06.03 19:07:00.
