data_PCOD9545832
_publ_section_title
;
Structure prediction by ZEFSAII (Michael W. Deem and Ramdas Pophale) SiO2 
 PCOD9545832
Probable space group: I 4/M
;
_chemical_formula_sum "Si O2"
_cell_formula_units_Z 60
_cell_length_a 15.477754
_cell_length_b 15.477754
_cell_length_c 13.181161
_cell_angle_alpha 90.000000
_cell_angle_beta 90.000000
_cell_angle_gamma 90.000000
_cell_volume 3157.690382
_symmetry_space_group_name_H-M "I 4/M"
_symmetry_group_IT_number 87
_symmetry_cell_setting 'tetragonal'
loop_
_space_group_symop_operation_xyz
x,y,z
-y,x,z
-x,-y,z
y,-x,z
-x,-y,-z
y,-x,-z
x,y,-z
-y,x,-z
1/2+x,1/2+y,1/2+z
1/2-y,1/2+x,1/2+z
1/2-x,1/2-y,1/2+z
1/2+y,1/2-x,1/2+z
1/2-x,1/2-y,1/2-z
1/2+y,1/2-x,1/2-z
1/2+x,1/2+y,1/2-z
1/2-y,1/2+x,1/2-z
loop_
_atom_site_type_symbol
_atom_site_label
_atom_site_fract_x
_atom_site_fract_y
_atom_site_fract_z
Si Si1 0.000000 0.500000 0.250000
Si Si2 0.201274 0.755963 0.617241
Si Si3 0.885992 0.914476 0.000000
Si Si4 0.263537 0.385513 0.316653
Si Si5 0.658165 0.053660 0.119654
O O1 0.049762 0.432337 0.178703
O O2 0.184748 0.777655 0.500000
O O3 0.297450 0.786701 0.649728
O O4 0.133327 0.789193 0.700751
O O5 0.195259 0.650862 0.626628
O O6 0.839990 0.885536 0.897965
O O7 0.982777 0.883044 0.000000
O O8 0.214435 0.475583 0.333233
O O9 0.648062 0.034557 0.000000
#
# Coordination Sequence:
#
# PCOD9545832 Si02
#       5
#     4  16   8  16  16
#     4  12  22  36  48  82 108 168 186 224 296 350
#     4  10  21  36  57  84 115 157 192 237 290 344
#     4  11  22  38  64  91 112 146 196 248 303 341
#     4  11  20  35  59  83 115 149 193 239 292 339
#     4  11  21  36  55  78 117 149 193 239 284 353
#
# _framework density 19.00123
#
# number of rings (size 3 to 8) (size 9 to 14) (size 15 to 20)
#    0.000    1.200    5.333    2.000    0.000    0.000 
#    0.000    0.000    2.933    4.800    0.000    1.867 
#    0.000    0.000    0.000    0.000    0.000    0.000 
#
# Total GULP energy -167351.696601 kJ/mol
# GULP energy per Si atom -5578.389887 kJ/mol
# Density = 1.895798 g / cm^3
# Si number density = 19.001230 Si / 1000 Ang^3
#
#
#
# Elastic Constant Matrix: (Units=GPa)
#
#
# Indices 1 2 3 4 5 6 
#
# 1 58.9262 -22.5815 19.3707 0.0000 0.0000 4.5876
# 2 -22.5815 58.9262 19.3707 0.0000 0.0000 -4.5876
# 3 19.3707 19.3707 173.8571 0.0000 0.0000 0.0000
# 4 0.0000 0.0000 0.0000 6.1494 0.0000 0.0000
# 5 0.0000 0.0000 0.0000 0.0000 6.1494 0.0000
# 6 4.5876 -4.5876 0.0000 0.0000 0.0000 24.5316
#
#
#
# Elastic Compliance Matrix: (Units=1/GPa)
#
#
# Indices 1 2 3 4 5 6 
#
# 1 0.021878 0.009345 -0.003479 0.000000 0.000000 -0.002344
# 2 0.009345 0.021878 -0.003479 0.000000 0.000000 0.002344
# 3 -0.003479 -0.003479 0.006527 0.000000 0.000000 0.000000
# 4 0.000000 0.000000 0.000000 0.162616 0.000000 0.000000
# 5 0.000000 0.000000 0.000000 0.000000 0.162616 0.000000
# 6 -0.002344 0.002344 0.000000 0.000000 0.000000 0.041640
#
#
# Mechanical properties :
#
#
# Convention : Reuss Voigt Hill
#
# Bulk Modulus (GPa) = 18.16297 36.00326 27.08311
# Shear Modulus (GPa) = 11.60814 25.73607 18.67211
#
# Velocity S-wave (km/s) = 2.47435 3.68427 3.13817
# Velocity P-wave (km/s) = 4.21222 6.08994 5.23594
#
# Compressibility (1/GPa) = 0.05505707
#
# Stress axis : x y z
#
# Youngs Moduli (GPa) = 45.70897 45.70897 153.20892
#
# Poissons Ratio (x) = -0.42715 0.53297
# Poissons Ratio (y) = -0.42715 0.53297
# Poissons Ratio (z) = 0.15901 0.15901
#
# Static dielectric constant tensor:
#      x y z
#    x 1.678360 0.000000 0.000000 
#    y 0.000000 1.678360 0.000000 
#    z 0.000000 0.000000 1.780990 
# 
# From -- ./inp_files/2359.got.cif
#   From: 2010.05.17/outbox.cif.g08.bks.cpg/sg87_2_cif.got.tgz:2359.got - 2010.06.03 19:07:00.
