data_PCOD9545233
_publ_section_title
;
Structure prediction by ZEFSAII (Michael W. Deem and Ramdas Pophale) SiO2 
 PCOD9545233
Probable space group: P 42/N
;
_chemical_formula_sum "Si O2"
_cell_formula_units_Z 34
_cell_length_a 7.495274
_cell_length_b 7.495274
_cell_length_c 23.310256
_cell_angle_alpha 90.000000
_cell_angle_beta 90.000000
_cell_angle_gamma 90.000000
_cell_volume 1309.549957
_symmetry_space_group_name_H-M "P 42/N"
_symmetry_group_IT_number 86
_space_group.IT_coordinate_system_code '2'
_symmetry_cell_setting 'tetragonal'
loop_
_space_group_symop_operation_xyz
x,y,z
-y,1/2+x,1/2+z
1/2-x,1/2-y,z
1/2+y,-x,1/2+z
-x,-y,-z
y,1/2-x,1/2-z
1/2+x,1/2+y,-z
1/2-y,x,1/2-z
loop_
_atom_site_type_symbol
_atom_site_label
_atom_site_fract_x
_atom_site_fract_y
_atom_site_fract_z
Si Si1 0.750000 0.750000 0.175485
Si Si2 0.250000 0.750000 0.023135
Si Si3 0.750000 0.750000 0.750000
Si Si4 0.525055 0.088290 0.325528
Si Si5 0.443844 0.328660 0.060225
Si Si6 0.963448 0.045175 0.380749
O O1 0.574689 0.642640 0.200169
O O2 0.643001 0.890233 0.137905
O O3 0.123908 0.628989 0.062469
O O4 0.393385 0.649342 0.983376
O O5 0.602751 0.654264 0.788833
O O6 0.490122 0.057081 0.393772
O O7 0.570324 0.302341 0.332136
O O8 0.250000 0.250000 0.036956
O O9 0.483862 0.165635 0.102906
#
# Coordination Sequence:
#
# PCOD9545233 Si02
#       6
#     4   4   2   8   8   8
#     4  12  24  44  76 110 156 181 244 335 374 458
#     4  12  22  36  70 106 162 202 246 306 384 448
#     4  12  24  56  90  96 144 210 256 332 408 474
#     4  11  24  49  79 106 145 195 261 318 390 464
#     4  10  23  41  66 102 144 206 258 299 366 463
#     4  11  23  44  66 110 155 202 253 309 372 473
#
# _framework density 25.963115999999999
#
# number of rings (size 3 to 8) (size 9 to 14) (size 15 to 20)
#    0.000    0.941    5.882    2.118    1.647    3.765 
#    0.000    5.882    0.000    0.000    0.000    0.000 
#    0.000    0.000    0.000    0.000    0.000    0.000 
#
# Total GULP energy -189513.242177 kJ/mol
# GULP energy per Si atom -5573.918888 kJ/mol
# Density = 2.590402 g / cm^3
# Si number density = 25.963116 Si / 1000 Ang^3
#
#
#
# Elastic Constant Matrix: (Units=GPa)
#
#
# Indices 1 2 3 4 5 6 
#
# 1 113.0346 22.4027 9.0159 0.0000 0.0000 -4.3199
# 2 22.4027 113.0346 9.0159 0.0000 0.0000 4.3199
# 3 9.0159 9.0159 86.1399 0.0000 0.0000 0.0000
# 4 0.0000 0.0000 0.0000 95.9357 0.0000 0.0000
# 5 0.0000 0.0000 0.0000 0.0000 95.9357 0.0000
# 6 -4.3199 4.3199 0.0000 0.0000 0.0000 55.7875
#
#
#
# Elastic Compliance Matrix: (Units=1/GPa)
#
#
# Indices 1 2 3 4 5 6 
#
# 1 0.009302 -0.001814 -0.000784 0.000000 0.000000 0.000861
# 2 -0.001814 0.009302 -0.000784 0.000000 0.000000 -0.000861
# 3 -0.000784 -0.000784 0.011773 0.000000 0.000000 0.000000
# 4 0.000000 0.000000 0.000000 0.010424 0.000000 0.000000
# 5 0.000000 0.000000 0.000000 0.000000 0.010424 0.000000
# 6 0.000861 -0.000861 0.000000 0.000000 0.000000 0.018058
#
#
# Mechanical properties :
#
#
# Convention : Reuss Voigt Hill
#
# Bulk Modulus (GPa) = 42.34802 43.67537 43.01170
# Shear Modulus (GPa) = 59.58310 67.65008 63.61659
#
# Velocity S-wave (km/s) = 4.79572 5.11007 4.95539
# Velocity P-wave (km/s) = 6.85649 7.18858 7.02450
#
# Compressibility (1/GPa) = 0.02361385
#
# Stress axis : x y z
#
# Youngs Moduli (GPa) = 107.50652 107.50652 84.93954
#
# Poissons Ratio (x) = 0.19501 0.06657
# Poissons Ratio (y) = 0.19501 0.06657
# Poissons Ratio (z) = 0.08426 0.08426
#
# Static dielectric constant tensor:
#      x y z
#    x 2.266960 0.000000 0.000000 
#    y 0.000000 2.266960 0.000000 
#    z 0.000000 0.000000 2.105010 
# 
# From -- ./inp_files/4416.got.cif
#   From: 2010.05.17/outbox.cif.g08.bks.cpg/sg86_3_cif.got.tgz:4416.got - 2010.06.03 19:03:11.
