data_PCOD9545145
_publ_section_title
;
Structure prediction by ZEFSAII (Michael W. Deem and Ramdas Pophale) SiO2 
 PCOD9545145
Probable space group: P 42/N
;
_chemical_formula_sum "Si O2"
_cell_formula_units_Z 54
_cell_length_a 14.372965
_cell_length_b 14.372965
_cell_length_c 11.876614
_cell_angle_alpha 90.000000
_cell_angle_beta 90.000000
_cell_angle_gamma 90.000000
_cell_volume 2453.496133
_symmetry_space_group_name_H-M "P 42/N"
_symmetry_group_IT_number 86
_space_group.IT_coordinate_system_code '2'
_symmetry_cell_setting 'tetragonal'
loop_
_space_group_symop_operation_xyz
x,y,z
-y,1/2+x,1/2+z
1/2-x,1/2-y,z
1/2+y,-x,1/2+z
-x,-y,-z
y,1/2-x,1/2-z
1/2+x,1/2+y,-z
1/2-y,x,1/2-z
loop_
_atom_site_type_symbol
_atom_site_label
_atom_site_fract_x
_atom_site_fract_y
_atom_site_fract_z
Si Si1 0.750000 0.750000 0.250000
Si Si2 0.867551 0.413258 0.912831
Si Si3 0.341889 0.187332 0.395692
Si Si4 0.750000 0.250000 0.806606
Si Si5 0.938323 0.583447 0.196169
Si Si6 0.380894 0.886035 0.828374
Si Si7 0.471286 0.269342 0.216720
Si Si8 0.090331 0.275986 0.623070
O O1 0.687478 0.692215 0.163655
O O2 0.804686 0.324615 0.881323
O O3 0.833230 0.485637 0.815842
O O4 0.978761 0.408554 0.893607
O O5 0.854553 0.423410 0.047241
O O6 0.250000 0.250000 0.417029
O O7 0.388239 0.214790 0.278257
O O8 0.320993 0.078473 0.385623
O O9 0.416973 0.205358 0.492898
O O10 0.831965 0.203105 0.732175
O O11 0.924677 0.475929 0.234999
O O12 0.834444 0.600149 0.145309
O O13 0.967455 0.659258 0.292108
O O14 0.457107 0.804974 0.831277
#
# Coordination Sequence:
#
# PCOD9545145 Si02
#       8
#     2   8   8   4   8   8   8   8
#     4   8  16  32  48  82 112 144 212 232 296 390
#     4  11  24  43  69  96 133 178 228 279 342 401
#     4  12  22  39  63  89 134 165 211 278 344 394
#     4  10  24  46  68  98 134 178 234 280 328 418
#     4  11  23  41  65  98 139 170 232 277 332 420
#     4  11  24  42  68  94 133 179 227 277 340 400
#     4  11  24  40  62  99 125 170 229 277 340 414
#     4  10  22  36  60  92 125 174 208 265 341 390
#
# _framework density 22.009408000000001
#
# number of rings (size 3 to 8) (size 9 to 14) (size 15 to 20)
#    0.000    1.185    2.222    3.556    2.074    1.185 
#    0.000    5.926    0.000    0.000    0.000    0.000 
#    0.000    0.000    0.000    0.000    0.000    0.000 
#
# Total GULP energy -300672.518710 kJ/mol
# GULP energy per Si atom -5568.009606 kJ/mol
# Density = 2.195931 g / cm^3
# Si number density = 22.009408 Si / 1000 Ang^3
#
#
#
# Elastic Constant Matrix: (Units=GPa)
#
#
# Indices 1 2 3 4 5 6 
#
# 1 94.2875 11.0076 16.5400 0.0000 0.0000 -2.7683
# 2 11.0076 94.2875 16.5400 0.0000 0.0000 2.7683
# 3 16.5400 16.5400 48.8481 0.0000 0.0000 0.0000
# 4 0.0000 0.0000 0.0000 4.3895 0.0000 0.0000
# 5 0.0000 0.0000 0.0000 0.0000 4.3895 0.0000
# 6 -2.7683 2.7683 0.0000 0.0000 0.0000 24.7068
#
#
#
# Elastic Compliance Matrix: (Units=1/GPa)
#
#
# Indices 1 2 3 4 5 6 
#
# 1 0.011363 -0.000735 -0.003599 0.000000 0.000000 0.001356
# 2 -0.000735 0.011363 -0.003599 0.000000 0.000000 -0.001356
# 3 -0.003599 -0.003599 0.022909 0.000000 0.000000 0.000000
# 4 0.000000 0.000000 0.000000 0.227814 0.000000 0.000000
# 5 0.000000 0.000000 0.000000 0.000000 0.227814 0.000000
# 6 0.001356 -0.001356 0.000000 0.000000 0.000000 0.040778
#
#
# Mechanical properties :
#
#
# Convention : Reuss Voigt Hill
#
# Bulk Modulus (GPa) = 33.59117 36.17759 34.88438
# Shear Modulus (GPa) = 8.80547 19.58620 14.19584
#
# Velocity S-wave (km/s) = 2.00236 2.98636 2.54242
# Velocity P-wave (km/s) = 4.54327 5.32580 4.95002
#
# Compressibility (1/GPa) = 0.02976973
#
# Stress axis : x y z
#
# Youngs Moduli (GPa) = 88.00693 88.00693 43.65180
#
# Poissons Ratio (x) = 0.06469 0.15708
# Poissons Ratio (y) = 0.06469 0.15708
# Poissons Ratio (z) = 0.31670 0.31670
#
# Static dielectric constant tensor:
#      x y z
#    x 1.938690 0.000000 0.000000 
#    y 0.000000 1.938690 0.000000 
#    z 0.000000 0.000000 1.859710 
# 
# From -- ./inp_files/2412.got.cif
#   From: 2010.05.17/outbox.cif.g08.bks.cpg/sg86_2_cif.got.tgz:2412.got - 2010.06.03 19:03:11.
