data_PCOD9545107
_publ_section_title
;
Structure prediction by ZEFSAII (Michael W. Deem and Ramdas Pophale) SiO2 
 PCOD9545107
Probable space group: P 42/N
;
_chemical_formula_sum "Si O2"
_cell_formula_units_Z 48
_cell_length_a 8.942511
_cell_length_b 8.942511
_cell_length_c 29.289266
_cell_angle_alpha 90.000000
_cell_angle_beta 90.000000
_cell_angle_gamma 90.000000
_cell_volume 2342.218756
_symmetry_space_group_name_H-M "P 42/N"
_symmetry_group_IT_number 86
_space_group.IT_coordinate_system_code '2'
_symmetry_cell_setting 'tetragonal'
loop_
_space_group_symop_operation_xyz
x,y,z
-y,1/2+x,1/2+z
1/2-x,1/2-y,z
1/2+y,-x,1/2+z
-x,-y,-z
y,1/2-x,1/2-z
1/2+x,1/2+y,-z
1/2-y,x,1/2-z
loop_
_atom_site_type_symbol
_atom_site_label
_atom_site_fract_x
_atom_site_fract_y
_atom_site_fract_z
Si Si1 0.086574 0.416384 0.852500
Si Si2 0.883993 0.033423 0.185480
Si Si3 0.771717 0.927206 0.628155
Si Si4 0.313605 0.587658 0.463175
Si Si5 0.730572 0.081632 0.280274
Si Si6 0.671778 0.592511 0.450663
O O1 0.262438 0.454575 0.847737
O O2 0.057411 0.314899 0.897037
O O3 0.987474 0.564618 0.858508
O O4 0.031846 0.337790 0.806927
O O5 0.780147 0.084751 0.227670
O O6 0.972362 0.158975 0.157816
O O7 0.010802 0.929261 0.208296
O O8 0.750000 0.750000 0.635207
O O9 0.756512 0.971082 0.574818
O O10 0.250000 0.750000 0.452953
O O11 0.493105 0.601282 0.458964
O O12 0.271777 0.530355 0.513543
O O13 0.750000 0.250000 0.298336
O O14 0.750000 0.750000 0.460193
#
# Coordination Sequence:
#
# PCOD9545107 Si02
#       6
#     8   8   8   8   8   8
#     4  11  23  42  65  92 132 173 223 275 341 402
#     4  12  24  43  67  92 130 176 224 277 337 411
#     4  11  23  43  67  96 131 176 222 282 340 406
#     4  10  22  40  65  94 132 174 223 274 342 414
#     4  12  25  41  62  96 127 169 224 274 332 403
#     4  10  21  39  62  94 126 169 221 277 333 403
#
# _framework density 20.493387999999999
#
# number of rings (size 3 to 8) (size 9 to 14) (size 15 to 20)
#    0.000    1.000    1.667    6.500    0.000    1.333 
#    0.000    6.667    0.000    0.000    0.000    0.000 
#    0.000    0.000    0.000    0.000    0.000    0.000 
#
# Total GULP energy -268167.843000 kJ/mol
# GULP energy per Si atom -5586.830063 kJ/mol
# Density = 2.044674 g / cm^3
# Si number density = 20.493388 Si / 1000 Ang^3
#
#
#
# Elastic Constant Matrix: (Units=GPa)
#
#
# Indices 1 2 3 4 5 6 
#
# 1 69.9955 10.6255 13.2295 0.0000 0.0000 2.5912
# 2 10.6255 69.9955 13.2295 0.0000 0.0000 -2.5912
# 3 13.2295 13.2295 107.0870 0.0000 0.0000 0.0000
# 4 0.0000 0.0000 0.0000 28.2771 0.0000 0.0000
# 5 0.0000 0.0000 0.0000 0.0000 28.2771 0.0000
# 6 2.5912 -2.5912 0.0000 0.0000 0.0000 34.8910
#
#
#
# Elastic Compliance Matrix: (Units=1/GPa)
#
#
# Indices 1 2 3 4 5 6 
#
# 1 0.014941 -0.002013 -0.001597 0.000000 0.000000 -0.001259
# 2 -0.002013 0.014941 -0.001597 0.000000 0.000000 0.001259
# 3 -0.001597 -0.001597 0.009733 0.000000 0.000000 0.000000
# 4 0.000000 0.000000 0.000000 0.035364 0.000000 0.000000
# 5 0.000000 0.000000 0.000000 0.000000 0.035364 0.000000
# 6 -0.001259 0.001259 0.000000 0.000000 0.000000 0.028848
#
#
# Mechanical properties :
#
#
# Convention : Reuss Voigt Hill
#
# Bulk Modulus (GPa) = 34.24643 35.69413 34.97028
# Shear Modulus (GPa) = 31.37990 32.28862 31.83426
#
# Velocity S-wave (km/s) = 3.91733 3.97364 3.94558
# Velocity P-wave (km/s) = 6.09982 6.20551 6.15289
#
# Compressibility (1/GPa) = 0.02920012
#
# Stress axis : x y z
#
# Youngs Moduli (GPa) = 66.93148 66.93148 102.74515
#
# Poissons Ratio (x) = 0.13472 0.16410
# Poissons Ratio (y) = 0.13472 0.16410
# Poissons Ratio (z) = 0.10690 0.10690
#
# Static dielectric constant tensor:
#      x y z
#    x 1.712460 0.000000 0.000000 
#    y 0.000000 1.712460 0.000000 
#    z 0.000000 0.000000 1.754010 
# 
# From -- ./inp_files/5156.got.cif
#   From: 2010.05.17/outbox.cif.g08.bks.cpg/sg86_3_cif.got.tgz:5156.got - 2010.06.03 19:03:11.
