data_PCOD9545682
_publ_section_title
;
Structure prediction by ZEFSAII (Michael W. Deem and Ramdas Pophale) SiO2 
 PCOD9545682
Probable space group: I 4/M
;
_chemical_formula_sum "Si O2"
_cell_formula_units_Z 100
_cell_length_a 16.475981
_cell_length_b 16.475981
_cell_length_c 22.895450
_cell_angle_alpha 90.000000
_cell_angle_beta 90.000000
_cell_angle_gamma 90.000000
_cell_volume 6215.151919
_symmetry_space_group_name_H-M "I 4/M"
_symmetry_group_IT_number 87
_symmetry_cell_setting 'tetragonal'
loop_
_space_group_symop_operation_xyz
x,y,z
-y,x,z
-x,-y,z
y,-x,z
-x,-y,-z
y,-x,-z
x,y,-z
-y,x,-z
1/2+x,1/2+y,1/2+z
1/2-y,1/2+x,1/2+z
1/2-x,1/2-y,1/2+z
1/2+y,1/2-x,1/2+z
1/2-x,1/2-y,1/2-z
1/2+y,1/2-x,1/2-z
1/2+x,1/2+y,1/2-z
1/2-y,1/2+x,1/2-z
loop_
_atom_site_type_symbol
_atom_site_label
_atom_site_fract_x
_atom_site_fract_y
_atom_site_fract_z
Si Si1 0.420265 0.291519 0.931990
Si Si2 0.975757 0.132333 0.761529
Si Si3 0.924963 0.605055 0.603857
Si Si4 0.000000 0.500000 0.500000
Si Si5 0.310568 0.023427 0.191982
Si Si6 0.365993 0.083743 0.318675
Si Si7 0.417882 0.689471 0.134430
O O1 0.411797 0.196335 0.918442
O O2 0.513151 0.311224 0.915120
O O3 0.363593 0.343887 0.889145
O O4 0.403813 0.308258 0.000000
O O5 0.970882 0.214201 0.799128
O O6 0.960397 0.156249 0.693588
O O7 0.063040 0.091268 0.772186
O O8 0.847185 0.575627 0.639607
O O9 0.947394 0.547071 0.550858
O O10 0.003249 0.604724 0.647129
O O11 0.347741 0.057185 0.252521
O O12 0.345903 0.932971 0.182159
O O13 0.281390 0.107810 0.349691
#
# Coordination Sequence:
#
# PCOD9545682 Si02
#       7
#    16  16  16   4  16  16  16
#     4  11  22  37  52  78 110 155 196 226 267 330
#     4  10  21  38  56  78 111 146 185 234 291 334
#     4  11  22  35  56  84 115 146 187 227 283 342
#     4  12  20  36  58  80 116 156 172 234 286 338
#     4  11  20  34  58  83 109 143 184 231 283 339
#     4  10  20  33  54  83 112 141 182 231 278 334
#     4  10  21  35  53  77 111 148 188 235 272 328
#
# _framework density 16.089711999999999
#
# number of rings (size 3 to 8) (size 9 to 14) (size 15 to 20)
#    0.000    1.440    5.600    0.480    0.000    1.600 
#    0.000    4.000    0.000    0.000    0.000    0.000 
#    0.000    1.280    0.000    0.000    0.000    0.000 
#
# Total GULP energy -278367.951179 kJ/mol
# GULP energy per Si atom -5567.359024 kJ/mol
# Density = 1.605309 g / cm^3
# Si number density = 16.089712 Si / 1000 Ang^3
#
#
#
# Elastic Constant Matrix: (Units=GPa)
#
#
# Indices 1 2 3 4 5 6 
#
# 1 82.3947 51.1735 41.7415 0.0000 0.0000 -1.7358
# 2 51.1735 82.3947 41.7415 0.0000 0.0000 1.7358
# 3 41.7415 41.7415 88.2102 0.0000 0.0000 0.0000
# 4 0.0000 0.0000 0.0000 18.2789 0.0000 0.0000
# 5 0.0000 0.0000 0.0000 0.0000 18.2789 0.0000
# 6 -1.7358 1.7358 0.0000 0.0000 0.0000 14.2081
#
#
#
# Elastic Compliance Matrix: (Units=1/GPa)
#
#
# Indices 1 2 3 4 5 6 
#
# 1 0.021551 -0.010920 -0.005031 0.000000 0.000000 0.003967
# 2 -0.010920 0.021551 -0.005031 0.000000 0.000000 -0.003967
# 3 -0.005031 -0.005031 0.016098 0.000000 0.000000 0.000000
# 4 0.000000 0.000000 0.000000 0.054708 0.000000 0.000000
# 5 0.000000 0.000000 0.000000 0.000000 0.054708 0.000000
# 6 0.003967 -0.003967 0.000000 0.000000 0.000000 0.071352
#
#
# Mechanical properties :
#
#
# Convention : Reuss Voigt Hill
#
# Bulk Modulus (GPa) = 58.01438 58.03470 58.02454
# Shear Modulus (GPa) = 17.38074 18.04272 17.71173
#
# Velocity S-wave (km/s) = 3.29027 3.35234 3.32145
# Velocity P-wave (km/s) = 7.11123 7.15066 7.13097
#
# Compressibility (1/GPa) = 0.01723710
#
# Stress axis : x y z
#
# Youngs Moduli (GPa) = 46.40188 46.40188 62.12086
#
# Poissons Ratio (x) = 0.50670 0.31251
# Poissons Ratio (y) = 0.50670 0.31251
# Poissons Ratio (z) = 0.23343 0.23343
#
# Static dielectric constant tensor:
#      x y z
#    x 1.538160 0.000000 0.000000 
#    y 0.000000 1.538160 0.000000 
#    z 0.000000 0.000000 1.515240 
# 
# From -- ./inp_files/5843.got.cif
#   From: 2010.05.17/outbox.cif.g08.bks.cpg/sg87_3_cif.got.tgz:5843.got - 2010.06.03 19:07:00.
