data_PCOD9545052
_publ_section_title
;
Structure prediction by ZEFSAII (Michael W. Deem and Ramdas Pophale) SiO2 
 PCOD9545052
Probable space group: P 42/N
;
_chemical_formula_sum "Si O2"
_cell_formula_units_Z 48
_cell_length_a 17.601796
_cell_length_b 17.601796
_cell_length_c 7.729235
_cell_angle_alpha 90.000000
_cell_angle_beta 90.000000
_cell_angle_gamma 90.000000
_cell_volume 2394.696495
_symmetry_space_group_name_H-M "P 42/N"
_symmetry_group_IT_number 86
_space_group.IT_coordinate_system_code '2'
_symmetry_cell_setting 'tetragonal'
loop_
_space_group_symop_operation_xyz
x,y,z
-y,1/2+x,1/2+z
1/2-x,1/2-y,z
1/2+y,-x,1/2+z
-x,-y,-z
y,1/2-x,1/2-z
1/2+x,1/2+y,-z
1/2-y,x,1/2-z
loop_
_atom_site_type_symbol
_atom_site_label
_atom_site_fract_x
_atom_site_fract_y
_atom_site_fract_z
Si Si1 0.750000 0.750000 0.250000
Si Si2 0.686776 0.995077 0.274196
Si Si3 0.046922 0.076847 0.454819
Si Si4 0.750000 0.750000 0.750000
Si Si5 0.750000 0.250000 0.433954
Si Si6 0.028015 0.922219 0.910095
Si Si7 0.122467 0.693155 0.314982
Si Si8 0.212818 0.123681 0.512720
O O1 0.803083 0.696724 0.134075
O O2 0.733242 0.929115 0.372747
O O3 0.635848 0.026234 0.431008
O O4 0.743782 0.058516 0.204878
O O5 0.635461 0.972616 0.109363
O O6 0.138742 0.075848 0.460398
O O7 0.022843 0.097673 0.258357
O O8 0.000000 0.000000 0.500000
O O9 0.749259 0.830115 0.645894
O O10 0.818579 0.291728 0.531021
O O11 0.705115 0.318196 0.340408
O O12 0.113247 0.919703 0.835381
O O13 0.000000 0.000000 0.000000
#
# Coordination Sequence:
#
# PCOD9545052 Si02
#       8
#     2   8   8   2   4   8   8   8
#     4  10  20  42  72  94 136 178 244 294 364 426
#     4  12  25  45  73 106 140 190 246 296 378 437
#     4  12  25  46  70 107 149 191 243 301 374 445
#     4  10  24  46  72 106 144 190 260 298 366 440
#     4  10  22  44  74 100 144 180 250 298 362 434
#     4  12  26  48  70 106 152 192 245 301 366 449
#     4  11  23  45  71 105 139 189 237 309 360 432
#     4  11  23  44  71 102 141 189 240 311 363 436
#
# _framework density 20.044293
#
# number of rings (size 3 to 8) (size 9 to 14) (size 15 to 20)
#    0.000    0.667    5.000    3.000    0.000    0.000 
#    9.000    0.000    0.000    0.000    0.000    0.000 
#    0.000    0.000    0.000    0.000    0.000    0.000 
#
# Total GULP energy -267418.291002 kJ/mol
# GULP energy per Si atom -5571.214396 kJ/mol
# Density = 1.999867 g / cm^3
# Si number density = 20.044293 Si / 1000 Ang^3
#
#
#
# Elastic Constant Matrix: (Units=GPa)
#
#
# Indices 1 2 3 4 5 6 
#
# 1 125.6427 55.6427 47.1418 0.0000 0.0000 -2.2793
# 2 55.6427 125.6427 47.1418 0.0000 0.0000 2.2793
# 3 47.1418 47.1418 119.1689 0.0000 0.0000 0.0000
# 4 0.0000 0.0000 0.0000 43.1604 0.0000 0.0000
# 5 0.0000 0.0000 0.0000 0.0000 43.1604 0.0000
# 6 -2.2793 2.2793 0.0000 0.0000 0.0000 29.1809
#
#
#
# Elastic Compliance Matrix: (Units=1/GPa)
#
#
# Indices 1 2 3 4 5 6 
#
# 1 0.010652 -0.003707 -0.002747 0.000000 0.000000 0.001122
# 2 -0.003707 0.010652 -0.002747 0.000000 0.000000 -0.001122
# 3 -0.002747 -0.002747 0.010565 0.000000 0.000000 0.000000
# 4 0.000000 0.000000 0.000000 0.023169 0.000000 0.000000
# 5 0.000000 0.000000 0.000000 0.000000 0.023169 0.000000
# 6 0.001122 -0.001122 0.000000 0.000000 0.000000 0.034444
#
#
# Mechanical properties :
#
#
# Convention : Reuss Voigt Hill
#
# Bulk Modulus (GPa) = 74.26285 74.47852 74.37069
# Shear Modulus (GPa) = 36.88850 37.80222 37.34536
#
# Velocity S-wave (km/s) = 4.29458 4.34745 4.32110
# Velocity P-wave (km/s) = 7.85628 7.90177 7.87906
#
# Compressibility (1/GPa) = 0.01346568
#
# Stress axis : x y z
#
# Youngs Moduli (GPa) = 93.88007 93.88007 94.65129
#
# Poissons Ratio (x) = 0.34800 0.26004
# Poissons Ratio (y) = 0.34800 0.26004
# Poissons Ratio (z) = 0.25792 0.25792
#
# Static dielectric constant tensor:
#      x y z
#    x 1.681800 0.000000 0.000000 
#    y 0.000000 1.681800 0.000000 
#    z 0.000000 0.000000 1.776070 
# 
# From -- ./inp_files/1386.got.cif
#   From: 2010.05.17/outbox.cif.g08.bks.cpg/sg86_1_cif.got.tgz:1386.got - 2010.06.03 19:03:11.
