data_PCOD9545927
_publ_section_title
;
Structure prediction by ZEFSAII (Michael W. Deem and Ramdas Pophale) SiO2 
 PCOD9545927
Probable space group: I 4/M
;
_chemical_formula_sum "Si O2"
_cell_formula_units_Z 88
_cell_length_a 14.686251
_cell_length_b 14.686251
_cell_length_c 20.138752
_cell_angle_alpha 90.000000
_cell_angle_beta 90.000000
_cell_angle_gamma 90.000000
_cell_volume 4343.646228
_symmetry_space_group_name_H-M "I 4/M"
_symmetry_group_IT_number 87
_symmetry_cell_setting 'tetragonal'
loop_
_space_group_symop_operation_xyz
x,y,z
-y,x,z
-x,-y,z
y,-x,z
-x,-y,-z
y,-x,-z
x,y,-z
-y,x,-z
1/2+x,1/2+y,1/2+z
1/2-y,1/2+x,1/2+z
1/2-x,1/2-y,1/2+z
1/2+y,1/2-x,1/2+z
1/2-x,1/2-y,1/2-z
1/2+y,1/2-x,1/2-z
1/2+x,1/2+y,1/2-z
1/2-y,1/2+x,1/2-z
loop_
_atom_site_type_symbol
_atom_site_label
_atom_site_fract_x
_atom_site_fract_y
_atom_site_fract_z
Si Si1 0.247124 0.362111 0.374582
Si Si2 0.364831 0.440265 0.735204
Si Si3 0.639893 0.550230 0.105361
Si Si4 0.001540 0.605751 0.920072
Si Si5 0.634670 0.571741 0.500000
Si Si6 0.197711 0.326305 0.923117
O O1 0.282725 0.396728 0.304181
O O2 0.151875 0.410023 0.388921
O O3 0.312059 0.400956 0.433387
O O4 0.254874 0.253942 0.381630
O O5 0.455377 0.384232 0.715678
O O6 0.355906 0.442657 0.814502
O O7 0.552866 0.612914 0.085942
O O8 0.735297 0.587119 0.079178
O O9 0.905085 0.651745 0.900469
O O10 0.000000 0.500000 0.903517
O O11 0.007699 0.614876 0.000000
O O12 0.536382 0.619047 0.500000
O O13 0.192286 0.296152 0.000000
#
# Coordination Sequence:
#
# PCOD9545927 Si02
#       6
#    16  16  16  16   8  16
#     4  12  21  35  58  86 120 153 199 242 291 366
#     4   9  18  35  60  88 117 152 190 240 305 364
#     4   9  21  41  62  86 116 148 201 261 303 349
#     4  10  22  39  57  82 123 165 197 242 303 362
#     4  11  20  30  51  84 122 147 179 242 298 346
#     4  11  23  37  61  88 116 158 208 247 299 365
#
# _framework density 20.259477
#
# number of rings (size 3 to 8) (size 9 to 14) (size 15 to 20)
#    0.000    1.727    1.818    4.364    2.545    2.909 
#    0.000    0.909    0.000    0.000    0.000    0.000 
#    0.000    0.000    0.000    0.000    0.000    0.000 
#
# Total GULP energy -245861.742443 kJ/mol
# GULP energy per Si atom -5587.766874 kJ/mol
# Density = 2.021337 g / cm^3
# Si number density = 20.259477 Si / 1000 Ang^3
#
#
#
# Elastic Constant Matrix: (Units=GPa)
#
#
# Indices 1 2 3 4 5 6 
#
# 1 65.3876 28.7098 3.2967 0.0000 0.0000 6.3165
# 2 28.7098 65.3876 3.2967 0.0000 0.0000 -6.3165
# 3 3.2967 3.2967 30.4064 0.0000 0.0000 0.0000
# 4 0.0000 0.0000 0.0000 18.0320 0.0000 0.0000
# 5 0.0000 0.0000 0.0000 0.0000 18.0320 0.0000
# 6 6.3165 -6.3165 0.0000 0.0000 0.0000 30.6882
#
#
#
# Elastic Compliance Matrix: (Units=1/GPa)
#
#
# Indices 1 2 3 4 5 6 
#
# 1 0.020027 -0.009318 -0.001161 0.000000 0.000000 -0.006040
# 2 -0.009318 0.020027 -0.001161 0.000000 0.000000 0.006040
# 3 -0.001161 -0.001161 0.033140 0.000000 0.000000 0.000000
# 4 0.000000 0.000000 0.000000 0.055457 0.000000 0.000000
# 5 0.000000 0.000000 0.000000 0.000000 0.055457 0.000000
# 6 -0.006040 0.006040 0.000000 0.000000 0.000000 0.035072
#
#
# Mechanical properties :
#
#
# Convention : Reuss Voigt Hill
#
# Bulk Modulus (GPa) = 20.03497 25.75422 22.89459
# Shear Modulus (GPa) = 19.29778 21.74233 20.52006
#
# Velocity S-wave (km/s) = 3.08966 3.27952 3.18600
# Velocity P-wave (km/s) = 4.75801 5.20385 4.98592
#
# Compressibility (1/GPa) = 0.04991274
#
# Stress axis : x y z
#
# Youngs Moduli (GPa) = 49.93327 49.93327 30.17538
#
# Poissons Ratio (x) = 0.46528 0.03503
# Poissons Ratio (y) = 0.46528 0.03503
# Poissons Ratio (z) = 0.05797 0.05797
#
# Static dielectric constant tensor:
#      x y z
#    x 1.722830 0.000000 0.000000 
#    y 0.000000 1.722830 0.000000 
#    z 0.000000 0.000000 1.701010 
# 
# From -- ./inp_files/5775.got.cif
#   From: 2010.05.17/outbox.cif.g08.bks.cpg/sg87_3_cif.got.tgz:5775.got - 2010.06.03 19:07:00.
