data_PCOD9545131
_publ_section_title
;
Structure prediction by ZEFSAII (Michael W. Deem and Ramdas Pophale) SiO2 
 PCOD9545131
Probable space group: P 42/N
;
_chemical_formula_sum "Si O2"
_cell_formula_units_Z 56
_cell_length_a 13.711455
_cell_length_b 13.711455
_cell_length_c 12.881556
_cell_angle_alpha 90.000000
_cell_angle_beta 90.000000
_cell_angle_gamma 90.000000
_cell_volume 2421.784031
_symmetry_space_group_name_H-M "P 42/N"
_symmetry_group_IT_number 86
_space_group.IT_coordinate_system_code '2'
_symmetry_cell_setting 'tetragonal'
loop_
_space_group_symop_operation_xyz
x,y,z
-y,1/2+x,1/2+z
1/2-x,1/2-y,z
1/2+y,-x,1/2+z
-x,-y,-z
y,1/2-x,1/2-z
1/2+x,1/2+y,-z
1/2-y,x,1/2-z
loop_
_atom_site_type_symbol
_atom_site_label
_atom_site_fract_x
_atom_site_fract_y
_atom_site_fract_z
Si Si1 0.349215 0.319164 0.099255
Si Si2 0.906349 0.452679 0.899358
Si Si3 0.854106 0.951073 0.701133
Si Si4 0.437182 0.323904 0.878791
Si Si5 0.767949 0.143722 0.306233
Si Si6 0.111481 0.109994 0.668860
Si Si7 0.338108 0.918402 0.876564
O O1 0.250000 0.250000 0.093624
O O2 0.430633 0.246283 0.144334
O O3 0.342412 0.406377 0.183636
O O4 0.393879 0.352718 0.989645
O O5 0.893310 0.562866 0.864882
O O6 0.872008 0.382699 0.808998
O O7 0.021501 0.426633 0.903731
O O8 0.857093 0.411849 0.002496
O O9 0.888721 0.062285 0.685870
O O10 0.551301 0.287571 0.863213
O O11 0.412130 0.402473 0.790322
O O12 0.378104 0.224360 0.850299
O O13 0.750000 0.250000 0.352754
O O14 0.739314 0.141685 0.186083
O O15 0.032551 0.190933 0.639337
#
# Coordination Sequence:
#
# PCOD9545131 Si02
#       7
#     8   8   8   8   8   8   8
#     4  12  24  40  59  97 130 169 211 261 324 385
#     4  10  21  42  65  92 124 169 214 257 323 380
#     4  11  21  41  64  89 129 168 216 255 313 399
#     4  10  22  39  63  91 133 162 210 270 317 373
#     4  10  23  42  63  96 124 159 221 264 313 384
#     4   9  19  38  60  94 118 161 214 256 309 394
#     4  10  21  41  69  89 124 171 208 268 319 376
#
# _framework density 23.123448
#
# number of rings (size 3 to 8) (size 9 to 14) (size 15 to 20)
#    0.000    1.714    1.429    4.286    4.000    0.571 
#    5.143    6.429    3.143    0.000    0.000    0.000 
#    0.000    0.000    0.000    0.000    0.000    0.000 
#
# Total GULP energy -312065.111754 kJ/mol
# GULP energy per Si atom -5572.591281 kJ/mol
# Density = 2.307082 g / cm^3
# Si number density = 23.123448 Si / 1000 Ang^3
#
#
#
# Elastic Constant Matrix: (Units=GPa)
#
#
# Indices 1 2 3 4 5 6 
#
# 1 64.9641 -6.1228 22.6485 0.0000 0.0000 -2.4036
# 2 -6.1228 64.9641 22.6485 0.0000 0.0000 2.4036
# 3 22.6485 22.6485 173.0467 0.0000 0.0000 0.0000
# 4 0.0000 0.0000 0.0000 24.1305 0.0000 0.0000
# 5 0.0000 0.0000 0.0000 0.0000 24.1305 0.0000
# 6 -2.4036 2.4036 0.0000 0.0000 0.0000 17.5070
#
#
#
# Elastic Compliance Matrix: (Units=1/GPa)
#
#
# Indices 1 2 3 4 5 6 
#
# 1 0.016549 0.002350 -0.002474 0.000000 0.000000 0.001949
# 2 0.002350 0.016549 -0.002474 0.000000 0.000000 -0.001949
# 3 -0.002474 -0.002474 0.006426 0.000000 0.000000 0.000000
# 4 0.000000 0.000000 0.000000 0.041441 0.000000 0.000000
# 5 0.000000 0.000000 0.000000 0.000000 0.041441 0.000000
# 6 0.001949 -0.001949 0.000000 0.000000 0.000000 0.057655
#
#
# Mechanical properties :
#
#
# Convention : Reuss Voigt Hill
#
# Bulk Modulus (GPa) = 29.12888 42.36927 35.74908
# Shear Modulus (GPa) = 25.41943 30.74032 28.07988
#
# Velocity S-wave (km/s) = 3.31915 3.65005 3.48853
# Velocity P-wave (km/s) = 5.22623 6.01055 5.63206
#
# Compressibility (1/GPa) = 0.03433019
#
# Stress axis : x y z
#
# Youngs Moduli (GPa) = 60.42639 60.42639 155.61154
#
# Poissons Ratio (x) = -0.14200 0.38491
# Poissons Ratio (y) = -0.14200 0.38491
# Poissons Ratio (z) = 0.14947 0.14947
#
# Static dielectric constant tensor:
#      x y z
#    x 1.968920 0.000000 0.000000 
#    y 0.000000 1.968920 0.000000 
#    z 0.000000 0.000000 1.942060 
# 
# From -- ./inp_files/2382.got.cif
#   From: 2010.05.17/outbox.cif.g08.bks.cpg/sg86_2_cif.got.tgz:2382.got - 2010.06.03 19:03:11.
