data_PCOD9545968
_publ_section_title
;
Structure prediction by ZEFSAII (Michael W. Deem and Ramdas Pophale) SiO2 
 PCOD9545968
Probable space group: I 4/M
;
_chemical_formula_sum "Si O2"
_cell_formula_units_Z 48
_cell_length_a 7.381517
_cell_length_b 7.381517
_cell_length_c 32.994479
_cell_angle_alpha 90.000000
_cell_angle_beta 90.000000
_cell_angle_gamma 90.000000
_cell_volume 1797.763355
_symmetry_space_group_name_H-M "I 4/M"
_symmetry_group_IT_number 87
_symmetry_cell_setting 'tetragonal'
loop_
_space_group_symop_operation_xyz
x,y,z
-y,x,z
-x,-y,z
y,-x,z
-x,-y,-z
y,-x,-z
x,y,-z
-y,x,-z
1/2+x,1/2+y,1/2+z
1/2-y,1/2+x,1/2+z
1/2-x,1/2-y,1/2+z
1/2+y,1/2-x,1/2+z
1/2-x,1/2-y,1/2-z
1/2+y,1/2-x,1/2-z
1/2+x,1/2+y,1/2-z
1/2-y,1/2+x,1/2-z
loop_
_atom_site_type_symbol
_atom_site_label
_atom_site_fract_x
_atom_site_fract_y
_atom_site_fract_z
Si Si1 0.500000 0.000000 0.073326
Si Si2 0.095898 0.704895 0.773138
Si Si3 0.106243 0.718945 0.500000
Si Si4 0.149759 0.267343 0.358940
O O1 0.378701 0.883600 0.042267
O O2 0.642946 0.890397 0.101283
O O3 0.274982 0.602543 0.746756
O O4 0.144493 0.741794 0.819708
O O5 0.000000 0.500000 0.783907
O O6 0.896461 0.776697 0.500000
O O7 0.933045 0.231842 0.357379
#
# Coordination Sequence:
#
# PCOD9545968 Si02
#       4
#     8  16   8  16
#     4  11  22  38  69 100 126 164 217 264 318 389
#     4  11  22  38  60  87 123 170 220 269 323 374
#     4  10  22  44  72 100 130 168 210 260 328 406
#     4  11  23  40  63  92 128 170 218 270 323 385
#
# _framework density 26.699842
#
# number of rings (size 3 to 8) (size 9 to 14) (size 15 to 20)
#    0.000    1.167    3.333    4.000    0.000    3.333 
#    0.000    0.000    0.000   41.000    0.000    0.000 
#    0.000    0.000    0.000    0.000    0.000    0.000 
#
# Total GULP energy -133749.920298 kJ/mol
# GULP energy per Si atom -5572.913346 kJ/mol
# Density = 2.663907 g / cm^3
# Si number density = 26.699842 Si / 1000 Ang^3
#
#
#
# Elastic Constant Matrix: (Units=GPa)
#
#
# Indices 1 2 3 4 5 6 
#
# 1 167.9757 78.3234 79.2193 0.0000 0.0000 70.5793
# 2 78.3234 167.9757 79.2193 0.0000 0.0000 -70.5793
# 3 79.2193 79.2193 243.6785 0.0000 0.0000 0.0000
# 4 0.0000 0.0000 0.0000 29.1312 0.0000 0.0000
# 5 0.0000 0.0000 0.0000 0.0000 29.1312 0.0000
# 6 70.5793 -70.5793 0.0000 0.0000 0.0000 -125.8168
#
#
#
# Elastic Compliance Matrix: (Units=1/GPa)
#
#
# Indices 1 2 3 4 5 6 
#
# 1 0.005528 -0.000395 -0.001669 0.000000 0.000000 0.003323
# 2 -0.000395 0.005528 -0.001669 0.000000 0.000000 -0.003323
# 3 -0.001669 -0.001669 0.005189 0.000000 0.000000 0.000000
# 4 0.000000 0.000000 0.000000 0.034327 0.000000 0.000000
# 5 0.000000 0.000000 0.000000 0.000000 0.034327 0.000000
# 6 0.003323 -0.003323 0.000000 0.000000 0.000000 -0.004220
#
#
# Mechanical properties :
#
#
# Convention : Reuss Voigt Hill
#
# Bulk Modulus (GPa) = 113.88867 117.01708 115.45288
# Shear Modulus (GPa) = 54.90176 9.34699 32.12437
#
# Velocity S-wave (km/s) = 4.53952 1.87306 3.47243
# Velocity P-wave (km/s) = 8.37998 6.97136 7.70792
#
# Compressibility (1/GPa) = 0.00878051
#
# Stress axis : x y z
#
# Youngs Moduli (GPa) = 180.88826 180.88826 192.71859
#
# Poissons Ratio (x) = 0.07137 0.32164
# Poissons Ratio (y) = 0.07137 0.32164
# Poissons Ratio (z) = 0.30189 0.30189
#
# Static dielectric constant tensor:
#      x y z
#    x 2.357040 0.000000 0.000000 
#    y 0.000000 2.357040 0.000000 
#    z 0.000000 0.000000 2.136520 
# 
# From -- ./inp_files/6406.got.cif
#   From: 2010.05.17/outbox.cif.g08.bks.cpg/sg87_4_cif.got.tgz:6406.got - 2010.06.03 19:07:00.
