data_PCOD9545819
_publ_section_title
;
Structure prediction by ZEFSAII (Michael W. Deem and Ramdas Pophale) SiO2 
 PCOD9545819
Probable space group: I 4/M
;
_chemical_formula_sum "Si O2"
_cell_formula_units_Z 112
_cell_length_a 14.171259
_cell_length_b 14.171259
_cell_length_c 28.244510
_cell_angle_alpha 90.000000
_cell_angle_beta 90.000000
_cell_angle_gamma 90.000000
_cell_volume 5672.191905
_symmetry_space_group_name_H-M "I 4/M"
_symmetry_group_IT_number 87
_symmetry_cell_setting 'tetragonal'
loop_
_space_group_symop_operation_xyz
x,y,z
-y,x,z
-x,-y,z
y,-x,z
-x,-y,-z
y,-x,-z
x,y,-z
-y,x,-z
1/2+x,1/2+y,1/2+z
1/2-y,1/2+x,1/2+z
1/2-x,1/2-y,1/2+z
1/2+y,1/2-x,1/2+z
1/2-x,1/2-y,1/2-z
1/2+y,1/2-x,1/2-z
1/2+x,1/2+y,1/2-z
1/2-y,1/2+x,1/2-z
loop_
_atom_site_type_symbol
_atom_site_label
_atom_site_fract_x
_atom_site_fract_y
_atom_site_fract_z
Si Si1 0.046307 0.853170 0.778774
Si Si2 0.717558 0.532013 0.381286
Si Si3 0.149102 0.005716 0.442432
Si Si4 0.586663 0.158894 0.054080
Si Si5 0.845736 0.806972 0.055631
Si Si6 0.089601 0.555742 0.646093
Si Si7 0.444401 0.854649 0.236117
O O1 0.115494 0.939526 0.764868
O O2 0.050502 0.848518 0.836233
O O3 0.069894 0.749561 0.757941
O O4 0.721318 0.622780 0.415365
O O5 0.689214 0.445301 0.415944
O O6 0.814851 0.502861 0.355702
O O7 0.146860 0.006174 0.500000
O O8 0.256107 0.020307 0.430009
O O9 0.087105 0.094997 0.426542
O O10 0.697655 0.186747 0.056779
O O11 0.573011 0.079049 0.091797
O O12 0.567372 0.132769 0.000000
O O13 0.855290 0.832880 0.000000
O O14 0.090628 0.644416 0.681330
O O15 0.000000 0.500000 0.664353
O O16 0.555576 0.883859 0.243180
#
# Coordination Sequence:
#
# PCOD9545819 Si02
#       7
#    16  16  16  16  16  16  16
#     4  11  23  40  63  95 129 161 201 264 324 385
#     4  11  20  37  59  84 121 161 200 249 307 362
#     4   8  14  28  51  75 102 145 196 241 288 344
#     4   9  20  36  54  83 123 158 198 250 302 363
#     4  10  21  35  55  85 122 162 205 246 295 364
#     4  11  22  39  61  87 116 154 208 254 302 374
#     4  11  21  42  67  90 119 162 214 265 319 380
#
# _framework density 19.745453999999999
#
# number of rings (size 3 to 8) (size 9 to 14) (size 15 to 20)
#    0.000    1.857    4.286    0.857    0.000    2.857 
#    0.000    5.000    0.000    1.714    0.000    0.000 
#    0.000    0.000    0.000    0.000    0.000    0.000 
#
# Total GULP energy -311824.787711 kJ/mol
# GULP energy per Si atom -5568.299781 kJ/mol
# Density = 1.970051 g / cm^3
# Si number density = 19.745454 Si / 1000 Ang^3
#
#
#
# Elastic Constant Matrix: (Units=GPa)
#
#
# Indices 1 2 3 4 5 6 
#
# 1 24.8899 7.3247 19.5181 0.0000 0.0000 5.7910
# 2 7.3247 24.8899 19.5181 0.0000 0.0000 -5.7910
# 3 19.5181 19.5181 80.8323 0.0000 0.0000 0.0000
# 4 0.0000 0.0000 0.0000 23.5287 0.0000 0.0000
# 5 0.0000 0.0000 0.0000 0.0000 23.5287 0.0000
# 6 5.7910 -5.7910 0.0000 0.0000 0.0000 19.0153
#
#
#
# Elastic Compliance Matrix: (Units=1/GPa)
#
#
# Indices 1 2 3 4 5 6 
#
# 1 0.057558 -0.013677 -0.010596 0.000000 0.000000 -0.021694
# 2 -0.013677 0.057558 -0.010596 0.000000 0.000000 0.021694
# 3 -0.010596 -0.010596 0.017488 0.000000 0.000000 0.000000
# 4 0.000000 0.000000 0.000000 0.042501 0.000000 0.000000
# 5 0.000000 0.000000 0.000000 0.000000 0.042501 0.000000
# 6 -0.021694 0.021694 0.000000 0.000000 0.000000 0.065803
#
#
# Mechanical properties :
#
#
# Convention : Reuss Voigt Hill
#
# Bulk Modulus (GPa) = 15.90638 24.81489 20.36063
# Shear Modulus (GPa) = 13.36529 18.83128 16.09828
#
# Velocity S-wave (km/s) = 2.60451 3.09156 2.85843
# Velocity P-wave (km/s) = 4.13737 5.03372 4.60739
#
# Compressibility (1/GPa) = 0.06286787
#
# Stress axis : x y z
#
# Youngs Moduli (GPa) = 17.37368 17.37368 57.18102
#
# Poissons Ratio (x) = 0.23762 0.60588
# Poissons Ratio (y) = 0.23762 0.60588
# Poissons Ratio (z) = 0.18409 0.18409
#
# Static dielectric constant tensor:
#      x y z
#    x 1.710830 0.000000 0.000000 
#    y 0.000000 1.710830 0.000000 
#    z 0.000000 0.000000 1.695530 
# 
# From -- ./inp_files/5904.got.cif
#   From: 2010.05.17/outbox.cif.g08.bks.cpg/sg87_3_cif.got.tgz:5904.got - 2010.06.03 19:07:00.
