data_PCOD9545493
_publ_section_title
;
Structure prediction by ZEFSAII (Michael W. Deem and Ramdas Pophale) SiO2 
 PCOD9545493
Probable space group: I 4/M
;
_chemical_formula_sum "Si O2"
_cell_formula_units_Z 88
_cell_length_a 14.247201
_cell_length_b 14.247201
_cell_length_c 23.342748
_cell_angle_alpha 90.000000
_cell_angle_beta 90.000000
_cell_angle_gamma 90.000000
_cell_volume 4738.174863
_symmetry_space_group_name_H-M "I 4/M"
_symmetry_group_IT_number 87
_symmetry_cell_setting 'tetragonal'
loop_
_space_group_symop_operation_xyz
x,y,z
-y,x,z
-x,-y,z
y,-x,z
-x,-y,-z
y,-x,-z
x,y,-z
-y,x,-z
1/2+x,1/2+y,1/2+z
1/2-y,1/2+x,1/2+z
1/2-x,1/2-y,1/2+z
1/2+y,1/2-x,1/2+z
1/2-x,1/2-y,1/2-z
1/2+y,1/2-x,1/2-z
1/2+x,1/2+y,1/2-z
1/2-y,1/2+x,1/2-z
loop_
_atom_site_type_symbol
_atom_site_label
_atom_site_fract_x
_atom_site_fract_y
_atom_site_fract_z
Si Si1 0.121549 0.403781 0.128882
Si Si2 0.372347 0.087713 0.129509
Si Si3 0.816031 0.154644 0.500000
Si Si4 0.879986 0.352204 0.000000
Si Si5 0.927757 0.334516 0.500000
Si Si6 0.224562 0.238773 0.315750
Si Si7 0.423260 0.364787 0.878185
O O1 0.127622 0.519045 0.135354
O O2 0.125723 0.390682 0.059958
O O3 0.200315 0.333607 0.154992
O O4 0.018661 0.376523 0.152619
O O5 0.343871 0.076282 0.062477
O O6 0.296307 0.158659 0.156588
O O7 0.716393 0.206657 0.500000
O O8 0.901347 0.225982 0.500000
O O9 0.821353 0.100890 0.440002
O O10 0.851066 0.461896 0.000000
O O11 0.250000 0.250000 0.250000
O O12 0.123845 0.191283 0.327205
O O13 0.533125 0.377109 0.875643
#
# Coordination Sequence:
#
# PCOD9545493 Si02
#       7
#    16  16   8   8   8  16  16
#     4  10  21  38  61  88 117 151 191 239 296 354
#     4  10  21  38  61  88 117 151 191 239 296 354
#     4  12  18  29  58  92 126 153 174 216 286 374
#     4  10  17  30  55  86 119 146 175 220 281 349
#     4  10  17  30  55  86 119 146 175 220 281 349
#     4  12  25  39  56  78 111 155 207 253 283 327
#     4  11  22  36  57  88 124 154 178 219 292 372
#
# _framework density 18.572552999999999
#
# number of rings (size 3 to 8) (size 9 to 14) (size 15 to 20)
#    0.000    1.273    3.636    3.273    0.000    5.818 
#    0.000    1.818    0.000    0.545    0.000    0.000 
#    0.000    4.364    0.000    0.000    0.000    0.000 
#
# Total GULP energy -245043.454933 kJ/mol
# GULP energy per Si atom -5569.169430 kJ/mol
# Density = 1.853028 g / cm^3
# Si number density = 18.572553 Si / 1000 Ang^3
#
#
#
# Elastic Constant Matrix: (Units=GPa)
#
#
# Indices 1 2 3 4 5 6 
#
# 1 -30.4662 132.3723 39.0018 0.0000 0.0000 -20.9377
# 2 132.3723 -30.4662 39.0018 0.0000 0.0000 20.9377
# 3 39.0018 39.0018 111.5847 0.0000 0.0000 0.0000
# 4 0.0000 0.0000 0.0000 8.4413 0.0000 0.0000
# 5 0.0000 0.0000 0.0000 0.0000 8.4413 0.0000
# 6 -20.9377 20.9377 0.0000 0.0000 0.0000 22.9243
#
#
#
# Elastic Compliance Matrix: (Units=1/GPa)
#
#
# Indices 1 2 3 4 5 6 
#
# 1 0.004212 0.009185 -0.004683 0.000000 0.000000 -0.004542
# 2 0.009185 0.004212 -0.004683 0.000000 0.000000 0.004542
# 3 -0.004683 -0.004683 0.012235 0.000000 0.000000 0.000000
# 4 0.000000 0.000000 0.000000 0.118466 0.000000 0.000000
# 5 0.000000 0.000000 0.000000 0.000000 0.118466 0.000000
# 6 -0.004542 0.004542 0.000000 0.000000 0.000000 0.035325
#
#
# Mechanical properties :
#
#
# Convention : Reuss Voigt Hill
#
# Bulk Modulus (GPa) = 49.26342 52.37825 50.82083
# Shear Modulus (GPa) = 16.66428 -2.68687 6.98870
#
# Velocity S-wave (km/s) = 2.99867 -1.20409 1.94193
# Velocity P-wave (km/s) = 6.21062 5.13128 5.69657
#
# Compressibility (1/GPa) = 0.02029904
#
# Stress axis : x y z
#
# Youngs Moduli (GPa) = 237.40823 237.40822 81.73092
#
# Poissons Ratio (x) = -2.18064 0.38272
# Poissons Ratio (y) = -2.18064 0.38272
# Poissons Ratio (z) = 1.11172 1.11172
#
# Static dielectric constant tensor:
#      x y z
#    x 1.697740 0.000000 0.000000 
#    y 0.000000 1.697740 0.000000 
#    z 0.000000 0.000000 1.645790 
# 
# From -- ./inp_files/5791.got.cif
#   From: 2010.05.17/outbox.cif.g08.bks.cpg/sg87_3_cif.got.tgz:5791.got - 2010.06.03 19:07:00.
