data_PCOD9545912
_publ_section_title
;
Structure prediction by ZEFSAII (Michael W. Deem and Ramdas Pophale) SiO2 
 PCOD9545912
Probable space group: I 4/M
;
_chemical_formula_sum "Si O2"
_cell_formula_units_Z 56
_cell_length_a 17.680949
_cell_length_b 17.680949
_cell_length_c 9.870899
_cell_angle_alpha 90.000000
_cell_angle_beta 90.000000
_cell_angle_gamma 90.000000
_cell_volume 3085.800543
_symmetry_space_group_name_H-M "I 4/M"
_symmetry_group_IT_number 87
_symmetry_cell_setting 'tetragonal'
loop_
_space_group_symop_operation_xyz
x,y,z
-y,x,z
-x,-y,z
y,-x,z
-x,-y,-z
y,-x,-z
x,y,-z
-y,x,-z
1/2+x,1/2+y,1/2+z
1/2-y,1/2+x,1/2+z
1/2-x,1/2-y,1/2+z
1/2+y,1/2-x,1/2+z
1/2-x,1/2-y,1/2-z
1/2+y,1/2-x,1/2-z
1/2+x,1/2+y,1/2-z
1/2-y,1/2+x,1/2-z
loop_
_atom_site_type_symbol
_atom_site_label
_atom_site_fract_x
_atom_site_fract_y
_atom_site_fract_z
Si Si1 0.302802 0.419678 0.716878
Si Si2 0.880944 0.950180 0.500000
Si Si3 0.217421 0.910596 0.853900
Si Si4 0.299340 0.809835 0.661743
O O1 0.304651 0.502353 0.654696
O O2 0.361074 0.358936 0.655136
O O3 0.220165 0.383402 0.692444
O O4 0.331358 0.429015 0.870185
O O5 0.960822 0.904375 0.500000
O O6 0.272106 0.887482 0.730052
O O7 0.253638 0.893597 0.000000
O O8 0.285309 0.807643 0.500000
O O9 0.250000 0.750000 0.750000
#
# Coordination Sequence:
#
# PCOD9545912 Si02
#       4
#    16   8  16  16
#     4  11  22  36  58  81 119 146 190 234 281 340
#     4  11  22  36  54  90 120 153 189 230 280 347
#     4  11  23  38  57  84 113 152 187 234 290 341
#     4  10  22  37  55  81 111 149 190 237 280 335
#
# _framework density 18.147641
#
# number of rings (size 3 to 8) (size 9 to 14) (size 15 to 20)
#    0.000    1.286    2.857    5.143   12.000    0.571 
#    0.000    1.429    0.000    0.857    0.000    4.000 
#    0.000    0.000    0.000    0.000    0.000    0.000 
#
# Total GULP energy -156104.440446 kJ/mol
# GULP energy per Si atom -5575.158587 kJ/mol
# Density = 1.810634 g / cm^3
# Si number density = 18.147641 Si / 1000 Ang^3
#
#
#
# Elastic Constant Matrix: (Units=GPa)
#
#
# Indices 1 2 3 4 5 6 
#
# 1 60.6963 58.2977 33.9006 0.0000 0.0000 -5.1603
# 2 58.2977 60.6963 33.9006 0.0000 0.0000 5.1603
# 3 33.9006 33.9006 196.6409 0.0000 0.0000 0.0000
# 4 0.0000 0.0000 0.0000 15.9375 0.0000 0.0000
# 5 0.0000 0.0000 0.0000 0.0000 15.9375 0.0000
# 6 -5.1603 5.1603 0.0000 0.0000 0.0000 19.2209
#
#
#
# Elastic Compliance Matrix: (Units=1/GPa)
#
#
# Indices 1 2 3 4 5 6 
#
# 1 -1.338401 1.347720 -0.001607 0.000000 0.000000 -0.721152
# 2 1.347720 -1.338401 -0.001607 0.000000 0.000000 0.721152
# 3 -0.001607 -0.001607 0.005639 0.000000 0.000000 0.000000
# 4 0.000000 0.000000 0.000000 0.062745 0.000000 0.000000
# 5 0.000000 0.000000 0.000000 0.000000 0.062745 0.000000
# 6 -0.721152 0.721152 0.000000 0.000000 0.000000 -0.335194
#
#
# Mechanical properties :
#
#
# Convention : Reuss Voigt Hill
#
# Bulk Modulus (GPa) = 56.01827 63.35905 59.68866
# Shear Modulus (GPa) = -0.89865 23.01482 11.05809
#
# Velocity S-wave (km/s) = -0.70446 3.56504 2.47116
# Velocity P-wave (km/s) = 5.50213 7.20659 6.41125
#
# Compressibility (1/GPa) = 0.01785132
#
# Stress axis : x y z
#
# Youngs Moduli (GPa) = -0.74716 -0.74716 177.32477
#
# Poissons Ratio (x) = 1.00696 0.28489
# Poissons Ratio (y) = 1.00696 0.28489
# Poissons Ratio (z) = -0.00120 -0.00120
#
# Static dielectric constant tensor:
#      x y z
#    x 1.644780 0.000000 0.000000 
#    y 0.000000 1.644780 0.000000 
#    z 0.000000 0.000000 1.718200 
# 
# From -- ./inp_files/730.got.cif
#   From: 2010.05.17/outbox.cif.g08.bks.cpg/sg87_1_cif.got.tgz:730.got - 2010.06.03 19:07:00.
