data_PCOD9545614
_publ_section_title
;
Structure prediction by ZEFSAII (Michael W. Deem and Ramdas Pophale) SiO2 
 PCOD9545614
Probable space group: I 4/M
;
_chemical_formula_sum "Si O2"
_cell_formula_units_Z 80
_cell_length_a 14.362799
_cell_length_b 14.362799
_cell_length_c 15.323993
_cell_angle_alpha 90.000000
_cell_angle_beta 90.000000
_cell_angle_gamma 90.000000
_cell_volume 3161.186441
_symmetry_space_group_name_H-M "I 4/M"
_symmetry_group_IT_number 87
_symmetry_cell_setting 'tetragonal'
loop_
_space_group_symop_operation_xyz
x,y,z
-y,x,z
-x,-y,z
y,-x,z
-x,-y,-z
y,-x,-z
x,y,-z
-y,x,-z
1/2+x,1/2+y,1/2+z
1/2-y,1/2+x,1/2+z
1/2-x,1/2-y,1/2+z
1/2+y,1/2-x,1/2+z
1/2-x,1/2-y,1/2-z
1/2+y,1/2-x,1/2-z
1/2+x,1/2+y,1/2-z
1/2-y,1/2+x,1/2-z
loop_
_atom_site_type_symbol
_atom_site_label
_atom_site_fract_x
_atom_site_fract_y
_atom_site_fract_z
Si Si1 0.972608 0.624197 0.500000
Si Si2 0.677137 0.296282 0.643849
Si Si3 0.615803 0.667734 0.000000
Si Si4 0.123630 0.522638 0.803122
Si Si5 0.648531 0.551656 0.500000
Si Si6 0.886997 0.803648 0.318086
Si Si7 0.685124 0.161940 0.000000
O O1 0.084607 0.618030 0.500000
O O2 0.931184 0.729439 0.500000
O O3 0.949826 0.590884 0.401399
O O4 0.587253 0.291680 0.582162
O O5 0.728518 0.197974 0.662185
O O6 0.651035 0.352315 0.729975
O O7 0.754540 0.352339 0.586956
O O8 0.594641 0.633325 0.097323
O O9 0.727006 0.669054 0.000000
O O10 0.089598 0.422667 0.769114
O O11 0.234393 0.527327 0.803267
O O12 0.552513 0.611620 0.500000
#
# Coordination Sequence:
#
# PCOD9545614 Si02
#       7
#     8  16   8  16   8  16   8
#     4  10  19  34  53  72 106 147 178 226 278 317
#     4   9  18  33  56  80 102 135 182 229 270 323
#     4   8  17  31  50  77 104 132 175 230 275 311
#     4  10  21  33  47  74 111 146 180 216 266 329
#     4  10  22  39  56  82 116 145 180 229 285 335
#     4   9  17  33  53  77 105 137 181 225 266 317
#     4   9  16  31  53  75 100 136 183 224 266 322
#
# _framework density 25.306954999999999
#
# number of rings (size 3 to 8) (size 9 to 14) (size 15 to 20)
#    0.000    2.700    0.000    1.800    0.000    3.200 
#    0.000    8.000    0.000    0.300    0.000    0.000 
#    0.000    0.000    0.000    0.000    0.000    0.000 
#
# Total GULP energy -223107.025448 kJ/mol
# GULP energy per Si atom -5577.675636 kJ/mol
# Density = 2.524936 g / cm^3
# Si number density = 25.306955 Si / 1000 Ang^3
#
#
#
# Elastic Constant Matrix: (Units=GPa)
#
#
# Indices 1 2 3 4 5 6 
#
# 1 43.1225 12.9714 20.1550 0.0000 0.0000 5.6029
# 2 12.9714 43.1225 20.1550 0.0000 0.0000 -5.6029
# 3 20.1550 20.1550 203.2275 0.0000 0.0000 0.0000
# 4 0.0000 0.0000 0.0000 13.4040 0.0000 0.0000
# 5 0.0000 0.0000 0.0000 0.0000 13.4040 0.0000
# 6 5.6029 -5.6029 0.0000 0.0000 0.0000 31.2711
#
#
#
# Elastic Compliance Matrix: (Units=1/GPa)
#
#
# Indices 1 2 3 4 5 6 
#
# 1 0.027364 -0.008169 -0.001904 0.000000 0.000000 -0.006366
# 2 -0.008169 0.027364 -0.001904 0.000000 0.000000 0.006366
# 3 -0.001904 -0.001904 0.005298 0.000000 0.000000 0.000000
# 4 0.000000 0.000000 0.000000 0.074605 0.000000 0.000000
# 5 0.000000 0.000000 0.000000 0.000000 0.074605 0.000000
# 6 -0.006366 0.006366 0.000000 0.000000 0.000000 0.034260
#
#
# Mechanical properties :
#
#
# Convention : Reuss Voigt Hill
#
# Bulk Modulus (GPa) = 27.72081 44.00392 35.86237
# Shear Modulus (GPa) = 17.89093 27.36191 22.62642
#
# Velocity S-wave (km/s) = 2.66175 3.29173 2.99336
# Velocity P-wave (km/s) = 4.51931 5.64563 5.11358
#
# Compressibility (1/GPa) = 0.03607398
#
# Stress axis : x y z
#
# Youngs Moduli (GPa) = 36.54458 36.54458 188.74385
#
# Poissons Ratio (x) = 0.29852 0.35931
# Poissons Ratio (y) = 0.29852 0.35931
# Poissons Ratio (z) = 0.06957 0.06957
#
# Static dielectric constant tensor:
#      x y z
#    x 2.007890 0.000000 0.000000 
#    y 0.000000 2.007890 0.000000 
#    z 0.000000 0.000000 2.046980 
# 
# From -- ./inp_files/3589.got.cif
#   From: 2010.05.17/outbox.cif.g08.bks.cpg/sg87_2_cif.got.tgz:3589.got - 2010.06.03 19:07:00.
