data_PCOD9545530
_publ_section_title
;
Structure prediction by ZEFSAII (Michael W. Deem and Ramdas Pophale) SiO2 
 PCOD9545530
Probable space group: I 4/M
;
_chemical_formula_sum "Si O2"
_cell_formula_units_Z 56
_cell_length_a 13.991060
_cell_length_b 13.991060
_cell_length_c 13.629163
_cell_angle_alpha 90.000000
_cell_angle_beta 90.000000
_cell_angle_gamma 90.000000
_cell_volume 2667.905385
_symmetry_space_group_name_H-M "I 4/M"
_symmetry_group_IT_number 87
_symmetry_cell_setting 'tetragonal'
loop_
_space_group_symop_operation_xyz
x,y,z
-y,x,z
-x,-y,z
y,-x,z
-x,-y,-z
y,-x,-z
x,y,-z
-y,x,-z
1/2+x,1/2+y,1/2+z
1/2-y,1/2+x,1/2+z
1/2-x,1/2-y,1/2+z
1/2+y,1/2-x,1/2+z
1/2-x,1/2-y,1/2-z
1/2+y,1/2-x,1/2-z
1/2+x,1/2+y,1/2-z
1/2-y,1/2+x,1/2-z
loop_
_atom_site_type_symbol
_atom_site_label
_atom_site_fract_x
_atom_site_fract_y
_atom_site_fract_z
Si Si1 0.110440 0.430049 0.500000
Si Si2 0.824725 0.583550 0.000000
Si Si3 0.028397 0.649135 0.214067
Si Si4 0.338373 0.731166 0.176884
Si Si5 0.214120 0.895810 0.500000
O O1 0.004567 0.592295 0.500000
O O2 0.147739 0.478319 0.597845
O O3 0.149453 0.320869 0.500000
O O4 0.813309 0.648546 0.905615
O O5 0.734072 0.508931 0.000000
O O6 0.108930 0.566414 0.234375
O O7 0.066939 0.748098 0.258254
O O8 0.250000 0.750000 0.250000
O O9 0.328794 0.639803 0.104408
#
# Coordination Sequence:
#
# PCOD9545530 Si02
#       5
#     8   8  16  16   8
#     4  10  18  35  50  77 111 146 187 237 287 350
#     4   9  19  35  53  80 113 142 190 242 287 349
#     4  11  22  34  53  81 116 151 191 242 303 358
#     4  11  19  33  57  80 106 152 195 235 290 342
#     4   9  19  33  54  75 109 147 192 233 286 348
#
# _framework density 20.990248000000001
#
# number of rings (size 3 to 8) (size 9 to 14) (size 15 to 20)
#    0.857    0.857    5.714    0.000    0.000    4.571 
#    0.000    0.000    0.000    6.857    0.000    0.000 
#    0.000    0.000    0.000   15.429    0.000    0.000 
#
# Total GULP energy -155897.486422 kJ/mol
# GULP energy per Si atom -5567.767372 kJ/mol
# Density = 2.094247 g / cm^3
# Si number density = 20.990248 Si / 1000 Ang^3
#
#
#
# Elastic Constant Matrix: (Units=GPa)
#
#
# Indices 1 2 3 4 5 6 
#
# 1 65.6734 30.4079 33.5996 0.0000 0.0000 3.8002
# 2 30.4079 65.6734 33.5996 0.0000 0.0000 -3.8002
# 3 33.5996 33.5996 192.8341 0.0000 0.0000 0.0000
# 4 0.0000 0.0000 0.0000 32.1785 0.0000 0.0000
# 5 0.0000 0.0000 0.0000 0.0000 32.1785 0.0000
# 6 3.8002 -3.8002 0.0000 0.0000 0.0000 19.1319
#
#
#
# Elastic Compliance Matrix: (Units=1/GPa)
#
#
# Indices 1 2 3 4 5 6 
#
# 1 0.020738 -0.008886 -0.002065 0.000000 0.000000 -0.005884
# 2 -0.008886 0.020738 -0.002065 0.000000 0.000000 0.005884
# 3 -0.002065 -0.002065 0.005905 0.000000 0.000000 0.000000
# 4 0.000000 0.000000 0.000000 0.031077 0.000000 0.000000
# 5 0.000000 0.000000 0.000000 0.000000 0.031077 0.000000
# 6 -0.005884 0.005884 0.000000 0.000000 0.000000 0.054606
#
#
# Mechanical properties :
#
#
# Convention : Reuss Voigt Hill
#
# Bulk Modulus (GPa) = 46.83986 57.71055 52.27521
# Shear Modulus (GPa) = 25.34326 31.80269 28.57298
#
# Velocity S-wave (km/s) = 3.47851 3.89667 3.69351
# Velocity P-wave (km/s) = 6.20459 6.91369 6.56871
#
# Compressibility (1/GPa) = 0.02134934
#
# Stress axis : x y z
#
# Youngs Moduli (GPa) = 48.21989 48.21989 169.33459
#
# Poissons Ratio (x) = 0.42849 0.34970
# Poissons Ratio (y) = 0.42849 0.34970
# Poissons Ratio (z) = 0.09958 0.09958
#
# Static dielectric constant tensor:
#      x y z
#    x 1.826600 0.000000 0.000000 
#    y 0.000000 1.826600 0.000000 
#    z 0.000000 0.000000 1.832190 
# 
# From -- ./inp_files/3298.got.cif
#   From: 2010.05.17/outbox.cif.g08.bks.cpg/sg87_2_cif.got.tgz:3298.got - 2010.06.03 19:07:00.
