data_PCOD9545087
_publ_section_title
;
Structure prediction by ZEFSAII (Michael W. Deem and Ramdas Pophale) SiO2 
 PCOD9545087
Probable space group: P 42/N
;
_chemical_formula_sum "Si O2"
_cell_formula_units_Z 44
_cell_length_a 13.233014
_cell_length_b 13.233014
_cell_length_c 9.141719
_cell_angle_alpha 90.000000
_cell_angle_beta 90.000000
_cell_angle_gamma 90.000000
_cell_volume 1600.830727
_symmetry_space_group_name_H-M "P 42/N"
_symmetry_group_IT_number 86
_space_group.IT_coordinate_system_code '2'
_symmetry_cell_setting 'tetragonal'
loop_
_space_group_symop_operation_xyz
x,y,z
-y,1/2+x,1/2+z
1/2-x,1/2-y,z
1/2+y,-x,1/2+z
-x,-y,-z
y,1/2-x,1/2-z
1/2+x,1/2+y,-z
1/2-y,x,1/2-z
loop_
_atom_site_type_symbol
_atom_site_label
_atom_site_fract_x
_atom_site_fract_y
_atom_site_fract_z
Si Si1 0.089555 0.792332 0.873770
Si Si2 0.750000 0.750000 0.250000
Si Si3 0.884610 0.989088 0.222997
Si Si4 0.250000 0.250000 0.250000
Si Si5 0.500000 0.000000 0.500000
Si Si6 0.959569 0.697669 0.669735
Si Si7 0.324349 0.051363 0.894624
Si Si8 0.750000 0.250000 0.878338
O O1 0.155042 0.766554 0.014183
O O2 0.159526 0.773223 0.731753
O O3 0.996025 0.723260 0.833975
O O4 0.063779 0.912547 0.861429
O O5 0.833460 0.799896 0.352100
O O6 0.925287 0.915616 0.095192
O O7 0.942110 0.944227 0.361230
O O8 0.764388 0.003963 0.205147
O O9 0.307649 0.339495 0.168785
O O10 0.515537 0.098404 0.383247
O O11 0.980603 0.790829 0.556217
#
# Coordination Sequence:
#
# PCOD9545087 Si02
#       8
#     8   2   8   2   4   8   8   4
#     4  11  24  43  67  95 129 175 228 280 342 406
#     4   8  14  32  56  82 120 160 198 248 316 390
#     4  10  21  37  63  94 126 169 217 273 336 403
#     4  12  26  40  60  98 140 168 210 284 356 406
#     4  10  22  42  66  92 130 176 224 270 334 406
#     4  11  24  41  63  93 131 174 220 274 342 412
#     4   9  19  35  58  89 123 162 210 262 325 399
#     4  10  24  44  66  94 130 174 232 290 332 404
#
# _framework density 27.485727000000001
#
# number of rings (size 3 to 8) (size 9 to 14) (size 15 to 20)
#    0.000    1.818    0.000    3.818    0.000    9.455 
#    0.000    0.000    0.000    0.000    0.000    0.000 
#    0.000    0.000    0.000    0.000    0.000    0.000 
#
# Total GULP energy -244952.115447 kJ/mol
# GULP energy per Si atom -5567.093533 kJ/mol
# Density = 2.742317 g / cm^3
# Si number density = 27.485727 Si / 1000 Ang^3
#
#
#
# Elastic Constant Matrix: (Units=GPa)
#
#
# Indices 1 2 3 4 5 6 
#
# 1 101.9619 -6.8887 32.6214 0.0000 0.0000 1.9124
# 2 -6.8887 101.9619 32.6214 0.0000 0.0000 -1.9124
# 3 32.6214 32.6214 109.0958 0.0000 0.0000 0.0000
# 4 0.0000 0.0000 0.0000 42.2741 0.0000 0.0000
# 5 0.0000 0.0000 0.0000 0.0000 42.2741 0.0000
# 6 1.9124 -1.9124 0.0000 0.0000 0.0000 32.3208
#
#
#
# Elastic Compliance Matrix: (Units=1/GPa)
#
#
# Indices 1 2 3 4 5 6 
#
# 1 0.011220 0.002014 -0.003957 0.000000 0.000000 -0.000545
# 2 0.002014 0.011220 -0.003957 0.000000 0.000000 0.000545
# 3 -0.003957 -0.003957 0.011533 0.000000 0.000000 0.000000
# 4 0.000000 0.000000 0.000000 0.023655 0.000000 0.000000
# 5 0.000000 0.000000 0.000000 0.000000 0.023655 0.000000
# 6 -0.000545 0.000545 0.000000 0.000000 0.000000 0.031004
#
#
# Mechanical properties :
#
#
# Convention : Reuss Voigt Hill
#
# Bulk Modulus (GPa) = 45.10237 47.74754 46.42495
# Shear Modulus (GPa) = 38.02909 40.35152 39.19030
#
# Velocity S-wave (km/s) = 3.72370 3.83572 3.78013
# Velocity P-wave (km/s) = 5.91041 6.08494 5.99831
#
# Compressibility (1/GPa) = 0.02217178
#
# Stress axis : x y z
#
# Youngs Moduli (GPa) = 89.12745 89.12745 86.70976
#
# Poissons Ratio (x) = -0.17949 0.34312
# Poissons Ratio (y) = -0.17949 0.34312
# Poissons Ratio (z) = 0.35269 0.35269
#
# Static dielectric constant tensor:
#      x y z
#    x 2.366060 0.000000 0.000000 
#    y 0.000000 2.366060 0.000000 
#    z 0.000000 0.000000 2.393950 
# 
# From -- ./inp_files/2257.got.cif
#   From: 2010.05.17/outbox.cif.g08.bks.cpg/sg86_2_cif.got.tgz:2257.got - 2010.06.03 19:03:11.
