data_PCOD9545120
_publ_section_title
;
Structure prediction by ZEFSAII (Michael W. Deem and Ramdas Pophale) SiO2 
 PCOD9545120
Probable space group: P 42/N
;
_chemical_formula_sum "Si O2"
_cell_formula_units_Z 40
_cell_length_a 14.431807
_cell_length_b 14.431807
_cell_length_c 9.716976
_cell_angle_alpha 90.000000
_cell_angle_beta 90.000000
_cell_angle_gamma 90.000000
_cell_volume 2023.823128
_symmetry_space_group_name_H-M "P 42/N"
_symmetry_group_IT_number 86
_space_group.IT_coordinate_system_code '2'
_symmetry_cell_setting 'tetragonal'
loop_
_space_group_symop_operation_xyz
x,y,z
-y,1/2+x,1/2+z
1/2-x,1/2-y,z
1/2+y,-x,1/2+z
-x,-y,-z
y,1/2-x,1/2-z
1/2+x,1/2+y,-z
1/2-y,x,1/2-z
loop_
_atom_site_type_symbol
_atom_site_label
_atom_site_fract_x
_atom_site_fract_y
_atom_site_fract_z
Si Si1 0.907995 0.588469 0.890884
Si Si2 0.514004 0.104200 0.862803
Si Si3 0.721985 0.491777 0.799596
Si Si4 0.861819 0.262763 0.053037
Si Si5 0.948008 0.406841 0.547019
O O1 0.984120 0.508197 0.865465
O O2 0.820249 0.531723 0.841618
O O3 0.930959 0.672705 0.792890
O O4 0.921482 0.623253 0.047361
O O5 0.526307 0.124271 0.702090
O O6 0.594419 0.159874 0.949422
O O7 0.715963 0.397929 0.708186
O O8 0.669766 0.478518 0.940457
O O9 0.750000 0.250000 0.043479
O O10 0.911525 0.163304 0.030402
O O11 0.000000 0.500000 0.500000
#
# Coordination Sequence:
#
# PCOD9545120 Si02
#       5
#     8   8   8   8   8
#     4  10  21  41  61  88 122 168 212 260 330 383
#     4  10  22  41  60  90 132 165 210 269 326 396
#     4  11  22  40  65  89 123 169 215 268 323 400
#     4  11  25  39  63  98 134 169 218 268 340 401
#     4  12  24  40  63  93 132 169 217 266 333 398
#
# _framework density 19.764572999999999
#
# number of rings (size 3 to 8) (size 9 to 14) (size 15 to 20)
#    0.000    1.200    4.000    1.200    2.800    2.000 
#    0.000    0.000    0.000    0.000    0.000    2.800 
#    0.000    0.000    0.000    0.000    0.000    0.000 
#
# Total GULP energy -222758.996574 kJ/mol
# GULP energy per Si atom -5568.974914 kJ/mol
# Density = 1.971959 g / cm^3
# Si number density = 19.764573 Si / 1000 Ang^3
#
#
#
# Elastic Constant Matrix: (Units=GPa)
#
#
# Indices 1 2 3 4 5 6 
#
# 1 53.7950 28.1082 40.6044 0.0000 0.0000 -6.5655
# 2 28.1082 53.7950 40.6044 0.0000 0.0000 6.5655
# 3 40.6044 40.6044 159.5655 0.0000 0.0000 0.0000
# 4 0.0000 0.0000 0.0000 22.1199 0.0000 0.0000
# 5 0.0000 0.0000 0.0000 0.0000 22.1199 0.0000
# 6 -6.5655 6.5655 0.0000 0.0000 0.0000 19.9097
#
#
#
# Elastic Compliance Matrix: (Units=1/GPa)
#
#
# Indices 1 2 3 4 5 6 
#
# 1 0.031577 -0.015247 -0.004155 0.000000 0.000000 0.015441
# 2 -0.015247 0.031577 -0.004155 0.000000 0.000000 -0.015441
# 3 -0.004155 -0.004155 0.008382 0.000000 0.000000 0.000000
# 4 0.000000 0.000000 0.000000 0.045208 0.000000 0.000000
# 5 0.000000 0.000000 0.000000 0.000000 0.045208 0.000000
# 6 0.015441 -0.015441 0.000000 0.000000 0.000000 0.060411
#
#
# Mechanical properties :
#
#
# Convention : Reuss Voigt Hill
#
# Bulk Modulus (GPa) = 40.95058 53.97659 47.46359
# Shear Modulus (GPa) = 18.01036 23.35247 20.68142
#
# Velocity S-wave (km/s) = 3.02196 3.44107 3.23830
# Velocity P-wave (km/s) = 5.73938 6.56940 6.16837
#
# Compressibility (1/GPa) = 0.02441968
#
# Stress axis : x y z
#
# Youngs Moduli (GPa) = 31.66883 31.66883 119.30544
#
# Poissons Ratio (x) = 0.48286 0.49576
# Poissons Ratio (y) = 0.48286 0.49576
# Poissons Ratio (z) = 0.13160 0.13160
#
# Static dielectric constant tensor:
#      x y z
#    x 1.701760 0.000000 0.000000 
#    y 0.000000 1.701760 0.000000 
#    z 0.000000 0.000000 1.771540 
# 
# From -- ./inp_files/1103.got.cif
#   From: 2010.05.17/outbox.cif.g08.bks.cpg/sg86_1_cif.got.tgz:1103.got - 2010.06.03 19:03:11.
