data_PCOD9545994
_publ_section_title
;
Structure prediction by ZEFSAII (Michael W. Deem and Ramdas Pophale) SiO2 
 PCOD9545994
Probable space group: I 4/M
;
_chemical_formula_sum "Si O2"
_cell_formula_units_Z 96
_cell_length_a 14.165483
_cell_length_b 14.165483
_cell_length_c 21.487703
_cell_angle_alpha 90.000000
_cell_angle_beta 90.000000
_cell_angle_gamma 90.000000
_cell_volume 4311.742008
_symmetry_space_group_name_H-M "I 4/M"
_symmetry_group_IT_number 87
_symmetry_cell_setting 'tetragonal'
loop_
_space_group_symop_operation_xyz
x,y,z
-y,x,z
-x,-y,z
y,-x,z
-x,-y,-z
y,-x,-z
x,y,-z
-y,x,-z
1/2+x,1/2+y,1/2+z
1/2-y,1/2+x,1/2+z
1/2-x,1/2-y,1/2+z
1/2+y,1/2-x,1/2+z
1/2-x,1/2-y,1/2-z
1/2+y,1/2-x,1/2-z
1/2+x,1/2+y,1/2-z
1/2-y,1/2+x,1/2-z
loop_
_atom_site_type_symbol
_atom_site_label
_atom_site_fract_x
_atom_site_fract_y
_atom_site_fract_z
Si Si1 0.447405 0.349558 0.930999
Si Si2 0.277991 0.671859 0.429941
Si Si3 0.143232 0.061872 0.245858
Si Si4 0.039739 0.745987 0.880834
Si Si5 0.716755 0.320630 0.170587
Si Si6 0.403625 0.898642 0.717979
O O1 0.554617 0.385006 0.926460
O O2 0.411394 0.286552 0.875191
O O3 0.433052 0.308382 0.000000
O O4 0.238919 0.680610 0.500000
O O5 0.383353 0.716765 0.429699
O O6 0.266556 0.563967 0.407085
O O7 0.232349 0.735235 0.376511
O O8 0.187364 0.063914 0.178220
O O9 0.201040 0.118359 0.296196
O O10 0.045861 0.117989 0.254281
O O11 0.055402 0.642068 0.848829
O O12 0.802227 0.344422 0.218149
O O13 0.490966 0.881235 0.766494
#
# Coordination Sequence:
#
# PCOD9545994 Si02
#       6
#    16  16  16  16  16  16
#     4   9  18  36  63  97 136 174 221 282 352 419
#     4  11  25  44  68  99 137 183 232 277 336 409
#     4  11  22  38  64 105 146 171 216 280 358 421
#     4  11  23  42  68 100 137 178 221 281 341 411
#     4  11  23  39  67  95 134 179 227 281 340 404
#     4  10  24  43  63  91 133 178 229 277 332 399
#
# _framework density 22.264782
#
# number of rings (size 3 to 8) (size 9 to 14) (size 15 to 20)
#    0.000    1.500    1.667    3.500    2.333    3.000 
#    3.000    0.833    0.000    0.000    0.000   14.000 
#    0.000    0.000    0.000    0.000    0.000    0.000 
#
# Total GULP energy -267596.417951 kJ/mol
# GULP energy per Si atom -5574.925374 kJ/mol
# Density = 2.221411 g / cm^3
# Si number density = 22.264782 Si / 1000 Ang^3
#
#
#
# Elastic Constant Matrix: (Units=GPa)
#
#
# Indices 1 2 3 4 5 6 
#
# 1 89.9523 13.7658 44.5700 0.0000 0.0000 -6.1916
# 2 13.7658 89.9523 44.5700 0.0000 0.0000 6.1916
# 3 44.5700 44.5700 121.1184 0.0000 0.0000 0.0000
# 4 0.0000 0.0000 0.0000 17.7305 0.0000 0.0000
# 5 0.0000 0.0000 0.0000 0.0000 17.7305 0.0000
# 6 -6.1916 6.1916 0.0000 0.0000 0.0000 27.8141
#
#
#
# Elastic Compliance Matrix: (Units=1/GPa)
#
#
# Indices 1 2 3 4 5 6 
#
# 1 0.013860 0.000241 -0.005189 0.000000 0.000000 0.003032
# 2 0.000241 0.013860 -0.005189 0.000000 0.000000 -0.003032
# 3 -0.005189 -0.005189 0.012075 0.000000 0.000000 0.000000
# 4 0.000000 0.000000 0.000000 0.056400 0.000000 0.000000
# 5 0.000000 0.000000 0.000000 0.000000 0.056400 0.000000
# 6 0.003032 -0.003032 0.000000 0.000000 0.000000 0.037303
#
#
# Mechanical properties :
#
#
# Convention : Reuss Voigt Hill
#
# Bulk Modulus (GPa) = 51.22532 56.31496 53.77014
# Shear Modulus (GPa) = 23.07571 25.86286 24.46929
#
# Velocity S-wave (km/s) = 3.22284 3.41193 3.31873
# Velocity P-wave (km/s) = 6.07505 6.39296 6.23603
#
# Compressibility (1/GPa) = 0.01952159
#
# Stress axis : x y z
#
# Youngs Moduli (GPa) = 72.15100 72.15100 82.81298
#
# Poissons Ratio (x) = -0.01742 0.42972
# Poissons Ratio (y) = -0.01742 0.42972
# Poissons Ratio (z) = 0.37440 0.37440
#
# Static dielectric constant tensor:
#      x y z
#    x 1.920840 0.000000 0.000000 
#    y 0.000000 1.920840 0.000000 
#    z 0.000000 0.000000 1.859210 
# 
# From -- ./inp_files/5321.got.cif
#   From: 2010.05.17/outbox.cif.g08.bks.cpg/sg87_3_cif.got.tgz:5321.got - 2010.06.03 19:07:00.
