data_PCOD9545898
_publ_section_title
;
Structure prediction by ZEFSAII (Michael W. Deem and Ramdas Pophale) SiO2 
 PCOD9545898
Probable space group: I 4/M
;
_chemical_formula_sum "Si O2"
_cell_formula_units_Z 96
_cell_length_a 14.941147
_cell_length_b 14.941147
_cell_length_c 21.779684
_cell_angle_alpha 90.000000
_cell_angle_beta 90.000000
_cell_angle_gamma 90.000000
_cell_volume 4862.050345
_symmetry_space_group_name_H-M "I 4/M"
_symmetry_group_IT_number 87
_symmetry_cell_setting 'tetragonal'
loop_
_space_group_symop_operation_xyz
x,y,z
-y,x,z
-x,-y,z
y,-x,z
-x,-y,-z
y,-x,-z
x,y,-z
-y,x,-z
1/2+x,1/2+y,1/2+z
1/2-y,1/2+x,1/2+z
1/2-x,1/2-y,1/2+z
1/2+y,1/2-x,1/2+z
1/2-x,1/2-y,1/2-z
1/2+y,1/2-x,1/2-z
1/2+x,1/2+y,1/2-z
1/2-y,1/2+x,1/2-z
loop_
_atom_site_type_symbol
_atom_site_label
_atom_site_fract_x
_atom_site_fract_y
_atom_site_fract_z
Si Si1 0.559770 0.361132 0.249391
Si Si2 0.235471 0.947462 0.430594
Si Si3 0.845415 0.780152 0.929415
Si Si4 0.727575 0.541668 0.618795
Si Si5 0.784321 0.862129 0.630170
Si Si6 0.554132 0.089711 0.430048
O O1 0.613016 0.454964 0.242086
O O2 0.564827 0.318682 0.316959
O O3 0.600754 0.293465 0.199338
O O4 0.203365 0.931574 0.500000
O O5 0.188441 0.876037 0.386848
O O6 0.341191 0.930527 0.428951
O O7 0.220073 0.049093 0.411106
O O8 0.792517 0.873503 0.924258
O O9 0.796062 0.705728 0.887275
O O10 0.946060 0.802234 0.907660
O O11 0.844287 0.748787 0.000000
O O12 0.834455 0.532952 0.619082
O O13 0.530415 0.119941 0.500000
O O14 0.500000 0.000000 0.418231
#
# Coordination Sequence:
#
# PCOD9545898 Si02
#       6
#    16  16  16  16  16  16
#     4  11  24  47  69  94 136 184 237 286 354 432
#     4  11  22  38  64 100 134 171 220 285 357 423
#     4  12  25  43  70 107 142 180 235 298 367 435
#     4  12  24  44  70 101 141 185 234 293 354 428
#     4  12  24  43  68  97 139 180 233 291 354 427
#     4  10  21  41  68  99 139 181 224 279 356 431
#
# _framework density 19.744757
#
# number of rings (size 3 to 8) (size 9 to 14) (size 15 to 20)
#    0.000    0.667    5.000    4.000    0.000    2.667 
#    3.000    1.667    0.000    0.000    0.000    0.000 
#    0.000    0.000    0.000    0.000    0.000    0.000 
#
# Total GULP energy -268166.608197 kJ/mol
# GULP energy per Si atom -5586.804337 kJ/mol
# Density = 1.969982 g / cm^3
# Si number density = 19.744757 Si / 1000 Ang^3
#
#
#
# Elastic Constant Matrix: (Units=GPa)
#
#
# Indices 1 2 3 4 5 6 
#
# 1 93.7476 23.0991 31.9173 0.0000 0.0000 4.1328
# 2 23.0991 93.7476 31.9173 0.0000 0.0000 -4.1328
# 3 31.9173 31.9173 105.0765 0.0000 0.0000 0.0000
# 4 0.0000 0.0000 0.0000 29.8514 0.0000 0.0000
# 5 0.0000 0.0000 0.0000 0.0000 29.8514 0.0000
# 6 4.1328 -4.1328 0.0000 0.0000 0.0000 29.5812
#
#
#
# Elastic Compliance Matrix: (Units=1/GPa)
#
#
# Indices 1 2 3 4 5 6 
#
# 1 0.012325 -0.002064 -0.003117 0.000000 0.000000 -0.002010
# 2 -0.002064 0.012325 -0.003117 0.000000 0.000000 0.002010
# 3 -0.003117 -0.003117 0.011410 0.000000 0.000000 0.000000
# 4 0.000000 0.000000 0.000000 0.033499 0.000000 0.000000
# 5 0.000000 0.000000 0.000000 0.000000 0.033499 0.000000
# 6 -0.002010 0.002010 0.000000 0.000000 0.000000 0.034367
#
#
# Mechanical properties :
#
#
# Convention : Reuss Voigt Hill
#
# Bulk Modulus (GPa) = 51.37402 51.82654 51.60028
# Shear Modulus (GPa) = 31.15051 31.56600 31.35825
#
# Velocity S-wave (km/s) = 3.97629 4.00272 3.98952
# Velocity P-wave (km/s) = 6.86707 6.90417 6.88565
#
# Compressibility (1/GPa) = 0.01946509
#
# Stress axis : x y z
#
# Youngs Moduli (GPa) = 81.13342 81.13342 87.63974
#
# Poissons Ratio (x) = 0.16749 0.27316
# Poissons Ratio (y) = 0.16749 0.27316
# Poissons Ratio (z) = 0.25288 0.25288
#
# Static dielectric constant tensor:
#      x y z
#    x 1.714650 0.000000 0.000000 
#    y 0.000000 1.714650 0.000000 
#    z 0.000000 0.000000 1.701950 
# 
# From -- ./inp_files/5311.got.cif
#   From: 2010.05.17/outbox.cif.g08.bks.cpg/sg87_3_cif.got.tgz:5311.got - 2010.06.03 19:07:00.
