data_PCOD9545512
_publ_section_title
;
Structure prediction by ZEFSAII (Michael W. Deem and Ramdas Pophale) SiO2 
 PCOD9545512
Probable space group: I 4/M
;
_chemical_formula_sum "Si O2"
_cell_formula_units_Z 96
_cell_length_a 24.519742
_cell_length_b 24.519742
_cell_length_c 8.517196
_cell_angle_alpha 90.000000
_cell_angle_beta 90.000000
_cell_angle_gamma 90.000000
_cell_volume 5120.689396
_symmetry_space_group_name_H-M "I 4/M"
_symmetry_group_IT_number 87
_symmetry_cell_setting 'tetragonal'
loop_
_space_group_symop_operation_xyz
x,y,z
-y,x,z
-x,-y,z
y,-x,z
-x,-y,-z
y,-x,-z
x,y,-z
-y,x,-z
1/2+x,1/2+y,1/2+z
1/2-y,1/2+x,1/2+z
1/2-x,1/2-y,1/2+z
1/2+y,1/2-x,1/2+z
1/2-x,1/2-y,1/2-z
1/2+y,1/2-x,1/2-z
1/2+x,1/2+y,1/2-z
1/2-y,1/2+x,1/2-z
loop_
_atom_site_type_symbol
_atom_site_label
_atom_site_fract_x
_atom_site_fract_y
_atom_site_fract_z
Si Si1 0.429805 0.550109 0.309033
Si Si2 0.353198 0.356447 0.310451
Si Si3 0.646579 0.068431 0.186089
Si Si4 0.422827 0.267391 0.184883
Si Si5 0.145788 0.445720 0.312588
Si Si6 0.455377 0.725903 0.311828
O O1 0.426585 0.488104 0.258348
O O2 0.429491 0.549822 0.500000
O O3 0.383924 0.590183 0.257124
O O4 0.349247 0.353930 0.500000
O O5 0.367412 0.296055 0.250581
O O6 0.308523 0.401799 0.258748
O O7 0.703446 0.080073 0.271970
O O8 0.600466 0.111853 0.226387
O O9 0.627880 0.007141 0.230043
O O10 0.658123 0.067484 0.000000
O O11 0.483133 0.286064 0.250085
O O12 0.423948 0.275322 0.000000
O O13 0.138976 0.438411 0.500000
O O14 0.210517 0.443847 0.279124
O O15 0.459004 0.717487 0.500000
#
# Coordination Sequence:
#
# PCOD9545512 Si02
#       6
#    16  16  16  16  16  16
#     4   8  13  21  37  64  93 121 161 215 267 312
#     4  10  18  31  52  74 100 139 187 229 267 320
#     4  10  21  38  60  84 111 144 179 213 259 324
#     4  11  22  35  53  78 111 146 181 227 277 321
#     4   9  19  36  57  84 114 139 172 219 266 315
#     4   9  19  36  57  80 108 145 186 227 272 325
#
# _framework density 18.747475999999999
#
# number of rings (size 3 to 8) (size 9 to 14) (size 15 to 20)
#    0.000    2.500    0.000    4.500    0.000    7.000 
#    0.000    2.500    0.000    0.000    0.000    3.500 
#    0.000    0.000    0.000    0.000    0.000    0.000 
#
# Total GULP energy -267278.789342 kJ/mol
# GULP energy per Si atom -5568.308111 kJ/mol
# Density = 1.870481 g / cm^3
# Si number density = 18.747476 Si / 1000 Ang^3
#
#
#
# Elastic Constant Matrix: (Units=GPa)
#
#
# Indices 1 2 3 4 5 6 
#
# 1 -7.0325 111.4559 26.9669 0.0000 0.0000 -15.2292
# 2 111.4559 -7.0325 26.9669 0.0000 0.0000 15.2292
# 3 26.9669 26.9669 35.6154 0.0000 0.0000 0.0000
# 4 0.0000 0.0000 0.0000 20.9317 0.0000 0.0000
# 5 0.0000 0.0000 0.0000 0.0000 20.9317 0.0000
# 6 -15.2292 15.2292 0.0000 0.0000 0.0000 35.0605
#
#
#
# Elastic Compliance Matrix: (Units=1/GPa)
#
#
# Indices 1 2 3 4 5 6 
#
# 1 0.004067 0.011659 -0.011908 0.000000 0.000000 -0.003298
# 2 0.011659 0.004067 -0.011908 0.000000 0.000000 0.003298
# 3 -0.011908 -0.011908 0.046110 0.000000 0.000000 0.000000
# 4 0.000000 0.000000 0.000000 0.047774 0.000000 0.000000
# 5 0.000000 0.000000 0.000000 0.000000 0.047774 0.000000
# 6 -0.003298 0.003298 0.000000 0.000000 0.000000 0.025657
#
#
# Mechanical properties :
#
#
# Convention : Reuss Voigt Hill
#
# Bulk Modulus (GPa) = 33.40856 39.14775 36.27815
# Shear Modulus (GPa) = 23.83899 5.79551 14.81725
#
# Velocity S-wave (km/s) = 3.56980 1.76013 2.81438
# Velocity P-wave (km/s) = 5.90341 5.00577 5.47302
#
# Compressibility (1/GPa) = 0.02993245
#
# Stress axis : x y z
#
# Youngs Moduli (GPa) = 245.86147 245.86147 21.68726
#
# Poissons Ratio (x) = -2.86657 0.25825
# Poissons Ratio (y) = -2.86657 0.25825
# Poissons Ratio (z) = 2.92764 2.92764
#
# Static dielectric constant tensor:
#      x y z
#    x 1.670270 0.000000 0.000000 
#    y 0.000000 1.670270 0.000000 
#    z 0.000000 0.000000 1.665250 
# 
# From -- ./inp_files/1329.got.cif
#   From: 2010.05.17/outbox.cif.g08.bks.cpg/sg87_1_cif.got.tgz:1329.got - 2010.06.03 19:07:00.
