data_PCOD9545678
_publ_section_title
;
Structure prediction by ZEFSAII (Michael W. Deem and Ramdas Pophale) SiO2 
 PCOD9545678
Probable space group: I 4/M
;
_chemical_formula_sum "Si O2"
_cell_formula_units_Z 104
_cell_length_a 25.076665
_cell_length_b 25.076665
_cell_length_c 9.620033
_cell_angle_alpha 90.000000
_cell_angle_beta 90.000000
_cell_angle_gamma 90.000000
_cell_volume 6049.453158
_symmetry_space_group_name_H-M "I 4/M"
_symmetry_group_IT_number 87
_symmetry_cell_setting 'tetragonal'
loop_
_space_group_symop_operation_xyz
x,y,z
-y,x,z
-x,-y,z
y,-x,z
-x,-y,-z
y,-x,-z
x,y,-z
-y,x,-z
1/2+x,1/2+y,1/2+z
1/2-y,1/2+x,1/2+z
1/2-x,1/2-y,1/2+z
1/2+y,1/2-x,1/2+z
1/2-x,1/2-y,1/2-z
1/2+y,1/2-x,1/2-z
1/2+x,1/2+y,1/2-z
1/2-y,1/2+x,1/2-z
loop_
_atom_site_type_symbol
_atom_site_label
_atom_site_fract_x
_atom_site_fract_y
_atom_site_fract_z
Si Si1 0.038180 0.917741 0.500000
Si Si2 0.644426 0.058726 0.836271
Si Si3 0.442346 0.343563 0.647903
Si Si4 0.369550 0.069183 0.839837
Si Si5 0.863300 0.935554 0.213697
Si Si6 0.452032 0.248086 0.166528
Si Si7 0.438690 0.751819 0.336728
O O1 0.054125 0.882639 0.369161
O O2 0.975007 0.931782 0.500000
O O3 0.595916 0.091180 0.769179
O O4 0.696603 0.072072 0.743975
O O5 0.633667 0.995032 0.824787
O O6 0.651973 0.070118 0.000000
O O7 0.432928 0.315463 0.500000
O O8 0.407194 0.396329 0.653151
O O9 0.504646 0.359410 0.653451
O O10 0.429248 0.303651 0.773829
O O11 0.308644 0.089430 0.818151
O O12 0.385354 0.080724 0.000000
O O13 0.804571 0.910727 0.190935
O O14 0.512171 0.249036 0.228943
O O15 0.450512 0.244715 0.000000
O O16 0.456538 0.752247 0.500000
#
# Coordination Sequence:
#
# PCOD9545678 Si02
#       7
#     8  16  16  16  16  16  16
#     4  11  22  36  46  72 110 148 176 225 281 327
#     4  10  20  36  56  81 113 141 173 212 254 306
#     4  11  22  35  51  75 103 137 179 221 271 320
#     4   9  19  35  55  79 110 142 171 211 257 307
#     4  11  21  33  53  72 104 139 179 222 271 322
#     4  10  20  33  53  76 101 138 177 216 260 311
#     4   9  19  35  52  75 105 138 177 222 265 307
#
# _framework density 17.191637
#
# number of rings (size 3 to 8) (size 9 to 14) (size 15 to 20)
#    0.000    1.923    1.538    5.077    5.385    3.692 
#    0.000    2.308    0.000    0.923    0.000    0.000 
#    0.000    0.000    0.000    0.000    0.000    0.000 
#
# Total GULP energy -289632.018856 kJ/mol
# GULP energy per Si atom -5569.846516 kJ/mol
# Density = 1.715251 g / cm^3
# Si number density = 17.191637 Si / 1000 Ang^3
#
#
#
# Elastic Constant Matrix: (Units=GPa)
#
#
# Indices 1 2 3 4 5 6 
#
# 1 63.9801 33.7522 43.7657 0.0000 0.0000 -2.1980
# 2 33.7522 63.9801 43.7657 0.0000 0.0000 2.1980
# 3 43.7657 43.7657 164.6082 0.0000 0.0000 0.0000
# 4 0.0000 0.0000 0.0000 -52.1685 0.0000 0.0000
# 5 0.0000 0.0000 0.0000 0.0000 -52.1685 0.0000
# 6 -2.1980 2.1980 0.0000 0.0000 0.0000 -0.7220
#
#
#
# Elastic Compliance Matrix: (Units=1/GPa)
#
#
# Indices 1 2 3 4 5 6 
#
# 1 0.018180 -0.004750 -0.003571 0.000000 0.000000 -0.069805
# 2 -0.004750 0.018180 -0.003571 0.000000 0.000000 0.069805
# 3 -0.003571 -0.003571 0.007974 0.000000 0.000000 0.000000
# 4 0.000000 0.000000 0.000000 -0.019169 0.000000 0.000000
# 5 0.000000 0.000000 0.000000 0.000000 -0.019169 0.000000
# 6 -0.069805 0.069805 0.000000 0.000000 0.000000 -0.959996
#
#
# Mechanical properties :
#
#
# Convention : Reuss Voigt Hill
#
# Bulk Modulus (GPa) = 48.65960 59.45952 54.05956
# Shear Modulus (GPa) = -5.41497 -9.59281 -7.50389
#
# Velocity S-wave (km/s) = -1.77668 -2.36475 -2.09149
# Velocity P-wave (km/s) = 4.91496 5.21587 5.06765
#
# Compressibility (1/GPa) = 0.02055093
#
# Stress axis : x y z
#
# Youngs Moduli (GPa) = 55.00494 55.00494 125.41054
#
# Poissons Ratio (x) = 0.26128 0.44781
# Poissons Ratio (y) = 0.26128 0.44781
# Poissons Ratio (z) = 0.19641 0.19641
#
# Static dielectric constant tensor:
#      x y z
#    x 1.596790 0.000000 0.000000 
#    y 0.000000 1.596790 0.000000 
#    z 0.000000 0.000000 1.622430 
# 
# From -- ./inp_files/1635.got.cif
#   From: 2010.05.17/outbox.cif.g08.bks.cpg/sg87_1_cif.got.tgz:1635.got - 2010.06.03 19:07:00.
