data_PCOD9545863
_publ_section_title
;
Structure prediction by ZEFSAII (Michael W. Deem and Ramdas Pophale) SiO2 
 PCOD9545863
Probable space group: I 4/M
;
_chemical_formula_sum "Si O2"
_cell_formula_units_Z 116
_cell_length_a 18.290006
_cell_length_b 18.290006
_cell_length_c 19.654876
_cell_angle_alpha 90.000000
_cell_angle_beta 90.000000
_cell_angle_gamma 90.000000
_cell_volume 6575.034018
_symmetry_space_group_name_H-M "I 4/M"
_symmetry_group_IT_number 87
_symmetry_cell_setting 'tetragonal'
loop_
_space_group_symop_operation_xyz
x,y,z
-y,x,z
-x,-y,z
y,-x,z
-x,-y,-z
y,-x,-z
x,y,-z
-y,x,-z
1/2+x,1/2+y,1/2+z
1/2-y,1/2+x,1/2+z
1/2-x,1/2-y,1/2+z
1/2+y,1/2-x,1/2+z
1/2-x,1/2-y,1/2-z
1/2+y,1/2-x,1/2-z
1/2+x,1/2+y,1/2-z
1/2-y,1/2+x,1/2-z
loop_
_atom_site_type_symbol
_atom_site_label
_atom_site_fract_x
_atom_site_fract_y
_atom_site_fract_z
Si Si1 0.508393 0.717401 0.200658
Si Si2 0.880756 0.030250 0.573604
Si Si3 0.842722 0.263188 0.678751
Si Si4 0.125378 0.734980 0.922531
Si Si5 0.506705 0.674949 0.644527
Si Si6 0.753893 0.354883 0.577524
Si Si7 0.154046 0.291068 0.686453
Si Si8 0.000000 0.000000 0.881184
O O1 0.537471 0.667147 0.139780
O O2 0.427145 0.741661 0.180398
O O3 0.505321 0.676978 0.273350
O O4 0.569617 0.780163 0.204981
O O5 0.843004 0.040162 0.500000
O O6 0.949146 0.084885 0.575298
O O7 0.820472 0.319010 0.618891
O O8 0.787712 0.193700 0.674032
O O9 0.824453 0.302552 0.749849
O O10 0.060561 0.777971 0.884791
O O11 0.192484 0.791922 0.925045
O O12 0.156445 0.668568 0.877632
O O13 0.105028 0.715933 0.000000
O O14 0.578788 0.716206 0.617668
O O15 0.503754 0.591054 0.620240
O O16 0.772182 0.375907 0.500000
#
# Coordination Sequence:
#
# PCOD9545863 Si02
#       8
#    16  16  16  16  16  16  16   4
#     4  12  23  34  64  87 117 157 202 261 302 350
#     4   9  20  35  50  77 120 161 192 232 293 353
#     4  10  21  38  58  85 117 156 206 251 300 359
#     4  10  21  39  60  82 118 164 203 245 301 363
#     4  12  23  38  56  94 131 164 200 242 301 371
#     4  10  21  39  60  82 118 164 203 245 301 363
#     4  10  21  38  58  85 117 156 206 251 300 359
#     4  12  28  32  57 100 141 164 200 238 288 384
#
# _framework density 17.642493000000002
#
# number of rings (size 3 to 8) (size 9 to 14) (size 15 to 20)
#    0.000    1.517    4.138    1.655    3.862    1.103 
#    0.000    4.138    0.000    2.897    0.000    1.931 
#    0.000    0.000    0.000    0.000    0.000    0.000 
#
# Total GULP energy -323058.218221 kJ/mol
# GULP energy per Si atom -5569.969280 kJ/mol
# Density = 1.760234 g / cm^3
# Si number density = 17.642493 Si / 1000 Ang^3
#
#
#
# Elastic Constant Matrix: (Units=GPa)
#
#
# Indices 1 2 3 4 5 6 
#
# 1 58.9672 2.8277 8.2049 0.0000 0.0000 0.3710
# 2 2.8277 58.9672 8.2049 0.0000 0.0000 -0.3710
# 3 8.2049 8.2049 102.7453 0.0000 0.0000 0.0000
# 4 0.0000 0.0000 0.0000 20.8005 0.0000 0.0000
# 5 0.0000 0.0000 0.0000 0.0000 20.8005 0.0000
# 6 0.3710 -0.3710 0.0000 0.0000 0.0000 6.1104
#
#
#
# Elastic Compliance Matrix: (Units=1/GPa)
#
#
# Indices 1 2 3 4 5 6 
#
# 1 0.017180 -0.000647 -0.001320 0.000000 0.000000 -0.001082
# 2 -0.000647 0.017180 -0.001320 0.000000 0.000000 0.001082
# 3 -0.001320 -0.001320 0.009944 0.000000 0.000000 0.000000
# 4 0.000000 0.000000 0.000000 0.048076 0.000000 0.000000
# 5 0.000000 0.000000 0.000000 0.000000 0.048076 0.000000
# 6 -0.001082 0.001082 0.000000 0.000000 0.000000 0.163786
#
#
# Mechanical properties :
#
#
# Convention : Reuss Voigt Hill
#
# Bulk Modulus (GPa) = 26.50488 28.79495 27.64992
# Shear Modulus (GPa) = 15.46107 22.97177 19.21642
#
# Velocity S-wave (km/s) = 2.96354 3.61234 3.30390
# Velocity P-wave (km/s) = 5.17359 5.80994 5.50097
#
# Compressibility (1/GPa) = 0.03772890
#
# Stress axis : x y z
#
# Youngs Moduli (GPa) = 58.20684 58.20683 100.56650
#
# Poissons Ratio (x) = 0.03766 0.13278
# Poissons Ratio (y) = 0.03766 0.13278
# Poissons Ratio (z) = 0.07685 0.07685
#
# Static dielectric constant tensor:
#      x y z
#    x 1.591530 0.000000 0.000000 
#    y 0.000000 1.591530 0.000000 
#    z 0.000000 0.000000 1.639920 
# 
# From -- ./inp_files/4602.got.cif
#   From: 2010.05.17/outbox.cif.g08.bks.cpg/sg87_3_cif.got.tgz:4602.got - 2010.06.03 19:07:00.
