data_PCOD9545982
_publ_section_title
;
Structure prediction by ZEFSAII (Michael W. Deem and Ramdas Pophale) SiO2 
 PCOD9545982
Probable space group: I 4/M
;
_chemical_formula_sum "Si O2"
_cell_formula_units_Z 92
_cell_length_a 13.995579
_cell_length_b 13.995579
_cell_length_c 22.321750
_cell_angle_alpha 90.000000
_cell_angle_beta 90.000000
_cell_angle_gamma 90.000000
_cell_volume 4372.300271
_symmetry_space_group_name_H-M "I 4/M"
_symmetry_group_IT_number 87
_symmetry_cell_setting 'tetragonal'
loop_
_space_group_symop_operation_xyz
x,y,z
-y,x,z
-x,-y,z
y,-x,z
-x,-y,-z
y,-x,-z
x,y,-z
-y,x,-z
1/2+x,1/2+y,1/2+z
1/2-y,1/2+x,1/2+z
1/2-x,1/2-y,1/2+z
1/2+y,1/2-x,1/2+z
1/2-x,1/2-y,1/2-z
1/2+y,1/2-x,1/2-z
1/2+x,1/2+y,1/2-z
1/2-y,1/2+x,1/2-z
loop_
_atom_site_type_symbol
_atom_site_label
_atom_site_fract_x
_atom_site_fract_y
_atom_site_fract_z
Si Si1 0.028444 0.608531 0.626370
Si Si2 0.753365 0.355757 0.397745
Si Si3 0.156983 0.964460 0.000000
Si Si4 0.507859 0.710123 0.200679
Si Si5 0.664448 0.309764 0.723251
Si Si6 0.208533 0.196517 0.500000
Si Si7 0.297407 0.993738 0.500000
Si Si8 0.000000 0.000000 0.652549
O O1 0.143502 0.621846 0.631259
O O2 0.977318 0.692589 0.664172
O O3 0.000000 0.500000 0.640935
O O4 0.003345 0.635231 0.557858
O O5 0.718543 0.441277 0.440880
O O6 0.678249 0.329206 0.346443
O O7 0.767054 0.265918 0.441851
O O8 0.068931 0.889022 0.000000
O O9 0.430046 0.736741 0.251100
O O10 0.591236 0.670229 0.241803
O O11 0.484164 0.619287 0.157486
O O12 0.750000 0.250000 0.750000
O O13 0.102991 0.237215 0.500000
O O14 0.223367 0.082549 0.500000
#
# Coordination Sequence:
#
# PCOD9545982 Si02
#       8
#    16  16   8  16  16   8   8   4
#     4  11  24  43  65  97 137 175 221 269 330 408
#     4  10  23  43  64  94 133 172 214 268 337 396
#     4  10  24  45  67  97 126 165 221 283 326 390
#     4  10  23  42  66  98 128 179 224 272 334 394
#     4  11  23  42  65  95 137 172 220 273 327 396
#     4   9  22  42  66  94 126 170 223 276 329 401
#     4  10  23  41  68  94 128 169 223 277 343 387
#     4   8  20  44  68  85 128 177 220 272 328 390
#
# _framework density 21.041554999999999
#
# number of rings (size 3 to 8) (size 9 to 14) (size 15 to 20)
#    0.000    1.826    1.739    0.783    4.870    5.739 
#    0.000    0.000    0.000    0.000    0.000    0.000 
#    0.000    0.000    0.000    0.000    0.000    0.000 
#
# Total GULP energy -256225.810130 kJ/mol
# GULP energy per Si atom -5570.126307 kJ/mol
# Density = 2.099366 g / cm^3
# Si number density = 21.041555 Si / 1000 Ang^3
#
#
#
# Elastic Constant Matrix: (Units=GPa)
#
#
# Indices 1 2 3 4 5 6 
#
# 1 51.4430 -0.1123 2.8901 0.0000 0.0000 -14.0993
# 2 -0.1123 51.4430 2.8901 0.0000 0.0000 14.0993
# 3 2.8901 2.8901 90.3340 0.0000 0.0000 0.0000
# 4 0.0000 0.0000 0.0000 -90.6460 0.0000 0.0000
# 5 0.0000 0.0000 0.0000 0.0000 -90.6460 0.0000
# 6 -14.0993 14.0993 0.0000 0.0000 0.0000 24.7980
#
#
#
# Elastic Compliance Matrix: (Units=1/GPa)
#
#
# Indices 1 2 3 4 5 6 
#
# 1 0.023852 -0.004300 -0.000626 0.000000 0.000000 0.016006
# 2 -0.004300 0.023852 -0.000626 0.000000 0.000000 -0.016006
# 3 -0.000626 -0.000626 0.011110 0.000000 0.000000 0.000000
# 4 0.000000 0.000000 0.000000 -0.011032 0.000000 0.000000
# 5 0.000000 0.000000 0.000000 0.000000 -0.011032 0.000000
# 6 0.016006 -0.016006 0.000000 0.000000 0.000000 0.058527
#
#
# Mechanical properties :
#
#
# Convention : Reuss Voigt Hill
#
# Bulk Modulus (GPa) = 20.95916 22.72842 21.84379
# Shear Modulus (GPa) = 40.88932 -18.79533 11.04700
#
# Velocity S-wave (km/s) = 4.41303 -2.99197 2.29379
# Velocity P-wave (km/s) = 5.99574 1.05390 4.17362
#
# Compressibility (1/GPa) = 0.04771184
#
# Stress axis : x y z
#
# Youngs Moduli (GPa) = 41.92595 41.92595 90.00858
#
# Poissons Ratio (x) = 0.18027 0.05630
# Poissons Ratio (y) = 0.18027 0.05630
# Poissons Ratio (z) = 0.02623 0.02623
#
# Static dielectric constant tensor:
#      x y z
#    x 1.782290 0.000000 0.000000 
#    y 0.000000 1.782290 0.000000 
#    z 0.000000 0.000000 1.835800 
# 
# From -- ./inp_files/5390.got.cif
#   From: 2010.05.17/outbox.cif.g08.bks.cpg/sg87_3_cif.got.tgz:5390.got - 2010.06.03 19:07:00.
