data_PCOD9545642
_publ_section_title
;
Structure prediction by ZEFSAII (Michael W. Deem and Ramdas Pophale) SiO2 
 PCOD9545642
Probable space group: I 4/M
;
_chemical_formula_sum "Si O2"
_cell_formula_units_Z 120
_cell_length_a 28.054674
_cell_length_b 28.054674
_cell_length_c 8.339346
_cell_angle_alpha 90.000000
_cell_angle_beta 90.000000
_cell_angle_gamma 90.000000
_cell_volume 6563.605135
_symmetry_space_group_name_H-M "I 4/M"
_symmetry_group_IT_number 87
_symmetry_cell_setting 'tetragonal'
loop_
_space_group_symop_operation_xyz
x,y,z
-y,x,z
-x,-y,z
y,-x,z
-x,-y,-z
y,-x,-z
x,y,-z
-y,x,-z
1/2+x,1/2+y,1/2+z
1/2-y,1/2+x,1/2+z
1/2-x,1/2-y,1/2+z
1/2+y,1/2-x,1/2+z
1/2-x,1/2-y,1/2-z
1/2+y,1/2-x,1/2-z
1/2+x,1/2+y,1/2-z
1/2-y,1/2+x,1/2-z
loop_
_atom_site_type_symbol
_atom_site_label
_atom_site_fract_x
_atom_site_fract_y
_atom_site_fract_z
Si Si1 0.766154 0.570240 0.695875
Si Si2 0.675346 0.615008 0.319341
Si Si3 0.125997 0.439401 0.694103
Si Si4 0.364272 0.954032 0.308173
Si Si5 0.122409 0.018379 0.824941
Si Si6 0.079568 0.162996 0.311265
Si Si7 0.741219 0.039953 0.808995
Si Si8 0.968672 0.071573 0.500000
O O1 0.763982 0.571149 0.500000
O O2 0.728038 0.609493 0.755250
O O3 0.821116 0.578521 0.741220
O O4 0.754993 0.515515 0.746477
O O5 0.678171 0.634905 0.500000
O O6 0.662771 0.558659 0.335594
O O7 0.631215 0.641924 0.236378
O O8 0.125454 0.442982 0.500000
O O9 0.084709 0.403240 0.743993
O O10 0.120199 0.492532 0.761813
O O11 0.359044 0.951030 0.500000
O O12 0.312667 0.945256 0.229912
O O13 0.139346 0.964797 0.785985
O O14 0.095469 0.038435 0.670415
O O15 0.097801 0.018449 0.000000
O O16 0.072242 0.155008 0.500000
O O17 0.072510 0.218856 0.273082
O O18 0.749299 0.040690 0.000000
O O19 0.940201 0.023757 0.500000
#
# Coordination Sequence:
#
# PCOD9545642 Si02
#       8
#    16  16  16  16  16  16  16   8
#     4   8  15  32  55  77 101 136 183 227 273 331
#     4  10  20  34  55  78 102 137 184 231 284 346
#     4   9  19  35  56  82 117 156 187 222 270 325
#     4  10  20  34  55  86 118 149 189 229 268 320
#     4  11  22  37  53  73 102 136 178 230 288 344
#     4  12  23  34  53  80 109 139 180 232 285 340
#     4  10  19  36  57  79 108 144 186 229 283 337
#     4  11  24  38  50  68  96 136 182 224 277 348
#
# _framework density 18.282634999999999
#
# number of rings (size 3 to 8) (size 9 to 14) (size 15 to 20)
#    0.000    1.933    2.000    3.600    0.933    2.933 
#    0.000    2.667    0.000    0.800    0.000    0.000 
#    0.000    0.000    0.000    0.000    0.000    0.000 
#
# Total GULP energy -334335.287259 kJ/mol
# GULP energy per Si atom -5572.254788 kJ/mol
# Density = 1.824102 g / cm^3
# Si number density = 18.282635 Si / 1000 Ang^3
#
#
#
# Elastic Constant Matrix: (Units=GPa)
#
#
# Indices 1 2 3 4 5 6 
#
# 1 93.5463 58.8095 15.1921 0.0000 0.0000 -1.3483
# 2 58.8095 93.5463 15.1921 0.0000 0.0000 1.3483
# 3 15.1921 15.1921 67.0358 0.0000 0.0000 0.0000
# 4 0.0000 0.0000 0.0000 24.2717 0.0000 0.0000
# 5 0.0000 0.0000 0.0000 0.0000 24.2717 0.0000
# 6 -1.3483 1.3483 0.0000 0.0000 0.0000 27.8407
#
#
#
# Elastic Compliance Matrix: (Units=1/GPa)
#
#
# Indices 1 2 3 4 5 6 
#
# 1 0.017885 -0.011011 -0.001558 0.000000 0.000000 0.001399
# 2 -0.011011 0.017885 -0.001558 0.000000 0.000000 -0.001399
# 3 -0.001558 -0.001558 0.015624 0.000000 0.000000 0.000000
# 4 0.000000 0.000000 0.000000 0.041200 0.000000 0.000000
# 5 0.000000 0.000000 0.000000 0.000000 0.041200 0.000000
# 6 0.001399 -0.001399 0.000000 0.000000 0.000000 0.036054
#
#
# Mechanical properties :
#
#
# Convention : Reuss Voigt Hill
#
# Bulk Modulus (GPa) = 43.21429 48.05732 45.63580
# Shear Modulus (GPa) = 24.29350 26.27247 25.28299
#
# Velocity S-wave (km/s) = 3.64919 3.79491 3.72277
# Velocity P-wave (km/s) = 6.43767 6.74868 6.59501
#
# Compressibility (1/GPa) = 0.02314049
#
# Stress axis : x y z
#
# Youngs Moduli (GPa) = 55.91152 55.91152 64.00611
#
# Poissons Ratio (x) = 0.61565 0.09971
# Poissons Ratio (y) = 0.61565 0.09971
# Poissons Ratio (z) = 0.08710 0.08710
#
# Static dielectric constant tensor:
#      x y z
#    x 1.644180 0.000000 0.000000 
#    y 0.000000 1.644180 0.000000 
#    z 0.000000 0.000000 1.536260 
# 
# From -- ./inp_files/1657.got.cif
#   From: 2010.05.17/outbox.cif.g08.bks.cpg/sg87_1_cif.got.tgz:1657.got - 2010.06.03 19:07:00.
