data_PCOD9545866
_publ_section_title
;
Structure prediction by ZEFSAII (Michael W. Deem and Ramdas Pophale) SiO2 
 PCOD9545866
Probable space group: I 4/M
;
_chemical_formula_sum "Si O2"
_cell_formula_units_Z 48
_cell_length_a 13.735827
_cell_length_b 13.735827
_cell_length_c 11.052322
_cell_angle_alpha 90.000000
_cell_angle_beta 90.000000
_cell_angle_gamma 90.000000
_cell_volume 2085.274123
_symmetry_space_group_name_H-M "I 4/M"
_symmetry_group_IT_number 87
_symmetry_cell_setting 'tetragonal'
loop_
_space_group_symop_operation_xyz
x,y,z
-y,x,z
-x,-y,z
y,-x,z
-x,-y,-z
y,-x,-z
x,y,-z
-y,x,-z
1/2+x,1/2+y,1/2+z
1/2-y,1/2+x,1/2+z
1/2-x,1/2-y,1/2+z
1/2+y,1/2-x,1/2+z
1/2-x,1/2-y,1/2-z
1/2+y,1/2-x,1/2-z
1/2+x,1/2+y,1/2-z
1/2-y,1/2+x,1/2-z
loop_
_atom_site_type_symbol
_atom_site_label
_atom_site_fract_x
_atom_site_fract_y
_atom_site_fract_z
Si Si1 0.467517 0.344145 0.855379
Si Si2 0.728217 0.900394 0.000000
Si Si3 0.154949 0.319324 0.742943
Si Si4 0.878140 0.716654 0.000000
O O1 0.572077 0.388551 0.825333
O O2 0.437160 0.248735 0.786893
O O3 0.462702 0.330100 0.000000
O O4 0.669417 0.885140 0.125254
O O5 0.807535 0.812106 0.000000
O O6 0.759310 0.012604 0.000000
O O7 0.250000 0.250000 0.750000
O O8 0.141267 0.349448 0.881726
#
# Coordination Sequence:
#
# PCOD9545866 Si02
#       4
#    16   8  16   8
#     4   9  18  33  56  89 120 153 203 255 310 372
#     4  10  22  45  65  93 125 168 205 250 321 370
#     4  10  21  38  58  88 125 167 203 241 315 377
#     4  10  24  39  63  98 126 159 204 261 311 379
#
# _framework density 23.018557999999999
#
# number of rings (size 3 to 8) (size 9 to 14) (size 15 to 20)
#    0.000    2.333    1.667    1.000    9.333    0.333 
#    0.000    1.667    0.000    3.000    0.000    0.000 
#    0.000    0.000    0.000    0.000    0.000    0.000 
#
# Total GULP energy -134039.006918 kJ/mol
# GULP energy per Si atom -5584.958622 kJ/mol
# Density = 2.296617 g / cm^3
# Si number density = 23.018558 Si / 1000 Ang^3
#
#
#
# Elastic Constant Matrix: (Units=GPa)
#
#
# Indices 1 2 3 4 5 6 
#
# 1 45.7608 19.8513 59.4312 0.0000 0.0000 -2.0880
# 2 19.8513 45.7608 59.4312 0.0000 0.0000 2.0880
# 3 59.4312 59.4312 187.9053 0.0000 0.0000 0.0000
# 4 0.0000 0.0000 0.0000 23.4711 0.0000 0.0000
# 5 0.0000 0.0000 0.0000 0.0000 23.4711 0.0000
# 6 -2.0880 2.0880 0.0000 0.0000 0.0000 16.9245
#
#
#
# Elastic Compliance Matrix: (Units=1/GPa)
#
#
# Indices 1 2 3 4 5 6 
#
# 1 0.037535 -0.001844 -0.011289 0.000000 0.000000 0.004858
# 2 -0.001844 0.037535 -0.011289 0.000000 0.000000 -0.004858
# 3 -0.011289 -0.011289 0.012463 0.000000 0.000000 0.000000
# 4 0.000000 0.000000 0.000000 0.042606 0.000000 0.000000
# 5 0.000000 0.000000 0.000000 0.000000 0.042606 0.000000
# 6 0.004858 -0.004858 0.000000 0.000000 0.000000 0.060285
#
#
# Mechanical properties :
#
#
# Convention : Reuss Voigt Hill
#
# Bulk Modulus (GPa) = 25.84577 61.87268 43.85923
# Shear Modulus (GPa) = 16.96253 22.15423 19.55838
#
# Velocity S-wave (km/s) = 2.71755 3.10570 2.91809
# Velocity P-wave (km/s) = 4.59340 6.30859 5.51805
#
# Compressibility (1/GPa) = 0.03869105
#
# Stress axis : x y z
#
# Youngs Moduli (GPa) = 26.64171 26.64171 80.24029
#
# Poissons Ratio (x) = 0.04912 0.90580
# Poissons Ratio (y) = 0.04912 0.90580
# Poissons Ratio (z) = 0.30075 0.30075
#
# Static dielectric constant tensor:
#      x y z
#    x 1.857680 0.000000 0.000000 
#    y 0.000000 1.857680 0.000000 
#    z 0.000000 0.000000 1.890310 
# 
# From -- ./inp_files/2089.got.cif
#   From: 2010.05.17/outbox.cif.g08.bks.cpg/sg87_2_cif.got.tgz:2089.got - 2010.06.03 19:07:00.
