data_PCOD9545828
_publ_section_title
;
Structure prediction by ZEFSAII (Michael W. Deem and Ramdas Pophale) SiO2 
 PCOD9545828
Probable space group: I 4/M
;
_chemical_formula_sum "Si O2"
_cell_formula_units_Z 96
_cell_length_a 19.590052
_cell_length_b 19.590052
_cell_length_c 13.819419
_cell_angle_alpha 90.000000
_cell_angle_beta 90.000000
_cell_angle_gamma 90.000000
_cell_volume 5303.480328
_symmetry_space_group_name_H-M "I 4/M"
_symmetry_group_IT_number 87
_symmetry_cell_setting 'tetragonal'
loop_
_space_group_symop_operation_xyz
x,y,z
-y,x,z
-x,-y,z
y,-x,z
-x,-y,-z
y,-x,-z
x,y,-z
-y,x,-z
1/2+x,1/2+y,1/2+z
1/2-y,1/2+x,1/2+z
1/2-x,1/2-y,1/2+z
1/2+y,1/2-x,1/2+z
1/2-x,1/2-y,1/2-z
1/2+y,1/2-x,1/2-z
1/2+x,1/2+y,1/2-z
1/2-y,1/2+x,1/2-z
loop_
_atom_site_type_symbol
_atom_site_label
_atom_site_fract_x
_atom_site_fract_y
_atom_site_fract_z
Si Si1 0.991088 0.400062 0.114575
Si Si2 0.568948 0.834515 0.883615
Si Si3 0.608796 0.508725 0.617701
Si Si4 0.753382 0.557090 0.615919
Si Si5 0.801093 0.687228 0.731906
Si Si6 0.644053 0.917762 0.384101
O O1 0.915126 0.422856 0.143199
O O2 0.989576 0.319278 0.133090
O O3 0.064402 0.427011 0.147143
O O4 0.991286 0.413599 0.000000
O O5 0.628061 0.795933 0.824781
O O6 0.489711 0.818422 0.863984
O O7 0.580483 0.828754 0.000000
O O8 0.560460 0.571430 0.647974
O O9 0.609302 0.507602 0.500000
O O10 0.685144 0.520599 0.650478
O O11 0.749711 0.567798 0.500000
O O12 0.764576 0.629815 0.665688
O O13 0.750000 0.750000 0.750000
O O14 0.823334 0.645682 0.828121
O O15 0.644581 0.906987 0.500000
#
# Coordination Sequence:
#
# PCOD9545828 Si02
#       6
#    16  16  16  16  16  16
#     4   8  15  30  52  78 105 134 173 213 256 316
#     4   9  19  37  58  79 111 146 179 222 275 330
#     4   8  14  26  46  72  99 131 172 214 265 327
#     4   9  18  33  50  72 107 144 173 213 273 332
#     4  11  24  36  51  80 109 144 185 232 284 339
#     4  10  21  36  55  80 108 145 187 226 267 326
#
# _framework density 18.101322
#
# number of rings (size 3 to 8) (size 9 to 14) (size 15 to 20)
#    0.000    2.833    0.000    2.500    4.667    4.667 
#    0.000    3.333    0.000    0.000    0.000    0.000 
#    0.000    0.000    0.000    5.500    0.000    0.167 
#
# Total GULP energy -267483.948664 kJ/mol
# GULP energy per Si atom -5572.582264 kJ/mol
# Density = 1.806012 g / cm^3
# Si number density = 18.101322 Si / 1000 Ang^3
#
#
#
# Elastic Constant Matrix: (Units=GPa)
#
#
# Indices 1 2 3 4 5 6 
#
# 1 74.4440 24.0804 5.1869 0.0000 0.0000 9.9101
# 2 24.0804 74.4440 5.1869 0.0000 0.0000 -9.9101
# 3 5.1869 5.1869 81.2642 0.0000 0.0000 0.0000
# 4 0.0000 0.0000 0.0000 19.8492 0.0000 0.0000
# 5 0.0000 0.0000 0.0000 0.0000 19.8492 0.0000
# 6 9.9101 -9.9101 0.0000 0.0000 0.0000 22.3148
#
#
#
# Elastic Compliance Matrix: (Units=1/GPa)
#
#
# Indices 1 2 3 4 5 6 
#
# 1 0.017140 -0.006921 -0.000652 0.000000 0.000000 -0.010686
# 2 -0.006921 0.017140 -0.000652 0.000000 0.000000 0.010686
# 3 -0.000652 -0.000652 0.012389 0.000000 0.000000 0.000000
# 4 0.000000 0.000000 0.000000 0.050380 0.000000 0.000000
# 5 0.000000 0.000000 0.000000 0.000000 0.050380 0.000000
# 6 -0.010686 0.010686 0.000000 0.000000 0.000000 0.054304
#
#
# Mechanical properties :
#
#
# Convention : Reuss Voigt Hill
#
# Bulk Modulus (GPa) = 33.09413 33.22893 33.16153
# Shear Modulus (GPa) = 21.90526 25.44917 23.67722
#
# Velocity S-wave (km/s) = 3.48249 3.75364 3.62060
# Velocity P-wave (km/s) = 5.87305 6.09782 5.98649
#
# Compressibility (1/GPa) = 0.03021684
#
# Stress axis : x y z
#
# Youngs Moduli (GPa) = 58.34428 58.34428 80.71806
#
# Poissons Ratio (x) = 0.40381 0.05265
# Poissons Ratio (y) = 0.40381 0.05265
# Poissons Ratio (z) = 0.03805 0.03805
#
# Static dielectric constant tensor:
#      x y z
#    x 1.594840 0.000000 0.000000 
#    y 0.000000 1.594840 0.000000 
#    z 0.000000 0.000000 1.669470 
# 
# From -- ./inp_files/3771.got.cif
#   From: 2010.05.17/outbox.cif.g08.bks.cpg/sg87_2_cif.got.tgz:3771.got - 2010.06.03 19:07:00.
