data_PCOD9545654
_publ_section_title
;
Structure prediction by ZEFSAII (Michael W. Deem and Ramdas Pophale) SiO2 
 PCOD9545654
Probable space group: I 4/M
;
_chemical_formula_sum "Si O2"
_cell_formula_units_Z 120
_cell_length_a 27.412963
_cell_length_b 27.412963
_cell_length_c 8.813681
_cell_angle_alpha 90.000000
_cell_angle_beta 90.000000
_cell_angle_gamma 90.000000
_cell_volume 6623.221624
_symmetry_space_group_name_H-M "I 4/M"
_symmetry_group_IT_number 87
_symmetry_cell_setting 'tetragonal'
loop_
_space_group_symop_operation_xyz
x,y,z
-y,x,z
-x,-y,z
y,-x,z
-x,-y,-z
y,-x,-z
x,y,-z
-y,x,-z
1/2+x,1/2+y,1/2+z
1/2-y,1/2+x,1/2+z
1/2-x,1/2-y,1/2+z
1/2+y,1/2-x,1/2+z
1/2-x,1/2-y,1/2-z
1/2+y,1/2-x,1/2-z
1/2+x,1/2+y,1/2-z
1/2-y,1/2+x,1/2-z
loop_
_atom_site_type_symbol
_atom_site_label
_atom_site_fract_x
_atom_site_fract_y
_atom_site_fract_z
Si Si1 0.419205 0.487128 0.000000
Si Si2 0.694029 0.837954 0.318152
Si Si3 0.326531 0.463411 0.171271
Si Si4 0.150675 0.235870 0.184447
Si Si5 0.863452 0.202393 0.181825
Si Si6 0.013850 0.358827 0.182038
Si Si7 0.096045 0.609375 0.180792
Si Si8 0.961555 0.752058 0.817103
O O1 0.460984 0.446044 0.000000
O O2 0.382254 0.480234 0.858182
O O3 0.698143 0.839023 0.500000
O O4 0.683117 0.782192 0.268569
O O5 0.742928 0.858615 0.244352
O O6 0.648027 0.869739 0.265906
O O7 0.321877 0.413086 0.260513
O O8 0.293893 0.504710 0.248178
O O9 0.307231 0.454836 0.000000
O O10 0.172841 0.184467 0.234288
O O11 0.094678 0.242857 0.233019
O O12 0.150381 0.236066 0.000000
O O13 0.863721 0.203806 0.000000
O O14 0.055757 0.388783 0.265835
O O15 0.018996 0.301732 0.223499
O O16 0.960099 0.378440 0.216214
O O17 0.021757 0.362256 0.000000
O O18 0.102769 0.614565 0.000000
O O19 0.962957 0.755850 0.000000
#
# Coordination Sequence:
#
# PCOD9545654 Si02
#       8
#     8  16  16  16  16  16  16  16
#     4   9  22  44  66  88 126 164 204 257 324 388
#     4  11  21  39  61  86 122 163 201 242 301 366
#     4  10  23  36  61  91 118 155 205 248 311 358
#     4   9  20  36  60  87 118 161 200 241 304 362
#     4  11  22  37  57  88 127 159 201 247 298 365
#     4  10  22  40  60  81 115 157 194 245 303 354
#     4  11  23  38  60  88 114 152 203 251 303 356
#     4  10  19  38  62  86 119 158 197 248 307 367
#
# _framework density 18.118069999999999
#
# number of rings (size 3 to 8) (size 9 to 14) (size 15 to 20)
#    0.400    1.400    1.333    2.800    1.867    2.933 
#    0.000    4.000    0.000    0.000    0.000    3.733 
#    0.000    0.000    0.000    0.000    0.000    0.000 
#
# Total GULP energy -334957.155277 kJ/mol
# GULP energy per Si atom -5582.619255 kJ/mol
# Density = 1.807683 g / cm^3
# Si number density = 18.118070 Si / 1000 Ang^3
#
#
#
# Elastic Constant Matrix: (Units=GPa)
#
#
# Indices 1 2 3 4 5 6 
#
# 1 86.6976 24.2654 17.2260 0.0000 0.0000 -0.3492
# 2 24.2654 86.6976 17.2260 0.0000 0.0000 0.3492
# 3 17.2260 17.2260 35.4703 0.0000 0.0000 0.0000
# 4 0.0000 0.0000 0.0000 18.9108 0.0000 0.0000
# 5 0.0000 0.0000 0.0000 0.0000 18.9108 0.0000
# 6 -0.3492 0.3492 0.0000 0.0000 0.0000 -12.0815
#
#
#
# Elastic Compliance Matrix: (Units=1/GPa)
#
#
# Indices 1 2 3 4 5 6 
#
# 1 0.013312 -0.002700 -0.005154 0.000000 0.000000 -0.000463
# 2 -0.002700 0.013312 -0.005154 0.000000 0.000000 0.000463
# 3 -0.005154 -0.005154 0.033198 0.000000 0.000000 0.000000
# 4 0.000000 0.000000 0.000000 0.052880 0.000000 0.000000
# 5 0.000000 0.000000 0.000000 0.000000 0.052880 0.000000
# 6 -0.000463 0.000463 0.000000 0.000000 0.000000 -0.082744
#
#
# Mechanical properties :
#
#
# Convention : Reuss Voigt Hill
#
# Bulk Modulus (GPa) = 29.57906 36.25560 32.91733
# Shear Modulus (GPa) = 41.62426 15.15789 28.39107
#
# Velocity S-wave (km/s) = 4.79831 2.89557 3.96283
# Velocity P-wave (km/s) = 6.85999 5.58868 6.25671
#
# Compressibility (1/GPa) = 0.03380770
#
# Stress axis : x y z
#
# Youngs Moduli (GPa) = 75.11913 75.11913 30.12193
#
# Poissons Ratio (x) = 0.20282 0.15524
# Poissons Ratio (y) = 0.20282 0.15524
# Poissons Ratio (z) = 0.38715 0.38715
#
# Static dielectric constant tensor:
#      x y z
#    x 1.600590 0.000000 0.000000 
#    y 0.000000 1.600590 0.000000 
#    z 0.000000 0.000000 1.611820 
# 
# From -- ./inp_files/1727.got.cif
#   From: 2010.05.17/outbox.cif.g08.bks.cpg/sg87_1_cif.got.tgz:1727.got - 2010.06.03 19:07:00.
