data_PCOD9545155
_publ_section_title
;
Structure prediction by ZEFSAII (Michael W. Deem and Ramdas Pophale) SiO2 
 PCOD9545155
Probable space group: P 42/N
;
_chemical_formula_sum "Si O2"
_cell_formula_units_Z 50
_cell_length_a 21.892488
_cell_length_b 21.892488
_cell_length_c 5.297889
_cell_angle_alpha 90.000000
_cell_angle_beta 90.000000
_cell_angle_gamma 90.000000
_cell_volume 2539.177701
_symmetry_space_group_name_H-M "P 42/N"
_symmetry_group_IT_number 86
_space_group.IT_coordinate_system_code '2'
_symmetry_cell_setting 'tetragonal'
loop_
_space_group_symop_operation_xyz
x,y,z
-y,1/2+x,1/2+z
1/2-x,1/2-y,z
1/2+y,-x,1/2+z
-x,-y,-z
y,1/2-x,1/2-z
1/2+x,1/2+y,-z
1/2-y,x,1/2-z
loop_
_atom_site_type_symbol
_atom_site_label
_atom_site_fract_x
_atom_site_fract_y
_atom_site_fract_z
Si Si1 0.966320 0.061898 0.400741
Si Si2 0.201291 0.322604 0.136131
Si Si3 0.372717 0.492836 0.885007
Si Si4 0.638777 0.353061 0.606302
Si Si5 0.401598 0.415203 0.380083
Si Si6 0.750000 0.750000 0.250000
Si Si7 0.710181 0.395297 0.109868
O O1 0.928180 0.041070 0.156956
O O2 0.917442 0.098449 0.571113
O O3 0.026722 0.100064 0.355650
O O4 0.000000 0.000000 0.500000
O O5 0.254666 0.327439 0.339840
O O6 0.149044 0.369551 0.139490
O O7 0.240811 0.314661 0.887941
O O8 0.381421 0.448543 0.641498
O O9 0.311588 0.533649 0.878833
O O10 0.381606 0.457509 0.145454
O O11 0.681558 0.364163 0.360667
O O12 0.614966 0.283110 0.605464
O O13 0.677342 0.367845 0.859249
#
# Coordination Sequence:
#
# PCOD9545155 Si02
#       7
#     8   8   8   8   8   2   8
#     4   9  20  41  61  87 120 162 198 243 305 360
#     4   9  21  38  59  84 120 161 201 255 309 353
#     4  10  22  39  61  87 128 156 193 256 307 351
#     4  11  24  40  65  89 124 162 200 254 300 367
#     4  11  22  37  63  91 115 162 210 244 296 377
#     4   8  18  40  60  70 128 160 190 248 318 348
#     4  11  23  42  62  91 124 159 202 248 310 354
#
# _framework density 19.691414000000002
#
# number of rings (size 3 to 8) (size 9 to 14) (size 15 to 20)
#    0.000    2.080    0.000    4.320    4.480    7.040 
#    0.000    1.600    0.000    0.000    0.000    0.000 
#    0.000    0.000    0.000    0.000    0.000    0.000 
#
# Total GULP energy -278360.248007 kJ/mol
# GULP energy per Si atom -5567.204960 kJ/mol
# Density = 1.964660 g / cm^3
# Si number density = 19.691414 Si / 1000 Ang^3
#
#
#
# Elastic Constant Matrix: (Units=GPa)
#
#
# Indices 1 2 3 4 5 6 
#
# 1 124.5649 122.4510 64.3931 0.0000 0.0000 1.8618
# 2 122.4510 124.5649 64.3931 0.0000 0.0000 -1.8618
# 3 64.3931 64.3931 158.3667 0.0000 0.0000 0.0000
# 4 0.0000 0.0000 0.0000 10.9555 0.0000 0.0000
# 5 0.0000 0.0000 0.0000 0.0000 10.9555 0.0000
# 6 1.8618 -1.8618 0.0000 0.0000 0.0000 40.0534
#
#
#
# Elastic Compliance Matrix: (Units=1/GPa)
#
#
# Indices 1 2 3 4 5 6 
#
# 1 0.260192 -0.255055 -0.002089 0.000000 0.000000 -0.023950
# 2 -0.255055 0.260192 -0.002089 0.000000 0.000000 0.023950
# 3 -0.002089 -0.002089 0.008013 0.000000 0.000000 0.000000
# 4 0.000000 0.000000 0.000000 0.091279 0.000000 0.000000
# 5 0.000000 0.000000 0.000000 0.000000 0.091279 0.000000
# 6 -0.023950 0.023950 0.000000 0.000000 0.000000 0.027193
#
#
# Mechanical properties :
#
#
# Convention : Reuss Voigt Hill
#
# Bulk Modulus (GPa) = 100.68088 101.10790 100.89439
# Shear Modulus (GPa) = 3.96849 22.81015 13.38932
#
# Velocity S-wave (km/s) = 1.42117 3.40719 2.61043
# Velocity P-wave (km/s) = 7.34393 8.18146 7.77398
#
# Compressibility (1/GPa) = 0.00993237
#
# Stress axis : x y z
#
# Youngs Moduli (GPa) = 3.84331 3.84331 124.79420
#
# Poissons Ratio (x) = 0.98026 0.26068
# Poissons Ratio (y) = 0.98026 0.26068
# Poissons Ratio (z) = 0.00803 0.00803
#
# Static dielectric constant tensor:
#      x y z
#    x 1.724060 0.000000 0.000000 
#    y 0.000000 1.724060 0.000000 
#    z 0.000000 0.000000 1.069990 
# 
# From -- ./inp_files/428.got.cif
#   From: 2010.05.17/outbox.cif.g08.bks.cpg/sg86_1_cif.got.tgz:428.got - 2010.06.03 19:03:11.
