data_PCOD9545480
_publ_section_title
;
Structure prediction by ZEFSAII (Michael W. Deem and Ramdas Pophale) SiO2 
 PCOD9545480
Probable space group: I 4/M
;
_chemical_formula_sum "Si O2"
_cell_formula_units_Z 80
_cell_length_a 16.025010
_cell_length_b 16.025010
_cell_length_c 14.302649
_cell_angle_alpha 90.000000
_cell_angle_beta 90.000000
_cell_angle_gamma 90.000000
_cell_volume 3672.933786
_symmetry_space_group_name_H-M "I 4/M"
_symmetry_group_IT_number 87
_symmetry_cell_setting 'tetragonal'
loop_
_space_group_symop_operation_xyz
x,y,z
-y,x,z
-x,-y,z
y,-x,z
-x,-y,-z
y,-x,-z
x,y,-z
-y,x,-z
1/2+x,1/2+y,1/2+z
1/2-y,1/2+x,1/2+z
1/2-x,1/2-y,1/2+z
1/2+y,1/2-x,1/2+z
1/2-x,1/2-y,1/2-z
1/2+y,1/2-x,1/2-z
1/2+x,1/2+y,1/2-z
1/2-y,1/2+x,1/2-z
loop_
_atom_site_type_symbol
_atom_site_label
_atom_site_fract_x
_atom_site_fract_y
_atom_site_fract_z
Si Si1 0.411527 0.393635 0.000000
Si Si2 0.177917 0.443729 0.000000
Si Si3 0.651330 0.143451 0.500000
Si Si4 0.740173 0.019098 0.796091
Si Si5 0.538642 0.799315 0.500000
Si Si6 0.897997 0.196383 0.333809
Si Si7 0.181938 0.335746 0.702592
O O1 0.509313 0.386631 0.000000
O O2 0.375378 0.364567 0.098612
O O3 0.161798 0.543126 0.000000
O O4 0.231840 0.423478 0.092225
O O5 0.102060 0.377757 0.000000
O O6 0.553626 0.162628 0.500000
O O7 0.687159 0.185137 0.593728
O O8 0.753405 0.044577 0.903979
O O9 0.700257 0.098323 0.746544
O O10 0.815580 0.977705 0.735313
O O11 0.677553 0.938855 0.796291
O O12 0.828914 0.234322 0.265018
#
# Coordination Sequence:
#
# PCOD9545480 Si02
#       7
#     8   8   8  16   8  16  16
#     4  10  22  43  69  86  88 102 160 244 308 334
#     4  11  15  23  35  63  99 150 192 214 235 259
#     4  10  16  21  33  61 102 159 196 210 221 265
#     4   9  16  25  37  65 107 152 186 210 238 287
#     4  10  16  21  33  61 102 159 196 210 221 265
#     4   9  19  30  47  74 101 132 162 219 271 308
#     4   9  16  25  37  65 107 152 186 210 238 287
#
# _framework density 21.780954999999999
#
# number of rings (size 3 to 8) (size 9 to 14) (size 15 to 20)
#    1.200    1.300    4.000    0.300    0.000    0.400 
#    0.000    0.000    0.000    1.200    0.000    5.600 
#    0.000    6.400    0.000    0.000    0.000    0.000 
#
# Total GULP energy -222814.443988 kJ/mol
# GULP energy per Si atom -5570.361100 kJ/mol
# Density = 2.173138 g / cm^3
# Si number density = 21.780955 Si / 1000 Ang^3
#
#
#
# Elastic Constant Matrix: (Units=GPa)
#
#
# Indices 1 2 3 4 5 6 
#
# 1 62.3899 0.5086 26.3095 0.0000 0.0000 2.8169
# 2 0.5086 62.3899 26.3095 0.0000 0.0000 -2.8169
# 3 26.3095 26.3095 186.0776 0.0000 0.0000 0.0000
# 4 0.0000 0.0000 0.0000 16.6951 0.0000 0.0000
# 5 0.0000 0.0000 0.0000 0.0000 16.6951 0.0000
# 6 2.8169 -2.8169 0.0000 0.0000 0.0000 -7.7524
#
#
#
# Elastic Compliance Matrix: (Units=1/GPa)
#
#
# Indices 1 2 3 4 5 6 
#
# 1 0.016837 0.001194 -0.002549 0.000000 0.000000 0.005684
# 2 0.001194 0.016837 -0.002549 0.000000 0.000000 -0.005684
# 3 -0.002549 -0.002549 0.006095 0.000000 0.000000 0.000000
# 4 0.000000 0.000000 0.000000 0.059898 0.000000 0.000000
# 5 0.000000 0.000000 0.000000 0.000000 0.059898 0.000000
# 6 0.005684 -0.005684 0.000000 0.000000 0.000000 -0.124862
#
#
# Mechanical properties :
#
#
# Convention : Reuss Voigt Hill
#
# Bulk Modulus (GPa) = 31.28905 46.34584 38.81745
# Shear Modulus (GPa) = 94.04703 22.30955 58.17829
#
# Velocity S-wave (km/s) = 6.57817 3.20389 5.17384
# Velocity P-wave (km/s) = 8.49075 5.91700 7.31792
#
# Compressibility (1/GPa) = 0.03196006
#
# Stress axis : x y z
#
# Youngs Moduli (GPa) = 59.39310 59.39310 164.06787
#
# Poissons Ratio (x) = -0.07094 0.41828
# Poissons Ratio (y) = -0.07094 0.41828
# Poissons Ratio (z) = 0.15142 0.15142
#
# Static dielectric constant tensor:
#      x y z
#    x 1.810800 0.000000 0.000000 
#    y 0.000000 1.810800 0.000000 
#    z 0.000000 0.000000 1.895730 
# 
# From -- ./inp_files/3595.got.cif
#   From: 2010.05.17/outbox.cif.g08.bks.cpg/sg87_2_cif.got.tgz:3595.got - 2010.06.03 19:07:00.
