data_PCOD9545859
_publ_section_title
;
Structure prediction by ZEFSAII (Michael W. Deem and Ramdas Pophale) SiO2 
 PCOD9545859
Probable space group: I 4/M
;
_chemical_formula_sum "Si O2"
_cell_formula_units_Z 88
_cell_length_a 13.809027
_cell_length_b 13.809027
_cell_length_c 19.874353
_cell_angle_alpha 90.000000
_cell_angle_beta 90.000000
_cell_angle_gamma 90.000000
_cell_volume 3789.825004
_symmetry_space_group_name_H-M "I 4/M"
_symmetry_group_IT_number 87
_symmetry_cell_setting 'tetragonal'
loop_
_space_group_symop_operation_xyz
x,y,z
-y,x,z
-x,-y,z
y,-x,z
-x,-y,-z
y,-x,-z
x,y,-z
-y,x,-z
1/2+x,1/2+y,1/2+z
1/2-y,1/2+x,1/2+z
1/2-x,1/2-y,1/2+z
1/2+y,1/2-x,1/2+z
1/2-x,1/2-y,1/2-z
1/2+y,1/2-x,1/2-z
1/2+x,1/2+y,1/2-z
1/2-y,1/2+x,1/2-z
loop_
_atom_site_type_symbol
_atom_site_label
_atom_site_fract_x
_atom_site_fract_y
_atom_site_fract_z
Si Si1 0.370364 0.598190 0.000000
Si Si2 0.246741 0.539862 0.764186
Si Si3 0.817989 0.757866 0.372784
Si Si4 0.657834 0.501938 0.624451
Si Si5 0.860676 0.620477 0.158708
Si Si6 0.042345 0.637807 0.923958
O O1 0.369063 0.481969 0.000000
O O2 0.316461 0.639423 0.064858
O O3 0.291806 0.629030 0.804624
O O4 0.310178 0.498686 0.703136
O O5 0.212956 0.462507 0.819142
O O6 0.154065 0.582846 0.725281
O O7 0.705548 0.789081 0.365982
O O8 0.848146 0.644792 0.384145
O O9 0.591544 0.593827 0.611723
O O10 0.751526 0.505303 0.578830
O O11 0.946273 0.588111 0.108406
O O12 0.061767 0.605658 0.000000
#
# Coordination Sequence:
#
# PCOD9545859 Si02
#       6
#     8  16  16  16  16  16
#     4  11  26  48  72 102 136 175 230 286 346 410
#     4  11  22  42  65  98 134 179 229 288 351 410
#     4  12  24  45  71  99 136 187 229 288 348 408
#     4  10  21  37  63  98 133 173 229 289 349 412
#     4  11  25  41  69 100 138 179 232 286 347 414
#     4  11  24  42  64  96 135 186 233 279 338 414
#
# _framework density 23.220068999999999
#
# number of rings (size 3 to 8) (size 9 to 14) (size 15 to 20)
#    0.000    1.000    0.909    7.091    1.273    4.727 
#    1.636    3.636    0.000    0.000    0.000    0.000 
#    0.000    0.000    0.000    0.000    0.000    0.000 
#
# Total GULP energy -245979.759649 kJ/mol
# GULP energy per Si atom -5590.449083 kJ/mol
# Density = 2.316722 g / cm^3
# Si number density = 23.220069 Si / 1000 Ang^3
#
#
#
# Elastic Constant Matrix: (Units=GPa)
#
#
# Indices 1 2 3 4 5 6 
#
# 1 -55.0538 -107.0332 -75.3547 0.0000 0.0000 -5.9153
# 2 -107.0332 -55.0538 -75.3547 0.0000 0.0000 5.9153
# 3 -75.3547 -75.3547 43.4004 0.0000 0.0000 0.0000
# 4 0.0000 0.0000 0.0000 23.0108 0.0000 0.0000
# 5 0.0000 0.0000 0.0000 0.0000 23.0108 0.0000
# 6 -5.9153 5.9153 0.0000 0.0000 0.0000 33.7036
#
#
#
# Elastic Compliance Matrix: (Units=1/GPa)
#
#
# Indices 1 2 3 4 5 6 
#
# 1 0.008840 -0.011199 -0.004097 0.000000 0.000000 0.003517
# 2 -0.011199 0.008840 -0.004097 0.000000 0.000000 -0.003517
# 3 -0.004097 -0.004097 0.008813 0.000000 0.000000 0.000000
# 4 0.000000 0.000000 0.000000 0.043458 0.000000 0.000000
# 5 0.000000 0.000000 0.000000 0.000000 0.043458 0.000000
# 6 0.003517 -0.003517 0.000000 0.000000 0.000000 0.030905
#
#
# Mechanical properties :
#
#
# Convention : Reuss Voigt Hill
#
# Bulk Modulus (GPa) = -81.32975 -64.68808 -73.00892
# Shear Modulus (GPa) = 27.93261 28.68074 28.30667
#
# Velocity S-wave (km/s) = 3.47212 3.51831 3.49529
# Velocity P-wave (km/s) = 4.36205 3.37853 3.90141
#
# Compressibility (1/GPa) = -0.01229562
#
# Stress axis : x y z
#
# Youngs Moduli (GPa) = 113.12829 113.12829 113.46563
#
# Poissons Ratio (x) = 1.26696 0.46490
# Poissons Ratio (y) = 1.26696 0.46490
# Poissons Ratio (z) = 0.46352 0.46352
#
# Static dielectric constant tensor:
#      x y z
#    x 1.893390 0.000000 0.000000 
#    y 0.000000 1.893390 0.000000 
#    z 0.000000 0.000000 1.843470 
# 
# From -- ./inp_files/5193.got.cif
#   From: 2010.05.17/outbox.cif.g08.bks.cpg/sg87_3_cif.got.tgz:5193.got - 2010.06.03 19:07:00.
