data_PCOD9545915
_publ_section_title
;
Structure prediction by ZEFSAII (Michael W. Deem and Ramdas Pophale) SiO2 
 PCOD9545915
Probable space group: I 4/M
;
_chemical_formula_sum "Si O2"
_cell_formula_units_Z 84
_cell_length_a 11.584170
_cell_length_b 11.584170
_cell_length_c 31.753651
_cell_angle_alpha 90.000000
_cell_angle_beta 90.000000
_cell_angle_gamma 90.000000
_cell_volume 4261.117517
_symmetry_space_group_name_H-M "I 4/M"
_symmetry_group_IT_number 87
_symmetry_cell_setting 'tetragonal'
loop_
_space_group_symop_operation_xyz
x,y,z
-y,x,z
-x,-y,z
y,-x,z
-x,-y,-z
y,-x,-z
x,y,-z
-y,x,-z
1/2+x,1/2+y,1/2+z
1/2-y,1/2+x,1/2+z
1/2-x,1/2-y,1/2+z
1/2+y,1/2-x,1/2+z
1/2-x,1/2-y,1/2-z
1/2+y,1/2-x,1/2-z
1/2+x,1/2+y,1/2-z
1/2-y,1/2+x,1/2-z
loop_
_atom_site_type_symbol
_atom_site_label
_atom_site_fract_x
_atom_site_fract_y
_atom_site_fract_z
Si Si1 0.324663 0.425976 0.949710
Si Si2 0.591669 0.329954 0.191571
Si Si3 0.000000 0.000000 0.173318
Si Si4 0.161592 0.411390 0.263281
Si Si5 0.255239 0.070991 0.148129
Si Si6 0.690071 0.174026 0.117340
O O1 0.441118 0.354204 0.938877
O O2 0.219317 0.374730 0.923803
O O3 0.308920 0.419637 0.000000
O O4 0.648421 0.455054 0.187424
O O5 0.619714 0.275061 0.236952
O O6 0.631562 0.239362 0.156637
O O7 0.859725 0.980095 0.169870
O O8 0.144635 0.549111 0.257623
O O9 0.169182 0.385595 0.312612
O O10 0.217321 0.176699 0.118592
O O11 0.311984 0.963253 0.124148
#
# Coordination Sequence:
#
# PCOD9545915 Si02
#       6
#    16  16   4  16  16  16
#     4   9  19  39  68  95 119 146 181 234 295 352
#     4  11  24  36  56  83 110 148 200 253 290 340
#     4   8  20  36  56  76 101 144 216 244 289 328
#     4  11  23  38  52  76 114 155 201 245 307 344
#     4  10  22  37  57  79 112 160 197 247 285 346
#     4  11  21  40  59  86 117 154 198 239 293 350
#
# _framework density 19.713139999999999
#
# number of rings (size 3 to 8) (size 9 to 14) (size 15 to 20)
#    0.000    1.714    1.905    2.857    5.333    3.048 
#    0.000    0.952    0.000    2.286    0.000    4.000 
#    0.000    0.000    0.000    0.000    0.000    0.000 
#
# Total GULP energy -234324.549169 kJ/mol
# GULP energy per Si atom -5579.155933 kJ/mol
# Density = 1.966827 g / cm^3
# Si number density = 19.713140 Si / 1000 Ang^3
#
#
#
# Elastic Constant Matrix: (Units=GPa)
#
#
# Indices 1 2 3 4 5 6 
#
# 1 77.8729 15.1588 13.3919 0.0000 0.0000 0.6872
# 2 15.1588 77.8729 13.3919 0.0000 0.0000 -0.6872
# 3 13.3919 13.3919 42.8823 0.0000 0.0000 0.0000
# 4 0.0000 0.0000 0.0000 24.8453 0.0000 0.0000
# 5 0.0000 0.0000 0.0000 0.0000 24.8453 0.0000
# 6 0.6872 -0.6872 0.0000 0.0000 0.0000 32.4279
#
#
#
# Elastic Compliance Matrix: (Units=1/GPa)
#
#
# Indices 1 2 3 4 5 6 
#
# 1 0.013882 -0.002071 -0.003689 0.000000 0.000000 -0.000338
# 2 -0.002071 0.013882 -0.003689 0.000000 0.000000 0.000338
# 3 -0.003689 -0.003689 0.025623 0.000000 0.000000 0.000000
# 4 0.000000 0.000000 0.000000 0.040249 0.000000 0.000000
# 5 0.000000 0.000000 0.000000 0.000000 0.040249 0.000000
# 6 -0.000338 0.000338 0.000000 0.000000 0.000000 0.030852
#
#
# Mechanical properties :
#
#
# Convention : Reuss Voigt Hill
#
# Bulk Modulus (GPa) = 28.99278 31.39037 30.19157
# Shear Modulus (GPa) = 25.62388 26.86936 26.24662
#
# Velocity S-wave (km/s) = 3.60924 3.69591 3.65283
# Velocity P-wave (km/s) = 5.66640 5.84561 5.75670
#
# Compressibility (1/GPa) = 0.03449135
#
# Stress axis : x y z
#
# Youngs Moduli (GPa) = 72.03637 72.03638 39.02672
#
# Poissons Ratio (x) = 0.14918 0.14395
# Poissons Ratio (y) = 0.14918 0.14395
# Poissons Ratio (z) = 0.26571 0.26571
#
# Static dielectric constant tensor:
#      x y z
#    x 1.716170 0.000000 0.000000 
#    y 0.000000 1.716170 0.000000 
#    z 0.000000 0.000000 1.670730 
# 
# From -- ./inp_files/6589.got.cif
#   From: 2010.05.17/outbox.cif.g08.bks.cpg/sg87_4_cif.got.tgz:6589.got - 2010.06.03 19:07:00.
