data_PCOD9545926
_publ_section_title
;
Structure prediction by ZEFSAII (Michael W. Deem and Ramdas Pophale) SiO2 
 PCOD9545926
Probable space group: I 4/M
;
_chemical_formula_sum "Si O2"
_cell_formula_units_Z 80
_cell_length_a 17.109094
_cell_length_b 17.109094
_cell_length_c 14.082522
_cell_angle_alpha 90.000000
_cell_angle_beta 90.000000
_cell_angle_gamma 90.000000
_cell_volume 4122.251295
_symmetry_space_group_name_H-M "I 4/M"
_symmetry_group_IT_number 87
_symmetry_cell_setting 'tetragonal'
loop_
_space_group_symop_operation_xyz
x,y,z
-y,x,z
-x,-y,z
y,-x,z
-x,-y,-z
y,-x,-z
x,y,-z
-y,x,-z
1/2+x,1/2+y,1/2+z
1/2-y,1/2+x,1/2+z
1/2-x,1/2-y,1/2+z
1/2+y,1/2-x,1/2+z
1/2-x,1/2-y,1/2-z
1/2+y,1/2-x,1/2-z
1/2+x,1/2+y,1/2-z
1/2-y,1/2+x,1/2-z
loop_
_atom_site_type_symbol
_atom_site_label
_atom_site_fract_x
_atom_site_fract_y
_atom_site_fract_z
Si Si1 0.968914 0.874312 0.887258
Si Si2 0.592213 0.096983 0.885211
Si Si3 0.582503 0.077130 0.388255
Si Si4 0.800056 0.715706 0.391274
Si Si5 0.756335 0.139354 0.196558
O O1 0.940495 0.799238 0.830265
O O2 0.054563 0.908649 0.867062
O O3 0.965778 0.857523 0.000000
O O4 0.504209 0.123756 0.858137
O O5 0.664899 0.135203 0.831797
O O6 0.589632 0.005679 0.855233
O O7 0.604653 0.104593 0.000000
O O8 0.571588 0.063195 0.500000
O O9 0.635025 0.153067 0.379633
O O10 0.810989 0.742642 0.500000
O O11 0.836248 0.767139 0.306089
O O12 0.708833 0.708389 0.367856
#
# Coordination Sequence:
#
# PCOD9545926 Si02
#       5
#    16  16  16  16  16
#     4   9  19  36  58  87 118 142 173 226 285 333
#     4   9  17  32  55  86 114 144 184 223 271 335
#     4   8  17  34  55  78 114 151 179 222 278 330
#     4  10  22  39  52  76 112 146 186 232 278 326
#     4  11  22  34  58  84 109 147 189 232 277 335
#
# _framework density 19.406870999999999
#
# number of rings (size 3 to 8) (size 9 to 14) (size 15 to 20)
#    0.000    2.600    0.000    3.600    2.800    1.600 
#    3.600    2.000    0.000    0.000    0.000    1.400 
#    0.000    0.000    0.000    0.000    0.000    0.000 
#
# Total GULP energy -222963.034887 kJ/mol
# GULP energy per Si atom -5574.075872 kJ/mol
# Density = 1.936270 g / cm^3
# Si number density = 19.406871 Si / 1000 Ang^3
#
#
#
# Elastic Constant Matrix: (Units=GPa)
#
#
# Indices 1 2 3 4 5 6 
#
# 1 41.5037 34.6382 9.8077 0.0000 0.0000 -9.9398
# 2 34.6382 41.5037 9.8077 0.0000 0.0000 9.9398
# 3 9.8077 9.8077 117.5976 0.0000 0.0000 0.0000
# 4 0.0000 0.0000 0.0000 -0.1996 0.0000 0.0000
# 5 0.0000 0.0000 0.0000 0.0000 -0.1996 0.0000
# 6 -9.9398 9.9398 0.0000 0.0000 0.0000 35.3494
#
#
#
# Elastic Compliance Matrix: (Units=1/GPa)
#
#
# Indices 1 2 3 4 5 6 
#
# 1 0.398698 -0.385276 -0.001119 0.000000 0.000000 0.220444
# 2 -0.385276 0.398698 -0.001119 0.000000 0.000000 -0.220444
# 3 -0.001119 -0.001119 0.008690 0.000000 0.000000 0.000000
# 4 0.000000 0.000000 0.000000 -5.009613 0.000000 0.000000
# 5 0.000000 0.000000 0.000000 0.000000 -5.009613 0.000000
# 6 0.220444 -0.220444 0.000000 0.000000 0.000000 0.152261
#
#
# Mechanical properties :
#
#
# Convention : Reuss Voigt Hill
#
# Bulk Modulus (GPa) = 32.19962 34.34579 33.27270
# Shear Modulus (GPa) = -0.60419 16.74679 8.07130
#
# Velocity S-wave (km/s) = -0.55857 2.94076 2.04157
# Velocity P-wave (km/s) = 4.02640 5.40989 4.76858
#
# Compressibility (1/GPa) = 0.03105627
#
# Stress axis : x y z
#
# Youngs Moduli (GPa) = 2.50817 2.50817 115.07104
#
# Poissons Ratio (x) = 0.96634 0.12881
# Poissons Ratio (y) = 0.96634 0.12881
# Poissons Ratio (z) = 0.00281 0.00281
#
# Static dielectric constant tensor:
#      x y z
#    x 1.704010 0.000000 0.000000 
#    y 0.000000 1.704010 0.000000 
#    z 0.000000 0.000000 1.732090 
# 
# From -- ./inp_files/3508.got.cif
#   From: 2010.05.17/outbox.cif.g08.bks.cpg/sg87_2_cif.got.tgz:3508.got - 2010.06.03 19:07:00.
