data_PCOD9545435
_publ_section_title
;
Structure prediction by ZEFSAII (Michael W. Deem and Ramdas Pophale) SiO2 
 PCOD9545435
Probable space group: P 42/N
;
_chemical_formula_sum "Si O2"
_cell_formula_units_Z 40
_cell_length_a 8.701119
_cell_length_b 8.701119
_cell_length_c 22.190678
_cell_angle_alpha 90.000000
_cell_angle_beta 90.000000
_cell_angle_gamma 90.000000
_cell_volume 1680.044511
_symmetry_space_group_name_H-M "P 42/N"
_symmetry_group_IT_number 86
_space_group.IT_coordinate_system_code '2'
_symmetry_cell_setting 'tetragonal'
loop_
_space_group_symop_operation_xyz
x,y,z
-y,1/2+x,1/2+z
1/2-x,1/2-y,z
1/2+y,-x,1/2+z
-x,-y,-z
y,1/2-x,1/2-z
1/2+x,1/2+y,-z
1/2-y,x,1/2-z
loop_
_atom_site_type_symbol
_atom_site_label
_atom_site_fract_x
_atom_site_fract_y
_atom_site_fract_z
Si Si1 0.166010 0.408835 0.909519
Si Si2 0.425584 0.823460 0.516834
Si Si3 0.322271 0.404960 0.141207
Si Si4 0.368582 0.609987 0.675461
Si Si5 0.410980 0.838870 0.304683
O O1 0.250000 0.250000 0.916778
O O2 0.250821 0.496680 0.855669
O O3 0.996472 0.380133 0.883115
O O4 0.201789 0.493355 0.971888
O O5 0.250000 0.750000 0.513496
O O6 0.478132 0.822543 0.585645
O O7 0.500000 0.000000 0.500000
O O8 0.250000 0.250000 0.116299
O O9 0.195657 0.470277 0.186953
O O10 0.487949 0.391630 0.170981
O O11 0.250000 0.750000 0.670533
O O12 0.333371 0.520020 0.737280
O O13 0.250000 0.750000 0.300582
#
# Coordination Sequence:
#
# PCOD9545435 Si02
#       5
#     8   8   8   8   8
#     4  12  27  48  82 114 157 213 266 335 406 486
#     4  12  29  54  85 116 164 210 277 344 413 500
#     4  12  27  47  78 115 156 212 268 335 403 487
#     4  11  28  46  75 116 163 210 274 331 408 490
#     4  11  26  48  75 116 164 214 267 334 407 494
#
# _framework density 23.808893000000001
#
# number of rings (size 3 to 8) (size 9 to 14) (size 15 to 20)
#    0.000    0.400    2.000    4.200   16.800    0.800 
#    0.000    0.000    0.000    0.000    0.000    0.000 
#    0.000    0.000    0.000    0.000    0.000    0.000 
#
# Total GULP energy -223215.789149 kJ/mol
# GULP energy per Si atom -5580.394729 kJ/mol
# Density = 2.375470 g / cm^3
# Si number density = 23.808893 Si / 1000 Ang^3
#
#
#
# Elastic Constant Matrix: (Units=GPa)
#
#
# Indices 1 2 3 4 5 6 
#
# 1 135.1088 35.2298 36.7393 0.0000 0.0000 6.8935
# 2 35.2298 135.1088 36.7393 0.0000 0.0000 -6.8935
# 3 36.7393 36.7393 136.8226 0.0000 0.0000 0.0000
# 4 0.0000 0.0000 0.0000 315.7551 0.0000 0.0000
# 5 0.0000 0.0000 0.0000 0.0000 315.7551 0.0000
# 6 6.8935 -6.8935 0.0000 0.0000 0.0000 34.2280
#
#
#
# Elastic Compliance Matrix: (Units=1/GPa)
#
#
# Indices 1 2 3 4 5 6 
#
# 1 0.008469 -0.001829 -0.001783 0.000000 0.000000 -0.002074
# 2 -0.001829 0.008469 -0.001783 0.000000 0.000000 0.002074
# 3 -0.001783 -0.001783 0.008266 0.000000 0.000000 0.000000
# 4 0.000000 0.000000 0.000000 0.003167 0.000000 0.000000
# 5 0.000000 0.000000 0.000000 0.000000 0.003167 0.000000
# 6 -0.002074 0.002074 0.000000 0.000000 0.000000 0.030051
#
#
# Mechanical properties :
#
#
# Convention : Reuss Voigt Hill
#
# Bulk Modulus (GPa) = 69.37633 69.38410 69.38021
# Shear Modulus (GPa) = 64.77976 153.03643 108.90809
#
# Velocity S-wave (km/s) = 5.22181 8.02599 6.77067
# Velocity P-wave (km/s) = 8.09682 10.72819 9.50401
#
# Compressibility (1/GPa) = 0.01441414
#
# Stress axis : x y z
#
# Youngs Moduli (GPa) = 118.07657 118.07657 120.97446
#
# Poissons Ratio (x) = 0.21600 0.21568
# Poissons Ratio (y) = 0.21600 0.21568
# Poissons Ratio (z) = 0.21052 0.21052
#
# Static dielectric constant tensor:
#      x y z
#    x 2.329920 0.000000 0.000000 
#    y 0.000000 2.329920 0.000000 
#    z 0.000000 0.000000 1.918420 
# 
# From -- ./inp_files/4456.got.cif
#   From: 2010.05.17/outbox.cif.g08.bks.cpg/sg86_3_cif.got.tgz:4456.got - 2010.06.03 19:03:11.
