data_PCOD9545019
_publ_section_title
;
Structure prediction by ZEFSAII (Michael W. Deem and Ramdas Pophale) SiO2 
 PCOD9545019
Probable space group: P 42/N
;
_chemical_formula_sum "Si O2"
_cell_formula_units_Z 40
_cell_length_a 10.494319
_cell_length_b 10.494319
_cell_length_c 16.684140
_cell_angle_alpha 90.000000
_cell_angle_beta 90.000000
_cell_angle_gamma 90.000000
_cell_volume 1837.436539
_symmetry_space_group_name_H-M "P 42/N"
_symmetry_group_IT_number 86
_space_group.IT_coordinate_system_code '2'
_symmetry_cell_setting 'tetragonal'
loop_
_space_group_symop_operation_xyz
x,y,z
-y,1/2+x,1/2+z
1/2-x,1/2-y,z
1/2+y,-x,1/2+z
-x,-y,-z
y,1/2-x,1/2-z
1/2+x,1/2+y,-z
1/2-y,x,1/2-z
loop_
_atom_site_type_symbol
_atom_site_label
_atom_site_fract_x
_atom_site_fract_y
_atom_site_fract_z
Si Si1 0.608105 0.577116 0.551089
Si Si2 0.512842 0.315700 0.843096
Si Si3 0.176189 0.619355 0.485714
Si Si4 0.530682 0.970340 0.190370
Si Si5 0.276394 0.423629 0.921399
O O1 0.500000 0.500000 0.500000
O O2 0.737809 0.498335 0.542560
O O3 0.557535 0.567545 0.641294
O O4 0.612842 0.710715 0.505559
O O5 0.520572 0.423421 0.775793
O O6 0.523621 0.173545 0.807294
O O7 0.369601 0.323458 0.879677
O O8 0.604767 0.335257 0.918398
O O9 0.250000 0.750000 0.468172
O O10 0.042357 0.632155 0.442048
O O11 0.662090 0.963260 0.138107
#
# Coordination Sequence:
#
# PCOD9545019 Si02
#       5
#     8   8   8   8   8
#     4  10  20  39  62  83 122 172 198 252 318 378
#     4  12  23  37  63  96 120 158 209 270 310 372
#     4  12  22  40  60  88 125 165 215 248 313 391
#     4  11  21  37  61  91 127 155 199 263 328 351
#     4  11  22  39  63  91 123 157 209 260 310 378
#
# _framework density 21.769459000000001
#
# number of rings (size 3 to 8) (size 9 to 14) (size 15 to 20)
#    0.000    0.800   10.000    1.200    0.000    0.000 
#    3.600    0.000    0.000    0.000    0.000    0.000 
#    0.000    0.000    0.000    0.000    0.000    0.000 
#
# Total GULP energy -223631.763618 kJ/mol
# GULP energy per Si atom -5590.794090 kJ/mol
# Density = 2.171991 g / cm^3
# Si number density = 21.769459 Si / 1000 Ang^3
#
#
#
# Elastic Constant Matrix: (Units=GPa)
#
#
# Indices 1 2 3 4 5 6 
#
# 1 43.8450 21.6366 5.5128 0.0000 0.0000 -8.4903
# 2 21.6366 43.8450 5.5128 0.0000 0.0000 8.4903
# 3 5.5128 5.5128 80.2000 0.0000 0.0000 0.0000
# 4 0.0000 0.0000 0.0000 39.9586 0.0000 0.0000
# 5 0.0000 0.0000 0.0000 0.0000 39.9586 0.0000
# 6 -8.4903 8.4903 0.0000 0.0000 0.0000 33.4315
#
#
#
# Elastic Compliance Matrix: (Units=1/GPa)
#
#
# Indices 1 2 3 4 5 6 
#
# 1 0.035664 -0.020214 -0.001062 0.000000 0.000000 0.014191
# 2 -0.020214 0.035664 -0.001062 0.000000 0.000000 -0.014191
# 3 -0.001062 -0.001062 0.012615 0.000000 0.000000 0.000000
# 4 0.000000 0.000000 0.000000 0.025026 0.000000 0.000000
# 5 0.000000 0.000000 0.000000 0.000000 0.025026 0.000000
# 6 0.014191 -0.014191 0.000000 0.000000 0.000000 0.037120
#
#
# Mechanical properties :
#
#
# Convention : Reuss Voigt Hill
#
# Bulk Modulus (GPa) = 25.46648 25.91271 25.68959
# Shear Modulus (GPa) = 21.84546 31.68493 26.76519
#
# Velocity S-wave (km/s) = 3.17123 3.81921 3.51020
# Velocity P-wave (km/s) = 5.01324 5.60157 5.31555
#
# Compressibility (1/GPa) = 0.03926730
#
# Stress axis : x y z
#
# Youngs Moduli (GPa) = 28.03918 28.03918 79.27176
#
# Poissons Ratio (x) = 0.56679 0.08419
# Poissons Ratio (y) = 0.56679 0.08419
# Poissons Ratio (z) = 0.02978 0.02978
#
# Static dielectric constant tensor:
#      x y z
#    x 1.833680 0.000000 0.000000 
#    y 0.000000 1.833680 0.000000 
#    z 0.000000 0.000000 1.810820 
# 
# From -- ./inp_files/2925.got.cif
#   From: 2010.05.17/outbox.cif.g08.bks.cpg/sg86_2_cif.got.tgz:2925.got - 2010.06.03 19:03:11.
