data_PCOD9545652
_publ_section_title
;
Structure prediction by ZEFSAII (Michael W. Deem and Ramdas Pophale) SiO2 
 PCOD9545652
Probable space group: I 4/M
;
_chemical_formula_sum "Si O2"
_cell_formula_units_Z 88
_cell_length_a 13.501108
_cell_length_b 13.501108
_cell_length_c 19.833963
_cell_angle_alpha 90.000000
_cell_angle_beta 90.000000
_cell_angle_gamma 90.000000
_cell_volume 3615.333134
_symmetry_space_group_name_H-M "I 4/M"
_symmetry_group_IT_number 87
_symmetry_cell_setting 'tetragonal'
loop_
_space_group_symop_operation_xyz
x,y,z
-y,x,z
-x,-y,z
y,-x,z
-x,-y,-z
y,-x,-z
x,y,-z
-y,x,-z
1/2+x,1/2+y,1/2+z
1/2-y,1/2+x,1/2+z
1/2-x,1/2-y,1/2+z
1/2+y,1/2-x,1/2+z
1/2-x,1/2-y,1/2-z
1/2+y,1/2-x,1/2-z
1/2+x,1/2+y,1/2-z
1/2-y,1/2+x,1/2-z
loop_
_atom_site_type_symbol
_atom_site_label
_atom_site_fract_x
_atom_site_fract_y
_atom_site_fract_z
Si Si1 0.655674 0.858722 0.000000
Si Si2 0.090979 0.223057 0.143385
Si Si3 0.767147 0.648909 0.000000
Si Si4 0.137038 0.776957 0.640392
Si Si5 0.762894 0.058202 0.710862
Si Si6 0.402673 0.066043 0.856594
Si Si7 0.287351 0.547517 0.500000
O O1 0.699703 0.748547 0.000000
O O2 0.598500 0.883857 0.930929
O O3 0.748170 0.935805 0.000000
O O4 0.200208 0.271364 0.141844
O O5 0.079994 0.182942 0.218594
O O6 0.008365 0.310028 0.144337
O O7 0.072443 0.165765 0.073143
O O8 0.742022 0.591697 0.932668
O O9 0.880066 0.689344 0.000000
O O10 0.173956 0.886609 0.653912
O O11 0.056570 0.752709 0.695923
O O12 0.651837 0.100770 0.699933
O O13 0.500000 0.000000 0.847888
#
# Coordination Sequence:
#
# PCOD9545652 Si02
#       7
#     8  16   8  16  16  16   8
#     4  10  19  37  60  92 126 166 204 264 315 387
#     4  10  21  39  62  92 125 158 211 270 333 381
#     4  10  20  40  63  93 135 162 216 260 315 397
#     4  11  24  41  62  94 130 177 213 263 316 390
#     4  12  24  40  63  91 132 174 215 267 323 388
#     4  11  21  35  62  95 125 160 206 270 335 375
#     4   8  20  37  59  90 121 160 201 260 326 393
#
# _framework density 24.340774
#
# number of rings (size 3 to 8) (size 9 to 14) (size 15 to 20)
#    0.000    1.455    3.636    1.909    0.000    1.818 
#    3.273    0.000    0.000    1.364    0.000    0.000 
#    0.000    0.000    0.000    0.000    0.000    0.000 
#
# Total GULP energy -245974.952493 kJ/mol
# GULP energy per Si atom -5590.339829 kJ/mol
# Density = 2.428537 g / cm^3
# Si number density = 24.340774 Si / 1000 Ang^3
#
#
#
# Elastic Constant Matrix: (Units=GPa)
#
#
# Indices 1 2 3 4 5 6 
#
# 1 32.0632 28.4297 7.0448 0.0000 0.0000 -8.5685
# 2 28.4297 32.0632 7.0448 0.0000 0.0000 8.5685
# 3 7.0448 7.0448 155.1520 0.0000 0.0000 0.0000
# 4 0.0000 0.0000 0.0000 12.6402 0.0000 0.0000
# 5 0.0000 0.0000 0.0000 0.0000 12.6402 0.0000
# 6 -8.5685 8.5685 0.0000 0.0000 0.0000 28.1912
#
#
#
# Elastic Compliance Matrix: (Units=1/GPa)
#
#
# Indices 1 2 3 4 5 6 
#
# 1 -0.309074 0.325782 -0.000759 0.000000 0.000000 -0.192960
# 2 0.325782 -0.309074 -0.000759 0.000000 0.000000 0.192960
# 3 -0.000759 -0.000759 0.006514 0.000000 0.000000 0.000000
# 4 0.000000 0.000000 0.000000 0.079113 0.000000 0.000000
# 5 0.000000 0.000000 0.000000 0.000000 0.079113 0.000000
# 6 -0.192960 0.192960 0.000000 0.000000 0.000000 -0.081825
#
#
# Mechanical properties :
#
#
# Convention : Reuss Voigt Hill
#
# Bulk Modulus (GPa) = 27.10409 33.81302 30.45855
# Shear Modulus (GPa) = -4.26816 22.47825 9.10505
#
# Velocity S-wave (km/s) = -1.32564 3.04218 1.93618
# Velocity P-wave (km/s) = 2.96924 5.12460 4.18795
#
# Compressibility (1/GPa) = 0.03689480
#
# Stress axis : x y z
#
# Youngs Moduli (GPa) = -3.23547 -3.23547 153.51115
#
# Poissons Ratio (x) = 1.05406 0.11646
# Poissons Ratio (y) = 1.05406 0.11646
# Poissons Ratio (z) = -0.00245 -0.00245
#
# Static dielectric constant tensor:
#      x y z
#    x 1.892470 0.000000 0.000000 
#    y 0.000000 1.892470 0.000000 
#    z 0.000000 0.000000 2.049660 
# 
# From -- ./inp_files/5244.got.cif
#   From: 2010.05.17/outbox.cif.g08.bks.cpg/sg87_3_cif.got.tgz:5244.got - 2010.06.03 19:07:00.
