data_PCOD9545078
_publ_section_title
;
Structure prediction by ZEFSAII (Michael W. Deem and Ramdas Pophale) SiO2 
 PCOD9545078
Probable space group: P 42/N
;
_chemical_formula_sum "Si O2"
_cell_formula_units_Z 48
_cell_length_a 8.447089
_cell_length_b 8.447089
_cell_length_c 30.208034
_cell_angle_alpha 90.000000
_cell_angle_beta 90.000000
_cell_angle_gamma 90.000000
_cell_volume 2155.443292
_symmetry_space_group_name_H-M "P 42/N"
_symmetry_group_IT_number 86
_space_group.IT_coordinate_system_code '2'
_symmetry_cell_setting 'tetragonal'
loop_
_space_group_symop_operation_xyz
x,y,z
-y,1/2+x,1/2+z
1/2-x,1/2-y,z
1/2+y,-x,1/2+z
-x,-y,-z
y,1/2-x,1/2-z
1/2+x,1/2+y,-z
1/2-y,x,1/2-z
loop_
_atom_site_type_symbol
_atom_site_label
_atom_site_fract_x
_atom_site_fract_y
_atom_site_fract_z
Si Si1 0.995650 0.846457 0.666790
Si Si2 0.667435 0.499403 0.256417
Si Si3 0.467853 0.411026 0.433296
Si Si4 0.738501 0.935639 0.023030
Si Si5 0.845829 0.414952 0.581030
Si Si6 0.991872 0.849073 0.821961
O O1 0.025212 0.850263 0.614184
O O2 0.943957 0.672710 0.682853
O O3 0.836656 0.951238 0.674144
O O4 0.134110 0.919777 0.696275
O O5 0.557952 0.655544 0.251447
O O6 0.606535 0.382800 0.218413
O O7 0.505434 0.299139 0.474629
O O8 0.534969 0.583124 0.446468
O O9 0.277996 0.445001 0.429382
O O10 0.750000 0.750000 0.018702
O O11 0.888868 0.015033 0.046297
O O12 0.750000 0.250000 0.578580
O O13 0.901797 0.435492 0.631185
#
# Coordination Sequence:
#
# PCOD9545078 Si02
#       6
#     8   8   8   8   8   8
#     4  10  22  42  65  91 124 161 215 258 305 379
#     4  11  26  42  63  93 129 162 199 257 323 381
#     4   9  21  40  59  88 125 167 207 260 311 369
#     4  10  21  36  61  89 123 166 208 264 309 367
#     4   9  20  38  62  92 121 167 212 253 315 373
#     4  10  22  39  66  95 119 166 208 258 308 378
#
# _framework density 22.269203000000001
#
# number of rings (size 3 to 8) (size 9 to 14) (size 15 to 20)
#    0.000    2.167    0.000    1.000   11.667    5.333 
#    0.000    0.000    7.333    0.000    0.000    0.000 
#    0.000    0.000    0.000    0.000    0.000    0.000 
#
# Total GULP energy -268537.779207 kJ/mol
# GULP energy per Si atom -5594.537067 kJ/mol
# Density = 2.221852 g / cm^3
# Si number density = 22.269203 Si / 1000 Ang^3
#
#
#
# Elastic Constant Matrix: (Units=GPa)
#
#
# Indices 1 2 3 4 5 6 
#
# 1 32.1752 9.1043 13.5906 0.0000 0.0000 5.7493
# 2 9.1043 32.1752 13.5906 0.0000 0.0000 -5.7493
# 3 13.5906 13.5906 95.9138 0.0000 0.0000 0.0000
# 4 0.0000 0.0000 0.0000 28.6635 0.0000 0.0000
# 5 0.0000 0.0000 0.0000 0.0000 28.6635 0.0000
# 6 5.7493 -5.7493 0.0000 0.0000 0.0000 24.1304
#
#
#
# Elastic Compliance Matrix: (Units=1/GPa)
#
#
# Indices 1 2 3 4 5 6 
#
# 1 0.037952 -0.011234 -0.003786 0.000000 0.000000 -0.011719
# 2 -0.011234 0.037952 -0.003786 0.000000 0.000000 0.011719
# 3 -0.003786 -0.003786 0.011499 0.000000 0.000000 0.000000
# 4 0.000000 0.000000 0.000000 0.034888 0.000000 0.000000
# 5 0.000000 0.000000 0.000000 0.000000 0.034888 0.000000
# 6 -0.011719 0.011719 0.000000 0.000000 0.000000 0.047026
#
#
# Mechanical properties :
#
#
# Convention : Reuss Voigt Hill
#
# Bulk Modulus (GPa) = 20.08374 25.87055 22.97714
# Shear Modulus (GPa) = 19.34902 24.55671 21.95286
#
# Velocity S-wave (km/s) = 2.95086 3.32433 3.14314
# Velocity P-wave (km/s) = 4.54404 5.13588 4.84900
#
# Compressibility (1/GPa) = 0.04979153
#
# Stress axis : x y z
#
# Youngs Moduli (GPa) = 26.34930 26.34930 86.96482
#
# Poissons Ratio (x) = 0.29600 0.32923
# Poissons Ratio (y) = 0.29600 0.32923
# Poissons Ratio (z) = 0.09975 0.09975
#
# Static dielectric constant tensor:
#      x y z
#    x 1.833350 0.000000 0.000000 
#    y 0.000000 1.833350 0.000000 
#    z 0.000000 0.000000 1.798810 
# 
# From -- ./inp_files/5135.got.cif
#   From: 2010.05.17/outbox.cif.g08.bks.cpg/sg86_3_cif.got.tgz:5135.got - 2010.06.03 19:03:11.
