data_PCOD9545803
_publ_section_title
;
Structure prediction by ZEFSAII (Michael W. Deem and Ramdas Pophale) SiO2 
 PCOD9545803
Probable space group: I 4/M
;
_chemical_formula_sum "Si O2"
_cell_formula_units_Z 120
_cell_length_a 27.919479
_cell_length_b 27.919479
_cell_length_c 7.781968
_cell_angle_alpha 90.000000
_cell_angle_beta 90.000000
_cell_angle_gamma 90.000000
_cell_volume 6066.023104
_symmetry_space_group_name_H-M "I 4/M"
_symmetry_group_IT_number 87
_symmetry_cell_setting 'tetragonal'
loop_
_space_group_symop_operation_xyz
x,y,z
-y,x,z
-x,-y,z
y,-x,z
-x,-y,-z
y,-x,-z
x,y,-z
-y,x,-z
1/2+x,1/2+y,1/2+z
1/2-y,1/2+x,1/2+z
1/2-x,1/2-y,1/2+z
1/2+y,1/2-x,1/2+z
1/2-x,1/2-y,1/2-z
1/2+y,1/2-x,1/2-z
1/2+x,1/2+y,1/2-z
1/2-y,1/2+x,1/2-z
loop_
_atom_site_type_symbol
_atom_site_label
_atom_site_fract_x
_atom_site_fract_y
_atom_site_fract_z
Si Si1 0.364653 0.523661 0.197724
Si Si2 0.654624 0.133188 0.688823
Si Si3 0.580801 0.386520 0.305348
Si Si4 0.279026 0.095608 0.293409
Si Si5 0.689796 0.070463 0.000000
Si Si6 0.758053 0.304971 0.695642
Si Si7 0.656830 0.310866 0.198022
Si Si8 0.751581 0.014278 0.292666
O O1 0.394133 0.562171 0.303604
O O2 0.386045 0.470992 0.221018
O O3 0.308265 0.521127 0.238206
O O4 0.368876 0.538794 0.000000
O O5 0.651620 0.110680 0.500000
O O6 0.611387 0.170889 0.713574
O O7 0.703183 0.165578 0.698925
O O8 0.658186 0.097510 0.847730
O O9 0.575418 0.368961 0.500000
O O10 0.616044 0.350288 0.209724
O O11 0.282049 0.100756 0.500000
O O12 0.238160 0.133221 0.234551
O O13 0.262655 0.041353 0.260640
O O14 0.722877 0.045888 0.155210
O O15 0.775336 0.307079 0.500000
O O16 0.750000 0.250000 0.750000
O O17 0.704936 0.326763 0.707336
O O18 0.670875 0.303387 0.000000
O O19 0.743230 0.023865 0.500000
#
# Coordination Sequence:
#
# PCOD9545803 Si02
#       8
#    16  16  16  16   8  16  16  16
#     4  11  24  45  65  90 122 166 221 284 350 407
#     4  12  25  41  63  94 136 182 223 273 336 404
#     4  12  26  41  63  90 121 158 218 285 349 409
#     4  10  20  41  66  96 130 174 225 271 323 396
#     4  12  26  44  64  96 140 174 220 270 343 380
#     4  12  23  37  53  85 126 172 220 269 325 394
#     4  11  22  37  60  88 123 165 217 269 323 401
#     4  10  24  43  70  98 134 177 228 278 336 406
#
# _framework density 19.782316999999999
#
# number of rings (size 3 to 8) (size 9 to 14) (size 15 to 20)
#    0.000    0.800    4.000    3.600    4.667    0.800 
#    0.000    1.333    0.000    0.000    0.000    0.000 
#    0.000    1.600    0.000    0.000    0.000    0.000 
#
# Total GULP energy -334382.647002 kJ/mol
# GULP energy per Si atom -5573.044117 kJ/mol
# Density = 1.973729 g / cm^3
# Si number density = 19.782317 Si / 1000 Ang^3
#
#
#
# Elastic Constant Matrix: (Units=GPa)
#
#
# Indices 1 2 3 4 5 6 
#
# 1 23.5412 40.7802 10.1399 0.0000 0.0000 5.0025
# 2 40.7802 23.5412 10.1399 0.0000 0.0000 -5.0025
# 3 10.1399 10.1399 101.6134 0.0000 0.0000 0.0000
# 4 0.0000 0.0000 0.0000 25.8947 0.0000 0.0000
# 5 0.0000 0.0000 0.0000 0.0000 25.8947 0.0000
# 6 5.0025 -5.0025 0.0000 0.0000 0.0000 31.6694
#
#
#
# Elastic Compliance Matrix: (Units=1/GPa)
#
#
# Indices 1 2 3 4 5 6 
#
# 1 -0.018542 0.034594 -0.001602 0.000000 0.000000 0.008393
# 2 0.034594 -0.018542 -0.001602 0.000000 0.000000 -0.008393
# 3 -0.001602 -0.001602 0.010161 0.000000 0.000000 0.000000
# 4 0.000000 0.000000 0.000000 0.038618 0.000000 0.000000
# 5 0.000000 0.000000 0.000000 0.000000 0.038618 0.000000
# 6 0.008393 -0.008393 0.000000 0.000000 0.000000 0.028925
#
#
# Mechanical properties :
#
#
# Convention : Reuss Voigt Hill
#
# Bulk Modulus (GPa) = 27.88809 30.09064 28.98936
# Shear Modulus (GPa) = 176.00681 22.53414 99.27047
#
# Velocity S-wave (km/s) = 9.44272 3.37872 7.09157
# Velocity P-wave (km/s) = 11.53320 5.51951 9.04101
#
# Compressibility (1/GPa) = 0.03585760
#
# Stress axis : x y z
#
# Youngs Moduli (GPa) = -53.93071 -53.93071 98.41645
#
# Poissons Ratio (x) = 1.86569 0.15764
# Poissons Ratio (y) = 1.86569 0.15764
# Poissons Ratio (z) = -0.08639 -0.08639
#
# Static dielectric constant tensor:
#      x y z
#    x 1.721650 0.000000 0.000000 
#    y 0.000000 1.721650 0.000000 
#    z 0.000000 0.000000 1.720500 
# 
# From -- ./inp_files/1666.got.cif
#   From: 2010.05.17/outbox.cif.g08.bks.cpg/sg87_1_cif.got.tgz:1666.got - 2010.06.03 19:07:00.
