data_PCOD9545157
_publ_section_title
;
Structure prediction by ZEFSAII (Michael W. Deem and Ramdas Pophale) SiO2 
 PCOD9545157
Probable space group: P 42/N
;
_chemical_formula_sum "Si O2"
_cell_formula_units_Z 24
_cell_length_a 10.815311
_cell_length_b 10.815311
_cell_length_c 8.621566
_cell_angle_alpha 90.000000
_cell_angle_beta 90.000000
_cell_angle_gamma 90.000000
_cell_volume 1008.472783
_symmetry_space_group_name_H-M "P 42/N"
_symmetry_group_IT_number 86
_space_group.IT_coordinate_system_code '2'
_symmetry_cell_setting 'tetragonal'
loop_
_space_group_symop_operation_xyz
x,y,z
-y,1/2+x,1/2+z
1/2-x,1/2-y,z
1/2+y,-x,1/2+z
-x,-y,-z
y,1/2-x,1/2-z
1/2+x,1/2+y,-z
1/2-y,x,1/2-z
loop_
_atom_site_type_symbol
_atom_site_label
_atom_site_fract_x
_atom_site_fract_y
_atom_site_fract_z
Si Si1 0.009561 0.299585 0.073468
Si Si2 0.550804 0.382931 0.313566
Si Si3 0.377308 0.137078 0.662419
O O1 0.943587 0.245143 0.224503
O O2 0.095170 0.413714 0.121735
O O3 0.911067 0.352338 0.949866
O O4 0.090760 0.192953 0.989686
O O5 0.574644 0.492390 0.189807
O O6 0.283097 0.104189 0.805268
#
# Coordination Sequence:
#
# PCOD9545157 Si02
#       3
#     8   8   8
#     4  10  22  40  62  92 127 167 215 263 320 382
#     4  10  22  39  61  91 125 167 214 262 318 379
#     4   9  19  38  62  87 119 161 211 263 312 372
#
# _framework density 23.798359000000001
#
# number of rings (size 3 to 8) (size 9 to 14) (size 15 to 20)
#    0.000    2.333    0.000    1.000    0.000   14.000 
#    0.000   13.333    0.000    0.000    0.000    0.000 
#    0.000    0.000    0.000    0.000    0.000    0.000 
#
# Total GULP energy -134226.977612 kJ/mol
# GULP energy per Si atom -5592.790734 kJ/mol
# Density = 2.374419 g / cm^3
# Si number density = 23.798359 Si / 1000 Ang^3
#
#
#
# Elastic Constant Matrix: (Units=GPa)
#
#
# Indices 1 2 3 4 5 6 
#
# 1 53.6948 17.6871 19.3717 0.0000 0.0000 -6.8641
# 2 17.6871 53.6948 19.3717 0.0000 0.0000 6.8641
# 3 19.3717 19.3717 64.6551 0.0000 0.0000 0.0000
# 4 0.0000 0.0000 0.0000 33.3623 0.0000 0.0000
# 5 0.0000 0.0000 0.0000 0.0000 33.3623 0.0000
# 6 -6.8641 6.8641 0.0000 0.0000 0.0000 10.6139
#
#
#
# Elastic Compliance Matrix: (Units=1/GPa)
#
#
# Indices 1 2 3 4 5 6 
#
# 1 0.026795 -0.010065 -0.005012 0.000000 0.000000 0.023838
# 2 -0.010065 0.026795 -0.005012 0.000000 0.000000 -0.023838
# 3 -0.005012 -0.005012 0.018470 0.000000 0.000000 0.000000
# 4 0.000000 0.000000 0.000000 0.029974 0.000000 0.000000
# 5 0.000000 0.000000 0.000000 0.000000 0.029974 0.000000
# 6 0.023838 -0.023838 0.000000 0.000000 0.000000 0.125048
#
#
# Mechanical properties :
#
#
# Convention : Reuss Voigt Hill
#
# Bulk Modulus (GPa) = 31.36778 31.65617 31.51198
# Shear Modulus (GPa) = 16.24097 23.17532 19.70815
#
# Velocity S-wave (km/s) = 2.61519 3.12399 2.88085
# Velocity P-wave (km/s) = 4.72528 5.13256 4.93312
#
# Compressibility (1/GPa) = 0.03187984
#
# Stress axis : x y z
#
# Youngs Moduli (GPa) = 37.32049 37.32049 54.14089
#
# Poissons Ratio (x) = 0.37564 0.27138
# Poissons Ratio (y) = 0.37564 0.27138
# Poissons Ratio (z) = 0.18707 0.18707
#
# Static dielectric constant tensor:
#      x y z
#    x 1.898570 0.000000 0.000000 
#    y 0.000000 1.898570 0.000000 
#    z 0.000000 0.000000 1.940910 
# 
# From -- ./inp_files/698.got.cif
#   From: 2010.05.17/outbox.cif.g08.bks.cpg/sg86_1_cif.got.tgz:698.got - 2010.06.03 19:03:11.
