data_PCOD9545877
_publ_section_title
;
Structure prediction by ZEFSAII (Michael W. Deem and Ramdas Pophale) SiO2 
 PCOD9545877
Probable space group: I 4/M
;
_chemical_formula_sum "Si O2"
_cell_formula_units_Z 96
_cell_length_a 15.490243
_cell_length_b 15.490243
_cell_length_c 21.237609
_cell_angle_alpha 90.000000
_cell_angle_beta 90.000000
_cell_angle_gamma 90.000000
_cell_volume 5095.913908
_symmetry_space_group_name_H-M "I 4/M"
_symmetry_group_IT_number 87
_symmetry_cell_setting 'tetragonal'
loop_
_space_group_symop_operation_xyz
x,y,z
-y,x,z
-x,-y,z
y,-x,z
-x,-y,-z
y,-x,-z
x,y,-z
-y,x,-z
1/2+x,1/2+y,1/2+z
1/2-y,1/2+x,1/2+z
1/2-x,1/2-y,1/2+z
1/2+y,1/2-x,1/2+z
1/2-x,1/2-y,1/2-z
1/2+y,1/2-x,1/2-z
1/2+x,1/2+y,1/2-z
1/2-y,1/2+x,1/2-z
loop_
_atom_site_type_symbol
_atom_site_label
_atom_site_fract_x
_atom_site_fract_y
_atom_site_fract_z
Si Si1 0.962797 0.268355 0.235155
Si Si2 0.133094 0.279524 0.071682
Si Si3 0.101169 0.482763 0.931535
Si Si4 0.199394 0.765786 0.315547
Si Si5 0.643438 0.482594 0.630373
Si Si6 0.669031 0.100480 0.677926
O O1 0.900039 0.242646 0.293707
O O2 0.902065 0.324794 0.188853
O O3 0.003788 0.187316 0.198712
O O4 0.042301 0.325394 0.259454
O O5 0.112739 0.380704 0.074435
O O6 0.200504 0.269952 0.129622
O O7 0.048762 0.221787 0.086290
O O8 0.163695 0.259642 0.000000
O O9 0.143966 0.537730 0.877584
O O10 0.000000 0.500000 0.929280
O O11 0.135194 0.509497 0.000000
O O12 0.250000 0.750000 0.250000
O O13 0.236970 0.858508 0.334312
O O14 0.592453 0.572120 0.621108
#
# Coordination Sequence:
#
# PCOD9545877 Si02
#       6
#    16  16  16  16  16  16
#     4  11  21  36  58  92 127 155 208 254 326 366
#     4  11  23  42  62  88 128 169 211 263 318 381
#     4  10  22  38  57  85 120 156 204 255 306 372
#     4  10  21  39  60  92 126 164 208 264 317 381
#     4  11  23  40  61  88 124 168 213 257 313 388
#     4  11  22  34  61  87 121 157 202 255 311 376
#
# _framework density 18.838622000000001
#
# number of rings (size 3 to 8) (size 9 to 14) (size 15 to 20)
#    0.000    1.333    1.667    6.000    2.333    1.333 
#    0.000    2.500    0.000    0.000    0.000    0.000 
#    0.000    2.667    0.000    0.000    0.000    0.000 
#
# Total GULP energy -267571.163910 kJ/mol
# GULP energy per Si atom -5574.399248 kJ/mol
# Density = 1.879574 g / cm^3
# Si number density = 18.838622 Si / 1000 Ang^3
#
#
#
# Elastic Constant Matrix: (Units=GPa)
#
#
# Indices 1 2 3 4 5 6 
#
# 1 64.5632 25.6628 39.6410 0.0000 0.0000 -4.5548
# 2 25.6628 64.5632 39.6409 0.0000 0.0000 4.5548
# 3 39.6410 39.6409 99.2533 0.0000 0.0000 0.0000
# 4 0.0000 0.0000 0.0000 -1.5376 0.0000 0.0000
# 5 0.0000 0.0000 0.0000 0.0000 -1.5376 0.0000
# 6 -4.5548 4.5548 0.0000 0.0000 0.0000 29.4869
#
#
#
# Elastic Compliance Matrix: (Units=1/GPa)
#
#
# Indices 1 2 3 4 5 6 
#
# 1 0.021874 -0.004798 -0.006820 0.000000 0.000000 0.004120
# 2 -0.004798 0.021874 -0.006820 0.000000 0.000000 -0.004120
# 3 -0.006820 -0.006820 0.015523 0.000000 0.000000 0.000000
# 4 0.000000 0.000000 0.000000 -0.650372 0.000001 0.000000
# 5 0.000000 0.000000 0.000000 0.000001 -0.650376 0.000000
# 6 0.004120 -0.004120 0.000000 0.000000 0.000000 0.035186
#
#
# Mechanical properties :
#
#
# Convention : Reuss Voigt Hill
#
# Bulk Modulus (GPa) = 44.65293 48.69657 46.67475
# Shear Modulus (GPa) = -4.30311 13.51135 4.60412
#
# Velocity S-wave (km/s) = -1.51299 2.68099 1.56502
# Velocity P-wave (km/s) = 4.54996 5.95727 5.30053
#
# Compressibility (1/GPa) = 0.02239495
#
# Stress axis : x y z
#
# Youngs Moduli (GPa) = 45.71681 45.71681 64.42068
#
# Poissons Ratio (x) = 0.21934 0.43935
# Poissons Ratio (y) = 0.21934 0.43935
# Poissons Ratio (z) = 0.31179 0.31179
#
# Static dielectric constant tensor:
#      x y z
#    x 1.684410 0.000000 0.000000 
#    y 0.000000 1.684410 0.000000 
#    z 0.000000 0.000000 1.736320 
# 
# From -- ./inp_files/5290.got.cif
#   From: 2010.05.17/outbox.cif.g08.bks.cpg/sg87_3_cif.got.tgz:5290.got - 2010.06.03 19:07:00.
