data_PCOD9545046
_publ_section_title
;
Structure prediction by ZEFSAII (Michael W. Deem and Ramdas Pophale) SiO2 
 PCOD9545046
Probable space group: P 42/N
;
_chemical_formula_sum "Si O2"
_cell_formula_units_Z 56
_cell_length_a 14.854231
_cell_length_b 14.854231
_cell_length_c 10.350757
_cell_angle_alpha 90.000000
_cell_angle_beta 90.000000
_cell_angle_gamma 90.000000
_cell_volume 2283.875679
_symmetry_space_group_name_H-M "P 42/N"
_symmetry_group_IT_number 86
_space_group.IT_coordinate_system_code '2'
_symmetry_cell_setting 'tetragonal'
loop_
_space_group_symop_operation_xyz
x,y,z
-y,1/2+x,1/2+z
1/2-x,1/2-y,z
1/2+y,-x,1/2+z
-x,-y,-z
y,1/2-x,1/2-z
1/2+x,1/2+y,-z
1/2-y,x,1/2-z
loop_
_atom_site_type_symbol
_atom_site_label
_atom_site_fract_x
_atom_site_fract_y
_atom_site_fract_z
Si Si1 0.407715 0.184213 0.058068
Si Si2 0.872779 0.404763 0.820447
Si Si3 0.633386 0.904458 0.696211
Si Si4 0.390538 0.493186 0.985654
Si Si5 0.778765 0.160362 0.121432
Si Si6 0.120899 0.069362 0.709704
Si Si7 0.402281 0.920371 0.888592
O O1 0.412720 0.287798 0.093000
O O2 0.343400 0.144560 0.169911
O O3 0.504492 0.134811 0.091002
O O4 0.379215 0.167500 0.909723
O O5 0.887558 0.494533 0.739474
O O6 0.807607 0.342528 0.739305
O O7 0.966427 0.350298 0.816861
O O8 0.861483 0.432752 0.966925
O O9 0.549509 0.860369 0.621385
O O10 0.338878 0.586731 0.955570
O O11 0.368431 0.426661 0.863868
O O12 0.500000 0.500000 0.000000
O O13 0.750000 0.250000 0.044114
O O14 0.685757 0.120406 0.176506
O O15 0.015593 0.076904 0.675076
#
# Coordination Sequence:
#
# PCOD9545046 Si02
#       7
#     8   8   8   8   8   8   8
#     4  11  24  42  71  99 139 189 244 319 377 462
#     4  10  20  42  65  97 140 184 245 295 369 459
#     4  12  23  43  69 104 138 188 249 306 384 454
#     4  11  23  43  71 101 149 196 248 307 379 473
#     4  11  25  42  61 107 148 192 247 313 378 456
#     4  10  20  43  69  99 138 192 243 299 386 464
#     4  11  21  41  69  98 141 197 245 307 390 455
#
# _framework density 24.519722999999999
#
# number of rings (size 3 to 8) (size 9 to 14) (size 15 to 20)
#    0.000    1.143    5.714    1.714    2.000    4.286 
#    5.143    1.429    0.000    0.000    0.000    4.000 
#    0.000    0.000    0.000    0.000    0.000    0.000 
#
# Total GULP energy -312300.304623 kJ/mol
# GULP energy per Si atom -5576.791154 kJ/mol
# Density = 2.446391 g / cm^3
# Si number density = 24.519723 Si / 1000 Ang^3
#
#
#
# Elastic Constant Matrix: (Units=GPa)
#
#
# Indices 1 2 3 4 5 6 
#
# 1 82.7093 28.2934 18.2738 0.0000 0.0000 4.8210
# 2 28.2934 82.7093 18.2738 0.0000 0.0000 -4.8210
# 3 18.2738 18.2738 165.1471 0.0000 0.0000 0.0000
# 4 0.0000 0.0000 0.0000 22.9812 0.0000 0.0000
# 5 0.0000 0.0000 0.0000 0.0000 22.9812 0.0000
# 6 4.8210 -4.8210 0.0000 0.0000 0.0000 18.4659
#
#
#
# Elastic Compliance Matrix: (Units=1/GPa)
#
#
# Indices 1 2 3 4 5 6 
#
# 1 0.014309 -0.004959 -0.001035 0.000000 0.000000 -0.005031
# 2 -0.004959 0.014309 -0.001035 0.000000 0.000000 0.005031
# 3 -0.001035 -0.001035 0.006284 0.000000 0.000000 0.000000
# 4 0.000000 0.000000 0.000000 0.043514 0.000000 0.000000
# 5 0.000000 0.000000 0.000000 0.000000 0.043514 0.000000
# 6 -0.005031 0.005031 0.000000 0.000000 0.000000 0.056781
#
#
# Mechanical properties :
#
#
# Convention : Reuss Voigt Hill
#
# Bulk Modulus (GPa) = 47.97347 51.13864 49.55605
# Shear Modulus (GPa) = 25.03563 30.60065 27.81814
#
# Velocity S-wave (km/s) = 3.19884 3.53654 3.37192
# Velocity P-wave (km/s) = 5.76638 6.13005 5.95100
#
# Compressibility (1/GPa) = 0.02084486
#
# Stress axis : x y z
#
# Youngs Moduli (GPa) = 69.88670 69.88670 159.13043
#
# Poissons Ratio (x) = 0.34660 0.16462
# Poissons Ratio (y) = 0.34660 0.16462
# Poissons Ratio (z) = 0.07230 0.07230
#
# Static dielectric constant tensor:
#      x y z
#    x 2.028250 0.000000 0.000000 
#    y 0.000000 2.028250 0.000000 
#    z 0.000000 0.000000 2.036080 
# 
# From -- ./inp_files/2380.got.cif
#   From: 2010.05.17/outbox.cif.g08.bks.cpg/sg86_2_cif.got.tgz:2380.got - 2010.06.03 19:03:11.
