data_PCOD9545959
_publ_section_title
;
Structure prediction by ZEFSAII (Michael W. Deem and Ramdas Pophale) SiO2 
 PCOD9545959
Probable space group: I 4/M
;
_chemical_formula_sum "Si O2"
_cell_formula_units_Z 112
_cell_length_a 13.977593
_cell_length_b 13.977593
_cell_length_c 24.449394
_cell_angle_alpha 90.000000
_cell_angle_beta 90.000000
_cell_angle_gamma 90.000000
_cell_volume 4776.754047
_symmetry_space_group_name_H-M "I 4/M"
_symmetry_group_IT_number 87
_symmetry_cell_setting 'tetragonal'
loop_
_space_group_symop_operation_xyz
x,y,z
-y,x,z
-x,-y,z
y,-x,z
-x,-y,-z
y,-x,-z
x,y,-z
-y,x,-z
1/2+x,1/2+y,1/2+z
1/2-y,1/2+x,1/2+z
1/2-x,1/2-y,1/2+z
1/2+y,1/2-x,1/2+z
1/2-x,1/2-y,1/2-z
1/2+y,1/2-x,1/2-z
1/2+x,1/2+y,1/2-z
1/2-y,1/2+x,1/2-z
loop_
_atom_site_type_symbol
_atom_site_label
_atom_site_fract_x
_atom_site_fract_y
_atom_site_fract_z
Si Si1 0.380481 0.814831 0.727734
Si Si2 0.231178 0.881883 0.355287
Si Si3 0.444145 0.100598 0.670330
Si Si4 0.733093 0.675439 0.563278
Si Si5 0.001151 0.837743 0.440199
Si Si6 0.954453 0.710789 0.936788
Si Si7 0.603999 0.382570 0.759507
O O1 0.306302 0.878836 0.694115
O O2 0.479865 0.825062 0.695990
O O3 0.395142 0.854514 0.788811
O O4 0.346820 0.704861 0.728352
O O5 0.262446 0.796885 0.395520
O O6 0.233344 0.977933 0.391282
O O7 0.131201 0.871813 0.323351
O O8 0.428614 0.131301 0.608060
O O9 0.500000 0.000000 0.674152
O O10 0.758947 0.698001 0.500000
O O11 0.622602 0.704289 0.570307
O O12 0.754216 0.563369 0.571963
O O13 0.003509 0.791054 0.500000
O O14 0.091241 0.908524 0.437498
O O15 0.947047 0.677714 0.000000
O O16 0.628998 0.491714 0.747909
#
# Coordination Sequence:
#
# PCOD9545959 Si02
#       7
#    16  16  16  16  16  16  16
#     4  12  24  44  69  99 133 186 232 284 347 411
#     4  12  22  39  66  96 134 181 224 281 340 410
#     4  12  24  46  72  99 138 185 236 285 341 421
#     4  10  22  42  68 101 136 179 231 291 351 413
#     4   9  19  38  65  98 136 177 224 280 346 418
#     4  10  23  45  72 101 138 177 232 295 353 417
#     4  11  26  44  66  96 133 171 221 283 350 417
#
# _framework density 23.446885999999999
#
# number of rings (size 3 to 8) (size 9 to 14) (size 15 to 20)
#    0.000    1.143    2.857    3.857    0.000    2.857 
#    2.571    1.429    0.000    0.000    0.000    0.000 
#    0.000    0.000    0.000    0.000    0.000    0.000 
#
# Total GULP energy -313217.950630 kJ/mol
# GULP energy per Si atom -5593.177690 kJ/mol
# Density = 2.339352 g / cm^3
# Si number density = 23.446886 Si / 1000 Ang^3
#
#
#
# Elastic Constant Matrix: (Units=GPa)
#
#
# Indices 1 2 3 4 5 6 
#
# 1 79.6803 22.3319 34.8700 0.0000 0.0000 -5.6721
# 2 22.3319 79.6803 34.8700 0.0000 0.0000 5.6721
# 3 34.8700 34.8700 114.4206 0.0000 0.0000 0.0000
# 4 0.0000 0.0000 0.0000 25.5206 0.0000 0.0000
# 5 0.0000 0.0000 0.0000 0.0000 25.5206 0.0000
# 6 -5.6721 5.6721 0.0000 0.0000 0.0000 29.0993
#
#
#
# Elastic Compliance Matrix: (Units=1/GPa)
#
#
# Indices 1 2 3 4 5 6 
#
# 1 0.015260 -0.002877 -0.003774 0.000000 0.000000 0.003535
# 2 -0.002877 0.015260 -0.003774 0.000000 0.000000 -0.003535
# 3 -0.003774 -0.003774 0.011040 0.000000 0.000000 0.000000
# 4 0.000000 0.000000 0.000000 0.039184 0.000000 0.000000
# 5 0.000000 0.000000 0.000000 0.000000 0.039184 0.000000
# 6 0.003535 -0.003535 0.000000 0.000000 0.000000 0.035743
#
#
# Mechanical properties :
#
#
# Convention : Reuss Voigt Hill
#
# Bulk Modulus (GPa) = 48.28501 50.88055 49.58278
# Shear Modulus (GPa) = 27.25950 28.14203 27.70077
#
# Velocity S-wave (km/s) = 3.41340 3.46822 3.44092
# Velocity P-wave (km/s) = 6.01441 6.14699 6.08106
#
# Compressibility (1/GPa) = 0.02071036
#
# Stress axis : x y z
#
# Youngs Moduli (GPa) = 65.53270 65.53270 90.58197
#
# Poissons Ratio (x) = 0.18854 0.34182
# Poissons Ratio (y) = 0.18854 0.34182
# Poissons Ratio (z) = 0.24730 0.24730
#
# Static dielectric constant tensor:
#      x y z
#    x 1.897290 0.000000 0.000000 
#    y 0.000000 1.897290 0.000000 
#    z 0.000000 0.000000 1.891580 
# 
# From -- ./inp_files/5864.got.cif
#   From: 2010.05.17/outbox.cif.g08.bks.cpg/sg87_3_cif.got.tgz:5864.got - 2010.06.03 19:07:00.
