data_PCOD9545495
_publ_section_title
;
Structure prediction by ZEFSAII (Michael W. Deem and Ramdas Pophale) SiO2 
 PCOD9545495
Probable space group: I 4/M
;
_chemical_formula_sum "Si O2"
_cell_formula_units_Z 112
_cell_length_a 20.007710
_cell_length_b 20.007710
_cell_length_c 15.087114
_cell_angle_alpha 90.000000
_cell_angle_beta 90.000000
_cell_angle_gamma 90.000000
_cell_volume 6039.499363
_symmetry_space_group_name_H-M "I 4/M"
_symmetry_group_IT_number 87
_symmetry_cell_setting 'tetragonal'
loop_
_space_group_symop_operation_xyz
x,y,z
-y,x,z
-x,-y,z
y,-x,z
-x,-y,-z
y,-x,-z
x,y,-z
-y,x,-z
1/2+x,1/2+y,1/2+z
1/2-y,1/2+x,1/2+z
1/2-x,1/2-y,1/2+z
1/2+y,1/2-x,1/2+z
1/2-x,1/2-y,1/2-z
1/2+y,1/2-x,1/2-z
1/2+x,1/2+y,1/2-z
1/2-y,1/2+x,1/2-z
loop_
_atom_site_type_symbol
_atom_site_label
_atom_site_fract_x
_atom_site_fract_y
_atom_site_fract_z
Si Si1 0.366771 0.794856 0.844215
Si Si2 0.757810 0.546650 0.675945
Si Si3 0.598617 0.960682 0.856174
Si Si4 0.155069 0.815615 0.100538
Si Si5 0.398823 0.034568 0.360845
Si Si6 0.308139 0.255793 0.099193
Si Si7 0.392140 0.248824 0.274044
O O1 0.403394 0.763390 0.759445
O O2 0.425626 0.834719 0.893932
O O3 0.321841 0.738440 0.889408
O O4 0.315910 0.853799 0.813909
O O5 0.825740 0.552039 0.618557
O O6 0.697908 0.577433 0.619530
O O7 0.755306 0.471227 0.711859
O O8 0.601199 0.962495 0.747702
O O9 0.543288 0.906657 0.883270
O O10 0.571358 0.032467 0.886773
O O11 0.195303 0.745068 0.111576
O O12 0.188595 0.865079 0.170031
O O13 0.167085 0.837745 0.000000
O O14 0.364379 0.253953 0.174356
O O15 0.335067 0.252807 0.000000
#
# Coordination Sequence:
#
# PCOD9545495 Si02
#       7
#    16  16  16  16  16  16  16
#     4  10  17  31  52  84 110 150 195 233 276 336
#     4  11  19  30  56  83 112 149 192 235 284 353
#     4   8  14  22  38  72 111 146 176 216 262 329
#     4  10  21  37  57  83 114 151 195 245 294 345
#     4   8  13  22  39  70 111 146 182 214 262 318
#     4  10  20  37  57  78 115 156 196 247 291 329
#     4  11  20  36  56  84 118 149 194 242 289 339
#
# _framework density 18.544584
#
# number of rings (size 3 to 8) (size 9 to 14) (size 15 to 20)
#    0.000    2.286    4.286    1.714    2.000    0.571 
#    0.000    0.714    0.000    1.286    0.000    3.000 
#    0.000    2.286    0.000    0.000    0.000    0.000 
#
# Total GULP energy -312324.105765 kJ/mol
# GULP energy per Si atom -5577.216174 kJ/mol
# Density = 1.850238 g / cm^3
# Si number density = 18.544584 Si / 1000 Ang^3
#
#
#
# Elastic Constant Matrix: (Units=GPa)
#
#
# Indices 1 2 3 4 5 6 
#
# 1 67.7129 26.2958 20.0006 0.0000 0.0000 7.1323
# 2 26.2958 67.7129 20.0006 0.0000 0.0000 -7.1323
# 3 20.0006 20.0006 74.9115 0.0000 0.0000 0.0000
# 4 0.0000 0.0000 0.0000 -3.5009 0.0000 0.0000
# 5 0.0000 0.0000 0.0000 0.0000 -3.5009 0.0000
# 6 7.1323 -7.1323 0.0000 0.0000 0.0000 25.3466
#
#
#
# Elastic Compliance Matrix: (Units=1/GPa)
#
#
# Indices 1 2 3 4 5 6 
#
# 1 0.019368 -0.007368 -0.003204 0.000000 0.000000 -0.007523
# 2 -0.007368 0.019368 -0.003204 0.000000 0.000000 0.007523
# 3 -0.003204 -0.003204 0.015060 0.000000 0.000000 0.000000
# 4 0.000000 0.000000 0.000000 -0.285638 0.000000 0.000000
# 5 0.000000 0.000000 0.000000 0.000000 -0.285638 0.000000
# 6 -0.007523 0.007523 0.000000 0.000000 0.000000 0.043687
#
#
# Mechanical properties :
#
#
# Convention : Reuss Voigt Hill
#
# Bulk Modulus (GPa) = 38.10238 38.10348 38.10293
# Shear Modulus (GPa) = -11.42876 13.27162 0.92143
#
# Velocity S-wave (km/s) = -2.48520 2.67808 0.70566
# Velocity P-wave (km/s) = 3.51511 5.49130 4.61034
#
# Compressibility (1/GPa) = 0.02624508
#
# Stress axis : x y z
#
# Youngs Moduli (GPa) = 51.63109 51.63109 66.40109
#
# Poissons Ratio (x) = 0.38039 0.21275
# Poissons Ratio (y) = 0.38039 0.21275
# Poissons Ratio (z) = 0.16543 0.16543
#
# Static dielectric constant tensor:
#      x y z
#    x 1.663450 0.000000 0.000000 
#    y 0.000000 1.663450 0.000000 
#    z 0.000000 0.000000 1.695970 
# 
# From -- ./inp_files/4694.got.cif
#   From: 2010.05.17/outbox.cif.g08.bks.cpg/sg87_3_cif.got.tgz:4694.got - 2010.06.03 19:07:00.
