data_PCOD9545961
_publ_section_title
;
Structure prediction by ZEFSAII (Michael W. Deem and Ramdas Pophale) SiO2 
 PCOD9545961
Probable space group: I 4/M
;
_chemical_formula_sum "Si O2"
_cell_formula_units_Z 72
_cell_length_a 16.756664
_cell_length_b 16.756664
_cell_length_c 12.525146
_cell_angle_alpha 90.000000
_cell_angle_beta 90.000000
_cell_angle_gamma 90.000000
_cell_volume 3516.882995
_symmetry_space_group_name_H-M "I 4/M"
_symmetry_group_IT_number 87
_symmetry_cell_setting 'tetragonal'
loop_
_space_group_symop_operation_xyz
x,y,z
-y,x,z
-x,-y,z
y,-x,z
-x,-y,-z
y,-x,-z
x,y,-z
-y,x,-z
1/2+x,1/2+y,1/2+z
1/2-y,1/2+x,1/2+z
1/2-x,1/2-y,1/2+z
1/2+y,1/2-x,1/2+z
1/2-x,1/2-y,1/2-z
1/2+y,1/2-x,1/2-z
1/2+x,1/2+y,1/2-z
1/2-y,1/2+x,1/2-z
loop_
_atom_site_type_symbol
_atom_site_label
_atom_site_fract_x
_atom_site_fract_y
_atom_site_fract_z
Si Si1 0.793941 0.799388 0.500000
Si Si2 0.703151 0.518847 0.000000
Si Si3 0.614815 0.045575 0.217704
Si Si4 0.894665 0.084308 0.121654
Si Si5 0.109425 0.639769 0.500000
Si Si6 0.718148 0.403482 0.186565
O O1 0.827335 0.891160 0.500000
O O2 0.699948 0.814805 0.500000
O O3 0.829479 0.762668 0.607706
O O4 0.682656 0.470610 0.106451
O O5 0.799463 0.534081 0.000000
O O6 0.546679 0.089958 0.286632
O O7 0.701661 0.060349 0.264562
O O8 0.609772 0.086131 0.103252
O O9 0.841275 0.118132 0.217290
O O10 0.987626 0.108296 0.131432
O O11 0.869274 0.104739 0.000000
#
# Coordination Sequence:
#
# PCOD9545961 Si02
#       6
#     8   8  16  16   8  16
#     4   9  21  37  60  88 122 157 188 253 303 361
#     4   9  19  39  57  88 117 150 188 258 288 367
#     4  11  24  40  64  87 115 162 207 256 303 361
#     4   9  19  35  57  88 126 165 206 249 301 366
#     4  10  22  43  58  86 124 144 200 253 299 360
#     4  11  20  36  64  88 121 161 205 245 312 354
#
# _framework density 20.472674000000001
#
# number of rings (size 3 to 8) (size 9 to 14) (size 15 to 20)
#    0.667    1.333    2.222    2.000    1.556    4.444 
#    0.000    0.000    0.000    5.333    0.000    0.000 
#    0.000    0.000    0.000    0.000    0.000    0.000 
#
# Total GULP energy -200850.403622 kJ/mol
# GULP energy per Si atom -5579.177878 kJ/mol
# Density = 2.042608 g / cm^3
# Si number density = 20.472674 Si / 1000 Ang^3
#
#
#
# Elastic Constant Matrix: (Units=GPa)
#
#
# Indices 1 2 3 4 5 6 
#
# 1 13.3985 4.7781 7.5044 0.0000 0.0000 3.9559
# 2 4.7781 13.3985 7.5044 0.0000 0.0000 -3.9559
# 3 7.5044 7.5044 110.7352 0.0000 0.0000 0.0000
# 4 0.0000 0.0000 0.0000 -11.0655 0.0000 0.0000
# 5 0.0000 0.0000 0.0000 0.0000 -11.0655 0.0000
# 6 3.9559 -3.9559 0.0000 0.0000 0.0000 15.4986
#
#
#
# Elastic Compliance Matrix: (Units=1/GPa)
#
#
# Indices 1 2 3 4 5 6 
#
# 1 0.104884 -0.046607 -0.003949 0.000000 0.000000 -0.038667
# 2 -0.046607 0.104884 -0.003949 0.000000 0.000000 0.038667
# 3 -0.003949 -0.003949 0.009566 0.000000 0.000000 0.000000
# 4 0.000000 0.000000 0.000000 -0.090371 0.000000 0.000000
# 5 0.000000 0.000000 0.000000 0.000000 -0.090371 0.000000
# 6 -0.038667 0.038667 0.000000 0.000000 0.000000 0.084261
#
#
# Mechanical properties :
#
#
# Convention : Reuss Voigt Hill
#
# Bulk Modulus (GPa) = 9.06435 19.67846 14.37140
# Shear Modulus (GPa) = 18.61220 6.52319 12.56770
#
# Velocity S-wave (km/s) = 3.01844 1.78696 2.48034
# Velocity P-wave (km/s) = 4.07248 3.72700 3.90357
#
# Compressibility (1/GPa) = 0.11032229
#
# Stress axis : x y z
#
# Youngs Moduli (GPa) = 9.53430 9.53430 104.53860
#
# Poissons Ratio (x) = 0.44437 0.41286
# Poissons Ratio (y) = 0.44437 0.41286
# Poissons Ratio (z) = 0.03765 0.03765
#
# Static dielectric constant tensor:
#      x y z
#    x 1.724230 0.000000 0.000000 
#    y 0.000000 1.724230 0.000000 
#    z 0.000000 0.000000 1.709800 
# 
# From -- ./inp_files/2512.got.cif
#   From: 2010.05.17/outbox.cif.g08.bks.cpg/sg87_2_cif.got.tgz:2512.got - 2010.06.03 19:07:00.
