data_PCOD9545944
_publ_section_title
;
Structure prediction by ZEFSAII (Michael W. Deem and Ramdas Pophale) SiO2 
 PCOD9545944
Probable space group: I 4/M
;
_chemical_formula_sum "Si O2"
_cell_formula_units_Z 112
_cell_length_a 15.236897
_cell_length_b 15.236897
_cell_length_c 22.391799
_cell_angle_alpha 90.000000
_cell_angle_beta 90.000000
_cell_angle_gamma 90.000000
_cell_volume 5198.547907
_symmetry_space_group_name_H-M "I 4/M"
_symmetry_group_IT_number 87
_symmetry_cell_setting 'tetragonal'
loop_
_space_group_symop_operation_xyz
x,y,z
-y,x,z
-x,-y,z
y,-x,z
-x,-y,-z
y,-x,-z
x,y,-z
-y,x,-z
1/2+x,1/2+y,1/2+z
1/2-y,1/2+x,1/2+z
1/2-x,1/2-y,1/2+z
1/2+y,1/2-x,1/2+z
1/2-x,1/2-y,1/2-z
1/2+y,1/2-x,1/2-z
1/2+x,1/2+y,1/2-z
1/2-y,1/2+x,1/2-z
loop_
_atom_site_type_symbol
_atom_site_label
_atom_site_fract_x
_atom_site_fract_y
_atom_site_fract_z
Si Si1 0.003111 0.399722 0.572126
Si Si2 0.354136 0.507937 0.172751
Si Si3 0.291190 0.820621 0.428712
Si Si4 0.093060 0.767731 0.428702
Si Si5 0.595002 0.100795 0.749423
Si Si6 0.229362 0.103789 0.834492
Si Si7 0.075601 0.223321 0.208467
O O1 0.007110 0.407050 0.500000
O O2 0.089821 0.342967 0.588058
O O3 0.000000 0.500000 0.595458
O O4 0.920188 0.335978 0.583905
O O5 0.412610 0.421344 0.179508
O O6 0.312376 0.485659 0.108710
O O7 0.288972 0.527817 0.227044
O O8 0.292605 0.814167 0.500000
O O9 0.188693 0.806035 0.411095
O O10 0.347077 0.745995 0.396105
O O11 0.081301 0.781921 0.500000
O O12 0.497807 0.102677 0.777168
O O13 0.604858 0.179387 0.702682
O O14 0.676787 0.107984 0.793808
O O15 0.155371 0.157502 0.799513
O O16 0.205221 0.001691 0.838426
#
# Coordination Sequence:
#
# PCOD9545944 Si02
#       7
#    16  16  16  16  16  16  16
#     4   9  19  39  64  92 130 172 216 271 337 415
#     4  11  23  38  63  94 128 176 226 278 333 411
#     4  10  23  43  66  98 134 173 227 289 349 423
#     4  10  22  40  66  98 135 178 224 278 344 415
#     4   9  21  41  62  93 129 165 216 276 335 405
#     4  11  24  42  67  93 131 175 222 284 345 405
#     4  11  23  42  66  95 127 177 229 279 339 409
#
# _framework density 21.544478999999999
#
# number of rings (size 3 to 8) (size 9 to 14) (size 15 to 20)
#    0.000    1.857    1.429    1.286    4.000    5.429 
#    5.143    2.857    0.000    0.000    0.000    1.000 
#    0.000    0.000    0.000    0.000    0.000    0.000 
#
# Total GULP energy -312415.372298 kJ/mol
# GULP energy per Si atom -5578.845934 kJ/mol
# Density = 2.149544 g / cm^3
# Si number density = 21.544479 Si / 1000 Ang^3
#
#
#
# Elastic Constant Matrix: (Units=GPa)
#
#
# Indices 1 2 3 4 5 6 
#
# 1 136.1573 73.5709 36.2149 0.0000 0.0000 -3.8578
# 2 73.5709 136.1573 36.2149 0.0000 0.0000 3.8578
# 3 36.2149 36.2149 61.2314 0.0000 0.0000 0.0000
# 4 0.0000 0.0000 0.0000 27.5382 0.0000 0.0000
# 5 0.0000 0.0000 0.0000 0.0000 27.5382 0.0000
# 6 -3.8578 3.8578 0.0000 0.0000 0.0000 47.4119
#
#
#
# Elastic Compliance Matrix: (Units=1/GPa)
#
#
# Indices 1 2 3 4 5 6 
#
# 1 0.011066 -0.005074 -0.003544 0.000000 0.000000 0.001313
# 2 -0.005074 0.011066 -0.003544 0.000000 0.000000 -0.001313
# 3 -0.003544 -0.003544 0.020524 0.000000 0.000000 0.000000
# 4 0.000000 0.000000 0.000000 0.036313 0.000000 0.000000
# 5 0.000000 0.000000 0.000000 0.000000 0.036313 0.000000
# 6 0.001313 -0.001313 0.000000 0.000000 0.000000 0.021305
#
#
# Mechanical properties :
#
#
# Convention : Reuss Voigt Hill
#
# Bulk Modulus (GPa) = 54.54993 69.50529 62.02761
# Shear Modulus (GPa) = 29.93632 33.00069 31.46850
#
# Velocity S-wave (km/s) = 3.73166 3.91800 3.82596
# Velocity P-wave (km/s) = 6.62885 7.26629 6.95488
#
# Compressibility (1/GPa) = 0.01833183
#
# Stress axis : x y z
#
# Youngs Moduli (GPa) = 90.36773 90.36773 48.72452
#
# Poissons Ratio (x) = 0.45852 0.17268
# Poissons Ratio (y) = 0.45852 0.17268
# Poissons Ratio (z) = 0.32026 0.32026
#
# Static dielectric constant tensor:
#      x y z
#    x 1.800860 0.000000 0.000000 
#    y 0.000000 1.800860 0.000000 
#    z 0.000000 0.000000 1.790210 
# 
# From -- ./inp_files/5931.got.cif
#   From: 2010.05.17/outbox.cif.g08.bks.cpg/sg87_3_cif.got.tgz:5931.got - 2010.06.03 19:07:00.
