data_PCOD9545839
_publ_section_title
;
Structure prediction by ZEFSAII (Michael W. Deem and Ramdas Pophale) SiO2 
 PCOD9545839
Probable space group: I 4/M
;
_chemical_formula_sum "Si O2"
_cell_formula_units_Z 96
_cell_length_a 15.587537
_cell_length_b 15.587537
_cell_length_c 22.107268
_cell_angle_alpha 90.000000
_cell_angle_beta 90.000000
_cell_angle_gamma 90.000000
_cell_volume 5371.431860
_symmetry_space_group_name_H-M "I 4/M"
_symmetry_group_IT_number 87
_symmetry_cell_setting 'tetragonal'
loop_
_space_group_symop_operation_xyz
x,y,z
-y,x,z
-x,-y,z
y,-x,z
-x,-y,-z
y,-x,-z
x,y,-z
-y,x,-z
1/2+x,1/2+y,1/2+z
1/2-y,1/2+x,1/2+z
1/2-x,1/2-y,1/2+z
1/2+y,1/2-x,1/2+z
1/2-x,1/2-y,1/2-z
1/2+y,1/2-x,1/2-z
1/2+x,1/2+y,1/2-z
1/2-y,1/2+x,1/2-z
loop_
_atom_site_type_symbol
_atom_site_label
_atom_site_fract_x
_atom_site_fract_y
_atom_site_fract_z
Si Si1 0.172945 0.591695 0.176560
Si Si2 0.881881 0.931871 0.572512
Si Si3 0.803950 0.816152 0.000000
Si Si4 0.142513 0.397904 0.806459
Si Si5 0.736589 0.010508 0.000000
Si Si6 0.906999 0.508660 0.400935
Si Si7 0.265625 0.287725 0.117351
O O1 0.190642 0.490123 0.187101
O O2 0.126933 0.624329 0.237584
O O3 0.105146 0.599340 0.122153
O O4 0.246689 0.657301 0.156501
O O5 0.884591 0.934304 0.500000
O O6 0.801512 0.876477 0.590531
O O7 0.969985 0.886321 0.593504
O O8 0.905993 0.796950 0.000000
O O9 0.764390 0.771478 0.060851
O O10 0.782474 0.917550 0.000000
O O11 0.190600 0.318638 0.838324
O O12 0.054019 0.409795 0.843093
O O13 0.672472 0.014661 0.057177
O O14 0.000000 0.500000 0.431579
#
# Coordination Sequence:
#
# PCOD9545839 Si02
#       7
#    16  16   8  16   8  16  16
#     4  11  22  38  61  88 120 157 197 242 297 359
#     4   9  18  33  53  80 120 160 194 237 290 353
#     4  12  26  39  64  81 122 148 208 250 298 356
#     4  11  22  38  61  88 120 157 197 242 297 359
#     4  12  23  47  58  92 120 156 200 255 299 354
#     4  10  21  36  63  91 124 155 189 243 307 354
#     4  12  22  38  56  93 114 160 194 254 291 352
#
# _framework density 17.872329000000001
#
# number of rings (size 3 to 8) (size 9 to 14) (size 15 to 20)
#    0.000    1.167    5.833    2.250    0.000    0.167 
#    0.000    0.000    0.000    0.000    0.000    0.000 
#    0.000    0.000    0.000    0.000    0.000    0.000 
#
# Total GULP energy -267653.841106 kJ/mol
# GULP energy per Si atom -5576.121690 kJ/mol
# Density = 1.783165 g / cm^3
# Si number density = 17.872329 Si / 1000 Ang^3
#
#
#
# Elastic Constant Matrix: (Units=GPa)
#
#
# Indices 1 2 3 4 5 6 
#
# 1 66.4324 32.7487 24.7359 0.0000 0.0000 -1.9292
# 2 32.7487 66.4324 24.7359 0.0000 0.0000 1.9292
# 3 24.7359 24.7359 72.4985 0.0000 0.0000 0.0000
# 4 0.0000 0.0000 0.0000 18.9899 0.0000 0.0000
# 5 0.0000 0.0000 0.0000 0.0000 18.9899 0.0000
# 6 -1.9292 1.9292 0.0000 0.0000 0.0000 35.5003
#
#
#
# Elastic Compliance Matrix: (Units=1/GPa)
#
#
# Indices 1 2 3 4 5 6 
#
# 1 0.021012 -0.008862 -0.004146 0.000000 0.000000 0.001623
# 2 -0.008862 0.021012 -0.004146 0.000000 0.000000 -0.001623
# 3 -0.004146 -0.004146 0.016622 0.000000 0.000000 0.000000
# 4 0.000000 0.000000 0.000000 0.052660 0.000000 0.000000
# 5 0.000000 0.000000 0.000000 0.000000 0.052660 0.000000
# 6 0.001623 -0.001623 0.000000 0.000000 0.000000 0.028345
#
#
# Mechanical properties :
#
#
# Convention : Reuss Voigt Hill
#
# Bulk Modulus (GPa) = 41.08358 41.08938 41.08648
# Shear Modulus (GPa) = 21.30100 22.90552 22.10326
#
# Velocity S-wave (km/s) = 3.45605 3.58385 3.52053
# Velocity P-wave (km/s) = 6.24203 6.33765 6.29002
#
# Compressibility (1/GPa) = 0.02434062
#
# Stress axis : x y z
#
# Youngs Moduli (GPa) = 47.59145 47.59145 60.16017
#
# Poissons Ratio (x) = 0.42174 0.24940
# Poissons Ratio (y) = 0.42174 0.24940
# Poissons Ratio (z) = 0.19730 0.19730
#
# Static dielectric constant tensor:
#      x y z
#    x 1.618220 0.000000 0.000000 
#    y 0.000000 1.618220 0.000000 
#    z 0.000000 0.000000 1.592650 
# 
# From -- ./inp_files/5333.got.cif
#   From: 2010.05.17/outbox.cif.g08.bks.cpg/sg87_3_cif.got.tgz:5333.got - 2010.06.03 19:07:00.
