data_PCOD9545181
_publ_section_title
;
Structure prediction by ZEFSAII (Michael W. Deem and Ramdas Pophale) SiO2 
 PCOD9545181
Probable space group: P 42/N
;
_chemical_formula_sum "Si O2"
_cell_formula_units_Z 48
_cell_length_a 11.502797
_cell_length_b 11.502797
_cell_length_c 15.000472
_cell_angle_alpha 90.000000
_cell_angle_beta 90.000000
_cell_angle_gamma 90.000000
_cell_volume 1984.777535
_symmetry_space_group_name_H-M "P 42/N"
_symmetry_group_IT_number 86
_space_group.IT_coordinate_system_code '2'
_symmetry_cell_setting 'tetragonal'
loop_
_space_group_symop_operation_xyz
x,y,z
-y,1/2+x,1/2+z
1/2-x,1/2-y,z
1/2+y,-x,1/2+z
-x,-y,-z
y,1/2-x,1/2-z
1/2+x,1/2+y,-z
1/2-y,x,1/2-z
loop_
_atom_site_type_symbol
_atom_site_label
_atom_site_fract_x
_atom_site_fract_y
_atom_site_fract_z
Si Si1 0.652329 0.506227 0.987850
Si Si2 0.107343 0.994878 0.715097
Si Si3 0.807702 0.622503 0.354977
Si Si4 0.821518 0.368341 0.628003
Si Si5 0.460698 0.400249 0.436147
Si Si6 0.121952 0.219318 0.125713
O O1 0.631180 0.603035 0.063786
O O2 0.603829 0.390133 0.034772
O O3 0.785035 0.476255 0.968981
O O4 0.621923 0.582185 0.899678
O O5 0.086830 0.114972 0.768501
O O6 0.205944 0.027588 0.643222
O O7 0.155101 0.911018 0.791796
O O8 0.999993 0.936753 0.663236
O O9 0.750000 0.750000 0.347304
O O10 0.750000 0.250000 0.616240
O O11 0.761474 0.489459 0.659224
O O12 0.500000 0.500000 0.500000
O O13 0.323549 0.376036 0.446967
O O14 0.250000 0.250000 0.165146
#
# Coordination Sequence:
#
# PCOD9545181 Si02
#       6
#     8   8   8   8   8   8
#     4  10  22  41  69  99 132 180 240 292 360 426
#     4  11  23  38  61 102 135 181 229 287 361 425
#     4  11  19  36  67  97 133 175 231 290 352 428
#     4  11  25  43  67 101 145 182 230 304 366 421
#     4  11  22  38  66  98 133 174 232 289 350 423
#     4  10  22  44  66  95 132 187 233 281 347 440
#
# _framework density 24.184069000000001
#
# number of rings (size 3 to 8) (size 9 to 14) (size 15 to 20)
#    0.000    1.333    1.667    5.000    4.667    0.000 
#    6.000    4.167    0.000    0.000    0.000    0.000 
#    0.000    0.000    0.000    0.000    0.000    0.000 
#
# Total GULP energy -267337.261630 kJ/mol
# GULP energy per Si atom -5569.526284 kJ/mol
# Density = 2.412902 g / cm^3
# Si number density = 24.184069 Si / 1000 Ang^3
#
#
#
# Elastic Constant Matrix: (Units=GPa)
#
#
# Indices 1 2 3 4 5 6 
#
# 1 133.2854 40.9654 19.9457 0.0000 0.0000 2.4038
# 2 40.9654 133.2854 19.9457 0.0000 0.0000 -2.4038
# 3 19.9457 19.9457 69.7066 0.0000 0.0000 0.0000
# 4 0.0000 0.0000 0.0000 -10.8429 0.0000 0.0000
# 5 0.0000 0.0000 0.0000 0.0000 -10.8429 0.0000
# 6 2.4038 -2.4038 0.0000 0.0000 0.0000 26.2382
#
#
#
# Elastic Compliance Matrix: (Units=1/GPa)
#
#
# Indices 1 2 3 4 5 6 
#
# 1 0.008512 -0.002371 -0.001757 0.000000 0.000000 -0.000997
# 2 -0.002371 0.008512 -0.001757 0.000000 0.000000 0.000997
# 3 -0.001757 -0.001757 0.015351 0.000000 0.000000 0.000000
# 4 0.000000 0.000000 0.000000 -0.092227 0.000000 0.000000
# 5 0.000000 0.000000 0.000000 0.000000 -0.092227 0.000000
# 6 -0.000997 0.000997 0.000000 0.000000 0.000000 0.038295
#
#
# Mechanical properties :
#
#
# Convention : Reuss Voigt Hill
#
# Bulk Modulus (GPa) = 48.53221 55.33234 51.93227
# Shear Modulus (GPa) = -52.55302 17.93853 -17.30725
#
# Velocity S-wave (km/s) = -4.66665 2.72646 -2.67806
# Velocity P-wave (km/s) = 2.98754 5.73069 3.45799
#
# Compressibility (1/GPa) = 0.02060487
#
# Stress axis : x y z
#
# Youngs Moduli (GPa) = 117.47464 117.47464 65.14038
#
# Poissons Ratio (x) = 0.27857 0.11447
# Poissons Ratio (y) = 0.27857 0.11447
# Poissons Ratio (z) = 0.20643 0.20643
#
# Static dielectric constant tensor:
#      x y z
#    x 1.982730 0.000000 0.000000 
#    y 0.000000 1.982730 0.000000 
#    z 0.000000 0.000000 2.003760 
# 
# From -- ./inp_files/3528.got.cif
#   From: 2010.05.17/outbox.cif.g08.bks.cpg/sg86_2_cif.got.tgz:3528.got - 2010.06.03 19:03:11.
