data_PCOD9545416
_publ_section_title
;
Structure prediction by ZEFSAII (Michael W. Deem and Ramdas Pophale) SiO2 
 PCOD9545416
Probable space group: P 42/N
;
_chemical_formula_sum "Si O2"
_cell_formula_units_Z 22
_cell_length_a 8.267063
_cell_length_b 8.267063
_cell_length_c 13.571675
_cell_angle_alpha 90.000000
_cell_angle_beta 90.000000
_cell_angle_gamma 90.000000
_cell_volume 927.547044
_symmetry_space_group_name_H-M "P 42/N"
_symmetry_group_IT_number 86
_space_group.IT_coordinate_system_code '2'
_symmetry_cell_setting 'tetragonal'
loop_
_space_group_symop_operation_xyz
x,y,z
-y,1/2+x,1/2+z
1/2-x,1/2-y,z
1/2+y,-x,1/2+z
-x,-y,-z
y,1/2-x,1/2-z
1/2+x,1/2+y,-z
1/2-y,x,1/2-z
loop_
_atom_site_type_symbol
_atom_site_label
_atom_site_fract_x
_atom_site_fract_y
_atom_site_fract_z
Si Si1 0.333767 0.004031 0.610312
Si Si2 0.431285 0.296800 0.106626
Si Si3 0.750000 0.250000 0.737574
Si Si4 0.250000 0.250000 0.750000
O O1 0.247130 0.034265 0.506908
O O2 0.367259 0.166619 0.671643
O O3 0.508401 0.925278 0.598392
O O4 0.231841 0.896922 0.685283
O O5 0.250000 0.250000 0.137778
O O6 0.584485 0.240779 0.172875
#
# Coordination Sequence:
#
# PCOD9545416 Si02
#       4
#     8   8   4   2
#     4  11  25  46  70 108 150 193 252 314 383 453
#     4  11  26  46  74 111 151 198 255 318 380 460
#     4  12  26  44  74 112 146 198 246 312 386 454
#     4  12  20  48  72 100 154 196 240 316 376 460
#
# _framework density 23.718475000000002
#
# number of rings (size 3 to 8) (size 9 to 14) (size 15 to 20)
#    0.000    0.727    5.455    1.091    5.091    0.000 
#    0.000    7.273    0.000    0.000    0.000    0.000 
#    0.000    0.000    0.000    0.000    0.000    0.000 
#
# Total GULP energy -122748.336837 kJ/mol
# GULP energy per Si atom -5579.469856 kJ/mol
# Density = 2.366449 g / cm^3
# Si number density = 23.718475 Si / 1000 Ang^3
#
#
#
# Elastic Constant Matrix: (Units=GPa)
#
#
# Indices 1 2 3 4 5 6 
#
# 1 84.6464 22.2125 51.2423 0.0000 0.0000 6.4210
# 2 22.2125 84.6464 51.2423 0.0000 0.0000 -6.4210
# 3 51.2423 51.2423 214.0099 0.0000 0.0000 0.0000
# 4 0.0000 0.0000 0.0000 -7.0977 0.0000 0.0000
# 5 0.0000 0.0000 0.0000 0.0000 -7.0977 0.0000
# 6 6.4210 -6.4210 0.0000 0.0000 0.0000 20.6515
#
#
#
# Elastic Compliance Matrix: (Units=1/GPa)
#
#
# Indices 1 2 3 4 5 6 
#
# 1 0.014629 -0.002482 -0.002909 0.000000 0.000000 -0.005320
# 2 -0.002482 0.014629 -0.002909 0.000000 0.000000 0.005320
# 3 -0.002909 -0.002909 0.006066 0.000000 0.000000 0.000000
# 4 0.000000 0.000000 0.000000 -0.140892 0.000000 0.000000
# 5 0.000000 0.000000 0.000000 0.000000 -0.140892 0.000000
# 6 -0.005320 0.005320 0.000000 0.000000 0.000000 0.051731
#
#
# Mechanical properties :
#
#
# Convention : Reuss Voigt Hill
#
# Bulk Modulus (GPa) = 53.40045 70.29965 61.85005
# Shear Modulus (GPa) = -29.08876 18.53162 -5.27857
#
# Velocity S-wave (km/s) = -3.50582 2.79824 -1.49343
# Velocity P-wave (km/s) = 2.48504 6.33591 4.81244
#
# Compressibility (1/GPa) = 0.01872643
#
# Stress axis : x y z
#
# Youngs Moduli (GPa) = 68.35516 68.35516 164.86531
#
# Poissons Ratio (x) = 0.16964 0.47953
# Poissons Ratio (y) = 0.16964 0.47953
# Poissons Ratio (z) = 0.19882 0.19882
#
# Static dielectric constant tensor:
#      x y z
#    x 2.161310 0.000000 0.000000 
#    y 0.000000 2.161310 0.000000 
#    z 0.000000 0.000000 1.908630 
# 
# From -- ./inp_files/1682.got.cif
#   From: 2010.05.17/outbox.cif.g08.bks.cpg/sg86_1_cif.got.tgz:1682.got - 2010.06.03 19:03:11.
