data_PCOD9545476
_publ_section_title
;
Structure prediction by ZEFSAII (Michael W. Deem and Ramdas Pophale) SiO2 
 PCOD9545476
Probable space group: P 42/N
;
_chemical_formula_sum "Si O2"
_cell_formula_units_Z 32
_cell_length_a 12.000000
_cell_length_b 12.000000
_cell_length_c 12.000000
_cell_angle_alpha 90.000000
_cell_angle_beta 90.000000
_cell_angle_gamma 90.000000
_cell_volume 1728.000000
_symmetry_space_group_name_H-M "P 42/N"
_symmetry_group_IT_number 86
_space_group.IT_coordinate_system_code '2'
_symmetry_cell_setting 'tetragonal'
loop_
_space_group_symop_operation_xyz
x,y,z
-y,1/2+x,1/2+z
1/2-x,1/2-y,z
1/2+y,-x,1/2+z
-x,-y,-z
y,1/2-x,1/2-z
1/2+x,1/2+y,-z
1/2-y,x,1/2-z
loop_
_atom_site_type_symbol
_atom_site_label
_atom_site_fract_x
_atom_site_fract_y
_atom_site_fract_z
Si Si1 0.461604 0.372744 0.478316
Si Si2 0.173096 0.638023 0.215590
Si Si3 0.266563 0.426366 0.790639
Si Si4 0.090270 0.261705 0.193194
O O1 0.500000 0.500000 0.500000
O O2 0.562601 0.329934 0.397795
O O3 0.445528 0.294737 0.588440
O O4 0.342731 0.385072 0.412075
O O5 0.250000 0.750000 0.210065
O O6 0.227946 0.540567 0.295787
O O7 0.046711 0.681589 0.249155
O O8 0.367132 0.333305 0.783626
O O9 0.146185 0.338724 0.292917
#
# Coordination Sequence:
#
# PCOD9545476 Si02
#       4
#     8   8   8   8
#     4  11  22  44  70  97 137 183 228 287 358 416
#     4  11  24  42  70 103 139 177 237 293 342 423
#     4  11  25  45  70  99 143 181 230 294 354 416
#     4   9  21  41  69  96 134 178 232 283 348 427
#
# _framework density 18.518519000000001
#
# number of rings (size 3 to 8) (size 9 to 14) (size 15 to 20)
#    0.000    1.500    2.500    1.500    3.500   11.000 
#    0.000    1.250    0.000    0.000    0.000    0.000 
#    0.000    0.000    0.000    0.000    0.000    0.000 
#
# Total GULP energy -178143.468074 kJ/mol
# GULP energy per Si atom -5566.983377 kJ/mol
# Density = 1.847637 g / cm^3
# Si number density = 18.518519 Si / 1000 Ang^3
#
#
#
# Elastic Constant Matrix: (Units=GPa)
#
#
# Indices 1 2 3 4 5 6 
#
# 1 163.2682 66.9577 48.3280 0.0000 0.0000 -4.4539
# 2 66.9577 163.2682 48.3280 0.0000 0.0000 4.4539
# 3 48.3280 48.3280 113.2734 0.0000 0.0000 0.0000
# 4 0.0000 0.0000 0.0000 43.0006 0.0000 0.0000
# 5 0.0000 0.0000 0.0000 0.0000 43.0006 0.0000
# 6 -4.4539 4.4539 0.0000 0.0000 0.0000 60.9809
#
#
#
# Elastic Compliance Matrix: (Units=1/GPa)
#
#
# Indices 1 2 3 4 5 6 
#
# 1 0.007873 -0.002581 -0.002258 0.000000 0.000000 0.000764
# 2 -0.002581 0.007873 -0.002258 0.000000 0.000000 -0.000764
# 3 -0.002258 -0.002258 0.010755 0.000000 0.000000 0.000000
# 4 0.000000 0.000000 0.000000 0.023255 0.000000 0.000000
# 5 0.000000 0.000000 0.000000 0.000000 0.023255 0.000000
# 6 0.000764 -0.000764 0.000000 0.000000 0.000000 0.016510
#
#
# Mechanical properties :
#
#
# Convention : Reuss Voigt Hill
#
# Bulk Modulus (GPa) = 81.25418 85.22637 83.24027
# Shear Modulus (GPa) = 46.37548 47.80950 47.09249
#
# Velocity S-wave (km/s) = 5.00970 5.08657 5.04828
# Velocity P-wave (km/s) = 8.79974 8.97885 8.88974
#
# Compressibility (1/GPa) = 0.01230706
#
# Stress axis : x y z
#
# Youngs Moduli (GPa) = 127.02409 127.02409 92.98372
#
# Poissons Ratio (x) = 0.32787 0.20992
# Poissons Ratio (y) = 0.32787 0.20992
# Poissons Ratio (z) = 0.28676 0.28676
#
# Static dielectric constant tensor:
#      x y z
#    x 1.658510 0.000000 0.000000 
#    y 0.000000 1.658510 0.000000 
#    z 0.000000 0.000000 1.713270 
# 
# From -- ./inp_files/1877.got.cif
#   From: 2010.05.17/outbox.ucp.g08.bks.cvg/sg86_1_cif.got.tgz:1877.got - 2010.06.11 10:35:13.
