data_PCOD9545709
_publ_section_title
;
Structure prediction by ZEFSAII (Michael W. Deem and Ramdas Pophale) SiO2 
 PCOD9545709
Probable space group: I 4/M
;
_chemical_formula_sum "Si O2"
_cell_formula_units_Z 80
_cell_length_a 14.082045
_cell_length_b 14.082045
_cell_length_c 19.211054
_cell_angle_alpha 90.000000
_cell_angle_beta 90.000000
_cell_angle_gamma 90.000000
_cell_volume 3809.628687
_symmetry_space_group_name_H-M "I 4/M"
_symmetry_group_IT_number 87
_symmetry_cell_setting 'tetragonal'
loop_
_space_group_symop_operation_xyz
x,y,z
-y,x,z
-x,-y,z
y,-x,z
-x,-y,-z
y,-x,-z
x,y,-z
-y,x,-z
1/2+x,1/2+y,1/2+z
1/2-y,1/2+x,1/2+z
1/2-x,1/2-y,1/2+z
1/2+y,1/2-x,1/2+z
1/2-x,1/2-y,1/2-z
1/2+y,1/2-x,1/2-z
1/2+x,1/2+y,1/2-z
1/2-y,1/2+x,1/2-z
loop_
_atom_site_type_symbol
_atom_site_label
_atom_site_fract_x
_atom_site_fract_y
_atom_site_fract_z
Si Si1 0.107984 0.739549 0.801866
Si Si2 0.185179 0.627790 0.918597
Si Si3 0.609668 0.773111 0.303147
Si Si4 0.117057 0.904148 0.414987
Si Si5 0.909328 0.566156 0.082030
O O1 0.110575 0.688660 0.876870
O O2 0.160831 0.664429 0.752095
O O3 0.174821 0.831869 0.807356
O O4 0.998495 0.750510 0.781640
O O5 0.291006 0.653049 0.892007
O O6 0.171761 0.514525 0.910897
O O7 0.177390 0.647889 0.000000
O O8 0.606054 0.840971 0.371659
O O9 0.117846 0.902578 0.500000
O O10 0.126870 0.013522 0.392718
O O11 0.000000 0.500000 0.101799
O O12 0.918049 0.590182 0.000000
#
# Coordination Sequence:
#
# PCOD9545709 Si02
#       5
#    16  16  16  16  16
#     4  11  25  43  67  92 125 170 220 269 334 399
#     4  10  20  34  57  91 125 162 212 269 320 378
#     4  11  25  44  66  95 126 168 217 270 330 406
#     4   8  15  28  46  73 116 164 199 237 305 380
#     4  10  20  37  64  96 127 160 210 269 322 377
#
# _framework density 20.999420000000001
#
# number of rings (size 3 to 8) (size 9 to 14) (size 15 to 20)
#    0.000    2.000    2.000    1.800    2.800    1.200 
#    0.000    0.000    0.000    0.000    0.000    2.800 
#    0.000    0.000    0.000    0.000    0.000    0.000 
#
# Total GULP energy -223255.219684 kJ/mol
# GULP energy per Si atom -5581.380492 kJ/mol
# Density = 2.095162 g / cm^3
# Si number density = 20.999420 Si / 1000 Ang^3
#
#
#
# Elastic Constant Matrix: (Units=GPa)
#
#
# Indices 1 2 3 4 5 6 
#
# 1 135.4812 56.3944 38.0743 0.0000 0.0000 -8.9276
# 2 56.3944 135.4812 38.0743 0.0000 0.0000 8.9276
# 3 38.0743 38.0743 56.7862 0.0000 0.0000 0.0000
# 4 0.0000 0.0000 0.0000 19.0388 0.0000 0.0000
# 5 0.0000 0.0000 0.0000 0.0000 19.0388 0.0000
# 6 -8.9276 8.9276 0.0000 0.0000 0.0000 9.2925
#
#
#
# Elastic Compliance Matrix: (Units=1/GPa)
#
#
# Indices 1 2 3 4 5 6 
#
# 1 0.011624 -0.004523 -0.004761 0.000000 0.000000 0.015513
# 2 -0.004523 0.011624 -0.004761 0.000000 0.000000 -0.015513
# 3 -0.004761 -0.004761 0.023995 0.000000 0.000000 0.000000
# 4 0.000000 0.000000 0.000000 0.052524 0.000000 0.000000
# 5 0.000000 0.000000 0.000000 0.000000 0.052524 0.000000
# 6 0.015513 -0.015513 0.000000 0.000000 0.000000 0.137421
#
#
# Mechanical properties :
#
#
# Convention : Reuss Voigt Hill
#
# Bulk Modulus (GPa) = 52.21380 65.87052 59.04216
# Shear Modulus (GPa) = 15.42319 22.48770 18.95544
#
# Velocity S-wave (km/s) = 2.71303 3.27597 3.00770
# Velocity P-wave (km/s) = 5.89342 6.76352 6.34341
#
# Compressibility (1/GPa) = 0.01915203
#
# Stress axis : x y z
#
# Youngs Moduli (GPa) = 86.02925 86.02925 41.67585
#
# Poissons Ratio (x) = 0.38908 0.19843
# Poissons Ratio (y) = 0.38908 0.19843
# Poissons Ratio (z) = 0.40961 0.40961
#
# Static dielectric constant tensor:
#      x y z
#    x 1.783900 0.000000 0.000000 
#    y 0.000000 1.783900 0.000000 
#    z 0.000000 0.000000 1.766590 
# 
# From -- ./inp_files/5088.got.cif
#   From: 2010.05.17/outbox.cif.g08.bks.cpg/sg87_3_cif.got.tgz:5088.got - 2010.06.03 19:07:00.
