data_PCOD9545090
_publ_section_title
;
Structure prediction by ZEFSAII (Michael W. Deem and Ramdas Pophale) SiO2 
 PCOD9545090
Probable space group: P 42/N
;
_chemical_formula_sum "Si O2"
_cell_formula_units_Z 48
_cell_length_a 11.350680
_cell_length_b 11.350680
_cell_length_c 16.125943
_cell_angle_alpha 90.000000
_cell_angle_beta 90.000000
_cell_angle_gamma 90.000000
_cell_volume 2077.633220
_symmetry_space_group_name_H-M "P 42/N"
_symmetry_group_IT_number 86
_space_group.IT_coordinate_system_code '2'
_symmetry_cell_setting 'tetragonal'
loop_
_space_group_symop_operation_xyz
x,y,z
-y,1/2+x,1/2+z
1/2-x,1/2-y,z
1/2+y,-x,1/2+z
-x,-y,-z
y,1/2-x,1/2-z
1/2+x,1/2+y,-z
1/2-y,x,1/2-z
loop_
_atom_site_type_symbol
_atom_site_label
_atom_site_fract_x
_atom_site_fract_y
_atom_site_fract_z
Si Si1 0.265089 0.387544 0.535209
Si Si2 0.963149 0.358549 0.733234
Si Si3 0.014157 0.131106 0.643034
Si Si4 0.737398 0.997859 0.791998
Si Si5 0.873654 0.196489 0.883290
Si Si6 0.657824 0.567838 0.636347
O O1 0.250000 0.250000 0.561857
O O2 0.398205 0.405134 0.569274
O O3 0.192533 0.502409 0.567011
O O4 0.257098 0.395449 0.436328
O O5 0.851138 0.442834 0.723454
O O6 0.909658 0.280173 0.807336
O O7 0.997691 0.269646 0.660172
O O8 0.074248 0.426407 0.773550
O O9 0.891482 0.064346 0.628686
O O10 0.832695 0.078164 0.838158
O O11 0.806923 0.913261 0.731134
O O12 0.655446 0.953205 0.866077
O O13 0.750000 0.250000 0.921495
#
# Coordination Sequence:
#
# PCOD9545090 Si02
#       6
#     8   8   8   8   8   8
#     4  11  26  42  64 101 142 178 223 297 374 432
#     4   9  19  35  63  99 125 169 226 288 339 429
#     4  10  21  37  65  93 137 168 225 282 369 411
#     4  10  22  40  69  92 129 181 240 285 343 426
#     4   9  19  43  66  95 135 180 226 287 351 429
#     4  11  24  43  64  92 132 184 233 281 354 430
#
# _framework density 23.103211999999999
#
# number of rings (size 3 to 8) (size 9 to 14) (size 15 to 20)
#    0.000    2.000    1.667    1.500    7.000    0.000 
#    6.000    0.833    0.000    0.000    0.000    0.000 
#    0.000    0.000    0.000    0.000    0.000    0.000 
#
# Total GULP energy -267214.727256 kJ/mol
# GULP energy per Si atom -5566.973485 kJ/mol
# Density = 2.305063 g / cm^3
# Si number density = 23.103212 Si / 1000 Ang^3
#
#
#
# Elastic Constant Matrix: (Units=GPa)
#
#
# Indices 1 2 3 4 5 6 
#
# 1 80.8006 15.4766 20.2562 0.0000 0.0000 6.2645
# 2 15.4766 80.8006 20.2562 0.0000 0.0000 -6.2645
# 3 20.2562 20.2562 48.9324 0.0000 0.0000 0.0000
# 4 0.0000 0.0000 0.0000 16.5249 0.0000 0.0000
# 5 0.0000 0.0000 0.0000 0.0000 16.5249 0.0000
# 6 6.2645 -6.2645 0.0000 0.0000 0.0000 37.7893
#
#
#
# Elastic Compliance Matrix: (Units=1/GPa)
#
#
# Indices 1 2 3 4 5 6 
#
# 1 0.014194 -0.001617 -0.005207 0.000000 0.000000 -0.002621
# 2 -0.001617 0.014194 -0.005207 0.000000 0.000000 0.002621
# 3 -0.005207 -0.005207 0.024747 0.000000 0.000000 0.000000
# 4 0.000000 0.000000 0.000000 0.060515 0.000000 0.000000
# 5 0.000000 0.000000 0.000000 0.000000 0.060515 0.000000
# 6 -0.002621 0.002621 0.000000 0.000000 0.000000 0.027331
#
#
# Mechanical properties :
#
#
# Convention : Reuss Voigt Hill
#
# Bulk Modulus (GPa) = 34.39305 35.83460 35.11383
# Shear Modulus (GPa) = 21.25413 24.47081 22.86247
#
# Velocity S-wave (km/s) = 3.03638 3.25806 3.14917
# Velocity P-wave (km/s) = 5.21650 5.44955 5.33430
#
# Compressibility (1/GPa) = 0.02907564
#
# Stress axis : x y z
#
# Youngs Moduli (GPa) = 70.45084 70.45084 40.40887
#
# Poissons Ratio (x) = 0.11390 0.21039
# Poissons Ratio (y) = 0.11390 0.21039
# Poissons Ratio (z) = 0.36681 0.36681
#
# Static dielectric constant tensor:
#      x y z
#    x 1.986090 0.000000 0.000000 
#    y 0.000000 1.986090 0.000000 
#    z 0.000000 0.000000 1.842650 
# 
# From -- ./inp_files/3586.got.cif
#   From: 2010.05.17/outbox.cif.g08.bks.cpg/sg86_2_cif.got.tgz:3586.got - 2010.06.03 19:03:11.
