data_PCOD9545916
_publ_section_title
;
Structure prediction by ZEFSAII (Michael W. Deem and Ramdas Pophale) SiO2 
 PCOD9545916
Probable space group: I 4/M
;
_chemical_formula_sum "Si O2"
_cell_formula_units_Z 112
_cell_length_a 14.578906
_cell_length_b 14.578906
_cell_length_c 23.100822
_cell_angle_alpha 90.000000
_cell_angle_beta 90.000000
_cell_angle_gamma 90.000000
_cell_volume 4909.952665
_symmetry_space_group_name_H-M "I 4/M"
_symmetry_group_IT_number 87
_symmetry_cell_setting 'tetragonal'
loop_
_space_group_symop_operation_xyz
x,y,z
-y,x,z
-x,-y,z
y,-x,z
-x,-y,-z
y,-x,-z
x,y,-z
-y,x,-z
1/2+x,1/2+y,1/2+z
1/2-y,1/2+x,1/2+z
1/2-x,1/2-y,1/2+z
1/2+y,1/2-x,1/2+z
1/2-x,1/2-y,1/2-z
1/2+y,1/2-x,1/2-z
1/2+x,1/2+y,1/2-z
1/2-y,1/2+x,1/2-z
loop_
_atom_site_type_symbol
_atom_site_label
_atom_site_fract_x
_atom_site_fract_y
_atom_site_fract_z
Si Si1 0.163821 0.537676 0.624204
Si Si2 0.868681 0.930657 0.256818
Si Si3 0.329108 0.030736 0.433346
Si Si4 0.674626 0.861389 0.715534
Si Si5 0.368821 0.932497 0.676516
Si Si6 0.030126 0.855037 0.118037
Si Si7 0.632682 0.560505 0.930104
O O1 0.095769 0.583904 0.578274
O O2 0.195611 0.622178 0.665832
O O3 0.105234 0.470062 0.664390
O O4 0.249024 0.478854 0.601202
O O5 0.782789 0.876179 0.281636
O O6 0.855766 0.946740 0.187400
O O7 0.962937 0.881015 0.274297
O O8 0.324503 0.002573 0.500000
O O9 0.236570 0.086570 0.417063
O O10 0.331287 0.947285 0.388251
O O11 0.637760 0.827859 0.777392
O O12 0.640121 0.966482 0.704185
O O13 0.931423 0.896884 0.099131
O O14 0.544650 0.616936 0.910370
O O15 0.626755 0.562294 0.000000
#
# Coordination Sequence:
#
# PCOD9545916 Si02
#       7
#    16  16  16  16  16  16  16
#     4  11  22  36  58  85 114 155 193 240 290 344
#     4   9  18  35  56  80 119 158 188 238 302 349
#     4  10  22  37  57  90 124 149 184 233 289 347
#     4  11  19  35  57  85 116 151 201 236 277 344
#     4  11  21  34  58  80 114 157 188 232 284 336
#     4   9  18  37  59  79 109 153 201 246 297 350
#     4   8  15  34  62  84 112 157 196 225 269 334
#
# _framework density 22.81081
#
# number of rings (size 3 to 8) (size 9 to 14) (size 15 to 20)
#    0.000    2.143    2.857    3.000    0.000    1.143 
#    5.143    6.429    0.000    9.429    0.000    3.000 
#    0.000    0.000    0.000    1.571    0.000    0.000 
#
# Total GULP energy -312191.035767 kJ/mol
# GULP energy per Si atom -5574.839924 kJ/mol
# Density = 2.275889 g / cm^3
# Si number density = 22.810810 Si / 1000 Ang^3
#
#
#
# Elastic Constant Matrix: (Units=GPa)
#
#
# Indices 1 2 3 4 5 6 
#
# 1 76.4736 2.0557 1.8154 0.0000 0.0000 2.0478
# 2 2.0557 76.4736 1.8154 0.0000 0.0000 -2.0478
# 3 1.8154 1.8154 81.3611 0.0000 0.0000 0.0000
# 4 0.0000 0.0000 0.0000 7.0178 0.0000 0.0000
# 5 0.0000 0.0000 0.0000 0.0000 7.0178 0.0000
# 6 2.0478 -2.0478 0.0000 0.0000 0.0000 12.5252
#
#
#
# Elastic Compliance Matrix: (Units=1/GPa)
#
#
# Indices 1 2 3 4 5 6 
#
# 1 0.013153 -0.000406 -0.000284 0.000000 0.000000 -0.002217
# 2 -0.000406 0.013153 -0.000284 0.000000 0.000000 0.002217
# 3 -0.000284 -0.000284 0.012304 0.000000 0.000000 0.000000
# 4 0.000000 0.000000 0.000000 0.142495 0.000000 0.000000
# 5 0.000000 0.000000 0.000000 0.000000 0.142495 0.000000
# 6 -0.002217 0.002217 0.000000 0.000000 0.000000 0.080564
#
#
# Mechanical properties :
#
#
# Convention : Reuss Voigt Hill
#
# Bulk Modulus (GPa) = 27.27743 27.29794 27.28769
# Shear Modulus (GPa) = 11.95215 20.55360 16.25288
#
# Velocity S-wave (km/s) = 2.29152 3.00500 2.67218
# Velocity P-wave (km/s) = 4.35723 4.90236 4.63781
#
# Compressibility (1/GPa) = 0.03666034
#
# Stress axis : x y z
#
# Youngs Moduli (GPa) = 76.02570 76.02570 81.27719
#
# Poissons Ratio (x) = 0.03088 0.02312
# Poissons Ratio (y) = 0.03088 0.02312
# Poissons Ratio (z) = 0.02162 0.02162
#
# Static dielectric constant tensor:
#      x y z
#    x 1.874870 0.000000 0.000000 
#    y 0.000000 1.874870 0.000000 
#    z 0.000000 0.000000 1.885710 
# 
# From -- ./inp_files/6287.got.cif
#   From: 2010.05.17/outbox.cif.g08.bks.cpg/sg87_4_cif.got.tgz:6287.got - 2010.06.03 19:07:00.
