data_PCOD9545253
_publ_section_title
;
Structure prediction by ZEFSAII (Michael W. Deem and Ramdas Pophale) SiO2 
 PCOD9545253
Probable space group: P 42/N
;
_chemical_formula_sum "Si O2"
_cell_formula_units_Z 64
_cell_length_a 23.363797
_cell_length_b 23.363797
_cell_length_c 5.127495
_cell_angle_alpha 90.000000
_cell_angle_beta 90.000000
_cell_angle_gamma 90.000000
_cell_volume 2798.930366
_symmetry_space_group_name_H-M "P 42/N"
_symmetry_group_IT_number 86
_space_group.IT_coordinate_system_code '2'
_symmetry_cell_setting 'tetragonal'
loop_
_space_group_symop_operation_xyz
x,y,z
-y,1/2+x,1/2+z
1/2-x,1/2-y,z
1/2+y,-x,1/2+z
-x,-y,-z
y,1/2-x,1/2-z
1/2+x,1/2+y,-z
1/2-y,x,1/2-z
loop_
_atom_site_type_symbol
_atom_site_label
_atom_site_fract_x
_atom_site_fract_y
_atom_site_fract_z
Si Si1 0.489451 0.406975 0.854426
Si Si2 0.302016 0.875393 0.826546
Si Si3 0.770928 0.114495 0.684933
Si Si4 0.834741 0.604230 0.098847
Si Si5 0.396350 0.429541 0.209801
Si Si6 0.296744 0.411682 0.844263
Si Si7 0.098420 0.561697 0.128559
Si Si8 0.341292 0.517395 0.553373
O O1 0.449434 0.353336 0.775981
O O2 0.519332 0.429237 0.590650
O O3 0.441001 0.447368 0.987744
O O4 0.531127 0.393118 0.095001
O O5 0.248803 0.879380 0.019606
O O6 0.333717 0.814920 0.861324
O O7 0.346130 0.920479 0.956517
O O8 0.279928 0.883702 0.530981
O O9 0.804307 0.055055 0.644455
O O10 0.865374 0.662811 0.196019
O O11 0.766992 0.608650 0.101212
O O12 0.867762 0.589456 0.831479
O O13 0.389443 0.477315 0.424790
O O14 0.332413 0.422733 0.104044
O O15 0.300629 0.473114 0.702039
O O16 0.064330 0.619820 0.197580
#
# Coordination Sequence:
#
# PCOD9545253 Si02
#       8
#     8   8   8   8   8   8   8   8
#     4  11  23  43  70  99 138 183 227 281 334 417
#     4  11  25  43  66 102 131 186 233 286 345 415
#     4  11  25  44  68  96 141 177 236 288 350 405
#     4  10  23  46  67 108 134 187 229 289 343 422
#     4  10  23  44  66 106 136 178 235 277 353 416
#     4  10  24  44  72  97 143 178 236 281 357 412
#     4  11  25  42  67 101 143 179 237 281 340 415
#     4  10  26  42  65 102 136 182 226 293 346 412
#
# _framework density 22.865877000000001
#
# number of rings (size 3 to 8) (size 9 to 14) (size 15 to 20)
#    0.000    1.500    1.250    1.500    7.000    8.750 
#    0.000    0.000    0.000    0.000    0.000    0.000 
#    0.000    0.000    0.000    0.000    0.000    0.000 
#
# Total GULP energy -357382.314092 kJ/mol
# GULP energy per Si atom -5584.098658 kJ/mol
# Density = 2.281383 g / cm^3
# Si number density = 22.865877 Si / 1000 Ang^3
#
#
#
# Elastic Constant Matrix: (Units=GPa)
#
#
# Indices 1 2 3 4 5 6 
#
# 1 83.7642 -20.2648 -8.0134 0.0000 0.0000 -0.7876
# 2 -20.2648 83.7642 -8.0134 0.0000 0.0000 0.7876
# 3 -8.0134 -8.0134 71.5612 0.0000 0.0000 0.0000
# 4 0.0000 0.0000 0.0000 18.3653 0.0000 0.0000
# 5 0.0000 0.0000 0.0000 0.0000 18.3653 0.0000
# 6 -0.7876 0.7876 0.0000 0.0000 0.0000 21.6629
#
#
#
# Elastic Compliance Matrix: (Units=1/GPa)
#
#
# Indices 1 2 3 4 5 6 
#
# 1 0.012912 0.003294 0.001815 0.000000 0.000000 0.000350
# 2 0.003294 0.012912 0.001815 0.000000 0.000000 -0.000350
# 3 0.001815 0.001815 0.014380 0.000000 0.000000 0.000000
# 4 0.000000 0.000000 0.000000 0.054451 0.000000 0.000000
# 5 0.000000 0.000000 0.000000 0.000000 0.054451 0.000000
# 6 0.000350 -0.000350 0.000000 0.000000 0.000000 0.046187
#
#
# Mechanical properties :
#
#
# Convention : Reuss Voigt Hill
#
# Bulk Modulus (GPa) = 18.50072 18.50072 18.50072
# Shear Modulus (GPa) = 25.06726 30.03743 27.55235
#
# Velocity S-wave (km/s) = 3.31459 3.62834 3.47501
# Velocity P-wave (km/s) = 4.77046 5.06574 4.92031
#
# Compressibility (1/GPa) = 0.05405196
#
# Stress axis : x y z
#
# Youngs Moduli (GPa) = 77.44667 77.44667 69.53871
#
# Poissons Ratio (x) = -0.25512 -0.12620
# Poissons Ratio (y) = -0.25512 -0.12620
# Poissons Ratio (z) = -0.14055 -0.14055
#
# Static dielectric constant tensor:
#      x y z
#    x 1.887850 0.000000 0.000000 
#    y 0.000000 1.887850 0.000000 
#    z 0.000000 0.000000 1.893190 
# 
# From -- ./inp_files/552.got.cif
#   From: 2010.05.17/outbox.cif.g08.bks.cpg/sg86_1_cif.got.tgz:552.got - 2010.06.03 19:03:11.
