data_PCOD9545942
_publ_section_title
;
Structure prediction by ZEFSAII (Michael W. Deem and Ramdas Pophale) SiO2 
 PCOD9545942
Probable space group: I 4/M
;
_chemical_formula_sum "Si O2"
_cell_formula_units_Z 48
_cell_length_a 8.113417
_cell_length_b 8.113417
_cell_length_c 33.162732
_cell_angle_alpha 90.000000
_cell_angle_beta 90.000000
_cell_angle_gamma 90.000000
_cell_volume 2183.020915
_symmetry_space_group_name_H-M "I 4/M"
_symmetry_group_IT_number 87
_symmetry_cell_setting 'tetragonal'
loop_
_space_group_symop_operation_xyz
x,y,z
-y,x,z
-x,-y,z
y,-x,z
-x,-y,-z
y,-x,-z
x,y,-z
-y,x,-z
1/2+x,1/2+y,1/2+z
1/2-y,1/2+x,1/2+z
1/2-x,1/2-y,1/2+z
1/2+y,1/2-x,1/2+z
1/2-x,1/2-y,1/2-z
1/2+y,1/2-x,1/2-z
1/2+x,1/2+y,1/2-z
1/2-y,1/2+x,1/2-z
loop_
_atom_site_type_symbol
_atom_site_label
_atom_site_fract_x
_atom_site_fract_y
_atom_site_fract_z
Si Si1 0.894566 0.247873 0.126653
Si Si2 0.782238 0.169382 0.293537
Si Si3 0.000000 0.500000 0.568698
Si Si4 0.086113 0.733538 0.500000
O O1 0.850942 0.275425 0.173423
O O2 0.872174 0.402595 0.097649
O O3 0.084531 0.207314 0.118214
O O4 0.750000 0.250000 0.250000
O O5 0.972300 0.220494 0.299211
O O6 0.893350 0.385652 0.538539
O O7 0.895529 0.799514 0.500000
#
# Coordination Sequence:
#
# PCOD9545942 Si02
#       4
#    16  16   8   8
#     4  11  23  39  61  90 124 165 215 271 329 393
#     4  11  24  41  62  90 125 167 213 263 324 390
#     4  11  22  40  64  93 130 172 222 279 340 403
#     4  10  22  40  64  94 130 174 220 273 340 410
#
# _framework density 21.987880000000001
#
# number of rings (size 3 to 8) (size 9 to 14) (size 15 to 20)
#    0.000    1.167    0.000    6.000    0.000    6.000 
#    0.000    3.333    0.000    8.000    0.000    0.000 
#    0.000    0.000    0.000    0.000    0.000    0.000 
#
# Total GULP energy -133852.130539 kJ/mol
# GULP energy per Si atom -5577.172106 kJ/mol
# Density = 2.193783 g / cm^3
# Si number density = 21.987880 Si / 1000 Ang^3
#
#
#
# Elastic Constant Matrix: (Units=GPa)
#
#
# Indices 1 2 3 4 5 6 
#
# 1 61.3001 20.2878 39.0473 0.0000 0.0000 7.7561
# 2 20.2878 61.3001 39.0473 0.0000 0.0000 -7.7561
# 3 39.0473 39.0473 177.0631 0.0000 0.0000 0.0000
# 4 0.0000 0.0000 0.0000 35.7710 0.0000 0.0000
# 5 0.0000 0.0000 0.0000 0.0000 35.7710 0.0000
# 6 7.7561 -7.7561 0.0000 0.0000 0.0000 -52.0263
#
#
#
# Elastic Compliance Matrix: (Units=1/GPa)
#
#
# Indices 1 2 3 4 5 6 
#
# 1 0.019309 -0.003773 -0.003426 0.000000 0.000000 0.003441
# 2 -0.003773 0.019309 -0.003426 0.000000 0.000000 -0.003441
# 3 -0.003426 -0.003426 0.007159 0.000000 0.000000 0.000000
# 4 0.000000 0.000000 0.000000 0.027956 0.000000 0.000000
# 5 0.000000 0.000000 0.000000 0.000000 0.027956 0.000000
# 6 0.003441 -0.003441 0.000000 0.000000 0.000000 -0.018195
#
#
# Mechanical properties :
#
#
# Convention : Reuss Voigt Hill
#
# Bulk Modulus (GPa) = 40.77214 55.15867 47.96541
# Shear Modulus (GPa) = 44.27997 17.32189 30.80093
#
# Velocity S-wave (km/s) = 4.49245 2.80981 3.74681
# Velocity P-wave (km/s) = 6.74483 5.97219 6.37024
#
# Compressibility (1/GPa) = 0.02452655
#
# Stress axis : x y z
#
# Youngs Moduli (GPa) = 51.78988 51.78988 139.68775
#
# Poissons Ratio (x) = 0.19538 0.47859
# Poissons Ratio (y) = 0.19538 0.47859
# Poissons Ratio (z) = 0.17744 0.17744
#
# Static dielectric constant tensor:
#      x y z
#    x 1.952830 0.000000 0.000000 
#    y 0.000000 1.952830 0.000000 
#    z 0.000000 0.000000 1.808360 
# 
# From -- ./inp_files/6402.got.cif
#   From: 2010.05.17/outbox.cif.g08.bks.cpg/sg87_4_cif.got.tgz:6402.got - 2010.06.03 19:07:00.
