data_PCOD9545549
_publ_section_title
;
Structure prediction by ZEFSAII (Michael W. Deem and Ramdas Pophale) SiO2 
 PCOD9545549
Probable space group: I 4/M
;
_chemical_formula_sum "Si O2"
_cell_formula_units_Z 96
_cell_length_a 25.867484
_cell_length_b 25.867484
_cell_length_c 8.857745
_cell_angle_alpha 90.000000
_cell_angle_beta 90.000000
_cell_angle_gamma 90.000000
_cell_volume 5926.953934
_symmetry_space_group_name_H-M "I 4/M"
_symmetry_group_IT_number 87
_symmetry_cell_setting 'tetragonal'
loop_
_space_group_symop_operation_xyz
x,y,z
-y,x,z
-x,-y,z
y,-x,z
-x,-y,-z
y,-x,-z
x,y,-z
-y,x,-z
1/2+x,1/2+y,1/2+z
1/2-y,1/2+x,1/2+z
1/2-x,1/2-y,1/2+z
1/2+y,1/2-x,1/2+z
1/2-x,1/2-y,1/2-z
1/2+y,1/2-x,1/2-z
1/2+x,1/2+y,1/2-z
1/2-y,1/2+x,1/2-z
loop_
_atom_site_type_symbol
_atom_site_label
_atom_site_fract_x
_atom_site_fract_y
_atom_site_fract_z
Si Si1 0.244768 0.937974 0.826418
Si Si2 0.137507 0.058715 0.182474
Si Si3 0.252141 0.063293 0.172785
Si Si4 0.056079 0.137913 0.679768
Si Si5 0.444007 0.858604 0.819971
Si Si6 0.358925 0.942128 0.182679
O O1 0.195456 0.925062 0.725929
O O2 0.301782 0.921452 0.773604
O O3 0.248644 0.000602 0.828266
O O4 0.235895 0.921294 0.000000
O O5 0.194961 0.079623 0.223983
O O6 0.093746 0.096064 0.245832
O O7 0.131741 0.001479 0.251707
O O8 0.135682 0.055212 0.000000
O O9 0.302096 0.076227 0.270447
O O10 0.260459 0.080050 0.000000
O O11 0.054487 0.132306 0.500000
O O12 0.404064 0.903057 0.771804
O O13 0.500626 0.866382 0.748519
O O14 0.448778 0.860152 0.000000
O O15 0.358211 0.946184 0.000000
#
# Coordination Sequence:
#
# PCOD9545549 Si02
#       6
#    16  16  16  16  16  16
#     4   8  15  31  50  65  89 127 163 191 229 286
#     4  10  20  35  52  70  96 132 163 185 228 292
#     4   8  16  31  50  69  91 122 160 197 231 277
#     4  11  21  32  49  76 102 121 153 202 241 269
#     4  10  19  30  48  72  96 125 160 199 240 279
#     4   9  19  33  47  68  98 129 160 194 236 287
#
# _framework density 16.197191
#
# number of rings (size 3 to 8) (size 9 to 14) (size 15 to 20)
#    0.000    2.667    0.000    4.500    0.000    8.667 
#    0.000    3.333    0.000    1.000    0.000    0.000 
#    0.000    0.000    0.000    0.000    0.000    0.000 
#
# Total GULP energy -267410.300363 kJ/mol
# GULP energy per Si atom -5571.047924 kJ/mol
# Density = 1.616033 g / cm^3
# Si number density = 16.197191 Si / 1000 Ang^3
#
#
#
# Elastic Constant Matrix: (Units=GPa)
#
#
# Indices 1 2 3 4 5 6 
#
# 1 102.8138 69.2242 43.9814 0.0000 0.0000 -0.6584
# 2 69.2242 102.8138 43.9814 0.0000 0.0000 0.6584
# 3 43.9814 43.9814 62.2547 0.0000 0.0000 0.0000
# 4 0.0000 0.0000 0.0000 17.7856 0.0000 0.0000
# 5 0.0000 0.0000 0.0000 0.0000 17.7856 0.0000
# 6 -0.6584 0.6584 0.0000 0.0000 0.0000 -3.4981
#
#
#
# Elastic Compliance Matrix: (Units=1/GPa)
#
#
# Indices 1 2 3 4 5 6 
#
# 1 0.019326 -0.010227 -0.006429 0.000000 0.000000 -0.005563
# 2 -0.010227 0.019326 -0.006429 0.000000 0.000000 0.005563
# 3 -0.006429 -0.006429 0.025146 0.000000 0.000000 0.000000
# 4 0.000000 0.000000 0.000000 0.056225 0.000000 0.000000
# 5 0.000000 0.000000 0.000000 0.000000 0.056225 0.000000
# 6 -0.005563 0.005563 0.000000 0.000000 0.000000 -0.283778
#
#
# Mechanical properties :
#
#
# Convention : Reuss Voigt Hill
#
# Bulk Modulus (GPa) = 56.71815 64.69513 60.70664
# Shear Modulus (GPa) = -90.11722 13.79430 -38.16146
#
# Velocity S-wave (km/s) = -7.46715 2.92147 -4.85919
# Velocity P-wave (km/s) = 6.26507 7.17000 2.46553
#
# Compressibility (1/GPa) = 0.01763104
#
# Stress axis : x y z
#
# Youngs Moduli (GPa) = 51.74285 51.74285 39.76705
#
# Poissons Ratio (x) = 0.52916 0.25565
# Poissons Ratio (y) = 0.52916 0.25565
# Poissons Ratio (z) = 0.33264 0.33264
#
# Static dielectric constant tensor:
#      x y z
#    x 1.544290 0.000000 0.000000 
#    y 0.000000 1.544290 0.000000 
#    z 0.000000 0.000000 1.541740 
# 
# From -- ./inp_files/1324.got.cif
#   From: 2010.05.17/outbox.cif.g08.bks.cpg/sg87_1_cif.got.tgz:1324.got - 2010.06.03 19:07:00.
