data_PCOD9545238
_publ_section_title
;
Structure prediction by ZEFSAII (Michael W. Deem and Ramdas Pophale) SiO2 
 PCOD9545238
Probable space group: P 42/N
;
_chemical_formula_sum "Si O2"
_cell_formula_units_Z 58
_cell_length_a 18.044950
_cell_length_b 18.044950
_cell_length_c 7.829368
_cell_angle_alpha 90.000000
_cell_angle_beta 90.000000
_cell_angle_gamma 90.000000
_cell_volume 2549.400535
_symmetry_space_group_name_H-M "P 42/N"
_symmetry_group_IT_number 86
_space_group.IT_coordinate_system_code '2'
_symmetry_cell_setting 'tetragonal'
loop_
_space_group_symop_operation_xyz
x,y,z
-y,1/2+x,1/2+z
1/2-x,1/2-y,z
1/2+y,-x,1/2+z
-x,-y,-z
y,1/2-x,1/2-z
1/2+x,1/2+y,-z
1/2-y,x,1/2-z
loop_
_atom_site_type_symbol
_atom_site_label
_atom_site_fract_x
_atom_site_fract_y
_atom_site_fract_z
Si Si1 0.234874 0.856241 0.741655
Si Si2 0.250000 0.250000 0.750000
Si Si3 0.165473 0.002700 0.830808
Si Si4 0.847304 0.714395 0.831031
Si Si5 0.772948 0.130572 0.650827
Si Si6 0.485457 0.453688 0.824108
Si Si7 0.097144 0.204886 0.834546
Si Si8 0.992462 0.643367 0.725188
O O1 0.250073 0.876219 0.545684
O O2 0.178250 0.787475 0.747165
O O3 0.312237 0.841116 0.834023
O O4 0.191063 0.919123 0.838421
O O5 0.172297 0.201962 0.720051
O O6 0.086229 0.008542 0.738055
O O7 0.229803 0.046507 0.737644
O O8 0.152627 0.027370 0.025116
O O9 0.770445 0.668252 0.829618
O O10 0.915288 0.658505 0.817532
O O11 0.868743 0.770996 0.982466
O O12 0.793736 0.051463 0.724300
O O13 0.454338 0.369247 0.844342
O O14 0.564824 0.467622 0.737495
O O15 0.500000 0.500000 0.000000
#
# Coordination Sequence:
#
# PCOD9545238 Si02
#       8
#     8   2   8   8   8   8   8   8
#     4  11  22  39  63  90 125 168 221 282 335 418
#     4  12  24  40  78 100 136 180 250 300 352 420
#     4  11  23  40  65  94 129 175 226 280 346 421
#     4  11  25  43  66  97 137 176 232 292 354 421
#     4  11  22  40  62  92 125 170 224 278 347 409
#     4  10  23  42  65  95 135 176 222 283 359 422
#     4  12  24  43  71 102 135 184 237 296 355 433
#     4  11  24  42  65  95 135 179 222 289 357 428
#
# _framework density 22.750444999999999
#
# number of rings (size 3 to 8) (size 9 to 14) (size 15 to 20)
#    0.000    0.966    1.379    7.448    1.931    4.414 
#    0.000    2.759    0.000    0.000    0.000    0.000 
#    0.000    0.000    0.000    0.000    0.000    0.000 
#
# Total GULP energy -323245.202217 kJ/mol
# GULP energy per Si atom -5573.193142 kJ/mol
# Density = 2.269866 g / cm^3
# Si number density = 22.750445 Si / 1000 Ang^3
#
#
#
# Elastic Constant Matrix: (Units=GPa)
#
#
# Indices 1 2 3 4 5 6 
#
# 1 123.4390 56.1785 -5.1497 0.0000 0.0000 3.7564
# 2 56.1785 123.4390 -5.1497 0.0000 0.0000 -3.7564
# 3 -5.1497 -5.1497 36.6422 0.0000 0.0000 0.0000
# 4 0.0000 0.0000 0.0000 21.5190 0.0000 0.0000
# 5 0.0000 0.0000 0.0000 0.0000 21.5190 0.0000
# 6 3.7564 -3.7564 0.0000 0.0000 0.0000 50.6393
#
#
#
# Elastic Compliance Matrix: (Units=1/GPa)
#
#
# Indices 1 2 3 4 5 6 
#
# 1 0.010302 -0.004690 0.000789 0.000000 0.000000 -0.001112
# 2 -0.004690 0.010302 0.000789 0.000000 0.000000 0.001112
# 3 0.000789 0.000789 0.027513 0.000000 0.000000 0.000000
# 4 0.000000 0.000000 0.000000 0.046471 0.000000 0.000000
# 5 0.000000 0.000000 0.000000 0.000000 0.046471 0.000000
# 6 -0.001112 0.001112 0.000000 0.000000 0.000000 0.019912
#
#
# Mechanical properties :
#
#
# Convention : Reuss Voigt Hill
#
# Bulk Modulus (GPa) = 23.87030 41.69761 32.78396
# Shear Modulus (GPa) = 27.60007 34.57820 31.08914
#
# Velocity S-wave (km/s) = 3.48683 3.90281 3.70067
# Velocity P-wave (km/s) = 5.16969 6.21910 5.71852
#
# Compressibility (1/GPa) = 0.04189306
#
# Stress axis : x y z
#
# Youngs Moduli (GPa) = 97.06665 97.06665 36.34691
#
# Poissons Ratio (x) = 0.45520 -0.02867
# Poissons Ratio (y) = 0.45520 -0.02867
# Poissons Ratio (z) = -0.07657 -0.07657
#
# Static dielectric constant tensor:
#      x y z
#    x 1.880660 0.000000 0.000000 
#    y 0.000000 1.880660 0.000000 
#    z 0.000000 0.000000 1.940250 
# 
# From -- ./inp_files/1489.got.cif
#   From: 2010.05.17/outbox.cif.g08.bks.cpg/sg86_1_cif.got.tgz:1489.got - 2010.06.03 19:03:11.
