data_PCOD9545921
_publ_section_title
;
Structure prediction by ZEFSAII (Michael W. Deem and Ramdas Pophale) SiO2 
 PCOD9545921
Probable space group: I 4/M
;
_chemical_formula_sum "Si O2"
_cell_formula_units_Z 96
_cell_length_a 16.304707
_cell_length_b 16.304707
_cell_length_c 18.827127
_cell_angle_alpha 90.000000
_cell_angle_beta 90.000000
_cell_angle_gamma 90.000000
_cell_volume 5005.068779
_symmetry_space_group_name_H-M "I 4/M"
_symmetry_group_IT_number 87
_symmetry_cell_setting 'tetragonal'
loop_
_space_group_symop_operation_xyz
x,y,z
-y,x,z
-x,-y,z
y,-x,z
-x,-y,-z
y,-x,-z
x,y,-z
-y,x,-z
1/2+x,1/2+y,1/2+z
1/2-y,1/2+x,1/2+z
1/2-x,1/2-y,1/2+z
1/2+y,1/2-x,1/2+z
1/2-x,1/2-y,1/2-z
1/2+y,1/2-x,1/2-z
1/2+x,1/2+y,1/2-z
1/2-y,1/2+x,1/2-z
loop_
_atom_site_type_symbol
_atom_site_label
_atom_site_fract_x
_atom_site_fract_y
_atom_site_fract_z
Si Si1 0.946925 0.285609 0.281316
Si Si2 0.092617 0.250127 0.084993
Si Si3 0.002607 0.409910 0.917833
Si Si4 0.223894 0.755130 0.332416
Si Si5 0.637711 0.496382 0.684337
Si Si6 0.649717 0.112999 0.658698
O O1 0.874324 0.251834 0.331782
O O2 0.900963 0.343427 0.223259
O O3 0.991082 0.210082 0.240936
O O4 0.019501 0.332000 0.321306
O O5 0.062268 0.340115 0.110966
O O6 0.179131 0.237702 0.124252
O O7 0.024301 0.185624 0.111352
O O8 0.100360 0.248705 0.000000
O O9 0.000000 0.500000 0.884065
O O10 0.910524 0.378772 0.907834
O O11 0.025455 0.419001 0.000000
O O12 0.250000 0.750000 0.250000
O O13 0.266286 0.838958 0.356025
O O14 0.580889 0.576487 0.690903
#
# Coordination Sequence:
#
# PCOD9545921 Si02
#       6
#    16  16  16  16  16  16
#     4  11  21  36  57  86 117 149 202 248 316 351
#     4  11  23  40  60  85 122 164 204 252 307 375
#     4  10  22  38  56  82 115 150 193 242 297 359
#     4  10  22  39  57  88 119 157 207 258 308 363
#     4  11  22  38  58  85 120 160 206 253 300 365
#     4  11  22  34  59  82 114 150 193 245 298 363
#
# _framework density 19.180555999999999
#
# number of rings (size 3 to 8) (size 9 to 14) (size 15 to 20)
#    0.000    1.333    1.667    6.000    2.333    1.333 
#    0.000    0.833    0.000    0.000    0.000    0.000 
#    0.000    0.000    0.000   24.500    0.000    0.000 
#
# Total GULP energy -267655.090690 kJ/mol
# GULP energy per Si atom -5576.147723 kJ/mol
# Density = 1.913690 g / cm^3
# Si number density = 19.180556 Si / 1000 Ang^3
#
#
#
# Elastic Constant Matrix: (Units=GPa)
#
#
# Indices 1 2 3 4 5 6 
#
# 1 97.9225 29.8755 11.4075 0.0000 0.0000 6.4247
# 2 29.8755 97.9225 11.4075 0.0000 0.0000 -6.4247
# 3 11.4075 11.4075 23.1931 0.0000 0.0000 0.0000
# 4 0.0000 0.0000 0.0000 24.4614 0.0000 0.0000
# 5 0.0000 0.0000 0.0000 0.0000 24.4614 0.0000
# 6 6.4247 -6.4247 0.0000 0.0000 0.0000 34.9721
#
#
#
# Elastic Compliance Matrix: (Units=1/GPa)
#
#
# Indices 1 2 3 4 5 6 
#
# 1 0.011901 -0.003323 -0.004219 0.000000 0.000000 -0.002797
# 2 -0.003323 0.011901 -0.004219 0.000000 0.000000 0.002797
# 3 -0.004219 -0.004219 0.047267 0.000000 0.000000 0.000000
# 4 0.000000 0.000000 0.000000 0.040881 0.000000 0.000000
# 5 0.000000 0.000000 0.000000 0.000000 0.040881 0.000000
# 6 -0.002797 0.002797 0.000000 0.000000 0.000000 0.029622
#
#
# Mechanical properties :
#
#
# Convention : Reuss Voigt Hill
#
# Bulk Modulus (GPa) = 21.03217 36.04659 28.53938
# Shear Modulus (GPa) = 22.54052 27.86882 25.20467
#
# Velocity S-wave (km/s) = 3.43180 3.81592 3.62895
# Velocity P-wave (km/s) = 5.16645 6.18459 5.69830
#
# Compressibility (1/GPa) = 0.04754622
#
# Stress axis : x y z
#
# Youngs Moduli (GPa) = 84.02694 84.02694 21.15660
#
# Poissons Ratio (x) = 0.27921 0.08926
# Poissons Ratio (y) = 0.27921 0.08926
# Poissons Ratio (z) = 0.35452 0.35452
#
# Static dielectric constant tensor:
#      x y z
#    x 1.711340 0.000000 0.000000 
#    y 0.000000 1.711340 0.000000 
#    z 0.000000 0.000000 1.694400 
# 
# From -- ./inp_files/5291.got.cif
#   From: 2010.05.17/outbox.cif.g08.bks.cpg/sg87_3_cif.got.tgz:5291.got - 2010.06.03 19:07:00.
