data_PCOD9545991
_publ_section_title
;
Structure prediction by ZEFSAII (Michael W. Deem and Ramdas Pophale) SiO2 
 PCOD9545991
Probable space group: I 4/M
;
_chemical_formula_sum "Si O2"
_cell_formula_units_Z 88
_cell_length_a 12.183169
_cell_length_b 12.183169
_cell_length_c 28.398987
_cell_angle_alpha 90.000000
_cell_angle_beta 90.000000
_cell_angle_gamma 90.000000
_cell_volume 4215.250476
_symmetry_space_group_name_H-M "I 4/M"
_symmetry_group_IT_number 87
_symmetry_cell_setting 'tetragonal'
loop_
_space_group_symop_operation_xyz
x,y,z
-y,x,z
-x,-y,z
y,-x,z
-x,-y,-z
y,-x,-z
x,y,-z
-y,x,-z
1/2+x,1/2+y,1/2+z
1/2-y,1/2+x,1/2+z
1/2-x,1/2-y,1/2+z
1/2+y,1/2-x,1/2+z
1/2-x,1/2-y,1/2-z
1/2+y,1/2-x,1/2-z
1/2+x,1/2+y,1/2-z
1/2-y,1/2+x,1/2-z
loop_
_atom_site_type_symbol
_atom_site_label
_atom_site_fract_x
_atom_site_fract_y
_atom_site_fract_z
Si Si1 0.837527 0.088789 0.816177
Si Si2 0.823092 0.450876 0.000000
Si Si3 0.649651 0.823151 0.602564
Si Si4 0.472706 0.169104 0.757385
Si Si5 0.500000 0.000000 0.579119
Si Si6 0.809419 0.271424 0.500000
Si Si7 0.545947 0.320136 0.158672
O O1 0.775360 0.137774 0.861188
O O2 0.757140 0.099221 0.771474
O O3 0.957471 0.141860 0.815440
O O4 0.902269 0.460936 0.045054
O O5 0.757271 0.339807 0.000000
O O6 0.750017 0.560032 0.000000
O O7 0.662406 0.787154 0.548265
O O8 0.749007 0.905204 0.615866
O O9 0.541891 0.897523 0.608102
O O10 0.569490 0.108085 0.727734
O O11 0.536313 0.233960 0.798411
O O12 0.627192 0.424468 0.159472
#
# Coordination Sequence:
#
# PCOD9545991 Si02
#       7
#    16   8  16  16   8   8  16
#     4  11  26  44  66 100 135 173 225 281 334 399
#     4   9  20  43  64  93 126 166 224 272 335 389
#     4  11  25  43  69  97 130 184 223 276 342 391
#     4  11  24  43  70 103 132 178 223 268 335 415
#     4   9  22  40  64  91 126 168 224 275 320 399
#     4  10  24  41  66  98 129 182 217 281 337 388
#     4  11  26  43  65 102 139 173 220 277 338 406
#
# _framework density 20.876576
#
# number of rings (size 3 to 8) (size 9 to 14) (size 15 to 20)
#    0.000    1.455    1.818    1.636   12.727    3.091 
#    0.000    0.000    0.000    1.091    0.000    0.000 
#    0.000    0.000    0.000    0.000    0.000    0.000 
#
# Total GULP energy -245488.315812 kJ/mol
# GULP energy per Si atom -5579.279905 kJ/mol
# Density = 2.082906 g / cm^3
# Si number density = 20.876576 Si / 1000 Ang^3
#
#
#
# Elastic Constant Matrix: (Units=GPa)
#
#
# Indices 1 2 3 4 5 6 
#
# 1 75.9013 29.0731 10.3840 0.0000 0.0000 -5.3888
# 2 29.0731 75.9013 10.3840 0.0000 0.0000 5.3888
# 3 10.3840 10.3840 76.9970 0.0000 0.0000 0.0000
# 4 0.0000 0.0000 0.0000 32.6049 0.0000 0.0000
# 5 0.0000 0.0000 0.0000 0.0000 32.6049 0.0000
# 6 -5.3888 5.3888 0.0000 0.0000 0.0000 31.3729
#
#
#
# Elastic Compliance Matrix: (Units=1/GPa)
#
#
# Indices 1 2 3 4 5 6 
#
# 1 0.016010 -0.006223 -0.001320 0.000000 0.000000 0.003819
# 2 -0.006223 0.016010 -0.001320 0.000000 0.000000 -0.003819
# 3 -0.001320 -0.001320 0.013344 0.000000 0.000000 0.000000
# 4 0.000000 0.000000 0.000000 0.030670 0.000000 0.000000
# 5 0.000000 0.000000 0.000000 0.000000 0.030670 0.000000
# 6 0.003819 -0.003819 0.000000 0.000000 0.000000 0.033187
#
#
# Mechanical properties :
#
#
# Convention : Reuss Voigt Hill
#
# Bulk Modulus (GPa) = 36.18164 36.49799 36.33982
# Shear Modulus (GPa) = 29.97058 31.24711 30.60884
#
# Velocity S-wave (km/s) = 3.79305 3.87299 3.83323
# Velocity P-wave (km/s) = 6.04581 6.12542 6.08575
#
# Compressibility (1/GPa) = 0.02763832
#
# Stress axis : x y z
#
# Youngs Moduli (GPa) = 62.45935 62.45935 74.94260
#
# Poissons Ratio (x) = 0.38869 0.09892
# Poissons Ratio (y) = 0.38869 0.09892
# Poissons Ratio (z) = 0.08244 0.08244
#
# Static dielectric constant tensor:
#      x y z
#    x 1.759980 0.000000 0.000000 
#    y 0.000000 1.759980 0.000000 
#    z 0.000000 0.000000 1.778410 
# 
# From -- ./inp_files/6624.got.cif
#   From: 2010.05.17/outbox.cif.g08.bks.cpg/sg87_4_cif.got.tgz:6624.got - 2010.06.03 19:07:00.
