data_PCOD9545497
_publ_section_title
;
Structure prediction by ZEFSAII (Michael W. Deem and Ramdas Pophale) SiO2 
 PCOD9545497
Probable space group: I 4/M
;
_chemical_formula_sum "Si O2"
_cell_formula_units_Z 96
_cell_length_a 24.517085
_cell_length_b 24.517085
_cell_length_c 8.566892
_cell_angle_alpha 90.000000
_cell_angle_beta 90.000000
_cell_angle_gamma 90.000000
_cell_volume 5149.451326
_symmetry_space_group_name_H-M "I 4/M"
_symmetry_group_IT_number 87
_symmetry_cell_setting 'tetragonal'
loop_
_space_group_symop_operation_xyz
x,y,z
-y,x,z
-x,-y,z
y,-x,z
-x,-y,-z
y,-x,-z
x,y,-z
-y,x,-z
1/2+x,1/2+y,1/2+z
1/2-y,1/2+x,1/2+z
1/2-x,1/2-y,1/2+z
1/2+y,1/2-x,1/2+z
1/2-x,1/2-y,1/2-z
1/2+y,1/2-x,1/2-z
1/2+x,1/2+y,1/2-z
1/2-y,1/2+x,1/2-z
loop_
_atom_site_type_symbol
_atom_site_label
_atom_site_fract_x
_atom_site_fract_y
_atom_site_fract_z
Si Si1 0.069991 0.140770 0.185786
Si Si2 0.353505 0.452608 0.814834
Si Si3 0.924886 0.732956 0.810645
Si Si4 0.352673 0.139816 0.318860
Si Si5 0.457464 0.064910 0.326838
Si Si6 0.774342 0.544621 0.188023
O O1 0.111328 0.098975 0.264107
O O2 0.079226 0.203672 0.236211
O O3 0.007771 0.127205 0.230742
O O4 0.076538 0.138201 0.000000
O O5 0.289396 0.445305 0.777117
O O6 0.357797 0.460810 0.000000
O O7 0.872846 0.697839 0.752426
O O8 0.984527 0.712150 0.754800
O O9 0.925063 0.729975 0.000000
O O10 0.335815 0.148916 0.500000
O O11 0.409951 0.107939 0.317168
O O12 0.309655 0.096175 0.251704
O O13 0.481687 0.067496 0.500000
O O14 0.505799 0.069183 0.203482
O O15 0.781784 0.541867 0.000000
#
# Coordination Sequence:
#
# PCOD9545497 Si02
#       6
#    16  16  16  16  16  16
#     4  10  20  35  56  80 106 134 164 201 246 298
#     4  10  20  35  56  80 106 134 164 201 246 298
#     4   9  18  33  52  73 100 134 171 211 253 297
#     4   9  17  30  48  69  93 128 171 208 247 294
#     4  10  18  27  40  59  87 120 157 204 254 299
#     4   9  18  33  52  73 100 134 171 211 253 297
#
# _framework density 18.642762999999999
#
# number of rings (size 3 to 8) (size 9 to 14) (size 15 to 20)
#    0.000    2.500    0.000    3.000    0.000    1.667 
#    0.000    5.000    0.000    0.000    0.000    0.000 
#    0.000    0.000    0.000    0.000    0.000    0.000 
#
# Total GULP energy -267500.325556 kJ/mol
# GULP energy per Si atom -5572.923449 kJ/mol
# Density = 1.860033 g / cm^3
# Si number density = 18.642763 Si / 1000 Ang^3
#
#
#
# Elastic Constant Matrix: (Units=GPa)
#
#
# Indices 1 2 3 4 5 6 
#
# 1 54.8187 46.4142 5.2868 0.0000 0.0000 -1.1156
# 2 46.4142 54.8187 5.2868 0.0000 0.0000 1.1156
# 3 5.2868 5.2868 9.6914 0.0000 0.0000 0.0000
# 4 0.0000 0.0000 0.0000 19.7227 0.0000 0.0000
# 5 0.0000 0.0000 0.0000 0.0000 19.7227 0.0000
# 6 -1.1156 1.1156 0.0000 0.0000 0.0000 40.5279
#
#
#
# Elastic Compliance Matrix: (Units=1/GPa)
#
#
# Indices 1 2 3 4 5 6 
#
# 1 0.065168 -0.054693 -0.005714 0.000000 0.000000 0.003299
# 2 -0.054693 0.065168 -0.005714 0.000000 0.000000 -0.003299
# 3 -0.005714 -0.005714 0.109418 0.000000 0.000000 0.000000
# 4 0.000000 0.000000 0.000000 0.050703 0.000000 0.000000
# 5 0.000000 0.000000 0.000000 0.000000 0.050703 0.000000
# 6 0.003299 -0.003299 0.000000 0.000000 0.000000 0.024856
#
#
# Mechanical properties :
#
#
# Convention : Reuss Voigt Hill
#
# Bulk Modulus (GPa) = 9.30135 25.92272 17.61204
# Shear Modulus (GPa) = 9.36163 20.15075 14.75619
#
# Velocity S-wave (km/s) = 2.24332 3.29125 2.81646
# Velocity P-wave (km/s) = 3.42200 5.32713 4.47707
#
# Compressibility (1/GPa) = 0.10751123
#
# Stress axis : x y z
#
# Youngs Moduli (GPa) = 15.34501 15.34501 9.13925
#
# Poissons Ratio (x) = 0.83926 0.05222
# Poissons Ratio (y) = 0.83926 0.05222
# Poissons Ratio (z) = 0.08769 0.08769
#
# Static dielectric constant tensor:
#      x y z
#    x 1.659760 0.000000 0.000000 
#    y 0.000000 1.659760 0.000000 
#    z 0.000000 0.000000 1.644260 
# 
# From -- ./inp_files/1393.got.cif
#   From: 2010.05.17/outbox.cif.g08.bks.cpg/sg87_1_cif.got.tgz:1393.got - 2010.06.03 19:07:00.
