data_PCOD9545747
_publ_section_title
;
Structure prediction by ZEFSAII (Michael W. Deem and Ramdas Pophale) SiO2 
 PCOD9545747
Probable space group: I 4/M
;
_chemical_formula_sum "Si O2"
_cell_formula_units_Z 96
_cell_length_a 24.590276
_cell_length_b 24.590276
_cell_length_c 7.638321
_cell_angle_alpha 90.000000
_cell_angle_beta 90.000000
_cell_angle_gamma 90.000000
_cell_volume 4618.752727
_symmetry_space_group_name_H-M "I 4/M"
_symmetry_group_IT_number 87
_symmetry_cell_setting 'tetragonal'
loop_
_space_group_symop_operation_xyz
x,y,z
-y,x,z
-x,-y,z
y,-x,z
-x,-y,-z
y,-x,-z
x,y,-z
-y,x,-z
1/2+x,1/2+y,1/2+z
1/2-y,1/2+x,1/2+z
1/2-x,1/2-y,1/2+z
1/2+y,1/2-x,1/2+z
1/2-x,1/2-y,1/2-z
1/2+y,1/2-x,1/2-z
1/2+x,1/2+y,1/2-z
1/2-y,1/2+x,1/2-z
loop_
_atom_site_type_symbol
_atom_site_label
_atom_site_fract_x
_atom_site_fract_y
_atom_site_fract_z
Si Si1 0.208779 0.956332 0.792983
Si Si2 0.495039 0.913827 0.700935
Si Si3 0.729708 0.834429 0.211456
Si Si4 0.456273 0.796307 0.715118
Si Si5 0.271538 0.664351 0.291068
Si Si6 0.014054 0.086220 0.288533
O O1 0.217320 0.895689 0.719299
O O2 0.146879 0.974980 0.771308
O O3 0.250348 0.001573 0.724465
O O4 0.220341 0.952743 0.000000
O O5 0.512276 0.906696 0.500000
O O6 0.444342 0.955412 0.706086
O O7 0.477014 0.855575 0.771223
O O8 0.716315 0.894918 0.273196
O O9 0.684532 0.789829 0.259995
O O10 0.787593 0.810865 0.276979
O O11 0.732098 0.835777 0.000000
O O12 0.454971 0.796663 0.500000
O O13 0.280417 0.662422 0.500000
O O14 0.013999 0.086214 0.500000
O O15 0.956454 0.060598 0.231257
#
# Coordination Sequence:
#
# PCOD9545747 Si02
#       6
#    16  16  16  16  16  16
#     4  10  21  35  56  84 110 139 177 224 271 316
#     4  10  20  36  56  78 104 140 177 219 269 318
#     4   9  18  35  55  74 103 143 177 212 262 319
#     4   9  20  35  53  78 110 140 172 218 270 314
#     4   9  19  34  54  80 107 136 174 221 265 308
#     4   9  20  39  58  78 110 147 179 218 267 316
#
# _framework density 20.784832000000002
#
# number of rings (size 3 to 8) (size 9 to 14) (size 15 to 20)
#    0.000    2.667    0.000    1.500    4.667    1.333 
#    0.000    4.167    0.000    0.000    0.000    0.000 
#    0.000    0.000    0.000    0.000    0.000    0.000 
#
# Total GULP energy -267971.996797 kJ/mol
# GULP energy per Si atom -5582.749933 kJ/mol
# Density = 2.073753 g / cm^3
# Si number density = 20.784832 Si / 1000 Ang^3
#
#
#
# Elastic Constant Matrix: (Units=GPa)
#
#
# Indices 1 2 3 4 5 6 
#
# 1 158.8790 101.0557 -13.3871 0.0000 0.0000 0.8621
# 2 101.0557 158.8790 -13.3871 0.0000 0.0000 -0.8621
# 3 -13.3871 -13.3871 34.4546 0.0000 0.0000 0.0000
# 4 0.0000 0.0000 0.0000 17.0059 0.0000 0.0000
# 5 0.0000 0.0000 0.0000 0.0000 17.0059 0.0000
# 6 0.8621 -0.8621 0.0000 0.0000 0.0000 14.1027
#
#
#
# Elastic Compliance Matrix: (Units=1/GPa)
#
#
# Indices 1 2 3 4 5 6 
#
# 1 0.010667 -0.006659 0.001557 0.000000 0.000000 -0.001059
# 2 -0.006659 0.010667 0.001557 0.000000 0.000000 0.001059
# 3 0.001557 0.001557 0.030234 0.000000 0.000000 0.000000
# 4 0.000000 0.000000 0.000000 0.058803 0.000000 0.000000
# 5 0.000000 0.000000 0.000000 0.000000 0.058803 0.000000
# 6 -0.001059 0.001059 0.000000 0.000000 0.000000 0.071038
#
#
# Mechanical properties :
#
#
# Convention : Reuss Voigt Hill
#
# Bulk Modulus (GPa) = 22.48350 55.64173 39.06261
# Shear Modulus (GPa) = 19.07473 28.15162 23.61318
#
# Velocity S-wave (km/s) = 3.03268 3.68425 3.37423
# Velocity P-wave (km/s) = 4.80662 6.70274 5.83225
#
# Compressibility (1/GPa) = 0.04447706
#
# Stress axis : x y z
#
# Youngs Moduli (GPa) = 93.75077 93.75077 33.07569
#
# Poissons Ratio (x) = 0.62429 -0.05150
# Poissons Ratio (y) = 0.62429 -0.05150
# Poissons Ratio (z) = -0.14598 -0.14598
#
# Static dielectric constant tensor:
#      x y z
#    x 1.714350 0.000000 0.000000 
#    y 0.000000 1.714350 0.000000 
#    z 0.000000 0.000000 1.778730 
# 
# From -- ./inp_files/1315.got.cif
#   From: 2010.05.17/outbox.cif.g08.bks.cpg/sg87_1_cif.got.tgz:1315.got - 2010.06.03 19:07:00.
