data_PCOD9545443
_publ_section_title
;
Structure prediction by ZEFSAII (Michael W. Deem and Ramdas Pophale) SiO2 
 PCOD9545443
Probable space group: P 42/N
;
_chemical_formula_sum "Si O2"
_cell_formula_units_Z 26
_cell_length_a 13.514179
_cell_length_b 13.514179
_cell_length_c 6.711056
_cell_angle_alpha 90.000000
_cell_angle_beta 90.000000
_cell_angle_gamma 90.000000
_cell_volume 1225.660519
_symmetry_space_group_name_H-M "P 42/N"
_symmetry_group_IT_number 86
_space_group.IT_coordinate_system_code '2'
_symmetry_cell_setting 'tetragonal'
loop_
_space_group_symop_operation_xyz
x,y,z
-y,1/2+x,1/2+z
1/2-x,1/2-y,z
1/2+y,-x,1/2+z
-x,-y,-z
y,1/2-x,1/2-z
1/2+x,1/2+y,-z
1/2-y,x,1/2-z
loop_
_atom_site_type_symbol
_atom_site_label
_atom_site_fract_x
_atom_site_fract_y
_atom_site_fract_z
Si Si1 0.596536 0.653645 0.977526
Si Si2 0.250000 0.250000 0.250000
Si Si3 0.050978 0.912064 0.630030
Si Si4 0.257354 0.504774 0.842141
O O1 0.652832 0.748087 0.884822
O O2 0.521057 0.610614 0.816574
O O3 0.544393 0.685894 0.179288
O O4 0.682843 0.577091 0.032260
O O5 0.060859 0.814629 0.493410
O O6 0.157376 0.939320 0.720252
O O7 0.000000 0.000000 0.500000
#
# Coordination Sequence:
#
# PCOD9545443 Si02
#       4
#     8   2   8   8
#     4  12  24  45  74 108 145 186 253 307 376 437
#     4  12  20  38  72 112 134 180 248 310 352 452
#     4  12  27  48  75 108 151 194 250 314 379 452
#     4  12  26  45  76 106 148 197 245 309 380 446
#
# _framework density 21.213052000000001
#
# number of rings (size 3 to 8) (size 9 to 14) (size 15 to 20)
#    0.000    0.000    6.154    4.615    0.000    0.000 
#    0.000    4.615    0.000    0.000    0.000    0.000 
#    0.000    0.000    0.000    0.000    0.000    0.000 
#
# Total GULP energy -145507.566584 kJ/mol
# GULP energy per Si atom -5596.444869 kJ/mol
# Density = 2.116477 g / cm^3
# Si number density = 21.213052 Si / 1000 Ang^3
#
#
#
# Elastic Constant Matrix: (Units=GPa)
#
#
# Indices 1 2 3 4 5 6 
#
# 1 88.3740 50.7624 44.3614 0.0000 0.0000 -2.6210
# 2 50.7624 88.3740 44.3614 0.0000 0.0000 2.6210
# 3 44.3614 44.3614 113.3252 0.0000 0.0000 0.0000
# 4 0.0000 0.0000 0.0000 36.2649 0.0000 0.0000
# 5 0.0000 0.0000 0.0000 0.0000 36.2649 0.0000
# 6 -2.6210 2.6210 0.0000 0.0000 0.0000 39.2646
#
#
#
# Elastic Compliance Matrix: (Units=1/GPa)
#
#
# Indices 1 2 3 4 5 6 
#
# 1 0.018208 -0.008630 -0.003749 0.000000 0.000000 0.001791
# 2 -0.008630 0.018208 -0.003749 0.000000 0.000000 -0.001791
# 3 -0.003749 -0.003749 0.011760 0.000000 0.000000 0.000000
# 4 0.000000 0.000000 0.000000 0.027575 0.000000 0.000000
# 5 0.000000 0.000000 0.000000 0.000000 0.027575 0.000000
# 6 0.001791 -0.001791 0.000000 0.000000 0.000000 0.025707
#
#
# Mechanical properties :
#
#
# Convention : Reuss Voigt Hill
#
# Bulk Modulus (GPa) = 62.82106 63.22707 63.02407
# Shear Modulus (GPa) = 30.01298 32.39808 31.20553
#
# Velocity S-wave (km/s) = 3.76551 3.91227 3.83959
# Velocity P-wave (km/s) = 6.97023 7.09072 7.03073
#
# Compressibility (1/GPa) = 0.01591823
#
# Stress axis : x y z
#
# Youngs Moduli (GPa) = 54.92206 54.92206 85.03735
#
# Poissons Ratio (x) = 0.47396 0.31883
# Poissons Ratio (y) = 0.47396 0.31883
# Poissons Ratio (z) = 0.20592 0.20592
#
# Static dielectric constant tensor:
#      x y z
#    x 1.754910 0.000000 0.000000 
#    y 0.000000 1.754910 0.000000 
#    z 0.000000 0.000000 1.756270 
# 
# From -- ./inp_files/144.got.cif
#   From: 2010.05.17/outbox.cif.g08.bks.cpg/sg86_1_cif.got.tgz:144.got - 2010.06.03 19:03:11.
