data_PCOD9545401
_publ_section_title
;
Structure prediction by ZEFSAII (Michael W. Deem and Ramdas Pophale) SiO2 
 PCOD9545401
Probable space group: P 42/N
;
_chemical_formula_sum "Si O2"
_cell_formula_units_Z 32
_cell_length_a 11.235270
_cell_length_b 11.235270
_cell_length_c 12.290182
_cell_angle_alpha 90.000000
_cell_angle_beta 90.000000
_cell_angle_gamma 90.000000
_cell_volume 1551.405552
_symmetry_space_group_name_H-M "P 42/N"
_symmetry_group_IT_number 86
_space_group.IT_coordinate_system_code '2'
_symmetry_cell_setting 'tetragonal'
loop_
_space_group_symop_operation_xyz
x,y,z
-y,1/2+x,1/2+z
1/2-x,1/2-y,z
1/2+y,-x,1/2+z
-x,-y,-z
y,1/2-x,1/2-z
1/2+x,1/2+y,-z
1/2-y,x,1/2-z
loop_
_atom_site_type_symbol
_atom_site_label
_atom_site_fract_x
_atom_site_fract_y
_atom_site_fract_z
Si Si1 0.065018 0.264824 0.271090
Si Si2 0.588449 0.076807 0.923692
Si Si3 0.435671 0.220628 0.747597
Si Si4 0.651568 0.339406 0.639669
O O1 0.164801 0.363461 0.299003
O O2 0.003711 0.190301 0.367824
O O3 0.962656 0.330467 0.203049
O O4 0.513851 0.146061 0.832520
O O5 0.642095 0.167015 0.011620
O O6 0.500000 0.000000 0.000000
O O7 0.333189 0.134507 0.700981
O O8 0.524656 0.278632 0.661167
O O9 0.750000 0.250000 0.684299
#
# Coordination Sequence:
#
# PCOD9545401 Si02
#       4
#     8   8   8   8
#     4  11  24  45  70  99 138 177 226 286 341 403
#     4  12  24  46  70 101 136 182 230 279 344 415
#     4  11  24  45  70  99 138 177 226 286 341 403
#     4  12  26  44  68 100 139 179 231 288 338 408
#
# _framework density 20.626456000000001
#
# number of rings (size 3 to 8) (size 9 to 14) (size 15 to 20)
#    0.000    0.500    7.500    0.000    3.500    2.000 
#    0.000    2.500    0.000    0.000    0.000    0.000 
#    0.000    0.000    0.000    0.000    0.000    0.000 
#
# Total GULP energy -178608.474329 kJ/mol
# GULP energy per Si atom -5581.514823 kJ/mol
# Density = 2.057951 g / cm^3
# Si number density = 20.626456 Si / 1000 Ang^3
#
#
#
# Elastic Constant Matrix: (Units=GPa)
#
#
# Indices 1 2 3 4 5 6 
#
# 1 66.2424 8.0721 1.1295 0.0000 0.0000 1.0222
# 2 8.0721 66.2424 1.1295 0.0000 0.0000 -1.0222
# 3 1.1295 1.1295 57.4022 0.0000 0.0000 0.0000
# 4 0.0000 0.0000 0.0000 30.2888 0.0000 0.0000
# 5 0.0000 0.0000 0.0000 0.0000 30.2888 0.0000
# 6 1.0222 -1.0222 0.0000 0.0000 0.0000 55.8632
#
#
#
# Elastic Compliance Matrix: (Units=1/GPa)
#
#
# Indices 1 2 3 4 5 6 
#
# 1 0.015333 -0.001869 -0.000265 0.000000 0.000000 -0.000315
# 2 -0.001869 0.015333 -0.000265 0.000000 0.000000 0.000315
# 3 -0.000265 -0.000265 0.017431 0.000000 0.000000 0.000000
# 4 0.000000 0.000000 0.000000 0.033016 0.000000 0.000000
# 5 0.000000 0.000000 0.000000 0.000000 0.033016 0.000000
# 6 -0.000315 0.000315 0.000000 0.000000 0.000000 0.017912
#
#
# Mechanical properties :
#
#
# Convention : Reuss Voigt Hill
#
# Bulk Modulus (GPa) = 23.09449 23.39435 23.24442
# Shear Modulus (GPa) = 33.05305 35.25854 34.15580
#
# Velocity S-wave (km/s) = 4.00742 4.13896 4.07372
# Velocity P-wave (km/s) = 5.71256 5.84874 5.78105
#
# Compressibility (1/GPa) = 0.04330037
#
# Stress axis : x y z
#
# Youngs Moduli (GPa) = 65.21809 65.21809 57.36784
#
# Poissons Ratio (x) = 0.12188 0.01520
# Poissons Ratio (y) = 0.12188 0.01520
# Poissons Ratio (z) = 0.01728 0.01728
#
# Static dielectric constant tensor:
#      x y z
#    x 1.781550 0.000000 0.000000 
#    y 0.000000 1.781550 0.000000 
#    z 0.000000 0.000000 1.689710 
# 
# From -- ./inp_files/1875.got.cif
#   From: 2010.05.17/outbox.cif.g08.bks.cpg/sg86_1_cif.got.tgz:1875.got - 2010.06.03 19:03:11.
