data_PCOD9545992
_publ_section_title
;
Structure prediction by ZEFSAII (Michael W. Deem and Ramdas Pophale) SiO2 
 PCOD9545992
Probable space group: I 4/M
;
_chemical_formula_sum "Si O2"
_cell_formula_units_Z 96
_cell_length_a 13.958488
_cell_length_b 13.958488
_cell_length_c 20.201222
_cell_angle_alpha 90.000000
_cell_angle_beta 90.000000
_cell_angle_gamma 90.000000
_cell_volume 3935.993716
_symmetry_space_group_name_H-M "I 4/M"
_symmetry_group_IT_number 87
_symmetry_cell_setting 'tetragonal'
loop_
_space_group_symop_operation_xyz
x,y,z
-y,x,z
-x,-y,z
y,-x,z
-x,-y,-z
y,-x,-z
x,y,-z
-y,x,-z
1/2+x,1/2+y,1/2+z
1/2-y,1/2+x,1/2+z
1/2-x,1/2-y,1/2+z
1/2+y,1/2-x,1/2+z
1/2-x,1/2-y,1/2-z
1/2+y,1/2-x,1/2-z
1/2+x,1/2+y,1/2-z
1/2-y,1/2+x,1/2-z
loop_
_atom_site_type_symbol
_atom_site_label
_atom_site_fract_x
_atom_site_fract_y
_atom_site_fract_z
Si Si1 0.602111 0.620866 0.079615
Si Si2 0.078743 0.638422 0.000000
Si Si3 0.849111 0.983732 0.203430
Si Si4 0.183230 0.711587 0.374755
Si Si5 0.889591 0.175650 0.074509
Si Si6 0.639286 0.931358 0.500000
Si Si7 0.360286 0.053109 0.742863
O O1 0.489821 0.629730 0.094209
O O2 0.672975 0.686038 0.122202
O O3 0.613231 0.635722 0.000000
O O4 0.095096 0.710618 0.060580
O O5 0.145225 0.545725 0.000000
O O6 0.971063 0.600775 0.000000
O O7 0.856192 0.972312 0.123723
O O8 0.739420 0.968131 0.221197
O O9 0.918648 0.897796 0.228008
O O10 0.287222 0.669745 0.389805
O O11 0.115646 0.686148 0.436419
O O12 0.131041 0.666897 0.312214
O O13 0.886614 0.133246 0.000000
O O14 0.450344 0.098777 0.782500
#
# Coordination Sequence:
#
# PCOD9545992 Si02
#       7
#    16   8  16  16  16   8  16
#     4   9  19  34  56  95 143 184 227 291 371 441
#     4   9  25  38  64  99 150 182 223 295 365 436
#     4  11  27  50  74 104 147 193 253 308 360 436
#     4  12  24  40  73 102 142 182 246 295 362 441
#     4  10  24  41  70 103 139 180 234 298 363 433
#     4  11  23  40  66 109 138 190 227 299 369 425
#     4  11  29  49  76 106 147 197 245 303 368 444
#
# _framework density 24.390284000000001
#
# number of rings (size 3 to 8) (size 9 to 14) (size 15 to 20)
#    0.500    1.000    1.667    1.500    9.333    6.000 
#    0.000    2.500    0.000    0.000    0.000    0.000 
#    0.000    0.000    0.000    0.000    0.000    0.000 
#
# Total GULP energy -268534.010983 kJ/mol
# GULP energy per Si atom -5594.458562 kJ/mol
# Density = 2.433477 g / cm^3
# Si number density = 24.390284 Si / 1000 Ang^3
#
#
#
# Elastic Constant Matrix: (Units=GPa)
#
#
# Indices 1 2 3 4 5 6 
#
# 1 145.4501 40.8006 18.7017 0.0000 0.0000 9.2254
# 2 40.8006 145.4501 18.7017 0.0000 0.0000 -9.2254
# 3 18.7017 18.7017 37.9517 0.0000 0.0000 0.0000
# 4 0.0000 0.0000 0.0000 17.5201 0.0000 0.0000
# 5 0.0000 0.0000 0.0000 0.0000 17.5201 0.0000
# 6 9.2254 -9.2254 0.0000 0.0000 0.0000 35.8366
#
#
#
# Elastic Compliance Matrix: (Units=1/GPa)
#
#
# Indices 1 2 3 4 5 6 
#
# 1 0.007984 -0.002026 -0.002936 0.000000 0.000000 -0.002577
# 2 -0.002026 0.007984 -0.002936 0.000000 0.000000 0.002577
# 3 -0.002936 -0.002936 0.029243 0.000000 0.000000 0.000000
# 4 0.000000 0.000000 0.000000 0.057077 0.000000 0.000000
# 5 0.000000 0.000000 0.000000 0.000000 0.057077 0.000000
# 6 -0.002577 0.002577 0.000000 0.000000 0.000000 0.029231
#
#
# Mechanical properties :
#
#
# Convention : Reuss Voigt Hill
#
# Bulk Modulus (GPa) = 33.99583 53.91776 43.95679
# Shear Modulus (GPa) = 23.34274 30.88524 27.11399
#
# Velocity S-wave (km/s) = 3.09698 3.56236 3.33779
# Velocity P-wave (km/s) = 5.17271 6.25098 5.73723
#
# Compressibility (1/GPa) = 0.02941538
#
# Stress axis : x y z
#
# Youngs Moduli (GPa) = 125.24407 125.24408 34.19601
#
# Poissons Ratio (x) = 0.25370 0.10041
# Poissons Ratio (y) = 0.25370 0.10041
# Poissons Ratio (z) = 0.36776 0.36776
#
# Static dielectric constant tensor:
#      x y z
#    x 1.953210 0.000000 0.000000 
#    y 0.000000 1.953210 0.000000 
#    z 0.000000 0.000000 1.976900 
# 
# From -- ./inp_files/5845.got.cif
#   From: 2010.05.17/outbox.cif.g08.bks.cpg/sg87_3_cif.got.tgz:5845.got - 2010.06.03 19:07:00.
