data_PCOD9545356
_publ_section_title
;
Structure prediction by ZEFSAII (Michael W. Deem and Ramdas Pophale) SiO2 
 PCOD9545356
Probable space group: P 42/N
;
_chemical_formula_sum "Si O2"
_cell_formula_units_Z 40
_cell_length_a 8.730061
_cell_length_b 8.730061
_cell_length_c 23.251393
_cell_angle_alpha 90.000000
_cell_angle_beta 90.000000
_cell_angle_gamma 90.000000
_cell_volume 1772.080854
_symmetry_space_group_name_H-M "P 42/N"
_symmetry_group_IT_number 86
_space_group.IT_coordinate_system_code '2'
_symmetry_cell_setting 'tetragonal'
loop_
_space_group_symop_operation_xyz
x,y,z
-y,1/2+x,1/2+z
1/2-x,1/2-y,z
1/2+y,-x,1/2+z
-x,-y,-z
y,1/2-x,1/2-z
1/2+x,1/2+y,-z
1/2-y,x,1/2-z
loop_
_atom_site_type_symbol
_atom_site_label
_atom_site_fract_x
_atom_site_fract_y
_atom_site_fract_z
Si Si1 0.444824 0.570840 0.872402
Si Si2 0.429065 0.290167 0.556647
Si Si3 0.937780 0.926966 0.748579
Si Si4 0.928599 0.292703 0.434366
Si Si5 0.929189 0.971443 0.622173
O O1 0.273279 0.532470 0.890483
O O2 0.477756 0.526365 0.806767
O O3 0.532916 0.458811 0.916366
O O4 0.488118 0.748973 0.882600
O O5 0.250000 0.250000 0.557831
O O6 0.507035 0.237960 0.497813
O O7 0.462392 0.466723 0.570822
O O8 0.957328 0.743298 0.744754
O O9 0.983919 0.999011 0.687602
O O10 0.750000 0.250000 0.429074
O O11 0.042015 0.208609 0.389131
#
# Coordination Sequence:
#
# PCOD9545356 Si02
#       5
#     8   8   8   8   8
#     4  11  22  42  66  97 127 174 223 277 333 397
#     4  12  26  44  62  94 136 178 217 276 341 397
#     4   9  18  38  67  94 124 164 219 268 319 390
#     4  12  24  42  68  98 132 172 225 274 333 401
#     4  11  22  42  66  97 127 174 223 277 333 397
#
# _framework density 22.572334999999999
#
# number of rings (size 3 to 8) (size 9 to 14) (size 15 to 20)
#    0.000    1.000    2.000    6.000    0.000    0.000 
#    7.200    0.000    0.000    0.000    0.000    0.000 
#    0.000    0.000    0.000    0.000    0.000    0.000 
#
# Total GULP energy -223311.201342 kJ/mol
# GULP energy per Si atom -5582.780034 kJ/mol
# Density = 2.252096 g / cm^3
# Si number density = 22.572335 Si / 1000 Ang^3
#
#
#
# Elastic Constant Matrix: (Units=GPa)
#
#
# Indices 1 2 3 4 5 6 
#
# 1 60.6920 14.7822 21.3176 0.0000 0.0000 2.1890
# 2 14.7822 60.6920 21.3176 0.0000 0.0000 -2.1890
# 3 21.3176 21.3176 173.5736 0.0000 0.0000 0.0000
# 4 0.0000 0.0000 0.0000 31.1204 0.0000 0.0000
# 5 0.0000 0.0000 0.0000 0.0000 31.1204 0.0000
# 6 2.1890 -2.1890 0.0000 0.0000 0.0000 44.8241
#
#
#
# Elastic Compliance Matrix: (Units=1/GPa)
#
#
# Indices 1 2 3 4 5 6 
#
# 1 0.018061 -0.003823 -0.001749 0.000000 0.000000 -0.001069
# 2 -0.003823 0.018061 -0.001749 0.000000 0.000000 0.001069
# 3 -0.001749 -0.001749 0.006191 0.000000 0.000000 0.000000
# 4 0.000000 0.000000 0.000000 0.032133 0.000000 0.000000
# 5 0.000000 0.000000 0.000000 0.000000 0.032133 0.000000
# 6 -0.001069 0.001069 0.000000 0.000000 0.000000 0.022414
#
#
# Mechanical properties :
#
#
# Convention : Reuss Voigt Hill
#
# Bulk Modulus (GPa) = 36.13877 45.53249 40.83563
# Shear Modulus (GPa) = 32.71039 37.24898 34.97968
#
# Velocity S-wave (km/s) = 3.81088 4.06668 3.94086
# Velocity P-wave (km/s) = 5.95052 6.50124 6.23197
#
# Compressibility (1/GPa) = 0.02767111
#
# Stress axis : x y z
#
# Youngs Moduli (GPa) = 55.36937 55.36937 161.53138
#
# Poissons Ratio (x) = 0.21169 0.28245
# Poissons Ratio (y) = 0.21169 0.28245
# Poissons Ratio (z) = 0.09682 0.09682
#
# Static dielectric constant tensor:
#      x y z
#    x 1.796210 0.000000 0.000000 
#    y 0.000000 1.796210 0.000000 
#    z 0.000000 0.000000 1.808050 
# 
# From -- ./inp_files/4479.got.cif
#   From: 2010.05.17/outbox.cif.g08.bks.cpg/sg86_3_cif.got.tgz:4479.got - 2010.06.03 19:03:11.
