data_PCOD9545606
_publ_section_title
;
Structure prediction by ZEFSAII (Michael W. Deem and Ramdas Pophale) SiO2 
 PCOD9545606
Probable space group: I 4/M
;
_chemical_formula_sum "Si O2"
_cell_formula_units_Z 96
_cell_length_a 20.816302
_cell_length_b 20.816302
_cell_length_c 12.396698
_cell_angle_alpha 90.000000
_cell_angle_beta 90.000000
_cell_angle_gamma 90.000000
_cell_volume 5371.717702
_symmetry_space_group_name_H-M "I 4/M"
_symmetry_group_IT_number 87
_symmetry_cell_setting 'tetragonal'
loop_
_space_group_symop_operation_xyz
x,y,z
-y,x,z
-x,-y,z
y,-x,z
-x,-y,-z
y,-x,-z
x,y,-z
-y,x,-z
1/2+x,1/2+y,1/2+z
1/2-y,1/2+x,1/2+z
1/2-x,1/2-y,1/2+z
1/2+y,1/2-x,1/2+z
1/2-x,1/2-y,1/2-z
1/2+y,1/2-x,1/2-z
1/2+x,1/2+y,1/2-z
1/2-y,1/2+x,1/2-z
loop_
_atom_site_type_symbol
_atom_site_label
_atom_site_fract_x
_atom_site_fract_y
_atom_site_fract_z
Si Si1 0.690907 0.545527 0.124075
Si Si2 0.754841 0.152864 0.798419
Si Si3 0.173183 0.729973 0.121654
Si Si4 0.364671 0.918886 0.875927
Si Si5 0.948995 0.319903 0.234669
Si Si6 0.406375 0.339054 0.124495
O O1 0.755514 0.540597 0.193859
O O2 0.646882 0.481912 0.130074
O O3 0.645172 0.605634 0.148188
O O4 0.712318 0.552341 0.000000
O O5 0.808126 0.195540 0.859020
O O6 0.714404 0.195791 0.714157
O O7 0.702713 0.120005 0.874169
O O8 0.787467 0.103325 0.717542
O O9 0.101106 0.706120 0.144479
O O10 0.192036 0.712829 0.000000
O O11 0.414163 0.874753 0.807377
O O12 0.349025 0.986443 0.817080
O O13 0.385645 0.927866 0.000000
O O14 0.394458 0.317554 0.000000
#
# Coordination Sequence:
#
# PCOD9545606 Si02
#       6
#    16  16  16  16  16  16
#     4  10  20  35  57  84 117 153 191 236 285 339
#     4  10  19  34  56  83 115 144 182 240 282 342
#     4  10  20  33  53  82 112 146 183 230 291 342
#     4  11  24  41  61  86 115 150 193 239 291 345
#     4  11  22  40  59  82 116 149 192 240 288 343
#     4  10  19  33  55  84 116 153 193 232 283 341
#
# _framework density 17.871378
#
# number of rings (size 3 to 8) (size 9 to 14) (size 15 to 20)
#    0.000    1.667    3.333    2.000    0.000    0.667 
#    0.000    5.000    0.000    0.000    0.000    0.000 
#    0.000    2.667    0.000    0.000    0.000    0.000 
#
# Total GULP energy -267262.184190 kJ/mol
# GULP energy per Si atom -5567.962171 kJ/mol
# Density = 1.783070 g / cm^3
# Si number density = 17.871378 Si / 1000 Ang^3
#
#
#
# Elastic Constant Matrix: (Units=GPa)
#
#
# Indices 1 2 3 4 5 6 
#
# 1 77.0463 35.5633 41.3546 0.0000 0.0000 -5.3012
# 2 35.5633 77.0463 41.3546 0.0000 0.0000 5.3012
# 3 41.3546 41.3546 79.3070 0.0000 0.0000 0.0000
# 4 0.0000 0.0000 0.0000 27.6471 0.0000 0.0000
# 5 0.0000 0.0000 0.0000 0.0000 27.6471 0.0000
# 6 -5.3012 5.3012 0.0000 0.0000 0.0000 9.4124
#
#
#
# Elastic Compliance Matrix: (Units=1/GPa)
#
#
# Indices 1 2 3 4 5 6 
#
# 1 0.021276 -0.006884 -0.007505 0.000000 0.000000 0.015860
# 2 -0.006884 0.021276 -0.007505 0.000000 0.000000 -0.015860
# 3 -0.007505 -0.007505 0.020436 0.000000 0.000000 0.000000
# 4 0.000000 0.000000 0.000000 0.036170 0.000000 0.000000
# 5 0.000000 0.000000 0.000000 0.000000 0.036170 0.000000
# 6 0.015860 -0.015860 0.000000 0.000000 0.000000 0.124109
#
#
# Mechanical properties :
#
#
# Convention : Reuss Voigt Hill
#
# Bulk Modulus (GPa) = 52.07989 52.21606 52.14798
# Shear Modulus (GPa) = 16.14856 20.61647 18.38252
#
# Velocity S-wave (km/s) = 3.00925 3.40016 3.21066
# Velocity P-wave (km/s) = 6.42487 6.68550 6.55648
#
# Compressibility (1/GPa) = 0.01920127
#
# Stress axis : x y z
#
# Youngs Moduli (GPa) = 47.00097 47.00097 48.93297
#
# Poissons Ratio (x) = 0.32354 0.36724
# Poissons Ratio (y) = 0.32354 0.36724
# Poissons Ratio (z) = 0.35274 0.35274
#
# Static dielectric constant tensor:
#      x y z
#    x 1.628530 0.000000 0.000000 
#    y 0.000000 1.628530 0.000000 
#    z 0.000000 0.000000 1.600460 
# 
# From -- ./inp_files/2767.got.cif
#   From: 2010.05.17/outbox.cif.g08.bks.cpg/sg87_2_cif.got.tgz:2767.got - 2010.06.03 19:07:00.
