data_PCOD9545759
_publ_section_title
;
Structure prediction by ZEFSAII (Michael W. Deem and Ramdas Pophale) SiO2 
 PCOD9545759
Probable space group: I 4/M
;
_chemical_formula_sum "Si O2"
_cell_formula_units_Z 96
_cell_length_a 24.637047
_cell_length_b 24.637047
_cell_length_c 8.250828
_cell_angle_alpha 90.000000
_cell_angle_beta 90.000000
_cell_angle_gamma 90.000000
_cell_volume 5008.121283
_symmetry_space_group_name_H-M "I 4/M"
_symmetry_group_IT_number 87
_symmetry_cell_setting 'tetragonal'
loop_
_space_group_symop_operation_xyz
x,y,z
-y,x,z
-x,-y,z
y,-x,z
-x,-y,-z
y,-x,-z
x,y,-z
-y,x,-z
1/2+x,1/2+y,1/2+z
1/2-y,1/2+x,1/2+z
1/2-x,1/2-y,1/2+z
1/2+y,1/2-x,1/2+z
1/2-x,1/2-y,1/2-z
1/2+y,1/2-x,1/2-z
1/2+x,1/2+y,1/2-z
1/2-y,1/2+x,1/2-z
loop_
_atom_site_type_symbol
_atom_site_label
_atom_site_fract_x
_atom_site_fract_y
_atom_site_fract_z
Si Si1 0.642039 0.354654 0.806627
Si Si2 0.067710 0.353525 0.307004
Si Si3 0.230786 0.925136 0.808801
Si Si4 0.070167 0.950262 0.302510
Si Si5 0.726590 0.547783 0.694967
Si Si6 0.352536 0.050862 0.803970
O O1 0.703479 0.369723 0.758720
O O2 0.615266 0.410452 0.742520
O O3 0.599830 0.308796 0.748446
O O4 0.640275 0.352076 0.000000
O O5 0.073262 0.346424 0.500000
O O6 0.076146 0.295067 0.225495
O O7 0.110643 0.398741 0.252385
O O8 0.006501 0.371585 0.266640
O O9 0.212416 0.985995 0.744196
O O10 0.221360 0.925572 0.000000
O O11 0.071078 0.950484 0.500000
O O12 0.012051 0.927044 0.250608
O O13 0.723471 0.545522 0.500000
O O14 0.789301 0.557488 0.742247
O O15 0.354493 0.047386 0.000000
#
# Coordination Sequence:
#
# PCOD9545759 Si02
#       6
#    16  16  16  16  16  16
#     4  11  20  30  49  76 103 135 182 230 269 317
#     4  10  20  36  60  86 111 141 179 219 260 317
#     4  10  21  37  55  76 108 147 183 224 276 326
#     4   8  14  24  38  60  92 125 157 205 267 316
#     4   9  19  36  54  73 104 144 180 217 268 325
#     4   9  20  38  58  83 115 146 174 213 268 324
#
# _framework density 19.168863999999999
#
# number of rings (size 3 to 8) (size 9 to 14) (size 15 to 20)
#    0.000    2.500    0.000    4.000    0.000    6.333 
#    0.000    2.500    0.000    0.000    0.000    7.000 
#    0.000    0.000    0.000    0.000    0.000    0.000 
#
# Total GULP energy -267307.093465 kJ/mol
# GULP energy per Si atom -5568.897781 kJ/mol
# Density = 1.912523 g / cm^3
# Si number density = 19.168864 Si / 1000 Ang^3
#
#
#
# Elastic Constant Matrix: (Units=GPa)
#
#
# Indices 1 2 3 4 5 6 
#
# 1 62.2194 83.1403 13.9422 0.0000 0.0000 -6.1360
# 2 83.1403 62.2194 13.9422 0.0000 0.0000 6.1360
# 3 13.9422 13.9422 24.9606 0.0000 0.0000 0.0000
# 4 0.0000 0.0000 0.0000 24.0107 0.0000 0.0000
# 5 0.0000 0.0000 0.0000 0.0000 24.0107 0.0000
# 6 -6.1360 6.1360 0.0000 0.0000 0.0000 40.4459
#
#
#
# Elastic Compliance Matrix: (Units=1/GPa)
#
#
# Indices 1 2 3 4 5 6 
#
# 1 -0.018094 0.025799 -0.004304 0.000000 0.000000 -0.006659
# 2 0.025799 -0.018094 -0.004304 0.000000 0.000000 0.006659
# 3 -0.004304 -0.004304 0.044871 0.000000 0.000000 0.000000
# 4 0.000000 0.000000 0.000000 0.041648 0.000000 0.000000
# 5 0.000000 0.000000 0.000000 0.000000 0.041648 0.000000
# 6 -0.006659 0.006659 0.000000 0.000000 0.000000 0.022704
#
#
# Mechanical properties :
#
#
# Convention : Reuss Voigt Hill
#
# Bulk Modulus (GPa) = 23.22017 41.27209 32.24613
# Shear Modulus (GPa) = 52.82302 20.25180 36.53741
#
# Velocity S-wave (km/s) = 5.25514 3.25390 4.37061
# Velocity P-wave (km/s) = 6.99727 5.97450 6.50602
#
# Compressibility (1/GPa) = 0.04306600
#
# Stress axis : x y z
#
# Youngs Moduli (GPa) = -55.26707 -55.26707 22.28605
#
# Poissons Ratio (x) = 1.42584 0.09592
# Poissons Ratio (y) = 1.42584 0.09592
# Poissons Ratio (z) = -0.23786 -0.23786
#
# Static dielectric constant tensor:
#      x y z
#    x 1.699130 0.000000 0.000000 
#    y 0.000000 1.699130 0.000000 
#    z 0.000000 0.000000 1.678490 
# 
# From -- ./inp_files/1348.got.cif
#   From: 2010.05.17/outbox.cif.g08.bks.cpg/sg87_1_cif.got.tgz:1348.got - 2010.06.03 19:07:00.
