data_PCOD9545861
_publ_section_title
;
Structure prediction by ZEFSAII (Michael W. Deem and Ramdas Pophale) SiO2 
 PCOD9545861
Probable space group: I 4/M
;
_chemical_formula_sum "Si O2"
_cell_formula_units_Z 96
_cell_length_a 16.037561
_cell_length_b 16.037561
_cell_length_c 20.068679
_cell_angle_alpha 90.000000
_cell_angle_beta 90.000000
_cell_angle_gamma 90.000000
_cell_volume 5161.731726
_symmetry_space_group_name_H-M "I 4/M"
_symmetry_group_IT_number 87
_symmetry_cell_setting 'tetragonal'
loop_
_space_group_symop_operation_xyz
x,y,z
-y,x,z
-x,-y,z
y,-x,z
-x,-y,-z
y,-x,-z
x,y,-z
-y,x,-z
1/2+x,1/2+y,1/2+z
1/2-y,1/2+x,1/2+z
1/2-x,1/2-y,1/2+z
1/2+y,1/2-x,1/2+z
1/2-x,1/2-y,1/2-z
1/2+y,1/2-x,1/2-z
1/2+x,1/2+y,1/2-z
1/2-y,1/2+x,1/2-z
loop_
_atom_site_type_symbol
_atom_site_label
_atom_site_fract_x
_atom_site_fract_y
_atom_site_fract_z
Si Si1 0.878915 0.069953 0.926772
Si Si2 0.818278 0.782881 0.829831
Si Si3 0.349284 0.149861 0.780290
Si Si4 0.037270 0.872137 0.419043
Si Si5 0.016829 0.598925 0.667789
Si Si6 0.297132 0.124708 0.579277
O O1 0.827470 0.106250 0.866473
O O2 0.971122 0.109112 0.923927
O O3 0.842491 0.090965 0.000000
O O4 0.741836 0.845179 0.813659
O O5 0.848750 0.733703 0.764359
O O6 0.789105 0.710975 0.881114
O O7 0.366675 0.072112 0.730170
O O8 0.426999 0.143807 0.830336
O O9 0.036314 0.873240 0.500000
O O10 0.068773 0.782043 0.399394
O O11 0.945208 0.899591 0.397120
O O12 0.073575 0.622691 0.604688
O O13 0.000000 0.500000 0.671742
O O14 0.296937 0.136366 0.500000
#
# Coordination Sequence:
#
# PCOD9545861 Si02
#       6
#    16  16  16  16  16  16
#     4   9  19  36  58  85 116 150 187 231 291 355
#     4  10  22  35  58  84 113 153 189 246 293 343
#     4  10  21  38  56  84 108 147 202 237 289 344
#     4   8  15  30  51  73 104 147 183 217 274 338
#     4  11  21  39  63  80 113 158 195 246 295 352
#     4  10  22  36  55  87 121 148 189 247 295 355
#
# _framework density 18.598409
#
# number of rings (size 3 to 8) (size 9 to 14) (size 15 to 20)
#    0.000    2.333    1.667    1.500    4.667    0.333 
#    0.000    0.833    0.000    0.000    0.000    0.000 
#    0.000    0.000    0.000    0.000    0.000    0.000 
#
# Total GULP energy -267528.341781 kJ/mol
# GULP energy per Si atom -5573.507120 kJ/mol
# Density = 1.855608 g / cm^3
# Si number density = 18.598409 Si / 1000 Ang^3
#
#
#
# Elastic Constant Matrix: (Units=GPa)
#
#
# Indices 1 2 3 4 5 6 
#
# 1 40.3066 32.1287 -0.6711 0.0000 0.0000 -5.2329
# 2 32.1287 40.3066 -0.6711 0.0000 0.0000 5.2329
# 3 -0.6711 -0.6711 33.5189 0.0000 0.0000 0.0000
# 4 0.0000 0.0000 0.0000 17.9468 0.0000 0.0000
# 5 0.0000 0.0000 0.0000 0.0000 17.9468 0.0000
# 6 -5.2329 5.2329 0.0000 0.0000 0.0000 29.9493
#
#
#
# Elastic Compliance Matrix: (Units=1/GPa)
#
#
# Indices 1 2 3 4 5 6 
#
# 1 0.085655 -0.071844 0.000277 0.000000 0.000000 0.027519
# 2 -0.071844 0.085655 0.000277 0.000000 0.000000 -0.027519
# 3 0.000277 0.000277 0.029845 0.000000 0.000000 0.000000
# 4 0.000000 0.000000 0.000000 0.055720 0.000000 0.000000
# 5 0.000000 0.000000 0.000000 0.000000 0.055720 0.000000
# 6 0.027519 -0.027519 0.000000 0.000000 0.000000 0.043006
#
#
# Mechanical properties :
#
#
# Convention : Reuss Voigt Hill
#
# Bulk Modulus (GPa) = 17.07296 19.52279 18.29787
# Shear Modulus (GPa) = 9.65796 18.72494 14.19145
#
# Velocity S-wave (km/s) = 2.28126 3.17646 2.76533
# Velocity P-wave (km/s) = 4.01729 4.89622 4.47837
#
# Compressibility (1/GPa) = 0.05857216
#
# Stress axis : x y z
#
# Youngs Moduli (GPa) = 11.67478 11.67478 33.50644
#
# Poissons Ratio (x) = 0.83877 -0.00927
# Poissons Ratio (y) = 0.83877 -0.00927
# Poissons Ratio (z) = -0.00323 -0.00323
#
# Static dielectric constant tensor:
#      x y z
#    x 1.638660 0.000000 0.000000 
#    y 0.000000 1.638660 0.000000 
#    z 0.000000 0.000000 1.654320 
# 
# From -- ./inp_files/5294.got.cif
#   From: 2010.05.17/outbox.cif.g08.bks.cpg/sg87_3_cif.got.tgz:5294.got - 2010.06.03 19:07:00.
