data_PCOD9545243
_publ_section_title
;
Structure prediction by ZEFSAII (Michael W. Deem and Ramdas Pophale) SiO2 
 PCOD9545243
Probable space group: P 42/N
;
_chemical_formula_sum "Si O2"
_cell_formula_units_Z 40
_cell_length_a 9.838520
_cell_length_b 9.838520
_cell_length_c 23.230298
_cell_angle_alpha 90.000000
_cell_angle_beta 90.000000
_cell_angle_gamma 90.000000
_cell_volume 2248.610978
_symmetry_space_group_name_H-M "P 42/N"
_symmetry_group_IT_number 86
_space_group.IT_coordinate_system_code '2'
_symmetry_cell_setting 'tetragonal'
loop_
_space_group_symop_operation_xyz
x,y,z
-y,1/2+x,1/2+z
1/2-x,1/2-y,z
1/2+y,-x,1/2+z
-x,-y,-z
y,1/2-x,1/2-z
1/2+x,1/2+y,-z
1/2-y,x,1/2-z
loop_
_atom_site_type_symbol
_atom_site_label
_atom_site_fract_x
_atom_site_fract_y
_atom_site_fract_z
Si Si1 0.887541 0.333435 0.550004
Si Si2 0.250000 0.250000 0.250000
Si Si3 0.750000 0.750000 0.250000
Si Si4 0.494358 0.820975 0.322765
Si Si5 0.250000 0.750000 0.237888
Si Si6 0.007902 0.357347 0.327386
Si Si7 0.884791 0.658470 0.547188
O O1 0.750000 0.250000 0.537973
O O2 0.947304 0.288072 0.612206
O O3 0.854184 0.495739 0.549476
O O4 0.006533 0.314652 0.503186
O O5 0.139454 0.325128 0.289065
O O6 0.622414 0.747924 0.293427
O O7 0.372816 0.787805 0.279721
O O8 0.521616 0.982249 0.324838
O O9 0.282409 0.621118 0.198662
O O10 0.043584 0.312387 0.391821
O O11 0.750000 0.750000 0.540707
#
# Coordination Sequence:
#
# PCOD9545243 Si02
#       7
#     8   2   2   8   4   8   8
#     4  10  23  43  65  88 126 163 205 258 310 364
#     4  12  20  36  62  88 116 160 188 258 308 356
#     4  12  24  40  58  92 124 164 204 254 300 380
#     4  11  23  40  61  90 125 160 205 250 311 368
#     4  12  22  38  60  90 120 162 196 254 310 366
#     4  11  23  38  61  92 123 156 205 253 306 368
#     4  10  23  43  63  92 122 161 210 257 304 366
#
# _framework density 17.788761000000001
#
# number of rings (size 3 to 8) (size 9 to 14) (size 15 to 20)
#    0.000    1.200    6.000    0.000    2.800    0.800 
#    3.600    0.000    0.000    0.000    0.000    0.000 
#    0.000    0.000    0.000    0.000    0.000    0.000 
#
# Total GULP energy -223290.912838 kJ/mol
# GULP energy per Si atom -5582.272821 kJ/mol
# Density = 1.774827 g / cm^3
# Si number density = 17.788761 Si / 1000 Ang^3
#
#
#
# Elastic Constant Matrix: (Units=GPa)
#
#
# Indices 1 2 3 4 5 6 
#
# 1 70.9412 34.5581 56.7506 0.0000 0.0000 -6.7336
# 2 34.5581 70.9412 56.7506 0.0000 0.0000 6.7336
# 3 56.7506 56.7506 141.5014 0.0000 0.0000 0.0000
# 4 0.0000 0.0000 0.0000 19.7026 0.0000 0.0000
# 5 0.0000 0.0000 0.0000 0.0000 19.7026 0.0000
# 6 -6.7336 6.7336 0.0000 0.0000 0.0000 26.7556
#
#
#
# Elastic Compliance Matrix: (Units=1/GPa)
#
#
# Indices 1 2 3 4 5 6 
#
# 1 0.023491 -0.006818 -0.006687 0.000000 0.000000 0.007628
# 2 -0.006818 0.023491 -0.006687 0.000000 0.000000 -0.007628
# 3 -0.006687 -0.006687 0.012431 0.000000 0.000000 0.000000
# 4 0.000000 0.000000 0.000000 0.050755 0.000000 0.000000
# 5 0.000000 0.000000 0.000000 0.000000 0.050755 0.000000
# 6 0.007628 -0.007628 0.000000 0.000000 0.000000 0.041215
#
#
# Mechanical properties :
#
#
# Convention : Reuss Voigt Hill
#
# Bulk Modulus (GPa) = 52.55139 64.38916 58.47028
# Shear Modulus (GPa) = 20.09144 22.25379 21.17261
#
# Velocity S-wave (km/s) = 3.36437 3.54079 3.45371
# Velocity P-wave (km/s) = 6.68566 7.27952 6.98890
#
# Compressibility (1/GPa) = 0.01902899
#
# Stress axis : x y z
#
# Youngs Moduli (GPa) = 42.57001 42.57001 80.44626
#
# Poissons Ratio (x) = 0.29024 0.53792
# Poissons Ratio (y) = 0.29024 0.53792
# Poissons Ratio (z) = 0.28466 0.28466
#
# Static dielectric constant tensor:
#      x y z
#    x 1.586680 0.000000 0.000000 
#    y 0.000000 1.586680 0.000000 
#    z 0.000000 0.000000 1.594250 
# 
# From -- ./inp_files/4576.got.cif
#   From: 2010.05.17/outbox.cif.g08.bks.cpg/sg86_3_cif.got.tgz:4576.got - 2010.06.03 19:03:11.
