data_PCOD9545205
_publ_section_title
;
Structure prediction by ZEFSAII (Michael W. Deem and Ramdas Pophale) SiO2 
 PCOD9545205
Probable space group: P 42/N
;
_chemical_formula_sum "Si O2"
_cell_formula_units_Z 64
_cell_length_a 22.281172
_cell_length_b 22.281172
_cell_length_c 5.262815
_cell_angle_alpha 90.000000
_cell_angle_beta 90.000000
_cell_angle_gamma 90.000000
_cell_volume 2612.727800
_symmetry_space_group_name_H-M "P 42/N"
_symmetry_group_IT_number 86
_space_group.IT_coordinate_system_code '2'
_symmetry_cell_setting 'tetragonal'
loop_
_space_group_symop_operation_xyz
x,y,z
-y,1/2+x,1/2+z
1/2-x,1/2-y,z
1/2+y,-x,1/2+z
-x,-y,-z
y,1/2-x,1/2-z
1/2+x,1/2+y,-z
1/2-y,x,1/2-z
loop_
_atom_site_type_symbol
_atom_site_label
_atom_site_fract_x
_atom_site_fract_y
_atom_site_fract_z
Si Si1 0.962328 0.752864 0.904789
Si Si2 0.394667 0.026909 0.314557
Si Si3 0.075499 0.346207 0.474401
Si Si4 0.128086 0.810891 0.325555
Si Si5 0.676471 0.363088 0.172947
Si Si6 0.456914 0.579217 0.315789
Si Si7 0.340353 0.231624 0.766781
Si Si8 0.858092 0.020456 0.377786
O O1 0.956013 0.710434 0.658013
O O2 0.978641 0.821766 0.846677
O O3 0.898523 0.748559 0.060997
O O4 0.012091 0.712346 0.050400
O O5 0.408600 0.097332 0.305517
O O6 0.421740 0.999004 0.061066
O O7 0.425020 0.994063 0.556934
O O8 0.136061 0.316597 0.567843
O O9 0.037998 0.370753 0.713426
O O10 0.171554 0.834745 0.548047
O O11 0.116230 0.742834 0.388233
O O12 0.071207 0.854011 0.323930
O O13 0.155828 0.819046 0.047218
O O14 0.635334 0.421992 0.194314
O O15 0.400910 0.535232 0.383121
O O16 0.286161 0.191910 0.883210
#
# Coordination Sequence:
#
# PCOD9545205 Si02
#       8
#     8   8   8   8   8   8   8   8
#     4  11  26  43  73 103 149 196 248 305 377 446
#     4  12  28  48  75 107 146 191 247 308 365 441
#     4  11  27  43  71 106 144 192 250 301 375 445
#     4  11  24  42  69 102 138 183 232 293 357 446
#     4  11  24  42  68  99 141 180 236 288 367 424
#     4  11  27  47  73 103 142 191 250 299 368 426
#     4  10  22  43  70 103 149 192 247 310 381 450
#     4  10  26  46  70 100 139 193 243 304 363 439
#
# _framework density 24.495471999999999
#
# number of rings (size 3 to 8) (size 9 to 14) (size 15 to 20)
#    0.000    1.125    1.250    3.000   15.750    2.500 
#    0.000    1.250    0.000    0.000    0.000    0.000 
#    0.000    0.000    0.000    0.000    0.000    0.000 
#
# Total GULP energy -357816.525797 kJ/mol
# GULP energy per Si atom -5590.883216 kJ/mol
# Density = 2.443972 g / cm^3
# Si number density = 24.495472 Si / 1000 Ang^3
#
#
#
# Elastic Constant Matrix: (Units=GPa)
#
#
# Indices 1 2 3 4 5 6 
#
# 1 157.9086 -11.4694 28.3599 0.0000 0.0000 17.9391
# 2 -11.4694 157.9086 28.3599 0.0000 0.0000 -17.9391
# 3 28.3599 28.3599 105.4716 0.0000 0.0000 0.0000
# 4 0.0000 0.0000 0.0000 18.8670 0.0000 0.0000
# 5 0.0000 0.0000 0.0000 0.0000 18.8670 0.0000
# 6 17.9391 -17.9391 0.0000 0.0000 0.0000 32.2080
#
#
#
# Elastic Compliance Matrix: (Units=1/GPa)
#
#
# Indices 1 2 3 4 5 6 
#
# 1 0.007158 0.000464 -0.002050 0.000000 0.000000 -0.003728
# 2 0.000464 0.007158 -0.002050 0.000000 0.000000 0.003728
# 3 -0.002050 -0.002050 0.010583 0.000000 0.000000 0.000000
# 4 0.000000 0.000000 0.000000 0.053003 0.000000 0.000000
# 5 0.000000 0.000000 0.000000 0.000000 0.053003 0.000000
# 6 -0.003728 0.003728 0.000000 0.000000 0.000000 0.035201
#
#
# Mechanical properties :
#
#
# Convention : Reuss Voigt Hill
#
# Bulk Modulus (GPa) = 56.72071 56.86551 56.79311
# Shear Modulus (GPa) = 27.89362 39.05763 33.47562
#
# Velocity S-wave (km/s) = 3.37816 3.99743 3.70077
# Velocity P-wave (km/s) = 6.19853 6.67615 6.44177
#
# Compressibility (1/GPa) = 0.01763024
#
# Stress axis : x y z
#
# Youngs Moduli (GPa) = 139.70061 139.70061 94.48706
#
# Poissons Ratio (x) = -0.06489 0.19366
# Poissons Ratio (y) = -0.06489 0.19366
# Poissons Ratio (z) = 0.28633 0.28633
#
# Static dielectric constant tensor:
#      x y z
#    x 1.975820 0.000000 0.000000 
#    y 0.000000 1.975820 0.000000 
#    z 0.000000 0.000000 2.000970 
# 
# From -- ./inp_files/548.got.cif
#   From: 2010.05.17/outbox.cif.g08.bks.cpg/sg86_1_cif.got.tgz:548.got - 2010.06.03 19:03:11.
