data_PCOD9545118
_publ_section_title
;
Structure prediction by ZEFSAII (Michael W. Deem and Ramdas Pophale) SiO2 
 PCOD9545118
Probable space group: P 42/N
;
_chemical_formula_sum "Si O2"
_cell_formula_units_Z 40
_cell_length_a 8.813555
_cell_length_b 8.813555
_cell_length_c 22.566873
_cell_angle_alpha 90.000000
_cell_angle_beta 90.000000
_cell_angle_gamma 90.000000
_cell_volume 1752.966525
_symmetry_space_group_name_H-M "P 42/N"
_symmetry_group_IT_number 86
_space_group.IT_coordinate_system_code '2'
_symmetry_cell_setting 'tetragonal'
loop_
_space_group_symop_operation_xyz
x,y,z
-y,1/2+x,1/2+z
1/2-x,1/2-y,z
1/2+y,-x,1/2+z
-x,-y,-z
y,1/2-x,1/2-z
1/2+x,1/2+y,-z
1/2-y,x,1/2-z
loop_
_atom_site_type_symbol
_atom_site_label
_atom_site_fract_x
_atom_site_fract_y
_atom_site_fract_z
Si Si1 0.483889 0.625433 0.340058
Si Si2 0.904802 0.331158 0.772981
Si Si3 0.918886 0.303626 0.543418
Si Si4 0.690686 0.917395 0.683887
Si Si5 0.343445 0.407052 0.067531
O O1 0.624863 0.514975 0.326512
O O2 0.470322 0.728902 0.280867
O O3 0.498553 0.727835 0.398926
O O4 0.326767 0.524995 0.342450
O O5 0.750000 0.250000 0.791579
O O6 0.869377 0.490527 0.739762
O O7 0.750000 0.250000 0.547220
O O8 0.901077 0.484625 0.545147
O O9 0.989514 0.258850 0.480088
O O10 0.750000 0.750000 0.694138
O O11 0.558323 0.879634 0.636269
O O12 0.250000 0.250000 0.068004
#
# Coordination Sequence:
#
# PCOD9545118 Si02
#       5
#     8   8   8   8   8
#     4  11  22  43  68 100 150 179 233 295 365 420
#     4  10  23  41  68 104 142 185 232 287 364 434
#     4  11  21  44  73 101 139 186 232 308 362 411
#     4  10  21  40  70 103 132 184 239 289 340 439
#     4  10  22  42  72 101 134 186 244 284 359 429
#
# _framework density 22.818459000000001
#
# number of rings (size 3 to 8) (size 9 to 14) (size 15 to 20)
#    0.000    1.600    4.000    0.600    5.600    1.200 
#    3.600    0.000    0.000    0.000    0.000    0.000 
#    0.000    0.000    0.000    0.000    0.000    0.000 
#
# Total GULP energy -223112.117393 kJ/mol
# GULP energy per Si atom -5577.802935 kJ/mol
# Density = 2.276652 g / cm^3
# Si number density = 22.818459 Si / 1000 Ang^3
#
#
#
# Elastic Constant Matrix: (Units=GPa)
#
#
# Indices 1 2 3 4 5 6 
#
# 1 86.8924 31.2934 43.8598 0.0000 0.0000 -0.3295
# 2 31.2934 86.8924 43.8598 0.0000 0.0000 0.3295
# 3 43.8598 43.8598 95.0953 0.0000 0.0000 0.0000
# 4 0.0000 0.0000 0.0000 9.3289 0.0000 0.0000
# 5 0.0000 0.0000 0.0000 0.0000 9.3289 0.0000
# 6 -0.3295 0.3295 0.0000 0.0000 0.0000 22.1860
#
#
#
# Elastic Compliance Matrix: (Units=1/GPa)
#
#
# Indices 1 2 3 4 5 6 
#
# 1 0.015427 -0.002562 -0.005934 0.000000 0.000000 0.000267
# 2 -0.002562 0.015427 -0.005934 0.000000 0.000000 -0.000267
# 3 -0.005934 -0.005934 0.015989 0.000000 0.000000 0.000000
# 4 0.000000 0.000000 0.000000 0.107194 0.000000 0.000000
# 5 0.000000 0.000000 0.000000 0.000000 0.107194 0.000000
# 6 0.000267 -0.000267 0.000000 0.000000 0.000000 0.045081
#
#
# Mechanical properties :
#
#
# Convention : Reuss Voigt Hill
#
# Bulk Modulus (GPa) = 55.60182 56.32290 55.96236
# Shear Modulus (GPa) = 14.65555 18.15987 16.40771
#
# Velocity S-wave (km/s) = 2.53705 2.82413 2.68443
# Velocity P-wave (km/s) = 5.74474 5.94734 5.84692
#
# Compressibility (1/GPa) = 0.01798502
#
# Stress axis : x y z
#
# Youngs Moduli (GPa) = 64.82029 64.82029 62.54179
#
# Poissons Ratio (x) = 0.16606 0.37111
# Poissons Ratio (y) = 0.16606 0.37111
# Poissons Ratio (z) = 0.38463 0.38463
#
# Static dielectric constant tensor:
#      x y z
#    x 1.915190 0.000000 0.000000 
#    y 0.000000 1.915190 0.000000 
#    z 0.000000 0.000000 2.008250 
# 
# From -- ./inp_files/4435.got.cif
#   From: 2010.05.17/outbox.cif.g08.bks.cpg/sg86_3_cif.got.tgz:4435.got - 2010.06.03 19:03:11.
