data_PCOD9545794
_publ_section_title
;
Structure prediction by ZEFSAII (Michael W. Deem and Ramdas Pophale) SiO2 
 PCOD9545794
Probable space group: I 4/M
;
_chemical_formula_sum "Si O2"
_cell_formula_units_Z 112
_cell_length_a 15.099981
_cell_length_b 15.099981
_cell_length_c 22.091793
_cell_angle_alpha 90.000000
_cell_angle_beta 90.000000
_cell_angle_gamma 90.000000
_cell_volume 5037.137046
_symmetry_space_group_name_H-M "I 4/M"
_symmetry_group_IT_number 87
_symmetry_cell_setting 'tetragonal'
loop_
_space_group_symop_operation_xyz
x,y,z
-y,x,z
-x,-y,z
y,-x,z
-x,-y,-z
y,-x,-z
x,y,-z
-y,x,-z
1/2+x,1/2+y,1/2+z
1/2-y,1/2+x,1/2+z
1/2-x,1/2-y,1/2+z
1/2+y,1/2-x,1/2+z
1/2-x,1/2-y,1/2-z
1/2+y,1/2-x,1/2-z
1/2+x,1/2+y,1/2-z
1/2-y,1/2+x,1/2-z
loop_
_atom_site_type_symbol
_atom_site_label
_atom_site_fract_x
_atom_site_fract_y
_atom_site_fract_z
Si Si1 0.121196 0.222419 0.899528
Si Si2 0.301970 0.097343 0.371003
Si Si3 0.927652 0.254926 0.896872
Si Si4 0.410114 0.956657 0.429661
Si Si5 0.151794 0.204220 0.242707
Si Si6 0.376245 0.420163 0.928705
Si Si7 0.957319 0.253186 0.750781
O O1 0.143713 0.326084 0.904734
O O2 0.193970 0.152522 0.920509
O O3 0.129923 0.206697 0.827896
O O4 0.020009 0.211645 0.918036
O O5 0.200646 0.118899 0.387301
O O6 0.318237 0.087772 0.298894
O O7 0.328043 0.003615 0.398430
O O8 0.913972 0.352645 0.921452
O O9 0.939612 0.268866 0.822740
O O10 0.405617 0.979237 0.500000
O O11 0.500000 0.000000 0.403680
O O12 0.250000 0.250000 0.250000
O O13 0.164540 0.101147 0.259546
O O14 0.060331 0.244640 0.267841
O O15 0.474151 0.382564 0.918303
O O16 0.354933 0.406387 0.000000
#
# Coordination Sequence:
#
# PCOD9545794 Si02
#       7
#    16  16  16  16  16  16  16
#     4  10  22  40  65  92 127 169 218 267 331 390
#     4  12  23  36  62  99 125 171 217 267 331 396
#     4  10  23  45  66  95 130 174 216 272 333 395
#     4  11  25  45  65  91 130 167 210 268 325 390
#     4  10  20  39  54  86 130 168 211 260 317 390
#     4   9  21  40  57  81 126 177 223 269 315 382
#     4  10  24  35  65  90 132 172 208 270 327 390
#
# _framework density 22.234853000000001
#
# number of rings (size 3 to 8) (size 9 to 14) (size 15 to 20)
#    0.000    1.714    2.857    0.857    8.000    0.571 
#    0.000    4.286    0.000    0.000    0.000    1.000 
#    0.000    0.000    0.000    0.000    0.000    0.000 
#
# Total GULP energy -312095.850682 kJ/mol
# GULP energy per Si atom -5573.140191 kJ/mol
# Density = 2.218425 g / cm^3
# Si number density = 22.234853 Si / 1000 Ang^3
#
#
#
# Elastic Constant Matrix: (Units=GPa)
#
#
# Indices 1 2 3 4 5 6 
#
# 1 88.9060 23.5805 -8.5077 0.0000 0.0000 4.4122
# 2 23.5805 88.9060 -8.5077 0.0000 0.0000 -4.4122
# 3 -8.5077 -8.5077 40.1942 0.0000 0.0000 0.0000
# 4 0.0000 0.0000 0.0000 14.6229 0.0000 0.0000
# 5 0.0000 0.0000 0.0000 0.0000 14.6229 0.0000
# 6 4.4122 -4.4122 0.0000 0.0000 0.0000 37.4965
#
#
#
# Elastic Compliance Matrix: (Units=1/GPa)
#
#
# Indices 1 2 3 4 5 6 
#
# 1 0.012370 -0.003186 0.001944 0.000000 0.000000 -0.001830
# 2 -0.003186 0.012370 0.001944 0.000000 0.000000 0.001830
# 3 0.001944 0.001944 0.025702 0.000000 0.000000 0.000000
# 4 0.000000 0.000000 0.000000 0.068386 0.000000 0.000000
# 5 0.000000 0.000000 0.000000 0.000000 0.068386 0.000000
# 6 -0.001830 0.001830 0.000000 0.000000 0.000000 0.027100
#
#
# Mechanical properties :
#
#
# Convention : Reuss Voigt Hill
#
# Bulk Modulus (GPa) = 19.28793 25.68180 22.48487
# Shear Modulus (GPa) = 21.72115 27.44453 24.58284
#
# Velocity S-wave (km/s) = 3.12892 3.51708 3.32866
# Velocity P-wave (km/s) = 4.66337 5.29796 4.99076
#
# Compressibility (1/GPa) = 0.05184589
#
# Stress axis : x y z
#
# Youngs Moduli (GPa) = 80.84329 80.84329 38.90729
#
# Poissons Ratio (x) = 0.25753 -0.07563
# Poissons Ratio (y) = 0.25753 -0.07563
# Poissons Ratio (z) = -0.15715 -0.15715
#
# Static dielectric constant tensor:
#      x y z
#    x 1.993460 0.000000 0.000000 
#    y 0.000000 1.993460 0.000000 
#    z 0.000000 0.000000 1.858120 
# 
# From -- ./inp_files/5886.got.cif
#   From: 2010.05.17/outbox.cif.g08.bks.cpg/sg87_3_cif.got.tgz:5886.got - 2010.06.03 19:07:00.
