data_PCOD9545918
_publ_section_title
;
Structure prediction by ZEFSAII (Michael W. Deem and Ramdas Pophale) SiO2 
 PCOD9545918
Probable space group: I 4/M
;
_chemical_formula_sum "Si O2"
_cell_formula_units_Z 56
_cell_length_a 10.264450
_cell_length_b 10.264450
_cell_length_c 23.170405
_cell_angle_alpha 90.000000
_cell_angle_beta 90.000000
_cell_angle_gamma 90.000000
_cell_volume 2441.209167
_symmetry_space_group_name_H-M "I 4/M"
_symmetry_group_IT_number 87
_symmetry_cell_setting 'tetragonal'
loop_
_space_group_symop_operation_xyz
x,y,z
-y,x,z
-x,-y,z
y,-x,z
-x,-y,-z
y,-x,-z
x,y,-z
-y,x,-z
1/2+x,1/2+y,1/2+z
1/2-y,1/2+x,1/2+z
1/2-x,1/2-y,1/2+z
1/2+y,1/2-x,1/2+z
1/2-x,1/2-y,1/2-z
1/2+y,1/2-x,1/2-z
1/2+x,1/2+y,1/2-z
1/2-y,1/2+x,1/2-z
loop_
_atom_site_type_symbol
_atom_site_label
_atom_site_fract_x
_atom_site_fract_y
_atom_site_fract_z
Si Si1 0.682195 0.602211 0.356687
Si Si2 0.524927 0.281877 0.000000
Si Si3 0.527030 0.846538 0.881236
Si Si4 0.208664 0.448313 0.238054
O O1 0.549505 0.671689 0.375192
O O2 0.816052 0.663865 0.378353
O O3 0.690817 0.594957 0.286681
O O4 0.638126 0.389175 0.000000
O O5 0.526917 0.195868 0.942504
O O6 0.463896 0.762053 0.829381
O O7 0.500000 0.000000 0.869177
O O8 0.087809 0.349946 0.243937
#
# Coordination Sequence:
#
# PCOD9545918 Si02
#       4
#    16   8  16  16
#     4  10  22  37  60 100 136 165 210 264 320 393
#     4  11  29  48  66  95 124 164 228 279 317 378
#     4  11  22  42  69  91 127 175 218 259 330 385
#     4   9  16  34  59  92 125 161 208 247 306 382
#
# _framework density 22.939450999999998
#
# number of rings (size 3 to 8) (size 9 to 14) (size 15 to 20)
#    0.000    1.857    5.714    0.429    4.000    6.857 
#    0.000    2.857    0.000    1.714    0.000    0.000 
#    0.000    0.000    0.000    0.000    0.000    0.000 
#
# Total GULP energy -156628.825287 kJ/mol
# GULP energy per Si atom -5593.886617 kJ/mol
# Density = 2.288724 g / cm^3
# Si number density = 22.939451 Si / 1000 Ang^3
#
#
#
# Elastic Constant Matrix: (Units=GPa)
#
#
# Indices 1 2 3 4 5 6 
#
# 1 32.9492 23.9660 -13.6972 0.0000 0.0000 -1.4613
# 2 23.9660 32.9492 -13.6972 0.0000 0.0000 1.4613
# 3 -13.6972 -13.6972 106.5804 0.0000 0.0000 0.0000
# 4 0.0000 0.0000 0.0000 21.8541 0.0000 0.0000
# 5 0.0000 0.0000 0.0000 0.0000 21.8541 0.0000
# 6 -1.4613 1.4613 0.0000 0.0000 0.0000 23.3144
#
#
#
# Elastic Compliance Matrix: (Units=1/GPa)
#
#
# Indices 1 2 3 4 5 6 
#
# 1 0.066182 -0.047454 0.002407 0.000000 0.000000 0.007122
# 2 -0.047454 0.066182 0.002407 0.000000 0.000000 -0.007122
# 3 0.002407 0.002407 0.010001 0.000000 0.000000 0.000000
# 4 0.000000 0.000000 0.000000 0.045758 0.000000 0.000000
# 5 0.000000 0.000000 0.000000 0.000000 0.045758 0.000000
# 6 0.007122 -0.007122 0.000000 0.000000 0.000000 0.043785
#
#
# Mechanical properties :
#
#
# Convention : Reuss Voigt Hill
#
# Bulk Modulus (GPa) = 17.51749 18.40244 17.95996
# Shear Modulus (GPa) = 13.08986 25.13169 19.11077
#
# Velocity S-wave (km/s) = 2.39137 3.31352 2.88947
# Velocity P-wave (km/s) = 3.90869 4.76223 4.35642
#
# Compressibility (1/GPa) = 0.05708580
#
# Stress axis : x y z
#
# Youngs Moduli (GPa) = 15.10978 15.10978 99.98765
#
# Poissons Ratio (x) = 0.71702 -0.24066
# Poissons Ratio (y) = 0.71702 -0.24066
# Poissons Ratio (z) = -0.03637 -0.03637
#
# Static dielectric constant tensor:
#      x y z
#    x 1.870340 0.000000 0.000000 
#    y 0.000000 1.870340 0.000000 
#    z 0.000000 0.000000 1.838960 
# 
# From -- ./inp_files/4886.got.cif
#   From: 2010.05.17/outbox.cif.g08.bks.cpg/sg87_3_cif.got.tgz:4886.got - 2010.06.03 19:07:00.
