data_PCOD9545105
_publ_section_title
;
Structure prediction by ZEFSAII (Michael W. Deem and Ramdas Pophale) SiO2 
 PCOD9545105
Probable space group: P 42/N
;
_chemical_formula_sum "Si O2"
_cell_formula_units_Z 34
_cell_length_a 13.439347
_cell_length_b 13.439347
_cell_length_c 7.776831
_cell_angle_alpha 90.000000
_cell_angle_beta 90.000000
_cell_angle_gamma 90.000000
_cell_volume 1404.620480
_symmetry_space_group_name_H-M "P 42/N"
_symmetry_group_IT_number 86
_space_group.IT_coordinate_system_code '2'
_symmetry_cell_setting 'tetragonal'
loop_
_space_group_symop_operation_xyz
x,y,z
-y,1/2+x,1/2+z
1/2-x,1/2-y,z
1/2+y,-x,1/2+z
-x,-y,-z
y,1/2-x,1/2-z
1/2+x,1/2+y,-z
1/2-y,x,1/2-z
loop_
_atom_site_type_symbol
_atom_site_label
_atom_site_fract_x
_atom_site_fract_y
_atom_site_fract_z
Si Si1 0.144008 0.120054 0.491811
Si Si2 0.879397 0.077009 0.653070
Si Si3 0.747513 0.504798 0.197339
Si Si4 0.649976 0.316155 0.287127
Si Si5 0.750000 0.750000 0.750000
O O1 0.231375 0.157625 0.371790
O O2 0.076614 0.213216 0.547824
O O3 0.086121 0.034222 0.387516
O O4 0.192184 0.070388 0.660315
O O5 0.953162 0.148104 0.760005
O O6 0.766713 0.073630 0.723036
O O7 0.871859 0.135366 0.470908
O O8 0.675769 0.409855 0.163963
O O9 0.750000 0.250000 0.301570
#
# Coordination Sequence:
#
# PCOD9545105 Si02
#       5
#     8   8   8   8   2
#     4  11  24  43  64  94 127 181 220 268 332 395
#     4  10  21  38  68  99 132 165 218 279 330 396
#     4  10  21  41  67  93 131 172 215 265 337 397
#     4   9  18  35  63  97 131 166 204 264 332 390
#     4  12  28  46  60  88 132 174 224 276 316 398
#
# _framework density 24.205829000000001
#
# number of rings (size 3 to 8) (size 9 to 14) (size 15 to 20)
#    0.000    1.882    0.000    4.235    3.294    0.000 
#    0.000    1.176    0.000    0.000    0.000    0.000 
#    0.000    0.000    0.000    0.000    0.000    0.000 
#
# Total GULP energy -189923.995659 kJ/mol
# GULP energy per Si atom -5585.999872 kJ/mol
# Density = 2.415074 g / cm^3
# Si number density = 24.205829 Si / 1000 Ang^3
#
#
#
# Elastic Constant Matrix: (Units=GPa)
#
#
# Indices 1 2 3 4 5 6 
#
# 1 81.9809 10.4424 24.2521 0.0000 0.0000 -9.8509
# 2 10.4424 81.9809 24.2521 0.0000 0.0000 9.8509
# 3 24.2521 24.2521 44.5554 0.0000 0.0000 0.0000
# 4 0.0000 0.0000 0.0000 22.8089 0.0000 0.0000
# 5 0.0000 0.0000 0.0000 0.0000 22.8089 0.0000
# 6 -9.8509 9.8509 0.0000 0.0000 0.0000 25.1987
#
#
#
# Elastic Compliance Matrix: (Units=1/GPa)
#
#
# Indices 1 2 3 4 5 6 
#
# 1 0.015406 -0.000259 -0.008244 0.000000 0.000000 0.006124
# 2 -0.000259 0.015406 -0.008244 0.000000 0.000000 -0.006124
# 3 -0.008244 -0.008244 0.031419 0.000000 0.000000 0.000000
# 4 0.000000 0.000000 0.000000 0.043843 0.000000 0.000000
# 5 0.000000 0.000000 0.000000 0.000000 0.043843 0.000000
# 6 0.006124 -0.006124 0.000000 0.000000 0.000000 0.044473
#
#
# Mechanical properties :
#
#
# Convention : Reuss Voigt Hill
#
# Bulk Modulus (GPa) = 34.80157 36.26781 35.53469
# Shear Modulus (GPa) = 21.05593 24.13466 22.59530
#
# Velocity S-wave (km/s) = 2.95256 3.16105 3.05858
# Velocity P-wave (km/s) = 5.10216 5.32340 5.21395
#
# Compressibility (1/GPa) = 0.02873434
#
# Stress axis : x y z
#
# Youngs Moduli (GPa) = 64.91083 64.91083 31.82779
#
# Poissons Ratio (x) = 0.01683 0.26240
# Poissons Ratio (y) = 0.01683 0.26240
# Poissons Ratio (z) = 0.53515 0.53515
#
# Static dielectric constant tensor:
#      x y z
#    x 1.978330 0.000000 0.000000 
#    y 0.000000 1.978330 0.000000 
#    z 0.000000 0.000000 1.940260 
# 
# From -- ./inp_files/985.got.cif
#   From: 2010.05.17/outbox.cif.g08.bks.cpg/sg86_1_cif.got.tgz:985.got - 2010.06.03 19:03:11.
