data_PCOD9545418
_publ_section_title
;
Structure prediction by ZEFSAII (Michael W. Deem and Ramdas Pophale) SiO2 
 PCOD9545418
Probable space group: P 42/N
;
_chemical_formula_sum "Si O2"
_cell_formula_units_Z 56
_cell_length_a 13.523910
_cell_length_b 13.523910
_cell_length_c 12.408012
_cell_angle_alpha 90.000000
_cell_angle_beta 90.000000
_cell_angle_gamma 90.000000
_cell_volume 2269.377521
_symmetry_space_group_name_H-M "P 42/N"
_symmetry_group_IT_number 86
_space_group.IT_coordinate_system_code '2'
_symmetry_cell_setting 'tetragonal'
loop_
_space_group_symop_operation_xyz
x,y,z
-y,1/2+x,1/2+z
1/2-x,1/2-y,z
1/2+y,-x,1/2+z
-x,-y,-z
y,1/2-x,1/2-z
1/2+x,1/2+y,-z
1/2-y,x,1/2-z
loop_
_atom_site_type_symbol
_atom_site_label
_atom_site_fract_x
_atom_site_fract_y
_atom_site_fract_z
Si Si1 0.214054 0.149873 0.523609
Si Si2 0.645163 0.122688 0.817132
Si Si3 0.649329 0.842582 0.692270
Si Si4 0.325008 0.978819 0.961669
Si Si5 0.525598 0.027801 0.220071
Si Si6 0.193646 0.542378 0.612273
Si Si7 0.835314 0.330839 0.591046
O O1 0.250000 0.250000 0.580710
O O2 0.288151 0.144602 0.417835
O O3 0.095222 0.161369 0.516857
O O4 0.238457 0.049918 0.583872
O O5 0.627440 0.237982 0.837467
O O6 0.696014 0.114695 0.701375
O O7 0.541592 0.066151 0.803757
O O8 0.689279 0.074768 0.923746
O O9 0.727299 0.871153 0.785879
O O10 0.548974 0.898212 0.718714
O O11 0.420502 0.942280 0.892347
O O12 0.228884 0.938865 0.897435
O O13 0.611970 0.008695 0.304257
O O14 0.152782 0.589303 0.502396
O O15 0.750000 0.250000 0.568105
#
# Coordination Sequence:
#
# PCOD9545418 Si02
#       7
#     8   8   8   8   8   8   8
#     4  12  28  51  78 112 159 210 275 333 407 487
#     4  12  27  49  79 113 157 212 268 327 409 487
#     4  11  25  46  77 119 151 206 271 337 402 479
#     4  12  28  51  83 116 162 217 270 339 411 496
#     4  12  28  51  83 115 161 209 273 339 415 485
#     4  12  29  50  79 117 159 208 272 334 411 492
#     4  12  29  51  80 122 166 212 269 344 415 491
#
# _framework density 24.676369000000001
#
# number of rings (size 3 to 8) (size 9 to 14) (size 15 to 20)
#    0.000    0.143    5.714    2.143    8.000    2.286 
#    0.000    0.000    0.000    0.000    0.000    0.000 
#    0.000    0.000    0.000    0.000    0.000    0.000 
#
# Total GULP energy -313393.887358 kJ/mol
# GULP energy per Si atom -5596.319417 kJ/mol
# Density = 2.462020 g / cm^3
# Si number density = 24.676369 Si / 1000 Ang^3
#
#
#
# Elastic Constant Matrix: (Units=GPa)
#
#
# Indices 1 2 3 4 5 6 
#
# 1 80.3123 5.9640 4.8738 0.0000 0.0000 -6.7982
# 2 5.9640 80.3123 4.8738 0.0000 0.0000 6.7982
# 3 4.8738 4.8738 98.3524 0.0000 0.0000 0.0000
# 4 0.0000 0.0000 0.0000 31.3283 0.0000 0.0000
# 5 0.0000 0.0000 0.0000 0.0000 31.3283 0.0000
# 6 -6.7982 6.7982 0.0000 0.0000 0.0000 35.6663
#
#
#
# Elastic Compliance Matrix: (Units=1/GPa)
#
#
# Indices 1 2 3 4 5 6 
#
# 1 0.012796 -0.001140 -0.000578 0.000000 0.000000 0.002656
# 2 -0.001140 0.012796 -0.000578 0.000000 0.000000 -0.002656
# 3 -0.000578 -0.000578 0.010225 0.000000 0.000000 0.000000
# 4 0.000000 0.000000 0.000000 0.031920 0.000000 0.000000
# 5 0.000000 0.000000 0.000000 0.000000 0.031920 0.000000
# 6 0.002656 -0.002656 0.000000 0.000000 0.000000 0.029050
#
#
# Mechanical properties :
#
#
# Convention : Reuss Voigt Hill
#
# Bulk Modulus (GPa) = 32.02438 32.26669 32.14553
# Shear Modulus (GPa) = 34.79323 35.88229 35.33776
#
# Velocity S-wave (km/s) = 3.75905 3.81742 3.78835
# Velocity P-wave (km/s) = 5.64327 5.70391 5.67367
#
# Compressibility (1/GPa) = 0.03122621
#
# Stress axis : x y z
#
# Youngs Moduli (GPa) = 78.14978 78.14978 97.80178
#
# Poissons Ratio (x) = 0.08909 0.05649
# Poissons Ratio (y) = 0.08909 0.05649
# Poissons Ratio (z) = 0.04514 0.04514
#
# Static dielectric constant tensor:
#      x y z
#    x 1.949510 0.000000 0.000000 
#    y 0.000000 1.949510 0.000000 
#    z 0.000000 0.000000 1.990750 
# 
# From -- ./inp_files/2388.got.cif
#   From: 2010.05.17/outbox.cif.g08.bks.cpg/sg86_2_cif.got.tgz:2388.got - 2010.06.03 19:03:11.
