data_PCOD9545768
_publ_section_title
;
Structure prediction by ZEFSAII (Michael W. Deem and Ramdas Pophale) SiO2 
 PCOD9545768
Probable space group: I 4/M
;
_chemical_formula_sum "Si O2"
_cell_formula_units_Z 112
_cell_length_a 14.505196
_cell_length_b 14.505196
_cell_length_c 30.713826
_cell_angle_alpha 90.000000
_cell_angle_beta 90.000000
_cell_angle_gamma 90.000000
_cell_volume 6462.210828
_symmetry_space_group_name_H-M "I 4/M"
_symmetry_group_IT_number 87
_symmetry_cell_setting 'tetragonal'
loop_
_space_group_symop_operation_xyz
x,y,z
-y,x,z
-x,-y,z
y,-x,z
-x,-y,-z
y,-x,-z
x,y,-z
-y,x,-z
1/2+x,1/2+y,1/2+z
1/2-y,1/2+x,1/2+z
1/2-x,1/2-y,1/2+z
1/2+y,1/2-x,1/2+z
1/2-x,1/2-y,1/2-z
1/2+y,1/2-x,1/2-z
1/2+x,1/2+y,1/2-z
1/2-y,1/2+x,1/2-z
loop_
_atom_site_type_symbol
_atom_site_label
_atom_site_fract_x
_atom_site_fract_y
_atom_site_fract_z
Si Si1 0.742500 0.416989 0.404724
Si Si2 0.892294 0.222894 0.049976
Si Si3 0.569573 0.640950 0.683333
Si Si4 0.565793 0.088307 0.050351
Si Si5 0.637497 0.426015 0.779015
Si Si6 0.577938 0.635207 0.873967
Si Si7 0.596923 0.771918 0.048950
O O1 0.686944 0.345190 0.434216
O O2 0.713656 0.519134 0.419825
O O3 0.709538 0.403512 0.355267
O O4 0.849957 0.408274 0.416366
O O5 0.850850 0.325595 0.052392
O O6 0.917917 0.204349 0.000000
O O7 0.459663 0.618405 0.679904
O O8 0.593016 0.679423 0.731631
O O9 0.501401 0.177961 0.053481
O O10 0.500000 0.000000 0.057599
O O11 0.600448 0.081048 0.000000
O O12 0.619116 0.535807 0.779206
O O13 0.678172 0.401108 0.826149
O O14 0.467238 0.620625 0.876600
O O15 0.610190 0.697678 0.913559
O O16 0.604180 0.732352 0.000000
#
# Coordination Sequence:
#
# PCOD9545768 Si02
#       7
#    16  16  16  16  16  16  16
#     4  12  21  34  54  80 109 140 176 222 266 315
#     4  11  23  36  51  76 110 145 179 218 267 319
#     4   9  16  29  49  79 111 137 168 208 265 321
#     4  10  20  37  55  69  95 144 194 215 239 303
#     4   7  12  26  50  74 102 137 168 205 258 328
#     4   9  18  33  54  81 106 132 170 223 284 319
#     4  10  22  37  53  74 102 140 185 224 254 310
#
# _framework density 17.331529
#
# number of rings (size 3 to 8) (size 9 to 14) (size 15 to 20)
#    0.000    2.286    2.857    3.000    2.000    0.857 
#    0.000    1.429    0.000    2.571    0.000    0.000 
#    0.000    0.000    0.000    0.000    0.000    0.000 
#
# Total GULP energy -312112.403144 kJ/mol
# GULP energy per Si atom -5573.435770 kJ/mol
# Density = 1.729208 g / cm^3
# Si number density = 17.331529 Si / 1000 Ang^3
#
#
#
# Elastic Constant Matrix: (Units=GPa)
#
#
# Indices 1 2 3 4 5 6 
#
# 1 42.5343 -10.2265 12.5551 0.0000 0.0000 -3.3322
# 2 -10.2265 42.5343 12.5551 0.0000 0.0000 3.3322
# 3 12.5551 12.5551 113.5394 0.0000 0.0000 0.0000
# 4 0.0000 0.0000 0.0000 18.1351 0.0000 0.0000
# 5 0.0000 0.0000 0.0000 0.0000 18.1351 0.0000
# 6 -3.3322 3.3322 0.0000 0.0000 0.0000 14.1103
#
#
#
# Elastic Compliance Matrix: (Units=1/GPa)
#
#
# Indices 1 2 3 4 5 6 
#
# 1 0.026699 0.007163 -0.003744 0.000000 0.000000 0.004614
# 2 0.007163 0.026699 -0.003744 0.000000 0.000000 -0.004614
# 3 -0.003744 -0.003744 0.009636 0.000000 0.000000 0.000000
# 4 0.000000 0.000000 0.000000 0.055142 0.000000 0.000000
# 5 0.000000 0.000000 0.000000 0.000000 0.055142 0.000000
# 6 0.004614 -0.004614 0.000000 0.000000 0.000000 0.073049
#
#
# Mechanical properties :
#
#
# Convention : Reuss Voigt Hill
#
# Bulk Modulus (GPa) = 16.03007 25.37505 20.70256
# Shear Modulus (GPa) = 18.66976 22.32439 20.49708
#
# Velocity S-wave (km/s) = 3.28565 3.59288 3.44269
# Velocity P-wave (km/s) = 4.86448 5.64663 5.27009
#
# Compressibility (1/GPa) = 0.06238275
#
# Stress axis : x y z
#
# Youngs Moduli (GPa) = 37.45406 37.45406 103.78132
#
# Poissons Ratio (x) = -0.26829 0.38861
# Poissons Ratio (y) = -0.26829 0.38861
# Poissons Ratio (z) = 0.14025 0.14025
#
# Static dielectric constant tensor:
#      x y z
#    x 1.581970 0.000000 0.000000 
#    y 0.000000 1.581970 0.000000 
#    z 0.000000 0.000000 1.615940 
# 
# From -- ./inp_files/6281.got.cif
#   From: 2010.05.17/outbox.cif.g08.bks.cpg/sg87_4_cif.got.tgz:6281.got - 2010.06.03 19:07:00.
