data_PCOD9545185
_publ_section_title
;
Structure prediction by ZEFSAII (Michael W. Deem and Ramdas Pophale) SiO2 
 PCOD9545185
Probable space group: P 42/N
;
_chemical_formula_sum "Si O2"
_cell_formula_units_Z 48
_cell_length_a 14.094056
_cell_length_b 14.094056
_cell_length_c 11.754159
_cell_angle_alpha 90.000000
_cell_angle_beta 90.000000
_cell_angle_gamma 90.000000
_cell_volume 2334.874525
_symmetry_space_group_name_H-M "P 42/N"
_symmetry_group_IT_number 86
_space_group.IT_coordinate_system_code '2'
_symmetry_cell_setting 'tetragonal'
loop_
_space_group_symop_operation_xyz
x,y,z
-y,1/2+x,1/2+z
1/2-x,1/2-y,z
1/2+y,-x,1/2+z
-x,-y,-z
y,1/2-x,1/2-z
1/2+x,1/2+y,-z
1/2-y,x,1/2-z
loop_
_atom_site_type_symbol
_atom_site_label
_atom_site_fract_x
_atom_site_fract_y
_atom_site_fract_z
Si Si1 0.930584 0.271479 0.605594
Si Si2 0.412708 0.944949 0.556833
Si Si3 0.607049 0.961275 0.971070
Si Si4 0.112471 0.681660 0.768728
Si Si5 0.004533 0.282168 0.012208
Si Si6 0.380188 0.613715 0.682380
O O1 0.896429 0.347894 0.514220
O O2 0.854100 0.200567 0.657733
O O3 0.951013 0.340358 0.714787
O O4 0.002262 0.196321 0.545928
O O5 0.418431 0.904545 0.685322
O O6 0.322884 0.012574 0.535903
O O7 0.500000 0.000000 0.500000
O O8 0.595703 0.849650 0.988418
O O9 0.615554 0.007476 0.845883
O O10 0.500000 0.000000 0.000000
O O11 0.033307 0.712628 0.859346
O O12 0.140809 0.776455 0.702914
O O13 0.924726 0.328242 0.929646
#
# Coordination Sequence:
#
# PCOD9545185 Si02
#       6
#     8   8   8   8   8   8
#     4  12  23  39  68  99 134 171 226 288 354 402
#     4  12  28  43  63 106 140 176 235 297 339 414
#     4  10  22  42  63  96 136 177 215 269 352 427
#     4  12  22  39  69  97 133 171 220 291 357 397
#     4  11  24  41  66  97 134 184 223 271 360 419
#     4  11  22  37  66  99 130 164 224 287 340 410
#
# _framework density 20.557849000000001
#
# number of rings (size 3 to 8) (size 9 to 14) (size 15 to 20)
#    0.000    0.667    8.333    0.500    2.333    1.333 
#    0.000    0.833    0.000    0.000   13.000    0.000 
#    0.000    0.000    0.000    0.000    0.000    0.000 
#
# Total GULP energy -267325.185288 kJ/mol
# GULP energy per Si atom -5569.274694 kJ/mol
# Density = 2.051106 g / cm^3
# Si number density = 20.557849 Si / 1000 Ang^3
#
#
#
# Elastic Constant Matrix: (Units=GPa)
#
#
# Indices 1 2 3 4 5 6 
#
# 1 74.5832 24.5903 16.5454 0.0000 0.0000 -0.1051
# 2 24.5903 74.5832 16.5454 0.0000 0.0000 0.1051
# 3 16.5454 16.5454 90.6217 0.0000 0.0000 0.0000
# 4 0.0000 0.0000 0.0000 17.0571 0.0000 0.0000
# 5 0.0000 0.0000 0.0000 0.0000 17.0571 0.0000
# 6 -0.1051 0.1051 0.0000 0.0000 0.0000 30.2387
#
#
#
# Elastic Compliance Matrix: (Units=1/GPa)
#
#
# Indices 1 2 3 4 5 6 
#
# 1 0.015370 -0.004633 -0.001960 0.000000 0.000000 0.000070
# 2 -0.004633 0.015370 -0.001960 0.000000 0.000000 -0.000070
# 3 -0.001960 -0.001960 0.011751 0.000000 0.000000 0.000000
# 4 0.000000 0.000000 0.000000 0.058627 0.000000 0.000000
# 5 0.000000 0.000000 0.000000 0.000000 0.058627 0.000000
# 6 0.000070 -0.000070 0.000000 0.000000 0.000000 0.033071
#
#
# Mechanical properties :
#
#
# Convention : Reuss Voigt Hill
#
# Bulk Modulus (GPa) = 39.39485 39.46113 39.42799
# Shear Modulus (GPa) = 22.89546 25.01104 23.95325
#
# Velocity S-wave (km/s) = 3.34085 3.49179 3.41715
# Velocity P-wave (km/s) = 5.83834 5.95765 5.89830
#
# Compressibility (1/GPa) = 0.02538403
#
# Stress axis : x y z
#
# Youngs Moduli (GPa) = 65.06056 65.06056 85.10105
#
# Poissons Ratio (x) = 0.30142 0.16683
# Poissons Ratio (y) = 0.30142 0.16683
# Poissons Ratio (z) = 0.12755 0.12755
#
# Static dielectric constant tensor:
#      x y z
#    x 2.021090 0.000000 0.000000 
#    y 0.000000 2.021090 0.000000 
#    z 0.000000 0.000000 1.819850 
# 
# From -- ./inp_files/2274.got.cif
#   From: 2010.05.17/outbox.cif.g08.bks.cpg/sg86_2_cif.got.tgz:2274.got - 2010.06.03 19:03:11.
