data_PCOD9545320
_publ_section_title
;
Structure prediction by ZEFSAII (Michael W. Deem and Ramdas Pophale) SiO2 
 PCOD9545320
Probable space group: P 42/N
;
_chemical_formula_sum "Si O2"
_cell_formula_units_Z 40
_cell_length_a 8.419061
_cell_length_b 8.419061
_cell_length_c 24.193495
_cell_angle_alpha 90.000000
_cell_angle_beta 90.000000
_cell_angle_gamma 90.000000
_cell_volume 1714.849154
_symmetry_space_group_name_H-M "P 42/N"
_symmetry_group_IT_number 86
_space_group.IT_coordinate_system_code '2'
_symmetry_cell_setting 'tetragonal'
loop_
_space_group_symop_operation_xyz
x,y,z
-y,1/2+x,1/2+z
1/2-x,1/2-y,z
1/2+y,-x,1/2+z
-x,-y,-z
y,1/2-x,1/2-z
1/2+x,1/2+y,-z
1/2-y,x,1/2-z
loop_
_atom_site_type_symbol
_atom_site_label
_atom_site_fract_x
_atom_site_fract_y
_atom_site_fract_z
Si Si1 0.457781 0.585275 0.556458
Si Si2 0.112120 0.010376 0.338214
Si Si3 0.317189 0.427811 0.838999
Si Si4 0.539128 0.411864 0.941690
Si Si5 0.908546 0.145294 0.247752
O O1 0.500000 0.500000 0.500000
O O2 0.604006 0.554147 0.598188
O O3 0.437835 0.773131 0.560230
O O4 0.279513 0.516358 0.565655
O O5 0.262922 0.011901 0.298454
O O6 0.046779 0.831176 0.340154
O O7 0.986337 0.122159 0.306897
O O8 0.250000 0.250000 0.841765
O O9 0.433450 0.470628 0.889903
O O10 0.393011 0.470596 0.779634
O O11 0.500000 0.500000 0.000000
O O12 0.750000 0.250000 0.254576
#
# Coordination Sequence:
#
# PCOD9545320 Si02
#       5
#     8   8   8   8   8
#     4  11  26  47  73 104 144 193 237 311 373 446
#     4  11  25  46  71 101 153 184 249 298 377 450
#     4  11  24  44  73 100 139 190 241 301 372 444
#     4  11  26  45  73 104 142 186 252 300 371 453
#     4  10  27  44  70 108 145 193 244 308 375 452
#
# _framework density 23.325669000000001
#
# number of rings (size 3 to 8) (size 9 to 14) (size 15 to 20)
#    0.000    1.200    2.000    1.200   14.000    0.400 
#    0.000    0.000    0.000    0.000    0.000    0.000 
#    0.000    0.000    0.000    0.000    0.000    0.000 
#
# Total GULP energy -223256.900413 kJ/mol
# GULP energy per Si atom -5581.422510 kJ/mol
# Density = 2.327258 g / cm^3
# Si number density = 23.325669 Si / 1000 Ang^3
#
#
#
# Elastic Constant Matrix: (Units=GPa)
#
#
# Indices 1 2 3 4 5 6 
#
# 1 63.1116 20.7214 29.5636 0.0000 0.0000 -6.0623
# 2 20.7214 63.1116 29.5636 0.0000 0.0000 6.0623
# 3 29.5636 29.5636 133.2224 0.0000 0.0000 0.0000
# 4 0.0000 0.0000 0.0000 33.8985 0.0000 0.0000
# 5 0.0000 0.0000 0.0000 0.0000 33.8985 0.0000
# 6 -6.0623 6.0623 0.0000 0.0000 0.0000 24.6734
#
#
#
# Elastic Compliance Matrix: (Units=1/GPa)
#
#
# Indices 1 2 3 4 5 6 
#
# 1 0.019758 -0.005616 -0.003138 0.000000 0.000000 0.006234
# 2 -0.005616 0.019758 -0.003138 0.000000 0.000000 -0.006234
# 3 -0.003138 -0.003138 0.008899 0.000000 0.000000 0.000000
# 4 0.000000 0.000000 0.000000 0.029500 0.000000 0.000000
# 5 0.000000 0.000000 0.000000 0.000000 0.029500 0.000000
# 6 0.006234 -0.006234 0.000000 0.000000 0.000000 0.043593
#
#
# Mechanical properties :
#
#
# Convention : Reuss Voigt Hill
#
# Bulk Modulus (GPa) = 40.60118 46.57143 43.58631
# Shear Modulus (GPa) = 27.32215 30.46723 28.89469
#
# Velocity S-wave (km/s) = 3.42619 3.61801 3.52341
# Velocity P-wave (km/s) = 5.75289 6.12066 5.93962
#
# Compressibility (1/GPa) = 0.02462982
#
# Stress axis : x y z
#
# Youngs Moduli (GPa) = 50.61319 50.61319 112.37127
#
# Poissons Ratio (x) = 0.28424 0.35265
# Poissons Ratio (y) = 0.28424 0.35265
# Poissons Ratio (z) = 0.15884 0.15884
#
# Static dielectric constant tensor:
#      x y z
#    x 2.093280 0.000000 0.000000 
#    y 0.000000 2.093280 0.000000 
#    z 0.000000 0.000000 1.973810 
# 
# From -- ./inp_files/4433.got.cif
#   From: 2010.05.17/outbox.cif.g08.bks.cpg/sg86_3_cif.got.tgz:4433.got - 2010.06.03 19:03:11.
