data_PCOD9545773
_publ_section_title
;
Structure prediction by ZEFSAII (Michael W. Deem and Ramdas Pophale) SiO2 
 PCOD9545773
Probable space group: I 4/M
;
_chemical_formula_sum "Si O2"
_cell_formula_units_Z 52
_cell_length_a 17.543193
_cell_length_b 17.543193
_cell_length_c 7.419571
_cell_angle_alpha 90.000000
_cell_angle_beta 90.000000
_cell_angle_gamma 90.000000
_cell_volume 2283.474035
_symmetry_space_group_name_H-M "I 4/M"
_symmetry_group_IT_number 87
_symmetry_cell_setting 'tetragonal'
loop_
_space_group_symop_operation_xyz
x,y,z
-y,x,z
-x,-y,z
y,-x,z
-x,-y,-z
y,-x,-z
x,y,-z
-y,x,-z
1/2+x,1/2+y,1/2+z
1/2-y,1/2+x,1/2+z
1/2-x,1/2-y,1/2+z
1/2+y,1/2-x,1/2+z
1/2-x,1/2-y,1/2-z
1/2+y,1/2-x,1/2-z
1/2+x,1/2+y,1/2-z
1/2-y,1/2+x,1/2-z
loop_
_atom_site_type_symbol
_atom_site_label
_atom_site_fract_x
_atom_site_fract_y
_atom_site_fract_z
Si Si1 0.878443 0.615674 0.211732
Si Si2 0.404125 0.704233 0.219538
Si Si3 0.075180 0.212269 0.282134
Si Si4 0.500000 0.000000 0.750000
O O1 0.790816 0.614932 0.272961
O O2 0.909885 0.700867 0.227254
O O3 0.931092 0.555210 0.313717
O O4 0.880794 0.592303 0.000000
O O5 0.490750 0.687339 0.275192
O O6 0.343222 0.642207 0.282404
O O7 0.401955 0.703242 0.000000
O O8 0.076009 0.211059 0.500000
#
# Coordination Sequence:
#
# PCOD9545773 Si02
#       4
#    16  16  16   4
#     4  11  22  37  56  84 114 143 182 227 276 333
#     4   9  19  35  56  82 111 144 187 228 269 322
#     4  10  20  37  58  81 112 148 184 227 272 322
#     4  12  22  36  60  82 114 144 180 222 282 324
#
# _framework density 22.772320000000001
#
# number of rings (size 3 to 8) (size 9 to 14) (size 15 to 20)
#    0.000    1.846    3.077    1.385    0.000    1.846 
#    0.000    4.615    0.000    0.000    0.000    2.154 
#    0.000    0.000    0.000    0.000    0.000    0.000 
#
# Total GULP energy -145173.626062 kJ/mol
# GULP energy per Si atom -5583.601002 kJ/mol
# Density = 2.272049 g / cm^3
# Si number density = 22.772320 Si / 1000 Ang^3
#
#
#
# Elastic Constant Matrix: (Units=GPa)
#
#
# Indices 1 2 3 4 5 6 
#
# 1 124.8246 82.4589 2.1179 0.0000 0.0000 -2.2246
# 2 82.4589 124.8246 2.1179 0.0000 0.0000 2.2246
# 3 2.1179 2.1179 92.7367 0.0000 0.0000 0.0000
# 4 0.0000 0.0000 0.0000 -32.2736 0.0000 0.0000
# 5 0.0000 0.0000 0.0000 0.0000 -32.2736 0.0000
# 6 -2.2246 2.2246 0.0000 0.0000 0.0000 62.9531
#
#
#
# Elastic Compliance Matrix: (Units=1/GPa)
#
#
# Indices 1 2 3 4 5 6 
#
# 1 0.014259 -0.009433 -0.000110 0.000000 0.000000 0.000837
# 2 -0.009433 0.014259 -0.000110 0.000000 0.000000 -0.000837
# 3 -0.000110 -0.000110 0.010788 0.000000 0.000000 0.000000
# 4 0.000000 0.000000 0.000000 -0.030985 0.000000 0.000000
# 5 0.000000 0.000000 0.000000 0.000000 -0.030985 0.000000
# 6 0.000837 -0.000837 0.000000 0.000000 0.000000 0.015944
#
#
# Mechanical properties :
#
#
# Convention : Reuss Voigt Hill
#
# Bulk Modulus (GPa) = 49.99885 57.30838 53.65362
# Shear Modulus (GPa) = 259.69025 16.72725 138.20875
#
# Velocity S-wave (km/s) = 10.69043 2.71319 7.79893
# Velocity P-wave (km/s) = 13.20545 5.91909 10.23278
#
# Compressibility (1/GPa) = 0.02000046
#
# Stress axis : x y z
#
# Youngs Moduli (GPa) = 70.13000 70.13000 92.69344
#
# Poissons Ratio (x) = 0.66151 0.01022
# Poissons Ratio (y) = 0.66151 0.01022
# Poissons Ratio (z) = 0.00773 0.00773
#
# Static dielectric constant tensor:
#      x y z
#    x 1.786430 0.000000 0.000000 
#    y 0.000000 1.786430 0.000000 
#    z 0.000000 0.000000 1.945060 
# 
# From -- ./inp_files/666.got.cif
#   From: 2010.05.17/outbox.cif.g08.bks.cpg/sg87_1_cif.got.tgz:666.got - 2010.06.03 19:07:00.
