data_PCOD9545945
_publ_section_title
;
Structure prediction by ZEFSAII (Michael W. Deem and Ramdas Pophale) SiO2 
 PCOD9545945
Probable space group: I 4/M
;
_chemical_formula_sum "Si O2"
_cell_formula_units_Z 88
_cell_length_a 15.088677
_cell_length_b 15.088677
_cell_length_c 17.894934
_cell_angle_alpha 90.000000
_cell_angle_beta 90.000000
_cell_angle_gamma 90.000000
_cell_volume 4074.106941
_symmetry_space_group_name_H-M "I 4/M"
_symmetry_group_IT_number 87
_symmetry_cell_setting 'tetragonal'
loop_
_space_group_symop_operation_xyz
x,y,z
-y,x,z
-x,-y,z
y,-x,z
-x,-y,-z
y,-x,-z
x,y,-z
-y,x,-z
1/2+x,1/2+y,1/2+z
1/2-y,1/2+x,1/2+z
1/2-x,1/2-y,1/2+z
1/2+y,1/2-x,1/2+z
1/2-x,1/2-y,1/2-z
1/2+y,1/2-x,1/2-z
1/2+x,1/2+y,1/2-z
1/2-y,1/2+x,1/2-z
loop_
_atom_site_type_symbol
_atom_site_label
_atom_site_fract_x
_atom_site_fract_y
_atom_site_fract_z
Si Si1 0.680039 0.059024 0.843604
Si Si2 0.050272 0.682276 0.587558
Si Si3 0.431412 0.368750 0.000000
Si Si4 0.069530 0.128869 0.804324
Si Si5 0.139909 0.627884 0.178959
Si Si6 0.826939 0.161073 0.649185
O O1 0.617766 0.100021 0.906060
O O2 0.781352 0.091269 0.848063
O O3 0.642178 0.095895 0.764694
O O4 0.672738 0.952990 0.839711
O O5 0.036095 0.702295 0.500000
O O6 0.102562 0.761506 0.631612
O O7 0.960304 0.654944 0.629443
O O8 0.534345 0.387712 0.000000
O O9 0.397477 0.323614 0.074614
O O10 0.097419 0.146601 0.717920
O O11 0.965126 0.114710 0.818679
O O12 0.226129 0.689845 0.166499
#
# Coordination Sequence:
#
# PCOD9545945 Si02
#       6
#    16  16   8  16  16  16
#     4  11  24  42  70  96 133 180 234 285 339 403
#     4  12  26  43  66 103 141 180 230 287 347 420
#     4  11  20  34  58  88 132 176 207 256 336 416
#     4  10  22  40  66  99 129 168 226 283 336 408
#     4  11  24  42  69  97 134 182 228 279 343 408
#     4  11  23  38  63  94 136 174 221 272 342 414
#
# _framework density 21.599826
#
# number of rings (size 3 to 8) (size 9 to 14) (size 15 to 20)
#    0.000    1.000    2.727    4.909    3.818    4.364 
#    0.000    0.000    0.000    0.000    0.000    1.273 
#    0.000    0.000    0.000    0.000    0.000    0.000 
#
# Total GULP energy -245985.400129 kJ/mol
# GULP energy per Si atom -5590.577276 kJ/mol
# Density = 2.155066 g / cm^3
# Si number density = 21.599826 Si / 1000 Ang^3
#
#
#
# Elastic Constant Matrix: (Units=GPa)
#
#
# Indices 1 2 3 4 5 6 
#
# 1 100.8085 20.0169 13.0141 0.0000 0.0000 4.0291
# 2 20.0169 100.8085 13.0141 0.0000 0.0000 -4.0291
# 3 13.0141 13.0141 58.2472 0.0000 0.0000 0.0000
# 4 0.0000 0.0000 0.0000 23.1202 0.0000 0.0000
# 5 0.0000 0.0000 0.0000 0.0000 23.1202 0.0000
# 6 4.0291 -4.0291 0.0000 0.0000 0.0000 27.8221
#
#
#
# Elastic Compliance Matrix: (Units=1/GPa)
#
#
# Indices 1 2 3 4 5 6 
#
# 1 0.010627 -0.001932 -0.001943 0.000000 0.000000 -0.001819
# 2 -0.001932 0.010627 -0.001943 0.000000 0.000000 0.001819
# 3 -0.001943 -0.001943 0.018036 0.000000 0.000000 0.000000
# 4 0.000000 0.000000 0.000000 0.043252 0.000000 0.000000
# 5 0.000000 0.000000 0.000000 0.000000 0.043252 0.000000
# 6 -0.001819 0.001819 0.000000 0.000000 0.000000 0.036469
#
#
# Mechanical properties :
#
#
# Convention : Reuss Voigt Hill
#
# Bulk Modulus (GPa) = 36.15937 39.10603 37.63270
# Shear Modulus (GPa) = 27.30492 29.06712 28.18602
#
# Velocity S-wave (km/s) = 3.55931 3.67237 3.61629
# Velocity P-wave (km/s) = 5.80246 6.01048 5.90739
#
# Compressibility (1/GPa) = 0.02765535
#
# Stress axis : x y z
#
# Youngs Moduli (GPa) = 94.10068 94.10068 55.44375
#
# Poissons Ratio (x) = 0.18180 0.10771
# Poissons Ratio (y) = 0.18180 0.10771
# Poissons Ratio (z) = 0.18281 0.18281
#
# Static dielectric constant tensor:
#      x y z
#    x 1.811760 0.000000 0.000000 
#    y 0.000000 1.811760 0.000000 
#    z 0.000000 0.000000 2.021660 
# 
# From -- ./inp_files/5206.got.cif
#   From: 2010.05.17/outbox.cif.g08.bks.cpg/sg87_3_cif.got.tgz:5206.got - 2010.06.03 19:07:00.
