data_PCOD9545316
_publ_section_title
;
Structure prediction by ZEFSAII (Michael W. Deem and Ramdas Pophale) SiO2 
 PCOD9545316
Probable space group: P 42/N
;
_chemical_formula_sum "Si O2"
_cell_formula_units_Z 36
_cell_length_a 9.055652
_cell_length_b 9.055652
_cell_length_c 20.343665
_cell_angle_alpha 90.000000
_cell_angle_beta 90.000000
_cell_angle_gamma 90.000000
_cell_volume 1668.278854
_symmetry_space_group_name_H-M "P 42/N"
_symmetry_group_IT_number 86
_space_group.IT_coordinate_system_code '2'
_symmetry_cell_setting 'tetragonal'
loop_
_space_group_symop_operation_xyz
x,y,z
-y,1/2+x,1/2+z
1/2-x,1/2-y,z
1/2+y,-x,1/2+z
-x,-y,-z
y,1/2-x,1/2-z
1/2+x,1/2+y,-z
1/2-y,x,1/2-z
loop_
_atom_site_type_symbol
_atom_site_label
_atom_site_fract_x
_atom_site_fract_y
_atom_site_fract_z
Si Si1 0.758924 0.088484 0.671015
Si Si2 0.024560 0.897869 0.695748
Si Si3 0.250000 0.250000 0.510405
Si Si4 0.921293 0.647397 0.606452
Si Si5 0.257141 0.925049 0.578646
O O1 0.750000 0.250000 0.642239
O O2 0.919128 0.039200 0.696064
O O3 0.648714 0.081513 0.733219
O O4 0.706054 0.970089 0.618379
O O5 0.930478 0.759444 0.667383
O O6 0.151389 0.917052 0.641875
O O7 0.111360 0.269616 0.461228
O O8 0.270649 0.412950 0.544578
O O9 0.074458 0.564364 0.601164
O O10 0.250000 0.750000 0.550479
#
# Coordination Sequence:
#
# PCOD9545316 Si02
#       5
#     8   8   4   8   8
#     4  12  24  40  72 101 134 177 234 288 366 425
#     4  11  23  45  68  98 135 180 225 301 352 426
#     4  12  24  44  73  99 142 196 230 292 356 430
#     4  11  23  45  67  99 136 183 231 286 354 421
#     4  10  26  45  67  97 143 179 239 291 351 424
#
# _framework density 21.579128999999998
#
# number of rings (size 3 to 8) (size 9 to 14) (size 15 to 20)
#    0.000    0.889    4.444    2.667    3.111    4.444 
#    0.000    0.000    0.000    0.000    0.000    0.000 
#    0.000    0.000    0.000    0.000    0.000    0.000 
#
# Total GULP energy -200680.706302 kJ/mol
# GULP energy per Si atom -5574.464064 kJ/mol
# Density = 2.153001 g / cm^3
# Si number density = 21.579129 Si / 1000 Ang^3
#
#
#
# Elastic Constant Matrix: (Units=GPa)
#
#
# Indices 1 2 3 4 5 6 
#
# 1 103.3607 29.0535 24.6625 0.0000 0.0000 7.0149
# 2 29.0535 103.3607 24.6625 0.0000 0.0000 -7.0149
# 3 24.6625 24.6625 54.5529 0.0000 0.0000 0.0000
# 4 0.0000 0.0000 0.0000 -4.7521 0.0000 0.0000
# 5 0.0000 0.0000 0.0000 0.0000 -4.7521 0.0000
# 6 7.0149 -7.0149 0.0000 0.0000 0.0000 18.0951
#
#
#
# Elastic Compliance Matrix: (Units=1/GPa)
#
#
# Indices 1 2 3 4 5 6 
#
# 1 0.011801 -0.002720 -0.004106 0.000000 0.000000 -0.005629
# 2 -0.002720 0.011801 -0.004106 0.000000 0.000000 0.005629
# 3 -0.004106 -0.004106 0.022043 0.000000 0.000000 0.000000
# 4 0.000000 0.000000 0.000000 -0.210432 0.000000 0.000000
# 5 0.000000 0.000000 0.000000 0.000000 -0.210432 0.000000
# 6 -0.005629 0.005629 0.000000 0.000000 0.000000 0.059628
#
#
# Mechanical properties :
#
#
# Convention : Reuss Voigt Hill
#
# Bulk Modulus (GPa) = 42.04593 46.44795 44.24694
# Shear Modulus (GPa) = -17.49464 13.91121 -1.79171
#
# Velocity S-wave (km/s) = -2.85040 2.54177 -0.91220
# Velocity P-wave (km/s) = 2.94852 5.49412 4.40903
#
# Compressibility (1/GPa) = 0.02378351
#
# Stress axis : x y z
#
# Youngs Moduli (GPa) = 84.73902 84.73902 45.36595
#
# Poissons Ratio (x) = 0.23045 0.18625
# Poissons Ratio (y) = 0.23045 0.18625
# Poissons Ratio (z) = 0.34790 0.34790
#
# Static dielectric constant tensor:
#      x y z
#    x 1.829390 0.000000 0.000000 
#    y 0.000000 1.829390 0.000000 
#    z 0.000000 0.000000 1.762940 
# 
# From -- ./inp_files/4012.got.cif
#   From: 2010.05.17/outbox.cif.g08.bks.cpg/sg86_3_cif.got.tgz:4012.got - 2010.06.03 19:03:11.
