data_PCOD9545966
_publ_section_title
;
Structure prediction by ZEFSAII (Michael W. Deem and Ramdas Pophale) SiO2 
 PCOD9545966
Probable space group: I 4/M
;
_chemical_formula_sum "Si O2"
_cell_formula_units_Z 88
_cell_length_a 15.093053
_cell_length_b 15.093053
_cell_length_c 20.355416
_cell_angle_alpha 90.000000
_cell_angle_beta 90.000000
_cell_angle_gamma 90.000000
_cell_volume 4636.968830
_symmetry_space_group_name_H-M "I 4/M"
_symmetry_group_IT_number 87
_symmetry_cell_setting 'tetragonal'
loop_
_space_group_symop_operation_xyz
x,y,z
-y,x,z
-x,-y,z
y,-x,z
-x,-y,-z
y,-x,-z
x,y,-z
-y,x,-z
1/2+x,1/2+y,1/2+z
1/2-y,1/2+x,1/2+z
1/2-x,1/2-y,1/2+z
1/2+y,1/2-x,1/2+z
1/2-x,1/2-y,1/2-z
1/2+y,1/2-x,1/2-z
1/2+x,1/2+y,1/2-z
1/2-y,1/2+x,1/2-z
loop_
_atom_site_type_symbol
_atom_site_label
_atom_site_fract_x
_atom_site_fract_y
_atom_site_fract_z
Si Si1 0.247586 0.624687 0.382243
Si Si2 0.484713 0.268468 0.124757
Si Si3 0.376781 0.583336 0.500000
Si Si4 0.196382 0.175312 0.575104
Si Si5 0.542237 0.643620 0.734260
Si Si6 0.910302 0.552884 0.076945
O O1 0.323834 0.614848 0.436391
O O2 0.220835 0.728821 0.379271
O O3 0.284559 0.577204 0.317659
O O4 0.156687 0.580004 0.407296
O O5 0.398053 0.279132 0.080754
O O6 0.572794 0.314589 0.095856
O O7 0.458725 0.311757 0.194023
O O8 0.513362 0.166050 0.123291
O O9 0.381689 0.476794 0.500000
O O10 0.229038 0.179895 0.500000
O O11 0.442256 0.605934 0.726117
O O12 0.000000 0.500000 0.086318
O O13 0.883750 0.543495 0.000000
#
# Coordination Sequence:
#
# PCOD9545966 Si02
#       6
#    16  16   8  16  16  16
#     4  11  22  42  63  91 131 168 217 269 319 393
#     4  11  22  41  64  95 132 167 217 269 323 395
#     4  11  22  38  63  96 124 161 221 276 326 376
#     4  11  22  41  67  99 130 169 217 275 330 386
#     4  11  24  44  64  91 132 175 215 265 334 392
#     4  10  22  44  66  92 130 170 213 270 328 385
#
# _framework density 18.977914999999999
#
# number of rings (size 3 to 8) (size 9 to 14) (size 15 to 20)
#    0.000    1.182    3.636    3.818    0.000    5.455 
#    6.545    0.909    0.000    0.000    0.000    0.000 
#    0.000    0.000    0.000    0.000    0.000    0.000 
#
# Total GULP energy -245613.594336 kJ/mol
# GULP energy per Si atom -5582.127144 kJ/mol
# Density = 1.893472 g / cm^3
# Si number density = 18.977915 Si / 1000 Ang^3
#
#
#
# Elastic Constant Matrix: (Units=GPa)
#
#
# Indices 1 2 3 4 5 6 
#
# 1 91.1203 45.9317 25.0208 0.0000 0.0000 -15.7103
# 2 45.9317 91.1203 25.0208 0.0000 0.0000 15.7103
# 3 25.0208 25.0208 78.2091 0.0000 0.0000 0.0000
# 4 0.0000 0.0000 0.0000 31.1751 0.0000 0.0000
# 5 0.0000 0.0000 0.0000 0.0000 31.1751 0.0000
# 6 -15.7103 15.7103 0.0000 0.0000 0.0000 31.1629
#
#
#
# Elastic Compliance Matrix: (Units=1/GPa)
#
#
# Indices 1 2 3 4 5 6 
#
# 1 0.021167 -0.012906 -0.002643 0.000000 0.000000 0.017178
# 2 -0.012906 0.021167 -0.002643 0.000000 0.000000 -0.017178
# 3 -0.002643 -0.002643 0.014477 0.000000 0.000000 0.000000
# 4 0.000000 0.000000 0.000000 0.032077 0.000000 0.000000
# 5 0.000000 0.000000 0.000000 0.000000 0.032077 0.000000
# 6 0.017178 -0.017178 0.000000 0.000000 0.000000 0.049409
#
#
# Mechanical properties :
#
#
# Convention : Reuss Voigt Hill
#
# Bulk Modulus (GPa) = 48.95176 50.26627 49.60902
# Shear Modulus (GPa) = 23.41170 29.66771 26.53970
#
# Velocity S-wave (km/s) = 3.51612 3.95812 3.74365
# Velocity P-wave (km/s) = 6.50647 6.88717 6.69953
#
# Compressibility (1/GPa) = 0.02042827
#
# Stress axis : x y z
#
# Youngs Moduli (GPa) = 47.24238 47.24238 69.07326
#
# Poissons Ratio (x) = 0.60970 0.18256
# Poissons Ratio (y) = 0.60970 0.18256
# Poissons Ratio (z) = 0.12486 0.12486
#
# Static dielectric constant tensor:
#      x y z
#    x 1.652660 0.000000 0.000000 
#    y 0.000000 1.652660 0.000000 
#    z 0.000000 0.000000 1.669040 
# 
# From -- ./inp_files/5181.got.cif
#   From: 2010.05.17/outbox.cif.g08.bks.cpg/sg87_3_cif.got.tgz:5181.got - 2010.06.03 19:07:00.
