data_PCOD9545024
_publ_section_title
;
Structure prediction by ZEFSAII (Michael W. Deem and Ramdas Pophale) SiO2 
 PCOD9545024
Probable space group: P 42/N
;
_chemical_formula_sum "Si O2"
_cell_formula_units_Z 46
_cell_length_a 11.766648
_cell_length_b 11.766648
_cell_length_c 14.752513
_cell_angle_alpha 90.000000
_cell_angle_beta 90.000000
_cell_angle_gamma 90.000000
_cell_volume 2042.544511
_symmetry_space_group_name_H-M "P 42/N"
_symmetry_group_IT_number 86
_space_group.IT_coordinate_system_code '2'
_symmetry_cell_setting 'tetragonal'
loop_
_space_group_symop_operation_xyz
x,y,z
-y,1/2+x,1/2+z
1/2-x,1/2-y,z
1/2+y,-x,1/2+z
-x,-y,-z
y,1/2-x,1/2-z
1/2+x,1/2+y,-z
1/2-y,x,1/2-z
loop_
_atom_site_type_symbol
_atom_site_label
_atom_site_fract_x
_atom_site_fract_y
_atom_site_fract_z
Si Si1 0.250000 0.750000 0.410877
Si Si2 0.035828 0.715406 0.288353
Si Si3 0.993145 0.332242 0.063928
Si Si4 0.119675 0.207005 0.549501
Si Si5 0.953705 0.474902 0.248839
Si Si6 0.862083 0.893384 0.890350
Si Si7 0.250000 0.250000 0.250000
O O1 0.150867 0.699659 0.345822
O O2 0.302519 0.638469 0.460726
O O3 0.942759 0.766146 0.357986
O O4 0.988870 0.605817 0.238836
O O5 0.050997 0.823823 0.225407
O O6 0.984076 0.404716 0.157586
O O7 0.078293 0.386872 0.989006
O O8 0.061851 0.216258 0.086283
O O9 0.250000 0.250000 0.555251
O O10 0.064688 0.292314 0.475937
O O11 0.019975 0.438579 0.338204
O O12 0.768629 0.854524 0.816294
#
# Coordination Sequence:
#
# PCOD9545024 Si02
#       7
#     4   8   8   8   8   8   2
#     4  10  22  40  60  86 130 168 204 268 338 364
#     4  11  26  43  63  96 137 177 209 274 328 405
#     4  10  20  39  65  92 124 166 217 276 321 381
#     4  10  23  41  67  96 129 170 222 272 324 385
#     4  11  24  39  67  93 132 173 224 263 329 393
#     4  11  18  36  66  97 121 163 223 276 317 375
#     4  12  16  32  68 104 112 154 228 284 304 368
#
# _framework density 22.52093
#
# number of rings (size 3 to 8) (size 9 to 14) (size 15 to 20)
#    0.000    1.391    6.087    0.000    2.435    3.478 
#    0.000    1.739    0.000    1.043    0.000    0.000 
#    0.000    0.000    0.000    0.000    0.000    0.000 
#
# Total GULP energy -256927.490356 kJ/mol
# GULP energy per Si atom -5585.380225 kJ/mol
# Density = 2.246967 g / cm^3
# Si number density = 22.520930 Si / 1000 Ang^3
#
#
#
# Elastic Constant Matrix: (Units=GPa)
#
#
# Indices 1 2 3 4 5 6 
#
# 1 91.8327 32.1904 18.6106 0.0000 0.0000 5.1539
# 2 32.1904 91.8327 18.6106 0.0000 0.0000 -5.1539
# 3 18.6106 18.6106 45.5503 0.0000 0.0000 0.0000
# 4 0.0000 0.0000 0.0000 5.8741 0.0000 0.0000
# 5 0.0000 0.0000 0.0000 0.0000 5.8741 0.0000
# 6 5.1539 -5.1539 0.0000 0.0000 0.0000 22.6118
#
#
#
# Elastic Compliance Matrix: (Units=1/GPa)
#
#
# Indices 1 2 3 4 5 6 
#
# 1 0.013322 -0.004132 -0.003755 0.000000 0.000000 -0.003978
# 2 -0.004132 0.013322 -0.003755 0.000000 0.000000 0.003978
# 3 -0.003755 -0.003755 0.025022 0.000000 0.000000 0.000000
# 4 0.000000 0.000000 0.000000 0.170239 0.000000 0.000000
# 5 0.000000 0.000000 0.000000 0.000000 0.170239 0.000000
# 6 -0.003978 0.003978 0.000000 0.000000 0.000000 0.046038
#
#
# Mechanical properties :
#
#
# Convention : Reuss Voigt Hill
#
# Bulk Modulus (GPa) = 35.23269 40.89321 38.06295
# Shear Modulus (GPa) = 10.61737 17.52560 14.07148
#
# Velocity S-wave (km/s) = 2.17363 2.79264 2.50235
# Velocity P-wave (km/s) = 4.68807 5.34750 5.02860
#
# Compressibility (1/GPa) = 0.02838273
#
# Stress axis : x y z
#
# Youngs Moduli (GPa) = 75.06367 75.06367 39.96497
#
# Poissons Ratio (x) = 0.31017 0.15006
# Poissons Ratio (y) = 0.31017 0.15006
# Poissons Ratio (z) = 0.28184 0.28184
#
# Static dielectric constant tensor:
#      x y z
#    x 1.955130 0.000000 0.000000 
#    y 0.000000 1.955130 0.000000 
#    z 0.000000 0.000000 1.798720 
# 
# From -- ./inp_files/3632.got.cif
#   From: 2010.05.17/outbox.cif.g08.bks.cpg/sg86_2_cif.got.tgz:3632.got - 2010.06.03 19:03:11.
