data_PCOD9545451
_publ_section_title
;
Structure prediction by ZEFSAII (Michael W. Deem and Ramdas Pophale) SiO2 
 PCOD9545451
Probable space group: P 42/N
;
_chemical_formula_sum "Si O2"
_cell_formula_units_Z 48
_cell_length_a 8.773235
_cell_length_b 8.773235
_cell_length_c 28.159775
_cell_angle_alpha 90.000000
_cell_angle_beta 90.000000
_cell_angle_gamma 90.000000
_cell_volume 2167.448092
_symmetry_space_group_name_H-M "P 42/N"
_symmetry_group_IT_number 86
_space_group.IT_coordinate_system_code '2'
_symmetry_cell_setting 'tetragonal'
loop_
_space_group_symop_operation_xyz
x,y,z
-y,1/2+x,1/2+z
1/2-x,1/2-y,z
1/2+y,-x,1/2+z
-x,-y,-z
y,1/2-x,1/2-z
1/2+x,1/2+y,-z
1/2-y,x,1/2-z
loop_
_atom_site_type_symbol
_atom_site_label
_atom_site_fract_x
_atom_site_fract_y
_atom_site_fract_z
Si Si1 0.924249 0.032435 0.098858
Si Si2 0.077208 0.063112 0.195886
Si Si3 0.049175 0.075270 0.603345
Si Si4 0.212107 0.571393 0.548442
Si Si5 0.432465 0.432351 0.302424
Si Si6 0.927096 0.706365 0.947844
O O1 0.038826 0.964226 0.059082
O O2 0.749275 0.988663 0.090875
O O3 0.978602 0.002695 0.152444
O O4 0.959065 0.209843 0.089074
O O5 0.026900 0.018332 0.248910
O O6 0.255504 0.020805 0.189440
O O7 0.068682 0.248047 0.195435
O O8 0.001782 0.035829 0.656671
O O9 0.966493 0.956819 0.567492
O O10 0.221025 0.027921 0.592253
O O11 0.250000 0.750000 0.548566
O O12 0.262751 0.489997 0.500182
O O13 0.750000 0.750000 0.942241
#
# Coordination Sequence:
#
# PCOD9545451 Si02
#       6
#     8   8   8   8   8   8
#     4  12  24  41  64  95 131 170 216 275 332 399
#     4   9  18  36  63  91 120 163 216 267 318 385
#     4  12  24  41  64  95 131 170 216 275 332 399
#     4  12  26  44  64  92 130 176 220 272 335 400
#     4   9  18  36  63  91 120 163 216 267 318 385
#     4  12  24  42  68  96 130 172 222 270 327 396
#
# _framework density 22.145861
#
# number of rings (size 3 to 8) (size 9 to 14) (size 15 to 20)
#    0.000    1.000    1.667    8.000    0.000    0.000 
#    3.000    0.000    0.000    0.000    0.000    0.000 
#    0.000    0.000    0.000    0.000    0.000    0.000 
#
# Total GULP energy -268201.955942 kJ/mol
# GULP energy per Si atom -5587.540749 kJ/mol
# Density = 2.209546 g / cm^3
# Si number density = 22.145861 Si / 1000 Ang^3
#
#
#
# Elastic Constant Matrix: (Units=GPa)
#
#
# Indices 1 2 3 4 5 6 
#
# 1 82.4386 19.8463 24.2228 0.0000 0.0000 -1.3483
# 2 19.8463 82.4386 24.2228 0.0000 0.0000 1.3483
# 3 24.2228 24.2228 134.3576 0.0000 0.0000 0.0000
# 4 0.0000 0.0000 0.0000 34.9667 0.0000 0.0000
# 5 0.0000 0.0000 0.0000 0.0000 34.9667 0.0000
# 6 -1.3483 1.3483 0.0000 0.0000 0.0000 32.8314
#
#
#
# Elastic Compliance Matrix: (Units=1/GPa)
#
#
# Indices 1 2 3 4 5 6 
#
# 1 0.013347 -0.002658 -0.001927 0.000000 0.000000 0.000657
# 2 -0.002658 0.013347 -0.001927 0.000000 0.000000 -0.000657
# 3 -0.001927 -0.001927 0.008138 0.000000 0.000000 0.000000
# 4 0.000000 0.000000 0.000000 0.028599 0.000000 0.000000
# 5 0.000000 0.000000 0.000000 0.000000 0.028599 0.000000
# 6 0.000657 -0.000657 0.000000 0.000000 0.000000 0.030513
#
#
# Mechanical properties :
#
#
# Convention : Reuss Voigt Hill
#
# Bulk Modulus (GPa) = 45.85503 48.42431 47.13967
# Shear Modulus (GPa) = 35.00546 35.94917 35.47732
#
# Velocity S-wave (km/s) = 3.98009 4.03338 4.00682
# Velocity P-wave (km/s) = 6.47088 6.60336 6.53746
#
# Compressibility (1/GPa) = 0.02180786
#
# Stress axis : x y z
#
# Youngs Moduli (GPa) = 74.92295 74.92295 122.88487
#
# Poissons Ratio (x) = 0.19912 0.23682
# Poissons Ratio (y) = 0.19912 0.23682
# Poissons Ratio (z) = 0.14439 0.14439
#
# Static dielectric constant tensor:
#      x y z
#    x 1.778250 0.000000 0.000000 
#    y 0.000000 1.778250 0.000000 
#    z 0.000000 0.000000 1.789250 
# 
# From -- ./inp_files/5117.got.cif
#   From: 2010.05.17/outbox.cif.g08.bks.cpg/sg86_3_cif.got.tgz:5117.got - 2010.06.03 19:03:11.
