data_PCOD9545040
_publ_section_title
;
Structure prediction by ZEFSAII (Michael W. Deem and Ramdas Pophale) SiO2 
 PCOD9545040
Probable space group: P 42/N
;
_chemical_formula_sum "Si O2"
_cell_formula_units_Z 48
_cell_length_a 22.238789
_cell_length_b 22.238789
_cell_length_c 5.176762
_cell_angle_alpha 90.000000
_cell_angle_beta 90.000000
_cell_angle_gamma 90.000000
_cell_volume 2560.238756
_symmetry_space_group_name_H-M "P 42/N"
_symmetry_group_IT_number 86
_space_group.IT_coordinate_system_code '2'
_symmetry_cell_setting 'tetragonal'
loop_
_space_group_symop_operation_xyz
x,y,z
-y,1/2+x,1/2+z
1/2-x,1/2-y,z
1/2+y,-x,1/2+z
-x,-y,-z
y,1/2-x,1/2-z
1/2+x,1/2+y,-z
1/2-y,x,1/2-z
loop_
_atom_site_type_symbol
_atom_site_label
_atom_site_fract_x
_atom_site_fract_y
_atom_site_fract_z
Si Si1 0.697762 0.671155 0.717038
Si Si2 0.795116 0.527804 0.079094
Si Si3 0.905402 0.879161 0.082262
Si Si4 0.542336 0.782995 0.933916
Si Si5 0.905920 0.990010 0.395587
Si Si6 0.994182 0.092385 0.318171
O O1 0.680526 0.738634 0.632575
O O2 0.707614 0.614600 0.525598
O O3 0.644244 0.648997 0.900118
O O4 0.835900 0.584350 0.172852
O O5 0.755352 0.515501 0.330263
O O6 0.752909 0.537874 0.833601
O O7 0.848034 0.482994 0.987346
O O8 0.887634 0.945956 0.162997
O O9 0.969776 0.886046 0.936102
O O10 0.508550 0.846723 0.930094
O O11 0.935358 0.051316 0.295791
O O12 0.957311 0.951536 0.542635
#
# Coordination Sequence:
#
# PCOD9545040 Si02
#       6
#     8   8   8   8   8   8
#     4  11  22  38  56  79 119 167 224 257 292 343
#     4  11  23  40  64  78 120 155 199 246 319 349
#     4  11  20  40  63  81 120 159 210 263 316 352
#     4  12  23  42  58  87 117 162 200 260 301 355
#     4  10  23  35  63  90 118 153 208 256 309 378
#     4  10  20  41  60  91 114 162 199 257 312 378
#
# _framework density 18.748252000000001
#
# number of rings (size 3 to 8) (size 9 to 14) (size 15 to 20)
#    0.000    1.167    5.000    1.500    2.333    0.000 
#    0.000    0.000    3.667    0.000    0.000    0.000 
#    0.000    4.000    0.000    0.000    0.000    0.000 
#
# Total GULP energy -267834.244861 kJ/mol
# GULP energy per Si atom -5579.880101 kJ/mol
# Density = 1.870558 g / cm^3
# Si number density = 18.748252 Si / 1000 Ang^3
#
#
#
# Elastic Constant Matrix: (Units=GPa)
#
#
# Indices 1 2 3 4 5 6 
#
# 1 97.3996 62.2055 36.8099 0.0000 0.0000 -0.8797
# 2 62.2055 97.3996 36.8099 0.0000 0.0000 0.8797
# 3 36.8099 36.8099 95.9934 0.0000 0.0000 0.0000
# 4 0.0000 0.0000 0.0000 18.7927 0.0000 0.0000
# 5 0.0000 0.0000 0.0000 0.0000 18.7927 0.0000
# 6 -0.8797 0.8797 0.0000 0.0000 0.0000 31.9554
#
#
#
# Elastic Compliance Matrix: (Units=1/GPa)
#
#
# Indices 1 2 3 4 5 6 
#
# 1 0.018032 -0.010421 -0.002919 0.000000 0.000000 0.000783
# 2 -0.010421 0.018032 -0.002919 0.000000 0.000000 -0.000783
# 3 -0.002919 -0.002919 0.012656 0.000000 0.000000 0.000000
# 4 0.000000 0.000000 0.000000 0.053212 0.000000 0.000000
# 5 0.000000 0.000000 0.000000 0.000000 0.053212 0.000000
# 6 0.000783 -0.000783 0.000000 0.000000 0.000000 0.031337
#
#
# Mechanical properties :
#
#
# Convention : Reuss Voigt Hill
#
# Bulk Modulus (GPa) = 61.71253 62.49368 62.10311
# Shear Modulus (GPa) = 22.28166 24.23931 23.26049
#
# Velocity S-wave (km/s) = 3.45115 3.59957 3.52614
# Velocity P-wave (km/s) = 6.99060 7.11908 7.05513
#
# Compressibility (1/GPa) = 0.01620416
#
# Stress axis : x y z
#
# Youngs Moduli (GPa) = 55.45571 55.45571 79.01434
#
# Poissons Ratio (x) = 0.57788 0.23063
# Poissons Ratio (y) = 0.57788 0.23063
# Poissons Ratio (z) = 0.16187 0.16187
#
# Static dielectric constant tensor:
#      x y z
#    x 1.675850 0.000000 0.000000 
#    y 0.000000 1.675850 0.000000 
#    z 0.000000 0.000000 1.745110 
# 
# From -- ./inp_files/408.got.cif
#   From: 2010.05.17/outbox.cif.g08.bks.cpg/sg86_1_cif.got.tgz:408.got - 2010.06.03 19:03:11.
