data_PCOD9545420
_publ_section_title
;
Structure prediction by ZEFSAII (Michael W. Deem and Ramdas Pophale) SiO2 
 PCOD9545420
Probable space group: P 42/N
;
_chemical_formula_sum "Si O2"
_cell_formula_units_Z 38
_cell_length_a 9.113083
_cell_length_b 9.113083
_cell_length_c 20.282104
_cell_angle_alpha 90.000000
_cell_angle_beta 90.000000
_cell_angle_gamma 90.000000
_cell_volume 1684.393888
_symmetry_space_group_name_H-M "P 42/N"
_symmetry_group_IT_number 86
_space_group.IT_coordinate_system_code '2'
_symmetry_cell_setting 'tetragonal'
loop_
_space_group_symop_operation_xyz
x,y,z
-y,1/2+x,1/2+z
1/2-x,1/2-y,z
1/2+y,-x,1/2+z
-x,-y,-z
y,1/2-x,1/2-z
1/2+x,1/2+y,-z
1/2-y,x,1/2-z
loop_
_atom_site_type_symbol
_atom_site_label
_atom_site_fract_x
_atom_site_fract_y
_atom_site_fract_z
Si Si1 0.877307 0.035031 0.054084
Si Si2 0.009929 0.706644 0.848558
Si Si3 0.952758 0.379894 0.854901
Si Si4 0.750000 0.250000 0.746707
Si Si5 0.250000 0.750000 0.038712
Si Si6 0.750000 0.750000 0.750000
Si Si7 0.750000 0.750000 0.372087
O O1 0.940377 0.160896 0.103595
O O2 0.813962 0.888839 0.086921
O O3 0.754173 0.112915 0.010070
O O4 0.000000 0.000000 0.000000
O O5 0.146487 0.660845 0.802412
O O6 0.955563 0.550308 0.876852
O O7 0.886279 0.766535 0.799224
O O8 0.846016 0.353550 0.793347
O O9 0.886840 0.278232 0.913108
O O10 0.110841 0.317602 0.835431
#
# Coordination Sequence:
#
# PCOD9545420 Si02
#       7
#     8   8   8   4   4   2   4
#     4  12  28  46  75 109 149 191 251 302 369 447
#     4  12  27  48  73 108 146 196 245 310 371 438
#     4  11  26  45  77 104 148 191 245 301 370 442
#     4  11  25  48  70 108 145 189 246 308 376 445
#     4  11  25  50  70 106 151 193 236 304 362 437
#     4  12  28  46  84 104 142 196 256 294 364 444
#     4  12  26  45  73 114 137 193 234 302 370 428
#
# _framework density 22.560041999999999
#
# number of rings (size 3 to 8) (size 9 to 14) (size 15 to 20)
#    0.000    0.421    4.211    3.158    8.842    3.368 
#    0.000    1.053    0.000    0.000    0.000    0.000 
#    0.000    0.000    0.000    0.000    0.000    0.000 
#
# Total GULP energy -212261.391875 kJ/mol
# GULP energy per Si atom -5585.826102 kJ/mol
# Density = 2.250869 g / cm^3
# Si number density = 22.560042 Si / 1000 Ang^3
#
#
#
# Elastic Constant Matrix: (Units=GPa)
#
#
# Indices 1 2 3 4 5 6 
#
# 1 120.0740 26.0271 40.0779 0.0000 0.0000 -6.6485
# 2 26.0271 120.0740 40.0779 0.0000 0.0000 6.6485
# 3 40.0779 40.0779 76.0667 0.0000 0.0000 0.0000
# 4 0.0000 0.0000 0.0000 22.4158 0.0000 0.0000
# 5 0.0000 0.0000 0.0000 0.0000 22.4158 0.0000
# 6 -6.6485 6.6485 0.0000 0.0000 0.0000 35.1563
#
#
#
# Elastic Compliance Matrix: (Units=1/GPa)
#
#
# Indices 1 2 3 4 5 6 
#
# 1 0.010276 -0.000649 -0.005073 0.000000 0.000000 0.002066
# 2 -0.000649 0.010276 -0.005073 0.000000 0.000000 -0.002066
# 3 -0.005073 -0.005073 0.018492 0.000000 0.000000 0.000000
# 4 0.000000 0.000000 0.000000 0.044611 0.000000 0.000000
# 5 0.000000 0.000000 0.000000 0.000000 0.044611 0.000000
# 6 0.002066 -0.002066 0.000000 0.000000 0.000000 0.029226
#
#
# Mechanical properties :
#
#
# Convention : Reuss Voigt Hill
#
# Bulk Modulus (GPa) = 57.28525 58.73114 58.00820
# Shear Modulus (GPa) = 27.04173 29.99970 28.52072
#
# Velocity S-wave (km/s) = 3.46592 3.65056 3.55944
# Velocity P-wave (km/s) = 6.43927 6.62258 6.53157
#
# Compressibility (1/GPa) = 0.01745650
#
# Stress axis : x y z
#
# Youngs Moduli (GPa) = 97.31109 97.31109 54.07864
#
# Poissons Ratio (x) = 0.06313 0.27432
# Poissons Ratio (y) = 0.06313 0.27432
# Poissons Ratio (z) = 0.49361 0.49361
#
# Static dielectric constant tensor:
#      x y z
#    x 1.900530 0.000000 0.000000 
#    y 0.000000 1.900530 0.000000 
#    z 0.000000 0.000000 1.778550 
# 
# From -- ./inp_files/4580.got.cif
#   From: 2010.05.17/outbox.cif.g08.bks.cpg/sg86_3_cif.got.tgz:4580.got - 2010.06.03 19:03:11.
