data_PCOD9545257
_publ_section_title
;
Structure prediction by ZEFSAII (Michael W. Deem and Ramdas Pophale) SiO2 
 PCOD9545257
Probable space group: P 42/N
;
_chemical_formula_sum "Si O2"
_cell_formula_units_Z 32
_cell_length_a 8.095009
_cell_length_b 8.095009
_cell_length_c 21.551756
_cell_angle_alpha 90.000000
_cell_angle_beta 90.000000
_cell_angle_gamma 90.000000
_cell_volume 1412.268698
_symmetry_space_group_name_H-M "P 42/N"
_symmetry_group_IT_number 86
_space_group.IT_coordinate_system_code '2'
_symmetry_cell_setting 'tetragonal'
loop_
_space_group_symop_operation_xyz
x,y,z
-y,1/2+x,1/2+z
1/2-x,1/2-y,z
1/2+y,-x,1/2+z
-x,-y,-z
y,1/2-x,1/2-z
1/2+x,1/2+y,-z
1/2-y,x,1/2-z
loop_
_atom_site_type_symbol
_atom_site_label
_atom_site_fract_x
_atom_site_fract_y
_atom_site_fract_z
Si Si1 0.481853 0.678976 0.249470
Si Si2 0.934682 0.372714 0.118697
Si Si3 0.227319 0.918759 0.615939
Si Si4 0.909623 0.026771 0.065058
O O1 0.557794 0.861534 0.258268
O O2 0.378871 0.625305 0.309464
O O3 0.395476 0.689208 0.183582
O O4 0.991086 0.188994 0.099099
O O5 0.782124 0.425582 0.073823
O O6 0.050980 0.532569 0.115974
O O7 0.250000 0.750000 0.578379
O O8 0.343480 0.066000 0.593009
O O9 0.000000 0.000000 0.000000
#
# Coordination Sequence:
#
# PCOD9545257 Si02
#       4
#     8   8   8   8
#     4   9  17  36  69 101 132 171 220 278 352 426
#     4  10  23  44  70  96 133 180 227 294 343 410
#     4  11  24  40  66 105 135 174 222 282 355 425
#     4  11  25  44  67  95 133 187 239 278 340 413
#
# _framework density 22.658577999999999
#
# number of rings (size 3 to 8) (size 9 to 14) (size 15 to 20)
#    0.000    1.750    2.500    0.750    7.000    2.000 
#    4.500    0.000    0.000    3.000    0.000    0.000 
#    0.000    0.000    0.000    0.000    0.000    0.000 
#
# Total GULP energy -178179.410537 kJ/mol
# GULP energy per Si atom -5568.106579 kJ/mol
# Density = 2.260701 g / cm^3
# Si number density = 22.658578 Si / 1000 Ang^3
#
#
#
# Elastic Constant Matrix: (Units=GPa)
#
#
# Indices 1 2 3 4 5 6 
#
# 1 91.1190 4.1184 1.4718 0.0000 0.0000 -2.5811
# 2 4.1184 91.1190 1.4718 0.0000 0.0000 2.5811
# 3 1.4718 1.4718 101.3163 0.0000 0.0000 0.0000
# 4 0.0000 0.0000 0.0000 23.3599 0.0000 0.0000
# 5 0.0000 0.0000 0.0000 0.0000 23.3599 0.0000
# 6 -2.5811 2.5811 0.0000 0.0000 0.0000 23.9187
#
#
#
# Elastic Compliance Matrix: (Units=1/GPa)
#
#
# Indices 1 2 3 4 5 6 
#
# 1 0.011037 -0.000532 -0.000153 0.000000 0.000000 0.001248
# 2 -0.000532 0.011037 -0.000153 0.000000 0.000000 -0.001248
# 3 -0.000153 -0.000153 0.009875 0.000000 0.000000 0.000000
# 4 0.000000 0.000000 0.000000 0.042808 0.000000 0.000000
# 5 0.000000 0.000000 0.000000 0.000000 0.042808 0.000000
# 6 0.001248 -0.001248 0.000000 0.000000 0.000000 0.042078
#
#
# Mechanical properties :
#
#
# Convention : Reuss Voigt Hill
#
# Bulk Modulus (GPa) = 33.03198 33.07537 33.05367
# Shear Modulus (GPa) = 29.17029 32.56051 30.86540
#
# Velocity S-wave (km/s) = 3.59191 3.79490 3.69480
# Velocity P-wave (km/s) = 5.64023 5.81641 5.72900
#
# Compressibility (1/GPa) = 0.03027370
#
# Stress axis : x y z
#
# Youngs Moduli (GPa) = 90.60824 90.60824 101.27080
#
# Poissons Ratio (x) = 0.04818 0.01545
# Poissons Ratio (y) = 0.04818 0.01545
# Poissons Ratio (z) = 0.01383 0.01383
#
# Static dielectric constant tensor:
#      x y z
#    x 1.848560 0.000000 0.000000 
#    y 0.000000 1.848560 0.000000 
#    z 0.000000 0.000000 1.931630 
# 
# From -- ./inp_files/3843.got.cif
#   From: 2010.05.17/outbox.cif.g08.bks.cpg/sg86_2_cif.got.tgz:3843.got - 2010.06.03 19:03:11.
