data_PCOD9545633
_publ_section_title
;
Structure prediction by ZEFSAII (Michael W. Deem and Ramdas Pophale) SiO2 
 PCOD9545633
Probable space group: I 4/M
;
_chemical_formula_sum "Si O2"
_cell_formula_units_Z 104
_cell_length_a 17.208172
_cell_length_b 17.208172
_cell_length_c 17.789053
_cell_angle_alpha 90.000000
_cell_angle_beta 90.000000
_cell_angle_gamma 90.000000
_cell_volume 5267.715429
_symmetry_space_group_name_H-M "I 4/M"
_symmetry_group_IT_number 87
_symmetry_cell_setting 'tetragonal'
loop_
_space_group_symop_operation_xyz
x,y,z
-y,x,z
-x,-y,z
y,-x,z
-x,-y,-z
y,-x,-z
x,y,-z
-y,x,-z
1/2+x,1/2+y,1/2+z
1/2-y,1/2+x,1/2+z
1/2-x,1/2-y,1/2+z
1/2+y,1/2-x,1/2+z
1/2-x,1/2-y,1/2-z
1/2+y,1/2-x,1/2-z
1/2+x,1/2+y,1/2-z
1/2-y,1/2+x,1/2-z
loop_
_atom_site_type_symbol
_atom_site_label
_atom_site_fract_x
_atom_site_fract_y
_atom_site_fract_z
Si Si1 0.562037 0.385598 0.000000
Si Si2 0.745800 0.793228 0.915444
Si Si3 0.123107 0.957300 0.766232
Si Si4 0.159398 0.856718 0.637671
Si Si5 0.866557 0.274627 0.759549
Si Si6 0.774682 0.389267 0.661962
Si Si7 0.001582 0.616644 0.226321
O O1 0.601871 0.470774 0.000000
O O2 0.593959 0.346566 0.074864
O O3 0.670415 0.738798 0.902058
O O4 0.744449 0.854368 0.846871
O O5 0.824171 0.741738 0.900909
O O6 0.746373 0.824088 0.000000
O O7 0.151156 0.938632 0.680838
O O8 0.194318 0.932866 0.819765
O O9 0.045382 0.905247 0.777493
O O10 0.147230 0.796683 0.705407
O O11 0.802051 0.337671 0.733798
O O12 0.950817 0.310236 0.743429
O O13 0.847011 0.449910 0.659184
O O14 0.071123 0.554158 0.215061
#
# Coordination Sequence:
#
# PCOD9545633 Si02
#       7
#     8  16  16  16  16  16  16
#     4  11  24  38  52  84 130 163 185 226 297 376
#     4  11  21  37  58  86 117 158 206 253 300 350
#     4  11  21  32  54  87 119 154 193 238 294 358
#     4  11  19  37  57  82 119 157 196 239 292 365
#     4  10  19  37  62  88 116 154 205 260 297 363
#     4  10  19  35  59  85 118 152 200 254 302 361
#     4   9  19  35  60  94 117 152 201 257 311 363
#
# _framework density 19.742903999999999
#
# number of rings (size 3 to 8) (size 9 to 14) (size 15 to 20)
#    0.000    1.615    3.846    2.769    0.000    1.231 
#    0.000    0.769    0.000    0.000    2.000    8.615 
#    0.000    0.000    0.000    0.000    0.000    0.000 
#
# Total GULP energy -289571.509150 kJ/mol
# GULP energy per Si atom -5568.682868 kJ/mol
# Density = 1.969797 g / cm^3
# Si number density = 19.742904 Si / 1000 Ang^3
#
#
#
# Elastic Constant Matrix: (Units=GPa)
#
#
# Indices 1 2 3 4 5 6 
#
# 1 62.3493 46.8586 16.0373 0.0000 0.0000 8.6101
# 2 46.8586 62.3493 16.0373 0.0000 0.0000 -8.6101
# 3 16.0373 16.0373 100.8883 0.0000 0.0000 0.0000
# 4 0.0000 0.0000 0.0000 13.3869 0.0000 0.0000
# 5 0.0000 0.0000 0.0000 0.0000 13.3869 0.0000
# 6 8.6101 -8.6101 0.0000 0.0000 0.0000 24.8441
#
#
#
# Elastic Compliance Matrix: (Units=1/GPa)
#
#
# Indices 1 2 3 4 5 6 
#
# 1 0.057309 -0.047703 -0.001527 0.000000 0.000000 -0.036394
# 2 -0.047703 0.057309 -0.001527 0.000000 0.000000 0.036394
# 3 -0.001527 -0.001527 0.010397 0.000000 0.000000 0.000000
# 4 0.000000 0.000000 0.000000 0.074700 0.000000 0.000000
# 5 0.000000 0.000000 0.000000 0.000000 0.074700 0.000000
# 6 -0.036394 0.036394 0.000000 0.000000 0.000000 0.065477
#
#
# Mechanical properties :
#
#
# Convention : Reuss Voigt Hill
#
# Bulk Modulus (GPa) = 42.55232 42.60595 42.57913
# Shear Modulus (GPa) = 11.12995 20.10050 15.61523
#
# Velocity S-wave (km/s) = 2.37691 3.19425 2.81540
# Velocity P-wave (km/s) = 5.39749 5.93562 5.67294
#
# Compressibility (1/GPa) = 0.02350048
#
# Stress axis : x y z
#
# Youngs Moduli (GPa) = 17.44939 17.44938 96.17807
#
# Poissons Ratio (x) = 0.83239 0.14685
# Poissons Ratio (y) = 0.83239 0.14685
# Poissons Ratio (z) = 0.02664 0.02664
#
# Static dielectric constant tensor:
#      x y z
#    x 1.795070 0.000000 0.000000 
#    y 0.000000 1.795070 0.000000 
#    z 0.000000 0.000000 1.661580 
# 
# From -- ./inp_files/4545.got.cif
#   From: 2010.05.17/outbox.cif.g08.bks.cpg/sg87_3_cif.got.tgz:4545.got - 2010.06.03 19:07:00.
