data_PCOD9545690
_publ_section_title
;
Structure prediction by ZEFSAII (Michael W. Deem and Ramdas Pophale) SiO2 
 PCOD9545690
Probable space group: I 4/M
;
_chemical_formula_sum "Si O2"
_cell_formula_units_Z 64
_cell_length_a 18.252990
_cell_length_b 18.252990
_cell_length_c 7.998063
_cell_angle_alpha 90.000000
_cell_angle_beta 90.000000
_cell_angle_gamma 90.000000
_cell_volume 2664.727798
_symmetry_space_group_name_H-M "I 4/M"
_symmetry_group_IT_number 87
_symmetry_cell_setting 'tetragonal'
loop_
_space_group_symop_operation_xyz
x,y,z
-y,x,z
-x,-y,z
y,-x,z
-x,-y,-z
y,-x,-z
x,y,-z
-y,x,-z
1/2+x,1/2+y,1/2+z
1/2-y,1/2+x,1/2+z
1/2-x,1/2-y,1/2+z
1/2+y,1/2-x,1/2+z
1/2-x,1/2-y,1/2-z
1/2+y,1/2-x,1/2-z
1/2+x,1/2+y,1/2-z
1/2-y,1/2+x,1/2-z
loop_
_atom_site_type_symbol
_atom_site_label
_atom_site_fract_x
_atom_site_fract_y
_atom_site_fract_z
Si Si1 0.891386 0.481021 0.183843
Si Si2 0.032491 0.887231 0.203631
Si Si3 0.130259 0.280544 0.807223
Si Si4 0.357988 0.727003 0.296576
O O1 0.919114 0.544717 0.305525
O O2 0.816153 0.439660 0.220776
O O3 0.890699 0.513997 0.000000
O O4 0.065724 0.809861 0.253358
O O5 0.952280 0.912330 0.256882
O O6 0.031975 0.887383 0.000000
O O7 0.196732 0.338341 0.786960
O O8 0.168487 0.205553 0.747927
O O9 0.110838 0.269080 0.000000
O O10 0.354735 0.735786 0.500000
#
# Coordination Sequence:
#
# PCOD9545690 Si02
#       4
#    16  16  16  16
#     4  11  22  38  58  80 107 138 174 217 266 320
#     4   8  14  26  46  73 101 127 162 210 259 306
#     4  10  20  34  51  75 106 139 177 220 263 309
#     4   9  18  32  51  75 104 140 179 218 261 311
#
# _framework density 24.017462999999999
#
# number of rings (size 3 to 8) (size 9 to 14) (size 15 to 20)
#    0.000    2.500    0.000    4.500    0.000    3.000 
#    0.000    5.000    0.000    1.500    0.000    1.750 
#    0.000    0.000    0.000    0.000    0.000    0.000 
#
# Total GULP energy -178839.618711 kJ/mol
# GULP energy per Si atom -5588.738085 kJ/mol
# Density = 2.396280 g / cm^3
# Si number density = 24.017463 Si / 1000 Ang^3
#
#
#
# Elastic Constant Matrix: (Units=GPa)
#
#
# Indices 1 2 3 4 5 6 
#
# 1 33.8394 68.0829 -1.2652 0.0000 0.0000 3.6108
# 2 68.0829 33.8394 -1.2652 0.0000 0.0000 -3.6108
# 3 -1.2652 -1.2652 37.6391 0.0000 0.0000 0.0000
# 4 0.0000 0.0000 0.0000 15.5218 0.0000 0.0000
# 5 0.0000 0.0000 0.0000 0.0000 15.5218 0.0000
# 6 3.6108 -3.6108 0.0000 0.0000 0.0000 59.4267
#
#
#
# Elastic Compliance Matrix: (Units=1/GPa)
#
#
# Indices 1 2 3 4 5 6 
#
# 1 -0.009507 0.019326 0.000330 0.000000 0.000000 0.001752
# 2 0.019326 -0.009507 0.000330 0.000000 0.000000 -0.001752
# 3 0.000330 0.000330 0.026590 0.000000 0.000000 0.000000
# 4 0.000000 0.000000 0.000000 0.064426 0.000000 0.000000
# 5 0.000000 0.000000 0.000000 0.000000 0.064426 0.000000
# 6 0.001752 -0.001752 0.000000 0.000000 0.000000 0.016615
#
#
# Mechanical properties :
#
#
# Convention : Reuss Voigt Hill
#
# Bulk Modulus (GPa) = 21.03057 26.26921 23.64989
# Shear Modulus (GPa) = 38.78394 20.74509 29.76451
#
# Velocity S-wave (km/s) = 4.02284 2.94215 3.52417
# Velocity P-wave (km/s) = 5.50936 4.74373 5.14082
#
# Compressibility (1/GPa) = 0.04754982
#
# Stress axis : x y z
#
# Youngs Moduli (GPa) = -105.18800 -105.18800 37.60766
#
# Poissons Ratio (x) = 2.03290 -0.01241
# Poissons Ratio (y) = 2.03290 -0.01241
# Poissons Ratio (z) = 0.03472 0.03472
#
# Static dielectric constant tensor:
#      x y z
#    x 1.928120 0.000000 0.000000 
#    y 0.000000 1.928120 0.000000 
#    z 0.000000 0.000000 1.854700 
# 
# From -- ./inp_files/954.got.cif
#   From: 2010.05.17/outbox.cif.g08.bks.cpg/sg87_1_cif.got.tgz:954.got - 2010.06.03 19:07:00.
