data_PCOD9545879
_publ_section_title
;
Structure prediction by ZEFSAII (Michael W. Deem and Ramdas Pophale) SiO2 
 PCOD9545879
Probable space group: I 4/M
;
_chemical_formula_sum "Si O2"
_cell_formula_units_Z 120
_cell_length_a 27.569827
_cell_length_b 27.569827
_cell_length_c 7.485461
_cell_angle_alpha 90.000000
_cell_angle_beta 90.000000
_cell_angle_gamma 90.000000
_cell_volume 5689.664180
_symmetry_space_group_name_H-M "I 4/M"
_symmetry_group_IT_number 87
_symmetry_cell_setting 'tetragonal'
loop_
_space_group_symop_operation_xyz
x,y,z
-y,x,z
-x,-y,z
y,-x,z
-x,-y,-z
y,-x,-z
x,y,-z
-y,x,-z
1/2+x,1/2+y,1/2+z
1/2-y,1/2+x,1/2+z
1/2-x,1/2-y,1/2+z
1/2+y,1/2-x,1/2+z
1/2-x,1/2-y,1/2-z
1/2+y,1/2-x,1/2-z
1/2+x,1/2+y,1/2-z
1/2-y,1/2+x,1/2-z
loop_
_atom_site_type_symbol
_atom_site_label
_atom_site_fract_x
_atom_site_fract_y
_atom_site_fract_z
Si Si1 0.940678 0.368780 0.286430
Si Si2 0.656668 0.508164 0.786281
Si Si3 0.449588 0.134620 0.785274
Si Si4 0.823420 0.102822 0.718186
Si Si5 0.641194 0.205618 0.785143
Si Si6 0.422032 0.481124 0.500000
Si Si7 0.190917 0.109804 0.283394
Si Si8 0.374775 0.215829 0.787314
O O1 0.943217 0.362455 0.500000
O O2 0.914498 0.420052 0.253054
O O3 0.903502 0.327691 0.218080
O O4 0.995435 0.365521 0.217232
O O5 0.669889 0.453487 0.730414
O O6 0.609427 0.523374 0.677688
O O7 0.693198 0.552323 0.743069
O O8 0.649297 0.508151 0.000000
O O9 0.416175 0.179018 0.717036
O O10 0.451631 0.139239 0.000000
O O11 0.824581 0.103059 0.500000
O O12 0.864121 0.141379 0.778305
O O13 0.770438 0.120360 0.779293
O O14 0.636321 0.260497 0.719802
O O15 0.690148 0.176696 0.742985
O O16 0.637596 0.207099 0.000000
O O17 0.465344 0.443842 0.500000
O O18 0.190040 0.113068 0.500000
O O19 0.381970 0.218585 0.000000
#
# Coordination Sequence:
#
# PCOD9545879 Si02
#       8
#    16  16  16  16  16   8  16  16
#     4   9  18  31  48  69  95 131 171 212 261 316
#     4  10  21  39  63  88 118 156 197 245 299 353
#     4   9  18  31  48  69  95 131 171 212 261 316
#     4   9  18  33  56  83 109 142 184 229 276 335
#     4   9  18  33  52  75 107 141 179 223 274 332
#     4  11  24  40  60  88 124 160 196 246 299 354
#     4   9  18  33  56  83 109 142 184 229 276 335
#     4   9  18  33  52  75 107 141 179 223 274 332
#
# _framework density 21.090875
#
# number of rings (size 3 to 8) (size 9 to 14) (size 15 to 20)
#    0.000    2.733    0.000    0.800    1.867    2.933 
#    2.400    2.000    0.000    0.000    0.000    0.000 
#    0.000    0.000    0.000    0.000    0.000    0.000 
#
# Total GULP energy -334766.975703 kJ/mol
# GULP energy per Si atom -5579.449595 kJ/mol
# Density = 2.104287 g / cm^3
# Si number density = 21.090875 Si / 1000 Ang^3
#
#
#
# Elastic Constant Matrix: (Units=GPa)
#
#
# Indices 1 2 3 4 5 6 
#
# 1 130.4026 49.7931 3.8230 0.0000 0.0000 -5.0275
# 2 49.7931 130.4026 3.8230 0.0000 0.0000 5.0275
# 3 3.8230 3.8230 55.5229 0.0000 0.0000 0.0000
# 4 0.0000 0.0000 0.0000 14.4879 0.0000 0.0000
# 5 0.0000 0.0000 0.0000 0.0000 14.4879 0.0000
# 6 -5.0275 5.0275 0.0000 0.0000 0.0000 43.7719
#
#
#
# Elastic Compliance Matrix: (Units=1/GPa)
#
#
# Indices 1 2 3 4 5 6 
#
# 1 0.009076 -0.003510 -0.000383 0.000000 0.000000 0.001446
# 2 -0.003510 0.009076 -0.000383 0.000000 0.000000 -0.001446
# 3 -0.000383 -0.000383 0.018063 0.000000 0.000000 0.000000
# 4 0.000000 0.000000 0.000000 0.069023 0.000000 0.000000
# 5 0.000000 0.000000 0.000000 0.000000 0.069023 0.000000
# 6 0.001446 -0.001446 0.000000 0.000000 0.000000 0.023178
#
#
# Mechanical properties :
#
#
# Convention : Reuss Voigt Hill
#
# Bulk Modulus (GPa) = 36.15066 47.91181 42.03123
# Shear Modulus (GPa) = 23.23287 31.80882 27.52085
#
# Velocity S-wave (km/s) = 3.32258 3.88774 3.61622
# Velocity P-wave (km/s) = 5.64774 6.55125 6.11620
#
# Compressibility (1/GPa) = 0.02766202
#
# Stress axis : x y z
#
# Youngs Moduli (GPa) = 110.18327 110.18327 55.36069
#
# Poissons Ratio (x) = 0.38674 0.02122
# Poissons Ratio (y) = 0.38674 0.02122
# Poissons Ratio (z) = 0.04223 0.04223
#
# Static dielectric constant tensor:
#      x y z
#    x 1.742000 0.000000 0.000000 
#    y 0.000000 1.742000 0.000000 
#    z 0.000000 0.000000 1.859560 
# 
# From -- ./inp_files/1721.got.cif
#   From: 2010.05.17/outbox.cif.g08.bks.cpg/sg87_1_cif.got.tgz:1721.got - 2010.06.03 19:07:00.
