data_PCOD9545371
_publ_section_title
;
Structure prediction by ZEFSAII (Michael W. Deem and Ramdas Pophale) SiO2 
 PCOD9545371
Probable space group: P 42/N
;
_chemical_formula_sum "Si O2"
_cell_formula_units_Z 22
_cell_length_a 5.352395
_cell_length_b 5.352395
_cell_length_c 31.656441
_cell_angle_alpha 90.000000
_cell_angle_beta 90.000000
_cell_angle_gamma 90.000000
_cell_volume 906.897908
_symmetry_space_group_name_H-M "P 42/N"
_symmetry_group_IT_number 86
_space_group.IT_coordinate_system_code '2'
_symmetry_cell_setting 'tetragonal'
loop_
_space_group_symop_operation_xyz
x,y,z
-y,1/2+x,1/2+z
1/2-x,1/2-y,z
1/2+y,-x,1/2+z
-x,-y,-z
y,1/2-x,1/2-z
1/2+x,1/2+y,-z
1/2-y,x,1/2-z
loop_
_atom_site_type_symbol
_atom_site_label
_atom_site_fract_x
_atom_site_fract_y
_atom_site_fract_z
Si Si1 0.750000 0.750000 0.750000
Si Si2 0.001111 0.907817 0.048050
Si Si3 0.099907 0.990354 0.862559
Si Si4 0.750000 0.250000 0.295409
O O1 0.860996 0.481598 0.768233
O O2 0.750000 0.750000 0.049448
O O3 0.993272 0.079124 0.089932
O O4 0.250000 0.750000 0.053655
O O5 0.000000 0.000000 0.000000
O O6 0.250000 0.250000 0.866853
O O7 0.902339 0.073244 0.828040
O O8 0.250000 0.750000 0.847360
#
# Coordination Sequence:
#
# PCOD9545371 Si02
#       4
#     2   8   8   4
#     4  12  32  48  88 108 160 196 264 340 404 492
#     4  11  23  43  68 111 155 208 262 321 379 462
#     4  11  25  47  78 111 156 208 258 322 397 474
#     4  12  28  54  76 120 148 208 260 332 412 484
#
# _framework density 24.258521999999999
#
# number of rings (size 3 to 8) (size 9 to 14) (size 15 to 20)
#    0.000    0.727    1.818    4.364    7.636    2.909 
#    3.273    0.000    0.000    0.000    0.000    0.000 
#    0.000    0.000    0.000    0.000    0.000    0.000 
#
# Total GULP energy -122490.268456 kJ/mol
# GULP energy per Si atom -5567.739475 kJ/mol
# Density = 2.420331 g / cm^3
# Si number density = 24.258522 Si / 1000 Ang^3
#
#
#
# Elastic Constant Matrix: (Units=GPa)
#
#
# Indices 1 2 3 4 5 6 
#
# 1 144.0541 44.1542 19.2091 0.0000 0.0000 8.3206
# 2 44.1542 144.0541 19.2091 0.0000 0.0000 -8.3206
# 3 19.2091 19.2091 61.7538 0.0000 0.0000 0.0000
# 4 0.0000 0.0000 0.0000 -33.4720 0.0000 0.0000
# 5 0.0000 0.0000 0.0000 0.0000 -33.4720 0.0000
# 6 8.3206 -8.3206 0.0000 0.0000 0.0000 66.1375
#
#
#
# Elastic Compliance Matrix: (Units=1/GPa)
#
#
# Indices 1 2 3 4 5 6 
#
# 1 0.007949 -0.002275 -0.001765 0.000000 0.000000 -0.001286
# 2 -0.002275 0.007949 -0.001765 0.000000 0.000000 0.001286
# 3 -0.001765 -0.001765 0.017291 0.000000 0.000000 0.000000
# 4 0.000000 0.000000 0.000000 -0.029876 0.000000 0.000000
# 5 0.000000 0.000000 0.000000 0.000000 -0.029876 0.000000
# 6 -0.001286 0.001286 0.000000 0.000000 0.000000 0.015444
#
#
# Mechanical properties :
#
#
# Convention : Reuss Voigt Hill
#
# Bulk Modulus (GPa) = 46.34120 57.22297 51.78209
# Shear Modulus (GPa) = 650.68555 17.65803 334.17179
#
# Velocity S-wave (km/s) = 16.39549 2.70091 11.74961
# Velocity P-wave (km/s) = 19.43092 5.77638 14.33400
#
# Compressibility (1/GPa) = 0.02157907
#
# Stress axis : x y z
#
# Youngs Moduli (GPa) = 125.80369 125.80369 57.83276
#
# Poissons Ratio (x) = 0.28625 0.10206
# Poissons Ratio (y) = 0.28625 0.10206
# Poissons Ratio (z) = 0.22202 0.22202
#
# Static dielectric constant tensor:
#      x y z
#    x 1.887330 0.000000 0.000000 
#    y 0.000000 1.887330 0.000000 
#    z 0.000000 0.000000 2.240990 
# 
# From -- ./inp_files/4746.got.cif
#   From: 2010.05.17/outbox.cif.g08.bks.cpg/sg86_3_cif.got.tgz:4746.got - 2010.06.03 19:03:11.
