data_PCOD9545767
_publ_section_title
;
Structure prediction by ZEFSAII (Michael W. Deem and Ramdas Pophale) SiO2 
 PCOD9545767
Probable space group: I 4/M
;
_chemical_formula_sum "Si O2"
_cell_formula_units_Z 96
_cell_length_a 14.988034
_cell_length_b 14.988034
_cell_length_c 21.236135
_cell_angle_alpha 90.000000
_cell_angle_beta 90.000000
_cell_angle_gamma 90.000000
_cell_volume 4770.510068
_symmetry_space_group_name_H-M "I 4/M"
_symmetry_group_IT_number 87
_symmetry_cell_setting 'tetragonal'
loop_
_space_group_symop_operation_xyz
x,y,z
-y,x,z
-x,-y,z
y,-x,z
-x,-y,-z
y,-x,-z
x,y,-z
-y,x,-z
1/2+x,1/2+y,1/2+z
1/2-y,1/2+x,1/2+z
1/2-x,1/2-y,1/2+z
1/2+y,1/2-x,1/2+z
1/2-x,1/2-y,1/2-z
1/2+y,1/2-x,1/2-z
1/2+x,1/2+y,1/2-z
1/2-y,1/2+x,1/2-z
loop_
_atom_site_type_symbol
_atom_site_label
_atom_site_fract_x
_atom_site_fract_y
_atom_site_fract_z
Si Si1 0.644017 0.241291 0.653287
Si Si2 0.623749 0.927489 0.261025
Si Si3 0.288021 0.639586 0.073612
Si Si4 0.110327 0.096772 0.237026
Si Si5 0.445446 0.718919 0.860637
Si Si6 0.524370 0.352471 0.426500
O O1 0.629990 0.168427 0.706592
O O2 0.715093 0.205320 0.604425
O O3 0.661920 0.328187 0.696518
O O4 0.555052 0.269849 0.615374
O O5 0.525531 0.888613 0.269517
O O6 0.688064 0.933319 0.322043
O O7 0.379801 0.694249 0.082659
O O8 0.287371 0.545780 0.112370
O O9 0.271165 0.622297 0.000000
O O10 0.145667 0.088816 0.308591
O O11 0.008711 0.120063 0.222457
O O12 0.598961 0.429985 0.415764
O O13 0.527067 0.328484 0.500000
#
# Coordination Sequence:
#
# PCOD9545767 Si02
#       6
#    16  16  16  16  16  16
#     4  11  22  36  62  93 124 163 210 260 314 374
#     4  10  22  42  67  93 127 163 204 263 319 376
#     4  12  26  44  64  91 128 174 217 262 307 377
#     4  10  20  36  63  99 136 157 199 266 328 387
#     4  11  23  42  65  94 127 165 215 262 319 371
#     4   9  18  34  56  87 129 168 203 249 310 380
#
# _framework density 20.123633999999999
#
# number of rings (size 3 to 8) (size 9 to 14) (size 15 to 20)
#    0.000    1.500    3.333    2.500    0.000    8.333 
#    0.000    0.833    0.000    4.000    0.000    0.000 
#    0.000    0.000    0.000    0.000    0.000    0.000 
#
# Total GULP energy -267507.882748 kJ/mol
# GULP energy per Si atom -5573.080891 kJ/mol
# Density = 2.007783 g / cm^3
# Si number density = 20.123634 Si / 1000 Ang^3
#
#
#
# Elastic Constant Matrix: (Units=GPa)
#
#
# Indices 1 2 3 4 5 6 
#
# 1 22.5798 42.2097 21.7168 0.0000 0.0000 15.2181
# 2 42.2097 22.5798 21.7168 0.0000 0.0000 -15.2181
# 3 21.7168 21.7168 105.6536 0.0000 0.0000 0.0000
# 4 0.0000 0.0000 0.0000 26.7937 0.0000 0.0000
# 5 0.0000 0.0000 0.0000 0.0000 26.7937 0.0000
# 6 15.2181 -15.2181 0.0000 0.0000 0.0000 9.8469
#
#
#
# Elastic Compliance Matrix: (Units=1/GPa)
#
#
# Indices 1 2 3 4 5 6 
#
# 1 0.001451 0.016451 -0.003680 0.000000 0.000000 0.023182
# 2 0.016451 0.001451 -0.003680 0.000000 0.000000 -0.023182
# 3 -0.003680 -0.003680 0.010978 0.000000 0.000000 0.000000
# 4 0.000000 0.000000 0.000000 0.037322 0.000000 0.000000
# 5 0.000000 0.000000 0.000000 0.000000 0.037322 0.000000
# 6 0.023182 -0.023182 0.000000 0.000000 0.000000 0.029902
#
#
# Mechanical properties :
#
#
# Convention : Reuss Voigt Hill
#
# Bulk Modulus (GPa) = 31.18966 35.78886 33.48926
# Shear Modulus (GPa) = 45.07349 17.03154 31.05251
#
# Velocity S-wave (km/s) = 4.73782 2.91236 3.93248
# Velocity P-wave (km/s) = 6.74254 5.39743 6.10713
#
# Compressibility (1/GPa) = 0.03206191
#
# Stress axis : x y z
#
# Youngs Moduli (GPa) = 689.27690 689.27696 91.09512
#
# Poissons Ratio (x) = -11.33896 0.33519
# Poissons Ratio (y) = -11.33895 0.33519
# Poissons Ratio (z) = 2.53623 2.53623
#
# Static dielectric constant tensor:
#      x y z
#    x 1.737190 0.000000 0.000000 
#    y 0.000000 1.737190 0.000000 
#    z 0.000000 0.000000 1.783450 
# 
# From -- ./inp_files/5307.got.cif
#   From: 2010.05.17/outbox.cif.g08.bks.cpg/sg87_3_cif.got.tgz:5307.got - 2010.06.03 19:07:00.
