data_PCOD9545138
_publ_section_title
;
Structure prediction by ZEFSAII (Michael W. Deem and Ramdas Pophale) SiO2 
 PCOD9545138
Probable space group: P 42/N
;
_chemical_formula_sum "Si O2"
_cell_formula_units_Z 26
_cell_length_a 10.108083
_cell_length_b 10.108083
_cell_length_c 9.775833
_cell_angle_alpha 90.000000
_cell_angle_beta 90.000000
_cell_angle_gamma 90.000000
_cell_volume 998.829528
_symmetry_space_group_name_H-M "P 42/N"
_symmetry_group_IT_number 86
_space_group.IT_coordinate_system_code '2'
_symmetry_cell_setting 'tetragonal'
loop_
_space_group_symop_operation_xyz
x,y,z
-y,1/2+x,1/2+z
1/2-x,1/2-y,z
1/2+y,-x,1/2+z
-x,-y,-z
y,1/2-x,1/2-z
1/2+x,1/2+y,-z
1/2-y,x,1/2-z
loop_
_atom_site_type_symbol
_atom_site_label
_atom_site_fract_x
_atom_site_fract_y
_atom_site_fract_z
Si Si1 0.453530 0.708077 0.715945
Si Si2 0.250000 0.250000 0.250000
Si Si3 0.689906 0.548576 0.234928
Si Si4 0.885275 0.108257 0.009560
O O1 0.607389 0.728203 0.679247
O O2 0.400058 0.559627 0.687634
O O3 0.435210 0.716928 0.881827
O O4 0.371737 0.819108 0.635829
O O5 0.604554 0.678563 0.197507
O O6 0.726744 0.468488 0.098423
O O7 0.000000 0.000000 0.000000
#
# Coordination Sequence:
#
# PCOD9545138 Si02
#       4
#     8   2   8   8
#     4  10  22  41  76 112 160 217 274 340 420 512
#     4  12  20  40  72 112 162 232 268 342 428 488
#     4   9  21  43  71 109 160 208 273 334 416 495
#     4  10  21  43  71 110 159 208 279 328 422 501
#
# _framework density 26.030465
#
# number of rings (size 3 to 8) (size 9 to 14) (size 15 to 20)
#    1.846    0.308    3.077    0.000    0.000    3.692 
#    0.000    6.154   13.538    0.000    0.000    0.000 
#    0.000    0.000    0.000    0.000    0.000    0.000 
#
# Total GULP energy -144912.844504 kJ/mol
# GULP energy per Si atom -5573.570942 kJ/mol
# Density = 2.597122 g / cm^3
# Si number density = 26.030465 Si / 1000 Ang^3
#
#
#
# Elastic Constant Matrix: (Units=GPa)
#
#
# Indices 1 2 3 4 5 6 
#
# 1 140.1282 55.5865 27.5011 0.0000 0.0000 -0.6644
# 2 55.5865 140.1282 27.5011 0.0000 0.0000 0.6644
# 3 27.5011 27.5011 124.3221 0.0000 0.0000 0.0000
# 4 0.0000 0.0000 0.0000 28.4779 0.0000 0.0000
# 5 0.0000 0.0000 0.0000 0.0000 28.4779 0.0000
# 6 -0.6644 0.6644 0.0000 0.0000 0.0000 51.1432
#
#
#
# Elastic Compliance Matrix: (Units=1/GPa)
#
#
# Indices 1 2 3 4 5 6 
#
# 1 0.008640 -0.003191 -0.001205 0.000000 0.000000 0.000154
# 2 -0.003191 0.008640 -0.001205 0.000000 0.000000 -0.000154
# 3 -0.001205 -0.001205 0.008577 0.000000 0.000000 0.000000
# 4 0.000000 0.000000 0.000000 0.035115 0.000000 0.000000
# 5 0.000000 0.000000 0.000000 0.000000 0.035115 0.000000
# 6 0.000154 -0.000154 0.000000 0.000000 0.000000 0.019557
#
#
# Mechanical properties :
#
#
# Convention : Reuss Voigt Hill
#
# Bulk Modulus (GPa) = 68.24807 69.52845 68.88826
# Shear Modulus (GPa) = 37.95631 41.21910 39.58771
#
# Velocity S-wave (km/s) = 3.82272 3.98363 3.90400
# Velocity P-wave (km/s) = 6.76459 6.92297 6.84424
#
# Compressibility (1/GPa) = 0.01465243
#
# Stress axis : x y z
#
# Youngs Moduli (GPa) = 115.74690 115.74690 116.59341
#
# Poissons Ratio (x) = 0.36939 0.14052
# Poissons Ratio (y) = 0.36939 0.14052
# Poissons Ratio (z) = 0.13950 0.13950
#
# Static dielectric constant tensor:
#      x y z
#    x 2.059050 0.000000 0.000000 
#    y 0.000000 2.059050 0.000000 
#    z 0.000000 0.000000 2.222330 
# 
# From -- ./inp_files/1745.got.cif
#   From: 2010.05.17/outbox.cif.g08.bks.cpg/sg86_1_cif.got.tgz:1745.got - 2010.06.03 19:03:11.
