data_PCOD9545605
_publ_section_title
;
Structure prediction by ZEFSAII (Michael W. Deem and Ramdas Pophale) SiO2 
 PCOD9545605
Probable space group: I 4/M
;
_chemical_formula_sum "Si O2"
_cell_formula_units_Z 80
_cell_length_a 18.042509
_cell_length_b 18.042509
_cell_length_c 14.168177
_cell_angle_alpha 90.000000
_cell_angle_beta 90.000000
_cell_angle_gamma 90.000000
_cell_volume 4612.196851
_symmetry_space_group_name_H-M "I 4/M"
_symmetry_group_IT_number 87
_symmetry_cell_setting 'tetragonal'
loop_
_space_group_symop_operation_xyz
x,y,z
-y,x,z
-x,-y,z
y,-x,z
-x,-y,-z
y,-x,-z
x,y,-z
-y,x,-z
1/2+x,1/2+y,1/2+z
1/2-y,1/2+x,1/2+z
1/2-x,1/2-y,1/2+z
1/2+y,1/2-x,1/2+z
1/2-x,1/2-y,1/2-z
1/2+y,1/2-x,1/2-z
1/2+x,1/2+y,1/2-z
1/2-y,1/2+x,1/2-z
loop_
_atom_site_type_symbol
_atom_site_label
_atom_site_fract_x
_atom_site_fract_y
_atom_site_fract_z
Si Si1 0.645653 0.056746 0.610740
Si Si2 0.261797 0.911904 0.789308
Si Si3 0.111214 0.684060 0.389030
Si Si4 0.559127 0.196836 0.389554
Si Si5 0.832164 0.217890 0.231879
O O1 0.662604 0.069423 0.500000
O O2 0.708284 0.084203 0.682468
O O3 0.574899 0.109554 0.632103
O O4 0.643026 0.968033 0.624407
O O5 0.322888 0.868183 0.852051
O O6 0.184583 0.867889 0.788346
O O7 0.265802 0.993317 0.831956
O O8 0.118922 0.700358 0.500000
O O9 0.119408 0.756569 0.322391
O O10 0.544875 0.202985 0.500000
O O11 0.632185 0.240576 0.356921
O O12 0.750000 0.250000 0.250000
#
# Coordination Sequence:
#
# PCOD9545605 Si02
#       5
#    16  16  16  16  16
#     4  10  19  33  55  81 115 148 183 226 280 344
#     4  11  20  37  54  80 113 151 186 231 284 339
#     4  10  20  34  54  84 114 149 190 230 280 339
#     4  11  22  36  55  83 114 147 189 233 287 345
#     4  10  20  35  56  79 109 150 187 238 280 332
#
# _framework density 17.345313000000001
#
# number of rings (size 3 to 8) (size 9 to 14) (size 15 to 20)
#    0.000    1.600    6.000    0.600    0.000    5.600 
#    0.000    5.000    0.000    0.600    0.000    1.400 
#    0.000    3.200    0.000    0.000    0.000    0.000 
#
# Total GULP energy -222700.139334 kJ/mol
# GULP energy per Si atom -5567.503483 kJ/mol
# Density = 1.730583 g / cm^3
# Si number density = 17.345313 Si / 1000 Ang^3
#
#
#
# Elastic Constant Matrix: (Units=GPa)
#
#
# Indices 1 2 3 4 5 6 
#
# 1 63.9504 34.0557 17.2232 0.0000 0.0000 -7.8887
# 2 34.0557 63.9504 17.2232 0.0000 0.0000 7.8887
# 3 17.2232 17.2232 73.9970 0.0000 0.0000 0.0000
# 4 0.0000 0.0000 0.0000 22.3346 0.0000 0.0000
# 5 0.0000 0.0000 0.0000 0.0000 22.3346 0.0000
# 6 -7.8887 7.8887 0.0000 0.0000 0.0000 17.7162
#
#
#
# Elastic Compliance Matrix: (Units=1/GPa)
#
#
# Indices 1 2 3 4 5 6 
#
# 1 0.027420 -0.016307 -0.002586 0.000000 0.000000 0.019471
# 2 -0.016307 0.027420 -0.002586 0.000000 0.000000 -0.019471
# 3 -0.002586 -0.002586 0.014718 0.000000 0.000000 0.000000
# 4 0.000000 0.000000 0.000000 0.044774 0.000000 0.000000
# 5 0.000000 0.000000 0.000000 0.000000 0.044774 0.000000
# 6 0.019471 -0.019471 0.000000 0.000000 0.000000 0.073786
#
#
# Mechanical properties :
#
#
# Convention : Reuss Voigt Hill
#
# Bulk Modulus (GPa) = 37.59799 37.65577 37.62688
# Shear Modulus (GPa) = 17.56135 21.37012 19.46574
#
# Velocity S-wave (km/s) = 3.18536 3.51385 3.35363
# Velocity P-wave (km/s) = 5.93733 6.18219 6.06100
#
# Compressibility (1/GPa) = 0.02659717
#
# Stress axis : x y z
#
# Youngs Moduli (GPa) = 36.47018 36.47018 67.94349
#
# Poissons Ratio (x) = 0.59472 0.17574
# Poissons Ratio (y) = 0.59472 0.17574
# Poissons Ratio (z) = 0.09433 0.09433
#
# Static dielectric constant tensor:
#      x y z
#    x 1.638390 0.000000 0.000000 
#    y 0.000000 1.638390 0.000000 
#    z 0.000000 0.000000 1.602270 
# 
# From -- ./inp_files/3481.got.cif
#   From: 2010.05.17/outbox.cif.g08.bks.cpg/sg87_2_cif.got.tgz:3481.got - 2010.06.03 19:07:00.
