data_PCOD9545410
_publ_section_title
;
Structure prediction by ZEFSAII (Michael W. Deem and Ramdas Pophale) SiO2 
 PCOD9545410
Probable space group: P 42/N
;
_chemical_formula_sum "Si O2"
_cell_formula_units_Z 34
_cell_length_a 9.312513
_cell_length_b 9.312513
_cell_length_c 17.725924
_cell_angle_alpha 90.000000
_cell_angle_beta 90.000000
_cell_angle_gamma 90.000000
_cell_volume 1537.243506
_symmetry_space_group_name_H-M "P 42/N"
_symmetry_group_IT_number 86
_space_group.IT_coordinate_system_code '2'
_symmetry_cell_setting 'tetragonal'
loop_
_space_group_symop_operation_xyz
x,y,z
-y,1/2+x,1/2+z
1/2-x,1/2-y,z
1/2+y,-x,1/2+z
-x,-y,-z
y,1/2-x,1/2-z
1/2+x,1/2+y,-z
1/2-y,x,1/2-z
loop_
_atom_site_type_symbol
_atom_site_label
_atom_site_fract_x
_atom_site_fract_y
_atom_site_fract_z
Si Si1 0.107980 0.070056 0.257492
Si Si2 0.546506 0.413453 0.892206
Si Si3 0.720059 0.417046 0.036722
Si Si4 0.250000 0.250000 0.750000
Si Si5 0.404272 0.435018 0.628183
O O1 0.072074 0.224751 0.221892
O O2 0.083548 0.951805 0.193260
O O3 0.008153 0.044673 0.329253
O O4 0.417632 0.517600 0.919264
O O5 0.497246 0.248023 0.897602
O O6 0.678461 0.433017 0.949217
O O7 0.750000 0.250000 0.054133
O O8 0.854188 0.512147 0.062267
O O9 0.365088 0.319384 0.693823
#
# Coordination Sequence:
#
# PCOD9545410 Si02
#       5
#     8   8   8   2   8
#     4  11  26  47  72 106 144 187 242 309 372 437
#     4  11  25  46  69 107 141 186 247 301 360 449
#     4  11  25  44  68 104 143 190 238 299 372 431
#     4  12  20  40  72 104 128 180 250 288 360 408
#     4  12  22  45  75 102 140 191 243 306 358 443
#
# _framework density 22.117509999999999
#
# number of rings (size 3 to 8) (size 9 to 14) (size 15 to 20)
#    0.000    0.706    4.706    1.412    3.294    0.941 
#   16.941    0.000    0.000    0.000    0.000    0.000 
#    0.000    0.000    0.000    0.000    0.000    0.000 
#
# Total GULP energy -190314.032449 kJ/mol
# GULP energy per Si atom -5597.471543 kJ/mol
# Density = 2.206717 g / cm^3
# Si number density = 22.117510 Si / 1000 Ang^3
#
#
#
# Elastic Constant Matrix: (Units=GPa)
#
#
# Indices 1 2 3 4 5 6 
#
# 1 124.0582 56.0160 43.3664 0.0000 0.0000 -0.1918
# 2 56.0160 124.0582 43.3664 0.0000 0.0000 0.1918
# 3 43.3664 43.3664 89.2794 0.0000 0.0000 0.0000
# 4 0.0000 0.0000 0.0000 34.9834 0.0000 0.0000
# 5 0.0000 0.0000 0.0000 0.0000 34.9834 0.0000
# 6 -0.1918 0.1918 0.0000 0.0000 0.0000 31.3562
#
#
#
# Elastic Compliance Matrix: (Units=1/GPa)
#
#
# Indices 1 2 3 4 5 6 
#
# 1 0.010973 -0.003724 -0.003521 0.000000 0.000000 0.000090
# 2 -0.003724 0.010973 -0.003521 0.000000 0.000000 -0.000090
# 3 -0.003521 -0.003521 0.014622 0.000000 0.000000 0.000000
# 4 0.000000 0.000000 0.000000 0.028585 0.000000 0.000000
# 5 0.000000 0.000000 0.000000 0.000000 0.028585 0.000000
# 6 0.000090 -0.000090 0.000000 0.000000 0.000000 0.031893
#
#
# Mechanical properties :
#
#
# Convention : Reuss Voigt Hill
#
# Bulk Modulus (GPa) = 66.51078 69.21037 67.86057
# Shear Modulus (GPa) = 32.85678 33.24106 33.04892
#
# Velocity S-wave (km/s) = 3.85847 3.88097 3.86974
# Velocity P-wave (km/s) = 7.07017 7.17235 7.12144
#
# Compressibility (1/GPa) = 0.01503516
#
# Stress axis : x y z
#
# Youngs Moduli (GPa) = 91.13048 91.13048 68.39203
#
# Poissons Ratio (x) = 0.33937 0.24083
# Poissons Ratio (y) = 0.33937 0.24083
# Poissons Ratio (z) = 0.32089 0.32089
#
# Static dielectric constant tensor:
#      x y z
#    x 1.811180 0.000000 0.000000 
#    y 0.000000 1.811180 0.000000 
#    z 0.000000 0.000000 1.770710 
# 
# From -- ./inp_files/4009.got.cif
#   From: 2010.05.17/outbox.cif.g08.bks.cpg/sg86_3_cif.got.tgz:4009.got - 2010.06.03 19:03:11.
