data_PCOD9545469
_publ_section_title
;
Structure prediction by ZEFSAII (Michael W. Deem and Ramdas Pophale) SiO2 
 PCOD9545469
Probable space group: P 42/N
;
_chemical_formula_sum "Si O2"
_cell_formula_units_Z 48
_cell_length_a 9.000000
_cell_length_b 9.000000
_cell_length_c 30.000000
_cell_angle_alpha 90.000000
_cell_angle_beta 90.000000
_cell_angle_gamma 90.000000
_cell_volume 2430.000000
_symmetry_space_group_name_H-M "P 42/N"
_symmetry_group_IT_number 86
_space_group.IT_coordinate_system_code '2'
_symmetry_cell_setting 'tetragonal'
loop_
_space_group_symop_operation_xyz
x,y,z
-y,1/2+x,1/2+z
1/2-x,1/2-y,z
1/2+y,-x,1/2+z
-x,-y,-z
y,1/2-x,1/2-z
1/2+x,1/2+y,-z
1/2-y,x,1/2-z
loop_
_atom_site_type_symbol
_atom_site_label
_atom_site_fract_x
_atom_site_fract_y
_atom_site_fract_z
Si Si1 0.476010 0.425375 0.798671
Si Si2 0.425299 0.280503 0.638419
Si Si3 0.818913 0.413224 0.045768
Si Si4 0.074329 0.964818 0.703366
Si Si5 0.924701 0.278332 0.363736
Si Si6 0.087982 0.177572 0.453937
O O1 0.311352 0.458919 0.816274
O O2 0.500848 0.503347 0.750959
O O3 0.503160 0.250191 0.790028
O O4 0.557680 0.457327 0.845959
O O5 0.250000 0.250000 0.630208
O O6 0.508047 0.262073 0.591394
O O7 0.460651 0.442314 0.658314
O O8 0.750000 0.250000 0.043371
O O9 0.998379 0.405006 0.048352
O O10 0.782826 0.500122 0.999679
O O11 0.045199 0.803238 0.683743
O O12 0.750000 0.250000 0.372744
O O13 0.010817 0.234661 0.408284
O O14 0.250000 0.250000 0.456517
#
# Coordination Sequence:
#
# PCOD9545469 Si02
#       6
#     8   8   8   8   8   8
#     4  10  20  34  62  90 122 169 214 259 307 366
#     4  10  20  37  66  92 123 161 215 263 306 359
#     4  11  25  45  67  97 122 162 210 259 310 379
#     4  10  18  37  58  88 125 164 216 258 309 364
#     4  10  22  41  62  90 125 170 204 257 322 371
#     4  11  25  46  67  91 131 161 202 259 321 376
#
# _framework density 19.753086
#
# number of rings (size 3 to 8) (size 9 to 14) (size 15 to 20)
#    0.000    1.667    3.333    1.000    2.333    0.667 
#    6.000    0.000    0.000    0.000    0.000    0.000 
#    0.000    0.000    0.000    0.000    0.000    0.000 
#
# Total GULP energy -267206.878830 kJ/mol
# GULP energy per Si atom -5566.809976 kJ/mol
# Density = 1.970813 g / cm^3
# Si number density = 19.753086 Si / 1000 Ang^3
#
#
#
# Elastic Constant Matrix: (Units=GPa)
#
#
# Indices 1 2 3 4 5 6 
#
# 1 35.5356 22.8067 46.3682 0.0000 0.0000 -0.7478
# 2 22.8067 35.5356 46.3682 0.0000 0.0000 0.7478
# 3 46.3682 46.3682 193.4000 0.0000 0.0000 0.0000
# 4 0.0000 0.0000 0.0000 -2.4123 0.0000 0.0000
# 5 0.0000 0.0000 0.0000 0.0000 -2.4123 0.0000
# 6 -0.7478 0.7478 0.0000 0.0000 0.0000 21.2713
#
#
#
# Elastic Compliance Matrix: (Units=1/GPa)
#
#
# Indices 1 2 3 4 5 6 
#
# 1 0.053291 -0.025596 -0.006640 0.000000 0.000000 0.002773
# 2 -0.025596 0.053291 -0.006640 0.000000 0.000000 -0.002773
# 3 -0.006640 -0.006640 0.008354 0.000000 0.000000 0.000000
# 4 0.000000 0.000000 0.000000 -0.414541 0.000000 0.000000
# 5 0.000000 0.000000 0.000000 0.000000 -0.414541 0.000000
# 6 0.002773 -0.002773 0.000000 0.000000 0.000000 0.047207
#
#
# Mechanical properties :
#
#
# Convention : Reuss Voigt Hill
#
# Bulk Modulus (GPa) = 26.89339 55.06193 40.97766
# Shear Modulus (GPa) = -8.66861 13.21790 2.27464
#
# Velocity S-wave (km/s) = -2.09714 2.58961 1.07426
# Velocity P-wave (km/s) = 2.78932 6.07265 4.72532
#
# Compressibility (1/GPa) = 0.03718386
#
# Stress axis : x y z
#
# Youngs Moduli (GPa) = 18.76504 18.76504 119.69689
#
# Poissons Ratio (x) = 0.48032 0.79476
# Poissons Ratio (y) = 0.48032 0.79476
# Poissons Ratio (z) = 0.12460 0.12460
#
# Static dielectric constant tensor:
#      x y z
#    x 1.780570 0.000000 0.000000 
#    y 0.000000 1.780570 0.000000 
#    z 0.000000 0.000000 1.623830 
# 
# From -- ./inp_files/5122.got.cif
#   From: 2010.05.17/outbox.ucp.g08.bks.cvg/sg86_3_cif.got.tgz:5122.got - 2010.06.11 10:35:13.
