data_PCOD9545454
_publ_section_title
;
Structure prediction by ZEFSAII (Michael W. Deem and Ramdas Pophale) SiO2 
 PCOD9545454
Probable space group: P 42/N
;
_chemical_formula_sum "Si O2"
_cell_formula_units_Z 18
_cell_length_a 7.782415
_cell_length_b 7.782415
_cell_length_c 11.984204
_cell_angle_alpha 90.000000
_cell_angle_beta 90.000000
_cell_angle_gamma 90.000000
_cell_volume 725.835099
_symmetry_space_group_name_H-M "P 42/N"
_symmetry_group_IT_number 86
_space_group.IT_coordinate_system_code '2'
_symmetry_cell_setting 'tetragonal'
loop_
_space_group_symop_operation_xyz
x,y,z
-y,1/2+x,1/2+z
1/2-x,1/2-y,z
1/2+y,-x,1/2+z
-x,-y,-z
y,1/2-x,1/2-z
1/2+x,1/2+y,-z
1/2-y,x,1/2-z
loop_
_atom_site_type_symbol
_atom_site_label
_atom_site_fract_x
_atom_site_fract_y
_atom_site_fract_z
Si Si1 0.855063 0.580238 0.921371
Si Si2 0.615949 0.386438 0.782700
Si Si3 0.250000 0.250000 0.750000
O O1 0.750000 0.750000 0.955905
O O2 0.704708 0.445746 0.895940
O O3 0.956194 0.604906 0.803936
O O4 0.000000 0.500000 0.000000
O O5 0.750000 0.250000 0.731182
O O6 0.429162 0.307968 0.805675
#
# Coordination Sequence:
#
# PCOD9545454 Si02
#       3
#     8   8   2
#     4  12  26  49  81 118 164 223 279 347 432 510
#     4  12  24  49  81 113 172 214 269 360 419 500
#     4  12  24  44  88 116 152 234 268 336 452 484
#
# _framework density 24.799019999999999
#
# number of rings (size 3 to 8) (size 9 to 14) (size 15 to 20)
#    0.000    0.000    8.889    0.000    3.111    1.778 
#    0.000    6.667    0.000    0.000    0.000    0.000 
#    0.000    0.000    0.000    0.000    0.000    0.000 
#
# Total GULP energy -100677.178848 kJ/mol
# GULP energy per Si atom -5593.176603 kJ/mol
# Density = 2.474258 g / cm^3
# Si number density = 24.799020 Si / 1000 Ang^3
#
#
#
# Elastic Constant Matrix: (Units=GPa)
#
#
# Indices 1 2 3 4 5 6 
#
# 1 233.7667 103.1252 57.2119 0.0000 0.0000 19.8024
# 2 103.1252 233.7667 57.2119 0.0000 0.0000 -19.8024
# 3 57.2119 57.2119 73.4030 0.0000 0.0000 0.0000
# 4 0.0000 0.0000 0.0000 20.3243 0.0000 0.0000
# 5 0.0000 0.0000 0.0000 0.0000 20.3243 0.0000
# 6 19.8024 -19.8024 0.0000 0.0000 0.0000 70.1972
#
#
#
# Elastic Compliance Matrix: (Units=1/GPa)
#
#
# Indices 1 2 3 4 5 6 
#
# 1 0.006204 -0.002167 -0.003147 0.000000 0.000000 -0.002361
# 2 -0.002167 0.006204 -0.003147 0.000000 0.000000 0.002361
# 3 -0.003147 -0.003147 0.018528 0.000000 0.000000 0.000000
# 4 0.000000 0.000000 0.000000 0.049202 0.000000 0.000000
# 5 0.000000 0.000000 0.000000 0.000000 0.049202 0.000000
# 6 -0.002361 0.002361 0.000000 0.000000 0.000000 0.015578
#
#
# Mechanical properties :
#
#
# Convention : Reuss Voigt Hill
#
# Bulk Modulus (GPa) = 71.34567 108.44826 89.89696
# Shear Modulus (GPa) = 30.02832 43.72833 36.87833
#
# Velocity S-wave (km/s) = 3.48353 4.20373 3.86046
# Velocity P-wave (km/s) = 6.70909 8.20900 7.49665
#
# Compressibility (1/GPa) = 0.01401627
#
# Stress axis : x y z
#
# Youngs Moduli (GPa) = 161.19439 161.19439 53.97122
#
# Poissons Ratio (x) = 0.34926 0.16982
# Poissons Ratio (y) = 0.34926 0.16982
# Poissons Ratio (z) = 0.50720 0.50720
#
# Static dielectric constant tensor:
#      x y z
#    x 2.016640 0.000000 0.000000 
#    y 0.000000 2.016640 0.000000 
#    z 0.000000 0.000000 2.052460 
# 
# From -- ./inp_files/1591.got.cif
#   From: 2010.05.17/outbox.cif.g08.bks.cpg/sg86_1_cif.got.tgz:1591.got - 2010.06.03 19:03:11.
