data_PCOD9545222
_publ_section_title
;
Structure prediction by ZEFSAII (Michael W. Deem and Ramdas Pophale) SiO2 
 PCOD9545222
Probable space group: P 42/N
;
_chemical_formula_sum "Si O2"
_cell_formula_units_Z 32
_cell_length_a 9.691652
_cell_length_b 9.691652
_cell_length_c 12.099583
_cell_angle_alpha 90.000000
_cell_angle_beta 90.000000
_cell_angle_gamma 90.000000
_cell_volume 1136.491066
_symmetry_space_group_name_H-M "P 42/N"
_symmetry_group_IT_number 86
_space_group.IT_coordinate_system_code '2'
_symmetry_cell_setting 'tetragonal'
loop_
_space_group_symop_operation_xyz
x,y,z
-y,1/2+x,1/2+z
1/2-x,1/2-y,z
1/2+y,-x,1/2+z
-x,-y,-z
y,1/2-x,1/2-z
1/2+x,1/2+y,-z
1/2-y,x,1/2-z
loop_
_atom_site_type_symbol
_atom_site_label
_atom_site_fract_x
_atom_site_fract_y
_atom_site_fract_z
Si Si1 0.874917 0.140170 0.950069
Si Si2 0.807893 0.401316 0.703326
Si Si3 0.532581 0.010002 0.131622
Si Si4 0.186639 0.105644 0.945623
O O1 0.750000 0.250000 0.943619
O O2 0.901000 0.126082 0.082187
O O3 0.817355 0.985946 0.940820
O O4 0.834930 0.020168 0.679103
O O5 0.750000 0.250000 0.726957
O O6 0.921805 0.431709 0.794211
O O7 0.647868 0.969978 0.403442
O O8 0.691647 0.955304 0.134851
O O9 0.500000 0.000000 0.000000
O O10 0.250000 0.250000 0.980195
#
# Coordination Sequence:
#
# PCOD9545222 Si02
#       4
#     8   8   8   8
#     4  10  22  48  79 119 182 242 307 395 488 576
#     4  11  26  54  82 123 190 244 317 414 492 596
#     4  12  28  51  84 130 181 257 336 406 505 603
#     4  11  24  44  81 128 175 239 318 385 480 593
#
# _framework density 28.156842000000001
#
# number of rings (size 3 to 8) (size 9 to 14) (size 15 to 20)
#    0.000    1.000    5.000    1.500    3.500    3.500 
#    4.500    0.000    0.000    0.000    0.000    0.000 
#    0.000    0.000    0.000    0.000    0.000    0.250 
#
# Total GULP energy -178760.154288 kJ/mol
# GULP energy per Si atom -5586.254821 kJ/mol
# Density = 2.809276 g / cm^3
# Si number density = 28.156842 Si / 1000 Ang^3
#
#
#
# Elastic Constant Matrix: (Units=GPa)
#
#
# Indices 1 2 3 4 5 6 
#
# 1 185.7118 93.6566 58.9188 0.0000 0.0000 -4.9300
# 2 93.6566 185.7118 58.9188 0.0000 0.0000 4.9300
# 3 58.9188 58.9188 179.7781 0.0000 0.0000 0.0000
# 4 0.0000 0.0000 0.0000 12.2583 0.0000 0.0000
# 5 0.0000 0.0000 0.0000 0.0000 12.2583 0.0000
# 6 -4.9300 4.9300 0.0000 0.0000 0.0000 77.1548
#
#
#
# Elastic Compliance Matrix: (Units=1/GPa)
#
#
# Indices 1 2 3 4 5 6 
#
# 1 0.007546 -0.003392 -0.001361 0.000000 0.000000 0.000699
# 2 -0.003392 0.007546 -0.001361 0.000000 0.000000 -0.000699
# 3 -0.001361 -0.001361 0.006455 0.000000 0.000000 0.000000
# 4 0.000000 0.000000 0.000000 0.081577 0.000000 0.000000
# 5 0.000000 0.000000 0.000000 0.000000 0.081577 0.000000
# 6 0.000699 -0.000699 0.000000 0.000000 0.000000 0.013050
#
#
# Mechanical properties :
#
#
# Convention : Reuss Voigt Hill
#
# Bulk Modulus (GPa) = 107.33177 108.24335 107.78756
# Shear Modulus (GPa) = 23.46466 42.98145 33.22306
#
# Velocity S-wave (km/s) = 2.88992 3.91129 3.43874
# Velocity P-wave (km/s) = 7.02407 7.67620 7.35736
#
# Compressibility (1/GPa) = 0.00931691
#
# Stress axis : x y z
#
# Youngs Moduli (GPa) = 132.52405 132.52405 154.92615
#
# Poissons Ratio (x) = 0.44954 0.21090
# Poissons Ratio (y) = 0.44954 0.21090
# Poissons Ratio (z) = 0.18040 0.18040
#
# Static dielectric constant tensor:
#      x y z
#    x 2.945010 0.000000 0.000000 
#    y 0.000000 2.945010 0.000000 
#    z 0.000000 0.000000 2.271850 
# 
# From -- ./inp_files/1935.got.cif
#   From: 2010.05.17/outbox.cif.g08.bks.cpg/sg86_1_cif.got.tgz:1935.got - 2010.06.03 19:03:11.
