data_PCOD9545957
_publ_section_title
;
Structure prediction by ZEFSAII (Michael W. Deem and Ramdas Pophale) SiO2 
 PCOD9545957
Probable space group: I 4/M
;
_chemical_formula_sum "Si O2"
_cell_formula_units_Z 72
_cell_length_a 11.231886
_cell_length_b 11.231886
_cell_length_c 24.434166
_cell_angle_alpha 90.000000
_cell_angle_beta 90.000000
_cell_angle_gamma 90.000000
_cell_volume 3082.498641
_symmetry_space_group_name_H-M "I 4/M"
_symmetry_group_IT_number 87
_symmetry_cell_setting 'tetragonal'
loop_
_space_group_symop_operation_xyz
x,y,z
-y,x,z
-x,-y,z
y,-x,z
-x,-y,-z
y,-x,-z
x,y,-z
-y,x,-z
1/2+x,1/2+y,1/2+z
1/2-y,1/2+x,1/2+z
1/2-x,1/2-y,1/2+z
1/2+y,1/2-x,1/2+z
1/2-x,1/2-y,1/2-z
1/2+y,1/2-x,1/2-z
1/2+x,1/2+y,1/2-z
1/2-y,1/2+x,1/2-z
loop_
_atom_site_type_symbol
_atom_site_label
_atom_site_fract_x
_atom_site_fract_y
_atom_site_fract_z
Si Si1 0.303546 0.311589 0.834015
Si Si2 0.098463 0.663534 0.236228
Si Si3 0.500000 0.500000 0.500000
Si Si4 0.000000 0.000000 0.358679
Si Si5 0.545800 0.238138 0.500000
Si Si6 0.596304 0.904125 0.591209
Si Si7 0.500000 0.500000 0.000000
Si Si8 0.049811 0.264645 0.500000
O O1 0.323876 0.172820 0.819709
O O2 0.275719 0.371188 0.774664
O O3 0.418710 0.376861 0.858185
O O4 0.185545 0.336332 0.868699
O O5 0.147717 0.542775 0.264744
O O6 0.572436 0.375855 0.500000
O O7 0.476726 0.186819 0.552965
O O8 0.673856 0.176767 0.500000
O O9 0.500000 0.000000 0.614807
O O10 0.682314 0.980418 0.551796
O O11 0.569994 0.625539 0.000000
#
# Coordination Sequence:
#
# PCOD9545957 Si02
#       8
#    16  16   2   4   8  16   2   8
#     4  11  23  40  67  95 132 175 224 283 349 423
#     4  10  22  42  64  92 128 175 228 282 345 415
#     4  12  24  44  76  90 124 198 232 286 340 416
#     4  12  24  41  56 102 136 168 216 290 356 401
#     4   9  22  48  70  97 140 178 242 289 346 409
#     4   9  21  44  71 100 135 185 226 288 350 418
#     4  12  24  38  68 112 140 190 224 268 356 410
#     4   9  22  42  66 101 150 178 222 291 344 419
#
# _framework density 23.357676000000001
#
# number of rings (size 3 to 8) (size 9 to 14) (size 15 to 20)
#    0.000    2.000    2.222    1.333    6.222    2.667 
#    8.000    0.000    0.000    5.333    0.000    0.000 
#    0.000    0.000    0.000    0.000    0.000    0.000 
#
# Total GULP energy -200451.835559 kJ/mol
# GULP energy per Si atom -5568.106543 kJ/mol
# Density = 2.330451 g / cm^3
# Si number density = 23.357676 Si / 1000 Ang^3
#
#
#
# Elastic Constant Matrix: (Units=GPa)
#
#
# Indices 1 2 3 4 5 6 
#
# 1 128.1695 13.3530 40.3164 0.0000 0.0000 0.6053
# 2 13.3530 128.1695 40.3164 0.0000 0.0000 -0.6053
# 3 40.3164 40.3164 65.6804 0.0000 0.0000 0.0000
# 4 0.0000 0.0000 0.0000 1507.8246 -0.0007 0.0000
# 5 0.0000 0.0000 0.0000 -0.0007 1507.8254 0.0000
# 6 0.6053 -0.6053 0.0000 0.0000 0.0000 27.5895
#
#
#
# Elastic Compliance Matrix: (Units=1/GPa)
#
#
# Indices 1 2 3 4 5 6 
#
# 1 0.009789 0.001077 -0.006670 0.000000 0.000000 -0.000191
# 2 0.001077 0.009789 -0.006670 0.000000 0.000000 0.000191
# 3 -0.006670 -0.006670 0.023414 0.000000 0.000000 0.000000
# 4 0.000000 0.000000 0.000000 0.000663 0.000000 0.000000
# 5 0.000000 0.000000 0.000000 0.000000 0.000663 0.000000
# 6 -0.000191 0.000191 0.000000 0.000000 0.000000 0.036254
#
#
# Mechanical properties :
#
#
# Convention : Reuss Voigt Hill
#
# Bulk Modulus (GPa) = 54.15298 56.66567 55.40932
# Shear Modulus (GPa) = 44.94266 623.85012 334.39639
#
# Velocity S-wave (km/s) = 4.39122 16.36049 11.97807
# Velocity P-wave (km/s) = 6.99607 19.52434 14.66535
#
# Compressibility (1/GPa) = 0.01846620
#
# Stress axis : x y z
#
# Youngs Moduli (GPa) = 102.15623 102.15623 42.70995
#
# Poissons Ratio (x) = -0.11006 0.28488
# Poissons Ratio (y) = -0.11006 0.28488
# Poissons Ratio (z) = 0.68139 0.68139
#
# Static dielectric constant tensor:
#      x y z
#    x 1.862070 0.000000 0.000000 
#    y 0.000000 1.862070 0.000000 
#    z 0.000000 0.000000 1.998080 
# 
# From -- ./inp_files/6220.got.cif
#   From: 2010.05.17/outbox.cif.g08.bks.cpg/sg87_4_cif.got.tgz:6220.got - 2010.06.03 19:07:00.
