data_PCOD9545173
_publ_section_title
;
Structure prediction by ZEFSAII (Michael W. Deem and Ramdas Pophale) SiO2 
 PCOD9545173
Probable space group: P 42/N
;
_chemical_formula_sum "Si O2"
_cell_formula_units_Z 40
_cell_length_a 9.000995
_cell_length_b 9.000995
_cell_length_c 23.670144
_cell_angle_alpha 90.000000
_cell_angle_beta 90.000000
_cell_angle_gamma 90.000000
_cell_volume 1917.705620
_symmetry_space_group_name_H-M "P 42/N"
_symmetry_group_IT_number 86
_space_group.IT_coordinate_system_code '2'
_symmetry_cell_setting 'tetragonal'
loop_
_space_group_symop_operation_xyz
x,y,z
-y,1/2+x,1/2+z
1/2-x,1/2-y,z
1/2+y,-x,1/2+z
-x,-y,-z
y,1/2-x,1/2-z
1/2+x,1/2+y,-z
1/2-y,x,1/2-z
loop_
_atom_site_type_symbol
_atom_site_label
_atom_site_fract_x
_atom_site_fract_y
_atom_site_fract_z
Si Si1 0.544111 0.777211 0.909919
Si Si2 0.750000 0.250000 0.842924
Si Si3 0.182217 0.441768 0.283945
Si Si4 0.513375 0.808404 0.244993
Si Si5 0.992165 0.290025 0.439003
Si Si6 0.750000 0.250000 0.033743
O O1 0.577763 0.762971 0.843512
O O2 0.581378 0.613813 0.934020
O O3 0.645359 0.902640 0.938025
O O4 0.377555 0.809984 0.925907
O O5 0.600930 0.223614 0.806028
O O6 0.718977 0.389330 0.883710
O O7 0.309231 0.428773 0.235457
O O8 0.090923 0.593948 0.285893
O O9 0.655666 0.914743 0.231882
O O10 0.882984 0.297713 0.491898
#
# Coordination Sequence:
#
# PCOD9545173 Si02
#       6
#     8   4   8   8   8   4
#     4  11  22  40  63  92 122 155 206 254 294 358
#     4  11  22  41  62  82 118 167 206 243 308 370
#     4  11  22  39  64  93 122 163 207 247 299 367
#     4  11  23  37  56  88 126 161 201 256 314 368
#     4  10  22  41  63  85 118 161 204 252 301 359
#     4  11  24  39  62  92 120 157 198 251 314 352
#
# _framework density 20.858259
#
# number of rings (size 3 to 8) (size 9 to 14) (size 15 to 20)
#    0.000    1.200    0.000    8.400    0.000    4.000 
#    0.000    0.000    0.000    9.600    0.000    0.000 
#    0.000    0.000    0.000    0.000    0.000    0.000 
#
# Total GULP energy -223370.646861 kJ/mol
# GULP energy per Si atom -5584.266172 kJ/mol
# Density = 2.081078 g / cm^3
# Si number density = 20.858259 Si / 1000 Ang^3
#
#
#
# Elastic Constant Matrix: (Units=GPa)
#
#
# Indices 1 2 3 4 5 6 
#
# 1 80.8489 20.6180 31.1978 0.0000 0.0000 -2.9904
# 2 20.6180 80.8489 31.1978 0.0000 0.0000 2.9904
# 3 31.1978 31.1978 84.1344 0.0000 0.0000 0.0000
# 4 0.0000 0.0000 0.0000 -388.4728 0.0000 0.0000
# 5 0.0000 0.0000 0.0000 0.0000 -388.4728 0.0000
# 6 -2.9904 2.9904 0.0000 0.0000 0.0000 18.9483
#
#
#
# Elastic Compliance Matrix: (Units=1/GPa)
#
#
# Indices 1 2 3 4 5 6 
#
# 1 0.014817 -0.002050 -0.004734 0.000000 0.000000 0.002662
# 2 -0.002050 0.014817 -0.004734 0.000000 0.000000 -0.002662
# 3 -0.004734 -0.004734 0.015397 0.000000 0.000000 0.000000
# 4 0.000000 0.000000 0.000000 -0.002574 0.000000 0.000000
# 5 0.000000 0.000000 0.000000 0.000000 -0.002574 0.000000
# 6 0.002662 -0.002662 0.000000 0.000000 0.000000 0.053616
#
#
# Mechanical properties :
#
#
# Convention : Reuss Voigt Hill
#
# Bulk Modulus (GPa) = 45.46742 45.76216 45.61479
# Shear Modulus (GPa) = 40.36655 -140.74489 -50.18917
#
# Velocity S-wave (km/s) = 4.40395 -8.22334 -4.91063
# Velocity P-wave (km/s) = 6.90691 8.25695 3.19936
#
# Compressibility (1/GPa) = 0.02199377
#
# Stress axis : x y z
#
# Youngs Moduli (GPa) = 67.49091 67.49091 64.94969
#
# Poissons Ratio (x) = 0.13838 0.30747
# Poissons Ratio (y) = 0.13838 0.30747
# Poissons Ratio (z) = 0.31950 0.31950
#
# Static dielectric constant tensor:
#      x y z
#    x 1.776470 0.000000 0.000000 
#    y 0.000000 1.776470 0.000000 
#    z 0.000000 0.000000 1.712210 
# 
# From -- ./inp_files/4535.got.cif
#   From: 2010.05.17/outbox.cif.g08.bks.cpg/sg86_3_cif.got.tgz:4535.got - 2010.06.03 19:03:11.
