data_PCOD9545165
_publ_section_title
;
Structure prediction by ZEFSAII (Michael W. Deem and Ramdas Pophale) SiO2 
 PCOD9545165
Probable space group: P 42/N
;
_chemical_formula_sum "Si O2"
_cell_formula_units_Z 40
_cell_length_a 11.044745
_cell_length_b 11.044745
_cell_length_c 13.964866
_cell_angle_alpha 90.000000
_cell_angle_beta 90.000000
_cell_angle_gamma 90.000000
_cell_volume 1703.523620
_symmetry_space_group_name_H-M "P 42/N"
_symmetry_group_IT_number 86
_space_group.IT_coordinate_system_code '2'
_symmetry_cell_setting 'tetragonal'
loop_
_space_group_symop_operation_xyz
x,y,z
-y,1/2+x,1/2+z
1/2-x,1/2-y,z
1/2+y,-x,1/2+z
-x,-y,-z
y,1/2-x,1/2-z
1/2+x,1/2+y,-z
1/2-y,x,1/2-z
loop_
_atom_site_type_symbol
_atom_site_label
_atom_site_fract_x
_atom_site_fract_y
_atom_site_fract_z
Si Si1 0.687695 0.943642 0.038796
Si Si2 0.136657 0.699897 0.602781
Si Si3 0.561332 0.569749 0.091452
Si Si4 0.142899 0.544710 0.269665
Si Si5 0.491470 0.121984 0.119642
O O1 0.610174 0.036506 0.105633
O O2 0.806075 0.873067 0.077009
O O3 0.757893 0.022963 0.958779
O O4 0.582731 0.876455 0.979752
O O5 0.250000 0.750000 0.544455
O O6 0.144836 0.557308 0.623386
O O7 0.127864 0.782851 0.696944
O O8 0.592010 0.471085 0.172602
O O9 0.500000 0.500000 0.000000
O O10 0.090187 0.436101 0.204356
O O11 0.241414 0.512068 0.349267
#
# Coordination Sequence:
#
# PCOD9545165 Si02
#       5
#     8   8   8   8   8
#     4   9  22  42  65  91 142 176 226 283 350 422
#     4  10  22  40  63  99 132 176 230 285 341 416
#     4  10  22  40  61  99 130 177 228 279 352 411
#     4  11  22  39  65  95 134 170 228 291 334 417
#     4  10  22  41  62 101 132 184 225 285 350 412
#
# _framework density 23.480744000000001
#
# number of rings (size 3 to 8) (size 9 to 14) (size 15 to 20)
#    0.000    2.000    2.000    0.000    8.400    0.400 
#    0.000    0.000    0.000    0.000    5.200    0.000 
#    0.000    0.000    0.000    0.000    0.000    0.000 
#
# Total GULP energy -222903.742304 kJ/mol
# GULP energy per Si atom -5572.593558 kJ/mol
# Density = 2.342730 g / cm^3
# Si number density = 23.480744 Si / 1000 Ang^3
#
#
#
# Elastic Constant Matrix: (Units=GPa)
#
#
# Indices 1 2 3 4 5 6 
#
# 1 97.0701 32.9605 19.4696 0.0000 0.0000 6.7053
# 2 32.9605 97.0701 19.4696 0.0000 0.0000 -6.7053
# 3 19.4696 19.4696 54.7688 0.0000 0.0000 0.0000
# 4 0.0000 0.0000 0.0000 -18.8243 0.0000 0.0000
# 5 0.0000 0.0000 0.0000 0.0000 -18.8243 0.0000
# 6 6.7053 -6.7053 0.0000 0.0000 0.0000 3.4610
#
#
#
# Elastic Compliance Matrix: (Units=1/GPa)
#
#
# Indices 1 2 3 4 5 6 
#
# 1 0.017417 -0.008810 -0.003060 0.000000 0.000000 -0.050813
# 2 -0.008810 0.017417 -0.003060 0.000000 0.000000 0.050813
# 3 -0.003060 -0.003060 0.020434 0.000000 0.000000 0.000000
# 4 0.000000 0.000000 0.000000 -0.053123 0.000000 0.000000
# 5 0.000000 0.000000 0.000000 0.000000 -0.053123 0.000000
# 6 -0.050813 0.050813 0.000000 0.000000 0.000000 0.485824
#
#
# Mechanical properties :
#
#
# Convention : Reuss Voigt Hill
#
# Bulk Modulus (GPa) = 39.35617 43.63428 41.49523
# Shear Modulus (GPa) = 10.56691 4.96309 7.76500
#
# Velocity S-wave (km/s) = 2.12368 1.45543 1.82048
# Velocity P-wave (km/s) = 4.77606 4.63117 4.70417
#
# Compressibility (1/GPa) = 0.02540898
#
# Stress axis : x y z
#
# Youngs Moduli (GPa) = 57.41493 57.41493 48.93838
#
# Poissons Ratio (x) = 0.50585 0.14973
# Poissons Ratio (y) = 0.50585 0.14973
# Poissons Ratio (z) = 0.17567 0.17567
#
# Static dielectric constant tensor:
#      x y z
#    x 3.185970 0.000000 0.000000 
#    y 0.000000 3.185970 0.000000 
#    z 0.000000 0.000000 1.994830 
# 
# From -- ./inp_files/2921.got.cif
#   From: 2010.05.17/outbox.cif.g08.bks.cpg/sg86_2_cif.got.tgz:2921.got - 2010.06.03 19:03:11.
