data_PCOD9545085
_publ_section_title
;
Structure prediction by ZEFSAII (Michael W. Deem and Ramdas Pophale) SiO2 
 PCOD9545085
Probable space group: P 42/N
;
_chemical_formula_sum "Si O2"
_cell_formula_units_Z 48
_cell_length_a 7.052611
_cell_length_b 7.052611
_cell_length_c 31.675631
_cell_angle_alpha 90.000000
_cell_angle_beta 90.000000
_cell_angle_gamma 90.000000
_cell_volume 1575.524407
_symmetry_space_group_name_H-M "P 42/N"
_symmetry_group_IT_number 86
_space_group.IT_coordinate_system_code '2'
_symmetry_cell_setting 'tetragonal'
loop_
_space_group_symop_operation_xyz
x,y,z
-y,1/2+x,1/2+z
1/2-x,1/2-y,z
1/2+y,-x,1/2+z
-x,-y,-z
y,1/2-x,1/2-z
1/2+x,1/2+y,-z
1/2-y,x,1/2-z
loop_
_atom_site_type_symbol
_atom_site_label
_atom_site_fract_x
_atom_site_fract_y
_atom_site_fract_z
Si Si1 0.777549 0.029669 0.091673
Si Si2 0.275527 0.469695 0.002007
Si Si3 0.007170 0.495756 0.748422
Si Si4 0.257722 0.023998 0.185378
Si Si5 0.978729 0.718756 0.591234
Si Si6 0.760487 0.475932 0.184354
O O1 0.750000 0.250000 0.098660
O O2 0.719503 0.945325 0.136861
O O3 0.996793 0.981381 0.088241
O O4 0.695163 0.010306 0.044432
O O5 0.250000 0.250000 0.007183
O O6 0.500000 0.500000 0.000000
O O7 0.200720 0.552607 0.046476
O O8 0.998452 0.489545 0.802197
O O9 0.016993 0.500982 0.693655
O O10 0.744959 0.491897 0.760280
O O11 0.008708 0.253443 0.738184
O O12 0.250000 0.250000 0.181901
O O13 0.275632 0.950231 0.137324
O O14 0.750000 0.750000 0.592621
O O15 0.750000 0.250000 0.181794
#
# Coordination Sequence:
#
# PCOD9545085 Si02
#       6
#     8   8   8   8   8   8
#     4  10  21  37  61  88 120 159 200 256 318 381
#     4   9  19  41  64  88 120 164 208 259 319 390
#     4  12  21  37  57  83 119 159 194 257 298 359
#     4  11  18  32  60  85 107 150 206 248 296 342
#     4   9  19  34  61  87 112 149 205 254 303 364
#     4  11  23  38  58  87 122 156 209 247 305 372
#
# _framework density 30.466045000000001
#
# number of rings (size 3 to 8) (size 9 to 14) (size 15 to 20)
#    0.000    1.667    5.000    0.000    7.000    0.333 
#    3.000    7.500    3.667    0.000    0.000    0.000 
#    0.000    0.000    0.000    0.000    0.000    0.000 
#
# Total GULP energy -267602.036506 kJ/mol
# GULP energy per Si atom -5575.042427 kJ/mol
# Density = 3.039670 g / cm^3
# Si number density = 30.466045 Si / 1000 Ang^3
#
#
#
# Elastic Constant Matrix: (Units=GPa)
#
#
# Indices 1 2 3 4 5 6 
#
# 1 218.2498 12.4403 99.6707 0.0000 0.0000 0.0845
# 2 12.4403 218.2498 99.6707 0.0000 0.0000 -0.0845
# 3 99.6707 99.6707 484.3361 0.0000 0.0000 0.0000
# 4 0.0000 0.0000 0.0000 71.2058 0.0000 0.0000
# 5 0.0000 0.0000 0.0000 0.0000 71.2058 0.0000
# 6 0.0845 -0.0845 0.0000 0.0000 0.0000 44.7588
#
#
#
# Elastic Compliance Matrix: (Units=1/GPa)
#
#
# Indices 1 2 3 4 5 6 
#
# 1 0.005066 0.000207 -0.001085 0.000000 0.000000 -0.000009
# 2 0.000207 0.005066 -0.001085 0.000000 0.000000 0.000009
# 3 -0.001085 -0.001085 0.002511 0.000000 0.000000 0.000000
# 4 0.000000 0.000000 0.000000 0.014044 0.000000 0.000000
# 5 0.000000 0.000000 0.000000 0.000000 0.014044 0.000000
# 6 -0.000009 0.000009 0.000000 0.000000 0.000000 0.022342
#
#
# Mechanical properties :
#
#
# Convention : Reuss Voigt Hill
#
# Bulk Modulus (GPa) = 114.73136 149.37768 132.05452
# Shear Modulus (GPa) = 71.52678 84.70436 78.11557
#
# Velocity S-wave (km/s) = 4.85062 5.27856 5.06911
# Velocity P-wave (km/s) = 8.31335 9.28915 8.81476
#
# Compressibility (1/GPa) = 0.00871601
#
# Stress axis : x y z
#
# Youngs Moduli (GPa) = 197.40919 197.40919 398.20978
#
# Poissons Ratio (x) = -0.04081 0.43205
# Poissons Ratio (y) = -0.04081 0.43205
# Poissons Ratio (z) = 0.21419 0.21419
#
# Static dielectric constant tensor:
#      x y z
#    x 3.007340 0.000000 0.000000 
#    y 0.000000 3.007340 0.000000 
#    z 0.000000 0.000000 2.384620 
# 
# From -- ./inp_files/5126.got.cif
#   From: 2010.05.17/outbox.cif.g08.bks.cpg/sg86_3_cif.got.tgz:5126.got - 2010.06.03 19:03:11.
