data_PCOD9545255
_publ_section_title
;
Structure prediction by ZEFSAII (Michael W. Deem and Ramdas Pophale) SiO2 
 PCOD9545255
Probable space group: P 42/N
;
_chemical_formula_sum "Si O2"
_cell_formula_units_Z 38
_cell_length_a 9.541326
_cell_length_b 9.541326
_cell_length_c 17.653401
_cell_angle_alpha 90.000000
_cell_angle_beta 90.000000
_cell_angle_gamma 90.000000
_cell_volume 1607.110934
_symmetry_space_group_name_H-M "P 42/N"
_symmetry_group_IT_number 86
_space_group.IT_coordinate_system_code '2'
_symmetry_cell_setting 'tetragonal'
loop_
_space_group_symop_operation_xyz
x,y,z
-y,1/2+x,1/2+z
1/2-x,1/2-y,z
1/2+y,-x,1/2+z
-x,-y,-z
y,1/2-x,1/2-z
1/2+x,1/2+y,-z
1/2-y,x,1/2-z
loop_
_atom_site_type_symbol
_atom_site_label
_atom_site_fract_x
_atom_site_fract_y
_atom_site_fract_z
Si Si1 0.750000 0.750000 0.872255
Si Si2 0.182961 0.967724 0.193089
Si Si3 0.139124 0.037677 0.855365
Si Si4 0.750000 0.250000 0.436561
Si Si5 0.750000 0.750000 0.250000
Si Si6 0.750000 0.250000 0.174343
Si Si7 0.035481 0.166629 0.997676
O O1 0.760770 0.614210 0.819581
O O2 0.879079 0.779974 0.930135
O O3 0.236054 0.879754 0.120430
O O4 0.215809 0.879977 0.268684
O O5 0.015652 0.982252 0.180443
O O6 0.203039 0.885730 0.873236
O O7 0.242333 0.106901 0.795603
O O8 0.124905 0.154252 0.920792
O O9 0.747310 0.394472 0.482583
O O10 0.000000 0.000000 0.000000
#
# Coordination Sequence:
#
# PCOD9545255 Si02
#       7
#     4   8   8   4   2   4   8
#     4  12  23  46  73 101 153 190 232 300 360 434
#     4  10  23  44  67 102 140 186 228 294 362 420
#     4  11  23  44  69 101 138 180 236 297 351 421
#     4   9  20  43  68  92 141 178 227 296 338 409
#     4  12  22  44  72  96 130 184 236 282 352 436
#     4  11  24  45  74 100 139 184 241 302 356 429
#     4  11  23  45  68 104 143 182 239 289 356 432
#
# _framework density 23.644914
#
# number of rings (size 3 to 8) (size 9 to 14) (size 15 to 20)
#    0.000    1.263    6.316    0.632    0.000    3.368 
#    0.000    0.000    0.000    0.000    0.000    0.000 
#    0.000    0.000    0.000    0.000    0.000    0.000 
#
# Total GULP energy -212452.009380 kJ/mol
# GULP energy per Si atom -5590.842352 kJ/mol
# Density = 2.359110 g / cm^3
# Si number density = 23.644914 Si / 1000 Ang^3
#
#
#
# Elastic Constant Matrix: (Units=GPa)
#
#
# Indices 1 2 3 4 5 6 
#
# 1 121.1363 55.8749 30.4883 0.0000 0.0000 -3.6298
# 2 55.8749 121.1363 30.4883 0.0000 0.0000 3.6298
# 3 30.4883 30.4883 70.6717 0.0000 0.0000 0.0000
# 4 0.0000 0.0000 0.0000 14.2360 0.0000 0.0000
# 5 0.0000 0.0000 0.0000 0.0000 14.2360 0.0000
# 6 -3.6298 3.6298 0.0000 0.0000 0.0000 50.0748
#
#
#
# Elastic Compliance Matrix: (Units=1/GPa)
#
#
# Indices 1 2 3 4 5 6 
#
# 1 0.011042 -0.004406 -0.002863 0.000000 0.000000 0.001120
# 2 -0.004406 0.011042 -0.002863 0.000000 0.000000 -0.001120
# 3 -0.002863 -0.002863 0.016620 0.000000 0.000000 0.000000
# 4 0.000000 0.000000 0.000000 0.070244 0.000000 0.000000
# 5 0.000000 0.000000 0.000000 0.000000 0.070244 0.000000
# 6 0.001120 -0.001120 0.000000 0.000000 0.000000 0.020132
#
#
# Mechanical properties :
#
#
# Convention : Reuss Voigt Hill
#
# Bulk Modulus (GPa) = 54.22877 60.73857 57.48367
# Shear Modulus (GPa) = 22.15005 28.78221 25.46613
#
# Velocity S-wave (km/s) = 3.06400 3.49272 3.28536
# Velocity P-wave (km/s) = 5.95835 6.48144 6.22539
#
# Compressibility (1/GPa) = 0.01844039
#
# Stress axis : x y z
#
# Youngs Moduli (GPa) = 90.56734 90.56734 60.16910
#
# Poissons Ratio (x) = 0.39904 0.17224
# Poissons Ratio (y) = 0.39904 0.17224
# Poissons Ratio (z) = 0.25926 0.25926
#
# Static dielectric constant tensor:
#      x y z
#    x 1.941340 0.000000 0.000000 
#    y 0.000000 1.941340 0.000000 
#    z 0.000000 0.000000 2.086840 
# 
# From -- ./inp_files/4595.got.cif
#   From: 2010.05.17/outbox.cif.g08.bks.cpg/sg86_3_cif.got.tgz:4595.got - 2010.06.03 19:03:11.
