data_PCOD9545985
_publ_section_title
;
Structure prediction by ZEFSAII (Michael W. Deem and Ramdas Pophale) SiO2 
 PCOD9545985
Probable space group: I 4/M
;
_chemical_formula_sum "Si O2"
_cell_formula_units_Z 80
_cell_length_a 11.623318
_cell_length_b 11.623318
_cell_length_c 30.682799
_cell_angle_alpha 90.000000
_cell_angle_beta 90.000000
_cell_angle_gamma 90.000000
_cell_volume 4145.292824
_symmetry_space_group_name_H-M "I 4/M"
_symmetry_group_IT_number 87
_symmetry_cell_setting 'tetragonal'
loop_
_space_group_symop_operation_xyz
x,y,z
-y,x,z
-x,-y,z
y,-x,z
-x,-y,-z
y,-x,-z
x,y,-z
-y,x,-z
1/2+x,1/2+y,1/2+z
1/2-y,1/2+x,1/2+z
1/2-x,1/2-y,1/2+z
1/2+y,1/2-x,1/2+z
1/2-x,1/2-y,1/2-z
1/2+y,1/2-x,1/2-z
1/2+x,1/2+y,1/2-z
1/2-y,1/2+x,1/2-z
loop_
_atom_site_type_symbol
_atom_site_label
_atom_site_fract_x
_atom_site_fract_y
_atom_site_fract_z
Si Si1 0.676488 0.431153 0.052210
Si Si2 0.220541 0.598594 0.358355
Si Si3 0.311145 0.517222 0.266577
Si Si4 0.682902 0.856114 0.114340
Si Si5 0.862904 0.494488 0.810497
O O1 0.644336 0.563037 0.063649
O O2 0.786619 0.382720 0.076924
O O3 0.690094 0.426077 0.000000
O O4 0.277238 0.534001 0.316819
O O5 0.305682 0.689374 0.379947
O O6 0.183525 0.494467 0.389977
O O7 0.110503 0.663700 0.337702
O O8 0.379127 0.399475 0.257976
O O9 0.203642 0.517859 0.234494
O O10 0.612886 0.832936 0.158940
O O11 0.000000 0.500000 0.804567
#
# Coordination Sequence:
#
# PCOD9545985 Si02
#       5
#    16  16  16  16  16
#     4   9  19  39  69  99 124 151 187 238 299 356
#     4  11  23  37  57  81 115 160 204 247 299 352
#     4  11  23  39  56  77 110 156 211 251 296 348
#     4  11  22  39  58  85 121 158 199 243 300 358
#     4  10  24  36  55  83 113 152 200 258 308 348
#
# _framework density 19.298998000000001
#
# number of rings (size 3 to 8) (size 9 to 14) (size 15 to 20)
#    0.000    1.600    2.000    3.000    5.600    2.000 
#    0.000    3.000    0.000    7.800    0.000    1.400 
#    0.000    0.000    0.000    0.000    0.000    0.000 
#
# Total GULP energy -223562.079367 kJ/mol
# GULP energy per Si atom -5589.051984 kJ/mol
# Density = 1.925507 g / cm^3
# Si number density = 19.298998 Si / 1000 Ang^3
#
#
#
# Elastic Constant Matrix: (Units=GPa)
#
#
# Indices 1 2 3 4 5 6 
#
# 1 76.3446 18.5970 28.3808 0.0000 0.0000 -10.7904
# 2 18.5970 76.3446 28.3808 0.0000 0.0000 10.7904
# 3 28.3808 28.3808 50.0164 0.0000 0.0000 0.0000
# 4 0.0000 0.0000 0.0000 28.3327 0.0000 0.0000
# 5 0.0000 0.0000 0.0000 0.0000 28.3327 0.0000
# 6 -10.7904 10.7904 0.0000 0.0000 0.0000 14.2946
#
#
#
# Elastic Compliance Matrix: (Units=1/GPa)
#
#
# Indices 1 2 3 4 5 6 
#
# 1 0.020031 -0.004090 -0.009045 0.000000 0.000000 0.018208
# 2 -0.004090 0.020031 -0.009045 0.000000 0.000000 -0.018208
# 3 -0.009045 -0.009045 0.030258 0.000000 0.000000 0.000000
# 4 0.000000 0.000000 0.000000 0.035295 0.000000 0.000000
# 5 0.000000 0.000000 0.000000 0.000000 0.035295 0.000000
# 6 0.018208 -0.018208 0.000000 0.000000 0.000000 0.097446
#
#
# Mechanical properties :
#
#
# Convention : Reuss Voigt Hill
#
# Bulk Modulus (GPa) = 38.52244 39.26921 38.89582
# Shear Modulus (GPa) = 17.16029 22.68181 19.92105
#
# Velocity S-wave (km/s) = 2.98515 3.43196 3.21632
# Velocity P-wave (km/s) = 5.64674 6.00803 5.83018
#
# Compressibility (1/GPa) = 0.02595890
#
# Stress axis : x y z
#
# Youngs Moduli (GPa) = 49.92281 49.92281 33.04862
#
# Poissons Ratio (x) = 0.20420 0.29893
# Poissons Ratio (y) = 0.20420 0.29893
# Poissons Ratio (z) = 0.45156 0.45156
#
# Static dielectric constant tensor:
#      x y z
#    x 1.705420 0.000000 0.000000 
#    y 0.000000 1.705420 0.000000 
#    z 0.000000 0.000000 1.643850 
# 
# From -- ./inp_files/6465.got.cif
#   From: 2010.05.17/outbox.cif.g08.bks.cpg/sg87_4_cif.got.tgz:6465.got - 2010.06.03 19:07:00.
