data_PCOD9545056
_publ_section_title
;
Structure prediction by ZEFSAII (Michael W. Deem and Ramdas Pophale) SiO2 
 PCOD9545056
Probable space group: P 42/N
;
_chemical_formula_sum "Si O2"
_cell_formula_units_Z 40
_cell_length_a 8.291255
_cell_length_b 8.291255
_cell_length_c 27.366233
_cell_angle_alpha 90.000000
_cell_angle_beta 90.000000
_cell_angle_gamma 90.000000
_cell_volume 1881.289210
_symmetry_space_group_name_H-M "P 42/N"
_symmetry_group_IT_number 86
_space_group.IT_coordinate_system_code '2'
_symmetry_cell_setting 'tetragonal'
loop_
_space_group_symop_operation_xyz
x,y,z
-y,1/2+x,1/2+z
1/2-x,1/2-y,z
1/2+y,-x,1/2+z
-x,-y,-z
y,1/2-x,1/2-z
1/2+x,1/2+y,-z
1/2-y,x,1/2-z
loop_
_atom_site_type_symbol
_atom_site_label
_atom_site_fract_x
_atom_site_fract_y
_atom_site_fract_z
Si Si1 0.510284 0.867688 0.762158
Si Si2 0.539085 0.981464 0.943519
Si Si3 0.571282 0.307837 0.639738
Si Si4 0.750000 0.250000 0.905123
Si Si5 0.250000 0.250000 0.116022
Si Si6 0.046669 0.545360 0.663139
O O1 0.678640 0.956613 0.748611
O O2 0.434366 0.906303 0.814911
O O3 0.396962 0.924113 0.718325
O O4 0.683703 0.105368 0.936111
O O5 0.390606 0.012942 0.906657
O O6 0.612412 0.818669 0.919853
O O7 0.500000 0.000000 0.000000
O O8 0.750000 0.250000 0.624928
O O9 0.489140 0.142133 0.656304
O O10 0.606341 0.314347 0.871942
O O11 0.337497 0.390567 0.148682
#
# Coordination Sequence:
#
# PCOD9545056 Si02
#       6
#     8   8   8   4   4   8
#     4  11  21  37  65  98 134 184 229 264 326 416
#     4  11  25  44  70  97 134 176 233 285 349 399
#     4  12  24  41  67 103 136 173 231 285 333 394
#     4  10  26  44  66  96 130 176 226 278 342 418
#     4  10  20  44  69  98 130 188 231 270 318 428
#     4  11  23  42  68  96 139 175 222 273 336 411
#
# _framework density 21.262015000000002
#
# number of rings (size 3 to 8) (size 9 to 14) (size 15 to 20)
#    0.000    1.000    4.000    3.600    2.800    4.000 
#    0.000    4.000    0.000    0.000    0.000    0.000 
#    0.000    0.000    0.000    0.000    0.000    0.000 
#
# Total GULP energy -223286.562358 kJ/mol
# GULP energy per Si atom -5582.164059 kJ/mol
# Density = 2.121362 g / cm^3
# Si number density = 21.262015 Si / 1000 Ang^3
#
#
#
# Elastic Constant Matrix: (Units=GPa)
#
#
# Indices 1 2 3 4 5 6 
#
# 1 63.4811 2.2283 31.8568 0.0000 0.0000 -2.8672
# 2 2.2283 63.4811 31.8568 0.0000 0.0000 2.8672
# 3 31.8568 31.8568 180.2132 0.0000 0.0000 0.0000
# 4 0.0000 0.0000 0.0000 3.6704 0.0000 0.0000
# 5 0.0000 0.0000 0.0000 0.0000 3.6704 0.0000
# 6 -2.8672 2.8672 0.0000 0.0000 0.0000 30.0386
#
#
#
# Elastic Compliance Matrix: (Units=1/GPa)
#
#
# Indices 1 2 3 4 5 6 
#
# 1 0.017420 0.000947 -0.003247 0.000000 0.000000 0.001572
# 2 0.000947 0.017420 -0.003247 0.000000 0.000000 -0.001572
# 3 -0.003247 -0.003247 0.006697 0.000000 0.000000 0.000000
# 4 0.000000 0.000000 0.000000 0.272451 0.000000 0.000000
# 5 0.000000 0.000000 0.000000 0.000000 0.272451 0.000000
# 6 0.001572 -0.001572 0.000000 0.000000 0.000000 0.033591
#
#
# Mechanical properties :
#
#
# Convention : Reuss Voigt Hill
#
# Bulk Modulus (GPa) = 32.84802 48.78434 40.81618
# Shear Modulus (GPa) = 7.79703 23.55811 15.67757
#
# Velocity S-wave (km/s) = 1.91705 3.33226 2.71837
# Velocity P-wave (km/s) = 4.51473 6.14813 5.39362
#
# Compressibility (1/GPa) = 0.03044323
#
# Stress axis : x y z
#
# Youngs Moduli (GPa) = 57.40592 57.40592 149.32410
#
# Poissons Ratio (x) = -0.05435 0.48481
# Poissons Ratio (y) = -0.05435 0.48481
# Poissons Ratio (z) = 0.18638 0.18638
#
# Static dielectric constant tensor:
#      x y z
#    x 1.751050 0.000000 0.000000 
#    y 0.000000 1.751050 0.000000 
#    z 0.000000 0.000000 1.771000 
# 
# From -- ./inp_files/4538.got.cif
#   From: 2010.05.17/outbox.cif.g08.bks.cpg/sg86_3_cif.got.tgz:4538.got - 2010.06.03 19:03:11.
