data_PCOD9545370
_publ_section_title
;
Structure prediction by ZEFSAII (Michael W. Deem and Ramdas Pophale) SiO2 
 PCOD9545370
Probable space group: P 42/N
;
_chemical_formula_sum "Si O2"
_cell_formula_units_Z 26
_cell_length_a 11.556376
_cell_length_b 11.556376
_cell_length_c 7.768043
_cell_angle_alpha 90.000000
_cell_angle_beta 90.000000
_cell_angle_gamma 90.000000
_cell_volume 1037.420793
_symmetry_space_group_name_H-M "P 42/N"
_symmetry_group_IT_number 86
_space_group.IT_coordinate_system_code '2'
_symmetry_cell_setting 'tetragonal'
loop_
_space_group_symop_operation_xyz
x,y,z
-y,1/2+x,1/2+z
1/2-x,1/2-y,z
1/2+y,-x,1/2+z
-x,-y,-z
y,1/2-x,1/2-z
1/2+x,1/2+y,-z
1/2-y,x,1/2-z
loop_
_atom_site_type_symbol
_atom_site_label
_atom_site_fract_x
_atom_site_fract_y
_atom_site_fract_z
Si Si1 0.750000 0.750000 0.250000
Si Si2 0.496073 0.806013 0.409159
Si Si3 0.810701 0.929010 0.742467
Si Si4 0.612839 0.424972 0.459094
O O1 0.628929 0.772441 0.352121
O O2 0.509860 0.869424 0.593275
O O3 0.414302 0.699734 0.465624
O O4 0.438418 0.859958 0.240670
O O5 0.883591 0.814906 0.700756
O O6 0.793996 0.010393 0.578725
O O7 0.500000 0.500000 0.500000
#
# Coordination Sequence:
#
# PCOD9545370 Si02
#       4
#     2   8   8   8
#     4  12  20  44  78 108 144 174 260 328 346 436
#     4  12  25  46  72 111 148 194 249 311 376 449
#     4  11  23  42  75 108 139 191 251 309 367 433
#     4  12  26  45  73 106 147 194 243 309 377 438
#
# _framework density 25.062156000000002
#
# number of rings (size 3 to 8) (size 9 to 14) (size 15 to 20)
#    0.000    0.308    6.154    3.692    0.000    3.692 
#    0.000    4.615    0.000    0.000    0.000    0.000 
#    0.000    0.000    0.000    0.000    0.000    0.000 
#
# Total GULP energy -145461.080841 kJ/mol
# GULP energy per Si atom -5594.656955 kJ/mol
# Density = 2.500511 g / cm^3
# Si number density = 25.062156 Si / 1000 Ang^3
#
#
#
# Elastic Constant Matrix: (Units=GPa)
#
#
# Indices 1 2 3 4 5 6 
#
# 1 69.8709 15.5879 39.2487 0.0000 0.0000 -10.2470
# 2 15.5879 69.8709 39.2487 0.0000 0.0000 10.2470
# 3 39.2487 39.2487 209.3930 0.0000 0.0000 0.0000
# 4 0.0000 0.0000 0.0000 51.4100 0.0000 0.0000
# 5 0.0000 0.0000 0.0000 0.0000 51.4100 0.0000
# 6 -10.2470 10.2470 0.0000 0.0000 0.0000 26.0491
#
#
#
# Elastic Compliance Matrix: (Units=1/GPa)
#
#
# Indices 1 2 3 4 5 6 
#
# 1 0.017885 -0.003750 -0.002650 0.000000 0.000000 0.008511
# 2 -0.003750 0.017885 -0.002650 0.000000 0.000000 -0.008511
# 3 -0.002650 -0.002650 0.005769 0.000000 0.000000 0.000000
# 4 0.000000 0.000000 0.000000 0.019451 0.000000 0.000000
# 5 0.000000 0.000000 0.000000 0.000000 0.019451 0.000000
# 6 0.008511 -0.008511 0.000000 0.000000 0.000000 0.045085
#
#
# Mechanical properties :
#
#
# Convention : Reuss Voigt Hill
#
# Bulk Modulus (GPa) = 42.65962 59.70061 51.18012
# Shear Modulus (GPa) = 33.01669 42.77713 37.89691
#
# Velocity S-wave (km/s) = 3.63353 4.13588 3.89281
# Velocity P-wave (km/s) = 5.88743 6.83228 6.37738
#
# Compressibility (1/GPa) = 0.02344137
#
# Stress axis : x y z
#
# Youngs Moduli (GPa) = 55.91227 55.91227 173.34146
#
# Poissons Ratio (x) = 0.20967 0.45927
# Poissons Ratio (y) = 0.20967 0.45927
# Poissons Ratio (z) = 0.14814 0.14814
#
# Static dielectric constant tensor:
#      x y z
#    x 2.071800 0.000000 0.000000 
#    y 0.000000 2.071800 0.000000 
#    z 0.000000 0.000000 2.094070 
# 
# From -- ./inp_files/799.got.cif
#   From: 2010.05.17/outbox.cif.g08.bks.cpg/sg86_1_cif.got.tgz:799.got - 2010.06.03 19:03:11.
