data_PCOD9545402
_publ_section_title
;
Structure prediction by ZEFSAII (Michael W. Deem and Ramdas Pophale) SiO2 
 PCOD9545402
Probable space group: P 42/N
;
_chemical_formula_sum "Si O2"
_cell_formula_units_Z 28
_cell_length_a 8.735538
_cell_length_b 8.735538
_cell_length_c 18.270060
_cell_angle_alpha 90.000000
_cell_angle_beta 90.000000
_cell_angle_gamma 90.000000
_cell_volume 1394.181412
_symmetry_space_group_name_H-M "P 42/N"
_symmetry_group_IT_number 86
_space_group.IT_coordinate_system_code '2'
_symmetry_cell_setting 'tetragonal'
loop_
_space_group_symop_operation_xyz
x,y,z
-y,1/2+x,1/2+z
1/2-x,1/2-y,z
1/2+y,-x,1/2+z
-x,-y,-z
y,1/2-x,1/2-z
1/2+x,1/2+y,-z
1/2-y,x,1/2-z
loop_
_atom_site_type_symbol
_atom_site_label
_atom_site_fract_x
_atom_site_fract_y
_atom_site_fract_z
Si Si1 0.406235 0.832845 0.584565
Si Si2 0.691329 0.580786 0.049682
Si Si3 0.750000 0.250000 0.127584
Si Si4 0.723708 0.499637 0.751915
O O1 0.250000 0.750000 0.561595
O O2 0.547783 0.770797 0.535933
O O3 0.421077 0.814334 0.671174
O O4 0.403499 0.010807 0.564232
O O5 0.750000 0.750000 0.072384
O O6 0.741307 0.417108 0.086899
O O7 0.606654 0.242319 0.182126
O O8 0.590949 0.620214 0.736492
#
# Coordination Sequence:
#
# PCOD9545402 Si02
#       4
#     8   8   4   8
#     4  11  24  46  68 102 135 183 235 284 353 429
#     4  11  27  45  70 102 142 183 234 296 355 423
#     4  12  24  46  66 108 140 180 240 296 350 438
#     4  11  25  42  68  98 138 181 226 285 355 419
#
# _framework density 20.083468
#
# number of rings (size 3 to 8) (size 9 to 14) (size 15 to 20)
#    0.000    0.857    5.714    0.000    8.000    1.143 
#    0.000    0.000    0.000    0.000    0.000    0.000 
#    0.000    0.000    0.000    0.000    0.000    0.000 
#
# Total GULP energy -156047.318478 kJ/mol
# GULP energy per Si atom -5573.118517 kJ/mol
# Density = 2.003776 g / cm^3
# Si number density = 20.083468 Si / 1000 Ang^3
#
#
#
# Elastic Constant Matrix: (Units=GPa)
#
#
# Indices 1 2 3 4 5 6 
#
# 1 104.0269 35.9742 13.9587 0.0000 0.0000 3.6472
# 2 35.9742 104.0269 13.9587 0.0000 0.0000 -3.6472
# 3 13.9587 13.9587 60.7921 0.0000 0.0000 0.0000
# 4 0.0000 0.0000 0.0000 31.9072 0.0000 0.0000
# 5 0.0000 0.0000 0.0000 0.0000 31.9072 0.0000
# 6 3.6472 -3.6472 0.0000 0.0000 0.0000 53.3755
#
#
#
# Elastic Compliance Matrix: (Units=1/GPa)
#
#
# Indices 1 2 3 4 5 6 
#
# 1 0.011144 -0.003659 -0.001719 0.000000 0.000000 -0.001012
# 2 -0.003659 0.011144 -0.001719 0.000000 0.000000 0.001012
# 3 -0.001719 -0.001719 0.017239 0.000000 0.000000 0.000000
# 4 0.000000 0.000000 0.000000 0.031341 0.000000 0.000000
# 5 0.000000 0.000000 0.000000 0.000000 0.031341 0.000000
# 6 -0.001012 0.001012 0.000000 0.000000 0.000000 0.018873
#
#
# Mechanical properties :
#
#
# Convention : Reuss Voigt Hill
#
# Bulk Modulus (GPa) = 39.47145 44.06991 41.77068
# Shear Modulus (GPa) = 34.78989 37.10161 35.94575
#
# Velocity S-wave (km/s) = 4.16656 4.30277 4.23521
# Velocity P-wave (km/s) = 6.54549 6.83199 6.69027
#
# Compressibility (1/GPa) = 0.02533477
#
# Stress axis : x y z
#
# Youngs Moduli (GPa) = 89.73260 89.73260 58.00856
#
# Poissons Ratio (x) = 0.32830 0.09970
# Poissons Ratio (y) = 0.32830 0.09970
# Poissons Ratio (z) = 0.15423 0.15423
#
# Static dielectric constant tensor:
#      x y z
#    x 1.712140 0.000000 0.000000 
#    y 0.000000 1.712140 0.000000 
#    z 0.000000 0.000000 1.727310 
# 
# From -- ./inp_files/3267.got.cif
#   From: 2010.05.17/outbox.cif.g08.bks.cpg/sg86_2_cif.got.tgz:3267.got - 2010.06.03 19:03:11.
