data_PCOD9545857
_publ_section_title
;
Structure prediction by ZEFSAII (Michael W. Deem and Ramdas Pophale) SiO2 
 PCOD9545857
Probable space group: I 4/M
;
_chemical_formula_sum "Si O2"
_cell_formula_units_Z 80
_cell_length_a 15.306265
_cell_length_b 15.306265
_cell_length_c 14.679917
_cell_angle_alpha 90.000000
_cell_angle_beta 90.000000
_cell_angle_gamma 90.000000
_cell_volume 3439.236619
_symmetry_space_group_name_H-M "I 4/M"
_symmetry_group_IT_number 87
_symmetry_cell_setting 'tetragonal'
loop_
_space_group_symop_operation_xyz
x,y,z
-y,x,z
-x,-y,z
y,-x,z
-x,-y,-z
y,-x,-z
x,y,-z
-y,x,-z
1/2+x,1/2+y,1/2+z
1/2-y,1/2+x,1/2+z
1/2-x,1/2-y,1/2+z
1/2+y,1/2-x,1/2+z
1/2-x,1/2-y,1/2-z
1/2+y,1/2-x,1/2-z
1/2+x,1/2+y,1/2-z
1/2-y,1/2+x,1/2-z
loop_
_atom_site_type_symbol
_atom_site_label
_atom_site_fract_x
_atom_site_fract_y
_atom_site_fract_z
Si Si1 0.886553 0.913428 0.789514
Si Si2 0.699386 0.744198 0.655033
Si Si3 0.368516 0.942056 0.390127
Si Si4 0.451460 0.130033 0.389762
Si Si5 0.180123 0.870389 0.398685
O O1 0.822802 0.857398 0.852991
O O2 0.872879 0.890844 0.681864
O O3 0.985014 0.882401 0.807216
O O4 0.750000 0.750000 0.750000
O O5 0.608567 0.795393 0.651803
O O6 0.769968 0.789244 0.591673
O O7 0.369002 0.935646 0.500000
O O8 0.447828 0.879242 0.358012
O O9 0.268795 0.920270 0.365870
O O10 0.401843 0.038996 0.367828
O O11 0.451547 0.139161 0.500000
O O12 0.153721 0.902113 0.500000
#
# Coordination Sequence:
#
# PCOD9545857 Si02
#       5
#    16  16  16  16  16
#     4  10  24  43  59  79 117 166 204 235 279 341
#     4  10  22  36  56  84 116 154 195 233 287 347
#     4   8  17  32  56  89 117 141 181 238 304 355
#     4   9  17  34  58  84 116 152 186 239 301 353
#     4  10  21  37  62  92 116 145 192 249 300 348
#
# _framework density 23.260977
#
# number of rings (size 3 to 8) (size 9 to 14) (size 15 to 20)
#    0.000    2.600    0.000    1.800    8.400    0.800 
#    0.000    1.000    0.000    9.600    0.000    5.600 
#    0.000    0.000    0.000    0.000    0.000    0.000 
#
# Total GULP energy -223286.385680 kJ/mol
# GULP energy per Si atom -5582.159642 kJ/mol
# Density = 2.320803 g / cm^3
# Si number density = 23.260977 Si / 1000 Ang^3
#
#
#
# Elastic Constant Matrix: (Units=GPa)
#
#
# Indices 1 2 3 4 5 6 
#
# 1 53.7893 15.7968 -9.0085 0.0000 0.0000 -1.0180
# 2 15.7968 53.7893 -9.0085 0.0000 0.0000 1.0180
# 3 -9.0085 -9.0085 38.2399 0.0000 0.0000 0.0000
# 4 0.0000 0.0000 0.0000 99.6163 0.0000 0.0000
# 5 0.0000 0.0000 0.0000 0.0000 99.6163 0.0000
# 6 -1.0180 1.0180 0.0000 0.0000 0.0000 38.3251
#
#
#
# Elastic Compliance Matrix: (Units=1/GPa)
#
#
# Indices 1 2 3 4 5 6 
#
# 1 0.020831 -0.005527 0.003605 0.000000 0.000000 0.000700
# 2 -0.005527 0.020831 0.003605 0.000000 0.000000 -0.000700
# 3 0.003605 0.003605 0.027849 0.000000 0.000000 0.000000
# 4 0.000000 0.000000 0.000000 0.010039 0.000000 0.000000
# 5 0.000000 0.000000 0.000000 0.000000 0.010039 0.000000
# 6 0.000700 -0.000700 0.000000 0.000000 0.000000 0.026130
#
#
# Mechanical properties :
#
#
# Convention : Reuss Voigt Hill
#
# Bulk Modulus (GPa) = 13.72134 15.70865 14.71499
# Shear Modulus (GPa) = 36.59120 57.38078 46.98599
#
# Velocity S-wave (km/s) = 3.97050 4.97210 4.49926
# Velocity P-wave (km/s) = 5.18956 6.30320 5.77329
#
# Compressibility (1/GPa) = 0.07287920
#
# Stress axis : x y z
#
# Youngs Moduli (GPa) = 48.00457 48.00457 35.90741
#
# Poissons Ratio (x) = 0.26533 -0.12946
# Poissons Ratio (y) = 0.26533 -0.12946
# Poissons Ratio (z) = -0.17307 -0.17307
#
# Static dielectric constant tensor:
#      x y z
#    x 1.892580 0.000000 0.000000 
#    y 0.000000 1.892580 0.000000 
#    z 0.000000 0.000000 1.938550 
# 
# From -- ./inp_files/5093.got.cif
#   From: 2010.05.17/outbox.cif.g08.bks.cpg/sg87_3_cif.got.tgz:5093.got - 2010.06.03 19:07:00.
