data_PCOD9545646
_publ_section_title
;
Structure prediction by ZEFSAII (Michael W. Deem and Ramdas Pophale) SiO2 
 PCOD9545646
Probable space group: I 4/M
;
_chemical_formula_sum "Si O2"
_cell_formula_units_Z 52
_cell_length_a 14.572575
_cell_length_b 14.572575
_cell_length_c 10.395655
_cell_angle_alpha 90.000000
_cell_angle_beta 90.000000
_cell_angle_gamma 90.000000
_cell_volume 2207.620694
_symmetry_space_group_name_H-M "I 4/M"
_symmetry_group_IT_number 87
_symmetry_cell_setting 'tetragonal'
loop_
_space_group_symop_operation_xyz
x,y,z
-y,x,z
-x,-y,z
y,-x,z
-x,-y,-z
y,-x,-z
x,y,-z
-y,x,-z
1/2+x,1/2+y,1/2+z
1/2-y,1/2+x,1/2+z
1/2-x,1/2-y,1/2+z
1/2+y,1/2-x,1/2+z
1/2-x,1/2-y,1/2-z
1/2+y,1/2-x,1/2-z
1/2+x,1/2+y,1/2-z
1/2-y,1/2+x,1/2-z
loop_
_atom_site_type_symbol
_atom_site_label
_atom_site_fract_x
_atom_site_fract_y
_atom_site_fract_z
Si Si1 0.000000 0.500000 0.250000
Si Si2 0.384764 0.604049 0.500000
Si Si3 0.888208 0.762537 0.760030
Si Si4 0.417874 0.369446 0.000000
Si Si5 0.679343 0.917871 0.848978
O O1 0.950652 0.426366 0.160574
O O2 0.378019 0.492832 0.500000
O O3 0.331628 0.638360 0.374016
O O4 0.825498 0.672328 0.741429
O O5 0.888478 0.815621 0.626379
O O6 0.993597 0.732961 0.793813
O O7 0.528070 0.378578 0.000000
O O8 0.699597 0.901132 0.000000
#
# Coordination Sequence:
#
# PCOD9545646 Si02
#       5
#     4   8  16   8  16
#     4   8  18  28  60  86 120 170 208 230 296 370
#     4  11  24  44  66  89 120 166 220 263 298 358
#     4  11  22  40  66  93 128 164 204 251 316 372
#     4  11  24  44  66  89 120 166 220 263 298 358
#     4  10  19  36  59  94 131 158 197 254 308 371
#
# _framework density 23.554772
#
# number of rings (size 3 to 8) (size 9 to 14) (size 15 to 20)
#    0.000    1.538    3.077    2.308    0.000    3.692 
#    0.000    9.231    0.000    0.000    0.000    0.000 
#    0.000    0.000    0.000    0.000    0.000    0.000 
#
# Total GULP energy -145586.085316 kJ/mol
# GULP energy per Si atom -5599.464820 kJ/mol
# Density = 2.350116 g / cm^3
# Si number density = 23.554772 Si / 1000 Ang^3
#
#
#
# Elastic Constant Matrix: (Units=GPa)
#
#
# Indices 1 2 3 4 5 6 
#
# 1 110.5503 18.2100 49.9610 0.0000 0.0000 -4.8764
# 2 18.2100 110.5503 49.9610 0.0000 0.0000 4.8764
# 3 49.9610 49.9610 198.8742 0.0000 0.0000 0.0000
# 4 0.0000 0.0000 0.0000 39.5912 0.0000 0.0000
# 5 0.0000 0.0000 0.0000 0.0000 39.5912 0.0000
# 6 -4.8764 4.8764 0.0000 0.0000 0.0000 35.8918
#
#
#
# Elastic Compliance Matrix: (Units=1/GPa)
#
#
# Indices 1 2 3 4 5 6 
#
# 1 0.010317 -0.000670 -0.002424 0.000000 0.000000 0.001493
# 2 -0.000670 0.010317 -0.002424 0.000000 0.000000 -0.001493
# 3 -0.002424 -0.002424 0.006246 0.000000 0.000000 0.000000
# 4 0.000000 0.000000 0.000000 0.025258 0.000000 0.000000
# 5 0.000000 0.000000 0.000000 0.000000 0.025258 0.000000
# 6 0.001493 -0.001493 0.000000 0.000000 0.000000 0.028267
#
#
# Mechanical properties :
#
#
# Convention : Reuss Voigt Hill
#
# Bulk Modulus (GPa) = 63.10724 72.91543 68.01133
# Shear Modulus (GPa) = 40.99037 43.13771 42.06404
#
# Velocity S-wave (km/s) = 4.17611 4.28410 4.23045
# Velocity P-wave (km/s) = 7.07835 7.44945 7.26627
#
# Compressibility (1/GPa) = 0.01584604
#
# Stress axis : x y z
#
# Youngs Moduli (GPa) = 96.92607 96.92607 160.10289
#
# Poissons Ratio (x) = 0.06494 0.38802
# Poissons Ratio (y) = 0.06494 0.38802
# Poissons Ratio (z) = 0.23490 0.23490
#
# Static dielectric constant tensor:
#      x y z
#    x 1.925860 0.000000 0.000000 
#    y 0.000000 1.925860 0.000000 
#    z 0.000000 0.000000 1.788030 
# 
# From -- ./inp_files/670.got.cif
#   From: 2010.05.17/outbox.cif.g08.bks.cpg/sg87_1_cif.got.tgz:670.got - 2010.06.03 19:07:00.
