data_PCOD9545182
_publ_section_title
;
Structure prediction by ZEFSAII (Michael W. Deem and Ramdas Pophale) SiO2 
 PCOD9545182
Probable space group: P 42/N
;
_chemical_formula_sum "Si O2"
_cell_formula_units_Z 48
_cell_length_a 12.809784
_cell_length_b 12.809784
_cell_length_c 13.363219
_cell_angle_alpha 90.000000
_cell_angle_beta 90.000000
_cell_angle_gamma 90.000000
_cell_volume 2192.778171
_symmetry_space_group_name_H-M "P 42/N"
_symmetry_group_IT_number 86
_space_group.IT_coordinate_system_code '2'
_symmetry_cell_setting 'tetragonal'
loop_
_space_group_symop_operation_xyz
x,y,z
-y,1/2+x,1/2+z
1/2-x,1/2-y,z
1/2+y,-x,1/2+z
-x,-y,-z
y,1/2-x,1/2-z
1/2+x,1/2+y,-z
1/2-y,x,1/2-z
loop_
_atom_site_type_symbol
_atom_site_label
_atom_site_fract_x
_atom_site_fract_y
_atom_site_fract_z
Si Si1 0.832609 0.989891 0.776171
Si Si2 0.797174 0.914957 0.241574
Si Si3 0.762276 0.127835 0.609601
Si Si4 0.631939 0.923775 0.894674
Si Si5 0.502630 0.129573 0.933559
Si Si6 0.470892 0.955185 0.392883
O O1 0.744997 0.963075 0.858849
O O2 0.837718 0.904470 0.686414
O O3 0.947446 0.990794 0.820645
O O4 0.809832 0.096241 0.716769
O O5 0.870132 0.817437 0.273789
O O6 0.797639 0.990857 0.337433
O O7 0.853940 0.967582 0.147357
O O8 0.750000 0.250000 0.598708
O O9 0.828946 0.081252 0.518241
O O10 0.650101 0.073560 0.607339
O O11 0.550338 0.021057 0.893133
O O12 0.607270 0.881634 0.005992
O O13 0.500000 0.000000 0.500000
#
# Coordination Sequence:
#
# PCOD9545182 Si02
#       6
#     8   8   8   8   8   8
#     4  11  22  46  67 105 138 183 232 294 351 428
#     4  11  25  45  68  96 138 187 233 291 365 433
#     4  11  26  46  73 108 141 188 240 290 370 431
#     4  10  22  41  71  96 138 181 233 290 361 419
#     4  10  22  45  67  99 137 186 232 289 361 437
#     4  12  27  45  69 106 144 181 241 303 352 434
#
# _framework density 21.890041
#
# number of rings (size 3 to 8) (size 9 to 14) (size 15 to 20)
#    0.000    1.167    3.333    1.000    7.000    0.333 
#    3.000    0.000    0.000    0.000    0.000    0.000 
#    0.000    0.000    0.000    0.000    0.000    0.000 
#
# Total GULP energy -268270.100773 kJ/mol
# GULP energy per Si atom -5588.960433 kJ/mol
# Density = 2.184022 g / cm^3
# Si number density = 21.890041 Si / 1000 Ang^3
#
#
#
# Elastic Constant Matrix: (Units=GPa)
#
#
# Indices 1 2 3 4 5 6 
#
# 1 79.5871 19.9783 35.3519 0.0000 0.0000 -0.6673
# 2 19.9783 79.5871 35.3519 0.0000 0.0000 0.6673
# 3 35.3519 35.3519 110.7825 0.0000 0.0000 0.0000
# 4 0.0000 0.0000 0.0000 15.1714 0.0000 0.0000
# 5 0.0000 0.0000 0.0000 0.0000 15.1714 0.0000
# 6 -0.6673 0.6673 0.0000 0.0000 0.0000 18.1518
#
#
#
# Elastic Compliance Matrix: (Units=1/GPa)
#
#
# Indices 1 2 3 4 5 6 
#
# 1 0.014888 -0.001902 -0.004144 0.000000 0.000000 0.000617
# 2 -0.001902 0.014888 -0.004144 0.000000 0.000000 -0.000617
# 3 -0.004144 -0.004144 0.011672 0.000000 0.000000 0.000000
# 4 0.000000 0.000000 0.000000 0.065914 0.000000 0.000000
# 5 0.000000 0.000000 0.000000 0.000000 0.065914 0.000000
# 6 0.000617 -0.000617 0.000000 0.000000 0.000000 0.055136
#
#
# Mechanical properties :
#
#
# Convention : Reuss Voigt Hill
#
# Bulk Modulus (GPa) = 47.46527 50.14678 48.80602
# Shear Modulus (GPa) = 19.54543 21.65053 20.59798
#
# Velocity S-wave (km/s) = 2.99137 3.14834 3.07086
# Velocity P-wave (km/s) = 5.80186 6.01451 5.90914
#
# Compressibility (1/GPa) = 0.02106804
#
# Stress axis : x y z
#
# Youngs Moduli (GPa) = 67.16732 67.16732 85.67827
#
# Poissons Ratio (x) = 0.12773 0.35506
# Poissons Ratio (y) = 0.12773 0.35506
# Poissons Ratio (z) = 0.27835 0.27835
#
# Static dielectric constant tensor:
#      x y z
#    x 1.795350 0.000000 0.000000 
#    y 0.000000 1.795350 0.000000 
#    z 0.000000 0.000000 1.847060 
# 
# From -- ./inp_files/2283.got.cif
#   From: 2010.05.17/outbox.cif.g08.bks.cpg/sg86_2_cif.got.tgz:2283.got - 2010.06.03 19:03:11.
