data_PCOD9545602
_publ_section_title
;
Structure prediction by ZEFSAII (Michael W. Deem and Ramdas Pophale) SiO2 
 PCOD9545602
Probable space group: I 4/M
;
_chemical_formula_sum "Si O2"
_cell_formula_units_Z 116
_cell_length_a 28.025057
_cell_length_b 28.025057
_cell_length_c 8.406619
_cell_angle_alpha 90.000000
_cell_angle_beta 90.000000
_cell_angle_gamma 90.000000
_cell_volume 6602.590675
_symmetry_space_group_name_H-M "I 4/M"
_symmetry_group_IT_number 87
_symmetry_cell_setting 'tetragonal'
loop_
_space_group_symop_operation_xyz
x,y,z
-y,x,z
-x,-y,z
y,-x,z
-x,-y,-z
y,-x,-z
x,y,-z
-y,x,-z
1/2+x,1/2+y,1/2+z
1/2-y,1/2+x,1/2+z
1/2-x,1/2-y,1/2+z
1/2+y,1/2-x,1/2+z
1/2-x,1/2-y,1/2-z
1/2+y,1/2-x,1/2-z
1/2+x,1/2+y,1/2-z
1/2-y,1/2+x,1/2-z
loop_
_atom_site_type_symbol
_atom_site_label
_atom_site_fract_x
_atom_site_fract_y
_atom_site_fract_z
Si Si1 0.000000 0.000000 0.705564
Si Si2 0.664613 0.410075 0.185938
Si Si3 0.239143 0.556304 0.310027
Si Si4 0.552621 0.130287 0.808101
Si Si5 0.550959 0.239182 0.190790
Si Si6 0.445865 0.130466 0.692208
Si Si7 0.000560 0.107177 0.187461
Si Si8 0.595192 0.333025 0.689712
O O1 0.058583 0.997156 0.714941
O O2 0.720170 0.412033 0.230523
O O3 0.638504 0.452565 0.282051
O O4 0.638650 0.361141 0.231433
O O5 0.658633 0.419964 0.000000
O O6 0.242120 0.561289 0.500000
O O7 0.249067 0.501175 0.264584
O O8 0.184744 0.566059 0.257377
O O9 0.564100 0.185014 0.762354
O O10 0.499402 0.119353 0.748362
O O11 0.591727 0.092419 0.751115
O O12 0.551939 0.128675 0.000000
O O13 0.586783 0.279621 0.249656
O O14 0.546889 0.241382 0.000000
O O15 0.445816 0.130340 0.500000
O O16 0.953407 0.137442 0.226258
O O17 0.998434 0.093441 0.000000
O O18 0.600894 0.333277 0.500000
#
# Coordination Sequence:
#
# PCOD9545602 Si02
#       8
#     4  16  16  16  16  16  16  16
#     4  12  21  36  53  66  93 136 177 206 257 324
#     4  12  24  35  50  73 103 134 174 227 277 319
#     4  10  19  34  55  76 102 139 183 223 263 317
#     4   9  19  35  55  83 117 148 178 216 261 309
#     4  10  19  33  54  78 105 137 176 223 272 316
#     4   9  19  35  56  83 114 149 183 214 255 313
#     4  11  21  34  51  69  94 133 175 216 263 321
#     4  11  22  35  53  73  99 135 178 223 270 322
#
# _framework density 17.568860999999998
#
# number of rings (size 3 to 8) (size 9 to 14) (size 15 to 20)
#    0.000    1.655    2.759    3.103    0.000    2.483 
#    0.000    1.724    0.000    0.828    0.000    0.000 
#    0.000    0.000    0.000    0.000    0.000    0.000 
#
# Total GULP energy -323404.960863 kJ/mol
# GULP energy per Si atom -5575.947601 kJ/mol
# Density = 1.752887 g / cm^3
# Si number density = 17.568861 Si / 1000 Ang^3
#
#
#
# Elastic Constant Matrix: (Units=GPa)
#
#
# Indices 1 2 3 4 5 6 
#
# 1 111.0498 76.1755 10.7929 0.0000 0.0000 -0.4726
# 2 76.1755 111.0498 10.7929 0.0000 0.0000 0.4726
# 3 10.7929 10.7929 14.9705 0.0000 0.0000 0.0000
# 4 0.0000 0.0000 0.0000 3.9212 0.0000 0.0000
# 5 0.0000 0.0000 0.0000 0.0000 3.9212 0.0000
# 6 -0.4726 0.4726 0.0000 0.0000 0.0000 24.8022
#
#
#
# Elastic Compliance Matrix: (Units=1/GPa)
#
#
# Indices 1 2 3 4 5 6 
#
# 1 0.017257 -0.011432 -0.004200 0.000000 0.000000 0.000547
# 2 -0.011432 0.017257 -0.004200 0.000000 0.000000 -0.000547
# 3 -0.004200 -0.004200 0.072854 0.000000 0.000000 0.000000
# 4 0.000000 0.000000 0.000000 0.255027 0.000000 0.000000
# 5 0.000000 0.000000 0.000000 0.000000 0.255027 0.000000
# 6 0.000547 -0.000547 0.000000 0.000000 0.000000 0.040340
#
#
# Mechanical properties :
#
#
# Convention : Reuss Voigt Hill
#
# Bulk Modulus (GPa) = 14.76989 48.06586 31.41787
# Shear Modulus (GPa) = 6.94451 15.81615 11.38033
#
# Velocity S-wave (km/s) = 1.99031 3.00365 2.54787
# Velocity P-wave (km/s) = 3.70228 6.28070 5.15529
#
# Compressibility (1/GPa) = 0.06770533
#
# Stress axis : x y z
#
# Youngs Moduli (GPa) = 57.94651 57.94651 13.72614
#
# Poissons Ratio (x) = 0.66244 0.05765
# Poissons Ratio (y) = 0.66244 0.05765
# Poissons Ratio (z) = 0.24336 0.24336
#
# Static dielectric constant tensor:
#      x y z
#    x 1.588310 0.000000 0.000000 
#    y 0.000000 1.588310 0.000000 
#    z 0.000000 0.000000 1.625000 
# 
# From -- ./inp_files/1730.got.cif
#   From: 2010.05.17/outbox.cif.g08.bks.cpg/sg87_1_cif.got.tgz:1730.got - 2010.06.03 19:07:00.
