data_PCOD9545821
_publ_section_title
;
Structure prediction by ZEFSAII (Michael W. Deem and Ramdas Pophale) SiO2 
 PCOD9545821
Probable space group: I 4/M
;
_chemical_formula_sum "Si O2"
_cell_formula_units_Z 80
_cell_length_a 24.314097
_cell_length_b 24.314097
_cell_length_c 7.396700
_cell_angle_alpha 90.000000
_cell_angle_beta 90.000000
_cell_angle_gamma 90.000000
_cell_volume 4372.746437
_symmetry_space_group_name_H-M "I 4/M"
_symmetry_group_IT_number 87
_symmetry_cell_setting 'tetragonal'
loop_
_space_group_symop_operation_xyz
x,y,z
-y,x,z
-x,-y,z
y,-x,z
-x,-y,-z
y,-x,-z
x,y,-z
-y,x,-z
1/2+x,1/2+y,1/2+z
1/2-y,1/2+x,1/2+z
1/2-x,1/2-y,1/2+z
1/2+y,1/2-x,1/2+z
1/2-x,1/2-y,1/2-z
1/2+y,1/2-x,1/2-z
1/2+x,1/2+y,1/2-z
1/2-y,1/2+x,1/2-z
loop_
_atom_site_type_symbol
_atom_site_label
_atom_site_fract_x
_atom_site_fract_y
_atom_site_fract_z
Si Si1 0.298371 0.871916 0.215811
Si Si2 0.113216 0.116367 0.500000
Si Si3 0.785336 0.614016 0.711594
Si Si4 0.683950 0.320120 0.280920
Si Si5 0.008750 0.258140 0.780877
Si Si6 0.337282 0.502948 0.000000
O O1 0.355122 0.842890 0.265906
O O2 0.247003 0.833079 0.274648
O O3 0.290108 0.935259 0.273480
O O4 0.296033 0.872568 0.000000
O O5 0.134227 0.148915 0.676618
O O6 0.048083 0.115682 0.500000
O O7 0.140400 0.057711 0.500000
O O8 0.773919 0.609616 0.500000
O O9 0.737344 0.655536 0.779760
O O10 0.782847 0.550845 0.776510
O O11 0.681137 0.324102 0.500000
O O12 0.011551 0.200760 0.675874
O O13 0.009733 0.252425 0.000000
#
# Coordination Sequence:
#
# PCOD9545821 Si02
#       6
#    16   8  16  16  16   8
#     4  10  21  35  56  84 117 149 189 240 291 349
#     4  12  24  37  64  86 112 156 204 240 288 345
#     4  10  21  35  56  84 117 149 189 240 291 349
#     4  10  21  37  55  85 118 149 185 237 299 353
#     4  10  22  40  57  82 118 159 194 233 291 354
#     4  12  24  39  64  84 114 157 202 242 288 344
#
# _framework density 18.295138999999999
#
# number of rings (size 3 to 8) (size 9 to 14) (size 15 to 20)
#    0.000    1.600    4.000    0.600    5.600    0.200 
#    0.000    0.000    0.000    0.600    0.000    7.000 
#    0.000    0.000    0.000    0.000    0.000    0.000 
#
# Total GULP energy -222988.725134 kJ/mol
# GULP energy per Si atom -5574.718128 kJ/mol
# Density = 1.825350 g / cm^3
# Si number density = 18.295139 Si / 1000 Ang^3
#
#
#
# Elastic Constant Matrix: (Units=GPa)
#
#
# Indices 1 2 3 4 5 6 
#
# 1 90.5544 73.7462 8.0696 0.0000 0.0000 10.8625
# 2 73.7462 90.5544 8.0696 0.0000 0.0000 -10.8625
# 3 8.0696 8.0696 61.1420 0.0000 0.0000 0.0000
# 4 0.0000 0.0000 0.0000 -1.9622 0.0000 0.0000
# 5 0.0000 0.0000 0.0000 0.0000 -1.9622 0.0000
# 6 10.8625 -10.8625 0.0000 0.0000 0.0000 22.6790
#
#
#
# Elastic Compliance Matrix: (Units=1/GPa)
#
#
# Indices 1 2 3 4 5 6 
#
# 1 0.081177 -0.075010 -0.000814 0.000000 0.000000 -0.074808
# 2 -0.075010 0.081177 -0.000814 0.000000 0.000000 0.074808
# 3 -0.000814 -0.000814 0.016570 0.000000 0.000000 0.000000
# 4 0.000000 0.000000 0.000000 -0.509643 0.000000 0.000000
# 5 0.000000 0.000000 0.000000 0.000000 -0.509643 0.000000
# 6 -0.074808 0.074808 0.000000 0.000000 0.000000 0.115755
#
#
# Mechanical properties :
#
#
# Convention : Reuss Voigt Hill
#
# Bulk Modulus (GPa) = 38.99009 46.89127 42.94068
# Shear Modulus (GPa) = -8.88442 13.90864 2.51211
#
# Velocity S-wave (km/s) = -2.20606 2.76023 1.17307
# Velocity P-wave (km/s) = 3.85604 5.98704 5.03556
#
# Compressibility (1/GPa) = 0.02564754
#
# Stress axis : x y z
#
# Youngs Moduli (GPa) = 12.31882 12.31882 60.34930
#
# Poissons Ratio (x) = 0.92404 0.04911
# Poissons Ratio (y) = 0.92404 0.04911
# Poissons Ratio (z) = 0.01003 0.01003
#
# Static dielectric constant tensor:
#      x y z
#    x 1.632770 0.000000 0.000000 
#    y 0.000000 1.632770 0.000000 
#    z 0.000000 0.000000 1.734000 
# 
# From -- ./inp_files/1284.got.cif
#   From: 2010.05.17/outbox.cif.g08.bks.cpg/sg87_1_cif.got.tgz:1284.got - 2010.06.03 19:07:00.
