data_PCOD9545775
_publ_section_title
;
Structure prediction by ZEFSAII (Michael W. Deem and Ramdas Pophale) SiO2 
 PCOD9545775
Probable space group: I 4/M
;
_chemical_formula_sum "Si O2"
_cell_formula_units_Z 96
_cell_length_a 24.547981
_cell_length_b 24.547981
_cell_length_c 8.553321
_cell_angle_alpha 90.000000
_cell_angle_beta 90.000000
_cell_angle_gamma 90.000000
_cell_volume 5154.260069
_symmetry_space_group_name_H-M "I 4/M"
_symmetry_group_IT_number 87
_symmetry_cell_setting 'tetragonal'
loop_
_space_group_symop_operation_xyz
x,y,z
-y,x,z
-x,-y,z
y,-x,z
-x,-y,-z
y,-x,-z
x,y,-z
-y,x,-z
1/2+x,1/2+y,1/2+z
1/2-y,1/2+x,1/2+z
1/2-x,1/2-y,1/2+z
1/2+y,1/2-x,1/2+z
1/2-x,1/2-y,1/2-z
1/2+y,1/2-x,1/2-z
1/2+x,1/2+y,1/2-z
1/2-y,1/2+x,1/2-z
loop_
_atom_site_type_symbol
_atom_site_label
_atom_site_fract_x
_atom_site_fract_y
_atom_site_fract_z
Si Si1 0.794174 0.954802 0.187121
Si Si2 0.731925 0.664365 0.812909
Si Si3 0.512730 0.915946 0.687690
Si Si4 0.456415 0.205870 0.309292
Si Si5 0.236161 0.665155 0.310992
Si Si6 0.586653 0.517969 0.811285
O O1 0.777208 0.895407 0.246676
O O2 0.854615 0.969529 0.243319
O O3 0.751016 0.000222 0.242615
O O4 0.793397 0.954506 0.000000
O O5 0.685940 0.706331 0.754223
O O6 0.789696 0.691209 0.764280
O O7 0.730561 0.662227 0.000000
O O8 0.508038 0.917453 0.500000
O O9 0.457410 0.939777 0.760677
O O10 0.525919 0.854672 0.738852
O O11 0.455937 0.205969 0.500000
O O12 0.395274 0.220465 0.258306
O O13 0.239121 0.665439 0.500000
O O14 0.540972 0.562456 0.764847
O O15 0.589679 0.518760 0.000000
#
# Coordination Sequence:
#
# PCOD9545775 Si02
#       6
#    16  16  16  16  16  16
#     4  11  23  37  57  85 117 151 190 234 278 334
#     4  10  21  37  59  86 114 148 189 234 287 340
#     4  10  20  37  59  83 113 149 188 232 281 334
#     4   9  21  38  57  83 114 148 187 232 280 330
#     4   9  19  39  62  82 111 150 190 234 285 339
#     4   9  20  40  62  84 115 150 185 233 288 338
#
# _framework density 18.625368999999999
#
# number of rings (size 3 to 8) (size 9 to 14) (size 15 to 20)
#    0.000    2.333    0.000    2.500    4.667    1.333 
#    0.000    5.833    0.000    0.000    0.000    0.000 
#    0.000    0.000    0.000    0.000    0.000    0.000 
#
# Total GULP energy -268017.578187 kJ/mol
# GULP energy per Si atom -5583.699546 kJ/mol
# Density = 1.858298 g / cm^3
# Si number density = 18.625369 Si / 1000 Ang^3
#
#
#
# Elastic Constant Matrix: (Units=GPa)
#
#
# Indices 1 2 3 4 5 6 
#
# 1 173.1424 113.7101 24.3878 0.0000 0.0000 0.6775
# 2 113.7101 173.1424 24.3878 0.0000 0.0000 -0.6775
# 3 24.3878 24.3878 22.1068 0.0000 0.0000 0.0000
# 4 0.0000 0.0000 0.0000 23.0592 0.0000 0.0000
# 5 0.0000 0.0000 0.0000 0.0000 23.0592 0.0000
# 6 0.6775 -0.6775 0.0000 0.0000 0.0000 13.0834
#
#
#
# Elastic Compliance Matrix: (Units=1/GPa)
#
#
# Indices 1 2 3 4 5 6 
#
# 1 0.010568 -0.006277 -0.004734 0.000000 0.000000 -0.000872
# 2 -0.006277 0.010568 -0.004734 0.000000 0.000000 0.000872
# 3 -0.004734 -0.004734 0.055679 0.000000 0.000000 0.000000
# 4 0.000000 0.000000 0.000000 0.043367 0.000000 0.000000
# 5 0.000000 0.000000 0.000000 0.000000 0.043367 0.000000
# 6 -0.000872 0.000872 0.000000 0.000000 0.000000 0.076523
#
#
# Mechanical properties :
#
#
# Convention : Reuss Voigt Hill
#
# Bulk Modulus (GPa) = 22.06221 77.04032 49.55126
# Shear Modulus (GPa) = 17.44157 25.56742 21.50450
#
# Velocity S-wave (km/s) = 3.06345 3.70904 3.40160
# Velocity P-wave (km/s) = 4.93801 7.73276 6.48766
#
# Compressibility (1/GPa) = 0.04532637
#
# Stress axis : x y z
#
# Youngs Moduli (GPa) = 94.62172 94.62172 17.95994
#
# Poissons Ratio (x) = 0.59398 0.08502
# Poissons Ratio (y) = 0.59398 0.08502
# Poissons Ratio (z) = 0.44792 0.44792
#
# Static dielectric constant tensor:
#      x y z
#    x 1.621180 0.000000 0.000000 
#    y 0.000000 1.621180 0.000000 
#    z 0.000000 0.000000 1.634280 
# 
# From -- ./inp_files/1431.got.cif
#   From: 2010.05.17/outbox.cif.g08.bks.cpg/sg87_1_cif.got.tgz:1431.got - 2010.06.03 19:07:00.
