data_PCOD9545399
_publ_section_title
;
Structure prediction by ZEFSAII (Michael W. Deem and Ramdas Pophale) SiO2 
 PCOD9545399
Probable space group: P 42/N
;
_chemical_formula_sum "Si O2"
_cell_formula_units_Z 26
_cell_length_a 11.819851
_cell_length_b 11.819851
_cell_length_c 6.698555
_cell_angle_alpha 90.000000
_cell_angle_beta 90.000000
_cell_angle_gamma 90.000000
_cell_volume 935.847601
_symmetry_space_group_name_H-M "P 42/N"
_symmetry_group_IT_number 86
_space_group.IT_coordinate_system_code '2'
_symmetry_cell_setting 'tetragonal'
loop_
_space_group_symop_operation_xyz
x,y,z
-y,1/2+x,1/2+z
1/2-x,1/2-y,z
1/2+y,-x,1/2+z
-x,-y,-z
y,1/2-x,1/2-z
1/2+x,1/2+y,-z
1/2-y,x,1/2-z
loop_
_atom_site_type_symbol
_atom_site_label
_atom_site_fract_x
_atom_site_fract_y
_atom_site_fract_z
Si Si1 0.963760 0.690571 0.013814
Si Si2 0.464562 0.654839 0.539049
Si Si3 0.750000 0.750000 0.250000
Si Si4 0.581988 0.401504 0.933070
O O1 0.886724 0.592605 0.910781
O O2 0.864835 0.756565 0.127440
O O3 0.042862 0.792527 0.936956
O O4 0.059701 0.618955 0.129314
O O5 0.442965 0.629597 0.299924
O O6 0.436573 0.786827 0.556204
O O7 0.500000 0.500000 0.000000
#
# Coordination Sequence:
#
# PCOD9545399 Si02
#       4
#     8   8   2   8
#     4  11  24  44  74 107 154 199 268 317 406 465
#     4  11  26  46  73 118 154 202 269 335 397 493
#     4  12  20  48  76 102 148 220 250 324 396 480
#     4  12  25  48  80 111 158 207 265 328 410 482
#
# _framework density 27.782301
#
# number of rings (size 3 to 8) (size 9 to 14) (size 15 to 20)
#    0.000    0.615    3.077    4.615    0.000    9.846 
#    0.000    3.077    0.000    0.000    0.000    0.000 
#    0.000    0.000    0.000    0.000    0.000    0.000 
#
# Total GULP energy -145417.234912 kJ/mol
# GULP energy per Si atom -5592.970574 kJ/mol
# Density = 2.771907 g / cm^3
# Si number density = 27.782301 Si / 1000 Ang^3
#
#
#
# Elastic Constant Matrix: (Units=GPa)
#
#
# Indices 1 2 3 4 5 6 
#
# 1 270.8896 83.9352 35.1960 0.0000 0.0000 -3.2664
# 2 83.9352 270.8896 35.1960 0.0000 0.0000 3.2664
# 3 35.1960 35.1960 89.4657 0.0000 0.0000 0.0000
# 4 0.0000 0.0000 0.0000 31.6639 0.0000 0.0000
# 5 0.0000 0.0000 0.0000 0.0000 31.6639 0.0000
# 6 -3.2664 3.2664 0.0000 0.0000 0.0000 70.9791
#
#
#
# Elastic Compliance Matrix: (Units=1/GPa)
#
#
# Indices 1 2 3 4 5 6 
#
# 1 0.004207 -0.001150 -0.001203 0.000000 0.000000 0.000247
# 2 -0.001150 0.004207 -0.001203 0.000000 0.000000 -0.000247
# 3 -0.001203 -0.001203 0.012124 0.000000 0.000000 0.000000
# 4 0.000000 0.000000 0.000000 0.031582 0.000000 0.000000
# 5 0.000000 0.000000 0.000000 0.000000 0.031582 0.000000
# 6 0.000247 -0.000247 0.000000 0.000000 0.000000 0.014111
#
#
# Mechanical properties :
#
#
# Convention : Reuss Voigt Hill
#
# Bulk Modulus (GPa) = 74.47632 104.43324 89.45478
# Shear Modulus (GPa) = 45.70403 58.65589 52.17996
#
# Velocity S-wave (km/s) = 4.06036 4.59984 4.33849
# Velocity P-wave (km/s) = 6.98908 8.11682 7.57397
#
# Compressibility (1/GPa) = 0.01342709
#
# Stress axis : x y z
#
# Youngs Moduli (GPa) = 237.68844 237.68844 82.48333
#
# Poissons Ratio (x) = 0.27342 0.09919
# Poissons Ratio (y) = 0.27342 0.09919
# Poissons Ratio (z) = 0.28584 0.28584
#
# Static dielectric constant tensor:
#      x y z
#    x 2.141000 0.000000 0.000000 
#    y 0.000000 2.141000 0.000000 
#    z 0.000000 0.000000 2.742990 
# 
# From -- ./inp_files/763.got.cif
#   From: 2010.05.17/outbox.cif.g08.bks.cpg/sg86_1_cif.got.tgz:763.got - 2010.06.03 19:03:11.
