data_PCOD9545196
_publ_section_title
;
Structure prediction by ZEFSAII (Michael W. Deem and Ramdas Pophale) SiO2 
 PCOD9545196
Probable space group: P 42/N
;
_chemical_formula_sum "Si O2"
_cell_formula_units_Z 50
_cell_length_a 14.017645
_cell_length_b 14.017645
_cell_length_c 12.311236
_cell_angle_alpha 90.000000
_cell_angle_beta 90.000000
_cell_angle_gamma 90.000000
_cell_volume 2419.088578
_symmetry_space_group_name_H-M "P 42/N"
_symmetry_group_IT_number 86
_space_group.IT_coordinate_system_code '2'
_symmetry_cell_setting 'tetragonal'
loop_
_space_group_symop_operation_xyz
x,y,z
-y,1/2+x,1/2+z
1/2-x,1/2-y,z
1/2+y,-x,1/2+z
-x,-y,-z
y,1/2-x,1/2-z
1/2+x,1/2+y,-z
1/2-y,x,1/2-z
loop_
_atom_site_type_symbol
_atom_site_label
_atom_site_fract_x
_atom_site_fract_y
_atom_site_fract_z
Si Si1 0.278589 0.980055 0.017761
Si Si2 0.215475 0.449239 0.601837
Si Si3 0.424928 0.988648 0.194127
Si Si4 0.250000 0.250000 0.250000
Si Si5 0.394554 0.124994 0.391621
Si Si6 0.579472 0.628157 0.333479
Si Si7 0.698832 0.344943 0.372907
O O1 0.357568 0.028319 0.098340
O O2 0.178048 0.010145 0.067489
O O3 0.306967 0.869047 0.028019
O O4 0.290224 0.026567 0.900994
O O5 0.163171 0.416155 0.493353
O O6 0.153754 0.421595 0.707208
O O7 0.316006 0.394407 0.619875
O O8 0.237338 0.563228 0.599832
O O9 0.419664 0.045327 0.304240
O O10 0.531762 0.980937 0.151580
O O11 0.385135 0.881215 0.209488
O O12 0.327189 0.198647 0.326622
O O13 0.750000 0.250000 0.332009
#
# Coordination Sequence:
#
# PCOD9545196 Si02
#       7
#     8   8   8   2   8   8   8
#     4  10  22  42  70  93 133 173 224 273 340 395
#     4  11  26  41  69  97 138 173 228 269 344 404
#     4   9  23  41  68  93 133 173 219 272 346 390
#     4  12  20  36  64  98 128 160 228 264 342 380
#     4  12  23  40  67 104 130 172 221 293 326 402
#     4  11  23  45  65  96 134 185 213 273 340 413
#     4   9  22  48  61  98 130 177 224 270 332 412
#
# _framework density 20.668941
#
# number of rings (size 3 to 8) (size 9 to 14) (size 15 to 20)
#    0.960    0.640    1.600    2.400    2.240    2.240 
#    8.640    0.000    0.000    0.000    0.000    0.000 
#    0.000    0.000    0.000    0.000    0.000    0.000 
#
# Total GULP energy -278994.600183 kJ/mol
# GULP energy per Si atom -5579.892004 kJ/mol
# Density = 2.062190 g / cm^3
# Si number density = 20.668941 Si / 1000 Ang^3
#
#
#
# Elastic Constant Matrix: (Units=GPa)
#
#
# Indices 1 2 3 4 5 6 
#
# 1 38.9672 19.8954 1.0051 0.0000 0.0000 -1.8679
# 2 19.8954 38.9672 1.0051 0.0000 0.0000 1.8679
# 3 1.0051 1.0051 67.0991 0.0000 0.0000 0.0000
# 4 0.0000 0.0000 0.0000 6.5408 0.0000 0.0000
# 5 0.0000 0.0000 0.0000 0.0000 6.5408 0.0000
# 6 -1.8679 1.8679 0.0000 0.0000 0.0000 16.7395
#
#
#
# Elastic Compliance Matrix: (Units=1/GPa)
#
#
# Indices 1 2 3 4 5 6 
#
# 1 0.035301 -0.018304 -0.000255 0.000000 0.000000 0.005982
# 2 -0.018304 0.035301 -0.000255 0.000000 0.000000 -0.005982
# 3 -0.000255 -0.000255 0.014911 0.000000 0.000000 0.000000
# 4 0.000000 0.000000 0.000000 0.152886 0.000000 0.000000
# 5 0.000000 0.000000 0.000000 0.000000 0.152886 0.000000
# 6 0.005982 -0.005982 0.000000 0.000000 0.000000 0.061074
#
#
# Mechanical properties :
#
#
# Convention : Reuss Voigt Hill
#
# Bulk Modulus (GPa) = 20.88235 20.98275 20.93255
# Shear Modulus (GPa) = 9.88242 14.17274 12.02758
#
# Velocity S-wave (km/s) = 2.18899 2.62143 2.41491
# Velocity P-wave (km/s) = 4.06375 4.39732 4.23382
#
# Compressibility (1/GPa) = 0.04788733
#
# Stress axis : x y z
#
# Youngs Moduli (GPa) = 28.32754 28.32754 67.06475
#
# Poissons Ratio (x) = 0.51851 0.01708
# Poissons Ratio (y) = 0.51851 0.01708
# Poissons Ratio (z) = 0.00721 0.00721
#
# Static dielectric constant tensor:
#      x y z
#    x 1.764970 0.000000 0.000000 
#    y 0.000000 1.764970 0.000000 
#    z 0.000000 0.000000 1.702280 
# 
# From -- ./inp_files/2322.got.cif
#   From: 2010.05.17/outbox.cif.g08.bks.cpg/sg86_2_cif.got.tgz:2322.got - 2010.06.03 19:03:11.
