data_PCOD9545294
_publ_section_title
;
Structure prediction by ZEFSAII (Michael W. Deem and Ramdas Pophale) SiO2 
 PCOD9545294
Probable space group: P 42/N
;
_chemical_formula_sum "Si O2"
_cell_formula_units_Z 32
_cell_length_a 8.697136
_cell_length_b 8.697136
_cell_length_c 18.198751
_cell_angle_alpha 90.000000
_cell_angle_beta 90.000000
_cell_angle_gamma 90.000000
_cell_volume 1376.556703
_symmetry_space_group_name_H-M "P 42/N"
_symmetry_group_IT_number 86
_space_group.IT_coordinate_system_code '2'
_symmetry_cell_setting 'tetragonal'
loop_
_space_group_symop_operation_xyz
x,y,z
-y,1/2+x,1/2+z
1/2-x,1/2-y,z
1/2+y,-x,1/2+z
-x,-y,-z
y,1/2-x,1/2-z
1/2+x,1/2+y,-z
1/2-y,x,1/2-z
loop_
_atom_site_type_symbol
_atom_site_label
_atom_site_fract_x
_atom_site_fract_y
_atom_site_fract_z
Si Si1 0.008214 0.660132 0.400205
Si Si2 0.877243 0.524721 0.743089
Si Si3 0.972540 0.501002 0.896045
Si Si4 0.482140 0.256772 0.002830
O O1 0.047317 0.564037 0.325713
O O2 0.132831 0.601000 0.458031
O O3 0.017205 0.842423 0.387679
O O4 0.851626 0.615585 0.443088
O O5 0.693530 0.549359 0.740932
O O6 0.909131 0.441246 0.819551
O O7 0.905481 0.659914 0.929858
O O8 0.936341 0.375083 0.956680
#
# Coordination Sequence:
#
# PCOD9545294 Si02
#       4
#     8   8   8   8
#     4  11  24  45  72 104 137 186 232 286 342 416
#     4  11  26  44  63  98 146 186 227 288 349 404
#     4  11  24  45  72 104 137 186 232 286 342 416
#     4  10  24  44  70 104 136 174 232 294 338 402
#
# _framework density 23.246407000000001
#
# number of rings (size 3 to 8) (size 9 to 14) (size 15 to 20)
#    0.000    1.250    2.500    1.500    3.500   12.000 
#    0.000    0.000    0.000    0.000    0.000    0.000 
#    0.000    0.000    0.000    0.000    0.000    0.000 
#
# Total GULP energy -178789.597344 kJ/mol
# GULP energy per Si atom -5587.174917 kJ/mol
# Density = 2.319350 g / cm^3
# Si number density = 23.246407 Si / 1000 Ang^3
#
#
#
# Elastic Constant Matrix: (Units=GPa)
#
#
# Indices 1 2 3 4 5 6 
#
# 1 76.0049 9.4429 40.6713 0.0000 0.0000 -4.7857
# 2 9.4429 76.0049 40.6713 0.0000 0.0000 4.7857
# 3 40.6713 40.6713 176.8055 0.0000 0.0000 0.0000
# 4 0.0000 0.0000 0.0000 29.7908 0.0000 0.0000
# 5 0.0000 0.0000 0.0000 0.0000 29.7908 0.0000
# 6 -4.7857 4.7857 0.0000 0.0000 0.0000 26.2616
#
#
#
# Elastic Compliance Matrix: (Units=1/GPa)
#
#
# Indices 1 2 3 4 5 6 
#
# 1 0.015206 -0.000222 -0.003447 0.000000 0.000000 0.002811
# 2 -0.000222 0.015206 -0.003447 0.000000 0.000000 -0.002811
# 3 -0.003447 -0.003447 0.007242 0.000000 0.000000 0.000000
# 4 0.000000 0.000000 0.000000 0.033567 0.000000 0.000000
# 5 0.000000 0.000000 0.000000 0.000000 0.033567 0.000000
# 6 0.002811 -0.002811 0.000000 0.000000 0.000000 0.039103
#
#
# Mechanical properties :
#
#
# Convention : Reuss Voigt Hill
#
# Bulk Modulus (GPa) = 42.69340 56.70960 49.70150
# Shear Modulus (GPa) = 30.13308 33.03730 31.58519
#
# Velocity S-wave (km/s) = 3.60425 3.77394 3.69007
# Velocity P-wave (km/s) = 5.97715 6.59076 6.29144
#
# Compressibility (1/GPa) = 0.02342283
#
# Stress axis : x y z
#
# Youngs Moduli (GPa) = 65.76299 65.76299 138.08806
#
# Poissons Ratio (x) = 0.01458 0.47598
# Poissons Ratio (y) = 0.01458 0.47598
# Poissons Ratio (z) = 0.22668 0.22668
#
# Static dielectric constant tensor:
#      x y z
#    x 1.917280 0.000000 0.000000 
#    y 0.000000 1.917280 0.000000 
#    z 0.000000 0.000000 1.936520 
# 
# From -- ./inp_files/3826.got.cif
#   From: 2010.05.17/outbox.cif.g08.bks.cpg/sg86_2_cif.got.tgz:3826.got - 2010.06.03 19:03:11.
