data_PCOD9545960
_publ_section_title
;
Structure prediction by ZEFSAII (Michael W. Deem and Ramdas Pophale) SiO2 
 PCOD9545960
Probable space group: I 4/M
;
_chemical_formula_sum "Si O2"
_cell_formula_units_Z 48
_cell_length_a 8.209797
_cell_length_b 8.209797
_cell_length_c 33.052504
_cell_angle_alpha 90.000000
_cell_angle_beta 90.000000
_cell_angle_gamma 90.000000
_cell_volume 2227.764114
_symmetry_space_group_name_H-M "I 4/M"
_symmetry_group_IT_number 87
_symmetry_cell_setting 'tetragonal'
loop_
_space_group_symop_operation_xyz
x,y,z
-y,x,z
-x,-y,z
y,-x,z
-x,-y,-z
y,-x,-z
x,y,-z
-y,x,-z
1/2+x,1/2+y,1/2+z
1/2-y,1/2+x,1/2+z
1/2-x,1/2-y,1/2+z
1/2+y,1/2-x,1/2+z
1/2-x,1/2-y,1/2-z
1/2+y,1/2-x,1/2-z
1/2+x,1/2+y,1/2-z
1/2-y,1/2+x,1/2-z
loop_
_atom_site_type_symbol
_atom_site_label
_atom_site_fract_x
_atom_site_fract_y
_atom_site_fract_z
Si Si1 0.245919 0.106937 0.373261
Si Si2 0.764236 0.426797 0.000000
Si Si3 0.169048 0.214766 0.793377
Si Si4 0.500000 0.000000 0.070134
O O1 0.274471 0.154664 0.326700
O O2 0.403440 0.127782 0.401277
O O3 0.081448 0.204388 0.381848
O O4 0.692112 0.610530 0.000000
O O5 0.875151 0.412076 0.039577
O O6 0.250000 0.250000 0.750000
O O7 0.973906 0.218527 0.798626
#
# Coordination Sequence:
#
# PCOD9545960 Si02
#       4
#    16   8  16   8
#     4  11  23  40  64  93 126 170 224 280 338 405
#     4  10  22  42  68  98 134 180 228 277 342 419
#     4  11  24  41  62  92 130 173 220 273 337 404
#     4  11  22  38  66  99 132 172 226 289 348 403
#
# _framework density 21.546268000000001
#
# number of rings (size 3 to 8) (size 9 to 14) (size 15 to 20)
#    0.000    1.167    0.000    6.000    0.000    8.667 
#    0.000    0.000    0.000   34.000    0.000    0.000 
#    0.000    0.000    0.000    0.000    0.000    0.000 
#
# Total GULP energy -133925.465097 kJ/mol
# GULP energy per Si atom -5580.227712 kJ/mol
# Density = 2.149723 g / cm^3
# Si number density = 21.546268 Si / 1000 Ang^3
#
#
#
# Elastic Constant Matrix: (Units=GPa)
#
#
# Indices 1 2 3 4 5 6 
#
# 1 94.9370 45.2042 58.2829 0.0000 0.0000 -5.7490
# 2 45.2042 94.9370 58.2829 0.0000 0.0000 5.7490
# 3 58.2829 58.2829 187.9437 0.0000 0.0000 0.0000
# 4 0.0000 0.0000 0.0000 36.8623 0.0000 0.0000
# 5 0.0000 0.0000 0.0000 0.0000 36.8623 0.0000
# 6 -5.7490 5.7490 0.0000 0.0000 0.0000 15.9988
#
#
#
# Elastic Compliance Matrix: (Units=1/GPa)
#
#
# Indices 1 2 3 4 5 6 
#
# 1 0.015773 -0.006157 -0.002982 0.000000 0.000000 0.007880
# 2 -0.006157 0.015773 -0.002982 0.000000 0.000000 -0.007880
# 3 -0.002982 -0.002982 0.007170 0.000000 0.000000 0.000000
# 4 0.000000 0.000000 0.000000 0.027128 0.000000 0.000000
# 5 0.000000 0.000000 0.000000 0.000000 0.027128 0.000000
# 6 0.007880 -0.007880 0.000000 0.000000 0.000000 0.068168
#
#
# Mechanical properties :
#
#
# Convention : Reuss Voigt Hill
#
# Bulk Modulus (GPa) = 69.08823 77.92860 73.50842
# Shear Modulus (GPa) = 26.28733 32.34786 29.31760
#
# Velocity S-wave (km/s) = 3.49670 3.87889 3.69274
# Velocity P-wave (km/s) = 6.95968 7.50384 7.23688
#
# Compressibility (1/GPa) = 0.01447424
#
# Stress axis : x y z
#
# Youngs Moduli (GPa) = 63.40082 63.40081 139.46549
#
# Poissons Ratio (x) = 0.39034 0.41589
# Poissons Ratio (y) = 0.39034 0.41589
# Poissons Ratio (z) = 0.18906 0.18906
#
# Static dielectric constant tensor:
#      x y z
#    x 1.849020 0.000000 0.000000 
#    y 0.000000 1.849020 0.000000 
#    z 0.000000 0.000000 1.797330 
# 
# From -- ./inp_files/6397.got.cif
#   From: 2010.05.17/outbox.cif.g08.bks.cpg/sg87_4_cif.got.tgz:6397.got - 2010.06.03 19:07:00.
