data_PCOD9545001
_publ_section_title
;
Structure prediction by ZEFSAII (Michael W. Deem and Ramdas Pophale) SiO2 
 PCOD9545001
Probable space group: P 42/N
;
_chemical_formula_sum "Si O2"
_cell_formula_units_Z 48
_cell_length_a 9.096201
_cell_length_b 9.096201
_cell_length_c 27.508785
_cell_angle_alpha 90.000000
_cell_angle_beta 90.000000
_cell_angle_gamma 90.000000
_cell_volume 2276.100876
_symmetry_space_group_name_H-M "P 42/N"
_symmetry_group_IT_number 86
_space_group.IT_coordinate_system_code '2'
_symmetry_cell_setting 'tetragonal'
loop_
_space_group_symop_operation_xyz
x,y,z
-y,1/2+x,1/2+z
1/2-x,1/2-y,z
1/2+y,-x,1/2+z
-x,-y,-z
y,1/2-x,1/2-z
1/2+x,1/2+y,-z
1/2-y,x,1/2-z
loop_
_atom_site_type_symbol
_atom_site_label
_atom_site_fract_x
_atom_site_fract_y
_atom_site_fract_z
Si Si1 0.403450 0.822266 0.317145
Si Si2 0.491834 0.309063 0.932594
Si Si3 0.342033 0.531374 0.473654
Si Si4 0.750000 0.750000 0.911776
Si Si5 0.009520 0.639840 0.651031
Si Si6 0.250000 0.750000 0.224212
Si Si7 0.703673 0.965380 0.091857
O O1 0.250000 0.750000 0.334834
O O2 0.387881 0.785700 0.260112
O O3 0.521737 0.745065 0.351647
O O4 0.427647 0.994695 0.327520
O O5 0.591726 0.380092 0.891841
O O6 0.420432 0.157888 0.913570
O O7 0.349299 0.414230 0.937084
O O8 0.568027 0.271749 0.983457
O O9 0.500000 0.500000 0.500000
O O10 0.276445 0.389546 0.446378
O O11 0.386443 0.646600 0.432658
O O12 0.736101 0.611177 0.876232
O O13 0.107766 0.715725 0.692028
#
# Coordination Sequence:
#
# PCOD9545001 Si02
#       7
#     8   8   8   4   8   4   8
#     4   9  21  44  67  94 123 172 227 275 345 409
#     4   9  20  38  62  95 127 168 221 267 320 394
#     4  10  20  37  62  94 133 180 213 262 329 408
#     4  12  26  40  63  98 142 178 225 270 352 404
#     4  11  25  44  65 101 134 175 222 291 340 410
#     4  10  26  42  68  98 132 168 234 284 356 424
#     4   9  17  36  65  89 127 164 218 272 318 382
#
# _framework density 21.088697
#
# number of rings (size 3 to 8) (size 9 to 14) (size 15 to 20)
#    0.500    1.667    0.000    3.000    4.667    3.333 
#    0.000    6.667    0.000    0.000    0.000    0.000 
#    0.000    0.000    0.000    0.000    0.000    0.000 
#
# Total GULP energy -267779.808588 kJ/mol
# GULP energy per Si atom -5578.746012 kJ/mol
# Density = 2.104070 g / cm^3
# Si number density = 21.088697 Si / 1000 Ang^3
#
#
#
# Elastic Constant Matrix: (Units=GPa)
#
#
# Indices 1 2 3 4 5 6 
#
# 1 49.9430 36.2681 48.3194 0.0000 0.0000 9.9224
# 2 36.2681 49.9430 48.3194 0.0000 0.0000 -9.9224
# 3 48.3194 48.3194 140.1909 0.0000 0.0000 0.0000
# 4 0.0000 0.0000 0.0000 23.7438 0.0000 0.0000
# 5 0.0000 0.0000 0.0000 0.0000 23.7438 0.0000
# 6 9.9224 -9.9224 0.0000 0.0000 0.0000 24.1207
#
#
#
# Elastic Compliance Matrix: (Units=1/GPa)
#
#
# Indices 1 2 3 4 5 6 
#
# 1 0.100173 -0.081271 -0.006515 0.000000 0.000000 -0.074640
# 2 -0.081271 0.100173 -0.006515 0.000000 0.000000 0.074640
# 3 -0.006515 -0.006515 0.011624 0.000000 0.000000 0.000000
# 4 0.000000 0.000000 0.000000 0.042116 0.000000 0.000000
# 5 0.000000 0.000000 0.000000 0.000000 0.042116 0.000000
# 6 -0.074640 0.074640 0.000000 0.000000 0.000000 0.102867
#
#
# Mechanical properties :
#
#
# Convention : Reuss Voigt Hill
#
# Bulk Modulus (GPa) = 42.79182 56.21008 49.50095
# Shear Modulus (GPa) = 8.39685 21.46631 14.93158
#
# Velocity S-wave (km/s) = 1.99758 3.19393 2.66378
# Velocity P-wave (km/s) = 5.06516 6.34929 5.74323
#
# Compressibility (1/GPa) = 0.02336895
#
# Stress axis : x y z
#
# Youngs Moduli (GPa) = 9.98271 9.98271 86.02694
#
# Poissons Ratio (x) = 0.81130 0.56048
# Poissons Ratio (y) = 0.81130 0.56048
# Poissons Ratio (z) = 0.06504 0.06504
#
# Static dielectric constant tensor:
#      x y z
#    x 1.779200 0.000000 0.000000 
#    y 0.000000 1.779200 0.000000 
#    z 0.000000 0.000000 1.754560 
# 
# From -- ./inp_files/5243.got.cif
#   From: 2010.05.17/outbox.cif.g08.bks.cpg/sg86_3_cif.got.tgz:5243.got - 2010.06.03 19:03:11.
