data_PCOD9545021
_publ_section_title
;
Structure prediction by ZEFSAII (Michael W. Deem and Ramdas Pophale) SiO2 
 PCOD9545021
Probable space group: P 42/N
;
_chemical_formula_sum "Si O2"
_cell_formula_units_Z 64
_cell_length_a 21.647723
_cell_length_b 21.647723
_cell_length_c 6.613772
_cell_angle_alpha 90.000000
_cell_angle_beta 90.000000
_cell_angle_gamma 90.000000
_cell_volume 3099.371702
_symmetry_space_group_name_H-M "P 42/N"
_symmetry_group_IT_number 86
_space_group.IT_coordinate_system_code '2'
_symmetry_cell_setting 'tetragonal'
loop_
_space_group_symop_operation_xyz
x,y,z
-y,1/2+x,1/2+z
1/2-x,1/2-y,z
1/2+y,-x,1/2+z
-x,-y,-z
y,1/2-x,1/2-z
1/2+x,1/2+y,-z
1/2-y,x,1/2-z
loop_
_atom_site_type_symbol
_atom_site_label
_atom_site_fract_x
_atom_site_fract_y
_atom_site_fract_z
Si Si1 0.297542 0.891206 0.007964
Si Si2 0.911642 0.606908 0.385709
Si Si3 0.536970 0.218409 0.194887
Si Si4 0.793237 0.565345 0.555979
Si Si5 0.343734 0.220936 0.789227
Si Si6 0.635848 0.007941 0.242740
Si Si7 0.398099 0.550664 0.016022
Si Si8 0.688468 0.393929 0.310442
O O1 0.263554 0.911686 0.212214
O O2 0.336305 0.830459 0.052046
O O3 0.342016 0.946946 0.932791
O O4 0.247206 0.883300 0.831710
O O5 0.863714 0.589852 0.569053
O O6 0.892573 0.675828 0.320681
O O7 0.893765 0.559300 0.203594
O O8 0.981324 0.591641 0.439640
O O9 0.541615 0.156434 0.322477
O O10 0.472776 0.255460 0.220045
O O11 0.550808 0.199557 0.966303
O O12 0.751253 0.621241 0.477888
O O13 0.806079 0.514320 0.378517
O O14 0.281864 0.180721 0.830840
O O15 0.587680 0.046067 0.381649
O O16 0.369141 0.590331 0.833956
#
# Coordination Sequence:
#
# PCOD9545021 Si02
#       8
#     8   8   8   8   8   8   8   8
#     4  11  24  41  67  90 123 167 208 262 320 382
#     4   9  20  35  62  93 127 166 210 265 320 372
#     4  11  22  39  63  90 120 166 212 253 316 382
#     4   9  19  36  61  86 128 165 208 261 315 379
#     4   9  17  33  61  94 125 168 217 263 318 380
#     4  10  20  39  63  89 125 163 210 257 321 378
#     4  11  22  39  65  90 128 170 210 264 317 384
#     4  11  23  41  65  89 123 163 208 255 318 377
#
# _framework density 20.649346999999999
#
# number of rings (size 3 to 8) (size 9 to 14) (size 15 to 20)
#    0.750    1.125    2.500    1.875    1.750    0.000 
#    0.000    6.250    0.000    0.000    0.000    0.000 
#    0.000    0.000    0.000    0.000    0.000    0.000 
#
# Total GULP energy -356312.539347 kJ/mol
# GULP energy per Si atom -5567.383427 kJ/mol
# Density = 2.060235 g / cm^3
# Si number density = 20.649347 Si / 1000 Ang^3
#
#
#
# Elastic Constant Matrix: (Units=GPa)
#
#
# Indices 1 2 3 4 5 6 
#
# 1 68.0751 33.4452 12.6489 0.0000 0.0000 -13.4389
# 2 33.4452 68.0751 12.6489 0.0000 0.0000 13.4389
# 3 12.6489 12.6489 28.8857 0.0000 0.0000 0.0000
# 4 0.0000 0.0000 0.0000 -2.1513 0.0000 0.0000
# 5 0.0000 0.0000 0.0000 0.0000 -2.1513 0.0000
# 6 -13.4389 13.4389 0.0000 0.0000 0.0000 -32.9920
#
#
#
# Elastic Compliance Matrix: (Units=1/GPa)
#
#
# Indices 1 2 3 4 5 6 
#
# 1 0.016498 -0.005442 -0.004842 0.000000 0.000000 -0.008937
# 2 -0.005442 0.016498 -0.004842 0.000000 0.000000 0.008937
# 3 -0.004842 -0.004842 0.038859 0.000000 0.000000 0.000000
# 4 0.000000 0.000000 0.000000 -0.464841 0.000000 0.000000
# 5 0.000000 0.000000 0.000000 0.000000 -0.464841 0.000000
# 6 -0.008937 0.008937 0.000000 0.000000 0.000000 -0.023030
#
#
# Mechanical properties :
#
#
# Convention : Reuss Voigt Hill
#
# Bulk Modulus (GPa) = 24.03489 31.39134 27.71311
# Shear Modulus (GPa) = -5.97560 -0.37271 -3.17416
#
# Velocity S-wave (km/s) = -1.70298 -0.42531 -1.24117
# Velocity P-wave (km/s) = 2.79248 3.87220 3.37579
#
# Compressibility (1/GPa) = 0.04160618
#
# Stress axis : x y z
#
# Youngs Moduli (GPa) = 60.61160 60.61160 25.73376
#
# Poissons Ratio (x) = 0.32983 0.12459
# Poissons Ratio (y) = 0.32983 0.12459
# Poissons Ratio (z) = 0.29346 0.29346
#
# Static dielectric constant tensor:
#      x y z
#    x 1.798020 0.000000 0.000000 
#    y 0.000000 1.798020 0.000000 
#    z 0.000000 0.000000 1.745130 
# 
# From -- ./inp_files/541.got.cif
#   From: 2010.05.17/outbox.cif.g08.bks.cpg/sg86_1_cif.got.tgz:541.got - 2010.06.03 19:03:11.
