data_PCOD9545092
_publ_section_title
;
Structure prediction by ZEFSAII (Michael W. Deem and Ramdas Pophale) SiO2 
 PCOD9545092
Probable space group: P 42/N
;
_chemical_formula_sum "Si O2"
_cell_formula_units_Z 42
_cell_length_a 14.542897
_cell_length_b 14.542897
_cell_length_c 7.963735
_cell_angle_alpha 90.000000
_cell_angle_beta 90.000000
_cell_angle_gamma 90.000000
_cell_volume 1684.296928
_symmetry_space_group_name_H-M "P 42/N"
_symmetry_group_IT_number 86
_space_group.IT_coordinate_system_code '2'
_symmetry_cell_setting 'tetragonal'
loop_
_space_group_symop_operation_xyz
x,y,z
-y,1/2+x,1/2+z
1/2-x,1/2-y,z
1/2+y,-x,1/2+z
-x,-y,-z
y,1/2-x,1/2-z
1/2+x,1/2+y,-z
1/2-y,x,1/2-z
loop_
_atom_site_type_symbol
_atom_site_label
_atom_site_fract_x
_atom_site_fract_y
_atom_site_fract_z
Si Si1 0.236176 0.103432 0.773429
Si Si2 0.742047 0.941243 0.579428
Si Si3 0.750000 0.750000 0.750000
Si Si4 0.610343 0.471200 0.025513
Si Si5 0.443786 0.916781 0.835863
Si Si6 0.550768 0.390574 0.322972
O O1 0.164033 0.174262 0.684844
O O2 0.275547 0.042402 0.618640
O O3 0.179747 0.054601 0.924409
O O4 0.737383 0.836023 0.629642
O O5 0.842080 0.982937 0.601991
O O6 0.676409 0.984874 0.720961
O O7 0.628385 0.404345 0.182997
O O8 0.500000 0.500000 0.000000
O O9 0.622761 0.421460 0.847517
O O10 0.505089 0.009311 0.827450
O O11 0.369509 0.928194 0.983998
#
# Coordination Sequence:
#
# PCOD9545092 Si02
#       6
#     8   8   2   8   8   8
#     4  11  23  37  56  94 141 181 224 285 360 428
#     4  12  23  39  62  92 139 179 222 290 352 426
#     4  12  24  32  58 100 136 176 222 272 376 438
#     4  10  21  38  59  84 128 179 223 269 334 414
#     4  10  21  38  59  89 124 171 225 273 331 407
#     4  10  21  41  59  88 130 172 224 272 332 415
#
# _framework density 24.936221
#
# number of rings (size 3 to 8) (size 9 to 14) (size 15 to 20)
#    0.000    1.333    3.810    3.429    2.667    0.000 
#    3.429    0.000    0.000    0.000    0.000    4.000 
#    0.000    0.000    0.000    0.000    0.000    0.000 
#
# Total GULP energy -233962.743493 kJ/mol
# GULP energy per Si atom -5570.541512 kJ/mol
# Density = 2.487947 g / cm^3
# Si number density = 24.936221 Si / 1000 Ang^3
#
#
#
# Elastic Constant Matrix: (Units=GPa)
#
#
# Indices 1 2 3 4 5 6 
#
# 1 59.6112 40.3137 35.0557 0.0000 0.0000 3.8289
# 2 40.3137 59.6112 35.0557 0.0000 0.0000 -3.8289
# 3 35.0557 35.0557 253.8989 0.0000 0.0000 0.0000
# 4 0.0000 0.0000 0.0000 33.1363 0.0000 0.0000
# 5 0.0000 0.0000 0.0000 0.0000 33.1363 0.0000
# 6 3.8289 -3.8289 0.0000 0.0000 0.0000 35.9832
#
#
#
# Elastic Compliance Matrix: (Units=1/GPa)
#
#
# Indices 1 2 3 4 5 6 
#
# 1 0.032593 -0.021512 -0.001530 0.000000 0.000000 -0.005757
# 2 -0.021512 0.032593 -0.001530 0.000000 0.000000 0.005757
# 3 -0.001530 -0.001530 0.004361 0.000000 0.000000 0.000000
# 4 0.000000 0.000000 0.000000 0.030178 0.000000 0.000000
# 5 0.000000 0.000000 0.000000 0.000000 0.030178 0.000000
# 6 -0.005757 0.005757 0.000000 0.000000 0.000000 0.029016
#
#
# Mechanical properties :
#
#
# Convention : Reuss Voigt Hill
#
# Bulk Modulus (GPa) = 49.01182 65.99682 57.50432
# Shear Modulus (GPa) = 23.27052 37.96426 30.61739
#
# Velocity S-wave (km/s) = 3.05815 3.90610 3.50784
# Velocity P-wave (km/s) = 5.67162 6.84596 6.28627
#
# Compressibility (1/GPa) = 0.02040324
#
# Stress axis : x y z
#
# Youngs Moduli (GPa) = 30.68154 30.68154 229.30247
#
# Poissons Ratio (x) = 0.66002 0.35082
# Poissons Ratio (y) = 0.66002 0.35082
# Poissons Ratio (z) = 0.04694 0.04694
#
# Static dielectric constant tensor:
#      x y z
#    x 2.065090 0.000000 0.000000 
#    y 0.000000 2.065090 0.000000 
#    z 0.000000 0.000000 2.213340 
# 
# From -- ./inp_files/1197.got.cif
#   From: 2010.05.17/outbox.cif.g08.bks.cpg/sg86_1_cif.got.tgz:1197.got - 2010.06.03 19:03:11.
