data_PCOD9545758
_publ_section_title
;
Structure prediction by ZEFSAII (Michael W. Deem and Ramdas Pophale) SiO2 
 PCOD9545758
Probable space group: I 4/M
;
_chemical_formula_sum "Si O2"
_cell_formula_units_Z 84
_cell_length_a 11.249533
_cell_length_b 11.249533
_cell_length_c 27.583883
_cell_angle_alpha 90.000000
_cell_angle_beta 90.000000
_cell_angle_gamma 90.000000
_cell_volume 3490.795361
_symmetry_space_group_name_H-M "I 4/M"
_symmetry_group_IT_number 87
_symmetry_cell_setting 'tetragonal'
loop_
_space_group_symop_operation_xyz
x,y,z
-y,x,z
-x,-y,z
y,-x,z
-x,-y,-z
y,-x,-z
x,y,-z
-y,x,-z
1/2+x,1/2+y,1/2+z
1/2-y,1/2+x,1/2+z
1/2-x,1/2-y,1/2+z
1/2+y,1/2-x,1/2+z
1/2-x,1/2-y,1/2-z
1/2+y,1/2-x,1/2-z
1/2+x,1/2+y,1/2-z
1/2-y,1/2+x,1/2-z
loop_
_atom_site_type_symbol
_atom_site_label
_atom_site_fract_x
_atom_site_fract_y
_atom_site_fract_z
Si Si1 0.317504 0.545765 0.084299
Si Si2 0.411339 0.830859 0.741978
Si Si3 0.807502 0.599179 0.556195
Si Si4 0.688723 0.321945 0.177908
Si Si5 0.500000 0.500000 0.346168
Si Si6 0.112885 0.237472 0.884527
O O1 0.361284 0.418421 0.067283
O O2 0.191236 0.587204 0.066211
O O3 0.325518 0.564045 0.143204
O O4 0.548965 0.858452 0.732717
O O5 0.389089 0.713773 0.775044
O O6 0.325699 0.822433 0.696054
O O7 0.799362 0.570091 0.500000
O O8 0.816878 0.483912 0.589137
O O9 0.686606 0.663393 0.574934
O O10 0.683723 0.208158 0.143207
O O11 0.549530 0.638782 0.350931
#
# Coordination Sequence:
#
# PCOD9545758 Si02
#       6
#    16  16  16  16   4  16
#     4  10  22  40  62  85 115 160 209 257 305 364
#     4  10  22  37  57  88 122 157 199 256 308 368
#     4  10  20  36  59  90 123 158 201 252 309 363
#     4  10  21  38  59  85 120 160 203 250 307 365
#     4   8  16  28  49  84 108 152 196 236 284 344
#     4   9  19  34  57  86 120 159 197 248 297 365
#
# _framework density 24.063285
#
# number of rings (size 3 to 8) (size 9 to 14) (size 15 to 20)
#    0.000    2.286    0.000    1.714    8.000    0.762 
#    0.000    6.667    0.000    8.000    0.000    0.000 
#    0.000    0.000    0.000    0.000    0.000    0.000 
#
# Total GULP energy -234260.764742 kJ/mol
# GULP energy per Si atom -5577.637256 kJ/mol
# Density = 2.400852 g / cm^3
# Si number density = 24.063285 Si / 1000 Ang^3
#
#
#
# Elastic Constant Matrix: (Units=GPa)
#
#
# Indices 1 2 3 4 5 6 
#
# 1 64.8293 5.3595 6.7718 0.0000 0.0000 -3.1843
# 2 5.3595 64.8293 6.7718 0.0000 0.0000 3.1843
# 3 6.7718 6.7718 35.4382 0.0000 0.0000 0.0000
# 4 0.0000 0.0000 0.0000 20.7045 0.0000 0.0000
# 5 0.0000 0.0000 0.0000 0.0000 20.7044 0.0000
# 6 -3.1843 3.1843 0.0000 0.0000 0.0000 43.9348
#
#
#
# Elastic Compliance Matrix: (Units=1/GPa)
#
#
# Indices 1 2 3 4 5 6 
#
# 1 0.015870 -0.001077 -0.002827 0.000000 0.000000 0.001228
# 2 -0.001077 0.015870 -0.002827 0.000000 0.000000 -0.001228
# 3 -0.002827 -0.002827 0.029298 0.000000 0.000000 0.000000
# 4 0.000000 0.000000 0.000000 0.048299 0.000000 0.000000
# 5 0.000000 0.000000 0.000000 0.000000 0.048299 0.000000
# 6 0.001228 -0.001228 0.000000 0.000000 0.000000 0.022939
#
#
# Mechanical properties :
#
#
# Convention : Reuss Voigt Hill
#
# Bulk Modulus (GPa) = 21.01853 22.54478 21.78166
# Shear Modulus (GPa) = 23.82148 26.81498 25.31823
#
# Velocity S-wave (km/s) = 3.14976 3.34181 3.24721
# Velocity P-wave (km/s) = 4.68846 4.92743 4.80943
#
# Compressibility (1/GPa) = 0.04757706
#
# Stress axis : x y z
#
# Youngs Moduli (GPa) = 63.01288 63.01289 34.13149
#
# Poissons Ratio (x) = 0.06787 0.09648
# Poissons Ratio (y) = 0.06787 0.09648
# Poissons Ratio (z) = 0.17812 0.17812
#
# Static dielectric constant tensor:
#      x y z
#    x 1.923040 0.000000 0.000000 
#    y 0.000000 1.923040 0.000000 
#    z 0.000000 0.000000 1.947770 
# 
# From -- ./inp_files/6570.got.cif
#   From: 2010.05.17/outbox.cif.g08.bks.cpg/sg87_4_cif.got.tgz:6570.got - 2010.06.03 19:07:00.
