data_PCOD9545119
_publ_section_title
;
Structure prediction by ZEFSAII (Michael W. Deem and Ramdas Pophale) SiO2 
 PCOD9545119
Probable space group: P 42/N
;
_chemical_formula_sum "Si O2"
_cell_formula_units_Z 32
_cell_length_a 13.930727
_cell_length_b 13.930727
_cell_length_c 7.385787
_cell_angle_alpha 90.000000
_cell_angle_beta 90.000000
_cell_angle_gamma 90.000000
_cell_volume 1433.323897
_symmetry_space_group_name_H-M "P 42/N"
_symmetry_group_IT_number 86
_space_group.IT_coordinate_system_code '2'
_symmetry_cell_setting 'tetragonal'
loop_
_space_group_symop_operation_xyz
x,y,z
-y,1/2+x,1/2+z
1/2-x,1/2-y,z
1/2+y,-x,1/2+z
-x,-y,-z
y,1/2-x,1/2-z
1/2+x,1/2+y,-z
1/2-y,x,1/2-z
loop_
_atom_site_type_symbol
_atom_site_label
_atom_site_fract_x
_atom_site_fract_y
_atom_site_fract_z
Si Si1 0.880254 0.689036 0.197025
Si Si2 0.793263 0.459541 0.476258
Si Si3 0.542584 0.029441 0.755052
Si Si4 0.388788 0.892744 0.874637
O O1 0.776466 0.641781 0.163427
O O2 0.956315 0.607629 0.252314
O O3 0.935475 0.745055 0.038335
O O4 0.891854 0.445786 0.930698
O O5 0.719123 0.392008 0.581331
O O6 0.892325 0.465243 0.580609
O O7 0.809595 0.422374 0.271324
O O8 0.510349 0.070853 0.210714
#
# Coordination Sequence:
#
# PCOD9545119 Si02
#       4
#     8   8   8   8
#     4  10  21  40  71 103 130 179 232 289 351 409
#     4  11  23  44  70 103 138 187 236 293 362 431
#     4  10  22  45  71  98 144 181 229 293 366 423
#     4  10  23  43  68  99 138 184 230 286 354 423
#
# _framework density 22.325728000000002
#
# number of rings (size 3 to 8) (size 9 to 14) (size 15 to 20)
#    0.000    1.750    2.500    0.750    0.000    4.000 
#    0.000   15.000    0.000    0.000    0.000    0.000 
#    0.000    0.000    0.000    0.000    0.000    0.000 
#
# Total GULP energy -178617.324243 kJ/mol
# GULP energy per Si atom -5581.791383 kJ/mol
# Density = 2.227491 g / cm^3
# Si number density = 22.325728 Si / 1000 Ang^3
#
#
#
# Elastic Constant Matrix: (Units=GPa)
#
#
# Indices 1 2 3 4 5 6 
#
# 1 84.3231 51.2508 35.8791 0.0000 0.0000 -1.7815
# 2 51.2508 84.3231 35.8791 0.0000 0.0000 1.7815
# 3 35.8791 35.8791 100.7633 0.0000 0.0000 0.0000
# 4 0.0000 0.0000 0.0000 19.1862 0.0000 0.0000
# 5 0.0000 0.0000 0.0000 0.0000 19.1862 0.0000
# 6 -1.7815 1.7815 0.0000 0.0000 0.0000 28.8116
#
#
#
# Elastic Compliance Matrix: (Units=1/GPa)
#
#
# Indices 1 2 3 4 5 6 
#
# 1 0.019764 -0.010675 -0.003236 0.000000 0.000000 0.001882
# 2 -0.010675 0.019764 -0.003236 0.000000 0.000000 -0.001882
# 3 -0.003236 -0.003236 0.012229 0.000000 0.000000 0.000000
# 4 0.000000 0.000000 0.000000 0.052121 0.000000 0.000000
# 5 0.000000 0.000000 0.000000 0.000000 0.052121 0.000000
# 6 0.001882 -0.001882 0.000000 0.000000 0.000000 0.034941
#
#
# Mechanical properties :
#
#
# Convention : Reuss Voigt Hill
#
# Bulk Modulus (GPa) = 57.26840 57.26971 57.26905
# Shear Modulus (GPa) = 21.63972 23.19684 22.41828
#
# Velocity S-wave (km/s) = 3.11669 3.22688 3.17226
# Velocity P-wave (km/s) = 6.21761 6.29216 6.25499
#
# Compressibility (1/GPa) = 0.01746164
#
# Stress axis : x y z
#
# Youngs Moduli (GPa) = 50.59635 50.59635 81.77286
#
# Poissons Ratio (x) = 0.54013 0.26465
# Poissons Ratio (y) = 0.54013 0.26465
# Poissons Ratio (z) = 0.16375 0.16375
#
# Static dielectric constant tensor:
#      x y z
#    x 1.860780 0.000000 0.000000 
#    y 0.000000 1.860780 0.000000 
#    z 0.000000 0.000000 1.855690 
# 
# From -- ./inp_files/247.got.cif
#   From: 2010.05.17/outbox.cif.g08.bks.cpg/sg86_1_cif.got.tgz:247.got - 2010.06.03 19:03:11.
