data_PCOD9545577
_publ_section_title
;
Structure prediction by ZEFSAII (Michael W. Deem and Ramdas Pophale) SiO2 
 PCOD9545577
Probable space group: I 4/M
;
_chemical_formula_sum "Si O2"
_cell_formula_units_Z 96
_cell_length_a 21.004733
_cell_length_b 21.004733
_cell_length_c 12.118415
_cell_angle_alpha 90.000000
_cell_angle_beta 90.000000
_cell_angle_gamma 90.000000
_cell_volume 5346.630258
_symmetry_space_group_name_H-M "I 4/M"
_symmetry_group_IT_number 87
_symmetry_cell_setting 'tetragonal'
loop_
_space_group_symop_operation_xyz
x,y,z
-y,x,z
-x,-y,z
y,-x,z
-x,-y,-z
y,-x,-z
x,y,-z
-y,x,-z
1/2+x,1/2+y,1/2+z
1/2-y,1/2+x,1/2+z
1/2-x,1/2-y,1/2+z
1/2+y,1/2-x,1/2+z
1/2-x,1/2-y,1/2-z
1/2+y,1/2-x,1/2-z
1/2+x,1/2+y,1/2-z
1/2-y,1/2+x,1/2-z
loop_
_atom_site_type_symbol
_atom_site_label
_atom_site_fract_x
_atom_site_fract_y
_atom_site_fract_z
Si Si1 0.977004 0.901247 0.366204
Si Si2 0.860663 0.582532 0.626811
Si Si3 0.833291 0.744252 0.868370
Si Si4 0.832783 0.450802 0.728926
Si Si5 0.242150 0.146757 0.757238
Si Si6 0.730178 0.517851 0.868751
O O1 0.975526 0.903255 0.500000
O O2 0.046378 0.926595 0.329632
O O3 0.971824 0.828197 0.335160
O O4 0.877590 0.595743 0.500000
O O5 0.853681 0.507033 0.647073
O O6 0.911422 0.610838 0.713475
O O7 0.794123 0.618290 0.656600
O O8 0.900141 0.714770 0.827723
O O9 0.812503 0.811687 0.815325
O O10 0.780362 0.694277 0.823975
O O11 0.832195 0.748263 0.000000
O O12 0.794572 0.487596 0.824654
O O13 0.219705 0.086113 0.687487
O O14 0.730677 0.524931 0.000000
#
# Coordination Sequence:
#
# PCOD9545577 Si02
#       6
#    16  16  16  16  16  16
#     4   8  15  27  43  66  98 135 166 197 253 311
#     4  10  20  39  57  77 109 141 173 222 268 315
#     4  10  19  35  54  77 106 138 177 225 267 315
#     4  10  22  35  55  81 104 140 188 216 264 325
#     4   9  20  33  53  80 105 137 178 212 269 329
#     4  10  19  32  50  77 109 138 173 223 265 312
#
# _framework density 17.955234999999998
#
# number of rings (size 3 to 8) (size 9 to 14) (size 15 to 20)
#    0.000    2.500    0.000    2.500    2.333    0.333 
#    0.000    5.000    0.000    0.000    0.000    0.000 
#    0.000    1.333    0.000    0.000    0.000    0.000 
#
# Total GULP energy -267502.836262 kJ/mol
# GULP energy per Si atom -5572.975755 kJ/mol
# Density = 1.791437 g / cm^3
# Si number density = 17.955235 Si / 1000 Ang^3
#
#
#
# Elastic Constant Matrix: (Units=GPa)
#
#
# Indices 1 2 3 4 5 6 
#
# 1 78.5252 18.9889 25.2670 0.0000 0.0000 -1.3769
# 2 18.9889 78.5252 25.2670 0.0000 0.0000 1.3769
# 3 25.2670 25.2670 91.6908 0.0000 0.0000 0.0000
# 4 0.0000 0.0000 0.0000 14.5303 0.0000 0.0000
# 5 0.0000 0.0000 0.0000 0.0000 14.5303 0.0000
# 6 -1.3769 1.3769 0.0000 0.0000 0.0000 21.3573
#
#
#
# Elastic Compliance Matrix: (Units=1/GPa)
#
#
# Indices 1 2 3 4 5 6 
#
# 1 0.014405 -0.002442 -0.003297 0.000000 0.000000 0.001086
# 2 -0.002442 0.014405 -0.003297 0.000000 0.000000 -0.001086
# 3 -0.003297 -0.003297 0.012723 0.000000 0.000000 0.000000
# 4 0.000000 0.000000 0.000000 0.068822 0.000000 0.000000
# 5 0.000000 0.000000 0.000000 0.000000 0.068822 0.000000
# 6 0.001086 -0.001086 0.000000 0.000000 0.000000 0.046962
#
#
# Mechanical properties :
#
#
# Convention : Reuss Voigt Hill
#
# Bulk Modulus (GPa) = 42.62028 43.08746 42.85387
# Shear Modulus (GPa) = 19.83888 22.03147 20.93517
#
# Velocity S-wave (km/s) = 3.32762 3.50669 3.41833
# Velocity P-wave (km/s) = 6.20907 6.35964 6.28481
#
# Compressibility (1/GPa) = 0.02346301
#
# Stress axis : x y z
#
# Youngs Moduli (GPa) = 69.42018 69.42018 78.59685
#
# Poissons Ratio (x) = 0.16950 0.25911
# Poissons Ratio (y) = 0.16950 0.25911
# Poissons Ratio (z) = 0.22886 0.22886
#
# Static dielectric constant tensor:
#      x y z
#    x 1.619590 0.000000 0.000000 
#    y 0.000000 1.619590 0.000000 
#    z 0.000000 0.000000 1.580460 
# 
# From -- ./inp_files/2765.got.cif
#   From: 2010.05.17/outbox.cif.g08.bks.cpg/sg87_2_cif.got.tgz:2765.got - 2010.06.03 19:07:00.
