data_PCOD9545777
_publ_section_title
;
Structure prediction by ZEFSAII (Michael W. Deem and Ramdas Pophale) SiO2 
 PCOD9545777
Probable space group: I 4/M
;
_chemical_formula_sum "Si O2"
_cell_formula_units_Z 80
_cell_length_a 23.201064
_cell_length_b 23.201064
_cell_length_c 7.991258
_cell_angle_alpha 90.000000
_cell_angle_beta 90.000000
_cell_angle_gamma 90.000000
_cell_volume 4301.609240
_symmetry_space_group_name_H-M "I 4/M"
_symmetry_group_IT_number 87
_symmetry_cell_setting 'tetragonal'
loop_
_space_group_symop_operation_xyz
x,y,z
-y,x,z
-x,-y,z
y,-x,z
-x,-y,-z
y,-x,-z
x,y,-z
-y,x,-z
1/2+x,1/2+y,1/2+z
1/2-y,1/2+x,1/2+z
1/2-x,1/2-y,1/2+z
1/2+y,1/2-x,1/2+z
1/2-x,1/2-y,1/2-z
1/2+y,1/2-x,1/2-z
1/2+x,1/2+y,1/2-z
1/2-y,1/2+x,1/2-z
loop_
_atom_site_type_symbol
_atom_site_label
_atom_site_fract_x
_atom_site_fract_y
_atom_site_fract_z
Si Si1 0.389545 0.266583 0.194458
Si Si2 0.337849 0.144905 0.197361
Si Si3 0.079981 0.456457 0.806065
Si Si4 0.554646 0.668532 0.500000
Si Si5 0.710093 0.641295 0.186789
Si Si6 0.578870 0.343333 0.500000
O O1 0.378121 0.199844 0.233220
O O2 0.430218 0.294808 0.333536
O O3 0.328516 0.300981 0.206356
O O4 0.408958 0.272143 0.000000
O O5 0.371193 0.086294 0.239925
O O6 0.277866 0.151627 0.293499
O O7 0.324794 0.146564 0.000000
O O8 0.074078 0.517584 0.713528
O O9 0.090532 0.469142 0.000000
O O10 0.597121 0.613920 0.500000
O O11 0.488970 0.650097 0.500000
O O12 0.690654 0.599178 0.334622
O O13 0.698026 0.618690 0.000000
#
# Coordination Sequence:
#
# PCOD9545777 Si02
#       6
#    16  16  16   8  16   8
#     4   9  21  37  58  88 121 154 188 237 292 351
#     4  11  21  36  58  87 115 149 199 234 286 354
#     4  11  23  40  57  75 105 149 195 246 293 332
#     4  10  22  39  64  82 125 153 201 245 302 346
#     4  10  20  37  59  87 122 154 187 237 296 348
#     4  10  22  41  58  92 115 161 197 249 294 354
#
# _framework density 18.597693
#
# number of rings (size 3 to 8) (size 9 to 14) (size 15 to 20)
#    0.000    1.800    1.000    3.600    2.800    2.600 
#    0.000    2.000    0.000    0.000    0.000    5.600 
#    0.000    0.000    0.000    0.000    0.000    0.000 
#
# Total GULP energy -223381.550868 kJ/mol
# GULP energy per Si atom -5584.538772 kJ/mol
# Density = 1.855536 g / cm^3
# Si number density = 18.597693 Si / 1000 Ang^3
#
#
#
# Elastic Constant Matrix: (Units=GPa)
#
#
# Indices 1 2 3 4 5 6 
#
# 1 16.7766 6.0297 14.3906 0.0000 0.0000 12.1055
# 2 6.0297 16.7766 14.3906 0.0000 0.0000 -12.1055
# 3 14.3906 14.3906 91.2198 0.0000 0.0000 0.0000
# 4 0.0000 0.0000 0.0000 4.4841 0.0000 0.0000
# 5 0.0000 0.0000 0.0000 0.0000 4.4841 0.0000
# 6 12.1055 -12.1055 0.0000 0.0000 0.0000 0.5009
#
#
#
# Elastic Compliance Matrix: (Units=1/GPa)
#
#
# Indices 1 2 3 4 5 6 
#
# 1 0.026503 0.028244 -0.008637 0.000000 0.000000 0.042076
# 2 0.028244 0.026503 -0.008637 0.000000 0.000000 -0.042076
# 3 -0.008637 -0.008637 0.013688 0.000000 0.000000 0.000000
# 4 0.000000 0.000000 0.000000 0.223011 0.000000 0.000000
# 5 0.000000 0.000000 0.000000 0.000000 0.223011 0.000000
# 6 0.042076 -0.042076 0.000000 0.000000 0.000000 -0.037354
#
#
# Mechanical properties :
#
#
# Convention : Reuss Voigt Hill
#
# Bulk Modulus (GPa) = 11.28227 21.59943 16.44085
# Shear Modulus (GPa) = 10.35271 7.89129 9.12200
#
# Velocity S-wave (km/s) = 2.36194 2.06213 2.21711
# Velocity P-wave (km/s) = 3.67668 4.16042 3.92601
#
# Compressibility (1/GPa) = 0.08863465
#
# Stress axis : x y z
#
# Youngs Moduli (GPa) = 37.73165 37.73165 73.05902
#
# Poissons Ratio (x) = -1.06570 0.63099
# Poissons Ratio (y) = -1.06570 0.63099
# Poissons Ratio (z) = 0.32588 0.32588
#
# Static dielectric constant tensor:
#      x y z
#    x 1.620280 0.000000 0.000000 
#    y 0.000000 1.620280 0.000000 
#    z 0.000000 0.000000 1.657960 
# 
# From -- ./inp_files/1287.got.cif
#   From: 2010.05.17/outbox.cif.g08.bks.cpg/sg87_1_cif.got.tgz:1287.got - 2010.06.03 19:07:00.
