data_PCOD9545082
_publ_section_title
;
Structure prediction by ZEFSAII (Michael W. Deem and Ramdas Pophale) SiO2 
 PCOD9545082
Probable space group: P 42/N
;
_chemical_formula_sum "Si O2"
_cell_formula_units_Z 64
_cell_length_a 24.067794
_cell_length_b 24.067794
_cell_length_c 5.155311
_cell_angle_alpha 90.000000
_cell_angle_beta 90.000000
_cell_angle_gamma 90.000000
_cell_volume 2986.258789
_symmetry_space_group_name_H-M "P 42/N"
_symmetry_group_IT_number 86
_space_group.IT_coordinate_system_code '2'
_symmetry_cell_setting 'tetragonal'
loop_
_space_group_symop_operation_xyz
x,y,z
-y,1/2+x,1/2+z
1/2-x,1/2-y,z
1/2+y,-x,1/2+z
-x,-y,-z
y,1/2-x,1/2-z
1/2+x,1/2+y,-z
1/2-y,x,1/2-z
loop_
_atom_site_type_symbol
_atom_site_label
_atom_site_fract_x
_atom_site_fract_y
_atom_site_fract_z
Si Si1 0.582333 0.650982 0.432223
Si Si2 0.073537 0.944250 0.154274
Si Si3 0.315941 0.373025 0.270915
Si Si4 0.823749 0.136343 0.873091
Si Si5 0.446959 0.120735 0.552796
Si Si6 0.193623 0.627478 0.116775
Si Si7 0.770364 0.914460 0.232849
Si Si8 0.971457 0.108696 0.346138
O O1 0.638332 0.665336 0.594633
O O2 0.596177 0.605550 0.210060
O O3 0.562635 0.709921 0.321864
O O4 0.534263 0.625428 0.605346
O O5 0.134816 0.916224 0.158634
O O6 0.037977 0.909119 0.948699
O O7 0.080030 0.003817 0.017847
O O8 0.047687 0.937615 0.440719
O O9 0.271276 0.386673 0.487367
O O10 0.354884 0.426982 0.222504
O O11 0.289466 0.368779 0.986231
O O12 0.759419 0.120438 0.864415
O O13 0.840435 0.167400 0.138002
O O14 0.838182 0.177622 0.638462
O O15 0.458765 0.178938 0.706250
O O16 0.160917 0.569077 0.100827
#
# Coordination Sequence:
#
# PCOD9545082 Si02
#       8
#     8   8   8   8   8   8   8   8
#     4  11  23  42  68  95 125 159 214 258 297 386
#     4  10  23  41  56  88 131 166 200 256 308 368
#     4   9  22  40  59  97 120 156 208 245 308 366
#     4  10  21  37  58  80 121 151 208 255 298 365
#     4   9  23  40  65  91 124 165 208 239 318 367
#     4  10  21  38  55  87 112 161 200 255 306 351
#     4   9  22  38  65  92 121 158 202 260 298 359
#     4  10  25  38  60  91 126 162 210 252 310 352
#
# _framework density 21.431497
#
# number of rings (size 3 to 8) (size 9 to 14) (size 15 to 20)
#    0.750    1.500    0.000    0.750    8.750    2.500 
#    0.000    1.250    0.000   12.375    0.000    0.000 
#    0.000    0.000    0.000    0.000    0.000    0.000 
#
# Total GULP energy -356703.352394 kJ/mol
# GULP energy per Si atom -5573.489881 kJ/mol
# Density = 2.138272 g / cm^3
# Si number density = 21.431497 Si / 1000 Ang^3
#
#
#
# Elastic Constant Matrix: (Units=GPa)
#
#
# Indices 1 2 3 4 5 6 
#
# 1 54.8814 -1.5031 -7.2369 0.0000 0.0000 1.4859
# 2 -1.5031 54.8814 -7.2369 0.0000 0.0000 -1.4859
# 3 -7.2369 -7.2369 94.9702 0.0000 0.0000 0.0000
# 4 0.0000 0.0000 0.0000 13.7397 0.0000 0.0000
# 5 0.0000 0.0000 0.0000 0.0000 13.7397 0.0000
# 6 1.4859 -1.4859 0.0000 0.0000 0.0000 1.7049
#
#
#
# Elastic Compliance Matrix: (Units=1/GPa)
#
#
# Indices 1 2 3 4 5 6 
#
# 1 0.018859 0.000270 0.001458 0.000000 0.000000 -0.016201
# 2 0.000270 0.018859 0.001458 0.000000 0.000000 0.016201
# 3 0.001458 0.001458 0.010752 0.000000 0.000000 0.000000
# 4 0.000000 0.000000 0.000000 0.072782 0.000000 0.000000
# 5 0.000000 0.000000 0.000000 0.000000 0.072782 0.000000
# 6 -0.016201 0.016201 0.000000 0.000000 0.000000 0.614790
#
#
# Mechanical properties :
#
#
# Convention : Reuss Voigt Hill
#
# Bulk Modulus (GPa) = 18.23436 19.19770 18.71603
# Shear Modulus (GPa) = 6.09211 20.55084 13.32148
#
# Velocity S-wave (km/s) = 1.68783 3.09998 2.49586
# Velocity P-wave (km/s) = 3.51070 4.66801 4.13010
#
# Compressibility (1/GPa) = 0.05484151
#
# Stress axis : x y z
#
# Youngs Moduli (GPa) = 53.02407 53.02407 93.00792
#
# Poissons Ratio (x) = -0.01432 -0.13558
# Poissons Ratio (y) = -0.01432 -0.13558
# Poissons Ratio (z) = -0.07729 -0.07729
#
# Static dielectric constant tensor:
#      x y z
#    x 1.793820 0.000000 0.000000 
#    y 0.000000 1.793820 0.000000 
#    z 0.000000 0.000000 1.800320 
# 
# From -- ./inp_files/544.got.cif
#   From: 2010.05.17/outbox.cif.g08.bks.cpg/sg86_1_cif.got.tgz:544.got - 2010.06.03 19:03:11.
