data_PCOD9545319
_publ_section_title
;
Structure prediction by ZEFSAII (Michael W. Deem and Ramdas Pophale) SiO2 
 PCOD9545319
Probable space group: P 42/N
;
_chemical_formula_sum "Si O2"
_cell_formula_units_Z 30
_cell_length_a 7.867608
_cell_length_b 7.867608
_cell_length_c 19.623738
_cell_angle_alpha 90.000000
_cell_angle_beta 90.000000
_cell_angle_gamma 90.000000
_cell_volume 1214.694775
_symmetry_space_group_name_H-M "P 42/N"
_symmetry_group_IT_number 86
_space_group.IT_coordinate_system_code '2'
_symmetry_cell_setting 'tetragonal'
loop_
_space_group_symop_operation_xyz
x,y,z
-y,1/2+x,1/2+z
1/2-x,1/2-y,z
1/2+y,-x,1/2+z
-x,-y,-z
y,1/2-x,1/2-z
1/2+x,1/2+y,-z
1/2-y,x,1/2-z
loop_
_atom_site_type_symbol
_atom_site_label
_atom_site_fract_x
_atom_site_fract_y
_atom_site_fract_z
Si Si1 0.767568 0.067744 0.331571
Si Si2 0.673364 0.450503 0.964353
Si Si3 0.849526 0.901868 0.639490
Si Si4 0.250000 0.750000 0.412852
Si Si5 0.750000 0.750000 0.250000
O O1 0.750000 0.250000 0.294484
O O2 0.680424 0.103964 0.405315
O O3 0.969271 0.034811 0.332937
O O4 0.687072 0.904929 0.296656
O O5 0.791422 0.582946 0.925388
O O6 0.500000 0.500000 0.000000
O O7 0.718731 0.104101 0.030748
O O8 0.750000 0.750000 0.677412
O O9 0.739424 0.071570 0.626627
#
# Coordination Sequence:
#
# PCOD9545319 Si02
#       5
#     8   8   8   4   2
#     4  10  26  50  68 101 138 177 246 298 347 432
#     4  11  22  39  66 102 146 179 222 286 355 433
#     4  11  23  39  64 101 143 179 226 280 351 431
#     4  12  22  34  66 104 144 190 212 268 370 442
#     4  12  28  52  80  92 136 204 248 308 362 420
#
# _framework density 24.697562000000001
#
# number of rings (size 3 to 8) (size 9 to 14) (size 15 to 20)
#    0.000    1.067    6.667    0.800    3.733    0.000 
#   12.000    0.000    0.000    0.000    0.000    0.000 
#    0.000    0.000    0.000    0.000    0.000    0.000 
#
# Total GULP energy -167045.084526 kJ/mol
# GULP energy per Si atom -5568.169484 kJ/mol
# Density = 2.464135 g / cm^3
# Si number density = 24.697562 Si / 1000 Ang^3
#
#
#
# Elastic Constant Matrix: (Units=GPa)
#
#
# Indices 1 2 3 4 5 6 
#
# 1 128.1181 10.2184 47.6172 0.0000 0.0000 1.4061
# 2 10.2184 128.1181 47.6172 0.0000 0.0000 -1.4061
# 3 47.6172 47.6172 82.6986 0.0000 0.0000 0.0000
# 4 0.0000 0.0000 0.0000 -14.9843 0.0000 0.0000
# 5 0.0000 0.0000 0.0000 0.0000 -14.9843 0.0000
# 6 1.4061 -1.4061 0.0000 0.0000 0.0000 38.7433
#
#
#
# Elastic Compliance Matrix: (Units=1/GPa)
#
#
# Indices 1 2 3 4 5 6 
#
# 1 0.010233 0.001743 -0.006896 0.000000 0.000000 -0.000308
# 2 0.001743 0.010233 -0.006896 0.000000 0.000000 0.000308
# 3 -0.006896 -0.006896 0.020033 0.000000 0.000000 0.000000
# 4 0.000000 0.000000 0.000000 -0.066736 0.000000 0.000000
# 5 0.000000 0.000000 0.000000 0.000000 -0.066736 0.000000
# 6 -0.000308 0.000308 0.000000 0.000000 0.000000 0.025833
#
#
# Mechanical properties :
#
#
# Convention : Reuss Voigt Hill
#
# Bulk Modulus (GPa) = 60.96719 61.09340 61.03029
# Shear Modulus (GPa) = -133.05571 17.32037 -57.86767
#
# Velocity S-wave (km/s) = -7.34786 2.65108 -4.84576
# Velocity P-wave (km/s) = 6.87378 5.84476 2.55809
#
# Compressibility (1/GPa) = 0.01640227
#
# Stress axis : x y z
#
# Youngs Moduli (GPa) = 97.72777 97.72777 49.91766
#
# Poissons Ratio (x) = -0.17038 0.34421
# Poissons Ratio (y) = -0.17038 0.34421
# Poissons Ratio (z) = 0.67389 0.67389
#
# Static dielectric constant tensor:
#      x y z
#    x 2.119590 0.000000 0.000000 
#    y 0.000000 2.119590 0.000000 
#    z 0.000000 0.000000 1.972220 
# 
# From -- ./inp_files/4332.got.cif
#   From: 2010.05.17/outbox.cif.g08.bks.cpg/sg86_3_cif.got.tgz:4332.got - 2010.06.03 19:03:11.
