data_PCOD9545726
_publ_section_title
;
Structure prediction by ZEFSAII (Michael W. Deem and Ramdas Pophale) SiO2 
 PCOD9545726
Probable space group: I 4/M
;
_chemical_formula_sum "Si O2"
_cell_formula_units_Z 64
_cell_length_a 12.632667
_cell_length_b 12.632667
_cell_length_c 20.941769
_cell_angle_alpha 90.000000
_cell_angle_beta 90.000000
_cell_angle_gamma 90.000000
_cell_volume 3341.977034
_symmetry_space_group_name_H-M "I 4/M"
_symmetry_group_IT_number 87
_symmetry_cell_setting 'tetragonal'
loop_
_space_group_symop_operation_xyz
x,y,z
-y,x,z
-x,-y,z
y,-x,z
-x,-y,-z
y,-x,-z
x,y,-z
-y,x,-z
1/2+x,1/2+y,1/2+z
1/2-y,1/2+x,1/2+z
1/2-x,1/2-y,1/2+z
1/2+y,1/2-x,1/2+z
1/2-x,1/2-y,1/2-z
1/2+y,1/2-x,1/2-z
1/2+x,1/2+y,1/2-z
1/2-y,1/2+x,1/2-z
loop_
_atom_site_type_symbol
_atom_site_label
_atom_site_fract_x
_atom_site_fract_y
_atom_site_fract_z
Si Si1 0.547672 0.116129 0.075987
Si Si2 0.123540 0.279032 0.173817
Si Si3 0.490800 0.329952 0.864544
Si Si4 0.082206 0.771020 0.766439
O O1 0.664726 0.134236 0.105703
O O2 0.482561 0.212597 0.108015
O O3 0.500000 0.000000 0.091610
O O4 0.547566 0.127114 0.000000
O O5 0.160935 0.159168 0.187991
O O6 0.193056 0.346715 0.223807
O O7 0.000990 0.289792 0.190671
O O8 0.597427 0.392354 0.884527
O O9 0.507565 0.325901 0.787714
#
# Coordination Sequence:
#
# PCOD9545726 Si02
#       4
#    16  16  16  16
#     4  10  24  42  58  82 120 168 217 254 292 353
#     4  10  22  34  58  84 120 153 195 242 303 363
#     4  10  20  37  63  94 123 151 192 254 318 372
#     4  10  20  35  55  91 119 149 190 242 308 366
#
# _framework density 19.15034
#
# number of rings (size 3 to 8) (size 9 to 14) (size 15 to 20)
#    0.000    2.000    2.500    0.000    7.000    1.500 
#    0.000    5.000    0.000    0.000    0.000    1.750 
#    0.000    0.000    0.000    0.000    0.000    0.000 
#
# Total GULP energy -178234.265998 kJ/mol
# GULP energy per Si atom -5569.820812 kJ/mol
# Density = 1.910675 g / cm^3
# Si number density = 19.150340 Si / 1000 Ang^3
#
#
#
# Elastic Constant Matrix: (Units=GPa)
#
#
# Indices 1 2 3 4 5 6 
#
# 1 66.4917 16.8295 17.2279 0.0000 0.0000 -2.0296
# 2 16.8295 66.4917 17.2279 0.0000 0.0000 2.0296
# 3 17.2279 17.2279 38.2032 0.0000 0.0000 0.0000
# 4 0.0000 0.0000 0.0000 18.8174 0.0000 0.0000
# 5 0.0000 0.0000 0.0000 0.0000 18.8174 0.0000
# 6 -2.0296 2.0296 0.0000 0.0000 0.0000 19.7715
#
#
#
# Elastic Compliance Matrix: (Units=1/GPa)
#
#
# Indices 1 2 3 4 5 6 
#
# 1 0.017530 -0.002777 -0.006653 0.000000 0.000000 0.002085
# 2 -0.002777 0.017530 -0.006653 0.000000 0.000000 -0.002085
# 3 -0.006653 -0.006653 0.032176 0.000000 0.000000 0.000000
# 4 0.000000 0.000000 0.000000 0.053142 0.000000 0.000000
# 5 0.000000 0.000000 0.000000 0.000000 0.053142 0.000000
# 6 0.002085 -0.002085 0.000000 0.000000 0.000000 0.051006
#
#
# Mechanical properties :
#
#
# Convention : Reuss Voigt Hill
#
# Bulk Modulus (GPa) = 28.51407 30.41744 29.46576
# Shear Modulus (GPa) = 18.63024 19.47470 19.05247
#
# Velocity S-wave (km/s) = 3.12242 3.19241 3.15761
# Velocity P-wave (km/s) = 5.28406 5.43200 5.35854
#
# Compressibility (1/GPa) = 0.03507040
#
# Stress axis : x y z
#
# Youngs Moduli (GPa) = 57.04615 57.04615 31.07902
#
# Poissons Ratio (x) = 0.15840 0.20676
# Poissons Ratio (y) = 0.15840 0.20676
# Poissons Ratio (z) = 0.37952 0.37952
#
# Static dielectric constant tensor:
#      x y z
#    x 1.709230 0.000000 0.000000 
#    y 0.000000 1.709230 0.000000 
#    z 0.000000 0.000000 1.659870 
# 
# From -- ./inp_files/5669.got.cif
#   From: 2010.05.17/outbox.cif.g08.bks.cpg/sg87_3_cif.got.tgz:5669.got - 2010.06.03 19:07:00.
