data_PCOD9545816
_publ_section_title
;
Structure prediction by ZEFSAII (Michael W. Deem and Ramdas Pophale) SiO2 
 PCOD9545816
Probable space group: I 4/M
;
_chemical_formula_sum "Si O2"
_cell_formula_units_Z 96
_cell_length_a 24.624299
_cell_length_b 24.624299
_cell_length_c 7.741321
_cell_angle_alpha 90.000000
_cell_angle_beta 90.000000
_cell_angle_gamma 90.000000
_cell_volume 4693.997220
_symmetry_space_group_name_H-M "I 4/M"
_symmetry_group_IT_number 87
_symmetry_cell_setting 'tetragonal'
loop_
_space_group_symop_operation_xyz
x,y,z
-y,x,z
-x,-y,z
y,-x,z
-x,-y,-z
y,-x,-z
x,y,-z
-y,x,-z
1/2+x,1/2+y,1/2+z
1/2-y,1/2+x,1/2+z
1/2-x,1/2-y,1/2+z
1/2+y,1/2-x,1/2+z
1/2-x,1/2-y,1/2-z
1/2+y,1/2-x,1/2-z
1/2+x,1/2+y,1/2-z
1/2-y,1/2+x,1/2-z
loop_
_atom_site_type_symbol
_atom_site_label
_atom_site_fract_x
_atom_site_fract_y
_atom_site_fract_z
Si Si1 0.335872 0.767938 0.207943
Si Si2 0.292834 0.543097 0.212074
Si Si3 0.956082 0.296109 0.292178
Si Si4 0.164845 0.231514 0.292270
Si Si5 0.413630 0.513541 0.210731
Si Si6 0.084056 0.493245 0.693520
O O1 0.395781 0.781858 0.273478
O O2 0.291650 0.813956 0.249829
O O3 0.310396 0.710997 0.272376
O O4 0.338943 0.764027 0.000000
O O5 0.247033 0.500772 0.269418
O O6 0.280392 0.604339 0.270328
O O7 0.352652 0.524445 0.267894
O O8 0.292586 0.543351 0.000000
O O9 0.954350 0.291826 0.500000
O O10 0.973757 0.357047 0.249280
O O11 0.163796 0.226670 0.500000
O O12 0.439695 0.456122 0.264065
O O13 0.413184 0.513480 0.000000
O O14 0.087292 0.514829 0.500000
O O15 0.056600 0.541564 0.800813
#
# Coordination Sequence:
#
# PCOD9545816 Si02
#       6
#    16  16  16  16  16  16
#     4   9  19  34  52  73 103 140 178 221 269 318
#     4   9  18  29  47  72 103 140 177 218 265 321
#     4  10  21  35  52  80 112 145 182 223 271 324
#     4   9  18  33  52  75 101 137 180 221 269 319
#     4   8  14  24  41  69 104 140 176 217 268 322
#     4  11  23  41  63  85 110 142 177 220 268 324
#
# _framework density 20.451654000000001
#
# number of rings (size 3 to 8) (size 9 to 14) (size 15 to 20)
#    0.000    2.667    0.000    2.500    4.667    0.667 
#    0.000    0.000    0.000    0.000    0.000    0.000 
#    0.000    0.000    0.000    7.333    0.000    6.667 
#
# Total GULP energy -267949.891477 kJ/mol
# GULP energy per Si atom -5582.289406 kJ/mol
# Density = 2.040511 g / cm^3
# Si number density = 20.451654 Si / 1000 Ang^3
#
#
#
# Elastic Constant Matrix: (Units=GPa)
#
#
# Indices 1 2 3 4 5 6 
#
# 1 189.6655 130.7681 1.2484 0.0000 0.0000 -0.3017
# 2 130.7681 189.6655 1.2484 0.0000 0.0000 0.3017
# 3 1.2484 1.2484 32.4671 0.0000 0.0000 0.0000
# 4 0.0000 0.0000 0.0000 6.0219 0.0000 0.0000
# 5 0.0000 0.0000 0.0000 0.0000 6.0219 0.0000
# 6 -0.3017 0.3017 0.0000 0.0000 0.0000 14.7138
#
#
#
# Elastic Compliance Matrix: (Units=1/GPa)
#
#
# Indices 1 2 3 4 5 6 
#
# 1 0.010052 -0.006930 -0.000120 0.000000 0.000000 0.000348
# 2 -0.006930 0.010052 -0.000120 0.000000 0.000000 -0.000348
# 3 -0.000120 -0.000120 0.030810 0.000000 0.000000 0.000000
# 4 0.000000 0.000000 0.000000 0.166060 0.000000 0.000000
# 5 0.000000 0.000000 0.000000 0.000000 0.166060 0.000000
# 6 0.000348 -0.000348 0.000000 0.000000 0.000000 0.067978
#
#
# Mechanical properties :
#
#
# Convention : Reuss Voigt Hill
#
# Bulk Modulus (GPa) = 27.34265 75.36976 51.35621
# Shear Modulus (GPa) = 10.47025 23.92041 17.19533
#
# Velocity S-wave (km/s) = 2.26509 3.42366 2.90277
# Velocity P-wave (km/s) = 4.49881 7.24992 6.03326
#
# Compressibility (1/GPa) = 0.03657290
#
# Stress axis : x y z
#
# Youngs Moduli (GPa) = 99.48293 99.48293 32.45740
#
# Poissons Ratio (x) = 0.68944 0.00390
# Poissons Ratio (y) = 0.68944 0.00390
# Poissons Ratio (z) = 0.01194 0.01194
#
# Static dielectric constant tensor:
#      x y z
#    x 1.699560 0.000000 0.000000 
#    y 0.000000 1.699560 0.000000 
#    z 0.000000 0.000000 1.769770 
# 
# From -- ./inp_files/1404.got.cif
#   From: 2010.05.17/outbox.cif.g08.bks.cpg/sg87_1_cif.got.tgz:1404.got - 2010.06.03 19:07:00.
