data_PCOD9545323
_publ_section_title
;
Structure prediction by ZEFSAII (Michael W. Deem and Ramdas Pophale) SiO2 
 PCOD9545323
Probable space group: P 42/N
;
_chemical_formula_sum "Si O2"
_cell_formula_units_Z 56
_cell_length_a 12.355131
_cell_length_b 12.355131
_cell_length_c 18.306470
_cell_angle_alpha 90.000000
_cell_angle_beta 90.000000
_cell_angle_gamma 90.000000
_cell_volume 2794.469136
_symmetry_space_group_name_H-M "P 42/N"
_symmetry_group_IT_number 86
_space_group.IT_coordinate_system_code '2'
_symmetry_cell_setting 'tetragonal'
loop_
_space_group_symop_operation_xyz
x,y,z
-y,1/2+x,1/2+z
1/2-x,1/2-y,z
1/2+y,-x,1/2+z
-x,-y,-z
y,1/2-x,1/2-z
1/2+x,1/2+y,-z
1/2-y,x,1/2-z
loop_
_atom_site_type_symbol
_atom_site_label
_atom_site_fract_x
_atom_site_fract_y
_atom_site_fract_z
Si Si1 0.020756 0.980171 0.348808
Si Si2 0.359882 0.184272 0.886515
Si Si3 0.147816 0.680614 0.933693
Si Si4 0.556362 0.877857 0.579543
Si Si5 0.466261 0.348248 0.474453
Si Si6 0.893361 0.858007 0.765714
Si Si7 0.484508 0.665624 0.044114
O O1 0.131973 0.916338 0.364916
O O2 0.920005 0.898122 0.339941
O O3 0.009315 0.047169 0.425246
O O4 0.032780 0.067144 0.285410
O O5 0.250000 0.250000 0.868919
O O6 0.458359 0.268037 0.891853
O O7 0.354010 0.132216 0.968274
O O8 0.250000 0.750000 0.910351
O O9 0.180985 0.573243 0.979386
O O10 0.080097 0.755041 0.989709
O O11 0.562602 0.749045 0.579180
O O12 0.617513 0.921242 0.650281
O O13 0.610427 0.923200 0.505955
O O14 0.431459 0.913224 0.576011
O O15 0.895397 0.730832 0.748839
#
# Coordination Sequence:
#
# PCOD9545323 Si02
#       7
#     8   8   8   8   8   8   8
#     4  11  22  38  61  92 128 164 205 252 305 383
#     4  11  21  35  63  93 122 162 204 257 312 359
#     4  11  20  34  59  89 122 159 196 255 312 352
#     4  11  23  35  59  93 119 156 203 247 307 365
#     4  11  19  34  59  94 123 151 203 252 306 368
#     4  11  24  40  64  90 126 163 195 246 311 386
#     4  11  21  36  60  88 123 153 200 261 297 357
#
# _framework density 20.039586
#
# number of rings (size 3 to 8) (size 9 to 14) (size 15 to 20)
#    0.000    1.000    7.143    1.714    0.000    0.000 
#    0.000    0.000   12.571    0.000    0.000    0.000 
#    0.000    0.000    0.000    0.000    0.000    0.000 
#
# Total GULP energy -312657.258653 kJ/mol
# GULP energy per Si atom -5583.165333 kJ/mol
# Density = 1.999397 g / cm^3
# Si number density = 20.039586 Si / 1000 Ang^3
#
#
#
# Elastic Constant Matrix: (Units=GPa)
#
#
# Indices 1 2 3 4 5 6 
#
# 1 75.7287 16.4649 -4.3665 0.0000 0.0000 -2.0517
# 2 16.4649 75.7287 -4.3665 0.0000 0.0000 2.0517
# 3 -4.3665 -4.3665 27.0328 0.0000 0.0000 0.0000
# 4 0.0000 0.0000 0.0000 17.3456 0.0000 0.0000
# 5 0.0000 0.0000 0.0000 0.0000 17.3456 0.0000
# 6 -2.0517 2.0517 0.0000 0.0000 0.0000 41.7239
#
#
#
# Elastic Compliance Matrix: (Units=1/GPa)
#
#
# Indices 1 2 3 4 5 6 
#
# 1 0.013973 -0.002958 0.001779 0.000000 0.000000 0.000833
# 2 -0.002958 0.013973 0.001779 0.000000 0.000000 -0.000833
# 3 0.001779 0.001779 0.037567 0.000000 0.000000 0.000000
# 4 0.000000 0.000000 0.000000 0.057652 0.000000 0.000000
# 5 0.000000 0.000000 0.000000 0.000000 0.057652 0.000000
# 6 0.000833 -0.000833 0.000000 0.000000 0.000000 0.024049
#
#
# Mechanical properties :
#
#
# Convention : Reuss Voigt Hill
#
# Bulk Modulus (GPa) = 14.98922 21.55042 18.26982
# Shear Modulus (GPa) = 22.13341 26.66690 24.40016
#
# Velocity S-wave (km/s) = 3.32698 3.65185 3.49320
# Velocity P-wave (km/s) = 4.71746 5.34403 5.04049
#
# Compressibility (1/GPa) = 0.06671462
#
# Stress axis : x y z
#
# Youngs Moduli (GPa) = 71.56491 71.56491 26.61914
#
# Poissons Ratio (x) = 0.21169 -0.04736
# Poissons Ratio (y) = 0.21169 -0.04736
# Poissons Ratio (z) = -0.12733 -0.12733
#
# Static dielectric constant tensor:
#      x y z
#    x 1.725830 0.000000 0.000000 
#    y 0.000000 1.725830 0.000000 
#    z 0.000000 0.000000 1.686520 
# 
# From -- ./inp_files/4171.got.cif
#   From: 2010.05.17/outbox.cif.g08.bks.cpg/sg86_3_cif.got.tgz:4171.got - 2010.06.03 19:03:11.
