data_PCOD9545216
_publ_section_title
;
Structure prediction by ZEFSAII (Michael W. Deem and Ramdas Pophale) SiO2 
 PCOD9545216
Probable space group: P 42/N
;
_chemical_formula_sum "Si O2"
_cell_formula_units_Z 42
_cell_length_a 14.490939
_cell_length_b 14.490939
_cell_length_c 7.833399
_cell_angle_alpha 90.000000
_cell_angle_beta 90.000000
_cell_angle_gamma 90.000000
_cell_volume 1644.914408
_symmetry_space_group_name_H-M "P 42/N"
_symmetry_group_IT_number 86
_space_group.IT_coordinate_system_code '2'
_symmetry_cell_setting 'tetragonal'
loop_
_space_group_symop_operation_xyz
x,y,z
-y,1/2+x,1/2+z
1/2-x,1/2-y,z
1/2+y,-x,1/2+z
-x,-y,-z
y,1/2-x,1/2-z
1/2+x,1/2+y,-z
1/2-y,x,1/2-z
loop_
_atom_site_type_symbol
_atom_site_label
_atom_site_fract_x
_atom_site_fract_y
_atom_site_fract_z
Si Si1 0.272296 0.100547 0.768210
Si Si2 0.721264 0.948272 0.598366
Si Si3 0.750000 0.750000 0.750000
Si Si4 0.288343 0.568877 0.920778
Si Si5 0.401851 0.868729 0.788633
Si Si6 0.481481 0.532346 0.804382
O O1 0.178260 0.151586 0.714803
O O2 0.300895 0.042711 0.602353
O O3 0.250513 0.036274 0.928977
O O4 0.749263 0.843320 0.638982
O O5 0.796169 0.025927 0.635101
O O6 0.629798 0.967563 0.707758
O O7 0.200012 0.627753 0.866718
O O8 0.373125 0.555194 0.787418
O O9 0.334999 0.604416 0.092300
O O10 0.454303 0.967626 0.805273
O O11 0.500000 0.500000 0.000000
#
# Coordination Sequence:
#
# PCOD9545216 Si02
#       6
#     8   8   2   8   8   8
#     4  11  23  40  71 108 142 189 252 314 377 434
#     4  12  25  43  73 108 146 195 246 314 377 450
#     4  12  24  44  74 104 152 184 254 312 380 436
#     4  11  24  47  73 104 150 194 244 306 373 451
#     4  11  25  45  76 111 147 198 249 306 379 451
#     4  10  22  45  71 102 143 188 241 301 370 438
#
# _framework density 25.533242999999999
#
# number of rings (size 3 to 8) (size 9 to 14) (size 15 to 20)
#    0.000    0.952    1.905    6.857    2.667    2.286 
#    0.000    6.667    0.000    2.286    0.000    0.000 
#    0.000    0.000    0.000    0.000    0.000    0.000 
#
# Total GULP energy -235247.507779 kJ/mol
# GULP energy per Si atom -5601.131138 kJ/mol
# Density = 2.547513 g / cm^3
# Si number density = 25.533243 Si / 1000 Ang^3
#
#
#
# Elastic Constant Matrix: (Units=GPa)
#
#
# Indices 1 2 3 4 5 6 
#
# 1 168.0927 76.3112 35.9119 0.0000 0.0000 -12.1157
# 2 76.3112 168.0927 35.9119 0.0000 0.0000 12.1157
# 3 35.9119 35.9119 55.4339 0.0000 0.0000 0.0000
# 4 0.0000 0.0000 0.0000 31.0215 0.0000 0.0000
# 5 0.0000 0.0000 0.0000 0.0000 31.0215 0.0000
# 6 -12.1157 12.1157 0.0000 0.0000 0.0000 49.7663
#
#
#
# Elastic Compliance Matrix: (Units=1/GPa)
#
#
# Indices 1 2 3 4 5 6 
#
# 1 0.008349 -0.003295 -0.003274 0.000000 0.000000 0.002835
# 2 -0.003295 0.008349 -0.003274 0.000000 0.000000 -0.002835
# 3 -0.003274 -0.003274 0.022281 0.000000 0.000000 0.000000
# 4 0.000000 0.000000 0.000000 0.032236 0.000000 0.000000
# 5 0.000000 0.000000 0.000000 0.000000 0.032236 0.000000
# 6 0.002835 -0.002835 0.000000 0.000000 0.000000 0.021474
#
#
# Mechanical properties :
#
#
# Convention : Reuss Voigt Hill
#
# Bulk Modulus (GPa) = 51.83219 76.43216 64.13218
# Shear Modulus (GPa) = 33.10349 38.59417 35.84883
#
# Velocity S-wave (km/s) = 3.60458 3.89205 3.75107
# Velocity P-wave (km/s) = 6.13742 7.08497 6.62815
#
# Compressibility (1/GPa) = 0.01929303
#
# Stress axis : x y z
#
# Youngs Moduli (GPa) = 119.77798 119.77798 44.88035
#
# Poissons Ratio (x) = 0.39468 0.14694
# Poissons Ratio (y) = 0.39468 0.14694
# Poissons Ratio (z) = 0.39215 0.39215
#
# Static dielectric constant tensor:
#      x y z
#    x 2.030690 0.000000 0.000000 
#    y 0.000000 2.030690 0.000000 
#    z 0.000000 0.000000 2.060310 
# 
# From -- ./inp_files/1196.got.cif
#   From: 2010.05.17/outbox.cif.g08.bks.cpg/sg86_1_cif.got.tgz:1196.got - 2010.06.03 19:03:11.
