data_PCOD9545743
_publ_section_title
;
Structure prediction by ZEFSAII (Michael W. Deem and Ramdas Pophale) SiO2 
 PCOD9545743
Probable space group: I 4/M
;
_chemical_formula_sum "Si O2"
_cell_formula_units_Z 92
_cell_length_a 13.851353
_cell_length_b 13.851353
_cell_length_c 19.477944
_cell_angle_alpha 90.000000
_cell_angle_beta 90.000000
_cell_angle_gamma 90.000000
_cell_volume 3737.037945
_symmetry_space_group_name_H-M "I 4/M"
_symmetry_group_IT_number 87
_symmetry_cell_setting 'tetragonal'
loop_
_space_group_symop_operation_xyz
x,y,z
-y,x,z
-x,-y,z
y,-x,z
-x,-y,-z
y,-x,-z
x,y,-z
-y,x,-z
1/2+x,1/2+y,1/2+z
1/2-y,1/2+x,1/2+z
1/2-x,1/2-y,1/2+z
1/2+y,1/2-x,1/2+z
1/2-x,1/2-y,1/2-z
1/2+y,1/2-x,1/2-z
1/2+x,1/2+y,1/2-z
1/2-y,1/2+x,1/2-z
loop_
_atom_site_type_symbol
_atom_site_label
_atom_site_fract_x
_atom_site_fract_y
_atom_site_fract_z
Si Si1 0.799555 0.821355 0.851755
Si Si2 0.114864 0.370083 0.000000
Si Si3 0.000000 0.000000 0.664728
Si Si4 0.664449 0.268165 0.500000
Si Si5 0.558678 0.756392 0.000000
Si Si6 0.392640 0.311894 0.148787
Si Si7 0.652142 0.065324 0.146330
Si Si8 0.548001 0.213006 0.240681
O O1 0.711561 0.742628 0.853763
O O2 0.899455 0.763266 0.851545
O O3 0.785902 0.883290 0.782970
O O4 0.794576 0.877580 0.924966
O O5 0.052248 0.375550 0.931673
O O6 0.177956 0.270472 0.000000
O O7 0.188218 0.458414 0.000000
O O8 0.074428 0.905827 0.663626
O O9 0.676631 0.153307 0.500000
O O10 0.567424 0.698311 0.070861
O O11 0.451555 0.254226 0.206741
O O12 0.595989 0.153953 0.179881
O O13 0.640105 0.976677 0.196753
#
# Coordination Sequence:
#
# PCOD9545743 Si02
#       8
#    16   8   4   8   8  16  16  16
#     4  10  22  45  63  86 128 164 205 253 323 369
#     4  10  20  41  61  87 120 163 209 251 302 377
#     4  12  28  37  60  96 128 157 224 246 308 385
#     4   8  20  37  63  83 112 167 199 247 308 370
#     4  10  20  35  60  87 124 162 203 246 310 369
#     4  11  24  39  61  91 127 168 202 259 314 377
#     4  11  24  41  65  90 124 164 206 257 314 367
#     4  12  23  39  64  90 123 164 206 256 311 368
#
# _framework density 24.618427000000001
#
# number of rings (size 3 to 8) (size 9 to 14) (size 15 to 20)
#    0.000    1.391    3.478    1.565    7.304    1.391 
#    0.000    0.000    0.000    3.130    0.000    0.000 
#    0.000    5.565    0.000    0.000    0.000    0.000 
#
# Total GULP energy -256697.654030 kJ/mol
# GULP energy per Si atom -5580.383783 kJ/mol
# Density = 2.456239 g / cm^3
# Si number density = 24.618427 Si / 1000 Ang^3
#
#
#
# Elastic Constant Matrix: (Units=GPa)
#
#
# Indices 1 2 3 4 5 6 
#
# 1 54.3739 0.5842 25.3280 0.0000 0.0000 -3.9642
# 2 0.5842 54.3739 25.3280 0.0000 0.0000 3.9642
# 3 25.3280 25.3280 219.8927 0.0000 0.0000 0.0000
# 4 0.0000 0.0000 0.0000 27.9063 0.0000 0.0000
# 5 0.0000 0.0000 0.0000 0.0000 27.9063 0.0000
# 6 -3.9642 3.9642 0.0000 0.0000 0.0000 2.1348
#
#
#
# Elastic Compliance Matrix: (Units=1/GPa)
#
#
# Indices 1 2 3 4 5 6 
#
# 1 0.022977 -0.002620 -0.002345 0.000000 0.000000 0.047532
# 2 -0.002620 0.022977 -0.002345 0.000000 0.000000 -0.047532
# 3 -0.002345 -0.002345 0.005088 0.000000 0.000000 0.000000
# 4 0.000000 0.000000 0.000000 0.035834 0.000000 0.000000
# 5 0.000000 0.000000 0.000000 0.000000 0.035834 0.000000
# 6 0.047532 -0.047532 0.000000 0.000000 0.000000 0.644963
#
#
# Mechanical properties :
#
#
# Convention : Reuss Voigt Hill
#
# Bulk Modulus (GPa) = 27.45554 47.90235 37.67894
# Shear Modulus (GPa) = 6.29380 30.08284 18.18832
#
# Velocity S-wave (km/s) = 1.60065 3.49945 2.72105
# Velocity P-wave (km/s) = 3.82005 5.98568 5.02101
#
# Compressibility (1/GPa) = 0.03642252
#
# Stress axis : x y z
#
# Youngs Moduli (GPa) = 43.52187 43.52187 196.54728
#
# Poissons Ratio (x) = 0.11403 0.46086
# Poissons Ratio (y) = 0.11403 0.46086
# Poissons Ratio (z) = 0.10205 0.10205
#
# Static dielectric constant tensor:
#      x y z
#    x 1.988390 0.000000 0.000000 
#    y 0.000000 1.988390 0.000000 
#    z 0.000000 0.000000 1.989910 
# 
# From -- ./inp_files/5380.got.cif
#   From: 2010.05.17/outbox.cif.g08.bks.cpg/sg87_3_cif.got.tgz:5380.got - 2010.06.03 19:07:00.
