data_PCOD9545628
_publ_section_title
;
Structure prediction by ZEFSAII (Michael W. Deem and Ramdas Pophale) SiO2 
 PCOD9545628
Probable space group: I 4/M
;
_chemical_formula_sum "Si O2"
_cell_formula_units_Z 120
_cell_length_a 13.298159
_cell_length_b 13.298159
_cell_length_c 38.905132
_cell_angle_alpha 90.000000
_cell_angle_beta 90.000000
_cell_angle_gamma 90.000000
_cell_volume 6880.023724
_symmetry_space_group_name_H-M "I 4/M"
_symmetry_group_IT_number 87
_symmetry_cell_setting 'tetragonal'
loop_
_space_group_symop_operation_xyz
x,y,z
-y,x,z
-x,-y,z
y,-x,z
-x,-y,-z
y,-x,-z
x,y,-z
-y,x,-z
1/2+x,1/2+y,1/2+z
1/2-y,1/2+x,1/2+z
1/2-x,1/2-y,1/2+z
1/2+y,1/2-x,1/2+z
1/2-x,1/2-y,1/2-z
1/2+y,1/2-x,1/2-z
1/2+x,1/2+y,1/2-z
1/2-y,1/2+x,1/2-z
loop_
_atom_site_type_symbol
_atom_site_label
_atom_site_fract_x
_atom_site_fract_y
_atom_site_fract_z
Si Si1 0.653720 0.424991 0.923942
Si Si2 0.652673 0.425941 0.000000
Si Si3 0.203322 0.903424 0.197716
Si Si4 0.694481 0.772327 0.867825
Si Si5 0.265594 0.098057 0.764912
Si Si6 0.712424 0.881126 0.683988
Si Si7 0.597562 0.070859 0.321398
Si Si8 0.881244 0.109099 0.875765
O O1 0.629547 0.544241 0.920614
O O2 0.696680 0.404533 0.962419
O O3 0.728735 0.381221 0.895759
O O4 0.628258 0.544470 0.000000
O O5 0.185113 0.803334 0.219541
O O6 0.314352 0.889717 0.182044
O O7 0.127637 0.900321 0.165957
O O8 0.207845 0.998112 0.222242
O O9 0.712568 0.685075 0.839044
O O10 0.657447 0.874365 0.848703
O O11 0.802816 0.802486 0.884039
O O12 0.266502 0.104372 0.724280
O O13 0.374021 0.100041 0.784003
O O14 0.689489 0.993292 0.672176
O O15 0.500000 0.000000 0.324693
O O16 0.994225 0.137801 0.887015
#
# Coordination Sequence:
#
# PCOD9545628 Si02
#       8
#    16   8  16  16  16  16  16  16
#     4   9  17  34  57  86 121 156 180 208 253 313
#     4   7  12  26  56  88 113 146 193 215 228 297
#     4  11  20  36  53  69  90 123 171 232 278 316
#     4  11  23  37  54  80 113 140 169 226 278 336
#     4  12  23  37  53  71  93 129 182 235 276 329
#     4  11  24  34  51  69 100 131 171 219 280 325
#     4  12  24  37  54  74  96 134 183 224 279 331
#     4  10  19  35  56  74  97 131 180 235 281 317
#
# _framework density 17.441801000000002
#
# number of rings (size 3 to 8) (size 9 to 14) (size 15 to 20)
#    0.000    1.400    5.333    2.800    3.733    0.267 
#    0.000    0.000    0.000    0.000    0.000    1.400 
#    0.000    1.067    0.000    0.000    0.000    0.000 
#
# Total GULP energy -334066.157018 kJ/mol
# GULP energy per Si atom -5567.769284 kJ/mol
# Density = 1.740210 g / cm^3
# Si number density = 17.441801 Si / 1000 Ang^3
#
#
#
# Elastic Constant Matrix: (Units=GPa)
#
#
# Indices 1 2 3 4 5 6 
#
# 1 57.2570 12.5878 12.9885 0.0000 0.0000 6.8421
# 2 12.5878 57.2570 12.9885 0.0000 0.0000 -6.8421
# 3 12.9885 12.9885 76.6280 0.0000 0.0000 0.0000
# 4 0.0000 0.0000 0.0000 14.7077 0.0000 0.0000
# 5 0.0000 0.0000 0.0000 0.0000 14.7077 0.0000
# 6 6.8421 -6.8421 0.0000 0.0000 0.0000 27.2248
#
#
#
# Elastic Compliance Matrix: (Units=1/GPa)
#
#
# Indices 1 2 3 4 5 6 
#
# 1 0.019767 -0.004487 -0.002590 0.000000 0.000000 -0.006096
# 2 -0.004487 0.019767 -0.002590 0.000000 0.000000 0.006096
# 3 -0.002590 -0.002590 0.013928 0.000000 0.000000 0.000000
# 4 0.000000 0.000000 0.000000 0.067992 0.000000 0.000000
# 5 0.000000 0.000000 0.000000 0.000000 0.067992 0.000000
# 6 -0.006096 0.006096 0.000000 0.000000 0.000000 0.039795
#
#
# Mechanical properties :
#
#
# Convention : Reuss Voigt Hill
#
# Bulk Modulus (GPa) = 29.30036 29.80795 29.55416
# Shear Modulus (GPa) = 19.23434 21.49984 20.36709
#
# Velocity S-wave (km/s) = 3.32440 3.51474 3.42089
# Velocity P-wave (km/s) = 5.61880 5.79640 5.70829
#
# Compressibility (1/GPa) = 0.03412927
#
# Stress axis : x y z
#
# Youngs Moduli (GPa) = 50.58814 50.58814 71.79729
#
# Poissons Ratio (x) = 0.22697 0.18596
# Poissons Ratio (y) = 0.22697 0.18596
# Poissons Ratio (z) = 0.13103 0.13103
#
# Static dielectric constant tensor:
#      x y z
#    x 1.649380 0.000000 0.000000 
#    y 0.000000 1.649380 0.000000 
#    z 0.000000 0.000000 1.587610 
# 
# From -- ./inp_files/6749.got.cif
#   From: 2010.05.17/outbox.cif.g08.bks.cpg/sg87_4_cif.got.tgz:6749.got - 2010.06.03 19:07:00.
