data_PCOD9545333
_publ_section_title
;
Structure prediction by ZEFSAII (Michael W. Deem and Ramdas Pophale) SiO2 
 PCOD9545333
Probable space group: P 42/N
;
_chemical_formula_sum "Si O2"
_cell_formula_units_Z 40
_cell_length_a 11.939389
_cell_length_b 11.939389
_cell_length_c 14.156575
_cell_angle_alpha 90.000000
_cell_angle_beta 90.000000
_cell_angle_gamma 90.000000
_cell_volume 2018.005747
_symmetry_space_group_name_H-M "P 42/N"
_symmetry_group_IT_number 86
_space_group.IT_coordinate_system_code '2'
_symmetry_cell_setting 'tetragonal'
loop_
_space_group_symop_operation_xyz
x,y,z
-y,1/2+x,1/2+z
1/2-x,1/2-y,z
1/2+y,-x,1/2+z
-x,-y,-z
y,1/2-x,1/2-z
1/2+x,1/2+y,-z
1/2-y,x,1/2-z
loop_
_atom_site_type_symbol
_atom_site_label
_atom_site_fract_x
_atom_site_fract_y
_atom_site_fract_z
Si Si1 0.342445 0.413150 0.250893
Si Si2 0.167095 0.898591 0.683352
Si Si3 0.877737 0.287277 0.600323
Si Si4 0.596640 0.156233 0.395859
Si Si5 0.515777 0.453515 0.604725
O O1 0.396405 0.290767 0.249279
O O2 0.376248 0.485868 0.160202
O O3 0.384217 0.481874 0.341552
O O4 0.160957 0.878827 0.795427
O O5 0.295461 0.904751 0.649020
O O6 0.118549 0.788699 0.629071
O O7 0.095934 0.007444 0.658409
O O8 0.750000 0.250000 0.581728
O O9 0.910949 0.357440 0.508047
O O10 0.955238 0.176804 0.604070
O O11 0.500000 0.500000 0.500000
#
# Coordination Sequence:
#
# PCOD9545333 Si02
#       5
#     8   8   8   8   8
#     4  11  22  38  60  92 131 166 213 278 326 383
#     4  11  21  36  60  93 126 162 215 263 313 381
#     4  12  21  37  66  92 127 168 214 272 319 395
#     4  11  20  39  62  93 125 167 215 262 329 384
#     4  12  22  39  65  95 124 172 220 261 331 384
#
# _framework density 19.821548
#
# number of rings (size 3 to 8) (size 9 to 14) (size 15 to 20)
#    0.000    0.600   10.000    0.000    0.000    0.000 
#    0.000    3.000    0.000    3.000    0.000    0.000 
#    0.000    0.000    0.000    0.000    0.000    0.000 
#
# Total GULP energy -223601.444725 kJ/mol
# GULP energy per Si atom -5590.036118 kJ/mol
# Density = 1.977643 g / cm^3
# Si number density = 19.821548 Si / 1000 Ang^3
#
#
#
# Elastic Constant Matrix: (Units=GPa)
#
#
# Indices 1 2 3 4 5 6 
#
# 1 43.9412 14.5082 4.4321 0.0000 0.0000 -5.6999
# 2 14.5082 43.9412 4.4321 0.0000 0.0000 5.6999
# 3 4.4321 4.4321 144.4363 0.0000 0.0000 0.0000
# 4 0.0000 0.0000 0.0000 26.4474 0.0000 0.0000
# 5 0.0000 0.0000 0.0000 0.0000 26.4474 0.0000
# 6 -5.6999 5.6999 0.0000 0.0000 0.0000 30.1400
#
#
#
# Elastic Compliance Matrix: (Units=1/GPa)
#
#
# Indices 1 2 3 4 5 6 
#
# 1 0.026925 -0.009736 -0.000527 0.000000 0.000000 0.006933
# 2 -0.009736 0.026925 -0.000527 0.000000 0.000000 -0.006933
# 3 -0.000527 -0.000527 0.006956 0.000000 0.000000 0.000000
# 4 0.000000 0.000000 0.000000 0.037811 0.000000 0.000000
# 5 0.000000 0.000000 0.000000 0.000000 0.037811 0.000000
# 6 0.006933 -0.006933 0.000000 0.000000 0.000000 0.035801
#
#
# Mechanical properties :
#
#
# Convention : Reuss Voigt Hill
#
# Bulk Modulus (GPa) = 25.49480 31.00705 28.25093
# Shear Modulus (GPa) = 24.16810 30.53671 27.35240
#
# Velocity S-wave (km/s) = 3.49561 3.92928 3.71877
# Velocity P-wave (km/s) = 5.40208 6.02186 5.72037
#
# Compressibility (1/GPa) = 0.03922368
#
# Stress axis : x y z
#
# Youngs Moduli (GPa) = 37.14053 37.14053 143.76418
#
# Poissons Ratio (x) = 0.36160 0.07583
# Poissons Ratio (y) = 0.36160 0.07583
# Poissons Ratio (z) = 0.01959 0.01959
#
# Static dielectric constant tensor:
#      x y z
#    x 1.701850 0.000000 0.000000 
#    y 0.000000 1.701850 0.000000 
#    z 0.000000 0.000000 1.708050 
# 
# From -- ./inp_files/2880.got.cif
#   From: 2010.05.17/outbox.cif.g08.bks.cpg/sg86_2_cif.got.tgz:2880.got - 2010.06.03 19:03:11.
