data_PCOD9545330
_publ_section_title
;
Structure prediction by ZEFSAII (Michael W. Deem and Ramdas Pophale) SiO2 
 PCOD9545330
Probable space group: P 42/N
;
_chemical_formula_sum "Si O2"
_cell_formula_units_Z 48
_cell_length_a 12.094992
_cell_length_b 12.094992
_cell_length_c 17.323391
_cell_angle_alpha 90.000000
_cell_angle_beta 90.000000
_cell_angle_gamma 90.000000
_cell_volume 2534.218627
_symmetry_space_group_name_H-M "P 42/N"
_symmetry_group_IT_number 86
_space_group.IT_coordinate_system_code '2'
_symmetry_cell_setting 'tetragonal'
loop_
_space_group_symop_operation_xyz
x,y,z
-y,1/2+x,1/2+z
1/2-x,1/2-y,z
1/2+y,-x,1/2+z
-x,-y,-z
y,1/2-x,1/2-z
1/2+x,1/2+y,-z
1/2-y,x,1/2-z
loop_
_atom_site_type_symbol
_atom_site_label
_atom_site_fract_x
_atom_site_fract_y
_atom_site_fract_z
Si Si1 0.557586 0.096740 0.812909
Si Si2 0.120754 0.020440 0.965700
Si Si3 0.267002 0.617261 0.099217
Si Si4 0.549878 0.408288 0.764612
Si Si5 0.725268 0.877126 0.359821
Si Si6 0.373483 0.772904 0.335366
O O1 0.647695 0.074729 0.876400
O O2 0.455413 0.165864 0.851330
O O3 0.620169 0.173204 0.749767
O O4 0.526633 0.988342 0.764559
O O5 0.153696 0.947877 0.890941
O O6 0.125741 0.149001 0.937808
O O7 0.196047 0.962971 0.030551
O O8 0.000000 0.000000 0.000000
O O9 0.250000 0.750000 0.082564
O O10 0.356990 0.603036 0.169244
O O11 0.438061 0.354418 0.798843
O O12 0.577743 0.346039 0.685292
O O13 0.750000 0.750000 0.341634
O O14 0.250000 0.750000 0.363453
#
# Coordination Sequence:
#
# PCOD9545330 Si02
#       6
#     8   8   8   8   8   8
#     4  11  21  37  64  92 124 166 207 280 310 379
#     4  12  23  39  60  93 125 170 203 260 330 390
#     4  12  21  42  65  91 131 165 222 264 326 394
#     4  11  21  38  67  93 120 166 215 271 313 376
#     4  11  23  36  60  92 130 159 213 262 323 387
#     4  11  20  36  59  91 119 155 218 254 306 374
#
# _framework density 18.940750999999999
#
# number of rings (size 3 to 8) (size 9 to 14) (size 15 to 20)
#    0.000    0.667    8.333    1.500    2.333    0.000 
#    0.000    5.000    0.000    0.000    0.000    0.000 
#    0.000    0.000    0.000    0.000    0.000    0.000 
#
# Total GULP energy -267207.925297 kJ/mol
# GULP energy per Si atom -5566.831777 kJ/mol
# Density = 1.889764 g / cm^3
# Si number density = 18.940751 Si / 1000 Ang^3
#
#
#
# Elastic Constant Matrix: (Units=GPa)
#
#
# Indices 1 2 3 4 5 6 
#
# 1 80.2668 33.2172 40.0831 0.0000 0.0000 3.6882
# 2 33.2172 80.2668 40.0831 0.0000 0.0000 -3.6882
# 3 40.0831 40.0831 86.1969 0.0000 0.0000 0.0000
# 4 0.0000 0.0000 0.0000 26.0950 0.0000 0.0000
# 5 0.0000 0.0000 0.0000 0.0000 26.0950 0.0000
# 6 3.6882 -3.6882 0.0000 0.0000 0.0000 22.8231
#
#
#
# Elastic Compliance Matrix: (Units=1/GPa)
#
#
# Indices 1 2 3 4 5 6 
#
# 1 0.017465 -0.004342 -0.006102 0.000000 0.000000 -0.003524
# 2 -0.004342 0.017465 -0.006102 0.000000 0.000000 0.003524
# 3 -0.006102 -0.006102 0.017277 0.000000 0.000000 0.000000
# 4 0.000000 0.000000 0.000000 0.038321 0.000000 0.000000
# 5 0.000000 0.000000 0.000000 0.000000 0.038321 0.000000
# 6 -0.003524 0.003524 0.000000 0.000000 0.000000 0.044954
#
#
# Mechanical properties :
#
#
# Convention : Reuss Voigt Hill
#
# Bulk Modulus (GPa) = 52.32101 52.61083 52.46592
# Shear Modulus (GPa) = 23.44484 23.89245 23.66865
#
# Velocity S-wave (km/s) = 3.52205 3.55552 3.53882
# Velocity P-wave (km/s) = 6.65006 6.68524 6.66767
#
# Compressibility (1/GPa) = 0.01911278
#
# Stress axis : x y z
#
# Youngs Moduli (GPa) = 57.25887 57.25887 57.88188
#
# Poissons Ratio (x) = 0.24862 0.35320
# Poissons Ratio (y) = 0.24862 0.35320
# Poissons Ratio (z) = 0.34940 0.34940
#
# Static dielectric constant tensor:
#      x y z
#    x 2.442680 0.000000 0.000000 
#    y 0.000000 2.442680 0.000000 
#    z 0.000000 0.000000 1.689180 
# 
# From -- ./inp_files/3539.got.cif
#   From: 2010.05.17/outbox.cif.g08.bks.cpg/sg86_2_cif.got.tgz:3539.got - 2010.06.03 19:03:11.
