data_PCOD9545220
_publ_section_title
;
Structure prediction by ZEFSAII (Michael W. Deem and Ramdas Pophale) SiO2 
 PCOD9545220
Probable space group: P 42/N
;
_chemical_formula_sum "Si O2"
_cell_formula_units_Z 48
_cell_length_a 8.978233
_cell_length_b 8.978233
_cell_length_c 27.955826
_cell_angle_alpha 90.000000
_cell_angle_beta 90.000000
_cell_angle_gamma 90.000000
_cell_volume 2253.481891
_symmetry_space_group_name_H-M "P 42/N"
_symmetry_group_IT_number 86
_space_group.IT_coordinate_system_code '2'
_symmetry_cell_setting 'tetragonal'
loop_
_space_group_symop_operation_xyz
x,y,z
-y,1/2+x,1/2+z
1/2-x,1/2-y,z
1/2+y,-x,1/2+z
-x,-y,-z
y,1/2-x,1/2-z
1/2+x,1/2+y,-z
1/2-y,x,1/2-z
loop_
_atom_site_type_symbol
_atom_site_label
_atom_site_fract_x
_atom_site_fract_y
_atom_site_fract_z
Si Si1 0.250000 0.250000 0.589086
Si Si2 0.568093 0.277645 0.369028
Si Si3 0.999057 0.957821 0.444758
Si Si4 0.008703 0.456313 0.638940
Si Si5 0.371700 0.399769 0.279220
Si Si6 0.250000 0.750000 0.896295
Si Si7 0.865237 0.537982 0.257642
O O1 0.143237 0.147363 0.559302
O O2 0.358792 0.147217 0.619716
O O3 0.750000 0.250000 0.361471
O O4 0.534110 0.404090 0.408681
O O5 0.469703 0.329626 0.322224
O O6 0.503096 0.117785 0.385778
O O7 0.141936 0.860403 0.427028
O O8 0.000000 0.000000 0.500000
O O9 0.859414 0.359839 0.633276
O O10 0.069616 0.494721 0.691100
O O11 0.404895 0.305877 0.229662
O O12 0.417042 0.571822 0.278002
O O13 0.691761 0.560739 0.258987
#
# Coordination Sequence:
#
# PCOD9545220 Si02
#       7
#     4   8   8   8   8   4   8
#     4  10  22  46  71 102 140 182 237 296 360 456
#     4  12  25  46  75 104 141 198 247 305 376 446
#     4  11  27  47  77 108 145 189 247 312 386 451
#     4  11  23  45  69 102 143 192 241 300 365 447
#     4  11  26  42  60  99 142 181 234 289 354 433
#     4  10  28  44  72 106 144 188 240 308 382 440
#     4  11  24  39  65  97 135 182 242 285 342 426
#
# _framework density 21.300371999999999
#
# number of rings (size 3 to 8) (size 9 to 14) (size 15 to 20)
#    0.000    1.000    3.333    2.000    8.167    2.000 
#    0.000    3.333    0.000    0.000    0.000    0.000 
#    0.000    0.000    0.000    0.000    0.000    0.000 
#
# Total GULP energy -267492.375878 kJ/mol
# GULP energy per Si atom -5572.757831 kJ/mol
# Density = 2.125189 g / cm^3
# Si number density = 21.300372 Si / 1000 Ang^3
#
#
#
# Elastic Constant Matrix: (Units=GPa)
#
#
# Indices 1 2 3 4 5 6 
#
# 1 8.0374 131.6246 34.5298 0.0000 0.0000 19.6849
# 2 131.6246 8.0374 34.5298 0.0000 0.0000 -19.6849
# 3 34.5298 34.5298 75.8907 0.0000 0.0000 0.0000
# 4 0.0000 0.0000 0.0000 13.1800 0.0000 0.0000
# 5 0.0000 0.0000 0.0000 0.0000 13.1800 0.0000
# 6 19.6849 -19.6849 0.0000 0.0000 0.0000 24.8613
#
#
#
# Elastic Compliance Matrix: (Units=1/GPa)
#
#
# Indices 1 2 3 4 5 6 
#
# 1 0.001389 0.007850 -0.004204 0.000000 0.000000 0.005116
# 2 0.007850 0.001389 -0.004204 0.000000 0.000000 -0.005116
# 3 -0.004204 -0.004204 0.017002 0.000000 0.000000 0.000000
# 4 0.000000 0.000000 0.000000 0.075873 0.000000 0.000000
# 5 0.000000 0.000000 0.000000 0.000000 0.075873 0.000000
# 6 0.005116 -0.005116 0.000000 0.000000 0.000000 0.032121
#
#
# Mechanical properties :
#
#
# Convention : Reuss Voigt Hill
#
# Bulk Modulus (GPa) = 53.57560 54.81489 54.19525
# Shear Modulus (GPa) = 23.69877 2.99633 13.34755
#
# Velocity S-wave (km/s) = 3.33918 1.18733 2.50598
# Velocity P-wave (km/s) = 6.33039 5.26021 5.81995
#
# Compressibility (1/GPa) = 0.01866521
#
# Stress axis : x y z
#
# Youngs Moduli (GPa) = 720.18104 720.18104 58.81651
#
# Poissons Ratio (x) = -5.65355 0.24724
# Poissons Ratio (y) = -5.65355 0.24724
# Poissons Ratio (z) = 3.02732 3.02732
#
# Static dielectric constant tensor:
#      x y z
#    x 1.826440 0.000000 0.000000 
#    y 0.000000 1.826440 0.000000 
#    z 0.000000 0.000000 1.774550 
# 
# From -- ./inp_files/5229.got.cif
#   From: 2010.05.17/outbox.cif.g08.bks.cpg/sg86_3_cif.got.tgz:5229.got - 2010.06.03 19:03:11.
