data_PCOD9545133
_publ_section_title
;
Structure prediction by ZEFSAII (Michael W. Deem and Ramdas Pophale) SiO2 
 PCOD9545133
Probable space group: P 42/N
;
_chemical_formula_sum "Si O2"
_cell_formula_units_Z 56
_cell_length_a 14.336664
_cell_length_b 14.336664
_cell_length_c 12.397711
_cell_angle_alpha 90.000000
_cell_angle_beta 90.000000
_cell_angle_gamma 90.000000
_cell_volume 2548.224709
_symmetry_space_group_name_H-M "P 42/N"
_symmetry_group_IT_number 86
_space_group.IT_coordinate_system_code '2'
_symmetry_cell_setting 'tetragonal'
loop_
_space_group_symop_operation_xyz
x,y,z
-y,1/2+x,1/2+z
1/2-x,1/2-y,z
1/2+y,-x,1/2+z
-x,-y,-z
y,1/2-x,1/2-z
1/2+x,1/2+y,-z
1/2-y,x,1/2-z
loop_
_atom_site_type_symbol
_atom_site_label
_atom_site_fract_x
_atom_site_fract_y
_atom_site_fract_z
Si Si1 0.967569 0.797114 0.005343
Si Si2 0.059514 0.019499 0.852121
Si Si3 0.084798 0.874140 0.446754
Si Si4 0.837709 0.136680 0.004140
Si Si5 0.547907 0.144097 0.284725
Si Si6 0.453768 0.107010 0.891474
Si Si7 0.893575 0.768618 0.775101
O O1 0.918462 0.806754 0.891139
O O2 0.079736 0.786598 0.982747
O O3 0.949698 0.885585 0.080533
O O4 0.926943 0.707306 0.064130
O O5 0.108185 0.031033 0.736722
O O6 0.951822 0.996821 0.820795
O O7 0.113038 0.946612 0.927619
O O8 0.130264 0.771569 0.464207
O O9 0.126569 0.916998 0.335890
O O10 0.973072 0.878436 0.420299
O O11 0.088981 0.947369 0.546501
O O12 0.839211 0.124653 0.875173
O O13 0.484477 0.235504 0.286787
O O14 0.836659 0.672369 0.790492
#
# Coordination Sequence:
#
# PCOD9545133 Si02
#       7
#     8   8   8   8   8   8   8
#     4  11  23  45  66 102 138 179 236 297 348 418
#     4  10  23  42  69  96 135 191 224 273 368 430
#     4  10  23  44  67 102 131 191 230 280 357 425
#     4  11  24  39  73  97 137 179 230 283 349 426
#     4  10  21  42  66  96 138 177 230 280 355 428
#     4  10  23  43  70  94 141 182 229 283 347 432
#     4  11  23  39  68 101 134 177 233 297 347 403
#
# _framework density 21.976082999999999
#
# number of rings (size 3 to 8) (size 9 to 14) (size 15 to 20)
#    0.000    1.571    1.429    3.429    8.000    1.714 
#    0.000    0.000    6.286    0.000    0.000    0.000 
#    0.000    0.000    0.000    0.000    0.000    0.000 
#
# Total GULP energy -312449.332804 kJ/mol
# GULP energy per Si atom -5579.452371 kJ/mol
# Density = 2.192606 g / cm^3
# Si number density = 21.976083 Si / 1000 Ang^3
#
#
#
# Elastic Constant Matrix: (Units=GPa)
#
#
# Indices 1 2 3 4 5 6 
#
# 1 70.9417 6.8183 46.7956 0.0000 0.0000 -4.1174
# 2 6.8183 70.9417 46.7956 0.0000 0.0000 4.1174
# 3 46.7956 46.7956 117.1432 0.0000 0.0000 0.0000
# 4 0.0000 0.0000 0.0000 19.9297 0.0000 0.0000
# 5 0.0000 0.0000 0.0000 0.0000 19.9297 0.0000
# 6 -4.1174 4.1174 0.0000 0.0000 0.0000 28.6443
#
#
#
# Elastic Compliance Matrix: (Units=1/GPa)
#
#
# Indices 1 2 3 4 5 6 
#
# 1 0.020329 0.004440 -0.009895 0.000000 0.000000 0.002284
# 2 0.004440 0.020329 -0.009895 0.000000 0.000000 -0.002284
# 3 -0.009895 -0.009895 0.016442 0.000000 0.000000 0.000000
# 4 0.000000 0.000000 0.000000 0.050176 0.000000 0.000000
# 5 0.000000 0.000000 0.000000 0.000000 0.050176 0.000000
# 6 0.002284 -0.002284 0.000000 0.000000 0.000000 0.035567
#
#
# Mechanical properties :
#
#
# Convention : Reuss Voigt Hill
#
# Bulk Modulus (GPa) = 37.87637 51.09393 44.48515
# Shear Modulus (GPa) = 21.50375 24.27521 22.88948
#
# Velocity S-wave (km/s) = 3.13150 3.32719 3.23083
# Velocity P-wave (km/s) = 5.50888 6.16932 5.84843
#
# Compressibility (1/GPa) = 0.02640168
#
# Stress axis : x y z
#
# Youngs Moduli (GPa) = 49.19158 49.19158 60.82048
#
# Poissons Ratio (x) = -0.21843 0.60180
# Poissons Ratio (y) = -0.21843 0.60180
# Poissons Ratio (z) = 0.48673 0.48673
#
# Static dielectric constant tensor:
#      x y z
#    x 1.855410 0.000000 0.000000 
#    y 0.000000 1.855410 0.000000 
#    z 0.000000 0.000000 1.740200 
# 
# From -- ./inp_files/2379.got.cif
#   From: 2010.05.17/outbox.cif.g08.bks.cpg/sg86_2_cif.got.tgz:2379.got - 2010.06.03 19:03:11.
