data_PCOD9545719
_publ_section_title
;
Structure prediction by ZEFSAII (Michael W. Deem and Ramdas Pophale) SiO2 
 PCOD9545719
Probable space group: I 4/M
;
_chemical_formula_sum "Si O2"
_cell_formula_units_Z 116
_cell_length_a 18.789532
_cell_length_b 18.789532
_cell_length_c 15.163370
_cell_angle_alpha 90.000000
_cell_angle_beta 90.000000
_cell_angle_gamma 90.000000
_cell_volume 5353.374900
_symmetry_space_group_name_H-M "I 4/M"
_symmetry_group_IT_number 87
_symmetry_cell_setting 'tetragonal'
loop_
_space_group_symop_operation_xyz
x,y,z
-y,x,z
-x,-y,z
y,-x,z
-x,-y,-z
y,-x,-z
x,y,-z
-y,x,-z
1/2+x,1/2+y,1/2+z
1/2-y,1/2+x,1/2+z
1/2-x,1/2-y,1/2+z
1/2+y,1/2-x,1/2+z
1/2-x,1/2-y,1/2-z
1/2+y,1/2-x,1/2-z
1/2+x,1/2+y,1/2-z
1/2-y,1/2+x,1/2-z
loop_
_atom_site_type_symbol
_atom_site_label
_atom_site_fract_x
_atom_site_fract_y
_atom_site_fract_z
Si Si1 0.646264 0.558059 0.601627
Si Si2 0.867592 0.639118 0.365085
Si Si3 0.500000 0.500000 0.668130
Si Si4 0.345392 0.151810 0.342778
Si Si5 0.495974 0.201685 0.366636
Si Si6 0.384944 0.503552 0.893364
Si Si7 0.995013 0.278603 0.654931
Si Si8 0.705445 0.283050 0.601928
O O1 0.619625 0.563843 0.500000
O O2 0.585076 0.522263 0.658261
O O3 0.718835 0.512127 0.600181
O O4 0.671891 0.636458 0.632870
O O5 0.864146 0.636987 0.258890
O O6 0.850788 0.559237 0.395774
O O7 0.799570 0.684817 0.394052
O O8 0.941672 0.675749 0.388524
O O9 0.419216 0.171285 0.389855
O O10 0.304874 0.082276 0.376670
O O11 0.298545 0.222800 0.346578
O O12 0.500359 0.209132 0.260247
O O13 0.429499 0.433605 0.865256
O O14 0.304921 0.504875 0.860888
O O15 0.383713 0.503600 0.000000
O O16 0.717312 0.302452 0.500000
#
# Coordination Sequence:
#
# PCOD9545719 Si02
#       8
#    16  16   4  16  16  16  16  16
#     4  10  20  35  53  75 107 147 187 223 271 326
#     4   9  20  38  57  78 112 146 182 229 280 331
#     4  12  21  32  52  76 104 140 181 222 261 316
#     4  10  20  35  57  82 111 142 184 232 277 331
#     4   9  20  39  55  79 113 146 183 226 281 325
#     4   9  20  40  60  79 112 151 183 228 287 338
#     4  10  21  36  58  86 108 142 186 226 279 336
#     4  10  21  36  56  80 108 148 188 225 275 331
#
# _framework density 21.668574
#
# number of rings (size 3 to 8) (size 9 to 14) (size 15 to 20)
#    0.000    2.345    0.000    2.276    1.931    3.310 
#    7.448    2.759    0.000    0.000    0.000    5.793 
#    0.000    0.000    0.000    0.000    0.000    0.000 
#
# Total GULP energy -323636.444218 kJ/mol
# GULP energy per Si atom -5579.938693 kJ/mol
# Density = 2.161926 g / cm^3
# Si number density = 21.668574 Si / 1000 Ang^3
#
#
#
# Elastic Constant Matrix: (Units=GPa)
#
#
# Indices 1 2 3 4 5 6 
#
# 1 119.1664 63.3218 13.4280 0.0000 0.0000 8.1485
# 2 63.3218 119.1664 13.4280 0.0000 0.0000 -8.1485
# 3 13.4280 13.4280 44.6344 0.0000 0.0000 0.0000
# 4 0.0000 0.0000 0.0000 9.3904 0.0000 0.0000
# 5 0.0000 0.0000 0.0000 0.0000 9.3904 0.0000
# 6 8.1485 -8.1485 0.0000 0.0000 0.0000 17.7556
#
#
#
# Elastic Compliance Matrix: (Units=1/GPa)
#
#
# Indices 1 2 3 4 5 6 
#
# 1 0.013205 -0.007471 -0.001725 0.000000 0.000000 -0.009489
# 2 -0.007471 0.013205 -0.001725 0.000000 0.000000 0.009489
# 3 -0.001725 -0.001725 0.023442 0.000000 0.000000 0.000000
# 4 0.000000 0.000000 0.000000 0.106492 0.000000 0.000000
# 5 0.000000 0.000000 0.000000 0.000000 0.106492 0.000000
# 6 -0.009489 0.009489 0.000000 0.000000 0.000000 0.065030
#
#
# Mechanical properties :
#
#
# Convention : Reuss Voigt Hill
#
# Bulk Modulus (GPa) = 35.70195 51.48032 43.59114
# Shear Modulus (GPa) = 13.92588 20.15991 17.04290
#
# Velocity S-wave (km/s) = 2.53786 3.05351 2.80755
# Velocity P-wave (km/s) = 5.00997 6.02010 5.53811
#
# Compressibility (1/GPa) = 0.02800967
#
# Stress axis : x y z
#
# Youngs Moduli (GPa) = 75.73017 75.73017 42.65829
#
# Poissons Ratio (x) = 0.56579 0.07358
# Poissons Ratio (y) = 0.56579 0.07358
# Poissons Ratio (z) = 0.13063 0.13063
#
# Static dielectric constant tensor:
#      x y z
#    x 1.765670 0.000000 0.000000 
#    y 0.000000 1.765670 0.000000 
#    z 0.000000 0.000000 1.866410 
# 
# From -- ./inp_files/4618.got.cif
#   From: 2010.05.17/outbox.cif.g08.bks.cpg/sg87_3_cif.got.tgz:4618.got - 2010.06.03 19:07:00.
