data_PCOD9545732
_publ_section_title
;
Structure prediction by ZEFSAII (Michael W. Deem and Ramdas Pophale) SiO2 
 PCOD9545732
Probable space group: I 4/M
;
_chemical_formula_sum "Si O2"
_cell_formula_units_Z 96
_cell_length_a 13.045886
_cell_length_b 13.045886
_cell_length_c 26.879320
_cell_angle_alpha 90.000000
_cell_angle_beta 90.000000
_cell_angle_gamma 90.000000
_cell_volume 4574.729671
_symmetry_space_group_name_H-M "I 4/M"
_symmetry_group_IT_number 87
_symmetry_cell_setting 'tetragonal'
loop_
_space_group_symop_operation_xyz
x,y,z
-y,x,z
-x,-y,z
y,-x,z
-x,-y,-z
y,-x,-z
x,y,-z
-y,x,-z
1/2+x,1/2+y,1/2+z
1/2-y,1/2+x,1/2+z
1/2-x,1/2-y,1/2+z
1/2+y,1/2-x,1/2+z
1/2-x,1/2-y,1/2-z
1/2+y,1/2-x,1/2-z
1/2+x,1/2+y,1/2-z
1/2-y,1/2+x,1/2-z
loop_
_atom_site_type_symbol
_atom_site_label
_atom_site_fract_x
_atom_site_fract_y
_atom_site_fract_z
Si Si1 0.296991 0.521789 0.500000
Si Si2 0.449522 0.887856 0.943960
Si Si3 0.193349 0.733573 0.000000
Si Si4 0.851673 0.091989 0.310922
Si Si5 0.978529 0.749335 0.103124
Si Si6 0.846120 0.077383 0.201419
Si Si7 0.302360 0.857070 0.604326
O O1 0.298767 0.644522 0.500000
O O2 0.209417 0.430997 0.500000
O O3 0.330166 0.502842 0.557853
O O4 0.524060 0.825138 0.908484
O O5 0.500000 0.000000 0.946951
O O6 0.338799 0.910256 0.922150
O O7 0.444795 0.844887 0.000000
O O8 0.234460 0.689069 0.051433
O O9 0.804226 0.107668 0.255488
O O10 0.779356 0.142673 0.351882
O O11 0.967942 0.135286 0.315187
O O12 0.089501 0.700028 0.116606
O O13 0.913171 0.786720 0.149988
O O14 0.955934 0.131135 0.200461
#
# Coordination Sequence:
#
# PCOD9545732 Si02
#       7
#     8  16   8  16  16  16  16
#     4  10  22  34  53  87 123 163 191 233 289 351
#     4   9  16  33  56  78 113 159 186 226 291 347
#     4  10  22  38  57  86 127 155 199 238 284 365
#     4   9  20  43  65  81 110 155 203 251 308 351
#     4  10  20  35  56  88 123 153 199 235 289 361
#     4   9  20  40  61  81 116 161 197 239 293 352
#     4  10  20  37  60  87 116 154 199 246 292 351
#
# _framework density 20.984846000000001
#
# number of rings (size 3 to 8) (size 9 to 14) (size 15 to 20)
#    0.000    2.500    1.667    1.000    4.667    1.500 
#    3.000    2.500    0.000    1.000    0.000    0.000 
#    0.000    0.000    0.000    0.000    0.000    0.000 
#
# Total GULP energy -267296.548398 kJ/mol
# GULP energy per Si atom -5568.678092 kJ/mol
# Density = 2.093708 g / cm^3
# Si number density = 20.984846 Si / 1000 Ang^3
#
#
#
# Elastic Constant Matrix: (Units=GPa)
#
#
# Indices 1 2 3 4 5 6 
#
# 1 68.7386 5.2155 40.4865 0.0000 0.0000 -25.4561
# 2 5.2155 68.7386 40.4865 0.0000 0.0000 25.4561
# 3 40.4865 40.4865 163.7937 0.0000 0.0000 0.0000
# 4 0.0000 0.0000 0.0000 18.6966 0.0000 0.0000
# 5 0.0000 0.0000 0.0000 0.0000 18.6966 0.0000
# 6 -25.4561 25.4561 0.0000 0.0000 0.0000 46.7274
#
#
#
# Elastic Compliance Matrix: (Units=1/GPa)
#
#
# Indices 1 2 3 4 5 6 
#
# 1 0.023241 -0.004702 -0.004583 0.000000 0.000000 0.015223
# 2 -0.004702 0.023241 -0.004583 0.000000 0.000000 -0.015223
# 3 -0.004583 -0.004583 0.008371 0.000000 0.000000 0.000000
# 4 0.000000 0.000000 0.000000 0.053486 0.000000 0.000000
# 5 0.000000 0.000000 0.000000 0.000000 0.053486 0.000000
# 6 0.015223 -0.015223 0.000000 0.000000 0.000000 0.037987
#
#
# Mechanical properties :
#
#
# Convention : Reuss Voigt Hill
#
# Bulk Modulus (GPa) = 36.87426 52.62756 44.75091
# Shear Modulus (GPa) = 21.13410 31.16295 26.14853
#
# Velocity S-wave (km/s) = 3.17695 3.85778 3.53380
# Velocity P-wave (km/s) = 5.57381 6.70646 6.16619
#
# Compressibility (1/GPa) = 0.02711919
#
# Stress axis : x y z
#
# Youngs Moduli (GPa) = 43.02719 43.02719 119.46463
#
# Poissons Ratio (x) = 0.20230 0.54745
# Poissons Ratio (y) = 0.20230 0.54745
# Poissons Ratio (z) = 0.19717 0.19717
#
# Static dielectric constant tensor:
#      x y z
#    x 1.825950 0.000000 0.000000 
#    y 0.000000 1.825950 0.000000 
#    z 0.000000 0.000000 1.837150 
# 
# From -- ./inp_files/5831.got.cif
#   From: 2010.05.17/outbox.cif.g08.bks.cpg/sg87_3_cif.got.tgz:5831.got - 2010.06.03 19:07:00.
