data_PCOD9545031
_publ_section_title
;
Structure prediction by ZEFSAII (Michael W. Deem and Ramdas Pophale) SiO2 
 PCOD9545031
Probable space group: P 42/N
;
_chemical_formula_sum "Si O2"
_cell_formula_units_Z 36
_cell_length_a 7.084570
_cell_length_b 7.084570
_cell_length_c 32.069877
_cell_angle_alpha 90.000000
_cell_angle_beta 90.000000
_cell_angle_gamma 90.000000
_cell_volume 1609.623432
_symmetry_space_group_name_H-M "P 42/N"
_symmetry_group_IT_number 86
_space_group.IT_coordinate_system_code '2'
_symmetry_cell_setting 'tetragonal'
loop_
_space_group_symop_operation_xyz
x,y,z
-y,1/2+x,1/2+z
1/2-x,1/2-y,z
1/2+y,-x,1/2+z
-x,-y,-z
y,1/2-x,1/2-z
1/2+x,1/2+y,-z
1/2-y,x,1/2-z
loop_
_atom_site_type_symbol
_atom_site_label
_atom_site_fract_x
_atom_site_fract_y
_atom_site_fract_z
Si Si1 0.911888 0.020556 0.243015
Si Si2 0.527539 0.287148 0.515878
Si Si3 0.750000 0.750000 0.550699
Si Si4 0.667220 0.557167 0.682636
Si Si5 0.916541 0.103941 0.600963
O O1 0.995208 0.806483 0.243412
O O2 0.942850 0.153068 0.202360
O O3 0.032206 0.115866 0.279573
O O4 0.750000 0.250000 0.514886
O O5 0.500000 0.500000 0.500000
O O6 0.408938 0.172875 0.481543
O O7 0.464194 0.293579 0.564411
O O8 0.664283 0.584069 0.578576
O O9 0.750000 0.750000 0.664241
O O10 0.535904 0.455879 0.647989
O O11 0.750000 0.250000 0.608487
#
# Coordination Sequence:
#
# PCOD9545031 Si02
#       5
#     8   8   4   8   8
#     4  11  23  40  64  90 119 157 201 249 305 375
#     4   9  20  37  60  88 117 160 204 256 303 366
#     4  10  20  40  62  85 124 160 215 250 318 362
#     4  12  22  40  64  89 124 164 198 250 311 364
#     4  10  21  37  60  88 122 158 203 255 300 365
#
# _framework density 22.365478
#
# number of rings (size 3 to 8) (size 9 to 14) (size 15 to 20)
#    0.000    1.556    3.333    2.000    0.000    8.000 
#    0.000   11.111    0.000    0.000    0.000    0.000 
#    0.000    0.000    0.000    0.000    0.000    0.000 
#
# Total GULP energy -200478.516455 kJ/mol
# GULP energy per Si atom -5568.847679 kJ/mol
# Density = 2.231457 g / cm^3
# Si number density = 22.365478 Si / 1000 Ang^3
#
#
#
# Elastic Constant Matrix: (Units=GPa)
#
#
# Indices 1 2 3 4 5 6 
#
# 1 73.4536 13.8467 15.8298 0.0000 0.0000 8.6278
# 2 13.8467 73.4536 15.8298 0.0000 0.0000 -8.6278
# 3 15.8298 15.8298 143.5810 0.0000 0.0000 0.0000
# 4 0.0000 0.0000 0.0000 40.3020 0.0000 0.0000
# 5 0.0000 0.0000 0.0000 0.0000 40.3020 0.0000
# 6 8.6278 -8.6278 0.0000 0.0000 0.0000 29.6796
#
#
#
# Elastic Compliance Matrix: (Units=1/GPa)
#
#
# Indices 1 2 3 4 5 6 
#
# 1 0.015125 -0.003193 -0.001315 0.000000 0.000000 -0.005325
# 2 -0.003193 0.015125 -0.001315 0.000000 0.000000 0.005325
# 3 -0.001315 -0.001315 0.007255 0.000000 0.000000 0.000000
# 4 0.000000 0.000000 0.000000 0.024813 0.000000 0.000000
# 5 0.000000 0.000000 0.000000 0.000000 0.024813 0.000000
# 6 -0.005325 0.005325 0.000000 0.000000 0.000000 0.036789
#
#
# Mechanical properties :
#
#
# Convention : Reuss Voigt Hill
#
# Bulk Modulus (GPa) = 38.67514 42.38898 40.53206
# Shear Modulus (GPa) = 34.67738 38.38887 36.53312
#
# Velocity S-wave (km/s) = 3.94189 4.14748 4.04599
# Velocity P-wave (km/s) = 6.16830 6.47530 6.32366
#
# Compressibility (1/GPa) = 0.02585640
#
# Stress axis : x y z
#
# Youngs Moduli (GPa) = 66.11590 66.11590 137.84034
#
# Poissons Ratio (x) = 0.21112 0.18133
# Poissons Ratio (y) = 0.21112 0.18133
# Poissons Ratio (z) = 0.08697 0.08697
#
# Static dielectric constant tensor:
#      x y z
#    x 2.015360 0.000000 0.000000 
#    y 0.000000 2.015360 0.000000 
#    z 0.000000 0.000000 1.885000 
# 
# From -- ./inp_files/4985.got.cif
#   From: 2010.05.17/outbox.cif.g08.bks.cpg/sg86_3_cif.got.tgz:4985.got - 2010.06.03 19:03:11.
