data_PCOD9545676
_publ_section_title
;
Structure prediction by ZEFSAII (Michael W. Deem and Ramdas Pophale) SiO2 
 PCOD9545676
Probable space group: I 4/M
;
_chemical_formula_sum "Si O2"
_cell_formula_units_Z 96
_cell_length_a 24.741855
_cell_length_b 24.741855
_cell_length_c 7.724741
_cell_angle_alpha 90.000000
_cell_angle_beta 90.000000
_cell_angle_gamma 90.000000
_cell_volume 4728.772730
_symmetry_space_group_name_H-M "I 4/M"
_symmetry_group_IT_number 87
_symmetry_cell_setting 'tetragonal'
loop_
_space_group_symop_operation_xyz
x,y,z
-y,x,z
-x,-y,z
y,-x,z
-x,-y,-z
y,-x,-z
x,y,-z
-y,x,-z
1/2+x,1/2+y,1/2+z
1/2-y,1/2+x,1/2+z
1/2-x,1/2-y,1/2+z
1/2+y,1/2-x,1/2+z
1/2-x,1/2-y,1/2-z
1/2+y,1/2-x,1/2-z
1/2+x,1/2+y,1/2-z
1/2-y,1/2+x,1/2-z
loop_
_atom_site_type_symbol
_atom_site_label
_atom_site_fract_x
_atom_site_fract_y
_atom_site_fract_z
Si Si1 0.339609 0.271643 0.204671
Si Si2 0.561708 0.938853 0.202023
Si Si3 0.068286 0.144039 0.209896
Si Si4 0.847355 0.359339 0.799598
Si Si5 0.258397 0.361317 0.204721
Si Si6 0.445826 0.649656 0.290619
O O1 0.392345 0.308649 0.227277
O O2 0.351735 0.212516 0.279534
O O3 0.289448 0.307521 0.273979
O O4 0.328761 0.264983 0.000000
O O5 0.497617 0.927908 0.216174
O O6 0.597705 0.889827 0.275467
O O7 0.575657 0.944774 0.000000
O O8 0.096737 0.088000 0.262655
O O9 0.007159 0.149729 0.271553
O O10 0.068241 0.145805 0.000000
O O11 0.871036 0.299008 0.791528
O O12 0.839236 0.375972 0.000000
O O13 0.299258 0.410768 0.231805
O O14 0.249442 0.354639 0.000000
O O15 0.446750 0.650496 0.500000
#
# Coordination Sequence:
#
# PCOD9545676 Si02
#       6
#    16  16  16  16  16  16
#     4   9  19  35  52  74 106 138 168 207 255 302
#     4  10  21  38  58  78 103 134 166 206 255 303
#     4   9  18  32  51  74 101 136 175 215 257 299
#     4  10  21  36  55  78 103 133 168 207 251 301
#     4  10  20  33  52  77 104 136 171 209 254 302
#     4   9  18  33  51  73 103 137 174 215 257 300
#
# _framework density 20.301251000000001
#
# number of rings (size 3 to 8) (size 9 to 14) (size 15 to 20)
#    0.000    2.500    0.000    2.000    0.000    5.000 
#    0.000    5.000    0.000    0.000    0.000    4.667 
#    0.000    0.000    0.000    0.000    0.000    0.000 
#
# Total GULP energy -267820.443762 kJ/mol
# GULP energy per Si atom -5579.592578 kJ/mol
# Density = 2.025504 g / cm^3
# Si number density = 20.301251 Si / 1000 Ang^3
#
#
#
# Elastic Constant Matrix: (Units=GPa)
#
#
# Indices 1 2 3 4 5 6 
#
# 1 25.4108 74.2406 -1.8793 0.0000 0.0000 2.1250
# 2 74.2406 25.4108 -1.8793 0.0000 0.0000 -2.1250
# 3 -1.8793 -1.8793 33.7075 0.0000 0.0000 0.0000
# 4 0.0000 0.0000 0.0000 11.7303 0.0000 0.0000
# 5 0.0000 0.0000 0.0000 0.0000 11.7303 0.0000
# 6 2.1250 -2.1250 0.0000 0.0000 0.0000 24.5513
#
#
#
# Elastic Compliance Matrix: (Units=1/GPa)
#
#
# Indices 1 2 3 4 5 6 
#
# 1 -0.005135 0.015191 0.000561 0.000000 0.000000 0.001759
# 2 0.015191 -0.005135 0.000561 0.000000 0.000000 -0.001759
# 3 0.000561 0.000561 0.029729 0.000000 0.000000 0.000000
# 4 0.000000 0.000000 0.000000 0.085249 0.000000 0.000000
# 5 0.000000 0.000000 0.000000 0.000000 0.085249 0.000000
# 6 0.001759 -0.001759 0.000000 0.000000 0.000000 0.040426
#
#
# Mechanical properties :
#
#
# Convention : Reuss Voigt Hill
#
# Bulk Modulus (GPa) = 19.19961 25.05478 22.12720
# Shear Modulus (GPa) = 23.24273 10.53886 16.89080
#
# Velocity S-wave (km/s) = 3.38730 2.28090 2.88758
# Velocity P-wave (km/s) = 4.97757 4.39374 4.69474
#
# Compressibility (1/GPa) = 0.05208438
#
# Stress axis : x y z
#
# Youngs Moduli (GPa) = -194.74082 -194.74082 33.63666
#
# Poissons Ratio (x) = 2.95834 -0.01886
# Poissons Ratio (y) = 2.95834 -0.01886
# Poissons Ratio (z) = 0.10918 0.10918
#
# Static dielectric constant tensor:
#      x y z
#    x 1.714140 0.000000 0.000000 
#    y 0.000000 1.714140 0.000000 
#    z 0.000000 0.000000 1.761820 
# 
# From -- ./inp_files/1354.got.cif
#   From: 2010.05.17/outbox.cif.g08.bks.cpg/sg87_1_cif.got.tgz:1354.got - 2010.06.03 19:07:00.
