data_PCOD9545478
_publ_section_title
;
Structure prediction by ZEFSAII (Michael W. Deem and Ramdas Pophale) SiO2 
 PCOD9545478
Probable space group: P 42/N
;
_chemical_formula_sum "Si O2"
_cell_formula_units_Z 40
_cell_length_a 9.000000
_cell_length_b 9.000000
_cell_length_c 24.000000
_cell_angle_alpha 90.000000
_cell_angle_beta 90.000000
_cell_angle_gamma 90.000000
_cell_volume 1944.000000
_symmetry_space_group_name_H-M "P 42/N"
_symmetry_group_IT_number 86
_space_group.IT_coordinate_system_code '2'
_symmetry_cell_setting 'tetragonal'
loop_
_space_group_symop_operation_xyz
x,y,z
-y,1/2+x,1/2+z
1/2-x,1/2-y,z
1/2+y,-x,1/2+z
-x,-y,-z
y,1/2-x,1/2-z
1/2+x,1/2+y,-z
1/2-y,x,1/2-z
loop_
_atom_site_type_symbol
_atom_site_label
_atom_site_fract_x
_atom_site_fract_y
_atom_site_fract_z
Si Si1 0.174774 0.412649 0.062824
Si Si2 0.055955 0.530699 0.752364
Si Si3 0.293238 0.424014 0.834867
Si Si4 0.924620 0.213091 0.320631
Si Si5 0.084565 0.816138 0.446286
O O1 0.250000 0.250000 0.060562
O O2 0.227912 0.495252 0.119476
O O3 0.994133 0.405436 0.064267
O O4 0.210356 0.501790 0.005490
O O5 0.208541 0.514475 0.786048
O O6 0.068457 0.456702 0.691093
O O7 0.015566 0.694442 0.732909
O O8 0.950748 0.455532 0.797877
O O9 0.250000 0.250000 0.835199
O O10 0.259082 0.496003 0.894592
O O11 0.750000 0.250000 0.326440
O O12 0.250000 0.750000 0.448396
#
# Coordination Sequence:
#
# PCOD9545478 Si02
#       5
#     8   8   8   8   8
#     4  11  27  50  70 103 136 179 229 288 347 405
#     4  12  25  41  68 101 143 184 229 274 348 406
#     4  12  22  44  68 102 135 185 232 279 331 413
#     4  12  26  44  68 100 143 181 226 286 342 407
#     4  11  27  48  75  99 136 180 233 284 343 413
#
# _framework density 20.576132000000001
#
# number of rings (size 3 to 8) (size 9 to 14) (size 15 to 20)
#    0.000    0.400    6.000    1.200    8.400    0.800 
#    0.000    0.000    0.000    0.000    0.000    0.000 
#    0.000    0.000    0.000    0.000    0.000    0.000 
#
# Total GULP energy -223301.228990 kJ/mol
# GULP energy per Si atom -5582.530725 kJ/mol
# Density = 2.052930 g / cm^3
# Si number density = 20.576132 Si / 1000 Ang^3
#
#
#
# Elastic Constant Matrix: (Units=GPa)
#
#
# Indices 1 2 3 4 5 6 
#
# 1 53.0492 -7.7480 29.9384 0.0000 0.0000 -0.1099
# 2 -7.7480 53.0492 29.9384 0.0000 0.0000 0.1099
# 3 29.9384 29.9384 166.5309 0.0000 0.0000 0.0000
# 4 0.0000 0.0000 0.0000 45.4699 0.0000 0.0000
# 5 0.0000 0.0000 0.0000 0.0000 45.4699 0.0000
# 6 -0.1099 0.1099 0.0000 0.0000 0.0000 30.2189
#
#
#
# Elastic Compliance Matrix: (Units=1/GPa)
#
#
# Indices 1 2 3 4 5 6 
#
# 1 0.022702 0.006253 -0.005205 0.000000 0.000000 0.000060
# 2 0.006253 0.022702 -0.005205 0.000000 0.000000 -0.000060
# 3 -0.005205 -0.005205 0.007877 0.000000 0.000000 0.000000
# 4 0.000000 0.000000 0.000000 0.021993 0.000000 0.000000
# 5 0.000000 0.000000 0.000000 0.000000 0.021993 0.000000
# 6 0.000060 -0.000060 0.000000 0.000000 0.000000 0.033092
#
#
# Mechanical properties :
#
#
# Convention : Reuss Voigt Hill
#
# Bulk Modulus (GPa) = 22.23985 41.87631 32.05808
# Shear Modulus (GPa) = 32.53930 38.93175 35.73553
#
# Velocity S-wave (km/s) = 3.98101 4.35453 4.17195
# Velocity P-wave (km/s) = 5.65361 6.75860 6.23065
#
# Compressibility (1/GPa) = 0.04496433
#
# Stress axis : x y z
#
# Youngs Moduli (GPa) = 44.04995 44.04995 126.95984
#
# Poissons Ratio (x) = -0.27545 0.66087
# Poissons Ratio (y) = -0.27545 0.66087
# Poissons Ratio (z) = 0.22930 0.22930
#
# Static dielectric constant tensor:
#      x y z
#    x 1.831160 0.000000 0.000000 
#    y 0.000000 1.831160 0.000000 
#    z 0.000000 0.000000 1.663910 
# 
# From -- ./inp_files/4502.got.cif
#   From: 2010.05.17/outbox.ucp.g08.bks.cvg/sg86_3_cif.got.tgz:4502.got - 2010.06.11 10:35:13.
