data_PCOD9545511
_publ_section_title
;
Structure prediction by ZEFSAII (Michael W. Deem and Ramdas Pophale) SiO2 
 PCOD9545511
Probable space group: I 4/M
;
_chemical_formula_sum "Si O2"
_cell_formula_units_Z 72
_cell_length_a 21.740019
_cell_length_b 21.740019
_cell_length_c 7.444055
_cell_angle_alpha 90.000000
_cell_angle_beta 90.000000
_cell_angle_gamma 90.000000
_cell_volume 3518.271999
_symmetry_space_group_name_H-M "I 4/M"
_symmetry_group_IT_number 87
_symmetry_cell_setting 'tetragonal'
loop_
_space_group_symop_operation_xyz
x,y,z
-y,x,z
-x,-y,z
y,-x,z
-x,-y,-z
y,-x,-z
x,y,-z
-y,x,-z
1/2+x,1/2+y,1/2+z
1/2-y,1/2+x,1/2+z
1/2-x,1/2-y,1/2+z
1/2+y,1/2-x,1/2+z
1/2-x,1/2-y,1/2-z
1/2+y,1/2-x,1/2-z
1/2+x,1/2+y,1/2-z
1/2-y,1/2+x,1/2-z
loop_
_atom_site_type_symbol
_atom_site_label
_atom_site_fract_x
_atom_site_fract_y
_atom_site_fract_z
Si Si1 0.194494 0.098227 0.207210
Si Si2 0.655047 0.095396 0.781925
Si Si3 0.041052 0.681146 0.789109
Si Si4 0.320678 0.267448 0.714177
Si Si5 0.031491 0.902156 0.000000
O O1 0.255436 0.068782 0.289582
O O2 0.171492 0.162894 0.284609
O O3 0.213015 0.115210 0.000000
O O4 0.140335 0.049384 0.170870
O O5 0.592528 0.129057 0.726445
O O6 0.713790 0.134916 0.716851
O O7 0.661246 0.025304 0.717832
O O8 0.654506 0.096304 0.000000
O O9 0.029867 0.693882 0.000000
O O10 0.332030 0.267946 0.500000
O O11 0.250000 0.250000 0.750000
O O12 0.961890 0.924904 0.000000
#
# Coordination Sequence:
#
# PCOD9545511 Si02
#       5
#    16  16  16  16   8
#     4   8  17  28  48  68 101 132 166 196 254 301
#     4  10  22  34  53  76 103 134 176 219 264 307
#     4  10  20  36  52  74 101 140 175 215 265 312
#     4  10  18  31  51  77 100 130 167 211 256 307
#     4   9  18  28  46  78 112 137 165 201 257 319
#
# _framework density 20.464593000000001
#
# number of rings (size 3 to 8) (size 9 to 14) (size 15 to 20)
#    0.667    1.889    2.222    0.000    3.111    1.333 
#    0.000    2.222    0.000    0.000    0.000    0.000 
#    0.000    0.000    0.000    5.333    0.000    0.000 
#
# Total GULP energy -200547.534269 kJ/mol
# GULP energy per Si atom -5570.764841 kJ/mol
# Density = 2.041801 g / cm^3
# Si number density = 20.464593 Si / 1000 Ang^3
#
#
#
# Elastic Constant Matrix: (Units=GPa)
#
#
# Indices 1 2 3 4 5 6 
#
# 1 161.7380 92.3301 -4.7496 0.0000 0.0000 9.0959
# 2 92.3301 161.7380 -4.7496 0.0000 0.0000 -9.0959
# 3 -4.7496 -4.7496 53.9691 0.0000 0.0000 0.0000
# 4 0.0000 0.0000 0.0000 9.7311 0.0000 0.0000
# 5 0.0000 0.0000 0.0000 0.0000 9.7311 0.0000
# 6 9.0959 -9.0959 0.0000 0.0000 0.0000 25.0785
#
#
#
# Elastic Compliance Matrix: (Units=1/GPa)
#
#
# Indices 1 2 3 4 5 6 
#
# 1 0.009935 -0.005986 0.000348 0.000000 0.000000 -0.005775
# 2 -0.005986 0.009935 0.000348 0.000000 0.000000 0.005775
# 3 0.000348 0.000348 0.018590 0.000000 0.000000 0.000000
# 4 0.000000 0.000000 0.000000 0.102764 0.000000 0.000000
# 5 0.000000 0.000000 0.000000 0.000000 0.102764 0.000000
# 6 -0.005775 0.005775 0.000000 0.000000 0.000000 0.044064
#
#
# Mechanical properties :
#
#
# Convention : Reuss Voigt Hill
#
# Bulk Modulus (GPa) = 35.87018 60.34521 48.10770
# Shear Modulus (GPa) = 16.23767 28.54909 22.39338
#
# Velocity S-wave (km/s) = 2.81988 3.73909 3.31153
# Velocity P-wave (km/s) = 5.30738 6.94209 6.17904
#
# Compressibility (1/GPa) = 0.02787831
#
# Stress axis : x y z
#
# Youngs Moduli (GPa) = 100.65406 100.65406 53.79154
#
# Poissons Ratio (x) = 0.60252 -0.01869
# Poissons Ratio (y) = 0.60252 -0.01869
# Poissons Ratio (z) = -0.03498 -0.03498
#
# Static dielectric constant tensor:
#      x y z
#    x 1.719900 0.000000 0.000000 
#    y 0.000000 1.719900 0.000000 
#    z 0.000000 0.000000 1.795490 
# 
# From -- ./inp_files/2592.got.cif
#   From: 2010.05.17/outbox.cif.g08.bks.cpg/sg87_2_cif.got.tgz:2592.got - 2010.06.03 19:07:00.
