data_PCOD9545792
_publ_section_title
;
Structure prediction by ZEFSAII (Michael W. Deem and Ramdas Pophale) SiO2 
 PCOD9545792
Probable space group: I 4/M
;
_chemical_formula_sum "Si O2"
_cell_formula_units_Z 64
_cell_length_a 15.973812
_cell_length_b 15.973812
_cell_length_c 12.661584
_cell_angle_alpha 90.000000
_cell_angle_beta 90.000000
_cell_angle_gamma 90.000000
_cell_volume 3230.763577
_symmetry_space_group_name_H-M "I 4/M"
_symmetry_group_IT_number 87
_symmetry_cell_setting 'tetragonal'
loop_
_space_group_symop_operation_xyz
x,y,z
-y,x,z
-x,-y,z
y,-x,z
-x,-y,-z
y,-x,-z
x,y,-z
-y,x,-z
1/2+x,1/2+y,1/2+z
1/2-y,1/2+x,1/2+z
1/2-x,1/2-y,1/2+z
1/2+y,1/2-x,1/2+z
1/2-x,1/2-y,1/2-z
1/2+y,1/2-x,1/2-z
1/2+x,1/2+y,1/2-z
1/2-y,1/2+x,1/2-z
loop_
_atom_site_type_symbol
_atom_site_label
_atom_site_fract_x
_atom_site_fract_y
_atom_site_fract_z
Si Si1 0.184605 0.629976 0.744486
Si Si2 0.844824 0.202330 0.874254
Si Si3 0.629782 0.549879 0.796655
Si Si4 0.304275 0.036959 0.379832
O O1 0.166994 0.703566 0.829811
O O2 0.267356 0.652580 0.678293
O O3 0.107173 0.633873 0.664190
O O4 0.192560 0.543168 0.804633
O O5 0.927748 0.162391 0.820965
O O6 0.844764 0.199075 0.000000
O O7 0.546069 0.603646 0.814687
O O8 0.709129 0.572422 0.868967
O O9 0.321604 0.014989 0.500000
#
# Coordination Sequence:
#
# PCOD9545792 Si02
#       4
#    16  16  16  16
#     4  10  22  41  60  92 124 156 216 260 292 380
#     4  10  20  38  63  86 123 169 203 250 311 364
#     4  10  21  39  60  94 130 153 202 255 301 378
#     4  11  23  42  67  90 124 167 204 258 314 358
#
# _framework density 19.809557999999999
#
# number of rings (size 3 to 8) (size 9 to 14) (size 15 to 20)
#    0.000    1.750    2.500    1.500    0.000    2.500 
#    0.000    7.500    0.000    0.000    0.000    0.000 
#    0.000    0.000    0.000    0.000    0.000    0.000 
#
# Total GULP energy -178706.507943 kJ/mol
# GULP energy per Si atom -5584.578373 kJ/mol
# Density = 1.976447 g / cm^3
# Si number density = 19.809558 Si / 1000 Ang^3
#
#
#
# Elastic Constant Matrix: (Units=GPa)
#
#
# Indices 1 2 3 4 5 6 
#
# 1 56.4358 15.8258 3.3224 0.0000 0.0000 -5.4623
# 2 15.8258 56.4358 3.3224 0.0000 0.0000 5.4623
# 3 3.3224 3.3224 84.7759 0.0000 0.0000 0.0000
# 4 0.0000 0.0000 0.0000 15.5479 0.0000 0.0000
# 5 0.0000 0.0000 0.0000 0.0000 15.5479 0.0000
# 6 -5.4623 5.4623 0.0000 0.0000 0.0000 29.9841
#
#
#
# Elastic Compliance Matrix: (Units=1/GPa)
#
#
# Indices 1 2 3 4 5 6 
#
# 1 0.019891 -0.006002 -0.000544 0.000000 0.000000 0.004717
# 2 -0.006002 0.019891 -0.000544 0.000000 0.000000 -0.004717
# 3 -0.000544 -0.000544 0.011838 0.000000 0.000000 0.000000
# 4 0.000000 0.000000 0.000000 0.064317 0.000000 0.000000
# 5 0.000000 0.000000 0.000000 0.000000 0.064317 0.000000
# 6 0.004717 -0.004717 0.000000 0.000000 0.000000 0.035070
#
#
# Mechanical properties :
#
#
# Convention : Reuss Voigt Hill
#
# Bulk Modulus (GPa) = 26.71041 26.95429 26.83235
# Shear Modulus (GPa) = 20.66232 23.89444 22.27838
#
# Velocity S-wave (km/s) = 3.23313 3.47682 3.35719
# Velocity P-wave (km/s) = 5.23931 5.45472 5.34810
#
# Compressibility (1/GPa) = 0.03743859
#
# Stress axis : x y z
#
# Youngs Moduli (GPa) = 50.27383 50.27383 84.47034
#
# Poissons Ratio (x) = 0.30176 0.04598
# Poissons Ratio (y) = 0.30176 0.04598
# Poissons Ratio (z) = 0.02736 0.02736
#
# Static dielectric constant tensor:
#      x y z
#    x 1.708910 0.000000 0.000000 
#    y 0.000000 1.708910 0.000000 
#    z 0.000000 0.000000 1.656180 
# 
# From -- ./inp_files/2334.got.cif
#   From: 2010.05.17/outbox.cif.g08.bks.cpg/sg87_2_cif.got.tgz:2334.got - 2010.06.03 19:07:00.
