data_PCOD9545757
_publ_section_title
;
Structure prediction by ZEFSAII (Michael W. Deem and Ramdas Pophale) SiO2 
 PCOD9545757
Probable space group: I 4/M
;
_chemical_formula_sum "Si O2"
_cell_formula_units_Z 96
_cell_length_a 23.067089
_cell_length_b 23.067089
_cell_length_c 10.401718
_cell_angle_alpha 90.000000
_cell_angle_beta 90.000000
_cell_angle_gamma 90.000000
_cell_volume 5534.656319
_symmetry_space_group_name_H-M "I 4/M"
_symmetry_group_IT_number 87
_symmetry_cell_setting 'tetragonal'
loop_
_space_group_symop_operation_xyz
x,y,z
-y,x,z
-x,-y,z
y,-x,z
-x,-y,-z
y,-x,-z
x,y,-z
-y,x,-z
1/2+x,1/2+y,1/2+z
1/2-y,1/2+x,1/2+z
1/2-x,1/2-y,1/2+z
1/2+y,1/2-x,1/2+z
1/2-x,1/2-y,1/2-z
1/2+y,1/2-x,1/2-z
1/2+x,1/2+y,1/2-z
1/2-y,1/2+x,1/2-z
loop_
_atom_site_type_symbol
_atom_site_label
_atom_site_fract_x
_atom_site_fract_y
_atom_site_fract_z
Si Si1 0.227096 0.393263 0.760693
Si Si2 0.442939 0.819631 0.500000
Si Si3 0.079144 0.349246 0.500000
Si Si4 0.920787 0.668034 0.000000
Si Si5 0.056010 0.658588 0.500000
Si Si6 0.210093 0.637025 0.242526
Si Si7 0.160570 0.846137 0.344349
Si Si8 0.447199 0.423412 0.156045
O O1 0.216253 0.425320 0.626523
O O2 0.192264 0.332481 0.750716
O O3 0.292676 0.378085 0.795841
O O4 0.197216 0.429826 0.874736
O O5 0.405576 0.879282 0.500000
O O6 0.510372 0.833889 0.500000
O O7 0.097381 0.312573 0.625224
O O8 0.010650 0.361073 0.500000
O O9 0.892986 0.603405 0.000000
O O10 0.897297 0.700865 0.125540
O O11 0.275482 0.655457 0.214540
O O12 0.164612 0.842988 0.500000
O O13 0.128964 0.905922 0.306239
O O14 0.514181 0.421598 0.197264
O O15 0.447710 0.423821 0.000000
#
# Coordination Sequence:
#
# PCOD9545757 Si02
#       8
#    16   8   8   8   8  16  16  16
#     4  10  21  37  55  80 114 145 183 234 283 331
#     4  10  22  38  55  81 118 154 184 228 289 338
#     4  10  20  36  59  83 110 148 194 240 275 320
#     4  10  22  38  55  81 118 154 184 228 289 338
#     4  10  20  36  59  83 110 148 194 240 275 320
#     4  10  21  37  55  80 114 145 183 234 283 331
#     4  11  20  34  57  85 103 143 191 227 276 341
#     4   8  16  30  46  71 107 135 162 214 273 317
#
# _framework density 17.34525
#
# number of rings (size 3 to 8) (size 9 to 14) (size 15 to 20)
#    0.000    2.167    1.667    2.000    0.000    3.667 
#    0.000    0.000    0.000    6.000    0.000    0.000 
#    0.000    4.000    0.000    0.000    0.000    0.000 
#
# Total GULP energy -267813.297967 kJ/mol
# GULP energy per Si atom -5579.443708 kJ/mol
# Density = 1.730577 g / cm^3
# Si number density = 17.345250 Si / 1000 Ang^3
#
#
#
# Elastic Constant Matrix: (Units=GPa)
#
#
# Indices 1 2 3 4 5 6 
#
# 1 28.9451 -1.7733 12.6218 0.0000 0.0000 4.1651
# 2 -1.7733 28.9451 12.6218 0.0000 0.0000 -4.1651
# 3 12.6218 12.6218 106.7899 0.0000 0.0000 0.0000
# 4 0.0000 0.0000 0.0000 4.9070 0.0000 0.0000
# 5 0.0000 0.0000 0.0000 0.0000 4.9070 0.0000
# 6 4.1651 -4.1651 0.0000 0.0000 0.0000 7.7169
#
#
#
# Elastic Compliance Matrix: (Units=1/GPa)
#
#
# Indices 1 2 3 4 5 6 
#
# 1 0.039739 0.001603 -0.004886 0.000000 0.000000 -0.020583
# 2 0.001603 0.039739 -0.004886 0.000000 0.000000 0.020583
# 3 -0.004886 -0.004886 0.010519 0.000000 0.000000 0.000000
# 4 0.000000 0.000000 0.000000 0.203789 0.000000 0.000000
# 5 0.000000 0.000000 0.000000 0.000000 0.203789 0.000000
# 6 -0.020583 0.020583 0.000000 0.000000 0.000000 0.151805
#
#
# Mechanical properties :
#
#
# Convention : Reuss Voigt Hill
#
# Bulk Modulus (GPa) = 13.57612 23.51343 18.54477
# Shear Modulus (GPa) = 7.24352 12.92017 10.08185
#
# Velocity S-wave (km/s) = 2.04576 2.73221 2.41352
# Velocity P-wave (km/s) = 3.66390 4.85169 4.29902
#
# Compressibility (1/GPa) = 0.07365877
#
# Stress axis : x y z
#
# Youngs Moduli (GPa) = 25.16414 25.16414 95.06373
#
# Poissons Ratio (x) = -0.04035 0.46452
# Poissons Ratio (y) = -0.04035 0.46452
# Poissons Ratio (z) = 0.12296 0.12296
#
# Static dielectric constant tensor:
#      x y z
#    x 1.572950 0.000000 0.000000 
#    y 0.000000 1.572950 0.000000 
#    z 0.000000 0.000000 1.574790 
# 
# From -- ./inp_files/2814.got.cif
#   From: 2010.05.17/outbox.cif.g08.bks.cpg/sg87_2_cif.got.tgz:2814.got - 2010.06.03 19:07:00.
