data_PCOD9545572
_publ_section_title
;
Structure prediction by ZEFSAII (Michael W. Deem and Ramdas Pophale) SiO2 
 PCOD9545572
Probable space group: I 4/M
;
_chemical_formula_sum "Si O2"
_cell_formula_units_Z 96
_cell_length_a 23.864495
_cell_length_b 23.864495
_cell_length_c 7.524000
_cell_angle_alpha 90.000000
_cell_angle_beta 90.000000
_cell_angle_gamma 90.000000
_cell_volume 4285.024251
_symmetry_space_group_name_H-M "I 4/M"
_symmetry_group_IT_number 87
_symmetry_cell_setting 'tetragonal'
loop_
_space_group_symop_operation_xyz
x,y,z
-y,x,z
-x,-y,z
y,-x,z
-x,-y,-z
y,-x,-z
x,y,-z
-y,x,-z
1/2+x,1/2+y,1/2+z
1/2-y,1/2+x,1/2+z
1/2-x,1/2-y,1/2+z
1/2+y,1/2-x,1/2+z
1/2-x,1/2-y,1/2-z
1/2+y,1/2-x,1/2-z
1/2+x,1/2+y,1/2-z
1/2-y,1/2+x,1/2-z
loop_
_atom_site_type_symbol
_atom_site_label
_atom_site_fract_x
_atom_site_fract_y
_atom_site_fract_z
Si Si1 0.208131 0.959231 0.783354
Si Si2 0.917308 0.374701 0.298432
Si Si3 0.219452 0.337547 0.706312
Si Si4 0.034335 0.333483 0.796875
Si Si5 0.999444 0.090691 0.783102
Si Si6 0.331176 0.283065 0.284866
O O1 0.271036 0.973663 0.721285
O O2 0.154735 0.994912 0.722012
O O3 0.200193 0.893781 0.735783
O O4 0.207793 0.963553 0.000000
O O5 0.930194 0.392700 0.500000
O O6 0.884796 0.315933 0.300727
O O7 0.873832 0.418839 0.214913
O O8 0.975835 0.365440 0.204007
O O9 0.223502 0.353841 0.500000
O O10 0.281634 0.324253 0.774902
O O11 0.185587 0.278927 0.720649
O O12 0.054307 0.324239 0.000000
O O13 0.945419 0.054320 0.729547
O O14 0.998694 0.091257 0.000000
O O15 0.328607 0.281015 0.500000
#
# Coordination Sequence:
#
# PCOD9545572 Si02
#       6
#    16  16  16  16  16  16
#     4   9  16  30  51  74 106 143 180 224 270 317
#     4  11  23  40  59  79 110 142 178 230 280 333
#     4  10  19  31  53  81 109 143 182 219 266 332
#     4  10  22  39  58  79 104 138 181 227 277 338
#     4   8  14  24  41  70 106 142 179 218 260 307
#     4   9  17  31  51  78 110 144 181 222 271 321
#
# _framework density 22.403607999999998
#
# number of rings (size 3 to 8) (size 9 to 14) (size 15 to 20)
#    0.000    2.500    1.667    1.500    0.000    3.667 
#    0.000    6.667    0.000    0.000    0.000    0.000 
#    0.000    0.000    0.000    8.833    0.000    8.333 
#
# Total GULP energy -267955.364347 kJ/mol
# GULP energy per Si atom -5582.403424 kJ/mol
# Density = 2.235262 g / cm^3
# Si number density = 22.403608 Si / 1000 Ang^3
#
#
#
# Elastic Constant Matrix: (Units=GPa)
#
#
# Indices 1 2 3 4 5 6 
#
# 1 97.4315 49.8340 0.6960 0.0000 0.0000 -9.5026
# 2 49.8340 97.4315 0.6960 0.0000 0.0000 9.5026
# 3 0.6960 0.6960 56.3017 0.0000 0.0000 0.0000
# 4 0.0000 0.0000 0.0000 11.5969 0.0000 0.0000
# 5 0.0000 0.0000 0.0000 0.0000 11.5969 0.0000
# 6 -9.5026 9.5026 0.0000 0.0000 0.0000 11.4758
#
#
#
# Elastic Compliance Matrix: (Units=1/GPa)
#
#
# Indices 1 2 3 4 5 6 
#
# 1 0.019089 -0.012298 -0.000084 0.000000 0.000000 0.025990
# 2 -0.012298 0.019089 -0.000084 0.000000 0.000000 -0.025990
# 3 -0.000084 -0.000084 0.017764 0.000000 0.000000 0.000000
# 4 0.000000 0.000000 0.000000 0.086230 0.000000 0.000000
# 5 0.000000 0.000000 0.000000 0.000000 0.086230 0.000000
# 6 0.025990 -0.025990 0.000000 0.000000 0.000000 0.130183
#
#
# Mechanical properties :
#
#
# Convention : Reuss Voigt Hill
#
# Bulk Modulus (GPa) = 32.24745 39.29075 35.76910
# Shear Modulus (GPa) = 12.69507 20.26316 16.47912
#
# Velocity S-wave (km/s) = 2.38303 3.01069 2.71506
# Velocity P-wave (km/s) = 4.69008 5.44623 5.08224
#
# Compressibility (1/GPa) = 0.03101020
#
# Stress axis : x y z
#
# Youngs Moduli (GPa) = 52.38551 52.38551 56.29515
#
# Poissons Ratio (x) = 0.64424 0.00473
# Poissons Ratio (y) = 0.64424 0.00473
# Poissons Ratio (z) = 0.00440 0.00440
#
# Static dielectric constant tensor:
#      x y z
#    x 1.811290 0.000000 0.000000 
#    y 0.000000 1.811290 0.000000 
#    z 0.000000 0.000000 1.822720 
# 
# From -- ./inp_files/1351.got.cif
#   From: 2010.05.17/outbox.cif.g08.bks.cpg/sg87_1_cif.got.tgz:1351.got - 2010.06.03 19:07:00.
