data_PCOD9545176
_publ_section_title
;
Structure prediction by ZEFSAII (Michael W. Deem and Ramdas Pophale) SiO2 
 PCOD9545176
Probable space group: P 42/N
;
_chemical_formula_sum "Si O2"
_cell_formula_units_Z 56
_cell_length_a 14.123883
_cell_length_b 14.123883
_cell_length_c 12.638069
_cell_angle_alpha 90.000000
_cell_angle_beta 90.000000
_cell_angle_gamma 90.000000
_cell_volume 2521.093454
_symmetry_space_group_name_H-M "P 42/N"
_symmetry_group_IT_number 86
_space_group.IT_coordinate_system_code '2'
_symmetry_cell_setting 'tetragonal'
loop_
_space_group_symop_operation_xyz
x,y,z
-y,1/2+x,1/2+z
1/2-x,1/2-y,z
1/2+y,-x,1/2+z
-x,-y,-z
y,1/2-x,1/2-z
1/2+x,1/2+y,-z
1/2-y,x,1/2-z
loop_
_atom_site_type_symbol
_atom_site_label
_atom_site_fract_x
_atom_site_fract_y
_atom_site_fract_z
Si Si1 0.465006 0.992974 0.683296
Si Si2 0.243546 0.976083 0.414914
Si Si3 0.386625 0.313205 0.709970
Si Si4 0.114915 0.937234 0.987005
Si Si5 0.678403 0.837138 0.969519
Si Si6 0.303290 0.848500 0.017217
Si Si7 0.503479 0.339200 0.306615
O O1 0.370607 0.024550 0.743488
O O2 0.486797 0.073080 0.593616
O O3 0.461546 0.899585 0.610163
O O4 0.554776 0.989524 0.760741
O O5 0.342647 0.947101 0.469087
O O6 0.173309 0.890437 0.440956
O O7 0.203649 0.072674 0.460933
O O8 0.269326 0.986529 0.292381
O O9 0.371587 0.208993 0.758484
O O10 0.384319 0.307286 0.583650
O O11 0.222200 0.911379 0.963390
O O12 0.750000 0.750000 0.957670
O O13 0.689206 0.914699 0.878378
O O14 0.250000 0.750000 0.044156
O O15 0.337624 0.903259 0.120866
#
# Coordination Sequence:
#
# PCOD9545176 Si02
#       7
#     8   8   8   8   8   8   8
#     4  10  22  41  66 100 141 186 241 294 355 430
#     4  10  24  45  67 100 141 186 243 296 363 438
#     4  11  23  42  66 102 136 195 245 299 361 419
#     4   9  21  41  71  97 139 190 237 293 359 431
#     4  12  27  45  70 100 152 188 244 302 358 438
#     4  10  23  45  69 100 141 186 236 304 359 434
#     4  11  27  42  69 107 142 190 241 293 376 433
#
# _framework density 22.212584
#
# number of rings (size 3 to 8) (size 9 to 14) (size 15 to 20)
#    0.000    1.571    1.429    1.714    6.000    7.429 
#    0.000    0.000    0.000    0.000    0.000    0.000 
#    0.000    0.000    0.000    0.000    0.000    0.000 
#
# Total GULP energy -313521.052398 kJ/mol
# GULP energy per Si atom -5598.590221 kJ/mol
# Density = 2.216203 g / cm^3
# Si number density = 22.212584 Si / 1000 Ang^3
#
#
#
# Elastic Constant Matrix: (Units=GPa)
#
#
# Indices 1 2 3 4 5 6 
#
# 1 95.6405 40.1972 39.8003 0.0000 0.0000 -2.9734
# 2 40.1972 95.6405 39.8003 0.0000 0.0000 2.9734
# 3 39.8003 39.8003 120.6205 0.0000 0.0000 0.0000
# 4 0.0000 0.0000 0.0000 36.1603 0.0000 0.0000
# 5 0.0000 0.0000 0.0000 0.0000 36.1603 0.0000
# 6 -2.9734 2.9734 0.0000 0.0000 0.0000 31.5886
#
#
#
# Elastic Compliance Matrix: (Units=1/GPa)
#
#
# Indices 1 2 3 4 5 6 
#
# 1 0.013673 -0.004547 -0.003011 0.000000 0.000000 0.001715
# 2 -0.004547 0.013673 -0.003011 0.000000 0.000000 -0.001715
# 3 -0.003011 -0.003011 0.010278 0.000000 0.000000 0.000000
# 4 0.000000 0.000000 0.000000 0.027655 0.000000 0.000000
# 5 0.000000 0.000000 0.000000 0.000000 0.027655 0.000000
# 6 0.001715 -0.001715 0.000000 0.000000 0.000000 0.031980
#
#
# Mechanical properties :
#
#
# Convention : Reuss Voigt Hill
#
# Bulk Modulus (GPa) = 60.66109 61.27747 60.96928
# Shear Modulus (GPa) = 32.99281 33.58875 33.29078
#
# Velocity S-wave (km/s) = 3.85817 3.89286 3.87555
# Velocity P-wave (km/s) = 6.87138 6.91755 6.89450
#
# Compressibility (1/GPa) = 0.01648503
#
# Stress axis : x y z
#
# Youngs Moduli (GPa) = 73.13479 73.13479 97.29766
#
# Poissons Ratio (x) = 0.33254 0.29300
# Poissons Ratio (y) = 0.33254 0.29300
# Poissons Ratio (z) = 0.22024 0.22024
#
# Static dielectric constant tensor:
#      x y z
#    x 1.823190 0.000000 0.000000 
#    y 0.000000 1.823190 0.000000 
#    z 0.000000 0.000000 1.794480 
# 
# From -- ./inp_files/2390.got.cif
#   From: 2010.05.17/outbox.cif.g08.bks.cpg/sg86_2_cif.got.tgz:2390.got - 2010.06.03 19:03:11.
