data_PCOD9545050
_publ_section_title
;
Structure prediction by ZEFSAII (Michael W. Deem and Ramdas Pophale) SiO2 
 PCOD9545050
Probable space group: P 42/N
;
_chemical_formula_sum "Si O2"
_cell_formula_units_Z 44
_cell_length_a 8.848916
_cell_length_b 8.848916
_cell_length_c 28.531625
_cell_angle_alpha 90.000000
_cell_angle_beta 90.000000
_cell_angle_gamma 90.000000
_cell_volume 2234.120802
_symmetry_space_group_name_H-M "P 42/N"
_symmetry_group_IT_number 86
_space_group.IT_coordinate_system_code '2'
_symmetry_cell_setting 'tetragonal'
loop_
_space_group_symop_operation_xyz
x,y,z
-y,1/2+x,1/2+z
1/2-x,1/2-y,z
1/2+y,-x,1/2+z
-x,-y,-z
y,1/2-x,1/2-z
1/2+x,1/2+y,-z
1/2-y,x,1/2-z
loop_
_atom_site_type_symbol
_atom_site_label
_atom_site_fract_x
_atom_site_fract_y
_atom_site_fract_z
Si Si1 0.702475 0.079005 0.535368
Si Si2 0.357689 0.513926 0.649359
Si Si3 0.957813 0.811376 0.273488
Si Si4 0.341639 0.106214 0.090300
Si Si5 0.250000 0.750000 0.726684
Si Si6 0.444276 0.600456 0.070228
O O1 0.750000 0.250000 0.544265
O O2 0.682452 0.055774 0.479797
O O3 0.820094 0.950677 0.551656
O O4 0.544058 0.053000 0.562846
O O5 0.393846 0.360276 0.676614
O O6 0.513665 0.553780 0.624583
O O7 0.334083 0.638865 0.690288
O O8 0.217073 0.521661 0.612716
O O9 0.834806 0.367495 0.239040
O O10 0.590406 0.860813 0.263786
O O11 0.250000 0.250000 0.110436
O O12 0.218990 0.980657 0.075104
#
# Coordination Sequence:
#
# PCOD9545050 Si02
#       6
#     8   8   8   8   4   8
#     4  10  22  40  59  97 137 172 222 272 326 378
#     4  11  20  41  66  94 119 175 221 258 327 412
#     4   9  21  43  65  94 124 159 207 276 326 393
#     4  10  21  40  60  90 133 170 217 272 317 392
#     4  10  20  42  68  88 122 166 202 262 344 388
#     4  10  21  40  67  89 131 183 217 268 328 398
#
# _framework density 19.694548999999999
#
# number of rings (size 3 to 8) (size 9 to 14) (size 15 to 20)
#    0.000    2.000    1.818    1.091    0.000    2.909 
#   21.273    1.818    0.000    0.000    0.000    0.000 
#    0.000    0.000    0.000    0.000    0.000    0.000 
#
# Total GULP energy -245087.039116 kJ/mol
# GULP energy per Si atom -5570.159980 kJ/mol
# Density = 1.964972 g / cm^3
# Si number density = 19.694549 Si / 1000 Ang^3
#
#
#
# Elastic Constant Matrix: (Units=GPa)
#
#
# Indices 1 2 3 4 5 6 
#
# 1 109.7180 51.5063 74.4749 0.0000 0.0000 -19.5069
# 2 51.5063 109.7180 74.4749 0.0000 0.0000 19.5069
# 3 74.4749 74.4749 106.9466 0.0000 0.0000 0.0000
# 4 0.0000 0.0000 0.0000 16.5428 0.0000 0.0000
# 5 0.0000 0.0000 0.0000 0.0000 16.5428 0.0000
# 6 -19.5069 19.5069 0.0000 0.0000 0.0000 12.8980
#
#
#
# Elastic Compliance Matrix: (Units=1/GPa)
#
#
# Indices 1 2 3 4 5 6 
#
# 1 -0.621835 0.639227 -0.012111 0.000000 0.000000 -1.907233
# 2 0.639227 -0.621835 -0.012111 0.000000 0.000000 1.907233
# 3 -0.012111 -0.012111 0.026218 0.000000 0.000000 0.000000
# 4 0.000000 0.000000 0.000000 0.060449 0.000000 0.000000
# 5 0.000000 0.000000 0.000000 0.000000 0.060449 0.000000
# 6 -1.907233 1.907233 0.000000 0.000000 0.000000 -5.691479
#
#
# Mechanical properties :
#
#
# Convention : Reuss Voigt Hill
#
# Bulk Modulus (GPa) = 79.63659 80.81055 80.22357
# Shear Modulus (GPa) = -0.62392 17.59179 8.48393
#
# Velocity S-wave (km/s) = -0.56346 2.99194 2.07777
# Velocity P-wave (km/s) = 6.33248 7.28400 6.82484
#
# Compressibility (1/GPa) = 0.01255704
#
# Stress axis : x y z
#
# Youngs Moduli (GPa) = -1.60814 -1.60814 38.14158
#
# Poissons Ratio (x) = 1.02797 0.46193
# Poissons Ratio (y) = 1.02797 0.46193
# Poissons Ratio (z) = -0.01948 -0.01948
#
# Static dielectric constant tensor:
#      x y z
#    x 1.729590 0.000000 0.000000 
#    y 0.000000 1.729590 0.000000 
#    z 0.000000 0.000000 1.713570 
# 
# From -- ./inp_files/5062.got.cif
#   From: 2010.05.17/outbox.cif.g08.bks.cpg/sg86_3_cif.got.tgz:5062.got - 2010.06.03 19:03:11.
