data_PCOD9545381
_publ_section_title
;
Structure prediction by ZEFSAII (Michael W. Deem and Ramdas Pophale) SiO2 
 PCOD9545381
Probable space group: P 42/N
;
_chemical_formula_sum "Si O2"
_cell_formula_units_Z 36
_cell_length_a 11.469621
_cell_length_b 11.469621
_cell_length_c 12.338627
_cell_angle_alpha 90.000000
_cell_angle_beta 90.000000
_cell_angle_gamma 90.000000
_cell_volume 1623.173599
_symmetry_space_group_name_H-M "P 42/N"
_symmetry_group_IT_number 86
_space_group.IT_coordinate_system_code '2'
_symmetry_cell_setting 'tetragonal'
loop_
_space_group_symop_operation_xyz
x,y,z
-y,1/2+x,1/2+z
1/2-x,1/2-y,z
1/2+y,-x,1/2+z
-x,-y,-z
y,1/2-x,1/2-z
1/2+x,1/2+y,-z
1/2-y,x,1/2-z
loop_
_atom_site_type_symbol
_atom_site_label
_atom_site_fract_x
_atom_site_fract_y
_atom_site_fract_z
Si Si1 0.040684 0.871094 0.044088
Si Si2 0.646939 0.870793 0.814560
Si Si3 0.750000 0.250000 0.579093
Si Si4 0.152590 0.327457 0.946781
Si Si5 0.603294 0.050031 0.198055
O O1 0.046973 0.877061 0.173981
O O2 0.953755 0.760284 0.026141
O O3 0.163060 0.831150 0.991520
O O4 0.000000 0.000000 0.000000
O O5 0.745137 0.899002 0.727077
O O6 0.535625 0.949633 0.816845
O O7 0.697627 0.868416 0.934912
O O8 0.837642 0.169668 0.649415
O O9 0.250000 0.250000 0.892006
O O10 0.137113 0.437271 0.870734
#
# Coordination Sequence:
#
# PCOD9545381 Si02
#       5
#     8   8   4   8   8
#     4  12  29  50  76 113 160 203 259 326 405 477
#     4  11  23  45  77 108 148 201 257 311 384 471
#     4  12  28  52  74 114 154 210 266 328 398 484
#     4  12  26  49  73 113 150 203 260 316 392 472
#     4  12  29  45  80 109 155 201 258 327 395 472
#
# _framework density 22.178774000000001
#
# number of rings (size 3 to 8) (size 9 to 14) (size 15 to 20)
#    0.000    0.222    4.444    4.000    9.333    0.000 
#    0.000    0.000    0.000    0.000    0.000    0.000 
#    0.000    0.000    0.000    0.000    0.000    0.000 
#
# Total GULP energy -201215.892112 kJ/mol
# GULP energy per Si atom -5589.330336 kJ/mol
# Density = 2.212829 g / cm^3
# Si number density = 22.178774 Si / 1000 Ang^3
#
#
#
# Elastic Constant Matrix: (Units=GPa)
#
#
# Indices 1 2 3 4 5 6 
#
# 1 88.0153 29.3811 59.3843 0.0000 0.0000 -1.6561
# 2 29.3811 88.0153 59.3843 0.0000 0.0000 1.6561
# 3 59.3843 59.3843 187.1892 0.0000 0.0000 0.0000
# 4 0.0000 0.0000 0.0000 43.3241 0.0000 0.0000
# 5 0.0000 0.0000 0.0000 0.0000 43.3241 0.0000
# 6 -1.6561 1.6561 0.0000 0.0000 0.0000 50.4971
#
#
#
# Elastic Compliance Matrix: (Units=1/GPa)
#
#
# Indices 1 2 3 4 5 6 
#
# 1 0.014815 -0.002271 -0.003980 0.000000 0.000000 0.000560
# 2 -0.002271 0.014815 -0.003980 0.000000 0.000000 -0.000560
# 3 -0.003980 -0.003980 0.007867 0.000000 0.000000 0.000000
# 4 0.000000 0.000000 0.000000 0.023082 0.000000 0.000000
# 5 0.000000 0.000000 0.000000 0.000000 0.023082 0.000000
# 6 0.000560 -0.000560 0.000000 0.000000 0.000000 0.019840
#
#
# Mechanical properties :
#
#
# Convention : Reuss Voigt Hill
#
# Bulk Modulus (GPa) = 58.69448 73.27991 65.98720
# Shear Modulus (GPa) = 38.56800 41.76706 40.16753
#
# Velocity S-wave (km/s) = 4.17461 4.34429 4.26030
# Velocity P-wave (km/s) = 7.05395 7.63388 7.34964
#
# Compressibility (1/GPa) = 0.01703738
#
# Stress axis : x y z
#
# Youngs Moduli (GPa) = 67.49740 67.49740 127.11068
#
# Poissons Ratio (x) = 0.15330 0.50584
# Poissons Ratio (y) = 0.15330 0.50584
# Poissons Ratio (z) = 0.26861 0.26861
#
# Static dielectric constant tensor:
#      x y z
#    x 1.905120 0.000000 0.000000 
#    y 0.000000 1.905120 0.000000 
#    z 0.000000 0.000000 1.870900 
# 
# From -- ./inp_files/2067.got.cif
#   From: 2010.05.17/outbox.cif.g08.bks.cpg/sg86_2_cif.got.tgz:2067.got - 2010.06.03 19:03:11.
