data_PCOD9545958
_publ_section_title
;
Structure prediction by ZEFSAII (Michael W. Deem and Ramdas Pophale) SiO2 
 PCOD9545958
Probable space group: I 4/M
;
_chemical_formula_sum "Si O2"
_cell_formula_units_Z 96
_cell_length_a 14.211975
_cell_length_b 14.211975
_cell_length_c 21.105646
_cell_angle_alpha 90.000000
_cell_angle_beta 90.000000
_cell_angle_gamma 90.000000
_cell_volume 4262.923305
_symmetry_space_group_name_H-M "I 4/M"
_symmetry_group_IT_number 87
_symmetry_cell_setting 'tetragonal'
loop_
_space_group_symop_operation_xyz
x,y,z
-y,x,z
-x,-y,z
y,-x,z
-x,-y,-z
y,-x,-z
x,y,-z
-y,x,-z
1/2+x,1/2+y,1/2+z
1/2-y,1/2+x,1/2+z
1/2-x,1/2-y,1/2+z
1/2+y,1/2-x,1/2+z
1/2-x,1/2-y,1/2-z
1/2+y,1/2-x,1/2-z
1/2+x,1/2+y,1/2-z
1/2-y,1/2+x,1/2-z
loop_
_atom_site_type_symbol
_atom_site_label
_atom_site_fract_x
_atom_site_fract_y
_atom_site_fract_z
Si Si1 0.611399 0.814474 0.882372
Si Si2 0.588114 0.928977 0.626748
Si Si3 0.652132 0.529998 0.699231
Si Si4 0.024736 0.737057 0.930517
Si Si5 0.120455 0.906849 0.576055
Si Si6 0.190794 0.348093 0.752212
O O1 0.503332 0.836327 0.900541
O O2 0.680606 0.877433 0.924086
O O3 0.640942 0.706954 0.890229
O O4 0.625676 0.844091 0.809863
O O5 0.551179 0.846000 0.581573
O O6 0.629948 0.873078 0.686600
O O7 0.500000 0.000000 0.641007
O O8 0.570879 0.606683 0.711147
O O9 0.689032 0.526266 0.626836
O O10 0.738354 0.564620 0.741387
O O11 0.012737 0.778720 0.000000
O O12 0.129995 0.899481 0.500000
O O13 0.016964 0.874623 0.593439
O O14 0.250000 0.250000 0.750000
#
# Coordination Sequence:
#
# PCOD9545958 Si02
#       6
#    16  16  16  16  16  16
#     4  10  23  36  63  92 125 168 212 268 322 387
#     4  10  24  40  65  93 127 172 216 268 337 390
#     4  10  23  44  67  96 133 176 218 268 327 393
#     4  10  22  42  66  97 130 167 221 273 322 390
#     4   9  19  38  60  84 120 161 203 252 312 380
#     4  11  25  40  65  94 135 167 218 273 329 391
#
# _framework density 22.519756999999998
#
# number of rings (size 3 to 8) (size 9 to 14) (size 15 to 20)
#    0.000    2.000    0.000    2.000   11.667    4.333 
#    0.000    0.833    0.000    0.000    0.000    0.000 
#    0.000    0.000    0.000    0.000    0.000    0.000 
#
# Total GULP energy -268325.233616 kJ/mol
# GULP energy per Si atom -5590.109034 kJ/mol
# Density = 2.246850 g / cm^3
# Si number density = 22.519757 Si / 1000 Ang^3
#
#
#
# Elastic Constant Matrix: (Units=GPa)
#
#
# Indices 1 2 3 4 5 6 
#
# 1 65.7227 0.5938 3.1740 0.0000 0.0000 4.1630
# 2 0.5938 65.7227 3.1740 0.0000 0.0000 -4.1630
# 3 3.1740 3.1740 40.7956 0.0000 0.0000 0.0000
# 4 0.0000 0.0000 0.0000 2.0124 0.0000 0.0000
# 5 0.0000 0.0000 0.0000 0.0000 2.0124 0.0000
# 6 4.1630 -4.1630 0.0000 0.0000 0.0000 22.2170
#
#
#
# Elastic Compliance Matrix: (Units=1/GPa)
#
#
# Indices 1 2 3 4 5 6 
#
# 1 0.015462 -0.000269 -0.001182 0.000000 0.000000 -0.002948
# 2 -0.000269 0.015462 -0.001182 0.000000 0.000000 0.002948
# 3 -0.001182 -0.001182 0.024696 0.000000 0.000000 0.000000
# 4 0.000000 0.000000 0.000000 0.496924 0.000000 0.000000
# 5 0.000000 0.000000 0.000000 0.000000 0.496923 0.000000
# 6 -0.002948 0.002948 0.000000 0.000000 0.000000 0.046115
#
#
# Mechanical properties :
#
#
# Convention : Reuss Voigt Hill
#
# Bulk Modulus (GPa) = 19.85977 20.68052 20.27014
# Shear Modulus (GPa) = 4.47374 16.26831 10.37102
#
# Velocity S-wave (km/s) = 1.41099 2.69067 2.14832
# Velocity P-wave (km/s) = 3.39006 4.34237 3.89542
#
# Compressibility (1/GPa) = 0.05035305
#
# Stress axis : x y z
#
# Youngs Moduli (GPa) = 64.67613 64.67613 40.49182
#
# Poissons Ratio (x) = 0.01742 0.04786
# Poissons Ratio (y) = 0.01742 0.04786
# Poissons Ratio (z) = 0.07645 0.07645
#
# Static dielectric constant tensor:
#      x y z
#    x 1.848070 0.000000 0.000000 
#    y 0.000000 1.848070 0.000000 
#    z 0.000000 0.000000 1.808220 
# 
# From -- ./inp_files/5275.got.cif
#   From: 2010.05.17/outbox.cif.g08.bks.cpg/sg87_3_cif.got.tgz:5275.got - 2010.06.03 19:07:00.
