data_PCOD9545600
_publ_section_title
;
Structure prediction by ZEFSAII (Michael W. Deem and Ramdas Pophale) SiO2 
 PCOD9545600
Probable space group: I 4/M
;
_chemical_formula_sum "Si O2"
_cell_formula_units_Z 128
_cell_length_a 23.754997
_cell_length_b 23.754997
_cell_length_c 12.552816
_cell_angle_alpha 90.000000
_cell_angle_beta 90.000000
_cell_angle_gamma 90.000000
_cell_volume 7083.552593
_symmetry_space_group_name_H-M "I 4/M"
_symmetry_group_IT_number 87
_symmetry_cell_setting 'tetragonal'
loop_
_space_group_symop_operation_xyz
x,y,z
-y,x,z
-x,-y,z
y,-x,z
-x,-y,-z
y,-x,-z
x,y,-z
-y,x,-z
1/2+x,1/2+y,1/2+z
1/2-y,1/2+x,1/2+z
1/2-x,1/2-y,1/2+z
1/2+y,1/2-x,1/2+z
1/2-x,1/2-y,1/2-z
1/2+y,1/2-x,1/2-z
1/2+x,1/2+y,1/2-z
1/2-y,1/2+x,1/2-z
loop_
_atom_site_type_symbol
_atom_site_label
_atom_site_fract_x
_atom_site_fract_y
_atom_site_fract_z
Si Si1 0.608608 0.382572 0.713378
Si Si2 0.580630 0.703003 0.874849
Si Si3 0.565934 0.983274 0.617160
Si Si4 0.061733 0.368862 0.780037
Si Si5 0.813897 0.349405 0.123965
Si Si6 0.239459 0.121962 0.872986
Si Si7 0.996491 0.860270 0.116198
Si Si8 0.499796 0.244083 0.702625
O O1 0.645435 0.400359 0.816019
O O2 0.632642 0.324170 0.665961
O O3 0.541259 0.372242 0.710669
O O4 0.613529 0.436498 0.637783
O O5 0.630410 0.749506 0.863881
O O6 0.527681 0.731932 0.812770
O O7 0.569234 0.694781 0.000000
O O8 0.584901 0.000258 0.500000
O O9 0.574604 0.916971 0.634862
O O10 0.500000 0.000000 0.626127
O O11 0.601113 0.016653 0.703395
O O12 0.113900 0.350116 0.706791
O O13 0.031807 0.313309 0.823926
O O14 0.827860 0.283944 0.142015
O O15 0.829613 0.361833 0.000000
O O16 0.261401 0.067194 0.807411
O O17 0.238146 0.108983 0.000000
O O18 0.986660 0.793639 0.120546
O O19 0.018867 0.876119 0.000000
#
# Coordination Sequence:
#
# PCOD9545600 Si02
#       8
#    16  16  16  16  16  16  16  16
#     4  10  20  34  55  81 109 139 168 205 259 318
#     4   9  19  37  55  76 105 144 187 223 258 308
#     4  11  22  32  45  67  97 136 181 227 278 317
#     4  11  18  35  49  70 102 139 183 231 269 316
#     4   9  19  33  55  78 103 142 186 224 269 318
#     4  10  19  33  53  83 111 137 175 222 272 324
#     4  10  19  35  55  83 111 133 163 205 261 326
#     4   9  19  31  53  76 103 138 176 216 265 313
#
# _framework density 18.070029000000002
#
# number of rings (size 3 to 8) (size 9 to 14) (size 15 to 20)
#    0.000    2.125    1.250    3.375    0.000    2.250 
#    0.000    6.250    0.000    0.750    0.000    7.875 
#    0.000    0.000    0.000    0.000    0.000    0.000 
#
# Total GULP energy -356306.164405 kJ/mol
# GULP energy per Si atom -5567.283819 kJ/mol
# Density = 1.802890 g / cm^3
# Si number density = 18.070029 Si / 1000 Ang^3
#
#
#
# Elastic Constant Matrix: (Units=GPa)
#
#
# Indices 1 2 3 4 5 6 
#
# 1 62.9632 23.2625 21.5150 0.0000 0.0000 -3.3834
# 2 23.2625 62.9632 21.5150 0.0000 0.0000 3.3834
# 3 21.5150 21.5150 70.4849 0.0000 0.0000 0.0000
# 4 0.0000 0.0000 0.0000 20.2568 0.0000 0.0000
# 5 0.0000 0.0000 0.0000 0.0000 20.2568 0.0000
# 6 -3.3834 3.3834 0.0000 0.0000 0.0000 29.5681
#
#
#
# Elastic Compliance Matrix: (Units=1/GPa)
#
#
# Indices 1 2 3 4 5 6 
#
# 1 0.019686 -0.006004 -0.004176 0.000000 0.000000 0.002940
# 2 -0.006004 0.019686 -0.004176 0.000000 0.000000 -0.002940
# 3 -0.004176 -0.004176 0.016737 0.000000 0.000000 0.000000
# 4 0.000000 0.000000 0.000000 0.049366 0.000000 0.000000
# 5 0.000000 0.000000 0.000000 0.000000 0.049366 0.000000
# 6 0.002940 -0.002940 0.000000 0.000000 0.000000 0.034493
#
#
# Mechanical properties :
#
#
# Convention : Reuss Voigt Hill
#
# Bulk Modulus (GPa) = 36.50264 36.55513 36.52889
# Shear Modulus (GPa) = 22.00921 22.69094 22.35007
#
# Velocity S-wave (km/s) = 3.49376 3.54746 3.52072
# Velocity P-wave (km/s) = 6.04315 6.08711 6.06517
#
# Compressibility (1/GPa) = 0.02739528
#
# Stress axis : x y z
#
# Youngs Moduli (GPa) = 50.79877 50.79877 59.74806
#
# Poissons Ratio (x) = 0.30499 0.24952
# Poissons Ratio (y) = 0.30499 0.24952
# Poissons Ratio (z) = 0.21215 0.21215
#
# Static dielectric constant tensor:
#      x y z
#    x 1.679960 0.000000 0.000000 
#    y 0.000000 1.679960 0.000000 
#    z 0.000000 0.000000 1.611480 
# 
# From -- ./inp_files/2987.got.cif
#   From: 2010.05.17/outbox.cif.g08.bks.cpg/sg87_2_cif.got.tgz:2987.got - 2010.06.03 19:07:00.
