data_PCOD9545060
_publ_section_title
;
Structure prediction by ZEFSAII (Michael W. Deem and Ramdas Pophale) SiO2 
 PCOD9545060
Probable space group: P 42/N
;
_chemical_formula_sum "Si O2"
_cell_formula_units_Z 40
_cell_length_a 14.166670
_cell_length_b 14.166670
_cell_length_c 8.889898
_cell_angle_alpha 90.000000
_cell_angle_beta 90.000000
_cell_angle_gamma 90.000000
_cell_volume 1784.153980
_symmetry_space_group_name_H-M "P 42/N"
_symmetry_group_IT_number 86
_space_group.IT_coordinate_system_code '2'
_symmetry_cell_setting 'tetragonal'
loop_
_space_group_symop_operation_xyz
x,y,z
-y,1/2+x,1/2+z
1/2-x,1/2-y,z
1/2+y,-x,1/2+z
-x,-y,-z
y,1/2-x,1/2-z
1/2+x,1/2+y,-z
1/2-y,x,1/2-z
loop_
_atom_site_type_symbol
_atom_site_label
_atom_site_fract_x
_atom_site_fract_y
_atom_site_fract_z
Si Si1 0.741706 0.896497 0.488799
Si Si2 0.763258 0.398251 0.945231
Si Si3 0.750000 0.250000 0.198217
Si Si4 0.908384 0.461323 0.414609
Si Si5 0.250000 0.250000 0.250000
Si Si6 0.462603 0.405070 0.573320
Si Si7 0.250000 0.250000 0.750000
O O1 0.736175 0.840532 0.644265
O O2 0.850120 0.907058 0.441027
O O3 0.701581 0.825322 0.360669
O O4 0.684458 0.993032 0.490290
O O5 0.790298 0.333807 0.802413
O O6 0.651225 0.410373 0.927264
O O7 0.784152 0.333089 0.090023
O O8 0.818350 0.494302 0.976982
O O9 0.904111 0.498229 0.243220
O O10 0.000000 0.500000 0.500000
O O11 0.500000 0.500000 0.500000
#
# Coordination Sequence:
#
# PCOD9545060 Si02
#       7
#     8   8   4   8   2   8   2
#     4  11  26  49  76 111 152 202 261 321 402 465
#     4  11  26  49  75 112 152 202 260 319 396 468
#     4  10  24  46  76 104 154 206 250 320 386 468
#     4  12  30  48  79 111 155 206 267 330 393 486
#     4  10  28  46  76 110 152 210 252 334 380 478
#     4  12  30  48  78 113 156 205 265 329 397 485
#     4  10  20  46  76  98 152 202 252 310 392 478
#
# _framework density 22.419589999999999
#
# number of rings (size 3 to 8) (size 9 to 14) (size 15 to 20)
#    0.000    0.800    4.000    0.000   19.600    0.000 
#    0.000    0.000    0.000    0.000    0.000    0.000 
#    0.000    0.000    0.000    0.000    0.000    0.000 
#
# Total GULP energy -223970.521289 kJ/mol
# GULP energy per Si atom -5599.263032 kJ/mol
# Density = 2.236856 g / cm^3
# Si number density = 22.419590 Si / 1000 Ang^3
#
#
#
# Elastic Constant Matrix: (Units=GPa)
#
#
# Indices 1 2 3 4 5 6 
#
# 1 130.9250 28.6330 37.0318 0.0000 0.0000 0.9347
# 2 28.6330 130.9250 37.0318 0.0000 0.0000 -0.9347
# 3 37.0318 37.0318 129.9584 0.0000 0.0000 0.0000
# 4 0.0000 0.0000 0.0000 25.3023 0.0000 0.0000
# 5 0.0000 0.0000 0.0000 0.0000 25.3023 0.0000
# 6 0.9347 -0.9347 0.0000 0.0000 0.0000 45.7960
#
#
#
# Elastic Compliance Matrix: (Units=1/GPa)
#
#
# Indices 1 2 3 4 5 6 
#
# 1 0.008501 -0.001278 -0.002058 0.000000 0.000000 -0.000200
# 2 -0.001278 0.008501 -0.002058 0.000000 0.000000 0.000200
# 3 -0.002058 -0.002058 0.008868 0.000000 0.000000 0.000000
# 4 0.000000 0.000000 0.000000 0.039522 0.000000 0.000000
# 5 0.000000 0.000000 0.000000 0.000000 0.039522 0.000000
# 6 -0.000200 0.000200 0.000000 0.000000 0.000000 0.021844
#
#
# Mechanical properties :
#
#
# Convention : Reuss Voigt Hill
#
# Bulk Modulus (GPa) = 66.31049 66.35573 66.33311
# Shear Modulus (GPa) = 35.06942 38.55425 36.81184
#
# Velocity S-wave (km/s) = 3.95933 4.15139 4.05649
# Velocity P-wave (km/s) = 7.10936 7.25535 7.18273
#
# Compressibility (1/GPa) = 0.01508057
#
# Stress axis : x y z
#
# Youngs Moduli (GPa) = 117.63168 117.63168 112.76906
#
# Poissons Ratio (x) = 0.15039 0.23209
# Poissons Ratio (y) = 0.15039 0.23209
# Poissons Ratio (z) = 0.24210 0.24210
#
# Static dielectric constant tensor:
#      x y z
#    x 1.845310 0.000000 0.000000 
#    y 0.000000 1.845310 0.000000 
#    z 0.000000 0.000000 1.818260 
# 
# From -- ./inp_files/1212.got.cif
#   From: 2010.05.17/outbox.cif.g08.bks.cpg/sg86_1_cif.got.tgz:1212.got - 2010.06.03 19:03:11.
