data_PCOD9545939
_publ_section_title
;
Structure prediction by ZEFSAII (Michael W. Deem and Ramdas Pophale) SiO2 
 PCOD9545939
Probable space group: I 4/M
;
_chemical_formula_sum "Si O2"
_cell_formula_units_Z 56
_cell_length_a 11.158403
_cell_length_b 11.158403
_cell_length_c 20.036350
_cell_angle_alpha 90.000000
_cell_angle_beta 90.000000
_cell_angle_gamma 90.000000
_cell_volume 2494.725087
_symmetry_space_group_name_H-M "I 4/M"
_symmetry_group_IT_number 87
_symmetry_cell_setting 'tetragonal'
loop_
_space_group_symop_operation_xyz
x,y,z
-y,x,z
-x,-y,z
y,-x,z
-x,-y,-z
y,-x,-z
x,y,-z
-y,x,-z
1/2+x,1/2+y,1/2+z
1/2-y,1/2+x,1/2+z
1/2-x,1/2-y,1/2+z
1/2+y,1/2-x,1/2+z
1/2-x,1/2-y,1/2-z
1/2+y,1/2-x,1/2-z
1/2+x,1/2+y,1/2-z
1/2-y,1/2+x,1/2-z
loop_
_atom_site_type_symbol
_atom_site_label
_atom_site_fract_x
_atom_site_fract_y
_atom_site_fract_z
Si Si1 0.671076 0.608210 0.000000
Si Si2 0.190694 0.061591 0.077674
Si Si3 0.173109 0.904532 0.234119
Si Si4 0.771756 0.219250 0.638595
O O1 0.535347 0.660291 0.000000
O O2 0.729306 0.653923 0.930167
O O3 0.293211 0.133522 0.115213
O O4 0.072453 0.144770 0.089200
O O5 0.220087 0.066013 0.000000
O O6 0.193226 0.889246 0.313209
O O7 0.271729 0.831602 0.191316
O O8 0.044045 0.843669 0.219344
#
# Coordination Sequence:
#
# PCOD9545939 Si02
#       4
#     8  16  16  16
#     4  11  24  42  64  89 116 150 194 239 288 352
#     4   9  17  31  55  86 117 151 192 234 280 341
#     4  10  22  40  62  87 115 155 205 245 282 341
#     4  11  20  35  63  92 116 151 194 248 292 336
#
# _framework density 22.447364
#
# number of rings (size 3 to 8) (size 9 to 14) (size 15 to 20)
#    0.000    1.857    1.429    4.286    0.000    4.571 
#    0.000    0.000    0.000   77.143    0.000    0.000 
#    0.000    0.000    0.000    0.000    0.000    0.000 
#
# Total GULP energy -156082.096289 kJ/mol
# GULP energy per Si atom -5574.360582 kJ/mol
# Density = 2.239627 g / cm^3
# Si number density = 22.447364 Si / 1000 Ang^3
#
#
#
# Elastic Constant Matrix: (Units=GPa)
#
#
# Indices 1 2 3 4 5 6 
#
# 1 41.9428 33.0866 28.1811 0.0000 0.0000 -2.8599
# 2 33.0866 41.9428 28.1811 0.0000 0.0000 2.8599
# 3 28.1811 28.1811 150.6493 0.0000 0.0000 0.0000
# 4 0.0000 0.0000 0.0000 44.1928 0.0000 0.0000
# 5 0.0000 0.0000 0.0000 0.0000 44.1928 0.0000
# 6 -2.8599 2.8599 0.0000 0.0000 0.0000 28.0356
#
#
#
# Elastic Compliance Matrix: (Units=1/GPa)
#
#
# Indices 1 2 3 4 5 6 
#
# 1 0.068193 -0.052686 -0.002901 0.000000 0.000000 0.012331
# 2 -0.052686 0.068193 -0.002901 0.000000 0.000000 -0.012331
# 3 -0.002901 -0.002901 0.007723 0.000000 0.000000 0.000000
# 4 0.000000 0.000000 0.000000 0.022628 0.000000 0.000000
# 5 0.000000 0.000000 0.000000 0.000000 0.022628 0.000000
# 6 0.012331 -0.012331 0.000000 0.000000 0.000000 0.038185
#
#
# Mechanical properties :
#
#
# Convention : Reuss Voigt Hill
#
# Bulk Modulus (GPa) = 36.85374 45.93693 41.39533
# Shear Modulus (GPa) = 14.14143 32.95666 23.54904
#
# Velocity S-wave (km/s) = 2.51267 3.83583 3.24246
# Velocity P-wave (km/s) = 4.98713 6.33458 5.70081
#
# Compressibility (1/GPa) = 0.02713429
#
# Stress axis : x y z
#
# Youngs Moduli (GPa) = 14.66420 14.66420 129.47963
#
# Poissons Ratio (x) = 0.77260 0.37560
# Poissons Ratio (y) = 0.77260 0.37560
# Poissons Ratio (z) = 0.04254 0.04254
#
# Static dielectric constant tensor:
#      x y z
#    x 1.867270 0.000000 0.000000 
#    y 0.000000 1.867270 0.000000 
#    z 0.000000 0.000000 1.972100 
# 
# From -- ./inp_files/4904.got.cif
#   From: 2010.05.17/outbox.cif.g08.bks.cpg/sg87_3_cif.got.tgz:4904.got - 2010.06.03 19:07:00.
