data_PCOD9545607
_publ_section_title
;
Structure prediction by ZEFSAII (Michael W. Deem and Ramdas Pophale) SiO2 
 PCOD9545607
Probable space group: I 4/M
;
_chemical_formula_sum "Si O2"
_cell_formula_units_Z 116
_cell_length_a 17.448539
_cell_length_b 17.448539
_cell_length_c 18.549874
_cell_angle_alpha 90.000000
_cell_angle_beta 90.000000
_cell_angle_gamma 90.000000
_cell_volume 5647.537210
_symmetry_space_group_name_H-M "I 4/M"
_symmetry_group_IT_number 87
_symmetry_cell_setting 'tetragonal'
loop_
_space_group_symop_operation_xyz
x,y,z
-y,x,z
-x,-y,z
y,-x,z
-x,-y,-z
y,-x,-z
x,y,-z
-y,x,-z
1/2+x,1/2+y,1/2+z
1/2-y,1/2+x,1/2+z
1/2-x,1/2-y,1/2+z
1/2+y,1/2-x,1/2+z
1/2-x,1/2-y,1/2-z
1/2+y,1/2-x,1/2-z
1/2+x,1/2+y,1/2-z
1/2-y,1/2+x,1/2-z
loop_
_atom_site_type_symbol
_atom_site_label
_atom_site_fract_x
_atom_site_fract_y
_atom_site_fract_z
Si Si1 0.201374 0.297736 0.694521
Si Si2 0.356691 0.327474 0.916229
Si Si3 0.048458 0.422008 0.421644
Si Si4 0.000000 0.000000 0.287507
Si Si5 0.674858 0.034236 0.278023
Si Si6 0.543766 0.208867 0.361736
Si Si7 0.626331 0.497105 0.587397
Si Si8 0.483350 0.668512 0.156570
O O1 0.250000 0.250000 0.750000
O O2 0.172911 0.244654 0.629036
O O3 0.124627 0.324308 0.734740
O O4 0.239999 0.373884 0.664646
O O5 0.447341 0.339081 0.900707
O O6 0.318777 0.403797 0.884093
O O7 0.342189 0.318250 0.000000
O O8 0.033552 0.383708 0.500000
O O9 0.024057 0.373699 0.351140
O O10 0.140019 0.438636 0.417375
O O11 0.000000 0.500000 0.420213
O O12 0.091712 0.021624 0.296531
O O13 0.659012 0.994092 0.202789
O O14 0.759941 0.005086 0.295174
O O15 0.498450 0.285615 0.385155
O O16 0.575628 0.572564 0.609193
O O17 0.629280 0.497425 0.500000
#
# Coordination Sequence:
#
# PCOD9545607 Si02
#       8
#    16  16  16   4  16  16  16  16
#     4  10  23  39  56  83 124 158 196 250 301 371
#     4  10  19  33  56  82 113 154 198 244 294 352
#     4  10  24  44  67  93 121 159 208 262 317 384
#     4   8  16  32  53  76 120 172 197 240 276 358
#     4  10  23  38  62  89 120 162 200 255 312 366
#     4  11  23  38  67  93 122 168 207 259 316 378
#     4   9  20  41  65  94 131 170 214 266 321 377
#     4   9  18  34  52  83 119 157 200 239 296 354
#
# _framework density 20.539926999999999
#
# number of rings (size 3 to 8) (size 9 to 14) (size 15 to 20)
#    0.000    2.207    0.000    2.069    5.793    6.069 
#    0.000    2.069    0.000    0.000    0.000    0.000 
#    0.000    0.000    0.000    0.000    0.000    0.000 
#
# Total GULP energy -323017.977217 kJ/mol
# GULP energy per Si atom -5569.275469 kJ/mol
# Density = 2.049318 g / cm^3
# Si number density = 20.539927 Si / 1000 Ang^3
#
#
#
# Elastic Constant Matrix: (Units=GPa)
#
#
# Indices 1 2 3 4 5 6 
#
# 1 44.4485 26.4504 15.1832 0.0000 0.0000 -1.3114
# 2 26.4504 44.4485 15.1832 0.0000 0.0000 1.3114
# 3 15.1832 15.1832 64.3286 0.0000 0.0000 0.0000
# 4 0.0000 0.0000 0.0000 14.6864 0.0000 0.0000
# 5 0.0000 0.0000 0.0000 0.0000 14.6864 0.0000
# 6 -1.3114 1.3114 0.0000 0.0000 0.0000 32.0397
#
#
#
# Elastic Compliance Matrix: (Units=1/GPa)
#
#
# Indices 1 2 3 4 5 6 
#
# 1 0.035793 -0.020102 -0.003703 0.000000 0.000000 0.002288
# 2 -0.020102 0.035793 -0.003703 0.000000 0.000000 -0.002288
# 3 -0.003703 -0.003703 0.017293 0.000000 0.000000 0.000000
# 4 0.000000 0.000000 0.000000 0.068090 0.000000 0.000000
# 5 0.000000 0.000000 0.000000 0.000000 0.068090 0.000000
# 6 0.002288 -0.002288 0.000000 0.000000 0.000000 0.031399
#
#
# Mechanical properties :
#
#
# Convention : Reuss Voigt Hill
#
# Bulk Modulus (GPa) = 29.53228 29.65102 29.59165
# Shear Modulus (GPa) = 15.49125 18.70976 17.10050
#
# Velocity S-wave (km/s) = 2.74925 3.02138 2.88852
# Velocity P-wave (km/s) = 4.94844 5.16128 5.05598
#
# Compressibility (1/GPa) = 0.03386126
#
# Stress axis : x y z
#
# Youngs Moduli (GPa) = 27.93859 27.93859 57.82558
#
# Poissons Ratio (x) = 0.56162 0.21415
# Poissons Ratio (y) = 0.56162 0.21415
# Poissons Ratio (z) = 0.10347 0.10347
#
# Static dielectric constant tensor:
#      x y z
#    x 1.734560 0.000000 0.000000 
#    y 0.000000 1.734560 0.000000 
#    z 0.000000 0.000000 1.696720 
# 
# From -- ./inp_files/4600.got.cif
#   From: 2010.05.17/outbox.cif.g08.bks.cpg/sg87_3_cif.got.tgz:4600.got - 2010.06.03 19:07:00.
