data_PCOD9545162
_publ_section_title
;
Structure prediction by ZEFSAII (Michael W. Deem and Ramdas Pophale) SiO2 
 PCOD9545162
Probable space group: P 42/N
;
_chemical_formula_sum "Si O2"
_cell_formula_units_Z 26
_cell_length_a 7.857008
_cell_length_b 7.857008
_cell_length_c 19.155177
_cell_angle_alpha 90.000000
_cell_angle_beta 90.000000
_cell_angle_gamma 90.000000
_cell_volume 1182.498395
_symmetry_space_group_name_H-M "P 42/N"
_symmetry_group_IT_number 86
_space_group.IT_coordinate_system_code '2'
_symmetry_cell_setting 'tetragonal'
loop_
_space_group_symop_operation_xyz
x,y,z
-y,1/2+x,1/2+z
1/2-x,1/2-y,z
1/2+y,-x,1/2+z
-x,-y,-z
y,1/2-x,1/2-z
1/2+x,1/2+y,-z
1/2-y,x,1/2-z
loop_
_atom_site_type_symbol
_atom_site_label
_atom_site_fract_x
_atom_site_fract_y
_atom_site_fract_z
Si Si1 0.059379 0.714522 0.943765
Si Si2 0.133225 0.981902 0.597114
Si Si3 0.750000 0.750000 0.750000
Si Si4 0.889724 0.017084 0.860315
O O1 0.250000 0.750000 0.964377
O O2 0.067182 0.551185 0.891958
O O3 0.981152 0.878558 0.908010
O O4 0.967367 0.678245 0.017438
O O5 0.305165 0.996050 0.643278
O O6 0.075256 0.785546 0.603751
O O7 0.831617 0.906649 0.793599
#
# Coordination Sequence:
#
# PCOD9545162 Si02
#       4
#     8   8   2   8
#     4  11  21  37  66 104 131 171 208 289 364 402
#     4  10  22  39  67  95 134 167 222 288 343 404
#     4  12  24  44  68  80 132 204 232 262 336 432
#     4  11  22  43  61  97 128 185 226 265 340 418
#
# _framework density 21.987344
#
# number of rings (size 3 to 8) (size 9 to 14) (size 15 to 20)
#    0.000    1.231    6.154    0.923    0.000    1.231 
#    5.538    0.000    0.000    0.000    0.000    0.000 
#    0.000    0.000    0.000    0.000    0.000    0.000 
#
# Total GULP energy -144786.330278 kJ/mol
# GULP energy per Si atom -5568.705011 kJ/mol
# Density = 2.193730 g / cm^3
# Si number density = 21.987344 Si / 1000 Ang^3
#
#
#
# Elastic Constant Matrix: (Units=GPa)
#
#
# Indices 1 2 3 4 5 6 
#
# 1 87.8914 0.0863 17.1436 0.0000 0.0000 -7.5474
# 2 0.0863 87.8914 17.1436 0.0000 0.0000 7.5474
# 3 17.1436 17.1436 54.8956 0.0000 0.0000 0.0000
# 4 0.0000 0.0000 0.0000 9.0025 0.0000 0.0000
# 5 0.0000 0.0000 0.0000 0.0000 9.0025 0.0000
# 6 -7.5474 7.5474 0.0000 0.0000 0.0000 33.2743
#
#
#
# Elastic Compliance Matrix: (Units=1/GPa)
#
#
# Indices 1 2 3 4 5 6 
#
# 1 0.012396 0.000545 -0.004042 0.000000 0.000000 0.002688
# 2 0.000545 0.012396 -0.004042 0.000000 0.000000 -0.002688
# 3 -0.004042 -0.004042 0.020741 0.000000 0.000000 0.000000
# 4 0.000000 0.000000 0.000000 0.111080 0.000000 0.000000
# 5 0.000000 0.000000 0.000000 0.000000 0.111080 0.000000
# 6 0.002688 -0.002688 0.000000 0.000000 0.000000 0.031273
#
#
# Mechanical properties :
#
#
# Convention : Reuss Voigt Hill
#
# Bulk Modulus (GPa) = 32.83255 33.26950 33.05103
# Shear Modulus (GPa) = 15.42284 23.34285 19.38285
#
# Velocity S-wave (km/s) = 2.65135 3.26183 2.97230
# Velocity P-wave (km/s) = 4.93333 5.41757 5.18111
#
# Compressibility (1/GPa) = 0.03045758
#
# Stress axis : x y z
#
# Youngs Moduli (GPa) = 80.66914 80.66914 48.21430
#
# Poissons Ratio (x) = -0.04399 0.19486
# Poissons Ratio (y) = -0.04399 0.19486
# Poissons Ratio (z) = 0.32603 0.32603
#
# Static dielectric constant tensor:
#      x y z
#    x 1.850510 0.000000 0.000000 
#    y 0.000000 1.850510 0.000000 
#    z 0.000000 0.000000 1.841270 
# 
# From -- ./inp_files/3221.got.cif
#   From: 2010.05.17/outbox.cif.g08.bks.cpg/sg86_2_cif.got.tgz:3221.got - 2010.06.03 19:03:11.
