data_PCOD9545147
_publ_section_title
;
Structure prediction by ZEFSAII (Michael W. Deem and Ramdas Pophale) SiO2 
 PCOD9545147
Probable space group: P 42/N
;
_chemical_formula_sum "Si O2"
_cell_formula_units_Z 48
_cell_length_a 12.232021
_cell_length_b 12.232021
_cell_length_c 17.573467
_cell_angle_alpha 90.000000
_cell_angle_beta 90.000000
_cell_angle_gamma 90.000000
_cell_volume 2629.383215
_symmetry_space_group_name_H-M "P 42/N"
_symmetry_group_IT_number 86
_space_group.IT_coordinate_system_code '2'
_symmetry_cell_setting 'tetragonal'
loop_
_space_group_symop_operation_xyz
x,y,z
-y,1/2+x,1/2+z
1/2-x,1/2-y,z
1/2+y,-x,1/2+z
-x,-y,-z
y,1/2-x,1/2-z
1/2+x,1/2+y,-z
1/2-y,x,1/2-z
loop_
_atom_site_type_symbol
_atom_site_label
_atom_site_fract_x
_atom_site_fract_y
_atom_site_fract_z
Si Si1 0.446621 0.538885 0.164705
Si Si2 0.045923 0.402613 0.047127
Si Si3 0.638474 0.385903 0.137985
Si Si4 0.635966 0.379890 0.678580
Si Si5 0.998808 0.835969 0.010030
Si Si6 0.874413 0.711532 0.586124
O O1 0.560744 0.474968 0.176981
O O2 0.410991 0.607073 0.237503
O O3 0.465748 0.614530 0.090295
O O4 0.352856 0.446952 0.148098
O O5 0.173939 0.421622 0.059585
O O6 0.984258 0.393514 0.127510
O O7 0.000000 0.500000 0.000000
O O8 0.015401 0.293470 0.999883
O O9 0.624453 0.267826 0.177694
O O10 0.767559 0.407196 0.140556
O O11 0.587133 0.372980 0.053541
O O12 0.878454 0.873764 0.981524
O O13 0.750000 0.750000 0.608397
#
# Coordination Sequence:
#
# PCOD9545147 Si02
#       6
#     8   8   8   8   8   8
#     4  11  22  37  66  86 117 161 205 242 313 362
#     4  10  22  37  60  89 121 154 197 248 301 351
#     4   9  20  42  58  78 124 153 198 241 296 357
#     4  10  23  38  56  90 122 156 191 256 297 353
#     4   9  20  40  63  85 110 163 202 242 293 370
#     4   9  19  38  59  88 113 147 203 252 291 353
#
# _framework density 18.255230000000001
#
# number of rings (size 3 to 8) (size 9 to 14) (size 15 to 20)
#    0.000    2.333    0.000    3.000    7.000    1.333 
#    3.000    0.000    0.000    0.000    0.000    0.000 
#    0.000    0.000    0.000    0.000    0.000    0.000 
#
# Total GULP energy -267532.188865 kJ/mol
# GULP energy per Si atom -5573.587268 kJ/mol
# Density = 1.821368 g / cm^3
# Si number density = 18.255230 Si / 1000 Ang^3
#
#
#
# Elastic Constant Matrix: (Units=GPa)
#
#
# Indices 1 2 3 4 5 6 
#
# 1 97.0809 47.7889 48.9476 0.0000 0.0000 1.4588
# 2 47.7889 97.0809 48.9476 0.0000 0.0000 -1.4588
# 3 48.9476 48.9476 87.0991 0.0000 0.0000 0.0000
# 4 0.0000 0.0000 0.0000 14.1228 0.0000 0.0000
# 5 0.0000 0.0000 0.0000 0.0000 14.1228 0.0000
# 6 1.4588 -1.4588 0.0000 0.0000 0.0000 26.1568
#
#
#
# Elastic Compliance Matrix: (Units=1/GPa)
#
#
# Indices 1 2 3 4 5 6 
#
# 1 0.015742 -0.004613 -0.006254 0.000000 0.000000 -0.001135
# 2 -0.004613 0.015742 -0.006254 0.000000 0.000000 0.001135
# 3 -0.006254 -0.006254 0.018511 0.000000 0.000000 0.000000
# 4 0.000000 0.000000 0.000000 0.070807 0.000000 0.000000
# 5 0.000000 0.000000 0.000000 0.000000 0.070807 0.000000
# 6 -0.001135 0.001135 0.000000 0.000000 0.000000 0.038358
#
#
# Mechanical properties :
#
#
# Convention : Reuss Voigt Hill
#
# Bulk Modulus (GPa) = 63.48512 63.62544 63.55528
# Shear Modulus (GPa) = 18.55567 19.91894 19.23730
#
# Velocity S-wave (km/s) = 3.19165 3.30682 3.24975
# Velocity P-wave (km/s) = 6.95946 7.03626 6.99797
#
# Compressibility (1/GPa) = 0.01575172
#
# Stress axis : x y z
#
# Youngs Moduli (GPa) = 63.52531 63.52531 54.02300
#
# Poissons Ratio (x) = 0.29303 0.33787
# Poissons Ratio (y) = 0.29303 0.33787
# Poissons Ratio (z) = 0.39730 0.39730
#
# Static dielectric constant tensor:
#      x y z
#    x 1.504390 0.000000 0.000000 
#    y 0.000000 1.504390 0.000000 
#    z 0.000000 0.000000 1.573190 
# 
# From -- ./inp_files/3566.got.cif
#   From: 2010.05.17/outbox.cif.g08.bks.cpg/sg86_2_cif.got.tgz:3566.got - 2010.06.03 19:03:11.
