data_PCOD9545617
_publ_section_title
;
Structure prediction by ZEFSAII (Michael W. Deem and Ramdas Pophale) SiO2 
 PCOD9545617
Probable space group: I 4/M
;
_chemical_formula_sum "Si O2"
_cell_formula_units_Z 96
_cell_length_a 20.314748
_cell_length_b 20.314748
_cell_length_c 13.578929
_cell_angle_alpha 90.000000
_cell_angle_beta 90.000000
_cell_angle_gamma 90.000000
_cell_volume 5603.874444
_symmetry_space_group_name_H-M "I 4/M"
_symmetry_group_IT_number 87
_symmetry_cell_setting 'tetragonal'
loop_
_space_group_symop_operation_xyz
x,y,z
-y,x,z
-x,-y,z
y,-x,z
-x,-y,-z
y,-x,-z
x,y,-z
-y,x,-z
1/2+x,1/2+y,1/2+z
1/2-y,1/2+x,1/2+z
1/2-x,1/2-y,1/2+z
1/2+y,1/2-x,1/2+z
1/2-x,1/2-y,1/2-z
1/2+y,1/2-x,1/2-z
1/2+x,1/2+y,1/2-z
1/2-y,1/2+x,1/2-z
loop_
_atom_site_type_symbol
_atom_site_label
_atom_site_fract_x
_atom_site_fract_y
_atom_site_fract_z
Si Si1 0.928912 0.916289 0.891012
Si Si2 0.018268 0.394238 0.747408
Si Si3 0.698432 0.108644 0.616607
Si Si4 0.698264 0.381989 0.718324
Si Si5 0.228066 0.497393 0.383358
Si Si6 0.242971 0.149985 0.117178
O O1 0.901488 0.877303 0.798618
O O2 0.007467 0.911328 0.889028
O O3 0.907376 0.890781 0.000000
O O4 0.068336 0.451359 0.782818
O O5 0.054526 0.350563 0.664032
O O6 0.999913 0.343131 0.832783
O O7 0.706036 0.098775 0.500000
O O8 0.767027 0.109841 0.676851
O O9 0.668234 0.181071 0.634920
O O10 0.734934 0.436615 0.651051
O O11 0.696604 0.307776 0.675693
O O12 0.222090 0.496954 0.500000
O O13 0.263045 0.427894 0.356685
O O14 0.232009 0.157461 0.000000
#
# Coordination Sequence:
#
# PCOD9545617 Si02
#       6
#    16  16  16  16  16  16
#     4   9  17  30  51  83 115 139 171 221 278 324
#     4  10  20  35  57  81 103 134 180 227 269 322
#     4  10  22  38  53  74 107 146 180 216 266 324
#     4  11  20  31  53  79 105 141 180 216 260 322
#     4  10  20  33  52  81 109 137 177 221 273 323
#     4  10  19  34  54  76 107 140 173 220 273 319
#
# _framework density 17.131004999999998
#
# number of rings (size 3 to 8) (size 9 to 14) (size 15 to 20)
#    0.000    2.000    1.667    3.500    0.000    3.333 
#    0.000    1.667    0.000    9.000    0.000    1.167 
#    0.000    0.000    0.000    0.000    0.000    0.000 
#
# Total GULP energy -267442.144529 kJ/mol
# GULP energy per Si atom -5571.711344 kJ/mol
# Density = 1.709201 g / cm^3
# Si number density = 17.131005 Si / 1000 Ang^3
#
#
#
# Elastic Constant Matrix: (Units=GPa)
#
#
# Indices 1 2 3 4 5 6 
#
# 1 76.5961 22.2034 43.1897 0.0000 0.0000 -5.6757
# 2 22.2034 76.5961 43.1897 0.0000 0.0000 5.6757
# 3 43.1897 43.1897 92.9356 0.0000 0.0000 0.0000
# 4 0.0000 0.0000 0.0000 19.1040 0.0000 0.0000
# 5 0.0000 0.0000 0.0000 0.0000 19.1040 0.0000
# 6 -5.6757 5.6757 0.0000 0.0000 0.0000 36.3306
#
#
#
# Elastic Compliance Matrix: (Units=1/GPa)
#
#
# Indices 1 2 3 4 5 6 
#
# 1 0.018026 -0.000978 -0.007923 0.000000 0.000000 0.002969
# 2 -0.000978 0.018026 -0.007923 0.000000 0.000000 -0.002969
# 3 -0.007923 -0.007923 0.018124 0.000000 0.000000 0.000000
# 4 0.000000 0.000000 0.000000 0.052345 0.000000 0.000000
# 5 0.000000 0.000000 0.000000 0.000000 0.052345 0.000000
# 6 0.002969 -0.002969 0.000000 0.000000 0.000000 0.028453
#
#
# Mechanical properties :
#
#
# Convention : Reuss Voigt Hill
#
# Bulk Modulus (GPa) = 48.71055 51.47704 50.09379
# Shear Modulus (GPa) = 21.94808 24.07738 23.01273
#
# Velocity S-wave (km/s) = 3.58325 3.75305 3.66913
# Velocity P-wave (km/s) = 6.75392 6.99248 6.87424
#
# Compressibility (1/GPa) = 0.02052944
#
# Stress axis : x y z
#
# Youngs Moduli (GPa) = 55.47422 55.47422 55.17523
#
# Poissons Ratio (x) = 0.05425 0.43715
# Poissons Ratio (y) = 0.05425 0.43715
# Poissons Ratio (z) = 0.43951 0.43951
#
# Static dielectric constant tensor:
#      x y z
#    x 1.623000 0.000000 0.000000 
#    y 0.000000 1.623000 0.000000 
#    z 0.000000 0.000000 1.548730 
# 
# From -- ./inp_files/2731.got.cif
#   From: 2010.05.17/outbox.cif.g08.bks.cpg/sg87_2_cif.got.tgz:2731.got - 2010.06.03 19:07:00.
