data_PCOD9545639
_publ_section_title
;
Structure prediction by ZEFSAII (Michael W. Deem and Ramdas Pophale) SiO2 
 PCOD9545639
Probable space group: I 4/M
;
_chemical_formula_sum "Si O2"
_cell_formula_units_Z 112
_cell_length_a 14.865687
_cell_length_b 14.865687
_cell_length_c 23.957020
_cell_angle_alpha 90.000000
_cell_angle_beta 90.000000
_cell_angle_gamma 90.000000
_cell_volume 5294.229507
_symmetry_space_group_name_H-M "I 4/M"
_symmetry_group_IT_number 87
_symmetry_cell_setting 'tetragonal'
loop_
_space_group_symop_operation_xyz
x,y,z
-y,x,z
-x,-y,z
y,-x,z
-x,-y,-z
y,-x,-z
x,y,-z
-y,x,-z
1/2+x,1/2+y,1/2+z
1/2-y,1/2+x,1/2+z
1/2-x,1/2-y,1/2+z
1/2+y,1/2-x,1/2+z
1/2-x,1/2-y,1/2-z
1/2+y,1/2-x,1/2-z
1/2+x,1/2+y,1/2-z
1/2-y,1/2+x,1/2-z
loop_
_atom_site_type_symbol
_atom_site_label
_atom_site_fract_x
_atom_site_fract_y
_atom_site_fract_z
Si Si1 0.647293 0.754795 0.833891
Si Si2 0.065539 0.135730 0.242645
Si Si3 0.570285 0.097817 0.717150
Si Si4 0.936607 0.641243 0.562771
Si Si5 0.374912 0.416204 0.435643
Si Si6 0.962574 0.616293 0.101135
Si Si7 0.731407 0.340629 0.641200
O O1 0.588984 0.682254 0.801119
O O2 0.658582 0.843971 0.794611
O O3 0.600238 0.790885 0.890365
O O4 0.747720 0.720628 0.844005
O O5 0.102487 0.201184 0.194658
O O6 0.959971 0.115756 0.236779
O O7 0.500416 0.112553 0.767666
O O8 0.508925 0.101118 0.661887
O O9 0.941457 0.677796 0.500000
O O10 0.876069 0.550481 0.562843
O O11 0.032645 0.599104 0.582044
O O12 0.477467 0.381277 0.426296
O O13 0.351208 0.400195 0.500000
O O14 0.316800 0.358974 0.393057
O O15 0.900905 0.702885 0.104396
#
# Coordination Sequence:
#
# PCOD9545639 Si02
#       7
#    16  16  16  16  16  16  16
#     4  11  26  40  66  95 128 165 216 268 318 381
#     4  11  27  46  67  90 127 175 215 265 322 379
#     4  10  19  35  61  91 123 168 208 256 320 389
#     4  10  22  43  67  94 129 171 214 266 328 386
#     4   9  20  38  60  86 125 176 215 250 302 369
#     4  10  22  37  62  96 129 168 204 260 328 385
#     4  12  25  39  63 102 129 169 210 265 317 381
#
# _framework density 21.155107999999998
#
# number of rings (size 3 to 8) (size 9 to 14) (size 15 to 20)
#    0.000    1.571    0.000    6.857   12.000    2.857 
#    0.000    0.000    0.000    0.000    0.000    1.000 
#    0.000    0.000    0.000    0.000    0.000    0.000 
#
# Total GULP energy -312931.854951 kJ/mol
# GULP energy per Si atom -5588.068838 kJ/mol
# Density = 2.110696 g / cm^3
# Si number density = 21.155108 Si / 1000 Ang^3
#
#
#
# Elastic Constant Matrix: (Units=GPa)
#
#
# Indices 1 2 3 4 5 6 
#
# 1 56.4521 23.4858 18.5200 0.0000 0.0000 -0.0967
# 2 23.4858 56.4521 18.5200 0.0000 0.0000 0.0967
# 3 18.5200 18.5200 84.8624 0.0000 0.0000 0.0000
# 4 0.0000 0.0000 0.0000 16.6300 0.0000 0.0000
# 5 0.0000 0.0000 0.0000 0.0000 16.6300 0.0000
# 6 -0.0967 0.0967 0.0000 0.0000 0.0000 21.2066
#
#
#
# Elastic Compliance Matrix: (Units=1/GPa)
#
#
# Indices 1 2 3 4 5 6 
#
# 1 0.022126 -0.008209 -0.003037 0.000000 0.000000 0.000138
# 2 -0.008209 0.022126 -0.003037 0.000000 0.000000 -0.000138
# 3 -0.003037 -0.003037 0.013109 0.000000 0.000000 0.000000
# 4 0.000000 0.000000 0.000000 0.060132 0.000000 0.000000
# 5 0.000000 0.000000 0.000000 0.000000 0.060132 0.000000
# 6 0.000138 -0.000138 0.000000 0.000000 0.000000 0.047156
#
#
# Mechanical properties :
#
#
# Convention : Reuss Voigt Hill
#
# Bulk Modulus (GPa) = 34.72861 35.42425 35.07643
# Shear Modulus (GPa) = 19.01524 20.04271 19.52898
#
# Velocity S-wave (km/s) = 3.00133 3.08135 3.04161
# Velocity P-wave (km/s) = 5.33502 5.42596 5.38068
#
# Compressibility (1/GPa) = 0.02879470
#
# Stress axis : x y z
#
# Youngs Moduli (GPa) = 45.19582 45.19582 76.28096
#
# Poissons Ratio (x) = 0.37101 0.23168
# Poissons Ratio (y) = 0.37101 0.23168
# Poissons Ratio (z) = 0.13727 0.13727
#
# Static dielectric constant tensor:
#      x y z
#    x 1.784580 0.000000 0.000000 
#    y 0.000000 1.784580 0.000000 
#    z 0.000000 0.000000 1.784200 
# 
# From -- ./inp_files/5865.got.cif
#   From: 2010.05.17/outbox.cif.g08.bks.cpg/sg87_3_cif.got.tgz:5865.got - 2010.06.03 19:07:00.
