data_PCOD9545304
_publ_section_title
;
Structure prediction by ZEFSAII (Michael W. Deem and Ramdas Pophale) SiO2 
 PCOD9545304
Probable space group: P 42/N
;
_chemical_formula_sum "Si O2"
_cell_formula_units_Z 26
_cell_length_a 8.772482
_cell_length_b 8.772482
_cell_length_c 14.008598
_cell_angle_alpha 90.000000
_cell_angle_beta 90.000000
_cell_angle_gamma 90.000000
_cell_volume 1078.051838
_symmetry_space_group_name_H-M "P 42/N"
_symmetry_group_IT_number 86
_space_group.IT_coordinate_system_code '2'
_symmetry_cell_setting 'tetragonal'
loop_
_space_group_symop_operation_xyz
x,y,z
-y,1/2+x,1/2+z
1/2-x,1/2-y,z
1/2+y,-x,1/2+z
-x,-y,-z
y,1/2-x,1/2-z
1/2+x,1/2+y,-z
1/2-y,x,1/2-z
loop_
_atom_site_type_symbol
_atom_site_label
_atom_site_fract_x
_atom_site_fract_y
_atom_site_fract_z
Si Si1 0.250000 0.250000 0.250000
Si Si2 0.384560 0.365113 0.875844
Si Si3 0.095920 0.797074 0.951490
Si Si4 0.169591 0.913644 0.247369
O O1 0.273996 0.421713 0.203542
O O2 0.250000 0.250000 0.856012
O O3 0.359929 0.539322 0.907096
O O4 0.499675 0.383938 0.787807
O O5 0.466876 0.300329 0.970519
O O6 0.250000 0.750000 0.003363
O O7 0.059386 0.693194 0.860297
O O8 0.250000 0.750000 0.227148
#
# Coordination Sequence:
#
# PCOD9545304 Si02
#       4
#     2   8   8   8
#     4  12  24  48  76 108 168 212 270 356 420 496
#     4  11  25  47  78 114 157 206 276 344 416 511
#     4  10  24  47  71 110 157 209 265 331 430 495
#     4  11  25  46  75 117 157 216 277 334 430 504
#
# _framework density 24.117578999999999
#
# number of rings (size 3 to 8) (size 9 to 14) (size 15 to 20)
#    0.000    1.231    3.077    0.923    2.154    6.154 
#    0.000    0.000    0.000    0.000    4.000    0.000 
#    0.000    0.000    0.000    0.000    0.000    0.000 
#
# Total GULP energy -145109.347581 kJ/mol
# GULP energy per Si atom -5581.128753 kJ/mol
# Density = 2.406269 g / cm^3
# Si number density = 24.117579 Si / 1000 Ang^3
#
#
#
# Elastic Constant Matrix: (Units=GPa)
#
#
# Indices 1 2 3 4 5 6 
#
# 1 152.3230 101.9517 53.1109 0.0000 0.0000 7.6128
# 2 101.9517 152.3230 53.1109 0.0000 0.0000 -7.6128
# 3 53.1109 53.1109 135.0642 0.0000 0.0000 0.0000
# 4 0.0000 0.0000 0.0000 29.1220 0.0000 0.0000
# 5 0.0000 0.0000 0.0000 0.0000 29.1220 0.0000
# 6 7.6128 -7.6128 0.0000 0.0000 0.0000 55.9889
#
#
#
# Elastic Compliance Matrix: (Units=1/GPa)
#
#
# Indices 1 2 3 4 5 6 
#
# 1 0.012705 -0.007999 -0.001850 0.000000 0.000000 -0.002815
# 2 -0.007999 0.012705 -0.001850 0.000000 0.000000 0.002815
# 3 -0.001850 -0.001850 0.008859 0.000000 0.000000 0.000000
# 4 0.000000 0.000000 0.000000 0.034338 0.000000 0.000000
# 5 0.000000 0.000000 0.000000 0.000000 0.034338 0.000000
# 6 -0.002815 0.002815 0.000000 0.000000 0.000000 0.018626
#
#
# Mechanical properties :
#
#
# Convention : Reuss Voigt Hill
#
# Bulk Modulus (GPa) = 92.00510 95.11744 93.56127
# Shear Modulus (GPa) = 33.64883 38.28237 35.96560
#
# Velocity S-wave (km/s) = 3.73929 3.98844 3.86587
# Velocity P-wave (km/s) = 7.54151 7.79326 7.66842
#
# Compressibility (1/GPa) = 0.01086896
#
# Stress axis : x y z
#
# Youngs Moduli (GPa) = 78.71158 78.71158 112.87742
#
# Poissons Ratio (x) = 0.62960 0.20887
# Poissons Ratio (y) = 0.62960 0.20887
# Poissons Ratio (z) = 0.14565 0.14565
#
# Static dielectric constant tensor:
#      x y z
#    x 1.989510 0.000000 0.000000 
#    y 0.000000 1.989510 0.000000 
#    z 0.000000 0.000000 1.896080 
# 
# From -- ./inp_files/3284.got.cif
#   From: 2010.05.17/outbox.cif.g08.bks.cpg/sg86_2_cif.got.tgz:3284.got - 2010.06.03 19:03:11.
