data_PCOD9545804
_publ_section_title
;
Structure prediction by ZEFSAII (Michael W. Deem and Ramdas Pophale) SiO2 
 PCOD9545804
Probable space group: I 4/M
;
_chemical_formula_sum "Si O2"
_cell_formula_units_Z 64
_cell_length_a 21.753604
_cell_length_b 21.753604
_cell_length_c 8.049322
_cell_angle_alpha 90.000000
_cell_angle_beta 90.000000
_cell_angle_gamma 90.000000
_cell_volume 3809.094418
_symmetry_space_group_name_H-M "I 4/M"
_symmetry_group_IT_number 87
_symmetry_cell_setting 'tetragonal'
loop_
_space_group_symop_operation_xyz
x,y,z
-y,x,z
-x,-y,z
y,-x,z
-x,-y,-z
y,-x,-z
x,y,-z
-y,x,-z
1/2+x,1/2+y,1/2+z
1/2-y,1/2+x,1/2+z
1/2-x,1/2-y,1/2+z
1/2+y,1/2-x,1/2+z
1/2-x,1/2-y,1/2-z
1/2+y,1/2-x,1/2-z
1/2+x,1/2+y,1/2-z
1/2-y,1/2+x,1/2-z
loop_
_atom_site_type_symbol
_atom_site_label
_atom_site_fract_x
_atom_site_fract_y
_atom_site_fract_z
Si Si1 0.812511 0.014476 0.000000
Si Si2 0.182441 0.234802 0.812501
Si Si3 0.376394 0.642780 0.500000
Si Si4 0.946733 0.731644 0.314843
Si Si5 0.022356 0.403273 0.802009
O O1 0.771300 0.024598 0.164766
O O2 0.841226 0.947152 0.000000
O O3 0.861444 0.070328 0.000000
O O4 0.250000 0.250000 0.750000
O O5 0.171587 0.161832 0.844426
O O6 0.126971 0.260258 0.703532
O O7 0.174310 0.260911 0.000000
O O8 0.965601 0.751183 0.500000
O O9 0.964278 0.661065 0.285046
O O10 0.070338 0.455466 0.745066
O O11 0.026295 0.395740 0.000000
#
# Coordination Sequence:
#
# PCOD9545804 Si02
#       5
#     8  16   8  16  16
#     4  10  20  43  56  89 114 144 198 234 306 344
#     4   9  18  35  55  87 115 149 188 236 292 342
#     4   8  20  35  64  80 122 154 182 251 282 354
#     4  11  21  37  58  81 115 153 189 243 288 340
#     4  11  21  36  52  78 113 153 198 236 277 335
#
# _framework density 16.801893
#
# number of rings (size 3 to 8) (size 9 to 14) (size 15 to 20)
#    0.750    1.250    2.500    3.750    0.000    2.250 
#    0.000    8.750    0.000    0.000    0.000    7.000 
#    0.000    0.000    0.000    0.000    0.000    0.000 
#
# Total GULP energy -178298.741714 kJ/mol
# GULP energy per Si atom -5571.835679 kJ/mol
# Density = 1.676365 g / cm^3
# Si number density = 16.801893 Si / 1000 Ang^3
#
#
#
# Elastic Constant Matrix: (Units=GPa)
#
#
# Indices 1 2 3 4 5 6 
#
# 1 123.0859 72.0237 32.7193 0.0000 0.0000 17.6230
# 2 72.0237 123.0859 32.7193 0.0000 0.0000 -17.6230
# 3 32.7193 32.7193 124.4213 0.0000 0.0000 0.0000
# 4 0.0000 0.0000 0.0000 17.7819 0.0000 0.0000
# 5 0.0000 0.0000 0.0000 0.0000 17.7819 0.0000
# 6 17.6230 -17.6230 0.0000 0.0000 0.0000 16.0261
#
#
#
# Elastic Compliance Matrix: (Units=1/GPa)
#
#
# Indices 1 2 3 4 5 6 
#
# 1 0.043447 -0.037826 -0.001478 0.000000 0.000000 -0.089371
# 2 -0.037826 0.043447 -0.001478 0.000000 0.000000 0.089371
# 3 -0.001478 -0.001478 0.008815 0.000000 0.000000 0.000000
# 4 0.000000 0.000000 0.000000 0.056237 0.000000 0.000000
# 5 0.000000 0.000000 0.000000 0.000000 0.056237 0.000000
# 6 -0.089371 0.089371 0.000000 0.000000 0.000000 0.258950
#
#
# Mechanical properties :
#
#
# Convention : Reuss Voigt Hill
#
# Bulk Modulus (GPa) = 70.70090 71.72420 71.21255
# Shear Modulus (GPa) = 9.03488 25.86004 17.44746
#
# Velocity S-wave (km/s) = 2.32142 3.92741 3.22595
# Velocity P-wave (km/s) = 7.02537 7.95908 7.50675
#
# Compressibility (1/GPa) = 0.01414409
#
# Stress axis : x y z
#
# Youngs Moduli (GPa) = 23.01665 23.01665 113.44748
#
# Poissons Ratio (x) = 0.87062 0.16770
# Poissons Ratio (y) = 0.87062 0.16770
# Poissons Ratio (z) = 0.03402 0.03402
#
# Static dielectric constant tensor:
#      x y z
#    x 1.547980 0.000000 0.000000 
#    y 0.000000 1.547980 0.000000 
#    z 0.000000 0.000000 1.595090 
# 
# From -- ./inp_files/997.got.cif
#   From: 2010.05.17/outbox.cif.g08.bks.cpg/sg87_1_cif.got.tgz:997.got - 2010.06.03 19:07:00.
