data_PCOD9545951
_publ_section_title
;
Structure prediction by ZEFSAII (Michael W. Deem and Ramdas Pophale) SiO2 
 PCOD9545951
Probable space group: I 4/M
;
_chemical_formula_sum "Si O2"
_cell_formula_units_Z 72
_cell_length_a 20.366100
_cell_length_b 20.366100
_cell_length_c 7.838909
_cell_angle_alpha 90.000000
_cell_angle_beta 90.000000
_cell_angle_gamma 90.000000
_cell_volume 3251.407226
_symmetry_space_group_name_H-M "I 4/M"
_symmetry_group_IT_number 87
_symmetry_cell_setting 'tetragonal'
loop_
_space_group_symop_operation_xyz
x,y,z
-y,x,z
-x,-y,z
y,-x,z
-x,-y,-z
y,-x,-z
x,y,-z
-y,x,-z
1/2+x,1/2+y,1/2+z
1/2-y,1/2+x,1/2+z
1/2-x,1/2-y,1/2+z
1/2+y,1/2-x,1/2+z
1/2-x,1/2-y,1/2-z
1/2+y,1/2-x,1/2-z
1/2+x,1/2+y,1/2-z
1/2-y,1/2+x,1/2-z
loop_
_atom_site_type_symbol
_atom_site_label
_atom_site_fract_x
_atom_site_fract_y
_atom_site_fract_z
Si Si1 0.047318 0.793240 0.705777
Si Si2 0.068025 0.427719 0.813331
Si Si3 0.922681 0.714459 0.296037
Si Si4 0.305079 0.302600 0.795867
Si Si5 0.987824 0.108574 0.000000
O O1 0.043543 0.806429 0.500000
O O2 0.123589 0.786763 0.757841
O O3 0.019281 0.849745 0.827263
O O4 0.998325 0.732656 0.740544
O O5 0.081051 0.488947 0.691603
O O6 0.096737 0.356734 0.773055
O O7 0.090256 0.449333 0.000000
O O8 0.916387 0.711351 0.500000
O O9 0.874080 0.771987 0.232314
O O10 0.250000 0.250000 0.750000
O O11 0.309953 0.306210 0.000000
O O12 0.055739 0.070225 0.000000
#
# Coordination Sequence:
#
# PCOD9545951 Si02
#       5
#    16  16  16  16   8
#     4  10  23  44  67  91 130 175 219 268 328 392
#     4  11  23  40  63  90 125 166 214 266 323 391
#     4  10  22  41  65  92 128 169 215 266 323 388
#     4  10  23  41  64  95 129 170 216 272 331 392
#     4  11  24  40  66 100 130 163 216 272 324 390
#
# _framework density 22.144257
#
# number of rings (size 3 to 8) (size 9 to 14) (size 15 to 20)
#    0.000    1.667    0.000    4.000    6.222    3.556 
#    0.000    1.111    0.000    0.000    0.000    0.000 
#    0.000    0.000    0.000    0.000    0.000    0.000 
#
# Total GULP energy -201089.038479 kJ/mol
# GULP energy per Si atom -5585.806624 kJ/mol
# Density = 2.209386 g / cm^3
# Si number density = 22.144257 Si / 1000 Ang^3
#
#
#
# Elastic Constant Matrix: (Units=GPa)
#
#
# Indices 1 2 3 4 5 6 
#
# 1 52.8883 36.1385 3.3943 0.0000 0.0000 57.2215
# 2 36.1385 52.8883 3.3943 0.0000 0.0000 -57.2215
# 3 3.3943 3.3943 43.9591 0.0000 0.0000 0.0000
# 4 0.0000 0.0000 0.0000 27.4134 0.0000 0.0000
# 5 0.0000 0.0000 0.0000 0.0000 27.4134 0.0000
# 6 57.2215 -57.2215 0.0000 0.0000 0.0000 -51.1416
#
#
#
# Elastic Compliance Matrix: (Units=1/GPa)
#
#
# Indices 1 2 3 4 5 6 
#
# 1 0.009103 0.002196 -0.000872 0.000000 0.000000 0.007727
# 2 0.002196 0.009103 -0.000872 0.000000 0.000000 -0.007727
# 3 -0.000872 -0.000872 0.022883 0.000000 0.000000 0.000000
# 4 0.000000 0.000000 0.000000 0.036478 0.000000 0.000000
# 5 0.000000 0.000000 0.000000 0.000000 0.036478 0.000000
# 6 0.007727 -0.007727 0.000000 0.000000 0.000000 -0.002262
#
#
# Mechanical properties :
#
#
# Convention : Reuss Voigt Hill
#
# Bulk Modulus (GPa) = 23.81434 26.17666 24.99550
# Shear Modulus (GPa) = 40.03920 7.85761 23.94840
#
# Velocity S-wave (km/s) = 4.25680 1.88576 3.29214
# Velocity P-wave (km/s) = 5.91083 4.07285 5.07573
#
# Compressibility (1/GPa) = 0.04199151
#
# Stress axis : x y z
#
# Youngs Moduli (GPa) = 109.85826 109.85826 43.70025
#
# Poissons Ratio (x) = -0.24130 0.03813
# Poissons Ratio (y) = -0.24130 0.03813
# Poissons Ratio (z) = 0.09585 0.09585
#
# Static dielectric constant tensor:
#      x y z
#    x 1.833230 0.000000 0.000000 
#    y 0.000000 1.833230 0.000000 
#    z 0.000000 0.000000 1.802370 
# 
# From -- ./inp_files/1060.got.cif
#   From: 2010.05.17/outbox.cif.g08.bks.cpg/sg87_1_cif.got.tgz:1060.got - 2010.06.03 19:07:00.
