data_PCOD9545054
_publ_section_title
;
Structure prediction by ZEFSAII (Michael W. Deem and Ramdas Pophale) SiO2 
 PCOD9545054
Probable space group: P 42/N
;
_chemical_formula_sum "Si O2"
_cell_formula_units_Z 40
_cell_length_a 8.660715
_cell_length_b 8.660715
_cell_length_c 27.257201
_cell_angle_alpha 90.000000
_cell_angle_beta 90.000000
_cell_angle_gamma 90.000000
_cell_volume 2044.507705
_symmetry_space_group_name_H-M "P 42/N"
_symmetry_group_IT_number 86
_space_group.IT_coordinate_system_code '2'
_symmetry_cell_setting 'tetragonal'
loop_
_space_group_symop_operation_xyz
x,y,z
-y,1/2+x,1/2+z
1/2-x,1/2-y,z
1/2+y,-x,1/2+z
-x,-y,-z
y,1/2-x,1/2-z
1/2+x,1/2+y,-z
1/2-y,x,1/2-z
loop_
_atom_site_type_symbol
_atom_site_label
_atom_site_fract_x
_atom_site_fract_y
_atom_site_fract_z
Si Si1 0.250000 0.250000 0.750000
Si Si2 0.419371 0.690692 0.531912
Si Si3 0.250000 0.250000 0.250000
Si Si4 0.165685 0.410479 0.941317
Si Si5 0.750000 0.750000 0.914031
Si Si6 0.002992 0.794547 0.329658
Si Si7 0.697959 0.996162 0.670393
O O1 0.186459 0.380618 0.786444
O O2 0.250000 0.750000 0.548167
O O3 0.451945 0.734494 0.474918
O O4 0.400970 0.509001 0.540560
O O5 0.584626 0.734709 0.557655
O O6 0.376280 0.324843 0.214421
O O7 0.250000 0.250000 0.951644
O O8 0.168125 0.439613 0.883553
O O9 0.601477 0.727023 0.878900
O O10 0.148744 0.903932 0.320189
O O11 0.059652 0.617424 0.332316
#
# Coordination Sequence:
#
# PCOD9545054 Si02
#       7
#     2   8   2   8   4   8   8
#     4  12  24  38  64  94 132 158 236 276 328 402
#     4  11  26  42  68 101 134 177 225 278 336 412
#     4  10  20  44  64  90 116 176 220 274 320 402
#     4  11  24  44  63  95 136 173 222 272 336 409
#     4  11  22  44  64 100 134 170 230 275 328 420
#     4  11  23  40  62  96 126 173 213 277 335 395
#     4  10  23  40  67  86 131 170 218 265 340 391
#
# _framework density 19.564610999999999
#
# number of rings (size 3 to 8) (size 9 to 14) (size 15 to 20)
#    0.000    1.200    4.000    1.200    5.600    0.800 
#    0.000    0.000    0.000    0.000    0.000    0.000 
#    0.000    0.000    0.000    0.000    0.000    0.000 
#
# Total GULP energy -223119.533874 kJ/mol
# GULP energy per Si atom -5577.988347 kJ/mol
# Density = 1.952008 g / cm^3
# Si number density = 19.564611 Si / 1000 Ang^3
#
#
#
# Elastic Constant Matrix: (Units=GPa)
#
#
# Indices 1 2 3 4 5 6 
#
# 1 71.5787 3.8079 19.3963 0.0000 0.0000 2.2537
# 2 3.8079 71.5787 19.3963 0.0000 0.0000 -2.2537
# 3 19.3963 19.3963 114.4401 0.0000 0.0000 0.0000
# 4 0.0000 0.0000 0.0000 20.5809 0.0000 0.0000
# 5 0.0000 0.0000 0.0000 0.0000 20.5809 0.0000
# 6 2.2537 -2.2537 0.0000 0.0000 0.0000 29.7532
#
#
#
# Elastic Compliance Matrix: (Units=1/GPa)
#
#
# Indices 1 2 3 4 5 6 
#
# 1 0.014681 -0.000149 -0.002463 0.000000 0.000000 -0.001123
# 2 -0.000149 0.014681 -0.002463 0.000000 0.000000 0.001123
# 3 -0.002463 -0.002463 0.009573 0.000000 0.000000 0.000000
# 4 0.000000 0.000000 0.000000 0.048589 0.000000 0.000000
# 5 0.000000 0.000000 0.000000 0.000000 0.048589 0.000000
# 6 -0.001123 0.001123 0.000000 0.000000 0.000000 0.033780
#
#
# Mechanical properties :
#
#
# Convention : Reuss Voigt Hill
#
# Bulk Modulus (GPa) = 34.73957 38.08874 36.41415
# Shear Modulus (GPa) = 26.36594 28.51615 27.44104
#
# Velocity S-wave (km/s) = 3.67500 3.82191 3.74917
# Velocity P-wave (km/s) = 5.98351 6.24391 6.11510
#
# Compressibility (1/GPa) = 0.02878562
#
# Stress axis : x y z
#
# Youngs Moduli (GPa) = 68.11355 68.11355 104.45904
#
# Poissons Ratio (x) = 0.01015 0.25729
# Poissons Ratio (y) = 0.01015 0.25729
# Poissons Ratio (z) = 0.16777 0.16777
#
# Static dielectric constant tensor:
#      x y z
#    x 1.693980 0.000000 0.000000 
#    y 0.000000 1.693980 0.000000 
#    z 0.000000 0.000000 1.694150 
# 
# From -- ./inp_files/4885.got.cif
#   From: 2010.05.17/outbox.cif.g08.bks.cpg/sg86_3_cif.got.tgz:4885.got - 2010.06.03 19:03:11.
