data_PCOD9545955
_publ_section_title
;
Structure prediction by ZEFSAII (Michael W. Deem and Ramdas Pophale) SiO2 
 PCOD9545955
Probable space group: I 4/M
;
_chemical_formula_sum "Si O2"
_cell_formula_units_Z 60
_cell_length_a 10.622937
_cell_length_b 10.622937
_cell_length_c 20.768521
_cell_angle_alpha 90.000000
_cell_angle_beta 90.000000
_cell_angle_gamma 90.000000
_cell_volume 2343.660938
_symmetry_space_group_name_H-M "I 4/M"
_symmetry_group_IT_number 87
_symmetry_cell_setting 'tetragonal'
loop_
_space_group_symop_operation_xyz
x,y,z
-y,x,z
-x,-y,z
y,-x,z
-x,-y,-z
y,-x,-z
x,y,-z
-y,x,-z
1/2+x,1/2+y,1/2+z
1/2-y,1/2+x,1/2+z
1/2-x,1/2-y,1/2+z
1/2+y,1/2-x,1/2+z
1/2-x,1/2-y,1/2-z
1/2+y,1/2-x,1/2-z
1/2+x,1/2+y,1/2-z
1/2-y,1/2+x,1/2-z
loop_
_atom_site_type_symbol
_atom_site_label
_atom_site_fract_x
_atom_site_fract_y
_atom_site_fract_z
Si Si1 0.500000 0.500000 0.274802
Si Si2 0.487680 0.289027 0.000000
Si Si3 0.688564 0.935704 0.630794
Si Si4 0.295941 0.548665 0.422611
Si Si5 0.281700 0.625455 0.786722
O O1 0.647804 0.465743 0.262737
O O2 0.615264 0.372057 0.000000
O O3 0.493026 0.207075 0.936374
O O4 0.591067 0.825319 0.616633
O O5 0.822210 0.871724 0.654684
O O6 0.669564 0.043983 0.683176
O O7 0.354594 0.411438 0.408739
O O8 0.271618 0.554989 0.500000
O O9 0.250000 0.750000 0.750000
#
# Coordination Sequence:
#
# PCOD9545955 Si02
#       5
#     4   8  16  16  16
#     4   8  20  44  76  89 128 189 248 304 376 446
#     4  11  20  32  68 113 144 180 240 317 404 484
#     4  11  20  39  69 101 145 186 248 324 386 464
#     4   9  19  38  64  99 148 203 251 304 392 487
#     4  10  22  41  67  99 139 195 252 308 383 474
#
# _framework density 25.600971000000001
#
# number of rings (size 3 to 8) (size 9 to 14) (size 15 to 20)
#    0.000    2.000    4.000    0.800    0.000    0.000 
#    9.600    1.333   23.467    4.800    0.000    0.000 
#    0.000    0.000    0.000    0.000    0.000    0.000 
#
# Total GULP energy -167392.886143 kJ/mol
# GULP energy per Si atom -5579.762871 kJ/mol
# Density = 2.554270 g / cm^3
# Si number density = 25.600971 Si / 1000 Ang^3
#
#
#
# Elastic Constant Matrix: (Units=GPa)
#
#
# Indices 1 2 3 4 5 6 
#
# 1 103.6302 48.7153 45.7221 0.0000 0.0000 -1.8998
# 2 48.7153 103.6302 45.7221 0.0000 0.0000 1.8998
# 3 45.7221 45.7221 105.8401 0.0000 0.0000 0.0000
# 4 0.0000 0.0000 0.0000 40.8097 0.0000 0.0000
# 5 0.0000 0.0000 0.0000 0.0000 40.8097 0.0000
# 6 -1.8998 1.8998 0.0000 0.0000 0.0000 10.5268
#
#
#
# Elastic Compliance Matrix: (Units=1/GPa)
#
#
# Indices 1 2 3 4 5 6 
#
# 1 0.013651 -0.004789 -0.003828 0.000000 0.000000 0.003328
# 2 -0.004789 0.013651 -0.003828 0.000000 0.000000 -0.003328
# 3 -0.003828 -0.003828 0.012756 0.000000 0.000000 0.000000
# 4 0.000000 0.000000 0.000000 0.024504 0.000000 0.000000
# 5 0.000000 0.000000 0.000000 0.000000 0.024504 0.000000
# 6 0.003328 -0.003328 0.000000 0.000000 0.000000 0.096197
#
#
# Mechanical properties :
#
#
# Convention : Reuss Voigt Hill
#
# Bulk Modulus (GPa) = 65.93478 65.93553 65.93515
# Shear Modulus (GPa) = 23.23314 29.95862 26.59588
#
# Velocity S-wave (km/s) = 3.01576 3.42455 3.22664
# Velocity P-wave (km/s) = 6.15931 6.43799 6.30019
#
# Compressibility (1/GPa) = 0.01516650
#
# Stress axis : x y z
#
# Youngs Moduli (GPa) = 73.25418 73.25418 78.39579
#
# Poissons Ratio (x) = 0.35083 0.30012
# Poissons Ratio (y) = 0.35083 0.30012
# Poissons Ratio (z) = 0.28044 0.28044
#
# Static dielectric constant tensor:
#      x y z
#    x 2.048660 0.000000 0.000000 
#    y 0.000000 2.048660 0.000000 
#    z 0.000000 0.000000 2.183640 
# 
# From -- ./inp_files/5022.got.cif
#   From: 2010.05.17/outbox.cif.g08.bks.cpg/sg87_3_cif.got.tgz:5022.got - 2010.06.03 19:07:00.
