data_PCOD9545798
_publ_section_title
;
Structure prediction by ZEFSAII (Michael W. Deem and Ramdas Pophale) SiO2 
 PCOD9545798
Probable space group: I 4/M
;
_chemical_formula_sum "Si O2"
_cell_formula_units_Z 112
_cell_length_a 13.843561
_cell_length_b 13.843561
_cell_length_c 23.983635
_cell_angle_alpha 90.000000
_cell_angle_beta 90.000000
_cell_angle_gamma 90.000000
_cell_volume 4596.324091
_symmetry_space_group_name_H-M "I 4/M"
_symmetry_group_IT_number 87
_symmetry_cell_setting 'tetragonal'
loop_
_space_group_symop_operation_xyz
x,y,z
-y,x,z
-x,-y,z
y,-x,z
-x,-y,-z
y,-x,-z
x,y,-z
-y,x,-z
1/2+x,1/2+y,1/2+z
1/2-y,1/2+x,1/2+z
1/2-x,1/2-y,1/2+z
1/2+y,1/2-x,1/2+z
1/2-x,1/2-y,1/2-z
1/2+y,1/2-x,1/2-z
1/2+x,1/2+y,1/2-z
1/2-y,1/2+x,1/2-z
loop_
_atom_site_type_symbol
_atom_site_label
_atom_site_fract_x
_atom_site_fract_y
_atom_site_fract_z
Si Si1 0.629649 0.922093 0.731351
Si Si2 0.530504 0.286529 0.061251
Si Si3 0.941090 0.858709 0.331352
Si Si4 0.044408 0.151659 0.066886
Si Si5 0.081806 0.417129 0.437027
Si Si6 0.313530 0.169401 0.168592
Si Si7 0.189136 0.665229 0.379737
O O1 0.534892 0.882134 0.762412
O O2 0.709341 0.885147 0.774042
O O3 0.634173 0.884681 0.668818
O O4 0.467577 0.352199 0.102557
O O5 0.472304 0.185499 0.058396
O O6 0.632865 0.246666 0.084704
O O7 0.542595 0.327454 0.000000
O O8 0.886407 0.759929 0.320703
O O9 0.050625 0.877849 0.311229
O O10 0.080710 0.257003 0.086778
O O11 0.936792 0.116671 0.083768
O O12 0.046403 0.153156 0.000000
O O13 0.125710 0.433485 0.500000
O O14 0.145717 0.398419 0.381417
O O15 0.000000 0.500000 0.428732
O O16 0.218031 0.222574 0.149344
#
# Coordination Sequence:
#
# PCOD9545798 Si02
#       7
#    16  16  16  16  16  16  16
#     4  11  27  46  70  93 127 177 225 279 341 401
#     4  10  21  36  58  93 131 167 210 261 317 390
#     4  10  20  39  61  86 127 174 211 255 320 392
#     4   9  21  43  70 103 141 178 214 261 330 408
#     4   9  20  37  62  95 134 174 213 264 328 400
#     4  11  24  41  66  95 130 168 224 280 332 396
#     4  12  24  42  67  97 132 169 224 282 333 390
#
# _framework density 24.3673
#
# number of rings (size 3 to 8) (size 9 to 14) (size 15 to 20)
#    0.000    1.714    1.429    3.000    6.000    1.714 
#    0.000    3.571    0.000    1.714    0.000    0.000 
#    0.000    0.000    0.000    0.000    0.000    0.000 
#
# Total GULP energy -312798.830811 kJ/mol
# GULP energy per Si atom -5585.693407 kJ/mol
# Density = 2.431184 g / cm^3
# Si number density = 24.367300 Si / 1000 Ang^3
#
#
#
# Elastic Constant Matrix: (Units=GPa)
#
#
# Indices 1 2 3 4 5 6 
#
# 1 57.7970 34.2527 16.7801 0.0000 0.0000 10.1597
# 2 34.2527 57.7970 16.7801 0.0000 0.0000 -10.1597
# 3 16.7801 16.7801 74.3850 0.0000 0.0000 0.0000
# 4 0.0000 0.0000 0.0000 63.3562 0.0000 0.0000
# 5 0.0000 0.0000 0.0000 0.0000 63.3562 0.0000
# 6 10.1597 -10.1597 0.0000 0.0000 0.0000 39.2570
#
#
#
# Elastic Compliance Matrix: (Units=1/GPa)
#
#
# Indices 1 2 3 4 5 6 
#
# 1 0.033263 -0.021425 -0.002670 0.000000 0.000000 -0.014153
# 2 -0.021425 0.033263 -0.002670 0.000000 0.000000 0.014153
# 3 -0.002670 -0.002670 0.014648 0.000000 0.000000 0.000000
# 4 0.000000 0.000000 0.000000 0.015784 0.000000 0.000000
# 5 0.000000 0.000000 0.000000 0.000000 0.015784 0.000000
# 6 -0.014153 0.014153 0.000000 0.000000 0.000000 0.032799
#
#
# Mechanical properties :
#
#
# Convention : Reuss Voigt Hill
#
# Bulk Modulus (GPa) = 36.17734 36.17834 36.17784
# Shear Modulus (GPa) = 24.00552 41.33828 32.67190
#
# Velocity S-wave (km/s) = 3.14212 4.12329 3.66568
# Velocity P-wave (km/s) = 5.29554 6.12764 5.72672
#
# Compressibility (1/GPa) = 0.02764162
#
# Stress axis : x y z
#
# Youngs Moduli (GPa) = 30.06385 30.06385 68.26720
#
# Poissons Ratio (x) = 0.64413 0.18229
# Poissons Ratio (y) = 0.64413 0.18229
# Poissons Ratio (z) = 0.08028 0.08028
#
# Static dielectric constant tensor:
#      x y z
#    x 2.045040 0.000000 0.000000 
#    y 0.000000 2.045040 0.000000 
#    z 0.000000 0.000000 2.027460 
# 
# From -- ./inp_files/6290.got.cif
#   From: 2010.05.17/outbox.cif.g08.bks.cpg/sg87_4_cif.got.tgz:6290.got - 2010.06.03 19:07:00.
