data_PCOD9545694
_publ_section_title
;
Structure prediction by ZEFSAII (Michael W. Deem and Ramdas Pophale) SiO2 
 PCOD9545694
Probable space group: I 4/M
;
_chemical_formula_sum "Si O2"
_cell_formula_units_Z 104
_cell_length_a 24.962199
_cell_length_b 24.962199
_cell_length_c 9.676944
_cell_angle_alpha 90.000000
_cell_angle_beta 90.000000
_cell_angle_gamma 90.000000
_cell_volume 6029.813920
_symmetry_space_group_name_H-M "I 4/M"
_symmetry_group_IT_number 87
_symmetry_cell_setting 'tetragonal'
loop_
_space_group_symop_operation_xyz
x,y,z
-y,x,z
-x,-y,z
y,-x,z
-x,-y,-z
y,-x,-z
x,y,-z
-y,x,-z
1/2+x,1/2+y,1/2+z
1/2-y,1/2+x,1/2+z
1/2-x,1/2-y,1/2+z
1/2+y,1/2-x,1/2+z
1/2-x,1/2-y,1/2-z
1/2+y,1/2-x,1/2-z
1/2+x,1/2+y,1/2-z
1/2-y,1/2+x,1/2-z
loop_
_atom_site_type_symbol
_atom_site_label
_atom_site_fract_x
_atom_site_fract_y
_atom_site_fract_z
Si Si1 0.084093 0.035308 0.500000
Si Si2 0.633727 0.060638 0.342321
Si Si3 0.437168 0.345151 0.647177
Si Si4 0.359440 0.068391 0.662785
Si Si5 0.860830 0.939923 0.214283
Si Si6 0.449891 0.253932 0.161688
Si Si7 0.440481 0.757379 0.334836
O O1 0.119798 0.050101 0.369430
O O2 0.027636 0.067619 0.500000
O O3 0.615970 0.072681 0.500000
O O4 0.598021 0.090107 0.229873
O O5 0.696122 0.078013 0.329672
O O6 0.633168 0.996101 0.326205
O O7 0.427219 0.317307 0.500000
O O8 0.403553 0.399233 0.653237
O O9 0.500104 0.359503 0.653406
O O10 0.422260 0.306052 0.773758
O O11 0.352253 0.080161 0.500000
O O12 0.307668 0.084532 0.754364
O O13 0.801353 0.916142 0.193301
O O14 0.501819 0.248167 0.259627
O O15 0.464203 0.261956 0.000000
O O16 0.444254 0.766107 0.500000
#
# Coordination Sequence:
#
# PCOD9545694 Si02
#       7
#     8  16  16  16  16  16  16
#     4  11  22  36  48  76 106 146 182 221 277 329
#     4   9  19  36  54  79 113 140 170 211 256 306
#     4  11  22  35  50  74 105 138 177 222 273 319
#     4  10  21  35  56  84 109 142 177 211 255 310
#     4  11  22  33  52  74 103 138 180 221 270 323
#     4   9  19  34  53  76 102 137 179 218 257 311
#     4  10  20  34  52  75 104 139 176 220 268 308
#
# _framework density 17.247630999999998
#
# number of rings (size 3 to 8) (size 9 to 14) (size 15 to 20)
#    0.000    1.923    1.538    4.615    6.462    4.308 
#    0.000    2.308    0.000    0.923    0.000    0.000 
#    0.000    0.000    0.000    0.000    0.000    0.000 
#
# Total GULP energy -289646.816609 kJ/mol
# GULP energy per Si atom -5570.131089 kJ/mol
# Density = 1.720837 g / cm^3
# Si number density = 17.247631 Si / 1000 Ang^3
#
#
#
# Elastic Constant Matrix: (Units=GPa)
#
#
# Indices 1 2 3 4 5 6 
#
# 1 61.1176 32.3504 45.8897 0.0000 0.0000 -1.1074
# 2 32.3504 61.1176 45.8897 0.0000 0.0000 1.1074
# 3 45.8897 45.8897 171.3331 0.0000 0.0000 0.0000
# 4 0.0000 0.0000 0.0000 -1.9905 0.0000 0.0000
# 5 0.0000 0.0000 0.0000 0.0000 -1.9905 0.0000
# 6 -1.1074 1.1074 0.0000 0.0000 0.0000 -1.7861
#
#
#
# Elastic Compliance Matrix: (Units=1/GPa)
#
#
# Indices 1 2 3 4 5 6 
#
# 1 0.023847 -0.009331 -0.003888 0.000000 0.000000 -0.020571
# 2 -0.009331 0.023847 -0.003888 0.000000 0.000000 0.020571
# 3 -0.003888 -0.003888 0.007919 0.000000 0.000000 0.000000
# 4 0.000000 0.000000 0.000000 -0.502392 0.000000 0.000000
# 5 0.000000 0.000000 0.000000 0.000000 -0.502392 0.000000
# 6 -0.020571 0.020571 0.000000 0.000000 0.000000 -0.534367
#
#
# Mechanical properties :
#
#
# Convention : Reuss Voigt Hill
#
# Bulk Modulus (GPa) = 46.72837 60.20312 53.46574
# Shear Modulus (GPa) = -3.46695 10.14248 3.33777
#
# Velocity S-wave (km/s) = -1.41932 2.42761 1.39262
# Velocity P-wave (km/s) = 4.94626 6.54512 5.80104
#
# Compressibility (1/GPa) = 0.02140028
#
# Stress axis : x y z
#
# Youngs Moduli (GPa) = 41.93321 41.93321 126.27247
#
# Poissons Ratio (x) = 0.39127 0.49097
# Poissons Ratio (y) = 0.39127 0.49097
# Poissons Ratio (z) = 0.16304 0.16304
#
# Static dielectric constant tensor:
#      x y z
#    x 1.601980 0.000000 0.000000 
#    y 0.000000 1.601980 0.000000 
#    z 0.000000 0.000000 1.646380 
# 
# From -- ./inp_files/1636.got.cif
#   From: 2010.05.17/outbox.cif.g08.bks.cpg/sg87_1_cif.got.tgz:1636.got - 2010.06.03 19:07:00.
