data_PCOD9545815
_publ_section_title
;
Structure prediction by ZEFSAII (Michael W. Deem and Ramdas Pophale) SiO2 
 PCOD9545815
Probable space group: I 4/M
;
_chemical_formula_sum "Si O2"
_cell_formula_units_Z 96
_cell_length_a 20.223623
_cell_length_b 20.223623
_cell_length_c 13.823220
_cell_angle_alpha 90.000000
_cell_angle_beta 90.000000
_cell_angle_gamma 90.000000
_cell_volume 5653.626858
_symmetry_space_group_name_H-M "I 4/M"
_symmetry_group_IT_number 87
_symmetry_cell_setting 'tetragonal'
loop_
_space_group_symop_operation_xyz
x,y,z
-y,x,z
-x,-y,z
y,-x,z
-x,-y,-z
y,-x,-z
x,y,-z
-y,x,-z
1/2+x,1/2+y,1/2+z
1/2-y,1/2+x,1/2+z
1/2-x,1/2-y,1/2+z
1/2+y,1/2-x,1/2+z
1/2-x,1/2-y,1/2-z
1/2+y,1/2-x,1/2-z
1/2+x,1/2+y,1/2-z
1/2-y,1/2+x,1/2-z
loop_
_atom_site_type_symbol
_atom_site_label
_atom_site_fract_x
_atom_site_fract_y
_atom_site_fract_z
Si Si1 0.321740 0.676934 0.303864
Si Si2 0.269918 0.538252 0.243026
Si Si3 0.764835 0.790098 0.609235
Si Si4 0.769850 0.573836 0.612908
Si Si5 0.501792 0.389952 0.885213
Si Si6 0.321258 0.878863 0.390942
O O1 0.310541 0.599764 0.288767
O O2 0.252713 0.704079 0.349044
O O3 0.334804 0.710864 0.198383
O O4 0.378600 0.706188 0.371237
O O5 0.241809 0.489993 0.323403
O O6 0.322906 0.501716 0.174436
O O7 0.209196 0.567553 0.180541
O O8 0.754127 0.816507 0.500000
O O9 0.824230 0.737047 0.602204
O O10 0.776282 0.558914 0.500000
O O11 0.835301 0.615960 0.641669
O O12 0.564796 0.436860 0.864975
O O13 0.501651 0.376036 0.000000
O O14 0.332903 0.904278 0.500000
#
# Coordination Sequence:
#
# PCOD9545815 Si02
#       6
#    16  16  16  16  16  16
#     4   9  17  29  46  70  99 129 159 196 241 287
#     4  11  19  30  52  75  94 127 173 205 232 285
#     4   8  14  27  48  70  93 122 155 198 253 299
#     4  10  21  35  49  70 102 134 160 194 245 294
#     4   9  18  32  49  72 104 135 161 197 246 295
#     4   8  16  32  51  71  97 124 154 201 254 293
#
# _framework density 16.980250000000002
#
# number of rings (size 3 to 8) (size 9 to 14) (size 15 to 20)
#    0.000    2.833    0.000    4.500    0.000    2.000 
#    0.000    1.667    0.000    2.500    0.000    5.833 
#    0.000    0.000    0.000    0.000    0.000    0.000 
#
# Total GULP energy -267351.323580 kJ/mol
# GULP energy per Si atom -5569.819241 kJ/mol
# Density = 1.694160 g / cm^3
# Si number density = 16.980250 Si / 1000 Ang^3
#
#
#
# Elastic Constant Matrix: (Units=GPa)
#
#
# Indices 1 2 3 4 5 6 
#
# 1 59.4992 28.8956 45.0608 0.0000 0.0000 -0.1175
# 2 28.8956 59.4992 45.0608 0.0000 0.0000 0.1175
# 3 45.0608 45.0608 99.5108 0.0000 0.0000 0.0000
# 4 0.0000 0.0000 0.0000 18.9803 0.0000 0.0000
# 5 0.0000 0.0000 0.0000 0.0000 18.9803 0.0000
# 6 -0.1175 0.1175 0.0000 0.0000 0.0000 9.3825
#
#
#
# Elastic Compliance Matrix: (Units=1/GPa)
#
#
# Indices 1 2 3 4 5 6 
#
# 1 0.026847 -0.005832 -0.009516 0.000000 0.000000 0.000409
# 2 -0.005832 0.026847 -0.009516 0.000000 0.000000 -0.000409
# 3 -0.009516 -0.009516 0.018667 0.000000 0.000000 0.000000
# 4 0.000000 0.000000 0.000000 0.052686 0.000000 0.000000
# 5 0.000000 0.000000 0.000000 0.000000 0.052686 0.000000
# 6 0.000409 -0.000409 0.000000 0.000000 0.000000 0.106591
#
#
# Mechanical properties :
#
#
# Convention : Reuss Voigt Hill
#
# Bulk Modulus (GPa) = 44.18352 50.72707 47.45530
# Shear Modulus (GPa) = 14.63712 16.10142 15.36927
#
# Velocity S-wave (km/s) = 2.93918 3.08270 3.01180
# Velocity P-wave (km/s) = 6.13151 6.52761 6.33266
#
# Compressibility (1/GPa) = 0.02263287
#
# Stress axis : x y z
#
# Youngs Moduli (GPa) = 37.24828 37.24828 53.56981
#
# Poissons Ratio (x) = 0.21724 0.50977
# Poissons Ratio (y) = 0.21724 0.50977
# Poissons Ratio (z) = 0.35445 0.35445
#
# Static dielectric constant tensor:
#      x y z
#    x 1.580420 0.000000 0.000000 
#    y 0.000000 1.580420 0.000000 
#    z 0.000000 0.000000 1.617030 
# 
# From -- ./inp_files/3752.got.cif
#   From: 2010.05.17/outbox.cif.g08.bks.cpg/sg87_2_cif.got.tgz:3752.got - 2010.06.03 19:07:00.
