data_PCOD9545683
_publ_section_title
;
Structure prediction by ZEFSAII (Michael W. Deem and Ramdas Pophale) SiO2 
 PCOD9545683
Probable space group: I 4/M
;
_chemical_formula_sum "Si O2"
_cell_formula_units_Z 96
_cell_length_a 23.049466
_cell_length_b 23.049466
_cell_length_c 10.151466
_cell_angle_alpha 90.000000
_cell_angle_beta 90.000000
_cell_angle_gamma 90.000000
_cell_volume 5393.249365
_symmetry_space_group_name_H-M "I 4/M"
_symmetry_group_IT_number 87
_symmetry_cell_setting 'tetragonal'
loop_
_space_group_symop_operation_xyz
x,y,z
-y,x,z
-x,-y,z
y,-x,z
-x,-y,-z
y,-x,-z
x,y,-z
-y,x,-z
1/2+x,1/2+y,1/2+z
1/2-y,1/2+x,1/2+z
1/2-x,1/2-y,1/2+z
1/2+y,1/2-x,1/2+z
1/2-x,1/2-y,1/2-z
1/2+y,1/2-x,1/2-z
1/2+x,1/2+y,1/2-z
1/2-y,1/2+x,1/2-z
loop_
_atom_site_type_symbol
_atom_site_label
_atom_site_fract_x
_atom_site_fract_y
_atom_site_fract_z
Si Si1 0.525942 0.901635 0.500000
Si Si2 0.531705 0.279357 0.156392
Si Si3 0.832898 0.237565 0.348294
Si Si4 0.409966 0.975100 0.500000
Si Si5 0.957647 0.675298 0.256806
Si Si6 0.781548 0.333316 0.844089
Si Si7 0.593506 0.500291 0.160172
O O1 0.460595 0.926958 0.500000
O O2 0.539035 0.861863 0.625063
O O3 0.563738 0.960323 0.500000
O O4 0.601141 0.282598 0.167751
O O5 0.506179 0.225001 0.233784
O O6 0.504191 0.340098 0.201843
O O7 0.518062 0.271013 0.000000
O O8 0.826788 0.259652 0.500000
O O9 0.816936 0.286311 0.241551
O O10 0.785682 0.186363 0.333991
O O11 0.370193 0.967617 0.373455
O O12 0.896006 0.705653 0.284089
O O13 0.796740 0.332667 0.000000
O O14 0.556009 0.556670 0.200722
O O15 0.594206 0.500634 0.000000
#
# Coordination Sequence:
#
# PCOD9545683 Si02
#       7
#     8  16  16   8  16  16  16
#     4  11  28  42  64  85 117 156 193 250 300 357
#     4  10  20  33  54  85 115 151 190 237 286 345
#     4   9  21  37  58  81 115 155 192 233 290 344
#     4  11  24  48  62  85 113 154 201 244 304 349
#     4  12  24  38  64  89 118 150 198 245 293 353
#     4  10  21  38  57  85 115 154 190 236 289 344
#     4   8  15  28  49  79 115 152 187 235 289 337
#
# _framework density 17.800028999999999
#
# number of rings (size 3 to 8) (size 9 to 14) (size 15 to 20)
#    0.000    2.000    1.667    1.500    8.167    1.333 
#    0.000    0.000    0.000    0.000    0.000    0.000 
#    0.000    1.333    0.000    0.000    0.000    0.000 
#
# Total GULP energy -267857.517924 kJ/mol
# GULP energy per Si atom -5580.364957 kJ/mol
# Density = 1.775952 g / cm^3
# Si number density = 17.800029 Si / 1000 Ang^3
#
#
#
# Elastic Constant Matrix: (Units=GPa)
#
#
# Indices 1 2 3 4 5 6 
#
# 1 97.9637 39.9025 45.2725 0.0000 0.0000 -3.4058
# 2 39.9025 97.9637 45.2725 0.0000 0.0000 3.4058
# 3 45.2725 45.2725 99.4318 0.0000 0.0000 0.0000
# 4 0.0000 0.0000 0.0000 10.8426 0.0000 0.0000
# 5 0.0000 0.0000 0.0000 0.0000 10.8426 0.0000
# 6 -3.4058 3.4058 0.0000 0.0000 0.0000 12.0639
#
#
#
# Elastic Compliance Matrix: (Units=1/GPa)
#
#
# Indices 1 2 3 4 5 6 
#
# 1 0.014080 -0.003733 -0.004711 0.000000 0.000000 0.005029
# 2 -0.003733 0.014080 -0.004711 0.000000 0.000000 -0.005029
# 3 -0.004711 -0.004711 0.014347 0.000000 0.000000 0.000000
# 4 0.000000 0.000000 0.000000 0.092229 0.000000 0.000000
# 5 0.000000 0.000000 0.000000 0.000000 0.092229 0.000000
# 6 0.005029 -0.005029 0.000000 0.000000 0.000000 0.085731
#
#
# Mechanical properties :
#
#
# Convention : Reuss Voigt Hill
#
# Bulk Modulus (GPa) = 61.73927 61.80604 61.77266
# Shear Modulus (GPa) = 14.51767 17.74393 16.13080
#
# Velocity S-wave (km/s) = 2.85897 3.16072 3.01362
# Velocity P-wave (km/s) = 6.75711 6.93671 6.84750
#
# Compressibility (1/GPa) = 0.01619715
#
# Stress axis : x y z
#
# Youngs Moduli (GPa) = 71.02058 71.02058 69.69857
#
# Poissons Ratio (x) = 0.26510 0.32838
# Poissons Ratio (y) = 0.26510 0.32838
# Poissons Ratio (z) = 0.33461 0.33461
#
# Static dielectric constant tensor:
#      x y z
#    x 1.603020 0.000000 0.000000 
#    y 0.000000 1.603020 0.000000 
#    z 0.000000 0.000000 1.574560 
# 
# From -- ./inp_files/2801.got.cif
#   From: 2010.05.17/outbox.cif.g08.bks.cpg/sg87_2_cif.got.tgz:2801.got - 2010.06.03 19:07:00.
