data_PCOD9545284
_publ_section_title
;
Structure prediction by ZEFSAII (Michael W. Deem and Ramdas Pophale) SiO2 
 PCOD9545284
Probable space group: P 42/N
;
_chemical_formula_sum "Si O2"
_cell_formula_units_Z 60
_cell_length_a 11.194338
_cell_length_b 11.194338
_cell_length_c 23.481818
_cell_angle_alpha 90.000000
_cell_angle_beta 90.000000
_cell_angle_gamma 90.000000
_cell_volume 2942.581832
_symmetry_space_group_name_H-M "P 42/N"
_symmetry_group_IT_number 86
_space_group.IT_coordinate_system_code '2'
_symmetry_cell_setting 'tetragonal'
loop_
_space_group_symop_operation_xyz
x,y,z
-y,1/2+x,1/2+z
1/2-x,1/2-y,z
1/2+y,-x,1/2+z
-x,-y,-z
y,1/2-x,1/2-z
1/2+x,1/2+y,-z
1/2-y,x,1/2-z
loop_
_atom_site_type_symbol
_atom_site_label
_atom_site_fract_x
_atom_site_fract_y
_atom_site_fract_z
Si Si1 0.014391 0.126070 0.187637
Si Si2 0.926687 0.122864 0.374566
Si Si3 0.141818 0.010572 0.517216
Si Si4 0.852614 0.921418 0.164587
Si Si5 0.225087 0.990619 0.715786
Si Si6 0.250000 0.250000 0.924752
Si Si7 0.082837 0.694555 0.718338
Si Si8 0.794546 0.882246 0.592406
O O1 0.083344 0.211773 0.145038
O O2 0.954792 0.205090 0.236644
O O3 0.102751 0.027972 0.214816
O O4 0.915269 0.047941 0.154503
O O5 0.890121 0.031536 0.323590
O O6 0.899833 0.248800 0.344439
O O7 0.067157 0.123420 0.388285
O O8 0.853577 0.085468 0.431202
O O9 0.199534 0.134001 0.541815
O O10 0.208345 0.014363 0.456077
O O11 0.000000 0.000000 0.500000
O O12 0.775576 0.865186 0.115129
O O13 0.950378 0.819553 0.173827
O O14 0.794805 0.935597 0.227019
O O15 0.296243 0.872583 0.734649
O O16 0.750000 0.750000 0.573235
#
# Coordination Sequence:
#
# PCOD9545284 Si02
#       8
#     8   8   8   8   8   4   8   8
#     4  11  24  38  61 102 136 169 213 274 337 407
#     4  11  21  41  65  96 126 175 226 273 326 410
#     4  10  24  42  70  93 119 171 238 277 331 401
#     4  11  24  38  63  95 132 168 215 265 330 399
#     4  11  23  39  60  99 133 179 214 268 334 412
#     4  12  22  45  70  88 126 173 224 282 334 408
#     4  11  23  38  64  96 142 174 219 269 345 415
#     4  11  22  41  68  93 129 173 222 281 337 403
#
# _framework density 20.390256999999998
#
# number of rings (size 3 to 8) (size 9 to 14) (size 15 to 20)
#    0.000    1.067    4.667    2.000    1.867    1.067 
#    0.000    0.667   11.733    0.000    0.000    0.000 
#    0.000    0.000    0.000    0.000    0.000    0.000 
#
# Total GULP energy -334271.746007 kJ/mol
# GULP energy per Si atom -5571.195767 kJ/mol
# Density = 2.034385 g / cm^3
# Si number density = 20.390257 Si / 1000 Ang^3
#
#
#
# Elastic Constant Matrix: (Units=GPa)
#
#
# Indices 1 2 3 4 5 6 
#
# 1 81.9449 32.5138 32.9342 0.0000 0.0000 5.2970
# 2 32.5138 81.9449 32.9342 0.0000 0.0000 -5.2970
# 3 32.9342 32.9342 76.9602 0.0000 0.0000 0.0000
# 4 0.0000 0.0000 0.0000 8.3634 0.0000 0.0000
# 5 0.0000 0.0000 0.0000 0.0000 8.3634 0.0000
# 6 5.2970 -5.2970 0.0000 0.0000 0.0000 35.2213
#
#
#
# Elastic Compliance Matrix: (Units=1/GPa)
#
#
# Indices 1 2 3 4 5 6 
#
# 1 0.016248 -0.004656 -0.004960 0.000000 0.000000 -0.003144
# 2 -0.004656 0.016248 -0.004960 0.000000 0.000000 0.003144
# 3 -0.004960 -0.004960 0.017239 0.000000 0.000000 0.000000
# 4 0.000000 0.000000 0.000000 0.119569 0.000000 0.000000
# 5 0.000000 0.000000 0.000000 0.000000 0.119569 0.000000
# 6 -0.003144 0.003144 0.000000 0.000000 0.000000 0.029337
#
#
# Mechanical properties :
#
#
# Convention : Reuss Voigt Hill
#
# Bulk Modulus (GPa) = 48.58994 48.62382 48.60688
# Shear Modulus (GPa) = 14.11537 19.88747 17.00142
#
# Velocity S-wave (km/s) = 2.63394 3.12643 2.89069
# Velocity P-wave (km/s) = 5.75603 6.07710 5.91874
#
# Compressibility (1/GPa) = 0.02058039
#
# Stress axis : x y z
#
# Youngs Moduli (GPa) = 61.54733 61.54733 58.00728
#
# Poissons Ratio (x) = 0.28658 0.28774
# Poissons Ratio (y) = 0.28658 0.28774
# Poissons Ratio (z) = 0.30530 0.30530
#
# Static dielectric constant tensor:
#      x y z
#    x 1.544760 0.000000 0.000000 
#    y 0.000000 1.544760 0.000000 
#    z 0.000000 0.000000 1.752780 
# 
# From -- ./inp_files/4262.got.cif
#   From: 2010.05.17/outbox.cif.g08.bks.cpg/sg86_3_cif.got.tgz:4262.got - 2010.06.03 19:03:11.
