data_PCOD9545569
_publ_section_title
;
Structure prediction by ZEFSAII (Michael W. Deem and Ramdas Pophale) SiO2 
 PCOD9545569
Probable space group: I 4/M
;
_chemical_formula_sum "Si O2"
_cell_formula_units_Z 112
_cell_length_a 13.996138
_cell_length_b 13.996138
_cell_length_c 28.559180
_cell_angle_alpha 90.000000
_cell_angle_beta 90.000000
_cell_angle_gamma 90.000000
_cell_volume 5594.511430
_symmetry_space_group_name_H-M "I 4/M"
_symmetry_group_IT_number 87
_symmetry_cell_setting 'tetragonal'
loop_
_space_group_symop_operation_xyz
x,y,z
-y,x,z
-x,-y,z
y,-x,z
-x,-y,-z
y,-x,-z
x,y,-z
-y,x,-z
1/2+x,1/2+y,1/2+z
1/2-y,1/2+x,1/2+z
1/2-x,1/2-y,1/2+z
1/2+y,1/2-x,1/2+z
1/2-x,1/2-y,1/2-z
1/2+y,1/2-x,1/2-z
1/2+x,1/2+y,1/2-z
1/2-y,1/2+x,1/2-z
loop_
_atom_site_type_symbol
_atom_site_label
_atom_site_fract_x
_atom_site_fract_y
_atom_site_fract_z
Si Si1 0.613534 0.008184 0.347796
Si Si2 0.295942 0.782522 0.051263
Si Si3 0.351539 0.552763 0.711952
Si Si4 0.287033 0.830537 0.155244
Si Si5 0.374404 0.275865 0.190059
Si Si6 0.496167 0.115428 0.049441
Si Si7 0.374774 0.596617 0.910160
O O1 0.654914 0.901055 0.345135
O O2 0.500000 0.000000 0.340878
O O3 0.672422 0.076693 0.314403
O O4 0.637338 0.047344 0.400128
O O5 0.253160 0.814087 0.101495
O O6 0.397886 0.838766 0.049966
O O7 0.315158 0.669801 0.058494
O O8 0.250551 0.799868 0.000000
O O9 0.382294 0.444546 0.703594
O O10 0.265859 0.580874 0.678018
O O11 0.323337 0.577462 0.765166
O O12 0.265383 0.739605 0.188218
O O13 0.392333 0.340957 0.143709
O O14 0.500000 0.000000 0.049147
O O15 0.450475 0.144840 0.000000
O O16 0.370972 0.484074 0.918864
#
# Coordination Sequence:
#
# PCOD9545569 Si02
#       7
#    16  16  16  16  16  16  16
#     4  10  21  37  59  91 125 161 204 255 314 360
#     4   9  18  33  53  79 113 153 196 246 303 362
#     4  11  24  41  65  88 114 157 208 255 309 377
#     4  10  22  39  60  87 124 160 202 256 310 360
#     4  11  21  38  61  87 125 164 202 245 302 371
#     4   8  14  28  51  77 110 154 201 247 292 351
#     4  10  19  31  51  81 122 167 205 238 285 354
#
# _framework density 20.019621999999998
#
# number of rings (size 3 to 8) (size 9 to 14) (size 15 to 20)
#    0.000    2.143    0.000    4.714    2.000    1.714 
#    0.000    5.000    0.000    0.857    0.000    1.000 
#    0.000    0.000    0.000    0.000    0.000    0.000 
#
# Total GULP energy -312288.845283 kJ/mol
# GULP energy per Si atom -5576.586523 kJ/mol
# Density = 1.997406 g / cm^3
# Si number density = 20.019622 Si / 1000 Ang^3
#
#
#
# Elastic Constant Matrix: (Units=GPa)
#
#
# Indices 1 2 3 4 5 6 
#
# 1 57.6189 23.8262 3.7643 0.0000 0.0000 -10.2489
# 2 23.8262 57.6189 3.7643 0.0000 0.0000 10.2489
# 3 3.7643 3.7643 42.9630 0.0000 0.0000 0.0000
# 4 0.0000 0.0000 0.0000 -11.2911 0.0000 0.0000
# 5 0.0000 0.0000 0.0000 0.0000 -11.2911 0.0000
# 6 -10.2489 10.2489 0.0000 0.0000 0.0000 24.3866
#
#
#
# Elastic Compliance Matrix: (Units=1/GPa)
#
#
# Indices 1 2 3 4 5 6 
#
# 1 0.026048 -0.013669 -0.001085 0.000000 0.000000 0.016692
# 2 -0.013669 0.026048 -0.001085 0.000000 0.000000 -0.016692
# 3 -0.001085 -0.001085 0.023466 0.000000 0.000000 0.000000
# 4 0.000000 0.000000 0.000000 -0.088565 0.000000 0.000000
# 5 0.000000 0.000000 0.000000 0.000000 -0.088565 0.000000
# 6 0.016692 -0.016692 0.000000 0.000000 0.000000 0.055036
#
#
# Mechanical properties :
#
#
# Convention : Reuss Voigt Hill
#
# Bulk Modulus (GPa) = 22.78704 24.54558 23.66631
# Shear Modulus (GPa) = -21868.91139 8.81729 -10930.04705
#
# Velocity S-wave (km/s) = -104.63008 2.10092 -73.96972
# Velocity P-wave (km/s) = 120.76919 4.26293 85.34350
#
# Compressibility (1/GPa) = 0.04388460
#
# Stress axis : x y z
#
# Youngs Moduli (GPa) = 38.39123 38.39123 42.61500
#
# Poissons Ratio (x) = 0.52478 0.04622
# Poissons Ratio (y) = 0.52478 0.04622
# Poissons Ratio (z) = 0.04164 0.04164
#
# Static dielectric constant tensor:
#      x y z
#    x 1.710510 0.000000 0.000000 
#    y 0.000000 1.710510 0.000000 
#    z 0.000000 0.000000 1.743580 
# 
# From -- ./inp_files/6266.got.cif
#   From: 2010.05.17/outbox.cif.g08.bks.cpg/sg87_4_cif.got.tgz:6266.got - 2010.06.03 19:07:00.
