data_PCOD9545913
_publ_section_title
;
Structure prediction by ZEFSAII (Michael W. Deem and Ramdas Pophale) SiO2 
 PCOD9545913
Probable space group: I 4/M
;
_chemical_formula_sum "Si O2"
_cell_formula_units_Z 80
_cell_length_a 13.484586
_cell_length_b 13.484586
_cell_length_c 21.494112
_cell_angle_alpha 90.000000
_cell_angle_beta 90.000000
_cell_angle_gamma 90.000000
_cell_volume 3908.361642
_symmetry_space_group_name_H-M "I 4/M"
_symmetry_group_IT_number 87
_symmetry_cell_setting 'tetragonal'
loop_
_space_group_symop_operation_xyz
x,y,z
-y,x,z
-x,-y,z
y,-x,z
-x,-y,-z
y,-x,-z
x,y,-z
-y,x,-z
1/2+x,1/2+y,1/2+z
1/2-y,1/2+x,1/2+z
1/2-x,1/2-y,1/2+z
1/2+y,1/2-x,1/2+z
1/2-x,1/2-y,1/2-z
1/2+y,1/2-x,1/2-z
1/2+x,1/2+y,1/2-z
1/2-y,1/2+x,1/2-z
loop_
_atom_site_type_symbol
_atom_site_label
_atom_site_fract_x
_atom_site_fract_y
_atom_site_fract_z
Si Si1 0.134498 0.411104 0.113407
Si Si2 0.657797 0.826562 0.747228
Si Si3 0.204149 0.829828 0.930335
Si Si4 0.550062 0.654748 0.309310
Si Si5 0.599742 0.129414 0.385645
O O1 0.159788 0.395617 0.186399
O O2 0.190056 0.321819 0.078544
O O3 0.150473 0.525174 0.094767
O O4 0.017210 0.387459 0.103927
O O5 0.750000 0.750000 0.750000
O O6 0.570758 0.748881 0.732445
O O7 0.642477 0.880959 0.811951
O O8 0.179753 0.915435 0.879830
O O9 0.143942 0.728811 0.916070
O O10 0.183341 0.863419 0.000000
O O11 0.439469 0.619680 0.297321
#
# Coordination Sequence:
#
# PCOD9545913 Si02
#       5
#    16  16  16  16  16
#     4  10  23  38  60  92 119 151 195 244 293 348
#     4  11  20  33  58  87 116 151 184 229 285 352
#     4  11  23  39  59  82 114 156 199 246 297 346
#     4  10  22  37  55  84 119 152 190 236 289 351
#     4  11  22  39  62  88 120 153 195 244 293 352
#
# _framework density 20.468934999999998
#
# number of rings (size 3 to 8) (size 9 to 14) (size 15 to 20)
#    0.000    1.400    4.000    3.600    2.800    5.600 
#    0.000    3.000    0.000    0.600    0.000    1.400 
#    0.000    0.000    0.000    0.000    0.000    0.000 
#
# Total GULP energy -223377.649822 kJ/mol
# GULP energy per Si atom -5584.441246 kJ/mol
# Density = 2.042235 g / cm^3
# Si number density = 20.468935 Si / 1000 Ang^3
#
#
#
# Elastic Constant Matrix: (Units=GPa)
#
#
# Indices 1 2 3 4 5 6 
#
# 1 75.3243 23.1991 -0.8249 0.0000 0.0000 3.0707
# 2 23.1991 75.3243 -0.8249 0.0000 0.0000 -3.0707
# 3 -0.8249 -0.8249 39.4281 0.0000 0.0000 0.0000
# 4 0.0000 0.0000 0.0000 5.9236 0.0000 0.0000
# 5 0.0000 0.0000 0.0000 0.0000 5.9236 0.0000
# 6 3.0707 -3.0707 0.0000 0.0000 0.0000 31.9870
#
#
#
# Elastic Compliance Matrix: (Units=1/GPa)
#
#
# Indices 1 2 3 4 5 6 
#
# 1 0.014779 -0.004625 0.000212 0.000000 0.000000 -0.001863
# 2 -0.004625 0.014779 0.000212 0.000000 0.000000 0.001863
# 3 0.000212 0.000212 0.025371 0.000000 0.000000 0.000000
# 4 0.000000 0.000000 0.000000 0.168817 0.000000 0.000000
# 5 0.000000 0.000000 0.000000 0.000000 0.168817 0.000000
# 6 -0.001863 0.001863 0.000000 0.000000 0.000000 0.031620
#
#
# Mechanical properties :
#
#
# Convention : Reuss Voigt Hill
#
# Bulk Modulus (GPa) = 21.49243 25.90839 23.70041
# Shear Modulus (GPa) = 11.15838 20.00198 15.58018
#
# Velocity S-wave (km/s) = 2.33735 3.12939 2.76191
# Velocity P-wave (km/s) = 4.21984 5.07369 4.66634
#
# Compressibility (1/GPa) = 0.04652802
#
# Stress axis : x y z
#
# Youngs Moduli (GPa) = 67.66478 67.66478 39.41432
#
# Poissons Ratio (x) = 0.31297 -0.00837
# Poissons Ratio (y) = 0.31297 -0.00837
# Poissons Ratio (z) = -0.01437 -0.01437
#
# Static dielectric constant tensor:
#      x y z
#    x 1.774230 0.000000 0.000000 
#    y 0.000000 1.774230 0.000000 
#    z 0.000000 0.000000 1.725280 
# 
# From -- ./inp_files/5105.got.cif
#   From: 2010.05.17/outbox.cif.g08.bks.cpg/sg87_3_cif.got.tgz:5105.got - 2010.06.03 19:07:00.
