data_PCOD9545594
_publ_section_title
;
Structure prediction by ZEFSAII (Michael W. Deem and Ramdas Pophale) SiO2 
 PCOD9545594
Probable space group: I 4/M
;
_chemical_formula_sum "Si O2"
_cell_formula_units_Z 80
_cell_length_a 15.939885
_cell_length_b 15.939885
_cell_length_c 19.196125
_cell_angle_alpha 90.000000
_cell_angle_beta 90.000000
_cell_angle_gamma 90.000000
_cell_volume 4877.350169
_symmetry_space_group_name_H-M "I 4/M"
_symmetry_group_IT_number 87
_symmetry_cell_setting 'tetragonal'
loop_
_space_group_symop_operation_xyz
x,y,z
-y,x,z
-x,-y,z
y,-x,z
-x,-y,-z
y,-x,-z
x,y,-z
-y,x,-z
1/2+x,1/2+y,1/2+z
1/2-y,1/2+x,1/2+z
1/2-x,1/2-y,1/2+z
1/2+y,1/2-x,1/2+z
1/2-x,1/2-y,1/2-z
1/2+y,1/2-x,1/2-z
1/2+x,1/2+y,1/2-z
1/2-y,1/2+x,1/2-z
loop_
_atom_site_type_symbol
_atom_site_label
_atom_site_fract_x
_atom_site_fract_y
_atom_site_fract_z
Si Si1 0.441282 0.879304 0.758230
Si Si2 0.234168 0.311651 0.316650
Si Si3 0.962708 0.214053 0.650326
Si Si4 0.356078 0.307699 0.919194
Si Si5 0.070557 0.881363 0.793631
O O1 0.530776 0.900855 0.722878
O O2 0.375751 0.838352 0.705457
O O3 0.453803 0.808574 0.818257
O O4 0.250000 0.250000 0.250000
O O5 0.205633 0.257460 0.381595
O O6 0.314130 0.370074 0.330073
O O7 0.897336 0.188953 0.590772
O O8 0.934803 0.152293 0.713754
O O9 0.056157 0.197521 0.623065
O O10 0.370804 0.289957 0.000000
O O11 0.971926 0.889751 0.808496
#
# Coordination Sequence:
#
# PCOD9545594 Si02
#       5
#    16  16  16  16  16
#     4  10  20  33  58  85 109 141 183 240 287 316
#     4  11  20  34  57  80 110 146 193 234 268 328
#     4  11  20  36  54  81 119 149 185 216 273 349
#     4  12  24  37  54  82 119 159 183 223 279 342
#     4  10  19  32  57  86 113 137 179 237 284 320
#
# _framework density 16.402349000000001
#
# number of rings (size 3 to 8) (size 9 to 14) (size 15 to 20)
#    0.000    1.200    8.000    0.600    2.800    0.400 
#    0.000    1.000    0.000    7.200    0.000    1.400 
#    0.000    0.000    0.000    0.000    0.000    0.000 
#
# Total GULP energy -222759.234705 kJ/mol
# GULP energy per Si atom -5568.980868 kJ/mol
# Density = 1.636502 g / cm^3
# Si number density = 16.402349 Si / 1000 Ang^3
#
#
#
# Elastic Constant Matrix: (Units=GPa)
#
#
# Indices 1 2 3 4 5 6 
#
# 1 97.2040 73.5680 26.3499 0.0000 0.0000 7.2587
# 2 73.5680 97.2040 26.3499 0.0000 0.0000 -7.2587
# 3 26.3499 26.3499 53.4143 0.0000 0.0000 0.0000
# 4 0.0000 0.0000 0.0000 12.8553 0.0000 0.0000
# 5 0.0000 0.0000 0.0000 0.0000 12.8553 0.0000
# 6 7.2587 -7.2587 0.0000 0.0000 0.0000 35.1926
#
#
#
# Elastic Compliance Matrix: (Units=1/GPa)
#
#
# Indices 1 2 3 4 5 6 
#
# 1 0.027676 -0.020769 -0.003407 0.000000 0.000000 -0.009992
# 2 -0.020769 0.027676 -0.003407 0.000000 0.000000 0.009992
# 3 -0.003407 -0.003407 0.022083 0.000000 0.000000 0.000000
# 4 0.000000 0.000000 0.000000 0.077789 0.000000 0.000000
# 5 0.000000 0.000000 0.000000 0.000000 0.077789 0.000000
# 6 -0.009992 0.009992 0.000000 0.000000 0.000000 0.032537
#
#
# Mechanical properties :
#
#
# Convention : Reuss Voigt Hill
#
# Bulk Modulus (GPa) = 44.90703 55.59532 50.25117
# Shear Modulus (GPa) = 15.23730 20.28427 17.76078
#
# Velocity S-wave (km/s) = 3.05121 3.52044 3.29419
# Velocity P-wave (km/s) = 6.31277 7.10584 6.72101
#
# Compressibility (1/GPa) = 0.02226823
#
# Stress axis : x y z
#
# Youngs Moduli (GPa) = 36.13185 36.13185 45.28284
#
# Poissons Ratio (x) = 0.75043 0.15430
# Poissons Ratio (y) = 0.75043 0.15430
# Poissons Ratio (z) = 0.12312 0.12312
#
# Static dielectric constant tensor:
#      x y z
#    x 1.579280 0.000000 0.000000 
#    y 0.000000 1.579280 0.000000 
#    z 0.000000 0.000000 1.524170 
# 
# From -- ./inp_files/3519.got.cif
#   From: 2010.05.17/outbox.cif.g08.bks.cpg/sg87_2_cif.got.tgz:3519.got - 2010.06.03 19:07:00.
