data_PCOD9545748
_publ_section_title
;
Structure prediction by ZEFSAII (Michael W. Deem and Ramdas Pophale) SiO2 
 PCOD9545748
Probable space group: I 4/M
;
_chemical_formula_sum "Si O2"
_cell_formula_units_Z 96
_cell_length_a 24.001334
_cell_length_b 24.001334
_cell_length_c 9.325658
_cell_angle_alpha 90.000000
_cell_angle_beta 90.000000
_cell_angle_gamma 90.000000
_cell_volume 5372.176165
_symmetry_space_group_name_H-M "I 4/M"
_symmetry_group_IT_number 87
_symmetry_cell_setting 'tetragonal'
loop_
_space_group_symop_operation_xyz
x,y,z
-y,x,z
-x,-y,z
y,-x,z
-x,-y,-z
y,-x,-z
x,y,-z
-y,x,-z
1/2+x,1/2+y,1/2+z
1/2-y,1/2+x,1/2+z
1/2-x,1/2-y,1/2+z
1/2+y,1/2-x,1/2+z
1/2-x,1/2-y,1/2-z
1/2+y,1/2-x,1/2-z
1/2+x,1/2+y,1/2-z
1/2-y,1/2+x,1/2-z
loop_
_atom_site_type_symbol
_atom_site_label
_atom_site_fract_x
_atom_site_fract_y
_atom_site_fract_z
Si Si1 0.811352 0.684142 0.671220
Si Si2 0.900969 0.381863 0.340934
Si Si3 0.492986 0.727441 0.333564
Si Si4 0.359803 0.005867 0.155914
Si Si5 0.633642 0.306337 0.326383
Si Si6 0.390051 0.289408 0.173475
O O1 0.810798 0.685203 0.500000
O O2 0.843127 0.630491 0.729843
O O3 0.747165 0.672678 0.715584
O O4 0.849498 0.736950 0.716806
O O5 0.898952 0.357410 0.500000
O O6 0.963243 0.389124 0.285575
O O7 0.871272 0.440845 0.341606
O O8 0.504297 0.711286 0.500000
O O9 0.485803 0.794018 0.331135
O O10 0.431894 0.703743 0.292765
O O11 0.547473 0.714976 0.237683
O O12 0.378564 0.027689 0.000000
O O13 0.637861 0.312469 0.500000
O O14 0.657762 0.359052 0.242629
O O15 0.391959 0.291300 0.000000
#
# Coordination Sequence:
#
# PCOD9545748 Si02
#       6
#    16  16  16  16  16  16
#     4  10  20  36  56  83 118 152 185 228 282 335
#     4  11  22  34  55  81 106 147 195 241 284 328
#     4  10  20  38  61  81 110 153 191 226 275 339
#     4  10  21  38  55  76 110 149 193 239 282 331
#     4  10  21  38  60  83 113 154 192 228 274 335
#     4  11  23  36  57  89 121 149 182 234 285 331
#
# _framework density 17.869854
#
# number of rings (size 3 to 8) (size 9 to 14) (size 15 to 20)
#    0.000    1.667    3.333    1.500    0.000    4.333 
#    0.000    1.667    0.000    0.500    0.000    3.500 
#    0.000    0.000    0.000    0.000    0.000    0.000 
#
# Total GULP energy -267505.833668 kJ/mol
# GULP energy per Si atom -5573.038201 kJ/mol
# Density = 1.782918 g / cm^3
# Si number density = 17.869854 Si / 1000 Ang^3
#
#
#
# Elastic Constant Matrix: (Units=GPa)
#
#
# Indices 1 2 3 4 5 6 
#
# 1 -65.3117 188.9894 36.5618 0.0000 0.0000 91.3512
# 2 188.9894 -65.3117 36.5618 0.0000 0.0000 -91.3512
# 3 36.5618 36.5618 10.3148 0.0000 0.0000 0.0000
# 4 0.0000 0.0000 0.0000 24.1876 0.0000 0.0000
# 5 0.0000 0.0000 0.0000 0.0000 24.1876 0.0000
# 6 91.3512 -91.3512 0.0000 0.0000 0.0000 -29.3981
#
#
#
# Elastic Compliance Matrix: (Units=1/GPa)
#
#
# Indices 1 2 3 4 5 6 
#
# 1 -0.002094 -0.005285 0.026156 0.000000 0.000000 0.009914
# 2 -0.005285 -0.002094 0.026156 0.000000 0.000000 -0.009914
# 3 0.026156 0.026156 -0.088479 0.000000 0.000000 0.000000
# 4 0.000000 0.000000 0.000000 0.041343 0.000000 0.000000
# 5 0.000000 0.000000 0.000000 0.000000 0.041343 0.000000
# 6 0.009914 -0.009914 0.000000 0.000000 0.000000 0.027599
#
#
# Mechanical properties :
#
#
# Convention : Reuss Voigt Hill
#
# Bulk Modulus (GPa) = 720.53824 44.87969 382.70897
# Shear Modulus (GPa) = -65.81186 -21.69935 -43.75560
#
# Velocity S-wave (km/s) = -6.07523 -3.48846 -4.95367
# Velocity P-wave (km/s) = 18.83822 2.99056 13.48744
#
# Compressibility (1/GPa) = 0.00138785
#
# Stress axis : x y z
#
# Youngs Moduli (GPa) = -477.48408 -477.48408 -11.30214
#
# Poissons Ratio (x) = -2.52344 0.29562
# Poissons Ratio (y) = -2.52344 0.29562
# Poissons Ratio (z) = 12.48919 12.48919
#
# Static dielectric constant tensor:
#      x y z
#    x 1.612660 0.000000 0.000000 
#    y 0.000000 1.612660 0.000000 
#    z 0.000000 0.000000 1.632050 
# 
# From -- ./inp_files/1367.got.cif
#   From: 2010.05.17/outbox.cif.g08.bks.cpg/sg87_1_cif.got.tgz:1367.got - 2010.06.03 19:07:00.
