data_PCOD9545974
_publ_section_title
;
Structure prediction by ZEFSAII (Michael W. Deem and Ramdas Pophale) SiO2 
 PCOD9545974
Probable space group: I 4/M
;
_chemical_formula_sum "Si O2"
_cell_formula_units_Z 88
_cell_length_a 12.260246
_cell_length_b 12.260246
_cell_length_c 32.750387
_cell_angle_alpha 90.000000
_cell_angle_beta 90.000000
_cell_angle_gamma 90.000000
_cell_volume 4922.829619
_symmetry_space_group_name_H-M "I 4/M"
_symmetry_group_IT_number 87
_symmetry_cell_setting 'tetragonal'
loop_
_space_group_symop_operation_xyz
x,y,z
-y,x,z
-x,-y,z
y,-x,z
-x,-y,-z
y,-x,-z
x,y,-z
-y,x,-z
1/2+x,1/2+y,1/2+z
1/2-y,1/2+x,1/2+z
1/2-x,1/2-y,1/2+z
1/2+y,1/2-x,1/2+z
1/2-x,1/2-y,1/2-z
1/2+y,1/2-x,1/2-z
1/2+x,1/2+y,1/2-z
1/2-y,1/2+x,1/2-z
loop_
_atom_site_type_symbol
_atom_site_label
_atom_site_fract_x
_atom_site_fract_y
_atom_site_fract_z
Si Si1 0.564061 0.671479 0.212020
Si Si2 0.771092 0.370043 0.869781
Si Si3 0.597344 0.222351 0.086809
Si Si4 0.049745 0.177774 0.193453
Si Si5 0.484562 0.124131 0.635052
Si Si6 0.829956 0.926972 0.500000
O O1 0.438654 0.634816 0.205881
O O2 0.604824 0.754752 0.178102
O O3 0.568956 0.707567 0.259016
O O4 0.689036 0.281939 0.886828
O O5 0.745412 0.481242 0.893892
O O6 0.895360 0.338747 0.877425
O O7 0.611269 0.094866 0.096460
O O8 0.600361 0.261809 0.040494
O O9 0.926744 0.129447 0.186883
O O10 0.062527 0.285058 0.165899
O O11 0.500000 0.000000 0.652319
O O12 0.944729 0.862044 0.500000
#
# Coordination Sequence:
#
# PCOD9545974 Si02
#       6
#    16  16  16  16  16   8
#     4   9  17  31  56  85 109 144 199 254 293 322
#     4  11  20  36  58  83 118 156 187 234 289 345
#     4  11  22  38  60  87 117 147 185 233 289 352
#     4   9  18  37  61  82 106 149 213 260 275 310
#     4  10  23  39  51  79 120 163 189 220 284 355
#     4  11  22  38  65  99 117 132 183 246 295 345
#
# _framework density 17.875899
#
# number of rings (size 3 to 8) (size 9 to 14) (size 15 to 20)
#    0.000    1.909    3.636    2.182    0.000    0.364 
#    6.545    7.727    0.000    0.000    0.000    0.000 
#    0.000    4.364    0.000    0.000    0.000    0.000 
#
# Total GULP energy -245445.370946 kJ/mol
# GULP energy per Si atom -5578.303885 kJ/mol
# Density = 1.783521 g / cm^3
# Si number density = 17.875899 Si / 1000 Ang^3
#
#
#
# Elastic Constant Matrix: (Units=GPa)
#
#
# Indices 1 2 3 4 5 6 
#
# 1 78.9431 35.5113 49.8981 0.0000 0.0000 9.3287
# 2 35.5113 78.9431 49.8981 0.0000 0.0000 -9.3287
# 3 49.8981 49.8981 107.2869 0.0000 0.0000 0.0000
# 4 0.0000 0.0000 0.0000 16.3244 0.0000 0.0000
# 5 0.0000 0.0000 0.0000 0.0000 16.3244 0.0000
# 6 9.3287 -9.3287 0.0000 0.0000 0.0000 11.5918
#
#
#
# Elastic Compliance Matrix: (Units=1/GPa)
#
#
# Indices 1 2 3 4 5 6 
#
# 1 0.024944 -0.010246 -0.006836 0.000000 0.000000 -0.028320
# 2 -0.010246 0.024944 -0.006836 0.000000 0.000000 0.028320
# 3 -0.006836 -0.006836 0.015679 0.000000 0.000000 0.000000
# 4 0.000000 0.000000 0.000000 0.061258 0.000000 0.000000
# 5 0.000000 0.000000 0.000000 0.000000 0.061258 0.000000
# 6 -0.028320 0.028320 0.000000 0.000000 0.000000 0.131849
#
#
# Mechanical properties :
#
#
# Convention : Reuss Voigt Hill
#
# Bulk Modulus (GPa) = 56.39720 59.53202 57.96461
# Shear Modulus (GPa) = 13.38055 17.50584 15.44319
#
# Velocity S-wave (km/s) = 2.73889 3.13277 2.94243
# Velocity P-wave (km/s) = 6.45134 6.81622 6.63629
#
# Compressibility (1/GPa) = 0.01773138
#
# Stress axis : x y z
#
# Youngs Moduli (GPa) = 40.09030 40.09030 63.77915
#
# Poissons Ratio (x) = 0.41078 0.43597
# Poissons Ratio (y) = 0.41078 0.43597
# Poissons Ratio (z) = 0.27404 0.27404
#
# Static dielectric constant tensor:
#      x y z
#    x 1.626810 0.000000 0.000000 
#    y 0.000000 1.626810 0.000000 
#    z 0.000000 0.000000 1.583260 
# 
# From -- ./inp_files/6580.got.cif
#   From: 2010.05.17/outbox.cif.g08.bks.cpg/sg87_4_cif.got.tgz:6580.got - 2010.06.03 19:07:00.
