data_PCOD9545836
_publ_section_title
;
Structure prediction by ZEFSAII (Michael W. Deem and Ramdas Pophale) SiO2 
 PCOD9545836
Probable space group: I 4/M
;
_chemical_formula_sum "Si O2"
_cell_formula_units_Z 96
_cell_length_a 14.759228
_cell_length_b 14.759228
_cell_length_c 18.937969
_cell_angle_alpha 90.000000
_cell_angle_beta 90.000000
_cell_angle_gamma 90.000000
_cell_volume 4125.348901
_symmetry_space_group_name_H-M "I 4/M"
_symmetry_group_IT_number 87
_symmetry_cell_setting 'tetragonal'
loop_
_space_group_symop_operation_xyz
x,y,z
-y,x,z
-x,-y,z
y,-x,z
-x,-y,-z
y,-x,-z
x,y,-z
-y,x,-z
1/2+x,1/2+y,1/2+z
1/2-y,1/2+x,1/2+z
1/2-x,1/2-y,1/2+z
1/2+y,1/2-x,1/2+z
1/2-x,1/2-y,1/2-z
1/2+y,1/2-x,1/2-z
1/2+x,1/2+y,1/2-z
1/2-y,1/2+x,1/2-z
loop_
_atom_site_type_symbol
_atom_site_label
_atom_site_fract_x
_atom_site_fract_y
_atom_site_fract_z
Si Si1 0.148049 0.967003 0.610513
Si Si2 0.548144 0.642990 0.722923
Si Si3 0.212929 0.379891 0.606966
Si Si4 0.565197 0.134772 0.246755
Si Si5 0.193775 0.578865 0.000000
Si Si6 0.727081 0.196445 0.177318
Si Si7 0.042328 0.853667 0.000000
O O1 0.168294 0.953390 0.693951
O O2 0.233369 0.951864 0.561500
O O3 0.066091 0.895646 0.597791
O O4 0.446598 0.609068 0.709593
O O5 0.600957 0.720779 0.681686
O O6 0.194295 0.419004 0.683937
O O7 0.122878 0.373791 0.561096
O O8 0.248185 0.275492 0.615629
O O9 0.289984 0.434938 0.566180
O O10 0.460927 0.113343 0.236068
O O11 0.620139 0.178913 0.181622
O O12 0.750000 0.250000 0.250000
O O13 0.940923 0.891996 0.000000
#
# Coordination Sequence:
#
# PCOD9545836 Si02
#       7
#    16  16  16  16   8  16   8
#     4   9  17  31  52  82 123 166 206 257 322 389
#     4   9  19  33  55  89 125 155 194 257 331 395
#     4  10  24  42  64  94 133 169 219 282 327 394
#     4  10  23  43  67  94 126 174 222 274 336 390
#     4  11  20  38  50  83 122 164 213 249 316 381
#     4  10  21  36  58  91 121 165 210 271 332 385
#     4  10  24  45  74 104 133 179 216 267 344 409
#
# _framework density 23.270759999999999
#
# number of rings (size 3 to 8) (size 9 to 14) (size 15 to 20)
#    0.000    2.250    0.000    3.500    7.000    0.667 
#    6.000    1.667    0.000    8.000    0.000    0.000 
#    0.000    0.000    0.000    0.000    0.000    0.000 
#
# Total GULP energy -267485.139518 kJ/mol
# GULP energy per Si atom -5572.607073 kJ/mol
# Density = 2.321779 g / cm^3
# Si number density = 23.270760 Si / 1000 Ang^3
#
#
#
# Elastic Constant Matrix: (Units=GPa)
#
#
# Indices 1 2 3 4 5 6 
#
# 1 90.3767 12.8012 9.2492 0.0000 0.0000 5.8750
# 2 12.8012 90.3767 9.2492 0.0000 0.0000 -5.8750
# 3 9.2492 9.2492 62.6542 0.0000 0.0000 0.0000
# 4 0.0000 0.0000 0.0000 23.4542 0.0000 0.0000
# 5 0.0000 0.0000 0.0000 0.0000 23.4543 0.0000
# 6 5.8750 -5.8750 0.0000 0.0000 0.0000 35.2817
#
#
#
# Elastic Compliance Matrix: (Units=1/GPa)
#
#
# Indices 1 2 3 4 5 6 
#
# 1 0.011590 -0.001634 -0.001470 0.000000 0.000000 -0.002202
# 2 -0.001634 0.011590 -0.001470 0.000000 0.000000 0.002202
# 3 -0.001470 -0.001470 0.016395 0.000000 0.000000 0.000000
# 4 0.000000 0.000000 0.000000 0.042636 0.000000 0.000000
# 5 0.000000 0.000000 0.000000 0.000000 0.042636 0.000000
# 6 -0.002202 0.002202 0.000000 0.000000 0.000000 0.029077
#
#
# Mechanical properties :
#
#
# Convention : Reuss Voigt Hill
#
# Bulk Modulus (GPa) = 32.86569 34.00075 33.43322
# Shear Modulus (GPa) = 28.86621 30.57858 29.72239
#
# Velocity S-wave (km/s) = 3.52582 3.62889 3.57773
# Velocity P-wave (km/s) = 5.54338 5.67461 5.60938
#
# Compressibility (1/GPa) = 0.03042687
#
# Stress axis : x y z
#
# Youngs Moduli (GPa) = 86.28243 86.28242 60.99597
#
# Poissons Ratio (x) = 0.14102 0.08964
# Poissons Ratio (y) = 0.14102 0.08964
# Poissons Ratio (z) = 0.12681 0.12681
#
# Static dielectric constant tensor:
#      x y z
#    x 1.912690 0.000000 0.000000 
#    y 0.000000 1.912690 0.000000 
#    z 0.000000 0.000000 1.892620 
# 
# From -- ./inp_files/5343.got.cif
#   From: 2010.05.17/outbox.cif.g08.bks.cpg/sg87_3_cif.got.tgz:5343.got - 2010.06.03 19:07:00.
