data_PCOD9545421
_publ_section_title
;
Structure prediction by ZEFSAII (Michael W. Deem and Ramdas Pophale) SiO2 
 PCOD9545421
Probable space group: P 42/N
;
_chemical_formula_sum "Si O2"
_cell_formula_units_Z 36
_cell_length_a 8.340773
_cell_length_b 8.340773
_cell_length_c 22.199606
_cell_angle_alpha 90.000000
_cell_angle_beta 90.000000
_cell_angle_gamma 90.000000
_cell_volume 1544.393162
_symmetry_space_group_name_H-M "P 42/N"
_symmetry_group_IT_number 86
_space_group.IT_coordinate_system_code '2'
_symmetry_cell_setting 'tetragonal'
loop_
_space_group_symop_operation_xyz
x,y,z
-y,1/2+x,1/2+z
1/2-x,1/2-y,z
1/2+y,-x,1/2+z
-x,-y,-z
y,1/2-x,1/2-z
1/2+x,1/2+y,-z
1/2-y,x,1/2-z
loop_
_atom_site_type_symbol
_atom_site_label
_atom_site_fract_x
_atom_site_fract_y
_atom_site_fract_z
Si Si1 0.393343 0.659344 0.218487
Si Si2 0.380920 0.111090 0.832300
Si Si3 0.750000 0.250000 0.975725
Si Si4 0.340589 0.467636 0.106338
Si Si5 0.340916 0.517046 0.420868
O O1 0.250000 0.750000 0.251638
O O2 0.531894 0.628758 0.266086
O O3 0.454888 0.789967 0.170259
O O4 0.343683 0.509699 0.177614
O O5 0.250000 0.250000 0.843473
O O6 0.387548 0.963499 0.877813
O O7 0.616897 0.163362 0.017556
O O8 0.651979 0.376527 0.935670
O O9 0.487930 0.345529 0.096520
O O10 0.167166 0.399693 0.085801
#
# Coordination Sequence:
#
# PCOD9545421 Si02
#       5
#     8   8   4   8   8
#     4  12  24  45  72 101 148 187 233 303 370 433
#     4  12  26  46  70 110 145 190 242 297 371 452
#     4  12  24  48  74 102 142 202 248 306 364 440
#     4  11  25  48  71 105 149 188 249 307 369 434
#     4  11  27  45  73 109 142 193 247 305 371 436
#
# _framework density 23.310127999999999
#
# number of rings (size 3 to 8) (size 9 to 14) (size 15 to 20)
#    0.000    0.444    5.556    1.333    7.778    0.000 
#    8.000    2.222    4.889    0.000    0.000    0.000 
#    0.000    0.000    0.000    0.000    0.000    0.000 
#
# Total GULP energy -200912.724362 kJ/mol
# GULP energy per Si atom -5580.909010 kJ/mol
# Density = 2.325707 g / cm^3
# Si number density = 23.310128 Si / 1000 Ang^3
#
#
#
# Elastic Constant Matrix: (Units=GPa)
#
#
# Indices 1 2 3 4 5 6 
#
# 1 101.1894 39.9932 50.7460 0.0000 0.0000 17.8113
# 2 39.9932 101.1894 50.7460 0.0000 0.0000 -17.8113
# 3 50.7460 50.7460 110.2305 0.0000 0.0000 0.0000
# 4 0.0000 0.0000 0.0000 17.8046 0.0000 0.0000
# 5 0.0000 0.0000 0.0000 0.0000 17.8046 0.0000
# 6 17.8113 -17.8113 0.0000 0.0000 0.0000 53.0006
#
#
#
# Elastic Compliance Matrix: (Units=1/GPa)
#
#
# Indices 1 2 3 4 5 6 
#
# 1 0.015451 -0.004864 -0.004874 0.000000 0.000000 -0.006827
# 2 -0.004864 0.015451 -0.004874 0.000000 0.000000 0.006827
# 3 -0.004874 -0.004874 0.013559 0.000000 0.000000 0.000000
# 4 0.000000 0.000000 0.000000 0.056165 0.000000 0.000000
# 5 0.000000 0.000000 0.000000 0.000000 0.056165 0.000000
# 6 -0.006827 0.006827 0.000000 0.000000 0.000000 0.023456
#
#
# Mechanical properties :
#
#
# Convention : Reuss Voigt Hill
#
# Bulk Modulus (GPa) = 65.62676 66.17553 65.90114
# Shear Modulus (GPa) = 23.30462 29.13022 26.21742
#
# Velocity S-wave (km/s) = 3.16533 3.53892 3.35733
# Velocity P-wave (km/s) = 6.44779 6.71933 6.58496
#
# Compressibility (1/GPa) = 0.01523769
#
# Stress axis : x y z
#
# Youngs Moduli (GPa) = 64.72194 64.72194 73.75069
#
# Poissons Ratio (x) = 0.31482 0.35944
# Poissons Ratio (y) = 0.31482 0.35944
# Poissons Ratio (z) = 0.31543 0.31543
#
# Static dielectric constant tensor:
#      x y z
#    x 2.009180 0.000000 0.000000 
#    y 0.000000 2.009180 0.000000 
#    z 0.000000 0.000000 1.873190 
# 
# From -- ./inp_files/3956.got.cif
#   From: 2010.05.17/outbox.cif.g08.bks.cpg/sg86_2_cif.got.tgz:3956.got - 2010.06.03 19:03:11.
