data_PCOD9545245
_publ_section_title
;
Structure prediction by ZEFSAII (Michael W. Deem and Ramdas Pophale) SiO2 
 PCOD9545245
Probable space group: P 42/N
;
_chemical_formula_sum "Si O2"
_cell_formula_units_Z 48
_cell_length_a 8.852043
_cell_length_b 8.852043
_cell_length_c 28.359525
_cell_angle_alpha 90.000000
_cell_angle_beta 90.000000
_cell_angle_gamma 90.000000
_cell_volume 2222.214527
_symmetry_space_group_name_H-M "P 42/N"
_symmetry_group_IT_number 86
_space_group.IT_coordinate_system_code '2'
_symmetry_cell_setting 'tetragonal'
loop_
_space_group_symop_operation_xyz
x,y,z
-y,1/2+x,1/2+z
1/2-x,1/2-y,z
1/2+y,-x,1/2+z
-x,-y,-z
y,1/2-x,1/2-z
1/2+x,1/2+y,-z
1/2-y,x,1/2-z
loop_
_atom_site_type_symbol
_atom_site_label
_atom_site_fract_x
_atom_site_fract_y
_atom_site_fract_z
Si Si1 0.452721 0.427466 0.602049
Si Si2 0.573780 0.469121 0.099202
Si Si3 0.710404 0.572448 0.552400
Si Si4 0.929227 0.422820 0.204466
Si Si5 0.066221 0.924806 0.796261
Si Si6 0.427401 0.711101 0.047826
O O1 0.491436 0.250972 0.592537
O O2 0.538078 0.539546 0.566037
O O3 0.493508 0.466857 0.655653
O O4 0.282460 0.470519 0.589760
O O5 0.538900 0.292987 0.089966
O O6 0.528905 0.499221 0.153319
O O7 0.461583 0.537696 0.059960
O O8 0.750000 0.750000 0.556038
O O9 0.743872 0.505264 0.501018
O O10 0.982459 0.249838 0.202522
O O11 0.747655 0.425446 0.207193
O O12 0.995159 0.498701 0.250935
O O13 0.250000 0.750000 0.048601
#
# Coordination Sequence:
#
# PCOD9545245 Si02
#       6
#     8   8   8   8   8   8
#     4  11  23  44  67  93 130 174 219 274 332 397
#     4  11  23  44  67  93 130 174 219 274 332 397
#     4  12  24  42  68  98 132 174 222 270 333 396
#     4  10  23  43  66  94 127 168 212 265 326 387
#     4  10  23  43  66  94 127 168 212 265 326 387
#     4  12  26  42  64  98 134 174 220 276 329 396
#
# _framework density 21.600073999999999
#
# number of rings (size 3 to 8) (size 9 to 14) (size 15 to 20)
#    0.000    1.000    1.667    5.000    2.333    3.333 
#    0.000    0.000    0.000    0.000    0.000    0.000 
#    0.000    0.000    0.000    0.000    0.000    0.000 
#
# Total GULP energy -268125.739344 kJ/mol
# GULP energy per Si atom -5585.952903 kJ/mol
# Density = 2.155091 g / cm^3
# Si number density = 21.600074 Si / 1000 Ang^3
#
#
#
# Elastic Constant Matrix: (Units=GPa)
#
#
# Indices 1 2 3 4 5 6 
#
# 1 62.0774 14.7138 31.8463 0.0000 0.0000 -1.1051
# 2 14.7138 62.0774 31.8463 0.0000 0.0000 1.1051
# 3 31.8463 31.8463 162.4253 0.0000 0.0000 0.0000
# 4 0.0000 0.0000 0.0000 35.4181 0.0000 0.0000
# 5 0.0000 0.0000 0.0000 0.0000 35.4181 0.0000
# 6 -1.1051 1.1051 0.0000 0.0000 0.0000 41.7631
#
#
#
# Elastic Compliance Matrix: (Units=1/GPa)
#
#
# Indices 1 2 3 4 5 6 
#
# 1 0.018345 -0.002794 -0.003049 0.000000 0.000000 0.000559
# 2 -0.002794 0.018345 -0.003049 0.000000 0.000000 -0.000559
# 3 -0.003049 -0.003049 0.007352 0.000000 0.000000 0.000000
# 4 0.000000 0.000000 0.000000 0.028234 0.000000 0.000000
# 5 0.000000 0.000000 0.000000 0.000000 0.028234 0.000000
# 6 0.000559 -0.000559 0.000000 0.000000 0.000000 0.023974
#
#
# Mechanical properties :
#
#
# Convention : Reuss Voigt Hill
#
# Bulk Modulus (GPa) = 38.08279 49.26588 43.67434
# Shear Modulus (GPa) = 33.10756 36.39809 34.75283
#
# Velocity S-wave (km/s) = 3.91928 4.10944 4.01549
# Velocity P-wave (km/s) = 6.17658 6.73605 6.46237
#
# Compressibility (1/GPa) = 0.02625858
#
# Stress axis : x y z
#
# Youngs Moduli (GPa) = 54.50969 54.50969 136.01115
#
# Poissons Ratio (x) = 0.15230 0.41471
# Poissons Ratio (y) = 0.15230 0.41471
# Poissons Ratio (z) = 0.16621 0.16621
#
# Static dielectric constant tensor:
#      x y z
#    x 1.752430 0.000000 0.000000 
#    y 0.000000 1.752430 0.000000 
#    z 0.000000 0.000000 1.739390 
# 
# From -- ./inp_files/5207.got.cif
#   From: 2010.05.17/outbox.cif.g08.bks.cpg/sg86_3_cif.got.tgz:5207.got - 2010.06.03 19:03:11.
