data_PCOD9545141
_publ_section_title
;
Structure prediction by ZEFSAII (Michael W. Deem and Ramdas Pophale) SiO2 
 PCOD9545141
Probable space group: P 42/N
;
_chemical_formula_sum "Si O2"
_cell_formula_units_Z 52
_cell_length_a 15.208578
_cell_length_b 15.208578
_cell_length_c 8.757003
_cell_angle_alpha 90.000000
_cell_angle_beta 90.000000
_cell_angle_gamma 90.000000
_cell_volume 2025.502192
_symmetry_space_group_name_H-M "P 42/N"
_symmetry_group_IT_number 86
_space_group.IT_coordinate_system_code '2'
_symmetry_cell_setting 'tetragonal'
loop_
_space_group_symop_operation_xyz
x,y,z
-y,1/2+x,1/2+z
1/2-x,1/2-y,z
1/2+y,-x,1/2+z
-x,-y,-z
y,1/2-x,1/2-z
1/2+x,1/2+y,-z
1/2-y,x,1/2-z
loop_
_atom_site_type_symbol
_atom_site_label
_atom_site_fract_x
_atom_site_fract_y
_atom_site_fract_z
Si Si1 0.250000 0.750000 0.969484
Si Si2 0.586102 0.906551 0.091206
Si Si3 0.109121 0.716567 0.721401
Si Si4 0.583587 0.091053 0.746591
Si Si5 0.245016 0.023245 0.781661
Si Si6 0.614477 0.524163 0.955423
Si Si7 0.632836 0.661063 0.736386
O O1 0.169992 0.711994 0.869510
O O2 0.285105 0.672528 0.075367
O O3 0.485701 0.935303 0.122801
O O4 0.583870 0.805921 0.159057
O O5 0.652489 0.962328 0.198715
O O6 0.621670 0.902297 0.921542
O O7 0.070066 0.815572 0.729699
O O8 0.037784 0.642881 0.685886
O O9 0.572108 0.199699 0.749644
O O10 0.533729 0.067838 0.587430
O O11 0.202089 0.047028 0.945135
O O12 0.585777 0.614630 0.879420
O O13 0.632461 0.765110 0.750665
#
# Coordination Sequence:
#
# PCOD9545141 Si02
#       7
#     4   8   8   8   8   8   8
#     4  10  22  32  64  80 100 136 194 236 282 312
#     4   9  19  32  53  79 111 148 184 221 271 330
#     4  11  19  39  55  85 105 138 183 239 276 329
#     4   8  20  34  53  76 107 145 178 222 278 325
#     4   8  18  34  51  78 107 149 183 220 270 326
#     4   9  20  35  53  77 116 139 177 232 283 316
#     4  11  21  32  55  86 114 144 188 226 272 320
#
# _framework density 25.672646
#
# number of rings (size 3 to 8) (size 9 to 14) (size 15 to 20)
#    1.846    0.462    3.077    0.000    6.462    0.308 
#    0.000    0.769    0.000    0.923    0.000    0.000 
#    0.000    0.000    0.000    0.000    0.000    0.000 
#
# Total GULP energy -290334.967865 kJ/mol
# GULP energy per Si atom -5583.364767 kJ/mol
# Density = 2.561421 g / cm^3
# Si number density = 25.672646 Si / 1000 Ang^3
#
#
#
# Elastic Constant Matrix: (Units=GPa)
#
#
# Indices 1 2 3 4 5 6 
#
# 1 83.5834 8.6523 19.7200 0.0000 0.0000 13.2083
# 2 8.6523 83.5834 19.7200 0.0000 0.0000 -13.2083
# 3 19.7200 19.7200 92.7353 0.0000 0.0000 0.0000
# 4 0.0000 0.0000 0.0000 7.7015 0.0000 0.0000
# 5 0.0000 0.0000 0.0000 0.0000 7.7015 0.0000
# 6 13.2083 -13.2083 0.0000 0.0000 0.0000 21.6621
#
#
#
# Elastic Compliance Matrix: (Units=1/GPa)
#
#
# Indices 1 2 3 4 5 6 
#
# 1 0.014463 -0.002537 -0.002536 0.000000 0.000000 -0.010366
# 2 -0.002537 0.014463 -0.002536 0.000000 0.000000 0.010366
# 3 -0.002536 -0.002536 0.011862 0.000000 0.000000 0.000000
# 4 0.000000 0.000000 0.000000 0.129846 0.000000 0.000000
# 5 0.000000 0.000000 0.000000 0.000000 0.129846 0.000000
# 6 -0.010366 0.010366 0.000000 0.000000 0.000000 0.058804
#
#
# Mechanical properties :
#
#
# Convention : Reuss Voigt Hill
#
# Bulk Modulus (GPa) = 39.10825 39.56519 39.33672
# Shear Modulus (GPa) = 13.05398 21.53366 17.29382
#
# Velocity S-wave (km/s) = 2.25739 2.89931 2.59825
# Velocity P-wave (km/s) = 4.69691 5.16264 4.93527
#
# Compressibility (1/GPa) = 0.02557005
#
# Stress axis : x y z
#
# Youngs Moduli (GPa) = 69.14157 69.14157 84.30299
#
# Poissons Ratio (x) = 0.17540 0.21380
# Poissons Ratio (y) = 0.17540 0.21380
# Poissons Ratio (z) = 0.17535 0.17535
#
# Static dielectric constant tensor:
#      x y z
#    x 2.096570 0.000000 0.000000 
#    y 0.000000 2.096570 0.000000 
#    z 0.000000 0.000000 1.994580 
# 
# From -- ./inp_files/1409.got.cif
#   From: 2010.05.17/outbox.cif.g08.bks.cpg/sg86_1_cif.got.tgz:1409.got - 2010.06.03 19:03:11.
