data_PCOD9545427
_publ_section_title
;
Structure prediction by ZEFSAII (Michael W. Deem and Ramdas Pophale) SiO2 
 PCOD9545427
Probable space group: P 42/N
;
_chemical_formula_sum "Si O2"
_cell_formula_units_Z 40
_cell_length_a 10.737893
_cell_length_b 10.737893
_cell_length_c 13.807295
_cell_angle_alpha 90.000000
_cell_angle_beta 90.000000
_cell_angle_gamma 90.000000
_cell_volume 1592.013507
_symmetry_space_group_name_H-M "P 42/N"
_symmetry_group_IT_number 86
_space_group.IT_coordinate_system_code '2'
_symmetry_cell_setting 'tetragonal'
loop_
_space_group_symop_operation_xyz
x,y,z
-y,1/2+x,1/2+z
1/2-x,1/2-y,z
1/2+y,-x,1/2+z
-x,-y,-z
y,1/2-x,1/2-z
1/2+x,1/2+y,-z
1/2-y,x,1/2-z
loop_
_atom_site_type_symbol
_atom_site_label
_atom_site_fract_x
_atom_site_fract_y
_atom_site_fract_z
Si Si1 0.361904 0.829274 0.248634
Si Si2 0.514377 0.833341 0.426577
Si Si3 0.062275 0.589639 0.923749
Si Si4 0.182755 0.549508 0.561086
Si Si5 0.678891 0.899808 0.791604
O O1 0.250000 0.750000 0.295681
O O2 0.455447 0.886643 0.327271
O O3 0.417692 0.741604 0.165092
O O4 0.306437 0.952967 0.202600
O O5 0.487293 0.688509 0.401670
O O6 0.436501 0.874603 0.521202
O O7 0.645830 0.902851 0.438321
O O8 0.952825 0.617805 0.847126
O O9 0.086489 0.715832 0.981190
O O10 0.000000 0.500000 0.000000
O O11 0.820975 0.849086 0.808000
#
# Coordination Sequence:
#
# PCOD9545427 Si02
#       5
#     8   8   8   8   8
#     4  12  25  46  79 109 157 208 262 337 412 491
#     4  11  27  46  76 112 156 204 273 329 408 505
#     4  12  25  48  71 110 156 200 255 339 401 476
#     4  11  26  49  77 113 155 217 268 335 424 496
#     4  11  26  45  75 110 146 198 266 329 396 487
#
# _framework density 25.125412000000001
#
# number of rings (size 3 to 8) (size 9 to 14) (size 15 to 20)
#    0.000    0.600    2.000    5.400    5.600    5.600 
#    0.000    0.000    0.000    0.000    0.000    0.000 
#    0.000    0.000    0.000    0.000    0.000    0.000 
#
# Total GULP energy -222933.080204 kJ/mol
# GULP energy per Si atom -5573.327005 kJ/mol
# Density = 2.506823 g / cm^3
# Si number density = 25.125412 Si / 1000 Ang^3
#
#
#
# Elastic Constant Matrix: (Units=GPa)
#
#
# Indices 1 2 3 4 5 6 
#
# 1 122.6907 33.2684 28.1441 0.0000 0.0000 -10.3696
# 2 33.2684 122.6907 28.1441 0.0000 0.0000 10.3696
# 3 28.1441 28.1441 100.9769 0.0000 0.0000 0.0000
# 4 0.0000 0.0000 0.0000 40.8666 0.0000 0.0000
# 5 0.0000 0.0000 0.0000 0.0000 40.8666 0.0000
# 6 -10.3696 10.3696 0.0000 0.0000 0.0000 49.2007
#
#
#
# Elastic Compliance Matrix: (Units=1/GPa)
#
#
# Indices 1 2 3 4 5 6 
#
# 1 0.009443 -0.002314 -0.001987 0.000000 0.000000 0.002478
# 2 -0.002314 0.009443 -0.001987 0.000000 0.000000 -0.002478
# 3 -0.001987 -0.001987 0.011011 0.000000 0.000000 0.000000
# 4 0.000000 0.000000 0.000000 0.024470 0.000000 0.000000
# 5 0.000000 0.000000 0.000000 0.000000 0.024470 0.000000
# 6 0.002478 -0.002478 0.000000 0.000000 0.000000 0.021369
#
#
# Mechanical properties :
#
#
# Convention : Reuss Voigt Hill
#
# Bulk Modulus (GPa) = 57.73330 58.38572 58.05951
# Shear Modulus (GPa) = 42.17378 43.30686 42.74032
#
# Velocity S-wave (km/s) = 4.10143 4.15616 4.12889
# Velocity P-wave (km/s) = 6.74218 6.80586 6.77409
#
# Compressibility (1/GPa) = 0.01732103
#
# Stress axis : x y z
#
# Youngs Moduli (GPa) = 105.89461 105.89461 90.81921
#
# Poissons Ratio (x) = 0.24507 0.18046
# Poissons Ratio (y) = 0.24507 0.18046
# Poissons Ratio (z) = 0.21041 0.21041
#
# Static dielectric constant tensor:
#      x y z
#    x 3.251980 0.000000 0.000000 
#    y 0.000000 3.251980 0.000000 
#    z 0.000000 0.000000 2.047310 
# 
# From -- ./inp_files/2871.got.cif
#   From: 2010.05.17/outbox.cif.g08.bks.cpg/sg86_2_cif.got.tgz:2871.got - 2010.06.03 19:03:11.
