data_PCOD9545688
_publ_section_title
;
Structure prediction by ZEFSAII (Michael W. Deem and Ramdas Pophale) SiO2 
 PCOD9545688
Probable space group: I 4/M
;
_chemical_formula_sum "Si O2"
_cell_formula_units_Z 112
_cell_length_a 14.985042
_cell_length_b 14.985042
_cell_length_c 26.353509
_cell_angle_alpha 90.000000
_cell_angle_beta 90.000000
_cell_angle_gamma 90.000000
_cell_volume 5917.719548
_symmetry_space_group_name_H-M "I 4/M"
_symmetry_group_IT_number 87
_symmetry_cell_setting 'tetragonal'
loop_
_space_group_symop_operation_xyz
x,y,z
-y,x,z
-x,-y,z
y,-x,z
-x,-y,-z
y,-x,-z
x,y,-z
-y,x,-z
1/2+x,1/2+y,1/2+z
1/2-y,1/2+x,1/2+z
1/2-x,1/2-y,1/2+z
1/2+y,1/2-x,1/2+z
1/2-x,1/2-y,1/2-z
1/2+y,1/2-x,1/2-z
1/2+x,1/2+y,1/2-z
1/2-y,1/2+x,1/2-z
loop_
_atom_site_type_symbol
_atom_site_label
_atom_site_fract_x
_atom_site_fract_y
_atom_site_fract_z
Si Si1 0.306314 0.843049 0.685342
Si Si2 0.199916 0.661363 0.693488
Si Si3 0.278208 0.029692 0.365588
Si Si4 0.047208 0.857341 0.943939
Si Si5 0.787754 0.514050 0.366490
Si Si6 0.637551 0.559627 0.944170
Si Si7 0.425551 0.074484 0.443826
O O1 0.256083 0.748557 0.676315
O O2 0.301065 0.851301 0.746135
O O3 0.408234 0.835513 0.665463
O O4 0.266577 0.931741 0.658472
O O5 0.098853 0.680261 0.674619
O O6 0.236326 0.570129 0.668764
O O7 0.192648 0.073197 0.392987
O O8 0.346156 0.028536 0.412870
O O9 0.945155 0.891888 0.941501
O O10 0.059765 0.792659 0.896961
O O11 0.061208 0.815778 0.000000
O O12 0.848359 0.468547 0.409816
O O13 0.545135 0.612900 0.943392
O O14 0.679595 0.578507 0.000000
O O15 0.399622 0.106286 0.500000
O O16 0.500000 0.000000 0.448727
#
# Coordination Sequence:
#
# PCOD9545688 Si02
#       7
#    16  16  16  16  16  16  16
#     4  11  22  39  55  80 105 141 182 230 272 317
#     4  10  24  37  56  80 108 135 185 232 269 313
#     4  11  20  36  57  78 106 147 176 218 266 324
#     4   9  18  33  54  81 111 141 175 216 262 317
#     4  11  20  36  57  78 106 147 176 218 266 324
#     4   9  18  33  54  81 111 141 175 216 262 317
#     4  10  20  34  50  78 109 136 170 211 252 308
#
# _framework density 18.926210000000001
#
# number of rings (size 3 to 8) (size 9 to 14) (size 15 to 20)
#    0.000    1.857    1.429    4.286    0.000    0.000 
#    0.000    1.429    0.000    6.857    0.000   12.000 
#    0.000    0.000    0.000    0.000    0.000    0.000 
#
# Total GULP energy -312118.247381 kJ/mol
# GULP energy per Si atom -5573.540132 kJ/mol
# Density = 1.888313 g / cm^3
# Si number density = 18.926210 Si / 1000 Ang^3
#
#
#
# Elastic Constant Matrix: (Units=GPa)
#
#
# Indices 1 2 3 4 5 6 
#
# 1 31.6717 -12.0907 20.1997 0.0000 0.0000 -0.5656
# 2 -12.0907 31.6717 20.1997 0.0000 0.0000 0.5656
# 3 20.1997 20.1997 99.5868 0.0000 0.0000 0.0000
# 4 0.0000 0.0000 0.0000 23.4373 0.0000 0.0000
# 5 0.0000 0.0000 0.0000 0.0000 23.4373 0.0000
# 6 -0.5656 0.5656 0.0000 0.0000 0.0000 18.1389
#
#
#
# Elastic Compliance Matrix: (Units=1/GPa)
#
#
# Indices 1 2 3 4 5 6 
#
# 1 0.055346 0.032477 -0.017814 0.000000 0.000000 0.000713
# 2 0.032477 0.055346 -0.017814 0.000000 0.000000 -0.000713
# 3 -0.017814 -0.017814 0.017268 0.000000 0.000000 0.000000
# 4 0.000000 0.000000 0.000000 0.042667 0.000000 0.000000
# 5 0.000000 0.000000 0.000000 0.000000 0.042667 0.000000
# 6 0.000713 -0.000713 0.000000 0.000000 0.000000 0.055175
#
#
# Mechanical properties :
#
#
# Convention : Reuss Voigt Hill
#
# Bulk Modulus (GPa) = 8.21967 24.39419 16.30693
# Shear Modulus (GPa) = 15.85678 21.97745 18.91712
#
# Velocity S-wave (km/s) = 2.89765 3.41136 3.16495
# Velocity P-wave (km/s) = 3.94305 5.33232 4.68942
#
# Compressibility (1/GPa) = 0.12165936
#
# Stress axis : x y z
#
# Youngs Moduli (GPa) = 18.06816 18.06816 57.91071
#
# Poissons Ratio (x) = -0.58680 1.03160
# Poissons Ratio (y) = -0.58680 1.03160
# Poissons Ratio (z) = 0.32186 0.32186
#
# Static dielectric constant tensor:
#      x y z
#    x 1.684830 0.000000 0.000000 
#    y 0.000000 1.684830 0.000000 
#    z 0.000000 0.000000 1.669330 
# 
# From -- ./inp_files/5872.got.cif
#   From: 2010.05.17/outbox.cif.g08.bks.cpg/sg87_3_cif.got.tgz:5872.got - 2010.06.03 19:07:00.
