data_PCOD9545386
_publ_section_title
;
Structure prediction by ZEFSAII (Michael W. Deem and Ramdas Pophale) SiO2 
 PCOD9545386
Probable space group: P 42/N
;
_chemical_formula_sum "Si O2"
_cell_formula_units_Z 32
_cell_length_a 8.871858
_cell_length_b 8.871858
_cell_length_c 14.266896
_cell_angle_alpha 90.000000
_cell_angle_beta 90.000000
_cell_angle_gamma 90.000000
_cell_volume 1122.945449
_symmetry_space_group_name_H-M "P 42/N"
_symmetry_group_IT_number 86
_space_group.IT_coordinate_system_code '2'
_symmetry_cell_setting 'tetragonal'
loop_
_space_group_symop_operation_xyz
x,y,z
-y,1/2+x,1/2+z
1/2-x,1/2-y,z
1/2+y,-x,1/2+z
-x,-y,-z
y,1/2-x,1/2-z
1/2+x,1/2+y,-z
1/2-y,x,1/2-z
loop_
_atom_site_type_symbol
_atom_site_label
_atom_site_fract_x
_atom_site_fract_y
_atom_site_fract_z
Si Si1 0.033825 0.818126 0.349450
Si Si2 0.740053 0.558501 0.817684
Si Si3 0.666621 0.030613 0.565476
Si Si4 0.220595 0.946641 0.637931
O O1 0.852013 0.050713 0.112780
O O2 0.827551 0.094866 0.601632
O O3 0.047184 0.805627 0.237015
O O4 0.881127 0.903240 0.372282
O O5 0.629262 0.609448 0.731743
O O6 0.639576 0.628671 0.901924
O O7 0.809225 0.400108 0.851404
O O8 0.680478 0.053080 0.455122
#
# Coordination Sequence:
#
# PCOD9545386 Si02
#       4
#     8   8   8   8
#     4  11  27  51  80 122 172 224 283 363 436 502
#     4  11  23  49  89 117 167 233 284 350 435 521
#     4  11  27  51  84 126 166 229 295 353 434 530
#     4  12  28  55  83 126 180 221 296 365 437 524
#
# _framework density 28.496486999999998
#
# number of rings (size 3 to 8) (size 9 to 14) (size 15 to 20)
#    0.000    0.750    2.500    3.750    3.500    6.500 
#    9.000   11.250    0.000    0.000    0.000    0.000 
#    0.000    0.000    0.000    0.000    0.000    0.000 
#
# Total GULP energy -179225.774427 kJ/mol
# GULP energy per Si atom -5600.805451 kJ/mol
# Density = 2.843163 g / cm^3
# Si number density = 28.496487 Si / 1000 Ang^3
#
#
#
# Elastic Constant Matrix: (Units=GPa)
#
#
# Indices 1 2 3 4 5 6 
#
# 1 134.2570 72.7002 73.1469 0.0000 0.0000 6.8328
# 2 72.7002 134.2570 73.1469 0.0000 0.0000 -6.8328
# 3 73.1469 73.1469 240.6365 0.0000 0.0000 0.0000
# 4 0.0000 0.0000 0.0000 40.7409 0.0000 0.0000
# 5 0.0000 0.0000 0.0000 0.0000 40.7409 0.0000
# 6 6.8328 -6.8328 0.0000 0.0000 0.0000 75.9971
#
#
#
# Elastic Compliance Matrix: (Units=1/GPa)
#
#
# Indices 1 2 3 4 5 6 
#
# 1 0.011365 -0.005211 -0.001871 0.000000 0.000000 -0.001490
# 2 -0.005211 0.011365 -0.001871 0.000000 0.000000 0.001490
# 3 -0.001871 -0.001871 0.005293 0.000000 0.000000 0.000000
# 4 0.000000 0.000000 0.000000 0.024545 0.000000 0.000000
# 5 0.000000 0.000000 0.000000 0.000000 0.024545 0.000000
# 6 -0.001490 0.001490 0.000000 0.000000 0.000000 0.013426
#
#
# Mechanical properties :
#
#
# Convention : Reuss Voigt Hill
#
# Bulk Modulus (GPa) = 98.82789 105.23763 102.03276
# Shear Modulus (GPa) = 44.71555 50.83953 47.77754
#
# Velocity S-wave (km/s) = 3.96556 4.22840 4.09909
# Velocity P-wave (km/s) = 7.46482 7.80060 7.63456
#
# Compressibility (1/GPa) = 0.01011860
#
# Stress axis : x y z
#
# Youngs Moduli (GPa) = 87.98824 87.98824 188.93046
#
# Poissons Ratio (x) = 0.45849 0.35344
# Poissons Ratio (y) = 0.45849 0.35344
# Poissons Ratio (z) = 0.16460 0.16460
#
# Static dielectric constant tensor:
#      x y z
#    x 2.389280 0.000000 0.000000 
#    y 0.000000 2.389280 0.000000 
#    z 0.000000 0.000000 2.119520 
# 
# From -- ./inp_files/1907.got.cif
#   From: 2010.05.17/outbox.cif.g08.bks.cpg/sg86_1_cif.got.tgz:1907.got - 2010.06.03 19:03:11.
