data_PCOD9545817
_publ_section_title
;
Structure prediction by ZEFSAII (Michael W. Deem and Ramdas Pophale) SiO2 
 PCOD9545817
Probable space group: I 4/M
;
_chemical_formula_sum "Si O2"
_cell_formula_units_Z 76
_cell_length_a 14.809276
_cell_length_b 14.809276
_cell_length_c 18.397295
_cell_angle_alpha 90.000000
_cell_angle_beta 90.000000
_cell_angle_gamma 90.000000
_cell_volume 4034.796418
_symmetry_space_group_name_H-M "I 4/M"
_symmetry_group_IT_number 87
_symmetry_cell_setting 'tetragonal'
loop_
_space_group_symop_operation_xyz
x,y,z
-y,x,z
-x,-y,z
y,-x,z
-x,-y,-z
y,-x,-z
x,y,-z
-y,x,-z
1/2+x,1/2+y,1/2+z
1/2-y,1/2+x,1/2+z
1/2-x,1/2-y,1/2+z
1/2+y,1/2-x,1/2+z
1/2-x,1/2-y,1/2-z
1/2+y,1/2-x,1/2-z
1/2+x,1/2+y,1/2-z
1/2-y,1/2+x,1/2-z
loop_
_atom_site_type_symbol
_atom_site_label
_atom_site_fract_x
_atom_site_fract_y
_atom_site_fract_z
Si Si1 0.018350 0.308529 0.276702
Si Si2 0.891324 0.893076 0.500000
Si Si3 0.610653 0.888903 0.000000
Si Si4 0.670810 0.160437 0.841406
Si Si5 0.897221 0.604406 0.000000
Si Si6 0.500000 0.000000 0.750000
Si Si7 0.252653 0.664052 0.118116
O O1 0.065528 0.304625 0.197587
O O2 0.081673 0.248526 0.326127
O O3 0.913302 0.297633 0.294909
O O4 0.030428 0.415334 0.297185
O O5 0.848384 0.841560 0.568539
O O6 0.999665 0.876178 0.500000
O O7 0.502359 0.876615 0.000000
O O8 0.651747 0.835272 0.068188
O O9 0.623739 0.995713 0.000000
O O10 0.745082 0.238679 0.844146
O O11 0.642865 0.141639 0.924586
#
# Coordination Sequence:
#
# PCOD9545817 Si02
#       7
#    16   8   8  16   8   4  16
#     4  10  21  35  56  85 112 159 186 241 298 360
#     4  10  21  35  55  80 115 161 204 239 288 362
#     4  10  23  31  60  83 119 146 203 228 301 360
#     4  11  23  37  60  81 125 151 201 241 303 355
#     4  11  22  38  57  85 112 163 187 246 298 371
#     4   8  20  32  56  74 116 140 184 226 296 368
#     4  11  21  35  54  85 118 153 192 248 295 350
#
# _framework density 18.836141999999999
#
# number of rings (size 3 to 8) (size 9 to 14) (size 15 to 20)
#    0.000    1.579    2.105    3.158   11.789    0.000 
#    0.000    0.000    0.000    0.000    0.000    0.000 
#    0.000    6.737    0.000    0.000    0.000    0.000 
#
# Total GULP energy -211879.863869 kJ/mol
# GULP energy per Si atom -5575.785891 kJ/mol
# Density = 1.879327 g / cm^3
# Si number density = 18.836142 Si / 1000 Ang^3
#
#
#
# Elastic Constant Matrix: (Units=GPa)
#
#
# Indices 1 2 3 4 5 6 
#
# 1 62.7468 22.3650 26.9524 0.0000 0.0000 2.1540
# 2 22.3650 62.7468 26.9524 0.0000 0.0000 -2.1540
# 3 26.9524 26.9524 88.9971 0.0000 0.0000 0.0000
# 4 0.0000 0.0000 0.0000 8.0430 0.0000 0.0000
# 5 0.0000 0.0000 0.0000 0.0000 8.0430 0.0000
# 6 2.1540 -2.1540 0.0000 0.0000 0.0000 28.2487
#
#
#
# Elastic Compliance Matrix: (Units=1/GPa)
#
#
# Indices 1 2 3 4 5 6 
#
# 1 0.019752 -0.005215 -0.004403 0.000000 0.000000 -0.001904
# 2 -0.005215 0.019752 -0.004403 0.000000 0.000000 0.001904
# 3 -0.004403 -0.004403 0.013903 0.000000 0.000000 0.000000
# 4 0.000000 0.000000 0.000000 0.124331 0.000000 0.000000
# 5 0.000000 0.000000 0.000000 0.000000 0.124331 0.000000
# 6 -0.001904 0.001904 0.000000 0.000000 0.000000 0.035690
#
#
# Mechanical properties :
#
#
# Convention : Reuss Voigt Hill
#
# Bulk Modulus (GPa) = 39.42035 40.78114 40.10074
# Shear Modulus (GPa) = 13.35985 18.08168 15.72077
#
# Velocity S-wave (km/s) = 2.66610 3.10166 2.89209
# Velocity P-wave (km/s) = 5.51823 5.87576 5.69980
#
# Compressibility (1/GPa) = 0.02536761
#
# Stress axis : x y z
#
# Youngs Moduli (GPa) = 50.62726 50.62726 71.92707
#
# Poissons Ratio (x) = 0.26400 0.31667
# Poissons Ratio (y) = 0.26400 0.31667
# Poissons Ratio (z) = 0.22289 0.22289
#
# Static dielectric constant tensor:
#      x y z
#    x 1.658010 0.000000 0.000000 
#    y 0.000000 1.658010 0.000000 
#    z 0.000000 0.000000 1.707760 
# 
# From -- ./inp_files/5136.got.cif
#   From: 2010.05.17/outbox.cif.g08.bks.cpg/sg87_3_cif.got.tgz:5136.got - 2010.06.03 19:07:00.
