data_PCOD9545718
_publ_section_title
;
Structure prediction by ZEFSAII (Michael W. Deem and Ramdas Pophale) SiO2 
 PCOD9545718
Probable space group: I 4/M
;
_chemical_formula_sum "Si O2"
_cell_formula_units_Z 96
_cell_length_a 24.657783
_cell_length_b 24.657783
_cell_length_c 7.448654
_cell_angle_alpha 90.000000
_cell_angle_beta 90.000000
_cell_angle_gamma 90.000000
_cell_volume 4528.828279
_symmetry_space_group_name_H-M "I 4/M"
_symmetry_group_IT_number 87
_symmetry_cell_setting 'tetragonal'
loop_
_space_group_symop_operation_xyz
x,y,z
-y,x,z
-x,-y,z
y,-x,z
-x,-y,-z
y,-x,-z
x,y,-z
-y,x,-z
1/2+x,1/2+y,1/2+z
1/2-y,1/2+x,1/2+z
1/2-x,1/2-y,1/2+z
1/2+y,1/2-x,1/2+z
1/2-x,1/2-y,1/2-z
1/2+y,1/2-x,1/2-z
1/2+x,1/2+y,1/2-z
1/2-y,1/2+x,1/2-z
loop_
_atom_site_type_symbol
_atom_site_label
_atom_site_fract_x
_atom_site_fract_y
_atom_site_fract_z
Si Si1 0.793291 0.955868 0.780538
Si Si2 0.733331 0.665278 0.716194
Si Si3 0.494829 0.086502 0.704525
Si Si4 0.456799 0.203411 0.720105
Si Si5 0.234427 0.662642 0.286906
Si Si6 0.414091 0.484422 0.718804
O O1 0.778399 0.895274 0.720428
O O2 0.853448 0.972547 0.721391
O O3 0.748724 0.999829 0.726425
O O4 0.793588 0.955458 0.000000
O O5 0.729231 0.664623 0.500000
O O6 0.690516 0.710410 0.784011
O O7 0.793090 0.687309 0.759941
O O8 0.512645 0.095363 0.500000
O O9 0.544530 0.055348 0.795573
O O10 0.476121 0.144001 0.779860
O O11 0.455302 0.201789 0.500000
O O12 0.396474 0.218852 0.782756
O O13 0.242434 0.656339 0.500000
O O14 0.457625 0.438781 0.773817
O O15 0.413586 0.484423 0.500000
#
# Coordination Sequence:
#
# PCOD9545718 Si02
#       6
#    16  16  16  16  16  16
#     4   9  17  27  43  67  95 125 157 193 232 278
#     4   9  18  31  50  73  95 124 160 196 236 278
#     4  10  20  35  53  72  94 125 159 198 243 287
#     4   9  19  31  46  68  95 126 160 194 234 283
#     4   9  18  33  50  69  95 128 160 193 236 283
#     4   8  14  23  37  61  94 129 158 187 229 277
#
# _framework density 21.197537000000001
#
# number of rings (size 3 to 8) (size 9 to 14) (size 15 to 20)
#    0.000    3.000    0.000    1.500    4.667    0.000 
#    0.000    0.833    0.000    1.000    0.000    0.000 
#    0.000    0.000    0.000    1.833    0.000    3.000 
#
# Total GULP energy -267977.891520 kJ/mol
# GULP energy per Si atom -5582.872740 kJ/mol
# Density = 2.114929 g / cm^3
# Si number density = 21.197537 Si / 1000 Ang^3
#
#
#
# Elastic Constant Matrix: (Units=GPa)
#
#
# Indices 1 2 3 4 5 6 
#
# 1 204.7624 137.0838 -4.4882 0.0000 0.0000 1.0716
# 2 137.0838 204.7624 -4.4882 0.0000 0.0000 -1.0716
# 3 -4.4882 -4.4882 61.1179 0.0000 0.0000 0.0000
# 4 0.0000 0.0000 0.0000 -1.7128 0.0000 0.0000
# 5 0.0000 0.0000 0.0000 0.0000 -1.7128 0.0000
# 6 1.0716 -1.0716 0.0000 0.0000 0.0000 13.5929
#
#
#
# Elastic Compliance Matrix: (Units=1/GPa)
#
#
# Indices 1 2 3 4 5 6 
#
# 1 0.008872 -0.005941 0.000215 0.000000 0.000000 -0.001168
# 2 -0.005941 0.008872 0.000215 0.000000 0.000000 0.001168
# 3 0.000215 0.000215 0.016393 0.000000 0.000000 0.000000
# 4 0.000000 0.000000 0.000000 -0.583848 0.000000 0.000000
# 5 0.000000 0.000000 0.000000 0.000000 -0.583848 0.000000
# 6 -0.001168 0.001168 0.000000 0.000000 0.000000 0.073752
#
#
# Mechanical properties :
#
#
# Convention : Reuss Voigt Hill
#
# Bulk Modulus (GPa) = 43.25959 80.76192 62.01076
# Shear Modulus (GPa) = -4.80270 24.86915 10.03322
#
# Velocity S-wave (km/s) = -1.50685 3.42893 2.17795
# Velocity P-wave (km/s) = 4.17429 7.33888 5.97008
#
# Compressibility (1/GPa) = 0.02311626
#
# Stress axis : x y z
#
# Youngs Moduli (GPa) = 112.71639 112.71639 61.00004
#
# Poissons Ratio (x) = 0.66963 -0.01313
# Poissons Ratio (y) = 0.66963 -0.01313
# Poissons Ratio (z) = -0.02426 -0.02426
#
# Static dielectric constant tensor:
#      x y z
#    x 1.721670 0.000000 0.000000 
#    y 0.000000 1.721670 0.000000 
#    z 0.000000 0.000000 1.839930 
# 
# From -- ./inp_files/1428.got.cif
#   From: 2010.05.17/outbox.cif.g08.bks.cpg/sg87_1_cif.got.tgz:1428.got - 2010.06.03 19:07:00.
