data_PCOD9545589
_publ_section_title
;
Structure prediction by ZEFSAII (Michael W. Deem and Ramdas Pophale) SiO2 
 PCOD9545589
Probable space group: I 4/M
;
_chemical_formula_sum "Si O2"
_cell_formula_units_Z 112
_cell_length_a 17.641177
_cell_length_b 17.641177
_cell_length_c 14.310416
_cell_angle_alpha 90.000000
_cell_angle_beta 90.000000
_cell_angle_gamma 90.000000
_cell_volume 4453.560676
_symmetry_space_group_name_H-M "I 4/M"
_symmetry_group_IT_number 87
_symmetry_cell_setting 'tetragonal'
loop_
_space_group_symop_operation_xyz
x,y,z
-y,x,z
-x,-y,z
y,-x,z
-x,-y,-z
y,-x,-z
x,y,-z
-y,x,-z
1/2+x,1/2+y,1/2+z
1/2-y,1/2+x,1/2+z
1/2-x,1/2-y,1/2+z
1/2+y,1/2-x,1/2+z
1/2-x,1/2-y,1/2-z
1/2+y,1/2-x,1/2-z
1/2+x,1/2+y,1/2-z
1/2-y,1/2+x,1/2-z
loop_
_atom_site_type_symbol
_atom_site_label
_atom_site_fract_x
_atom_site_fract_y
_atom_site_fract_z
Si Si1 0.555472 0.606522 0.365863
Si Si2 0.769328 0.455816 0.607434
Si Si3 0.606810 0.440981 0.857799
Si Si4 0.582868 0.027734 0.386866
Si Si5 0.113664 0.669285 0.614649
Si Si6 0.694010 0.712454 0.889175
Si Si7 0.798867 0.618336 0.386783
O O1 0.468550 0.597749 0.398277
O O2 0.585205 0.688232 0.393510
O O3 0.556233 0.603949 0.254162
O O4 0.793821 0.467665 0.500000
O O5 0.831969 0.399603 0.647003
O O6 0.759324 0.540622 0.647945
O O7 0.600465 0.528584 0.889973
O O8 0.680655 0.391412 0.879941
O O9 0.581674 0.023731 0.500000
O O10 0.600299 0.113650 0.365125
O O11 0.500000 0.000000 0.355937
O O12 0.647612 0.970220 0.354269
O O13 0.113867 0.670186 0.500000
O O14 0.148694 0.748194 0.647268
O O15 0.713426 0.796098 0.851461
O O16 0.706917 0.717512 0.000000
O O17 0.787491 0.622075 0.500000
#
# Coordination Sequence:
#
# PCOD9545589 Si02
#       7
#    16  16  16  16  16  16  16
#     4   9  20  38  58  75 100 143 186 225 271 329
#     4  10  19  32  54  82 113 143 173 224 282 328
#     4   9  20  40  59  74 103 145 185 228 279 332
#     4   9  14  26  46  68 100 145 184 207 251 328
#     4   9  18  30  46  75 113 144 173 217 269 322
#     4  10  21  33  52  83 115 142 178 230 280 325
#     4   9  18  30  47  76 112 145 175 218 275 326
#
# _framework density 25.148416999999998
#
# number of rings (size 3 to 8) (size 9 to 14) (size 15 to 20)
#    0.000    2.714    1.429    0.857    4.000    1.143 
#    0.000    2.143    0.000    0.000    0.000    0.000 
#    0.000    0.000    0.000    0.000    0.000    0.000 
#
# Total GULP energy -312897.844223 kJ/mol
# GULP energy per Si atom -5587.461504 kJ/mol
# Density = 2.509118 g / cm^3
# Si number density = 25.148417 Si / 1000 Ang^3
#
#
#
# Elastic Constant Matrix: (Units=GPa)
#
#
# Indices 1 2 3 4 5 6 
#
# 1 89.9018 8.6292 -6.7170 0.0000 0.0000 7.3891
# 2 8.6292 89.9018 -6.7170 0.0000 0.0000 -7.3891
# 3 -6.7170 -6.7170 83.1680 0.0000 0.0000 0.0000
# 4 0.0000 0.0000 0.0000 18.7470 0.0000 0.0000
# 5 0.0000 0.0000 0.0000 0.0000 18.7470 0.0000
# 6 7.3891 -7.3891 0.0000 0.0000 0.0000 24.6150
#
#
#
# Elastic Compliance Matrix: (Units=1/GPa)
#
#
# Indices 1 2 3 4 5 6 
#
# 1 0.011638 -0.001376 0.000829 0.000000 0.000000 -0.003907
# 2 -0.001376 0.011638 0.000829 0.000000 0.000000 0.003907
# 3 0.000829 0.000829 0.012158 0.000000 0.000000 0.000000
# 4 0.000000 0.000000 0.000000 0.053342 0.000000 0.000000
# 5 0.000000 0.000000 0.000000 0.000000 0.053342 0.000000
# 6 -0.003907 0.003907 0.000000 0.000000 0.000000 0.042971
#
#
# Mechanical properties :
#
#
# Convention : Reuss Voigt Hill
#
# Bulk Modulus (GPa) = 27.77997 28.15133 27.96565
# Shear Modulus (GPa) = 25.44195 30.27356 27.85775
#
# Velocity S-wave (km/s) = 3.18413 3.47334 3.33187
# Velocity P-wave (km/s) = 4.95869 5.22531 5.09374
#
# Compressibility (1/GPa) = 0.03599717
#
# Stress axis : x y z
#
# Youngs Moduli (GPa) = 85.92258 85.92258 82.25215
#
# Poissons Ratio (x) = 0.11825 -0.06817
# Poissons Ratio (y) = 0.11825 -0.06817
# Poissons Ratio (z) = -0.07121 -0.07121
#
# Static dielectric constant tensor:
#      x y z
#    x 1.973560 0.000000 0.000000 
#    y 0.000000 1.973560 0.000000 
#    z 0.000000 0.000000 2.015390 
# 
# From -- ./inp_files/5480.got.cif
#   From: 2010.05.17/outbox.cif.g08.bks.cpg/sg87_3_cif.got.tgz:5480.got - 2010.06.03 19:07:00.
