data_PCOD9545983
_publ_section_title
;
Structure prediction by ZEFSAII (Michael W. Deem and Ramdas Pophale) SiO2 
 PCOD9545983
Probable space group: I 4/M
;
_chemical_formula_sum "Si O2"
_cell_formula_units_Z 112
_cell_length_a 15.741142
_cell_length_b 15.741142
_cell_length_c 21.796875
_cell_angle_alpha 90.000000
_cell_angle_beta 90.000000
_cell_angle_gamma 90.000000
_cell_volume 5400.907098
_symmetry_space_group_name_H-M "I 4/M"
_symmetry_group_IT_number 87
_symmetry_cell_setting 'tetragonal'
loop_
_space_group_symop_operation_xyz
x,y,z
-y,x,z
-x,-y,z
y,-x,z
-x,-y,-z
y,-x,-z
x,y,-z
-y,x,-z
1/2+x,1/2+y,1/2+z
1/2-y,1/2+x,1/2+z
1/2-x,1/2-y,1/2+z
1/2+y,1/2-x,1/2+z
1/2-x,1/2-y,1/2-z
1/2+y,1/2-x,1/2-z
1/2+x,1/2+y,1/2-z
1/2-y,1/2+x,1/2-z
loop_
_atom_site_type_symbol
_atom_site_label
_atom_site_fract_x
_atom_site_fract_y
_atom_site_fract_z
Si Si1 0.641836 0.483153 0.328303
Si Si2 0.589359 0.968889 0.930220
Si Si3 0.902278 0.741793 0.928950
Si Si4 0.397123 0.592553 0.073730
Si Si5 0.278570 0.035636 0.269989
Si Si6 0.145700 0.629211 0.175450
Si Si7 0.301676 0.733319 0.147504
O O1 0.590966 0.571712 0.326591
O O2 0.695193 0.462187 0.389572
O O3 0.704945 0.490753 0.270479
O O4 0.630596 0.893671 0.891913
O O5 0.500000 0.000000 0.902905
O O6 0.652954 0.047794 0.930470
O O7 0.573560 0.941013 0.000000
O O8 0.815423 0.726108 0.891679
O O9 0.888719 0.768978 0.000000
O O10 0.383893 0.494148 0.091830
O O11 0.331869 0.656878 0.103499
O O12 0.392795 0.596502 0.000000
O O13 0.347521 0.070631 0.221890
O O14 0.251118 0.117691 0.309076
O O15 0.317537 0.963238 0.312098
O O16 0.219573 0.698485 0.182866
#
# Coordination Sequence:
#
# PCOD9545983 Si02
#       7
#    16  16  16  16  16  16  16
#     4  11  24  45  69  97 134 178 229 284 338 397
#     4  10  23  44  67  95 129 169 219 272 331 392
#     4  11  24  43  68  99 136 175 221 283 340 404
#     4   9  19  37  62  94 133 175 220 272 336 409
#     4  12  25  43  66  98 133 175 228 270 338 395
#     4  12  26  42  69  95 132 175 218 275 330 404
#     4  12  24  42  64 101 135 174 225 277 338 401
#
# _framework density 20.737257
#
# number of rings (size 3 to 8) (size 9 to 14) (size 15 to 20)
#    0.000    1.000    1.429    5.571    2.000    1.714 
#    0.000    5.714    0.000    0.000    0.000    0.000 
#    0.000    0.000    0.000    0.000    0.000    0.000 
#
# Total GULP energy -313105.917442 kJ/mol
# GULP energy per Si atom -5591.177097 kJ/mol
# Density = 2.069006 g / cm^3
# Si number density = 20.737257 Si / 1000 Ang^3
#
#
#
# Elastic Constant Matrix: (Units=GPa)
#
#
# Indices 1 2 3 4 5 6 
#
# 1 71.3708 19.1336 16.5441 0.0000 0.0000 3.8289
# 2 19.1336 71.3708 16.5441 0.0000 0.0000 -3.8289
# 3 16.5441 16.5441 60.9943 0.0000 0.0000 0.0000
# 4 0.0000 0.0000 0.0000 1490.2138 -0.0116 0.0000
# 5 0.0000 0.0000 0.0000 -0.0116 1490.2201 0.0000
# 6 3.8289 -3.8289 0.0000 0.0000 0.0000 30.9351
#
#
#
# Elastic Compliance Matrix: (Units=1/GPa)
#
#
# Indices 1 2 3 4 5 6 
#
# 1 0.015881 -0.003616 -0.003327 0.000000 0.000000 -0.002413
# 2 -0.003616 0.015881 -0.003327 0.000000 0.000000 0.002413
# 3 -0.003327 -0.003327 0.018200 0.000000 0.000000 0.000000
# 4 0.000000 0.000000 0.000000 0.000671 0.000000 0.000000
# 5 0.000000 0.000000 0.000000 0.000000 0.000671 0.000000
# 6 -0.002413 0.002413 0.000000 0.000000 0.000000 0.032923
#
#
# Mechanical properties :
#
#
# Convention : Reuss Voigt Hill
#
# Bulk Modulus (GPa) = 33.98683 34.24216 34.11450
# Shear Modulus (GPa) = 43.63969 612.37476 328.00722
#
# Velocity S-wave (km/s) = 4.59236 17.20299 12.59033
# Velocity P-wave (km/s) = 6.67417 20.27655 15.09442
#
# Compressibility (1/GPa) = 0.02942316
#
# Stress axis : x y z
#
# Youngs Moduli (GPa) = 62.96700 62.96700 54.94582
#
# Poissons Ratio (x) = 0.22768 0.18280
# Poissons Ratio (y) = 0.22768 0.18280
# Poissons Ratio (z) = 0.20948 0.20948
#
# Static dielectric constant tensor:
#      x y z
#    x 1.734240 0.000000 0.000000 
#    y 0.000000 1.734240 0.000000 
#    z 0.000000 0.000000 1.746070 
# 
# From -- ./inp_files/5879.got.cif
#   From: 2010.05.17/outbox.cif.g08.bks.cpg/sg87_3_cif.got.tgz:5879.got - 2010.06.03 19:07:00.
