data_PCOD9545724
_publ_section_title
;
Structure prediction by ZEFSAII (Michael W. Deem and Ramdas Pophale) SiO2 
 PCOD9545724
Probable space group: I 4/M
;
_chemical_formula_sum "Si O2"
_cell_formula_units_Z 96
_cell_length_a 23.724124
_cell_length_b 23.724124
_cell_length_c 7.499031
_cell_angle_alpha 90.000000
_cell_angle_beta 90.000000
_cell_angle_gamma 90.000000
_cell_volume 4220.710061
_symmetry_space_group_name_H-M "I 4/M"
_symmetry_group_IT_number 87
_symmetry_cell_setting 'tetragonal'
loop_
_space_group_symop_operation_xyz
x,y,z
-y,x,z
-x,-y,z
y,-x,z
-x,-y,-z
y,-x,-z
x,y,-z
-y,x,-z
1/2+x,1/2+y,1/2+z
1/2-y,1/2+x,1/2+z
1/2-x,1/2-y,1/2+z
1/2+y,1/2-x,1/2+z
1/2-x,1/2-y,1/2-z
1/2+y,1/2-x,1/2-z
1/2+x,1/2+y,1/2-z
1/2-y,1/2+x,1/2-z
loop_
_atom_site_type_symbol
_atom_site_label
_atom_site_fract_x
_atom_site_fract_y
_atom_site_fract_z
Si Si1 0.978165 0.835526 0.214503
Si Si2 0.662794 0.271362 0.707432
Si Si3 0.721347 0.164057 0.282524
Si Si4 0.490051 0.909419 0.204668
Si Si5 0.706926 0.036475 0.711667
Si Si6 0.128015 0.094955 0.781167
O O1 0.986223 0.770133 0.262822
O O2 0.920262 0.862777 0.281680
O O3 0.029994 0.875055 0.269739
O O4 0.976017 0.836353 0.000000
O O5 0.649365 0.262880 0.500000
O O6 0.675601 0.209798 0.780772
O O7 0.719534 0.309242 0.720473
O O8 0.615642 0.311270 0.785114
O O9 0.723149 0.164151 0.500000
O O10 0.709768 0.101006 0.219884
O O11 0.443966 0.950655 0.292021
O O12 0.501541 0.846894 0.281380
O O13 0.471578 0.904003 0.000000
O O14 0.696750 0.040554 0.500000
O O15 0.127740 0.097606 0.000000
#
# Coordination Sequence:
#
# PCOD9545724 Si02
#       6
#    16  16  16  16  16  16
#     4  10  20  35  55  78 105 141 181 227 276 325
#     4   9  16  29  48  72 100 130 168 209 255 315
#     4   9  17  29  48  72 101 134 165 207 260 311
#     4  10  21  38  59  83 113 148 186 224 265 315
#     4  10  21  36  54  81 112 142 179 223 271 323
#     4   9  18  32  52  78 105 135 178 225 269 320
#
# _framework density 22.744987999999999
#
# number of rings (size 3 to 8) (size 9 to 14) (size 15 to 20)
#    0.000    2.500    1.667    1.000    0.000    3.000 
#    0.000    6.667    0.000    4.000    0.000    1.167 
#    0.000    0.000    0.000    0.000    0.000    0.000 
#
# Total GULP energy -267815.746839 kJ/mol
# GULP energy per Si atom -5579.494726 kJ/mol
# Density = 2.269322 g / cm^3
# Si number density = 22.744988 Si / 1000 Ang^3
#
#
#
# Elastic Constant Matrix: (Units=GPa)
#
#
# Indices 1 2 3 4 5 6 
#
# 1 89.5557 28.6234 -9.7423 0.0000 0.0000 14.3691
# 2 28.6234 89.5557 -9.7423 0.0000 0.0000 -14.3691
# 3 -9.7423 -9.7423 61.4592 0.0000 0.0000 0.0000
# 4 0.0000 0.0000 0.0000 -13.3839 0.0000 0.0000
# 5 0.0000 0.0000 0.0000 0.0000 -13.3839 0.0000
# 6 14.3691 -14.3691 0.0000 0.0000 0.0000 5.6230
#
#
#
# Elastic Compliance Matrix: (Units=1/GPa)
#
#
# Indices 1 2 3 4 5 6 
#
# 1 -0.035639 0.044328 0.001377 0.000000 0.000000 0.204349
# 2 0.044328 -0.035639 0.001377 0.000000 0.000000 -0.204349
# 3 0.001377 0.001377 0.016708 0.000000 0.000000 0.000000
# 4 0.000000 0.000000 0.000000 -0.074717 0.000000 0.000000
# 5 0.000000 0.000000 0.000000 0.000000 -0.074717 0.000000
# 6 0.204349 -0.204349 0.000000 0.000000 0.000000 -0.866544
#
#
# Mechanical properties :
#
#
# Convention : Reuss Voigt Hill
#
# Bulk Modulus (GPa) = 25.25604 28.76093 27.00849
# Shear Modulus (GPa) = -4.34210 11.19983 3.42886
#
# Velocity S-wave (km/s) = -1.38318 2.22144 1.22914
# Velocity P-wave (km/s) = 2.92869 4.38772 3.73023
#
# Compressibility (1/GPa) = 0.03959449
#
# Stress axis : x y z
#
# Youngs Moduli (GPa) = -28.05892 -28.05892 59.85300
#
# Poissons Ratio (x) = 1.24380 -0.08244
# Poissons Ratio (y) = 1.24380 -0.08244
# Poissons Ratio (z) = 0.03865 0.03865
#
# Static dielectric constant tensor:
#      x y z
#    x 1.854800 0.000000 0.000000 
#    y 0.000000 1.854800 0.000000 
#    z 0.000000 0.000000 1.862300 
# 
# From -- ./inp_files/1362.got.cif
#   From: 2010.05.17/outbox.cif.g08.bks.cpg/sg87_1_cif.got.tgz:1362.got - 2010.06.03 19:07:00.
