data_PCOD9545592
_publ_section_title
;
Structure prediction by ZEFSAII (Michael W. Deem and Ramdas Pophale) SiO2 
 PCOD9545592
Probable space group: I 4/M
;
_chemical_formula_sum "Si O2"
_cell_formula_units_Z 96
_cell_length_a 17.045327
_cell_length_b 17.045327
_cell_length_c 19.215435
_cell_angle_alpha 90.000000
_cell_angle_beta 90.000000
_cell_angle_gamma 90.000000
_cell_volume 5582.913447
_symmetry_space_group_name_H-M "I 4/M"
_symmetry_group_IT_number 87
_symmetry_cell_setting 'tetragonal'
loop_
_space_group_symop_operation_xyz
x,y,z
-y,x,z
-x,-y,z
y,-x,z
-x,-y,-z
y,-x,-z
x,y,-z
-y,x,-z
1/2+x,1/2+y,1/2+z
1/2-y,1/2+x,1/2+z
1/2-x,1/2-y,1/2+z
1/2+y,1/2-x,1/2+z
1/2-x,1/2-y,1/2-z
1/2+y,1/2-x,1/2-z
1/2+x,1/2+y,1/2-z
1/2-y,1/2+x,1/2-z
loop_
_atom_site_type_symbol
_atom_site_label
_atom_site_fract_x
_atom_site_fract_y
_atom_site_fract_z
Si Si1 0.167846 0.103447 0.421948
Si Si2 0.667802 0.990013 0.420958
Si Si3 0.337548 0.755762 0.720045
Si Si4 0.100650 0.435811 0.780440
Si Si5 0.894437 0.929388 0.273541
Si Si6 0.173243 0.291376 0.420803
O O1 0.135895 0.088886 0.500000
O O2 0.250196 0.057444 0.416268
O O3 0.115919 0.077830 0.357009
O O4 0.180432 0.196987 0.415375
O O5 0.638129 0.980770 0.500000
O O6 0.611348 0.958302 0.361054
O O7 0.686716 0.081827 0.409130
O O8 0.250000 0.750000 0.750000
O O9 0.381296 0.828235 0.756808
O O10 0.383513 0.676749 0.738475
O O11 0.330956 0.774896 0.638422
O O12 0.102504 0.517180 0.737187
O O13 0.978961 0.894337 0.254851
O O14 0.193672 0.313497 0.500000
#
# Coordination Sequence:
#
# PCOD9545592 Si02
#       6
#    16  16  16  16  16  16
#     4  10  19  32  55  84 118 158 193 233 286 353
#     4  10  19  35  56  82 121 158 191 240 298 355
#     4  12  23  38  64  85 117 160 200 237 298 349
#     4  11  23  38  58  89 118 151 201 248 291 355
#     4  11  24  38  57  89 122 153 198 247 289 347
#     4  10  20  36  58  86 115 153 201 241 291 357
#
# _framework density 17.195322000000001
#
# number of rings (size 3 to 8) (size 9 to 14) (size 15 to 20)
#    0.000    1.333    5.000    1.000    2.333    2.000 
#    0.000    3.333    0.000    1.000    0.000    1.167 
#    0.000    0.000    0.000    0.000    0.000    0.000 
#
# Total GULP energy -268064.167947 kJ/mol
# GULP energy per Si atom -5584.670166 kJ/mol
# Density = 1.715619 g / cm^3
# Si number density = 17.195322 Si / 1000 Ang^3
#
#
#
# Elastic Constant Matrix: (Units=GPa)
#
#
# Indices 1 2 3 4 5 6 
#
# 1 95.7155 68.7434 53.9731 0.0000 0.0000 8.6748
# 2 68.7434 95.7155 53.9731 0.0000 0.0000 -8.6748
# 3 53.9731 53.9731 125.4886 0.0000 0.0000 0.0000
# 4 0.0000 0.0000 0.0000 28.0504 0.0000 0.0000
# 5 0.0000 0.0000 0.0000 0.0000 28.0504 0.0000
# 6 8.6748 -8.6748 0.0000 0.0000 0.0000 25.2478
#
#
#
# Elastic Compliance Matrix: (Units=1/GPa)
#
#
# Indices 1 2 3 4 5 6 
#
# 1 0.028033 -0.019561 -0.003644 0.000000 0.000000 -0.016353
# 2 -0.019561 0.028033 -0.003644 0.000000 0.000000 0.016353
# 3 -0.003644 -0.003644 0.011103 0.000000 0.000000 0.000000
# 4 0.000000 0.000000 0.000000 0.035650 0.000000 0.000000
# 5 0.000000 0.000000 0.000000 0.000000 0.035650 0.000000
# 6 -0.016353 0.016353 0.000000 0.000000 0.000000 0.050844
#
#
# Mechanical properties :
#
#
# Convention : Reuss Voigt Hill
#
# Bulk Modulus (GPa) = 74.22699 74.47765 74.35232
# Shear Modulus (GPa) = 20.20181 25.61838 22.91009
#
# Velocity S-wave (km/s) = 3.43132 3.86404 3.65409
# Velocity P-wave (km/s) = 7.67849 7.95704 7.81901
#
# Compressibility (1/GPa) = 0.01347219
#
# Stress axis : x y z
#
# Youngs Moduli (GPa) = 35.67207 35.67207 90.06217
#
# Poissons Ratio (x) = 0.69777 0.32819
# Poissons Ratio (y) = 0.69777 0.32819
# Poissons Ratio (z) = 0.12999 0.12999
#
# Static dielectric constant tensor:
#      x y z
#    x 1.568630 0.000000 0.000000 
#    y 0.000000 1.568630 0.000000 
#    z 0.000000 0.000000 1.596180 
# 
# From -- ./inp_files/4428.got.cif
#   From: 2010.05.17/outbox.cif.g08.bks.cpg/sg87_3_cif.got.tgz:4428.got - 2010.06.03 19:07:00.
