data_PCOD9545575
_publ_section_title
;
Structure prediction by ZEFSAII (Michael W. Deem and Ramdas Pophale) SiO2 
 PCOD9545575
Probable space group: I 4/M
;
_chemical_formula_sum "Si O2"
_cell_formula_units_Z 96
_cell_length_a 24.312102
_cell_length_b 24.312102
_cell_length_c 8.781464
_cell_angle_alpha 90.000000
_cell_angle_beta 90.000000
_cell_angle_gamma 90.000000
_cell_volume 5190.532845
_symmetry_space_group_name_H-M "I 4/M"
_symmetry_group_IT_number 87
_symmetry_cell_setting 'tetragonal'
loop_
_space_group_symop_operation_xyz
x,y,z
-y,x,z
-x,-y,z
y,-x,z
-x,-y,-z
y,-x,-z
x,y,-z
-y,x,-z
1/2+x,1/2+y,1/2+z
1/2-y,1/2+x,1/2+z
1/2-x,1/2-y,1/2+z
1/2+y,1/2-x,1/2+z
1/2-x,1/2-y,1/2-z
1/2+y,1/2-x,1/2-z
1/2+x,1/2+y,1/2-z
1/2-y,1/2+x,1/2-z
loop_
_atom_site_type_symbol
_atom_site_label
_atom_site_fract_x
_atom_site_fract_y
_atom_site_fract_z
Si Si1 0.693051 0.817372 0.674510
Si Si2 0.077415 0.190371 0.683497
Si Si3 0.182668 0.576964 0.181880
Si Si4 0.417280 0.984211 0.818818
Si Si5 0.986127 0.912696 0.685434
Si Si6 0.816481 0.193521 0.174776
O O1 0.686300 0.835257 0.500000
O O2 0.639507 0.832726 0.771469
O O3 0.751280 0.836423 0.742053
O O4 0.695388 0.750516 0.675745
O O5 0.079664 0.190156 0.500000
O O6 0.068910 0.253659 0.729609
O O7 0.030552 0.148081 0.735330
O O8 0.136491 0.169839 0.743248
O O9 0.142325 0.535282 0.265632
O O10 0.178303 0.570781 0.000000
O O11 0.460580 0.937754 0.764076
O O12 0.420533 0.991231 0.000000
O O13 0.986992 0.912462 0.500000
O O14 0.044006 0.938781 0.733170
O O15 0.834397 0.193199 0.000000
#
# Coordination Sequence:
#
# PCOD9545575 Si02
#       6
#    16  16  16  16  16  16
#     4   9  16  27  44  67  95 131 173 211 251 304
#     4   9  17  29  48  74 104 136 171 215 264 313
#     4  10  19  32  50  75 107 139 171 212 262 313
#     4  11  22  39  61  82 104 134 173 214 256 306
#     4   8  14  27  49  75 100 129 170 217 259 300
#     4   9  16  26  42  65  96 133 170 208 253 308
#
# _framework density 18.495211000000001
#
# number of rings (size 3 to 8) (size 9 to 14) (size 15 to 20)
#    0.000    2.667    0.000    4.000    0.000    4.667 
#    0.000    1.667    0.000    5.000    0.000    1.167 
#    0.000    0.000    0.000    0.000    0.000    0.000 
#
# Total GULP energy -267591.506717 kJ/mol
# GULP energy per Si atom -5574.823057 kJ/mol
# Density = 1.845311 g / cm^3
# Si number density = 18.495211 Si / 1000 Ang^3
#
#
#
# Elastic Constant Matrix: (Units=GPa)
#
#
# Indices 1 2 3 4 5 6 
#
# 1 51.2016 35.3362 9.0899 0.0000 0.0000 0.5002
# 2 35.3362 51.2016 9.0899 0.0000 0.0000 -0.5002
# 3 9.0899 9.0899 45.5818 0.0000 0.0000 0.0000
# 4 0.0000 0.0000 0.0000 19.0361 0.0000 0.0000
# 5 0.0000 0.0000 0.0000 0.0000 19.0361 0.0000
# 6 0.5002 -0.5002 0.0000 0.0000 0.0000 15.8372
#
#
#
# Elastic Compliance Matrix: (Units=1/GPa)
#
#
# Indices 1 2 3 4 5 6 
#
# 1 0.037608 -0.025548 -0.002405 0.000000 0.000000 -0.001995
# 2 -0.025548 0.037608 -0.002405 0.000000 0.000000 0.001995
# 3 -0.002405 -0.002405 0.022898 0.000000 0.000000 0.000000
# 4 0.000000 0.000000 0.000000 0.052532 0.000000 0.000000
# 5 0.000000 0.000000 0.000000 0.000000 0.052532 0.000000
# 6 -0.001995 0.001995 0.000000 0.000000 0.000000 0.063268
#
#
# Mechanical properties :
#
#
# Convention : Reuss Voigt Hill
#
# Bulk Modulus (GPa) = 26.73868 28.33519 27.53694
# Shear Modulus (GPa) = 14.72196 17.07983 15.90089
#
# Velocity S-wave (km/s) = 2.82439 3.04217 2.93530
# Velocity P-wave (km/s) = 5.01245 5.26244 5.13897
#
# Compressibility (1/GPa) = 0.03739901
#
# Stress axis : x y z
#
# Youngs Moduli (GPa) = 26.58977 26.58977 43.67223
#
# Poissons Ratio (x) = 0.67930 0.10504
# Poissons Ratio (y) = 0.67930 0.10504
# Poissons Ratio (z) = 0.06395 0.06395
#
# Static dielectric constant tensor:
#      x y z
#    x 1.643750 0.000000 0.000000 
#    y 0.000000 1.643750 0.000000 
#    z 0.000000 0.000000 1.622800 
# 
# From -- ./inp_files/1407.got.cif
#   From: 2010.05.17/outbox.cif.g08.bks.cpg/sg87_1_cif.got.tgz:1407.got - 2010.06.03 19:07:00.
