data_PCOD9545004
_publ_section_title
;
Structure prediction by ZEFSAII (Michael W. Deem and Ramdas Pophale) SiO2 
 PCOD9545004
Probable space group: P 42/N
;
_chemical_formula_sum "Si O2"
_cell_formula_units_Z 48
_cell_length_a 11.342231
_cell_length_b 11.342231
_cell_length_c 17.895892
_cell_angle_alpha 90.000000
_cell_angle_beta 90.000000
_cell_angle_gamma 90.000000
_cell_volume 2302.238574
_symmetry_space_group_name_H-M "P 42/N"
_symmetry_group_IT_number 86
_space_group.IT_coordinate_system_code '2'
_symmetry_cell_setting 'tetragonal'
loop_
_space_group_symop_operation_xyz
x,y,z
-y,1/2+x,1/2+z
1/2-x,1/2-y,z
1/2+y,-x,1/2+z
-x,-y,-z
y,1/2-x,1/2-z
1/2+x,1/2+y,-z
1/2-y,x,1/2-z
loop_
_atom_site_type_symbol
_atom_site_label
_atom_site_fract_x
_atom_site_fract_y
_atom_site_fract_z
Si Si1 0.703045 0.991679 0.528218
Si Si2 0.196042 0.059705 0.863093
Si Si3 0.123110 0.813218 0.660054
Si Si4 0.619517 0.303046 0.177099
Si Si5 0.305401 0.426139 0.622059
Si Si6 0.514523 0.173276 0.468986
O O1 0.794822 0.935657 0.469383
O O2 0.599754 0.902405 0.553004
O O3 0.745334 0.049460 0.605323
O O4 0.629708 0.090528 0.481246
O O5 0.323431 0.112814 0.843833
O O6 0.107901 0.170558 0.857856
O O7 0.139950 0.944300 0.827156
O O8 0.215348 0.018957 0.948714
O O9 0.250000 0.750000 0.655057
O O10 0.069871 0.778860 0.740576
O O11 0.044890 0.769785 0.591523
O O12 0.150104 0.950699 0.652371
O O13 0.750000 0.250000 0.172926
#
# Coordination Sequence:
#
# PCOD9545004 Si02
#       6
#     8   8   8   8   8   8
#     4   9  18  36  60  77 109 158 195 238 289 341
#     4   9  21  39  60  90 119 150 195 249 305 342
#     4  11  22  35  55  86 119 154 198 238 293 364
#     4  10  23  38  53  84 122 158 195 242 294 357
#     4  10  20  37  64  90 114 151 199 249 297 355
#     4   9  18  35  58  81 110 151 197 237 285 351
#
# _framework density 20.849271999999999
#
# number of rings (size 3 to 8) (size 9 to 14) (size 15 to 20)
#    0.000    2.333    1.667    1.000    4.667    2.000 
#    3.000    1.667    0.000    0.000    0.000    0.000 
#    0.000    0.000    0.000    0.000    0.000    0.000 
#
# Total GULP energy -267764.775870 kJ/mol
# GULP energy per Si atom -5578.432831 kJ/mol
# Density = 2.080182 g / cm^3
# Si number density = 20.849272 Si / 1000 Ang^3
#
#
#
# Elastic Constant Matrix: (Units=GPa)
#
#
# Indices 1 2 3 4 5 6 
#
# 1 29.5793 -8.8095 2.5167 0.0000 0.0000 -2.1320
# 2 -8.8095 29.5793 2.5167 0.0000 0.0000 2.1320
# 3 2.5167 2.5167 77.3824 0.0000 0.0000 0.0000
# 4 0.0000 0.0000 0.0000 823.9430 0.0000 0.0000
# 5 0.0000 0.0000 0.0000 0.0000 823.9430 0.0000
# 6 -2.1320 2.1320 0.0000 0.0000 0.0000 7.3806
#
#
#
# Elastic Compliance Matrix: (Units=1/GPa)
#
#
# Indices 1 2 3 4 5 6 
#
# 1 0.037721 0.010808 -0.001578 0.000000 0.000000 0.007774
# 2 0.010808 0.037721 -0.001578 0.000000 0.000000 -0.007774
# 3 -0.001578 -0.001578 0.013026 0.000000 0.000000 0.000000
# 4 0.000000 0.000000 0.000000 0.001214 0.000000 0.000000
# 5 0.000000 0.000000 0.000000 0.000000 0.001214 0.000000
# 6 0.007774 -0.007774 0.000000 0.000000 0.000000 0.139981
#
#
# Mechanical properties :
#
#
# Convention : Reuss Voigt Hill
#
# Bulk Modulus (GPa) = 9.63665 14.33211 11.98438
# Shear Modulus (GPa) = 19.98695 340.40780 180.19738
#
# Velocity S-wave (km/s) = 3.09955 12.79161 9.30679
# Velocity P-wave (km/s) = 4.17633 15.00187 11.01131
#
# Compressibility (1/GPa) = 0.10377053
#
# Stress axis : x y z
#
# Youngs Moduli (GPa) = 26.51046 26.51046 76.77248
#
# Poissons Ratio (x) = -0.28653 0.12117
# Poissons Ratio (y) = -0.28653 0.12117
# Poissons Ratio (z) = 0.04184 0.04184
#
# Static dielectric constant tensor:
#      x y z
#    x 1.765630 0.000000 0.000000 
#    y 0.000000 1.765630 0.000000 
#    z 0.000000 0.000000 1.799270 
# 
# From -- ./inp_files/3569.got.cif
#   From: 2010.05.17/outbox.cif.g08.bks.cpg/sg86_2_cif.got.tgz:3569.got - 2010.06.03 19:03:11.
