data_PCOD9545692
_publ_section_title
;
Structure prediction by ZEFSAII (Michael W. Deem and Ramdas Pophale) SiO2 
 PCOD9545692
Probable space group: I 4/M
;
_chemical_formula_sum "Si O2"
_cell_formula_units_Z 72
_cell_length_a 21.644438
_cell_length_b 21.644438
_cell_length_c 7.609515
_cell_angle_alpha 90.000000
_cell_angle_beta 90.000000
_cell_angle_gamma 90.000000
_cell_volume 3564.918495
_symmetry_space_group_name_H-M "I 4/M"
_symmetry_group_IT_number 87
_symmetry_cell_setting 'tetragonal'
loop_
_space_group_symop_operation_xyz
x,y,z
-y,x,z
-x,-y,z
y,-x,z
-x,-y,-z
y,-x,-z
x,y,-z
-y,x,-z
1/2+x,1/2+y,1/2+z
1/2-y,1/2+x,1/2+z
1/2-x,1/2-y,1/2+z
1/2+y,1/2-x,1/2+z
1/2-x,1/2-y,1/2-z
1/2+y,1/2-x,1/2-z
1/2+x,1/2+y,1/2-z
1/2-y,1/2+x,1/2-z
loop_
_atom_site_type_symbol
_atom_site_label
_atom_site_fract_x
_atom_site_fract_y
_atom_site_fract_z
Si Si1 0.622277 0.660430 0.204974
Si Si2 0.515906 0.903551 0.299344
Si Si3 0.051526 0.089466 0.000000
Si Si4 0.804618 0.390493 0.714585
Si Si5 0.757098 0.677231 0.209716
O O1 0.574957 0.625781 0.329216
O O2 0.611460 0.734229 0.221786
O O3 0.692854 0.647705 0.271489
O O4 0.617338 0.643414 0.000000
O O5 0.496676 0.892487 0.500000
O O6 0.457508 0.932109 0.201558
O O7 0.549831 0.843032 0.227769
O O8 0.978345 0.081287 0.000000
O O9 0.803704 0.390617 0.500000
O O10 0.837733 0.326241 0.772422
O O11 0.750000 0.750000 0.250000
O O12 0.756836 0.669215 0.000000
#
# Coordination Sequence:
#
# PCOD9545692 Si02
#       5
#    16  16   8  16  16
#     4  10  20  38  65  93 120 151 195 251 304 363
#     4  10  20  34  52  73 112 165 208 244 287 343
#     4  11  26  48  68  86 120 161 199 251 313 373
#     4   9  17  34  57  84 121 161 197 247 303 353
#     4   8  15  28  52  84 116 151 187 231 295 350
#
# _framework density 20.196815999999998
#
# number of rings (size 3 to 8) (size 9 to 14) (size 15 to 20)
#    0.000    2.556    1.111    1.333    1.556    2.667 
#    4.000    1.111    0.000    0.000    0.000    0.000 
#    0.000    0.000    0.000    0.000    0.000    0.000 
#
# Total GULP energy -200711.698093 kJ/mol
# GULP energy per Si atom -5575.324947 kJ/mol
# Density = 2.015085 g / cm^3
# Si number density = 20.196816 Si / 1000 Ang^3
#
#
#
# Elastic Constant Matrix: (Units=GPa)
#
#
# Indices 1 2 3 4 5 6 
#
# 1 51.2169 41.9392 18.5136 0.0000 0.0000 -4.8860
# 2 41.9392 51.2169 18.5136 0.0000 0.0000 4.8860
# 3 18.5136 18.5136 74.8701 0.0000 0.0000 0.0000
# 4 0.0000 0.0000 0.0000 11.3713 0.0000 0.0000
# 5 0.0000 0.0000 0.0000 0.0000 11.3713 0.0000
# 6 -4.8860 4.8860 0.0000 0.0000 0.0000 28.8971
#
#
#
# Elastic Compliance Matrix: (Units=1/GPa)
#
#
# Indices 1 2 3 4 5 6 
#
# 1 0.071523 -0.059618 -0.002944 0.000000 0.000000 0.022174
# 2 -0.059618 0.071523 -0.002944 0.000000 0.000000 -0.022174
# 3 -0.002944 -0.002944 0.014812 0.000000 0.000000 0.000000
# 4 0.000000 0.000000 0.000000 0.087941 0.000000 0.000000
# 5 0.000000 0.000000 0.000000 0.000000 0.087941 0.000000
# 6 0.022174 -0.022174 0.000000 0.000000 0.000000 0.042104
#
#
# Mechanical properties :
#
#
# Convention : Reuss Voigt Hill
#
# Bulk Modulus (GPa) = 37.24846 37.24853 37.24850
# Shear Modulus (GPa) = 9.69357 16.88376 13.28866
#
# Velocity S-wave (km/s) = 2.19317 2.89444 2.56785
# Velocity P-wave (km/s) = 4.98960 5.44547 5.22251
#
# Compressibility (1/GPa) = 0.02684674
#
# Stress axis : x y z
#
# Youngs Moduli (GPa) = 13.98147 13.98147 67.51139
#
# Poissons Ratio (x) = 0.83355 0.19874
# Poissons Ratio (y) = 0.83355 0.19874
# Poissons Ratio (z) = 0.04116 0.04116
#
# Static dielectric constant tensor:
#      x y z
#    x 1.723430 0.000000 0.000000 
#    y 0.000000 1.723430 0.000000 
#    z 0.000000 0.000000 1.703410 
# 
# From -- ./inp_files/1043.got.cif
#   From: 2010.05.17/outbox.cif.g08.bks.cpg/sg87_1_cif.got.tgz:1043.got - 2010.06.03 19:07:00.
