data_PCOD9545505
_publ_section_title
;
Structure prediction by ZEFSAII (Michael W. Deem and Ramdas Pophale) SiO2 
 PCOD9545505
Probable space group: I 4/M
;
_chemical_formula_sum "Si O2"
_cell_formula_units_Z 96
_cell_length_a 24.433660
_cell_length_b 24.433660
_cell_length_c 7.468934
_cell_angle_alpha 90.000000
_cell_angle_beta 90.000000
_cell_angle_gamma 90.000000
_cell_volume 4458.981539
_symmetry_space_group_name_H-M "I 4/M"
_symmetry_group_IT_number 87
_symmetry_cell_setting 'tetragonal'
loop_
_space_group_symop_operation_xyz
x,y,z
-y,x,z
-x,-y,z
y,-x,z
-x,-y,-z
y,-x,-z
x,y,-z
-y,x,-z
1/2+x,1/2+y,1/2+z
1/2-y,1/2+x,1/2+z
1/2-x,1/2-y,1/2+z
1/2+y,1/2-x,1/2+z
1/2-x,1/2-y,1/2-z
1/2+y,1/2-x,1/2-z
1/2+x,1/2+y,1/2-z
1/2-y,1/2+x,1/2-z
loop_
_atom_site_type_symbol
_atom_site_label
_atom_site_fract_x
_atom_site_fract_y
_atom_site_fract_z
Si Si1 0.036735 0.781129 0.795116
Si Si2 0.430163 0.554930 0.784374
Si Si3 0.656278 0.951111 0.290513
Si Si4 0.926351 0.641230 0.216281
Si Si5 0.766646 0.084885 0.219944
Si Si6 0.845650 0.860811 0.200390
O O1 0.046283 0.716021 0.796601
O O2 0.090671 0.809654 0.712969
O O3 0.975346 0.788086 0.718127
O O4 0.034404 0.801530 0.000000
O O5 0.425967 0.491457 0.737606
O O6 0.388016 0.594432 0.692685
O O7 0.424636 0.559240 0.000000
O O8 0.666180 0.940562 0.500000
O O9 0.616385 0.904098 0.220101
O O10 0.630328 0.011251 0.271777
O O11 0.911894 0.703126 0.272983
O O12 0.925644 0.640641 0.000000
O O13 0.802501 0.136832 0.281380
O O14 0.768353 0.084255 0.000000
O O15 0.823289 0.851037 0.000000
#
# Coordination Sequence:
#
# PCOD9545505 Si02
#       6
#    16  16  16  16  16  16
#     4   9  18  32  49  71 102 135 165 208 258 292
#     4   9  18  30  41  58  90 127 158 200 262 312
#     4  10  20  34  55  79 101 131 166 197 240 302
#     4   9  19  36  55  76 105 134 159 199 250 293
#     4   8  15  30  49  68  95 130 164 200 246 293
#     4  10  18  29  49  72  91 123 173 214 244 287
#
# _framework density 21.529581
#
# number of rings (size 3 to 8) (size 9 to 14) (size 15 to 20)
#    0.000    2.833    0.000    3.000    0.000    4.333 
#    0.000    8.333    0.000    0.000    0.000    0.000 
#    0.000    0.000    0.000    0.000    0.000    0.000 
#
# Total GULP energy -267709.772789 kJ/mol
# GULP energy per Si atom -5577.286933 kJ/mol
# Density = 2.148058 g / cm^3
# Si number density = 21.529581 Si / 1000 Ang^3
#
#
#
# Elastic Constant Matrix: (Units=GPa)
#
#
# Indices 1 2 3 4 5 6 
#
# 1 74.4122 55.6991 -2.4096 0.0000 0.0000 1.3143
# 2 55.6991 74.4122 -2.4096 0.0000 0.0000 -1.3143
# 3 -2.4096 -2.4096 66.0170 0.0000 0.0000 0.0000
# 4 0.0000 0.0000 0.0000 -157.9011 0.0000 0.0000
# 5 0.0000 0.0000 0.0000 0.0000 -157.9011 0.0000
# 6 1.3143 -1.3143 0.0000 0.0000 0.0000 45.6458
#
#
#
# Elastic Compliance Matrix: (Units=1/GPa)
#
#
# Indices 1 2 3 4 5 6 
#
# 1 0.030676 -0.022980 0.000281 0.000000 0.000000 -0.001545
# 2 -0.022980 0.030676 0.000281 0.000000 0.000000 0.001545
# 3 0.000281 0.000281 0.015168 0.000000 0.000000 0.000000
# 4 0.000000 0.000000 0.000000 -0.006333 0.000000 0.000000
# 5 0.000000 0.000000 0.000000 0.000000 -0.006333 0.000000
# 6 -0.001545 0.001545 0.000000 0.000000 0.000000 0.021997
#
#
# Mechanical properties :
#
#
# Convention : Reuss Voigt Hill
#
# Bulk Modulus (GPa) = 31.56166 35.17791 33.36979
# Shear Modulus (GPa) = 35.39883 -43.10053 -3.85085
#
# Velocity S-wave (km/s) = 4.05927 -4.47914 -1.33885
# Velocity P-wave (km/s) = 6.05489 3.22109 3.62535
#
# Compressibility (1/GPa) = 0.03168401
#
# Stress axis : x y z
#
# Youngs Moduli (GPa) = 32.59893 32.59893 65.92774
#
# Poissons Ratio (x) = 0.74911 -0.01852
# Poissons Ratio (y) = 0.74911 -0.01852
# Poissons Ratio (z) = -0.00916 -0.00916
#
# Static dielectric constant tensor:
#      x y z
#    x 1.787770 0.000000 0.000000 
#    y 0.000000 1.787770 0.000000 
#    z 0.000000 0.000000 1.846550 
# 
# From -- ./inp_files/1319.got.cif
#   From: 2010.05.17/outbox.cif.g08.bks.cpg/sg87_1_cif.got.tgz:1319.got - 2010.06.03 19:07:00.
