data_PCOD9545608
_publ_section_title
;
Structure prediction by ZEFSAII (Michael W. Deem and Ramdas Pophale) SiO2 
 PCOD9545608
Probable space group: I 4/M
;
_chemical_formula_sum "Si O2"
_cell_formula_units_Z 96
_cell_length_a 23.805097
_cell_length_b 23.805097
_cell_length_c 7.800264
_cell_angle_alpha 90.000000
_cell_angle_beta 90.000000
_cell_angle_gamma 90.000000
_cell_volume 4420.274221
_symmetry_space_group_name_H-M "I 4/M"
_symmetry_group_IT_number 87
_symmetry_cell_setting 'tetragonal'
loop_
_space_group_symop_operation_xyz
x,y,z
-y,x,z
-x,-y,z
y,-x,z
-x,-y,-z
y,-x,-z
x,y,-z
-y,x,-z
1/2+x,1/2+y,1/2+z
1/2-y,1/2+x,1/2+z
1/2-x,1/2-y,1/2+z
1/2+y,1/2-x,1/2+z
1/2-x,1/2-y,1/2-z
1/2+y,1/2-x,1/2-z
1/2+x,1/2+y,1/2-z
1/2-y,1/2+x,1/2-z
loop_
_atom_site_type_symbol
_atom_site_label
_atom_site_fract_x
_atom_site_fract_y
_atom_site_fract_z
Si Si1 0.209424 0.959893 0.794210
Si Si2 0.908209 0.379554 0.194826
Si Si3 0.219406 0.337323 0.800458
Si Si4 0.019529 0.333688 0.798347
Si Si5 0.000979 0.090817 0.790727
Si Si6 0.330891 0.282740 0.206051
O O1 0.270745 0.977124 0.724949
O O2 0.154721 0.993034 0.729925
O O3 0.202355 0.893644 0.758166
O O4 0.211090 0.966532 0.000000
O O5 0.881694 0.317488 0.199748
O O6 0.865293 0.421524 0.284355
O O7 0.969730 0.372236 0.274346
O O8 0.911944 0.400173 0.000000
O O9 0.283089 0.327185 0.740592
O O10 0.188348 0.277059 0.782088
O O11 0.219636 0.353302 0.000000
O O12 0.006234 0.327981 0.000000
O O13 0.946229 0.055336 0.738391
O O14 0.000688 0.091604 0.000000
O O15 0.327863 0.277401 0.000000
#
# Coordination Sequence:
#
# PCOD9545608 Si02
#       6
#    16  16  16  16  16  16
#     4  10  19  33  56  83 113 147 184 234 286 328
#     4  11  23  39  60  84 112 148 190 234 286 346
#     4  10  20  35  55  80 112 146 181 227 280 333
#     4  10  23  40  57  82 113 145 187 239 290 342
#     4   8  15  29  51  81 114 148 189 232 272 320
#     4  10  20  33  53  82 113 146 184 223 273 337
#
# _framework density 21.718111
#
# number of rings (size 3 to 8) (size 9 to 14) (size 15 to 20)
#    0.000    2.167    1.667    2.000    0.000    5.000 
#    0.000    5.000    0.000    1.000    0.000    1.167 
#    0.000    0.000    0.000    0.000    0.000    0.000 
#
# Total GULP energy -267988.583251 kJ/mol
# GULP energy per Si atom -5583.095484 kJ/mol
# Density = 2.166868 g / cm^3
# Si number density = 21.718111 Si / 1000 Ang^3
#
#
#
# Elastic Constant Matrix: (Units=GPa)
#
#
# Indices 1 2 3 4 5 6 
#
# 1 84.1051 36.7094 4.0750 0.0000 0.0000 -14.1109
# 2 36.7094 84.1051 4.0750 0.0000 0.0000 14.1109
# 3 4.0750 4.0750 34.2337 0.0000 0.0000 0.0000
# 4 0.0000 0.0000 0.0000 14.8112 0.0000 0.0000
# 5 0.0000 0.0000 0.0000 0.0000 14.8112 0.0000
# 6 -14.1109 14.1109 0.0000 0.0000 0.0000 10.0840
#
#
#
# Elastic Compliance Matrix: (Units=1/GPa)
#
#
# Indices 1 2 3 4 5 6 
#
# 1 0.067432 -0.059088 -0.000993 0.000000 0.000000 0.177045
# 2 -0.059088 0.067432 -0.000993 0.000000 0.000000 -0.177045
# 3 -0.000993 -0.000993 0.029447 0.000000 0.000000 0.000000
# 4 0.000000 0.000000 0.000000 0.067517 0.000000 0.000000
# 5 0.000000 0.000000 0.000000 0.000000 0.067517 0.000000
# 6 0.177045 -0.177045 0.000000 0.000000 0.000000 0.594660
#
#
# Mechanical properties :
#
#
# Convention : Reuss Voigt Hill
#
# Bulk Modulus (GPa) = 23.71761 32.46253 28.09007
# Shear Modulus (GPa) = 4.85338 18.44688 11.65013
#
# Velocity S-wave (km/s) = 1.49652 2.91757 2.31860
# Velocity P-wave (km/s) = 3.73235 5.13121 4.48663
#
# Compressibility (1/GPa) = 0.04216277
#
# Stress axis : x y z
#
# Youngs Moduli (GPa) = 14.82965 14.82965 33.95876
#
# Poissons Ratio (x) = 0.87626 0.03373
# Poissons Ratio (y) = 0.87626 0.03373
# Poissons Ratio (z) = 0.01473 0.01473
#
# Static dielectric constant tensor:
#      x y z
#    x 1.794070 0.000000 0.000000 
#    y 0.000000 1.794070 0.000000 
#    z 0.000000 0.000000 1.804040 
# 
# From -- ./inp_files/1352.got.cif
#   From: 2010.05.17/outbox.cif.g08.bks.cpg/sg87_1_cif.got.tgz:1352.got - 2010.06.03 19:07:00.
