data_PCOD9545281
_publ_section_title
;
Structure prediction by ZEFSAII (Michael W. Deem and Ramdas Pophale) SiO2 
 PCOD9545281
Probable space group: P 42/N
;
_chemical_formula_sum "Si O2"
_cell_formula_units_Z 36
_cell_length_a 7.734165
_cell_length_b 7.734165
_cell_length_c 25.663329
_cell_angle_alpha 90.000000
_cell_angle_beta 90.000000
_cell_angle_gamma 90.000000
_cell_volume 1535.111261
_symmetry_space_group_name_H-M "P 42/N"
_symmetry_group_IT_number 86
_space_group.IT_coordinate_system_code '2'
_symmetry_cell_setting 'tetragonal'
loop_
_space_group_symop_operation_xyz
x,y,z
-y,1/2+x,1/2+z
1/2-x,1/2-y,z
1/2+y,-x,1/2+z
-x,-y,-z
y,1/2-x,1/2-z
1/2+x,1/2+y,-z
1/2-y,x,1/2-z
loop_
_atom_site_type_symbol
_atom_site_label
_atom_site_fract_x
_atom_site_fract_y
_atom_site_fract_z
Si Si1 0.250000 0.750000 0.184124
Si Si2 0.941072 0.715693 0.048012
Si Si3 0.009113 0.875734 0.760291
Si Si4 0.484935 0.044585 0.373044
Si Si5 0.317726 0.564730 0.434751
O O1 0.103178 0.672257 0.222178
O O2 0.210444 0.913681 0.148279
O O3 0.750000 0.750000 0.026687
O O4 0.955950 0.522955 0.071554
O O5 0.966633 0.869121 0.089104
O O6 0.057451 0.719919 0.996632
O O7 0.964630 0.669097 0.759244
O O8 0.048638 0.937945 0.818641
O O9 0.309153 0.064674 0.404811
O O10 0.250000 0.750000 0.415425
#
# Coordination Sequence:
#
# PCOD9545281 Si02
#       5
#     4   8   8   8   8
#     4  10  24  42  68 104 134 184 240 284 360 428
#     4  11  25  43  66 106 135 181 232 282 358 426
#     4   9  21  44  66  97 135 174 233 301 346 411
#     4  11  24  43  71  96 139 185 233 284 361 429
#     4  11  25  44  68 100 145 174 229 294 347 425
#
# _framework density 23.451069
#
# number of rings (size 3 to 8) (size 9 to 14) (size 15 to 20)
#    0.000    1.556    2.222    0.667    6.222    1.778 
#    8.000    0.000    0.000    0.000    0.000    0.000 
#    0.000    0.000    0.000    0.000    0.000    0.000 
#
# Total GULP energy -200908.122263 kJ/mol
# GULP energy per Si atom -5580.781174 kJ/mol
# Density = 2.339769 g / cm^3
# Si number density = 23.451069 Si / 1000 Ang^3
#
#
#
# Elastic Constant Matrix: (Units=GPa)
#
#
# Indices 1 2 3 4 5 6 
#
# 1 124.4458 34.4939 46.2622 0.0000 0.0000 16.0667
# 2 34.4939 124.4458 46.2622 0.0000 0.0000 -16.0667
# 3 46.2622 46.2622 84.1864 0.0000 0.0000 0.0000
# 4 0.0000 0.0000 0.0000 114.0770 0.0000 0.0000
# 5 0.0000 0.0000 0.0000 0.0000 114.0770 0.0000
# 6 16.0667 -16.0667 0.0000 0.0000 0.0000 15.3729
#
#
#
# Elastic Compliance Matrix: (Units=1/GPa)
#
#
# Indices 1 2 3 4 5 6 
#
# 1 0.013496 -0.004245 -0.005084 0.000000 0.000000 -0.018541
# 2 -0.004245 0.013496 -0.005084 0.000000 0.000000 0.018541
# 3 -0.005084 -0.005084 0.017466 0.000000 0.000000 0.000000
# 4 0.000000 0.000000 0.000000 0.008766 0.000000 0.000000
# 5 0.000000 0.000000 0.000000 0.000000 0.008766 0.000000
# 6 -0.018541 0.018541 0.000000 0.000000 0.000000 0.103806
#
#
# Mechanical properties :
#
#
# Convention : Reuss Voigt Hill
#
# Bulk Modulus (GPa) = 63.96697 65.23494 64.60095
# Shear Modulus (GPa) = 25.02127 62.44268 43.73198
#
# Velocity S-wave (km/s) = 3.26997 5.16571 4.32304
# Velocity P-wave (km/s) = 6.44926 7.96601 7.24742
#
# Compressibility (1/GPa) = 0.01563307
#
# Stress axis : x y z
#
# Youngs Moduli (GPa) = 74.09724 74.09724 57.25561
#
# Poissons Ratio (x) = 0.31452 0.29107
# Poissons Ratio (y) = 0.31452 0.29107
# Poissons Ratio (z) = 0.37668 0.37668
#
# Static dielectric constant tensor:
#      x y z
#    x 1.976220 0.000000 0.000000 
#    y 0.000000 1.976220 0.000000 
#    z 0.000000 0.000000 1.907160 
# 
# From -- ./inp_files/3959.got.cif
#   From: 2010.05.17/outbox.cif.g08.bks.cpg/sg86_2_cif.got.tgz:3959.got - 2010.06.03 19:03:11.
