data_PCOD9545384
_publ_section_title
;
Structure prediction by ZEFSAII (Michael W. Deem and Ramdas Pophale) SiO2 
 PCOD9545384
Probable space group: P 42/N
;
_chemical_formula_sum "Si O2"
_cell_formula_units_Z 24
_cell_length_a 8.088267
_cell_length_b 8.088267
_cell_length_c 16.217578
_cell_angle_alpha 90.000000
_cell_angle_beta 90.000000
_cell_angle_gamma 90.000000
_cell_volume 1060.954975
_symmetry_space_group_name_H-M "P 42/N"
_symmetry_group_IT_number 86
_space_group.IT_coordinate_system_code '2'
_symmetry_cell_setting 'tetragonal'
loop_
_space_group_symop_operation_xyz
x,y,z
-y,1/2+x,1/2+z
1/2-x,1/2-y,z
1/2+y,-x,1/2+z
-x,-y,-z
y,1/2-x,1/2-z
1/2+x,1/2+y,-z
1/2-y,x,1/2-z
loop_
_atom_site_type_symbol
_atom_site_label
_atom_site_fract_x
_atom_site_fract_y
_atom_site_fract_z
Si Si1 0.586472 0.389331 0.651584
Si Si2 0.467046 0.587588 0.914134
Si Si3 0.734016 0.074235 0.827590
O O1 0.523658 0.204110 0.630453
O O2 0.716273 0.437118 0.580025
O O3 0.697846 0.402360 0.734609
O O4 0.464680 0.541158 0.664625
O O5 0.636210 0.555578 0.864150
O O6 0.500000 0.500000 0.000000
O O7 0.750000 0.250000 0.871749
#
# Coordination Sequence:
#
# PCOD9545384 Si02
#       3
#     8   8   8
#     4  11  23  47  74 104 142 197 252 305 377 457
#     4  11  26  45  69 109 152 189 246 307 386 457
#     4  12  23  44  77 104 141 191 251 313 373 456
#
# _framework density 22.621127999999999
#
# number of rings (size 3 to 8) (size 9 to 14) (size 15 to 20)
#    0.000    0.667    6.667    1.000    4.667    2.667 
#    6.000    3.333    0.000    0.000    0.000    0.000 
#    0.000    0.000    0.000    0.000    0.000    0.000 
#
# Total GULP energy -133760.601207 kJ/mol
# GULP energy per Si atom -5573.358384 kJ/mol
# Density = 2.256964 g / cm^3
# Si number density = 22.621128 Si / 1000 Ang^3
#
#
#
# Elastic Constant Matrix: (Units=GPa)
#
#
# Indices 1 2 3 4 5 6 
#
# 1 96.3615 27.6731 1.8329 0.0000 0.0000 -6.6202
# 2 27.6731 96.3615 1.8329 0.0000 0.0000 6.6202
# 3 1.8329 1.8329 90.9230 0.0000 0.0000 0.0000
# 4 0.0000 0.0000 0.0000 18.3469 0.0000 0.0000
# 5 0.0000 0.0000 0.0000 0.0000 18.3469 0.0000
# 6 -6.6202 6.6202 0.0000 0.0000 0.0000 38.9083
#
#
#
# Elastic Compliance Matrix: (Units=1/GPa)
#
#
# Indices 1 2 3 4 5 6 
#
# 1 0.011560 -0.003493 -0.000163 0.000000 0.000000 0.002561
# 2 -0.003493 0.011560 -0.000163 0.000000 0.000000 -0.002561
# 3 -0.000163 -0.000163 0.011005 0.000000 0.000000 0.000000
# 4 0.000000 0.000000 0.000000 0.054505 0.000000 0.000000
# 5 0.000000 0.000000 0.000000 0.000000 0.054505 0.000000
# 6 0.002561 -0.002561 0.000000 0.000000 0.000000 0.026573
#
#
# Mechanical properties :
#
#
# Convention : Reuss Voigt Hill
#
# Bulk Modulus (GPa) = 37.75217 38.48040 38.11628
# Shear Modulus (GPa) = 26.85683 31.94090 29.39886
#
# Velocity S-wave (km/s) = 3.44938 3.76173 3.60893
# Velocity P-wave (km/s) = 5.70872 5.99293 5.85255
#
# Compressibility (1/GPa) = 0.02648855
#
# Stress axis : x y z
#
# Youngs Moduli (GPa) = 86.50801 86.50801 90.86884
#
# Poissons Ratio (x) = 0.30213 0.01478
# Poissons Ratio (y) = 0.30213 0.01478
# Poissons Ratio (z) = 0.01407 0.01407
#
# Static dielectric constant tensor:
#      x y z
#    x 1.944200 0.000000 0.000000 
#    y 0.000000 1.944200 0.000000 
#    z 0.000000 0.000000 1.975300 
# 
# From -- ./inp_files/2620.got.cif
#   From: 2010.05.17/outbox.cif.g08.bks.cpg/sg86_2_cif.got.tgz:2620.got - 2010.06.03 19:03:11.
