data_PCOD9545164
_publ_section_title
;
Structure prediction by ZEFSAII (Michael W. Deem and Ramdas Pophale) SiO2 
 PCOD9545164
Probable space group: P 42/N
;
_chemical_formula_sum "Si O2"
_cell_formula_units_Z 50
_cell_length_a 20.043956
_cell_length_b 20.043956
_cell_length_c 6.347667
_cell_angle_alpha 90.000000
_cell_angle_beta 90.000000
_cell_angle_gamma 90.000000
_cell_volume 2550.239787
_symmetry_space_group_name_H-M "P 42/N"
_symmetry_group_IT_number 86
_space_group.IT_coordinate_system_code '2'
_symmetry_cell_setting 'tetragonal'
loop_
_space_group_symop_operation_xyz
x,y,z
-y,1/2+x,1/2+z
1/2-x,1/2-y,z
1/2+y,-x,1/2+z
-x,-y,-z
y,1/2-x,1/2-z
1/2+x,1/2+y,-z
1/2-y,x,1/2-z
loop_
_atom_site_type_symbol
_atom_site_label
_atom_site_fract_x
_atom_site_fract_y
_atom_site_fract_z
Si Si1 0.051271 0.594580 0.407629
Si Si2 0.626295 0.867901 0.673624
Si Si3 0.353228 0.994697 0.148463
Si Si4 0.731466 0.619107 0.470816
Si Si5 0.278520 0.473105 0.916564
Si Si6 0.003513 0.951475 0.298006
Si Si7 0.250000 0.250000 0.750000
O O1 0.114219 0.569330 0.265872
O O2 0.055087 0.568295 0.648724
O O3 0.035867 0.672476 0.382019
O O4 0.984263 0.556041 0.332029
O O5 0.617221 0.946210 0.706582
O O6 0.704406 0.863848 0.615316
O O7 0.585040 0.826956 0.504037
O O8 0.603497 0.832429 0.888530
O O9 0.275333 0.006853 0.096859
O O10 0.381527 0.003824 0.912870
O O11 0.746961 0.561185 0.301048
O O12 0.714247 0.690658 0.371273
O O13 0.000000 0.000000 0.500000
#
# Coordination Sequence:
#
# PCOD9545164 Si02
#       7
#     8   8   8   8   8   8   2
#     4  10  22  40  61  88 127 156 209 276 319 370
#     4  12  23  39  56  88 128 169 211 260 305 376
#     4  11  24  40  61  93 123 163 217 262 322 384
#     4  12  24  37  56  84 128 173 216 253 298 365
#     4  12  25  39  64  90 121 171 216 257 330 384
#     4   9  18  37  63  86 120 163 201 255 320 369
#     4  12  20  38  52  76 122 184 212 242 284 352
#
# _framework density 19.605999000000001
#
# number of rings (size 3 to 8) (size 9 to 14) (size 15 to 20)
#    0.000    0.960    3.200    5.760    4.480    1.280 
#    0.000    0.000    0.000    0.000    0.000    3.360 
#    0.000    0.000    0.000    0.000    0.000    0.000 
#
# Total GULP energy -278484.086722 kJ/mol
# GULP energy per Si atom -5569.681734 kJ/mol
# Density = 1.956137 g / cm^3
# Si number density = 19.605999 Si / 1000 Ang^3
#
#
#
# Elastic Constant Matrix: (Units=GPa)
#
#
# Indices 1 2 3 4 5 6 
#
# 1 66.7973 41.1536 20.0970 0.0000 0.0000 5.2126
# 2 41.1536 66.7973 20.0970 0.0000 0.0000 -5.2126
# 3 20.0970 20.0970 66.3242 0.0000 0.0000 0.0000
# 4 0.0000 0.0000 0.0000 27.3597 0.0000 0.0000
# 5 0.0000 0.0000 0.0000 0.0000 27.3597 0.0000
# 6 5.2126 -5.2126 0.0000 0.0000 0.0000 25.5503
#
#
#
# Elastic Compliance Matrix: (Units=1/GPa)
#
#
# Indices 1 2 3 4 5 6 
#
# 1 0.026482 -0.016041 -0.003164 0.000000 0.000000 -0.008675
# 2 -0.016041 0.026482 -0.003164 0.000000 0.000000 0.008675
# 3 -0.003164 -0.003164 0.016995 0.000000 0.000000 0.000000
# 4 0.000000 0.000000 0.000000 0.036550 0.000000 0.000000
# 5 0.000000 0.000000 0.000000 0.000000 0.036550 0.000000
# 6 -0.008675 0.008675 0.000000 0.000000 0.000000 0.042678
#
#
# Mechanical properties :
#
#
# Convention : Reuss Voigt Hill
#
# Bulk Modulus (GPa) = 39.64753 40.29047 39.96900
# Shear Modulus (GPa) = 20.93085 23.95870 22.44477
#
# Velocity S-wave (km/s) = 3.27092 3.49952 3.38715
# Velocity P-wave (km/s) = 5.87633 6.07647 5.97724
#
# Compressibility (1/GPa) = 0.02522225
#
# Stress axis : x y z
#
# Youngs Moduli (GPa) = 37.76128 37.76128 58.84137
#
# Poissons Ratio (x) = 0.60572 0.18617
# Poissons Ratio (y) = 0.60572 0.18617
# Poissons Ratio (z) = 0.11947 0.11947
#
# Static dielectric constant tensor:
#      x y z
#    x 1.743450 0.000000 0.000000 
#    y 0.000000 1.743450 0.000000 
#    z 0.000000 0.000000 1.810650 
# 
# From -- ./inp_files/436.got.cif
#   From: 2010.05.17/outbox.cif.g08.bks.cpg/sg86_1_cif.got.tgz:436.got - 2010.06.03 19:03:11.
