data_PCOD9545020
_publ_section_title
;
Structure prediction by ZEFSAII (Michael W. Deem and Ramdas Pophale) SiO2 
 PCOD9545020
Probable space group: P 42/N
;
_chemical_formula_sum "Si O2"
_cell_formula_units_Z 32
_cell_length_a 9.505021
_cell_length_b 9.505021
_cell_length_c 17.132704
_cell_angle_alpha 90.000000
_cell_angle_beta 90.000000
_cell_angle_gamma 90.000000
_cell_volume 1547.861411
_symmetry_space_group_name_H-M "P 42/N"
_symmetry_group_IT_number 86
_space_group.IT_coordinate_system_code '2'
_symmetry_cell_setting 'tetragonal'
loop_
_space_group_symop_operation_xyz
x,y,z
-y,1/2+x,1/2+z
1/2-x,1/2-y,z
1/2+y,-x,1/2+z
-x,-y,-z
y,1/2-x,1/2-z
1/2+x,1/2+y,-z
1/2-y,x,1/2-z
loop_
_atom_site_type_symbol
_atom_site_label
_atom_site_fract_x
_atom_site_fract_y
_atom_site_fract_z
Si Si1 0.903640 0.610419 0.270398
Si Si2 0.606412 0.159890 0.581224
Si Si3 0.169405 0.102712 0.054329
Si Si4 0.442978 0.152633 0.273921
O O1 0.906833 0.738856 0.209423
O O2 0.009052 0.647237 0.340907
O O3 0.951949 0.459935 0.239445
O O4 0.750000 0.250000 0.590303
O O5 0.501189 0.216105 0.514324
O O6 0.633948 0.998539 0.553195
O O7 0.250000 0.250000 0.052694
O O8 0.194256 0.025526 0.137550
O O9 0.290815 0.077661 0.276213
#
# Coordination Sequence:
#
# PCOD9545020 Si02
#       4
#     8   8   8   8
#     4  10  24  40  59  91 123 162 208 257 316 374
#     4  10  24  43  63  91 127 167 211 259 312 371
#     4  10  21  41  63  89 125 164 206 259 307 378
#     4  10  20  39  62  93 124 158 210 257 317 371
#
# _framework density 20.673684999999999
#
# number of rings (size 3 to 8) (size 9 to 14) (size 15 to 20)
#    0.000    2.000    2.500    0.000   10.500    1.000 
#   13.500    0.000    0.000    0.000    0.000    0.000 
#    0.000    0.000    0.000    0.000    0.000    0.000 
#
# Total GULP energy -178346.118336 kJ/mol
# GULP energy per Si atom -5573.316198 kJ/mol
# Density = 2.062663 g / cm^3
# Si number density = 20.673685 Si / 1000 Ang^3
#
#
#
# Elastic Constant Matrix: (Units=GPa)
#
#
# Indices 1 2 3 4 5 6 
#
# 1 48.7816 26.3502 29.5258 0.0000 0.0000 14.4648
# 2 26.3502 48.7816 29.5258 0.0000 0.0000 -14.4648
# 3 29.5258 29.5258 54.8471 0.0000 0.0000 0.0000
# 4 0.0000 0.0000 0.0000 24.6065 0.0000 0.0000
# 5 0.0000 0.0000 0.0000 0.0000 24.6065 0.0000
# 6 14.4648 -14.4648 0.0000 0.0000 0.0000 49.3545
#
#
#
# Elastic Compliance Matrix: (Units=1/GPa)
#
#
# Indices 1 2 3 4 5 6 
#
# 1 0.047371 -0.024299 -0.012420 0.000000 0.000000 -0.021005
# 2 -0.024299 0.047371 -0.012420 0.000000 0.000000 0.021005
# 3 -0.012420 -0.012420 0.031605 0.000000 0.000000 0.000000
# 4 0.000000 0.000000 0.000000 0.040640 0.000000 0.000000
# 5 0.000000 0.000000 0.000000 0.000000 0.040640 0.000000
# 6 -0.021005 0.021005 0.000000 0.000000 0.000000 0.032574
#
#
# Mechanical properties :
#
#
# Convention : Reuss Voigt Hill
#
# Bulk Modulus (GPa) = 35.62825 35.91267 35.77046
# Shear Modulus (GPa) = 14.37454 24.18071 19.27763
#
# Velocity S-wave (km/s) = 2.63973 3.42371 3.05695
# Velocity P-wave (km/s) = 5.15382 5.74786 5.45893
#
# Compressibility (1/GPa) = 0.02806762
#
# Stress axis : x y z
#
# Youngs Moduli (GPa) = 21.10980 21.10980 31.64056
#
# Poissons Ratio (x) = 0.51295 0.39299
# Poissons Ratio (y) = 0.51295 0.39299
# Poissons Ratio (z) = 0.26219 0.26219
#
# Static dielectric constant tensor:
#      x y z
#    x 1.775480 0.000000 0.000000 
#    y 0.000000 1.775480 0.000000 
#    z 0.000000 0.000000 1.756560 
# 
# From -- ./inp_files/3814.got.cif
#   From: 2010.05.17/outbox.cif.g08.bks.cpg/sg86_2_cif.got.tgz:3814.got - 2010.06.03 19:03:11.
