data_PCOD9545326
_publ_section_title
;
Structure prediction by ZEFSAII (Michael W. Deem and Ramdas Pophale) SiO2 
 PCOD9545326
Probable space group: P 42/N
;
_chemical_formula_sum "Si O2"
_cell_formula_units_Z 28
_cell_length_a 8.293695
_cell_length_b 8.293695
_cell_length_c 16.835987
_cell_angle_alpha 90.000000
_cell_angle_beta 90.000000
_cell_angle_gamma 90.000000
_cell_volume 1158.069709
_symmetry_space_group_name_H-M "P 42/N"
_symmetry_group_IT_number 86
_space_group.IT_coordinate_system_code '2'
_symmetry_cell_setting 'tetragonal'
loop_
_space_group_symop_operation_xyz
x,y,z
-y,1/2+x,1/2+z
1/2-x,1/2-y,z
1/2+y,-x,1/2+z
-x,-y,-z
y,1/2-x,1/2-z
1/2+x,1/2+y,-z
1/2-y,x,1/2-z
loop_
_atom_site_type_symbol
_atom_site_label
_atom_site_fract_x
_atom_site_fract_y
_atom_site_fract_z
Si Si1 0.999523 0.268042 0.234591
Si Si2 0.821317 0.541613 0.298333
Si Si3 0.750000 0.250000 0.094903
Si Si4 0.833648 0.916008 0.031110
O O1 0.135619 0.401507 0.217609
O O2 0.878665 0.361223 0.292083
O O3 0.902446 0.223723 0.154847
O O4 0.646318 0.572195 0.263371
O O5 0.846625 0.611093 0.384121
O O6 0.772088 0.419363 0.047097
O O7 0.750000 0.750000 0.993517
O O8 0.000000 0.000000 0.000000
#
# Coordination Sequence:
#
# PCOD9545326 Si02
#       4
#     8   8   4   8
#     4  11  21  35  67 112 142 185 251 331 388 457
#     4  11  19  41  75 104 143 198 263 315 390 477
#     4  12  24  48  74 104 158 206 258 332 412 500
#     4  12  27  47  76 111 156 210 262 332 413 498
#
# _framework density 24.178165
#
# number of rings (size 3 to 8) (size 9 to 14) (size 15 to 20)
#    0.000    0.571    8.571    0.000    0.000    3.429 
#    0.000    4.286    0.000    0.000    0.000    0.000 
#    0.000    0.000    0.000    0.000    0.000    0.000 
#
# Total GULP energy -155927.342109 kJ/mol
# GULP energy per Si atom -5568.833647 kJ/mol
# Density = 2.412313 g / cm^3
# Si number density = 24.178165 Si / 1000 Ang^3
#
#
#
# Elastic Constant Matrix: (Units=GPa)
#
#
# Indices 1 2 3 4 5 6 
#
# 1 304.2416 -104.6288 15.8293 0.0000 0.0000 38.1279
# 2 -104.6288 304.2416 15.8293 0.0000 0.0000 -38.1279
# 3 15.8293 15.8293 46.2452 0.0000 0.0000 0.0000
# 4 0.0000 0.0000 0.0000 7.6327 0.0000 0.0000
# 5 0.0000 0.0000 0.0000 0.0000 7.6327 0.0000
# 6 38.1279 -38.1279 0.0000 0.0000 0.0000 86.1212
#
#
#
# Elastic Compliance Matrix: (Units=1/GPa)
#
#
# Indices 1 2 3 4 5 6 
#
# 1 0.003982 0.001316 -0.001813 0.000000 0.000000 -0.001180
# 2 0.001316 0.003982 -0.001813 0.000000 0.000000 0.001180
# 3 -0.001813 -0.001813 0.022865 0.000000 0.000000 0.000000
# 4 0.000000 0.000000 0.000000 0.131016 0.000000 0.000000
# 5 0.000000 0.000000 0.000000 0.000000 0.131016 0.000000
# 6 -0.001180 0.001180 0.000000 0.000000 0.000000 0.012657
#
#
# Mechanical properties :
#
#
# Convention : Reuss Voigt Hill
#
# Bulk Modulus (GPa) = 38.15789 56.53197 47.34493
# Shear Modulus (GPa) = 15.68019 68.79055 42.23537
#
# Velocity S-wave (km/s) = 2.54938 5.33978 4.18405
# Velocity P-wave (km/s) = 4.94793 7.83900 6.55484
#
# Compressibility (1/GPa) = 0.02620690
#
# Stress axis : x y z
#
# Youngs Moduli (GPa) = 251.15670 251.15670 43.73464
#
# Poissons Ratio (x) = -0.33045 0.07930
# Poissons Ratio (y) = -0.33045 0.07930
# Poissons Ratio (z) = 0.45540 0.45540
#
# Static dielectric constant tensor:
#      x y z
#    x 2.056450 0.000000 0.000000 
#    y 0.000000 2.056450 0.000000 
#    z 0.000000 0.000000 1.802180 
# 
# From -- ./inp_files/3262.got.cif
#   From: 2010.05.17/outbox.cif.g08.bks.cpg/sg86_2_cif.got.tgz:3262.got - 2010.06.03 19:03:11.
