data_PCOD9545900
_publ_section_title
;
Structure prediction by ZEFSAII (Michael W. Deem and Ramdas Pophale) SiO2 
 PCOD9545900
Probable space group: I 4/M
;
_chemical_formula_sum "Si O2"
_cell_formula_units_Z 84
_cell_length_a 13.708922
_cell_length_b 13.708922
_cell_length_c 22.211565
_cell_angle_alpha 90.000000
_cell_angle_beta 90.000000
_cell_angle_gamma 90.000000
_cell_volume 4174.320304
_symmetry_space_group_name_H-M "I 4/M"
_symmetry_group_IT_number 87
_symmetry_cell_setting 'tetragonal'
loop_
_space_group_symop_operation_xyz
x,y,z
-y,x,z
-x,-y,z
y,-x,z
-x,-y,-z
y,-x,-z
x,y,-z
-y,x,-z
1/2+x,1/2+y,1/2+z
1/2-y,1/2+x,1/2+z
1/2-x,1/2-y,1/2+z
1/2+y,1/2-x,1/2+z
1/2-x,1/2-y,1/2-z
1/2+y,1/2-x,1/2-z
1/2+x,1/2+y,1/2-z
1/2-y,1/2+x,1/2-z
loop_
_atom_site_type_symbol
_atom_site_label
_atom_site_fract_x
_atom_site_fract_y
_atom_site_fract_z
Si Si1 0.500000 0.000000 0.750000
Si Si2 0.597661 0.301539 0.140546
Si Si3 0.129233 0.909701 0.236331
Si Si4 0.097292 0.250600 0.428533
Si Si5 0.525702 0.115012 0.570423
Si Si6 0.901795 0.667182 0.822370
O O1 0.597916 0.023000 0.786962
O O2 0.618537 0.382637 0.192468
O O3 0.497957 0.295763 0.103084
O O4 0.682996 0.314452 0.092134
O O5 0.607176 0.197839 0.172483
O O6 0.231116 0.874361 0.209487
O O7 0.023743 0.869653 0.217398
O O8 0.082475 0.250798 0.500000
O O9 0.119199 0.361523 0.409648
O O10 0.518196 0.142045 0.500000
O O11 0.452634 0.175659 0.612338
O O12 0.500000 0.000000 0.575305
#
# Coordination Sequence:
#
# PCOD9545900 Si02
#       6
#     4  16  16  16  16  16
#     4  12  24  40  62 104 132 160 220 278 328 384
#     4  12  23  42  63  92 130 172 218 269 331 395
#     4  11  25  43  62  91 132 176 214 268 328 397
#     4  11  24  40  65  97 130 171 219 270 331 402
#     4  10  21  42  67  95 131 167 211 278 337 381
#     4  12  25  40  69  95 129 173 222 274 332 397
#
# _framework density 20.123035000000002
#
# number of rings (size 3 to 8) (size 9 to 14) (size 15 to 20)
#    0.000    0.762    4.762    2.286    5.333    1.143 
#    0.000    0.952    0.000    0.000    0.000    1.333 
#    0.000    0.000    0.000    0.000    0.000    0.000 
#
# Total GULP energy -234186.986380 kJ/mol
# GULP energy per Si atom -5575.880628 kJ/mol
# Density = 2.007723 g / cm^3
# Si number density = 20.123035 Si / 1000 Ang^3
#
#
#
# Elastic Constant Matrix: (Units=GPa)
#
#
# Indices 1 2 3 4 5 6 
#
# 1 45.6525 -12.0595 22.3707 0.0000 0.0000 0.1871
# 2 -12.0595 45.6525 22.3707 0.0000 0.0000 -0.1871
# 3 22.3707 22.3707 65.2213 0.0000 0.0000 0.0000
# 4 0.0000 0.0000 0.0000 -1.5145 0.0000 0.0000
# 5 0.0000 0.0000 0.0000 0.0000 -1.5145 0.0000
# 6 0.1871 -0.1871 0.0000 0.0000 0.0000 16.5480
#
#
#
# Elastic Compliance Matrix: (Units=1/GPa)
#
#
# Indices 1 2 3 4 5 6 
#
# 1 0.036066 0.018738 -0.018798 0.000000 0.000000 -0.000196
# 2 0.018738 0.036066 -0.018798 0.000000 0.000000 0.000196
# 3 -0.018798 -0.018798 0.028227 0.000000 0.000000 0.000000
# 4 0.000000 0.000000 0.000000 -0.660301 0.000000 0.000000
# 5 0.000000 0.000000 0.000000 0.000000 -0.660301 0.000000
# 6 -0.000196 0.000196 0.000000 0.000000 0.000000 0.060435
#
#
# Mechanical properties :
#
#
# Convention : Reuss Voigt Hill
#
# Bulk Modulus (GPa) = 15.96294 24.65444 20.30869
# Shear Modulus (GPa) = -4.54046 10.96011 3.20983
#
# Velocity S-wave (km/s) = -1.50374 2.33632 1.26434
# Velocity P-wave (km/s) = 2.22146 4.42225 3.49937
#
# Compressibility (1/GPa) = 0.06264509
#
# Stress axis : x y z
#
# Youngs Moduli (GPa) = 27.72670 27.72670 35.42661
#
# Poissons Ratio (x) = -0.51953 0.66593
# Poissons Ratio (y) = -0.51953 0.66593
# Poissons Ratio (z) = 0.52119 0.52119
#
# Static dielectric constant tensor:
#      x y z
#    x 1.757330 0.000000 0.000000 
#    y 0.000000 1.757330 0.000000 
#    z 0.000000 0.000000 1.750040 
# 
# From -- ./inp_files/5173.got.cif
#   From: 2010.05.17/outbox.cif.g08.bks.cpg/sg87_3_cif.got.tgz:5173.got - 2010.06.03 19:07:00.
