data_PCOD9545853
_publ_section_title
;
Structure prediction by ZEFSAII (Michael W. Deem and Ramdas Pophale) SiO2 
 PCOD9545853
Probable space group: I 4/M
;
_chemical_formula_sum "Si O2"
_cell_formula_units_Z 64
_cell_length_a 10.476254
_cell_length_b 10.476254
_cell_length_c 27.817501
_cell_angle_alpha 90.000000
_cell_angle_beta 90.000000
_cell_angle_gamma 90.000000
_cell_volume 3053.023529
_symmetry_space_group_name_H-M "I 4/M"
_symmetry_group_IT_number 87
_symmetry_cell_setting 'tetragonal'
loop_
_space_group_symop_operation_xyz
x,y,z
-y,x,z
-x,-y,z
y,-x,z
-x,-y,-z
y,-x,-z
x,y,-z
-y,x,-z
1/2+x,1/2+y,1/2+z
1/2-y,1/2+x,1/2+z
1/2-x,1/2-y,1/2+z
1/2+y,1/2-x,1/2+z
1/2-x,1/2-y,1/2-z
1/2+y,1/2-x,1/2-z
1/2+x,1/2+y,1/2-z
1/2-y,1/2+x,1/2-z
loop_
_atom_site_type_symbol
_atom_site_label
_atom_site_fract_x
_atom_site_fract_y
_atom_site_fract_z
Si Si1 0.136738 0.539978 0.557297
Si Si2 0.350571 0.860178 0.266652
Si Si3 0.432461 0.302227 0.853746
Si Si4 0.296361 0.236419 0.943538
O O1 0.119022 0.562682 0.500000
O O2 0.222803 0.415153 0.561612
O O3 0.195603 0.669776 0.575580
O O4 0.000000 0.500000 0.577662
O O5 0.250000 0.750000 0.250000
O O6 0.500281 0.827775 0.258482
O O7 0.316620 0.887173 0.322345
O O8 0.575498 0.344284 0.841827
O O9 0.413039 0.278122 0.910274
O O10 0.320196 0.261741 0.000000
#
# Coordination Sequence:
#
# PCOD9545853 Si02
#       4
#    16  16  16  16
#     4   9  18  34  55  80 120 170 214 263 316 373
#     4  11  24  45  72 101 133 177 225 282 351 408
#     4  11  23  40  66  98 134 176 221 277 342 407
#     4  10  21  37  59  92 133 177 222 267 324 397
#
# _framework density 20.962824000000001
#
# number of rings (size 3 to 8) (size 9 to 14) (size 15 to 20)
#    0.000    1.750    2.500    1.500    0.000    6.000 
#    4.500    3.750    0.000    3.000    0.000    0.000 
#    0.000    0.000    0.000    0.000    0.000    0.000 
#
# Total GULP energy -178532.975064 kJ/mol
# GULP energy per Si atom -5579.155471 kJ/mol
# Density = 2.091511 g / cm^3
# Si number density = 20.962824 Si / 1000 Ang^3
#
#
#
# Elastic Constant Matrix: (Units=GPa)
#
#
# Indices 1 2 3 4 5 6 
#
# 1 116.8310 66.2242 28.6274 0.0000 0.0000 -12.6274
# 2 66.2242 116.8310 28.6274 0.0000 0.0000 12.6274
# 3 28.6274 28.6274 78.6804 0.0000 0.0000 0.0000
# 4 0.0000 0.0000 0.0000 28.8888 0.0000 0.0000
# 5 0.0000 0.0000 0.0000 0.0000 28.8888 0.0000
# 6 -12.6274 12.6274 0.0000 0.0000 0.0000 28.7816
#
#
#
# Elastic Compliance Matrix: (Units=1/GPa)
#
#
# Indices 1 2 3 4 5 6 
#
# 1 0.015732 -0.009568 -0.002243 0.000000 0.000000 0.011100
# 2 -0.009568 0.015732 -0.002243 0.000000 0.000000 -0.011100
# 3 -0.002243 -0.002243 0.014342 0.000000 0.000000 0.000000
# 4 0.000000 0.000000 0.000000 0.034616 0.000000 0.000000
# 5 0.000000 0.000000 0.000000 0.000000 0.034616 0.000000
# 6 0.011100 -0.011100 0.000000 0.000000 0.000000 0.044484
#
#
# Mechanical properties :
#
#
# Convention : Reuss Voigt Hill
#
# Bulk Modulus (GPa) = 56.50039 62.14448 59.32244
# Shear Modulus (GPa) = 25.83623 29.90271 27.86947
#
# Velocity S-wave (km/s) = 3.51448 3.78095 3.65015
# Velocity P-wave (km/s) = 6.59393 6.98357 6.79154
#
# Compressibility (1/GPa) = 0.01769899
#
# Stress axis : x y z
#
# Youngs Moduli (GPa) = 63.56530 63.56530 69.72645
#
# Poissons Ratio (x) = 0.60816 0.15639
# Poissons Ratio (y) = 0.60816 0.15639
# Poissons Ratio (z) = 0.14257 0.14257
#
# Static dielectric constant tensor:
#      x y z
#    x 1.779980 0.000000 0.000000 
#    y 0.000000 1.779980 0.000000 
#    z 0.000000 0.000000 1.769480 
# 
# From -- ./inp_files/6125.got.cif
#   From: 2010.05.17/outbox.cif.g08.bks.cpg/sg87_4_cif.got.tgz:6125.got - 2010.06.03 19:07:00.
