data_PCOD9545376
_publ_section_title
;
Structure prediction by ZEFSAII (Michael W. Deem and Ramdas Pophale) SiO2 
 PCOD9545376
Probable space group: P 42/N
;
_chemical_formula_sum "Si O2"
_cell_formula_units_Z 54
_cell_length_a 13.779226
_cell_length_b 13.779226
_cell_length_c 11.958316
_cell_angle_alpha 90.000000
_cell_angle_beta 90.000000
_cell_angle_gamma 90.000000
_cell_volume 2270.490411
_symmetry_space_group_name_H-M "P 42/N"
_symmetry_group_IT_number 86
_space_group.IT_coordinate_system_code '2'
_symmetry_cell_setting 'tetragonal'
loop_
_space_group_symop_operation_xyz
x,y,z
-y,1/2+x,1/2+z
1/2-x,1/2-y,z
1/2+y,-x,1/2+z
-x,-y,-z
y,1/2-x,1/2-z
1/2+x,1/2+y,-z
1/2-y,x,1/2-z
loop_
_atom_site_type_symbol
_atom_site_label
_atom_site_fract_x
_atom_site_fract_y
_atom_site_fract_z
Si Si1 0.585181 0.261374 0.455848
Si Si2 0.531850 0.452223 0.788783
Si Si3 0.605523 0.468373 0.540453
Si Si4 0.250000 0.750000 0.703121
Si Si5 0.821018 0.910084 0.910370
Si Si6 0.380466 0.605283 0.851234
Si Si7 0.030900 0.195007 0.965137
Si Si8 0.250000 0.250000 0.250000
O O1 0.629437 0.363203 0.489784
O O2 0.665883 0.210808 0.379061
O O3 0.477344 0.274587 0.406140
O O4 0.562077 0.198185 0.564287
O O5 0.592039 0.452907 0.673648
O O6 0.598899 0.510684 0.875798
O O7 0.437227 0.522880 0.781822
O O8 0.503742 0.349916 0.846575
O O9 0.500000 0.500000 0.500000
O O10 0.690654 0.535412 0.490873
O O11 0.315609 0.678029 0.777226
O O12 0.864567 0.854962 0.016116
O O13 0.809828 0.825799 0.821847
O O14 0.458739 0.658561 0.933285
#
# Coordination Sequence:
#
# PCOD9545376 Si02
#       8
#     8   8   8   4   8   8   8   2
#     4  12  26  44  67 109 145 189 249 319 389 459
#     4  11  24  48  74 104 146 204 248 305 393 462
#     4  12  29  44  70 108 151 188 255 319 376 462
#     4  12  26  38  72 110 154 184 246 324 404 450
#     4  11  25  45  72 104 145 193 256 300 377 458
#     4  11  23  44  72 106 140 195 244 308 380 468
#     4  11  23  48  73 102 150 196 240 313 384 458
#     4  12  28  40  80 104 146 212 256 316 364 456
#
# _framework density 23.78341
#
# number of rings (size 3 to 8) (size 9 to 14) (size 15 to 20)
#    0.000    0.593    2.963    4.889   12.444    1.185 
#    0.000    0.000    0.000    0.000    0.000    0.000 
#    0.000    0.000    0.000    0.000    0.000    0.000 
#
# Total GULP energy -301608.827712 kJ/mol
# GULP energy per Si atom -5585.348661 kJ/mol
# Density = 2.372928 g / cm^3
# Si number density = 23.783410 Si / 1000 Ang^3
#
#
#
# Elastic Constant Matrix: (Units=GPa)
#
#
# Indices 1 2 3 4 5 6 
#
# 1 106.4647 21.2240 29.3573 0.0000 0.0000 -2.0260
# 2 21.2240 106.4647 29.3573 0.0000 0.0000 2.0260
# 3 29.3573 29.3573 75.8150 0.0000 0.0000 0.0000
# 4 0.0000 0.0000 0.0000 144.0247 0.0000 0.0000
# 5 0.0000 0.0000 0.0000 0.0000 144.0247 0.0000
# 6 -2.0260 2.0260 0.0000 0.0000 0.0000 35.6118
#
#
#
# Elastic Compliance Matrix: (Units=1/GPa)
#
#
# Indices 1 2 3 4 5 6 
#
# 1 0.010646 -0.001118 -0.003689 0.000000 0.000000 0.000669
# 2 -0.001118 0.010646 -0.003689 0.000000 0.000000 -0.000669
# 3 -0.003689 -0.003689 0.016047 0.000000 0.000000 0.000000
# 4 0.000000 0.000000 0.000000 0.006943 0.000000 0.000000
# 5 0.000000 0.000000 0.000000 0.000000 0.006943 0.000000
# 6 0.000669 -0.000669 0.000000 0.000000 0.000000 0.028157
#
#
# Mechanical properties :
#
#
# Convention : Reuss Voigt Hill
#
# Bulk Modulus (GPa) = 49.15089 49.84682 49.49886
# Shear Modulus (GPa) = 48.46986 78.65261 63.56124
#
# Velocity S-wave (km/s) = 4.51928 5.75692 5.17523
# Velocity P-wave (km/s) = 6.92408 8.07426 7.52119
#
# Compressibility (1/GPa) = 0.02034551
#
# Stress axis : x y z
#
# Youngs Moduli (GPa) = 93.93478 93.93478 62.31580
#
# Poissons Ratio (x) = 0.10498 0.22991
# Poissons Ratio (y) = 0.10498 0.22991
# Poissons Ratio (z) = 0.34657 0.34657
#
# Static dielectric constant tensor:
#      x y z
#    x 1.937920 0.000000 0.000000 
#    y 0.000000 1.937920 0.000000 
#    z 0.000000 0.000000 1.966060 
# 
# From -- ./inp_files/2432.got.cif
#   From: 2010.05.17/outbox.cif.g08.bks.cpg/sg86_2_cif.got.tgz:2432.got - 2010.06.03 19:03:11.
