data_PCOD9545403
_publ_section_title
;
Structure prediction by ZEFSAII (Michael W. Deem and Ramdas Pophale) SiO2 
 PCOD9545403
Probable space group: P 42/N
;
_chemical_formula_sum "Si O2"
_cell_formula_units_Z 44
_cell_length_a 8.744367
_cell_length_b 8.744367
_cell_length_c 28.260397
_cell_angle_alpha 90.000000
_cell_angle_beta 90.000000
_cell_angle_gamma 90.000000
_cell_volume 2160.901703
_symmetry_space_group_name_H-M "P 42/N"
_symmetry_group_IT_number 86
_space_group.IT_coordinate_system_code '2'
_symmetry_cell_setting 'tetragonal'
loop_
_space_group_symop_operation_xyz
x,y,z
-y,1/2+x,1/2+z
1/2-x,1/2-y,z
1/2+y,-x,1/2+z
-x,-y,-z
y,1/2-x,1/2-z
1/2+x,1/2+y,-z
1/2-y,x,1/2-z
loop_
_atom_site_type_symbol
_atom_site_label
_atom_site_fract_x
_atom_site_fract_y
_atom_site_fract_z
Si Si1 0.582681 0.314500 0.961246
Si Si2 0.250000 0.750000 0.174238
Si Si3 0.413431 0.323597 0.055600
Si Si4 0.419353 0.186606 0.875912
Si Si5 0.772699 0.000321 0.745728
Si Si6 0.590234 0.175952 0.138216
O O1 0.750000 0.250000 0.951025
O O2 0.591573 0.493267 0.947980
O O3 0.450864 0.239743 0.929332
O O4 0.537376 0.282392 0.015442
O O5 0.417205 0.761336 0.148338
O O6 0.261094 0.608856 0.209677
O O7 0.250000 0.250000 0.043882
O O8 0.462921 0.261370 0.106858
O O9 0.250000 0.250000 0.860069
O O10 0.413573 0.004095 0.871837
O O11 0.907699 0.883538 0.756306
O O12 0.800659 0.072092 0.694381
O O13 0.750000 0.250000 0.123391
#
# Coordination Sequence:
#
# PCOD9545403 Si02
#       6
#     8   4   8   8   8   8
#     4  11  24  46  70 105 144 187 235 298 355 433
#     4  12  26  48  72 108 142 192 242 308 368 430
#     4  11  26  42  71 102 142 189 236 288 363 433
#     4  12  27  46  75 107 146 187 241 303 366 436
#     4  11  26  45  71  99 141 184 238 297 360 428
#     4  12  26  46  69 104 139 190 238 299 360 437
#
# _framework density 20.36187
#
# number of rings (size 3 to 8) (size 9 to 14) (size 15 to 20)
#    0.000    0.545    3.636    3.273    7.636    5.818 
#    0.000    0.000    0.000    0.000    0.000    0.000 
#    0.000    0.000    0.000    0.000    0.000    0.000 
#
# Total GULP energy -245708.330280 kJ/mol
# GULP energy per Si atom -5584.280234 kJ/mol
# Density = 2.031553 g / cm^3
# Si number density = 20.361870 Si / 1000 Ang^3
#
#
#
# Elastic Constant Matrix: (Units=GPa)
#
#
# Indices 1 2 3 4 5 6 
#
# 1 98.0949 25.7285 22.3846 0.0000 0.0000 -1.8077
# 2 25.7285 98.0949 22.3846 0.0000 0.0000 1.8077
# 3 22.3846 22.3846 67.6793 0.0000 0.0000 0.0000
# 4 0.0000 0.0000 0.0000 -314.1756 0.0000 0.0000
# 5 0.0000 0.0000 0.0000 0.0000 -314.1756 0.0000
# 6 -1.8077 1.8077 0.0000 0.0000 0.0000 36.9557
#
#
#
# Elastic Compliance Matrix: (Units=1/GPa)
#
#
# Indices 1 2 3 4 5 6 
#
# 1 0.011513 -0.002340 -0.003034 0.000000 0.000000 0.000678
# 2 -0.002340 0.011513 -0.003034 0.000000 0.000000 -0.000678
# 3 -0.003034 -0.003034 0.016782 0.000000 0.000000 0.000000
# 4 0.000000 0.000000 0.000000 -0.003183 0.000000 0.000000
# 5 0.000000 0.000000 0.000000 0.000000 -0.003183 0.000000
# 6 0.000678 -0.000678 0.000000 0.000000 0.000000 0.027126
#
#
# Mechanical properties :
#
#
# Convention : Reuss Voigt Hill
#
# Bulk Modulus (GPa) = 43.49202 44.98496 44.23849
# Shear Modulus (GPa) = 58.79103 -105.38766 -23.29832
#
# Velocity S-wave (km/s) = 5.37920 -7.20206 -3.38629
# Velocity P-wave (km/s) = 7.74512 6.85703 2.54637
#
# Compressibility (1/GPa) = 0.02299273
#
# Stress axis : x y z
#
# Youngs Moduli (GPa) = 86.86073 86.86073 59.58601
#
# Poissons Ratio (x) = 0.20323 0.18078
# Poissons Ratio (y) = 0.20323 0.18078
# Poissons Ratio (z) = 0.26353 0.26353
#
# Static dielectric constant tensor:
#      x y z
#    x 1.739510 0.000000 0.000000 
#    y 0.000000 1.739510 0.000000 
#    z 0.000000 0.000000 1.711490 
# 
# From -- ./inp_files/5058.got.cif
#   From: 2010.05.17/outbox.cif.g08.bks.cpg/sg86_3_cif.got.tgz:5058.got - 2010.06.03 19:03:11.
