data_PCOD9545946
_publ_section_title
;
Structure prediction by ZEFSAII (Michael W. Deem and Ramdas Pophale) SiO2 
 PCOD9545946
Probable space group: I 4/M
;
_chemical_formula_sum "Si O2"
_cell_formula_units_Z 84
_cell_length_a 12.167094
_cell_length_b 12.167094
_cell_length_c 27.927813
_cell_angle_alpha 90.000000
_cell_angle_beta 90.000000
_cell_angle_gamma 90.000000
_cell_volume 4134.382507
_symmetry_space_group_name_H-M "I 4/M"
_symmetry_group_IT_number 87
_symmetry_cell_setting 'tetragonal'
loop_
_space_group_symop_operation_xyz
x,y,z
-y,x,z
-x,-y,z
y,-x,z
-x,-y,-z
y,-x,-z
x,y,-z
-y,x,-z
1/2+x,1/2+y,1/2+z
1/2-y,1/2+x,1/2+z
1/2-x,1/2-y,1/2+z
1/2+y,1/2-x,1/2+z
1/2-x,1/2-y,1/2-z
1/2+y,1/2-x,1/2-z
1/2+x,1/2+y,1/2-z
1/2-y,1/2+x,1/2-z
loop_
_atom_site_type_symbol
_atom_site_label
_atom_site_fract_x
_atom_site_fract_y
_atom_site_fract_z
Si Si1 0.584044 0.337983 0.894589
Si Si2 0.152910 0.602073 0.754459
Si Si3 0.000000 0.500000 0.500000
Si Si4 0.759737 0.230625 0.170380
Si Si5 0.459846 0.748235 0.000000
Si Si6 0.112144 0.854473 0.082505
Si Si7 0.170668 0.692767 0.000000
O O1 0.642676 0.454989 0.885172
O O2 0.650727 0.254402 0.861179
O O3 0.581236 0.300227 0.949836
O O4 0.145787 0.470654 0.755672
O O5 0.198092 0.660089 0.802375
O O6 0.229554 0.643592 0.711384
O O7 0.940893 0.378313 0.500000
O O8 0.879549 0.560300 0.500000
O O9 0.852389 0.185150 0.134983
O O10 0.593287 0.742639 0.000000
O O11 0.980681 0.851618 0.075508
O O12 0.169474 0.771446 0.045713
#
# Coordination Sequence:
#
# PCOD9545946 Si02
#       7
#    16  16   4  16   8  16   8
#     4  11  23  39  61  91 126 167 209 254 308 369
#     4  10  22  43  64  91 122 159 205 259 316 376
#     4   8  24  40  60  94 122 170 212 254 294 356
#     4  11  23  39  66  92 123 162 206 259 317 373
#     4  10  22  41  59  90 124 165 209 244 305 349
#     4  11  24  40  62  94 128 168 211 256 309 366
#     4  10  22  41  61  89 126 168 209 247 300 352
#
# _framework density 20.317422000000001
#
# number of rings (size 3 to 8) (size 9 to 14) (size 15 to 20)
#    0.571    0.952    0.000    4.571    2.667    2.286 
#    0.000    0.000    0.000    9.143    0.000    0.000 
#    0.000    0.000    0.000    0.000    0.000    0.000 
#
# Total GULP energy -233922.634147 kJ/mol
# GULP energy per Si atom -5569.586527 kJ/mol
# Density = 2.027118 g / cm^3
# Si number density = 20.317422 Si / 1000 Ang^3
#
#
#
# Elastic Constant Matrix: (Units=GPa)
#
#
# Indices 1 2 3 4 5 6 
#
# 1 85.3225 26.5151 35.9155 0.0000 0.0000 1.4843
# 2 26.5151 85.3225 35.9155 0.0000 0.0000 -1.4843
# 3 35.9155 35.9155 95.4811 0.0000 0.0000 0.0000
# 4 0.0000 0.0000 0.0000 11.0036 0.0000 0.0000
# 5 0.0000 0.0000 0.0000 0.0000 11.0036 0.0000
# 6 1.4843 -1.4843 0.0000 0.0000 0.0000 34.8747
#
#
#
# Elastic Compliance Matrix: (Units=1/GPa)
#
#
# Indices 1 2 3 4 5 6 
#
# 1 0.014416 -0.002626 -0.004435 0.000000 0.000000 -0.000725
# 2 -0.002626 0.014416 -0.004435 0.000000 0.000000 0.000725
# 3 -0.004435 -0.004435 0.013810 0.000000 0.000000 0.000000
# 4 0.000000 0.000000 0.000000 0.090879 0.000000 0.000000
# 5 0.000000 0.000000 0.000000 0.000000 0.090879 0.000000
# 6 -0.000725 0.000725 0.000000 0.000000 0.000000 0.028736
#
#
# Mechanical properties :
#
#
# Convention : Reuss Voigt Hill
#
# Bulk Modulus (GPa) = 50.89006 51.42426 51.15716
# Shear Modulus (GPa) = 17.68807 22.56170 20.12489
#
# Velocity S-wave (km/s) = 2.95377 3.33597 3.15067
# Velocity P-wave (km/s) = 6.06093 6.34064 6.20236
#
# Compressibility (1/GPa) = 0.01965020
#
# Stress axis : x y z
#
# Youngs Moduli (GPa) = 69.36926 69.36926 72.41334
#
# Poissons Ratio (x) = 0.18214 0.32114
# Poissons Ratio (y) = 0.18214 0.32114
# Poissons Ratio (z) = 0.30764 0.30764
#
# Static dielectric constant tensor:
#      x y z
#    x 1.726040 0.000000 0.000000 
#    y 0.000000 1.726040 0.000000 
#    z 0.000000 0.000000 1.706850 
# 
# From -- ./inp_files/6608.got.cif
#   From: 2010.05.17/outbox.cif.g08.bks.cpg/sg87_4_cif.got.tgz:6608.got - 2010.06.03 19:07:00.
