data_PCOD9545265
_publ_section_title
;
Structure prediction by ZEFSAII (Michael W. Deem and Ramdas Pophale) SiO2 
 PCOD9545265
Probable space group: P 42/N
;
_chemical_formula_sum "Si O2"
_cell_formula_units_Z 36
_cell_length_a 7.797381
_cell_length_b 7.797381
_cell_length_c 21.378752
_cell_angle_alpha 90.000000
_cell_angle_beta 90.000000
_cell_angle_gamma 90.000000
_cell_volume 1299.809959
_symmetry_space_group_name_H-M "P 42/N"
_symmetry_group_IT_number 86
_space_group.IT_coordinate_system_code '2'
_symmetry_cell_setting 'tetragonal'
loop_
_space_group_symop_operation_xyz
x,y,z
-y,1/2+x,1/2+z
1/2-x,1/2-y,z
1/2+y,-x,1/2+z
-x,-y,-z
y,1/2-x,1/2-z
1/2+x,1/2+y,-z
1/2-y,x,1/2-z
loop_
_atom_site_type_symbol
_atom_site_label
_atom_site_fract_x
_atom_site_fract_y
_atom_site_fract_z
Si Si1 0.750000 0.250000 0.449380
Si Si2 0.269374 0.439916 0.347611
Si Si3 0.981207 0.166825 0.565969
Si Si4 0.307678 0.034420 0.626104
Si Si5 0.888789 0.095016 0.263566
O O1 0.593179 0.276603 0.500245
O O2 0.634194 0.150089 0.395853
O O3 0.250000 0.250000 0.373436
O O4 0.327041 0.571428 0.399817
O O5 0.435946 0.416569 0.302846
O O6 0.118558 0.521468 0.304690
O O7 0.062899 0.321410 0.605281
O O8 0.149302 0.043666 0.574093
O O9 0.228417 0.040164 0.695784
O O10 0.750000 0.250000 0.261894
#
# Coordination Sequence:
#
# PCOD9545265 Si02
#       5
#     4   8   8   8   8
#     4  12  22  46  74 102 138 200 250 300 368 462
#     4  11  23  47  71 105 142 189 250 305 375 462
#     4  10  25  43  71 107 143 190 247 309 376 444
#     4  10  23  47  68 103 150 188 242 311 378 444
#     4  11  22  40  71  99 140 181 235 306 370 444
#
# _framework density 27.696356000000002
#
# number of rings (size 3 to 8) (size 9 to 14) (size 15 to 20)
#    0.000    1.333    3.333    1.333    1.556    3.556 
#   12.000    0.000    4.889    0.000    0.000    0.000 
#    0.000    0.000    0.000    0.000    0.000    0.000 
#
# Total GULP energy -200539.325705 kJ/mol
# GULP energy per Si atom -5570.536825 kJ/mol
# Density = 2.763332 g / cm^3
# Si number density = 27.696356 Si / 1000 Ang^3
#
#
#
# Elastic Constant Matrix: (Units=GPa)
#
#
# Indices 1 2 3 4 5 6 
#
# 1 83.5212 13.3493 31.4291 0.0000 0.0000 -33.8559
# 2 13.3493 83.5212 31.4291 0.0000 0.0000 33.8559
# 3 31.4291 31.4291 100.2170 0.0000 0.0000 0.0000
# 4 0.0000 0.0000 0.0000 20.3758 0.0000 0.0000
# 5 0.0000 0.0000 0.0000 0.0000 20.3758 0.0000
# 6 -33.8559 33.8559 0.0000 0.0000 0.0000 46.1222
#
#
#
# Elastic Compliance Matrix: (Units=1/GPa)
#
#
# Indices 1 2 3 4 5 6 
#
# 1 0.030908 -0.017948 -0.004065 0.000000 0.000000 0.035863
# 2 -0.017948 0.030908 -0.004065 0.000000 0.000000 -0.035863
# 3 -0.004065 -0.004065 0.012528 0.000000 0.000000 0.000000
# 4 0.000000 0.000000 0.000000 0.049078 0.000000 0.000000
# 5 0.000000 0.000000 0.000000 0.000000 0.049078 0.000000
# 6 0.035863 -0.035863 0.000000 0.000000 0.000000 0.074332
#
#
# Mechanical properties :
#
#
# Convention : Reuss Voigt Hill
#
# Bulk Modulus (GPa) = 45.06427 46.63049 45.84738
# Shear Modulus (GPa) = 16.31943 30.11154 23.21549
#
# Velocity S-wave (km/s) = 2.43003 3.30085 2.89833
# Velocity P-wave (km/s) = 4.91727 5.60360 5.27162
#
# Compressibility (1/GPa) = 0.02219053
#
# Stress axis : x y z
#
# Youngs Moduli (GPa) = 32.35359 32.35359 79.82299
#
# Poissons Ratio (x) = 0.58068 0.32444
# Poissons Ratio (y) = 0.58068 0.32444
# Poissons Ratio (z) = 0.13150 0.13150
#
# Static dielectric constant tensor:
#      x y z
#    x 2.844020 0.000000 0.000000 
#    y 0.000000 2.844020 0.000000 
#    z 0.000000 0.000000 2.104590 
# 
# From -- ./inp_files/3996.got.cif
#   From: 2010.05.17/outbox.cif.g08.bks.cpg/sg86_2_cif.got.tgz:3996.got - 2010.06.03 19:03:11.
