data_PCOD9545636
_publ_section_title
;
Structure prediction by ZEFSAII (Michael W. Deem and Ramdas Pophale) SiO2 
 PCOD9545636
Probable space group: I 4/M
;
_chemical_formula_sum "Si O2"
_cell_formula_units_Z 80
_cell_length_a 16.366544
_cell_length_b 16.366544
_cell_length_c 12.287691
_cell_angle_alpha 90.000000
_cell_angle_beta 90.000000
_cell_angle_gamma 90.000000
_cell_volume 3291.427144
_symmetry_space_group_name_H-M "I 4/M"
_symmetry_group_IT_number 87
_symmetry_cell_setting 'tetragonal'
loop_
_space_group_symop_operation_xyz
x,y,z
-y,x,z
-x,-y,z
y,-x,z
-x,-y,-z
y,-x,-z
x,y,-z
-y,x,-z
1/2+x,1/2+y,1/2+z
1/2-y,1/2+x,1/2+z
1/2-x,1/2-y,1/2+z
1/2+y,1/2-x,1/2+z
1/2-x,1/2-y,1/2-z
1/2+y,1/2-x,1/2-z
1/2+x,1/2+y,1/2-z
1/2-y,1/2+x,1/2-z
loop_
_atom_site_type_symbol
_atom_site_label
_atom_site_fract_x
_atom_site_fract_y
_atom_site_fract_z
Si Si1 0.623006 0.782427 0.842835
Si Si2 0.895302 0.540878 0.298553
Si Si3 0.629668 0.474420 0.172036
Si Si4 0.210291 0.039582 0.871481
Si Si5 0.691033 0.732361 0.617127
O O1 0.596132 0.874962 0.868348
O O2 0.555929 0.715794 0.872458
O O3 0.646794 0.778043 0.714362
O O4 0.711345 0.754758 0.886493
O O5 0.931928 0.448834 0.309119
O O6 0.797762 0.531899 0.309990
O O7 0.592403 0.561838 0.141683
O O8 0.646679 0.486819 0.301815
O O9 0.186788 0.134954 0.864000
O O10 0.215641 0.021077 0.000000
O O11 0.656336 0.754108 0.500000
#
# Coordination Sequence:
#
# PCOD9545636 Si02
#       5
#    16  16  16  16  16
#     4  10  19  35  60  81 119 158 196 243 298 351
#     4  10  20  36  57  82 111 150 193 241 297 349
#     4  11  22  36  56  86 119 157 198 239 296 357
#     4  10  20  36  55  80 119 153 190 240 297 362
#     4   9  19  35  57  86 115 154 201 240 290 356
#
# _framework density 24.305567
#
# number of rings (size 3 to 8) (size 9 to 14) (size 15 to 20)
#    0.000    2.000    4.000    0.000    0.000    1.600 
#    0.000    4.000    0.000    6.000    0.000    1.400 
#    0.000    0.000    0.000    0.000    0.000    0.000 
#
# Total GULP energy -222682.532544 kJ/mol
# GULP energy per Si atom -5567.063314 kJ/mol
# Density = 2.425025 g / cm^3
# Si number density = 24.305567 Si / 1000 Ang^3
#
#
#
# Elastic Constant Matrix: (Units=GPa)
#
#
# Indices 1 2 3 4 5 6 
#
# 1 104.3567 32.6481 20.6427 0.0000 0.0000 -3.9192
# 2 32.6481 104.3567 20.6427 0.0000 0.0000 3.9192
# 3 20.6427 20.6427 110.6241 0.0000 0.0000 0.0000
# 4 0.0000 0.0000 0.0000 -12.9082 0.0000 0.0000
# 5 0.0000 0.0000 0.0000 0.0000 -12.9082 0.0000
# 6 -3.9192 3.9192 0.0000 0.0000 0.0000 57.4475
#
#
#
# Elastic Compliance Matrix: (Units=1/GPa)
#
#
# Indices 1 2 3 4 5 6 
#
# 1 0.010892 -0.003158 -0.001443 0.000000 0.000000 0.000959
# 2 -0.003158 0.010892 -0.001443 0.000000 0.000000 -0.000959
# 3 -0.001443 -0.001443 0.009578 0.000000 0.000000 0.000000
# 4 0.000000 0.000000 0.000000 -0.077470 0.000000 0.000000
# 5 0.000000 0.000000 0.000000 0.000000 -0.077470 0.000000
# 6 0.000959 -0.000959 0.000000 0.000000 0.000000 0.017538
#
#
# Mechanical properties :
#
#
# Convention : Reuss Voigt Hill
#
# Bulk Modulus (GPa) = 51.88505 51.91159 51.89832
# Shear Modulus (GPa) = -57.12570 22.68649 -17.21961
#
# Velocity S-wave (km/s) = -4.85326 3.05845 -2.66459
# Velocity P-wave (km/s) = 3.16421 5.82035 3.45429
#
# Compressibility (1/GPa) = 0.01927337
#
# Stress axis : x y z
#
# Youngs Moduli (GPa) = 91.81053 91.81053 104.40364
#
# Poissons Ratio (x) = 0.28995 0.15067
# Poissons Ratio (y) = 0.28995 0.15067
# Poissons Ratio (z) = 0.13250 0.13250
#
# Static dielectric constant tensor:
#      x y z
#    x 1.969720 0.000000 0.000000 
#    y 0.000000 1.969720 0.000000 
#    z 0.000000 0.000000 1.940560 
# 
# From -- ./inp_files/3504.got.cif
#   From: 2010.05.17/outbox.cif.g08.bks.cpg/sg87_2_cif.got.tgz:3504.got - 2010.06.03 19:07:00.
