data_PCOD9545790
_publ_section_title
;
Structure prediction by ZEFSAII (Michael W. Deem and Ramdas Pophale) SiO2 
 PCOD9545790
Probable space group: I 4/M
;
_chemical_formula_sum "Si O2"
_cell_formula_units_Z 80
_cell_length_a 16.664863
_cell_length_b 16.664863
_cell_length_c 14.598557
_cell_angle_alpha 90.000000
_cell_angle_beta 90.000000
_cell_angle_gamma 90.000000
_cell_volume 4054.277072
_symmetry_space_group_name_H-M "I 4/M"
_symmetry_group_IT_number 87
_symmetry_cell_setting 'tetragonal'
loop_
_space_group_symop_operation_xyz
x,y,z
-y,x,z
-x,-y,z
y,-x,z
-x,-y,-z
y,-x,-z
x,y,-z
-y,x,-z
1/2+x,1/2+y,1/2+z
1/2-y,1/2+x,1/2+z
1/2-x,1/2-y,1/2+z
1/2+y,1/2-x,1/2+z
1/2-x,1/2-y,1/2-z
1/2+y,1/2-x,1/2-z
1/2+x,1/2+y,1/2-z
1/2-y,1/2+x,1/2-z
loop_
_atom_site_type_symbol
_atom_site_label
_atom_site_fract_x
_atom_site_fract_y
_atom_site_fract_z
Si Si1 0.812523 0.398251 0.806408
Si Si2 0.657220 0.849606 0.500000
Si Si3 0.809626 0.524862 0.500000
Si Si4 0.594940 0.595039 0.000000
Si Si5 0.555576 0.219984 0.701558
Si Si6 0.292407 0.332906 0.153045
Si Si7 0.960269 0.637009 0.500000
O O1 0.783508 0.465090 0.736510
O O2 0.900417 0.365540 0.781067
O O3 0.753106 0.322914 0.812830
O O4 0.817045 0.435948 0.907584
O O5 0.571406 0.806637 0.500000
O O6 0.712795 0.830892 0.588813
O O7 0.633711 0.943929 0.500000
O O8 0.769808 0.557894 0.592565
O O9 0.902352 0.558186 0.500000
O O10 0.500304 0.609711 0.000000
O O11 0.637940 0.632988 0.912353
O O12 0.606307 0.280231 0.763284
#
# Coordination Sequence:
#
# PCOD9545790 Si02
#       7
#    16   8   8   8  16  16   8
#     4  11  23  40  62  93 125 166 207 261 314 380
#     4  11  20  38  63  96 121 160 197 256 328 374
#     4  10  24  38  57  86 125 167 213 251 287 375
#     4  10  21  36  61  95 123 154 200 263 333 378
#     4  11  23  40  59  87 126 168 216 252 309 362
#     4  11  22  36  64  89 128 160 207 256 321 377
#     4  10  20  38  61  90 127 156 199 256 324 374
#
# _framework density 19.732247999999998
#
# number of rings (size 3 to 8) (size 9 to 14) (size 15 to 20)
#    0.000    1.300    2.000    4.500    2.800    0.400 
#    0.000    1.000    0.000    0.000    0.000    0.000 
#    0.000    6.400    0.000    0.000    0.000    0.000 
#
# Total GULP energy -223498.377613 kJ/mol
# GULP energy per Si atom -5587.459440 kJ/mol
# Density = 1.968734 g / cm^3
# Si number density = 19.732248 Si / 1000 Ang^3
#
#
#
# Elastic Constant Matrix: (Units=GPa)
#
#
# Indices 1 2 3 4 5 6 
#
# 1 60.5947 26.4755 29.7100 0.0000 0.0000 -0.5807
# 2 26.4755 60.5947 29.7100 0.0000 0.0000 0.5807
# 3 29.7100 29.7100 109.7749 0.0000 0.0000 0.0000
# 4 0.0000 0.0000 0.0000 15.1126 0.0000 0.0000
# 5 0.0000 0.0000 0.0000 0.0000 15.1126 0.0000
# 6 -0.5807 0.5807 0.0000 0.0000 0.0000 26.0268
#
#
#
# Elastic Compliance Matrix: (Units=1/GPa)
#
#
# Indices 1 2 3 4 5 6 
#
# 1 0.021709 -0.007622 -0.003813 0.000000 0.000000 0.000654
# 2 -0.007622 0.021709 -0.003813 0.000000 0.000000 -0.000654
# 3 -0.003813 -0.003813 0.011173 0.000000 0.000000 0.000000
# 4 0.000000 0.000000 0.000000 0.066170 0.000000 0.000000
# 5 0.000000 0.000000 0.000000 0.000000 0.066170 0.000000
# 6 0.000654 -0.000654 0.000000 0.000000 0.000000 0.038451
#
#
# Mechanical properties :
#
#
# Convention : Reuss Voigt Hill
#
# Bulk Modulus (GPa) = 41.49941 44.75062 43.12501
# Shear Modulus (GPa) = 18.94590 20.92165 19.93377
#
# Velocity S-wave (km/s) = 3.10199 3.25972 3.18183
# Velocity P-wave (km/s) = 5.82295 6.07420 5.94990
#
# Compressibility (1/GPa) = 0.02409673
#
# Stress axis : x y z
#
# Youngs Moduli (GPa) = 46.06377 46.06377 89.49967
#
# Poissons Ratio (x) = 0.35111 0.34122
# Poissons Ratio (y) = 0.35111 0.34122
# Poissons Ratio (z) = 0.17562 0.17562
#
# Static dielectric constant tensor:
#      x y z
#    x 1.678920 0.000000 0.000000 
#    y 0.000000 1.678920 0.000000 
#    z 0.000000 0.000000 1.706510 
# 
# From -- ./inp_files/3594.got.cif
#   From: 2010.05.17/outbox.cif.g08.bks.cpg/sg87_2_cif.got.tgz:3594.got - 2010.06.03 19:07:00.
