data_PCOD9545208
_publ_section_title
;
Structure prediction by ZEFSAII (Michael W. Deem and Ramdas Pophale) SiO2 
 PCOD9545208
Probable space group: P 42/N
;
_chemical_formula_sum "Si O2"
_cell_formula_units_Z 48
_cell_length_a 13.774006
_cell_length_b 13.774006
_cell_length_c 11.501433
_cell_angle_alpha 90.000000
_cell_angle_beta 90.000000
_cell_angle_gamma 90.000000
_cell_volume 2182.089148
_symmetry_space_group_name_H-M "P 42/N"
_symmetry_group_IT_number 86
_space_group.IT_coordinate_system_code '2'
_symmetry_cell_setting 'tetragonal'
loop_
_space_group_symop_operation_xyz
x,y,z
-y,1/2+x,1/2+z
1/2-x,1/2-y,z
1/2+y,-x,1/2+z
-x,-y,-z
y,1/2-x,1/2-z
1/2+x,1/2+y,-z
1/2-y,x,1/2-z
loop_
_atom_site_type_symbol
_atom_site_label
_atom_site_fract_x
_atom_site_fract_y
_atom_site_fract_z
Si Si1 0.592940 0.148721 0.185205
Si Si2 0.750000 0.750000 0.750000
Si Si3 0.605362 0.822656 0.947463
Si Si4 0.857044 0.072868 0.953333
Si Si5 0.750000 0.750000 0.250000
Si Si6 0.750000 0.250000 0.062555
Si Si7 0.115312 0.418781 0.570795
Si Si8 0.438581 0.340664 0.666329
O O1 0.499365 0.153540 0.104787
O O2 0.557896 0.153583 0.316457
O O3 0.659126 0.236725 0.146498
O O4 0.663100 0.054910 0.167376
O O5 0.679349 0.808684 0.839060
O O6 0.609600 0.722240 0.023233
O O7 0.620626 0.907296 0.041376
O O8 0.969209 0.105246 0.973609
O O9 0.780940 0.156719 0.986880
O O10 0.852091 0.969839 0.018480
O O11 0.738541 0.852844 0.184904
O O12 0.102019 0.426791 0.710337
#
# Coordination Sequence:
#
# PCOD9545208 Si02
#       8
#     8   2   8   8   2   4   8   8
#     4  11  26  46  66 104 140 181 232 289 357 418
#     4  12  30  40  74  96 148 186 232 298 360 404
#     4  12  24  47  67 105 139 182 234 294 345 430
#     4  10  23  44  65 102 140 188 233 288 353 421
#     4  12  22  40  68 110 132 182 228 292 334 420
#     4  12  24  42  72  98 138 188 234 294 338 430
#     4  10  22  43  72  96 140 183 232 293 353 411
#     4  11  25  42  72 100 141 177 237 290 348 416
#
# _framework density 21.997267000000001
#
# number of rings (size 3 to 8) (size 9 to 14) (size 15 to 20)
#    0.000    1.000    3.333    2.500    2.333    1.333 
#    3.000    0.000    0.000    0.000    0.000    0.000 
#    0.000    0.000    0.000    0.000    0.000    0.000 
#
# Total GULP energy -267499.243011 kJ/mol
# GULP energy per Si atom -5572.900896 kJ/mol
# Density = 2.194720 g / cm^3
# Si number density = 21.997267 Si / 1000 Ang^3
#
#
#
# Elastic Constant Matrix: (Units=GPa)
#
#
# Indices 1 2 3 4 5 6 
#
# 1 57.7756 -16.3073 16.7674 0.0000 0.0000 3.0941
# 2 -16.3073 57.7756 16.7674 0.0000 0.0000 -3.0941
# 3 16.7674 16.7674 122.7915 0.0000 0.0000 0.0000
# 4 0.0000 0.0000 0.0000 17.5720 0.0000 0.0000
# 5 0.0000 0.0000 0.0000 0.0000 17.5720 0.0000
# 6 3.0941 -3.0941 0.0000 0.0000 0.0000 37.6063
#
#
#
# Elastic Compliance Matrix: (Units=1/GPa)
#
#
# Indices 1 2 3 4 5 6 
#
# 1 0.020350 0.006758 -0.003702 0.000000 0.000000 -0.001118
# 2 0.006758 0.020350 -0.003702 0.000000 0.000000 0.001118
# 3 -0.003702 -0.003702 0.009155 0.000000 0.000000 0.000000
# 4 0.000000 0.000000 0.000000 0.056909 0.000000 0.000000
# 5 0.000000 0.000000 0.000000 0.000000 0.056909 0.000000
# 6 -0.001118 0.001118 0.000000 0.000000 0.000000 0.026775
#
#
# Mechanical properties :
#
#
# Convention : Reuss Voigt Hill
#
# Bulk Modulus (GPa) = 20.59111 30.31086 25.45099
# Shear Modulus (GPa) = 24.04704 29.29110 26.66907
#
# Velocity S-wave (km/s) = 3.30992 3.65304 3.48570
# Velocity P-wave (km/s) = 4.89781 5.62158 5.27213
#
# Compressibility (1/GPa) = 0.04856464
#
# Stress axis : x y z
#
# Youngs Moduli (GPa) = 49.13996 49.13996 109.23196
#
# Poissons Ratio (x) = -0.33210 0.40434
# Poissons Ratio (y) = -0.33210 0.40434
# Poissons Ratio (z) = 0.18190 0.18190
#
# Static dielectric constant tensor:
#      x y z
#    x 1.883600 0.000000 0.000000 
#    y 0.000000 1.883600 0.000000 
#    z 0.000000 0.000000 1.808910 
# 
# From -- ./inp_files/2345.got.cif
#   From: 2010.05.17/outbox.cif.g08.bks.cpg/sg86_2_cif.got.tgz:2345.got - 2010.06.03 19:03:11.
