data_PCOD9545095
_publ_section_title
;
Structure prediction by ZEFSAII (Michael W. Deem and Ramdas Pophale) SiO2 
 PCOD9545095
Probable space group: P 42/N
;
_chemical_formula_sum "Si O2"
_cell_formula_units_Z 42
_cell_length_a 11.233801
_cell_length_b 11.233801
_cell_length_c 16.613556
_cell_angle_alpha 90.000000
_cell_angle_beta 90.000000
_cell_angle_gamma 90.000000
_cell_volume 2096.602273
_symmetry_space_group_name_H-M "P 42/N"
_symmetry_group_IT_number 86
_space_group.IT_coordinate_system_code '2'
_symmetry_cell_setting 'tetragonal'
loop_
_space_group_symop_operation_xyz
x,y,z
-y,1/2+x,1/2+z
1/2-x,1/2-y,z
1/2+y,-x,1/2+z
-x,-y,-z
y,1/2-x,1/2-z
1/2+x,1/2+y,-z
1/2-y,x,1/2-z
loop_
_atom_site_type_symbol
_atom_site_label
_atom_site_fract_x
_atom_site_fract_y
_atom_site_fract_z
Si Si1 0.121116 0.442984 0.828960
Si Si2 0.759638 0.890064 0.861220
Si Si3 0.898768 0.496144 0.720372
Si Si4 0.923757 0.619950 0.999247
Si Si5 0.214169 0.875803 0.393438
Si Si6 0.250000 0.250000 0.750000
O O1 0.136339 0.580166 0.857654
O O2 0.234455 0.374850 0.795213
O O3 0.016285 0.449119 0.763594
O O4 0.092674 0.360223 0.906688
O O5 0.750000 0.750000 0.845615
O O6 0.676687 0.952274 0.795406
O O7 0.894690 0.926661 0.841132
O O8 0.697680 0.903006 0.948997
O O9 0.812116 0.404901 0.674556
O O10 0.008883 0.710936 0.951724
O O11 0.000000 0.500000 0.000000
O O12 0.250000 0.750000 0.432596
#
# Coordination Sequence:
#
# PCOD9545095 Si02
#       6
#     8   8   8   8   8   2
#     4  11  24  43  61  86 123 172 199 256 309 380
#     4  12  17  32  64 100 119 148 199 265 307 363
#     4  12  19  36  67  97 122 152 213 264 311 354
#     4  10  21  38  60  86 126 161 194 248 326 356
#     4  11  22  38  62  93 124 157 202 258 306 368
#     4  12  28  44  56  80 124 174 220 220 308 400
#
# _framework density 20.032412999999998
#
# number of rings (size 3 to 8) (size 9 to 14) (size 15 to 20)
#    0.000    0.762    9.524    1.143    1.333    0.000 
#    0.000    6.667    0.000    8.000    0.000    0.000 
#    0.000    0.000    0.000    0.000    0.000    0.000 
#
# Total GULP energy -233979.663507 kJ/mol
# GULP energy per Si atom -5570.944369 kJ/mol
# Density = 1.998682 g / cm^3
# Si number density = 20.032413 Si / 1000 Ang^3
#
#
#
# Elastic Constant Matrix: (Units=GPa)
#
#
# Indices 1 2 3 4 5 6 
#
# 1 73.3397 26.8061 42.1626 0.0000 0.0000 7.6286
# 2 26.8061 73.3397 42.1626 0.0000 0.0000 -7.6286
# 3 42.1626 42.1626 84.7881 0.0000 0.0000 0.0000
# 4 0.0000 0.0000 0.0000 17.1663 0.0000 0.0000
# 5 0.0000 0.0000 0.0000 0.0000 17.1663 0.0000
# 6 7.6286 -7.6286 0.0000 0.0000 0.0000 31.5344
#
#
#
# Elastic Compliance Matrix: (Units=1/GPa)
#
#
# Indices 1 2 3 4 5 6 
#
# 1 0.020260 -0.003081 -0.008542 0.000000 0.000000 -0.005647
# 2 -0.003081 0.020260 -0.008542 0.000000 0.000000 0.005647
# 3 -0.008542 -0.008542 0.020290 0.000000 0.000000 0.000000
# 4 0.000000 0.000000 0.000000 0.058254 0.000000 0.000000
# 5 0.000000 0.000000 0.000000 0.000000 0.058254 0.000000
# 6 -0.005647 0.005647 0.000000 0.000000 0.000000 0.034443
#
#
# Mechanical properties :
#
#
# Convention : Reuss Voigt Hill
#
# Bulk Modulus (GPa) = 48.83470 50.41446 49.62458
# Shear Modulus (GPa) = 19.31116 21.19579 20.25348
#
# Velocity S-wave (km/s) = 3.10820 3.25634 3.18313
# Velocity P-wave (km/s) = 6.10835 6.27370 6.19158
#
# Compressibility (1/GPa) = 0.02047724
#
# Stress axis : x y z
#
# Youngs Moduli (GPa) = 49.35910 49.35910 49.28613
#
# Poissons Ratio (x) = 0.15210 0.42101
# Poissons Ratio (y) = 0.15210 0.42101
# Poissons Ratio (z) = 0.42164 0.42164
#
# Static dielectric constant tensor:
#      x y z
#    x 1.656120 0.000000 0.000000 
#    y 0.000000 1.656120 0.000000 
#    z 0.000000 0.000000 1.318380 
# 
# From -- ./inp_files/3483.got.cif
#   From: 2010.05.17/outbox.cif.g08.bks.cpg/sg86_2_cif.got.tgz:3483.got - 2010.06.03 19:03:11.
