data_PCOD9545045
_publ_section_title
;
Structure prediction by ZEFSAII (Michael W. Deem and Ramdas Pophale) SiO2 
 PCOD9545045
Probable space group: P 42/N
;
_chemical_formula_sum "Si O2"
_cell_formula_units_Z 60
_cell_length_a 12.001385
_cell_length_b 12.001385
_cell_length_c 21.185813
_cell_angle_alpha 90.000000
_cell_angle_beta 90.000000
_cell_angle_gamma 90.000000
_cell_volume 3051.461329
_symmetry_space_group_name_H-M "P 42/N"
_symmetry_group_IT_number 86
_space_group.IT_coordinate_system_code '2'
_symmetry_cell_setting 'tetragonal'
loop_
_space_group_symop_operation_xyz
x,y,z
-y,1/2+x,1/2+z
1/2-x,1/2-y,z
1/2+y,-x,1/2+z
-x,-y,-z
y,1/2-x,1/2-z
1/2+x,1/2+y,-z
1/2-y,x,1/2-z
loop_
_atom_site_type_symbol
_atom_site_label
_atom_site_fract_x
_atom_site_fract_y
_atom_site_fract_z
Si Si1 0.858174 0.824654 0.469988
Si Si2 0.425414 0.275763 0.769534
Si Si3 0.094256 0.295103 0.222213
Si Si4 0.041165 0.693196 0.103276
Si Si5 0.594385 0.941184 0.902223
Si Si6 0.911714 0.165247 0.574769
Si Si7 0.750000 0.250000 0.466590
Si Si8 0.837664 0.162093 0.715100
O O1 0.750000 0.750000 0.464180
O O2 0.908469 0.825915 0.540393
O O3 0.961211 0.791187 0.424941
O O4 0.823651 0.949670 0.451116
O O5 0.370221 0.169898 0.733853
O O6 0.469026 0.237085 0.837995
O O7 0.536809 0.320442 0.737546
O O8 0.169071 0.360319 0.273975
O O9 0.114385 0.360395 0.156807
O O10 0.962428 0.299709 0.231422
O O11 0.094800 0.571180 0.117181
O O12 0.142249 0.768496 0.077671
O O13 0.468627 0.922748 0.927906
O O14 0.848663 0.215490 0.514647
O O15 0.847637 0.182063 0.639970
O O16 0.750000 0.250000 0.742462
#
# Coordination Sequence:
#
# PCOD9545045 Si02
#       8
#     8   8   8   8   8   8   4   8
#     4  11  22  38  67  96 127 169 221 266 334 398
#     4  11  26  45  68  98 134 174 226 286 337 397
#     4  10  24  42  65  93 135 177 224 276 330 401
#     4  11  24  41  70  95 129 177 222 276 332 401
#     4  10  20  42  65  93 127 177 221 260 335 407
#     4  10  20  42  65  92 128 173 216 270 322 404
#     4  12  20  40  68 102 132 164 222 278 340 388
#     4  11  25  41  71  95 131 180 224 272 345 409
#
# _framework density 19.662711999999999
#
# number of rings (size 3 to 8) (size 9 to 14) (size 15 to 20)
#    0.000    1.333    3.333    3.200   10.267    0.000 
#    0.000    0.667    0.000    0.000    0.000    0.000 
#    0.000    0.000    0.000    0.000    0.000    0.000 
#
# Total GULP energy -334763.502272 kJ/mol
# GULP energy per Si atom -5579.391705 kJ/mol
# Density = 1.961796 g / cm^3
# Si number density = 19.662712 Si / 1000 Ang^3
#
#
#
# Elastic Constant Matrix: (Units=GPa)
#
#
# Indices 1 2 3 4 5 6 
#
# 1 83.8881 42.0035 15.6057 0.0000 0.0000 8.3027
# 2 42.0035 83.8881 15.6057 0.0000 0.0000 -8.3027
# 3 15.6057 15.6057 65.9700 0.0000 0.0000 0.0000
# 4 0.0000 0.0000 0.0000 19.3668 0.0000 0.0000
# 5 0.0000 0.0000 0.0000 0.0000 19.3668 0.0000
# 6 8.3027 -8.3027 0.0000 0.0000 0.0000 35.8557
#
#
#
# Elastic Compliance Matrix: (Units=1/GPa)
#
#
# Indices 1 2 3 4 5 6 
#
# 1 0.017363 -0.008925 -0.001996 0.000000 0.000000 -0.006087
# 2 -0.008925 0.017363 -0.001996 0.000000 0.000000 0.006087
# 3 -0.001996 -0.001996 0.016103 0.000000 0.000000 0.000000
# 4 0.000000 0.000000 0.000000 0.051635 0.000000 0.000000
# 5 0.000000 0.000000 0.000000 0.000000 0.051635 0.000000
# 6 -0.006087 0.006087 0.000000 0.000000 0.000000 0.030709
#
#
# Mechanical properties :
#
#
# Convention : Reuss Voigt Hill
#
# Bulk Modulus (GPa) = 40.00838 42.24176 41.12507
# Shear Modulus (GPa) = 22.83371 25.61992 24.22682
#
# Velocity S-wave (km/s) = 3.41144 3.61358 3.51396
# Velocity P-wave (km/s) = 5.99239 6.24023 6.11756
#
# Compressibility (1/GPa) = 0.02499476
#
# Stress axis : x y z
#
# Youngs Moduli (GPa) = 57.59248 57.59248 62.10099
#
# Poissons Ratio (x) = 0.51402 0.12396
# Poissons Ratio (y) = 0.51402 0.12396
# Poissons Ratio (z) = 0.11496 0.11496
#
# Static dielectric constant tensor:
#      x y z
#    x 1.687930 0.000000 0.000000 
#    y 0.000000 1.687930 0.000000 
#    z 0.000000 0.000000 1.754410 
# 
# From -- ./inp_files/4270.got.cif
#   From: 2010.05.17/outbox.cif.g08.bks.cpg/sg86_3_cif.got.tgz:4270.got - 2010.06.03 19:03:11.
