data_PCOD9545484
_publ_section_title
;
Structure prediction by ZEFSAII (Michael W. Deem and Ramdas Pophale) SiO2 
 PCOD9545484
Probable space group: I 4/M
;
_chemical_formula_sum "Si O2"
_cell_formula_units_Z 72
_cell_length_a 11.610788
_cell_length_b 11.610788
_cell_length_c 26.614744
_cell_angle_alpha 90.000000
_cell_angle_beta 90.000000
_cell_angle_gamma 90.000000
_cell_volume 3587.944231
_symmetry_space_group_name_H-M "I 4/M"
_symmetry_group_IT_number 87
_symmetry_cell_setting 'tetragonal'
loop_
_space_group_symop_operation_xyz
x,y,z
-y,x,z
-x,-y,z
y,-x,z
-x,-y,-z
y,-x,-z
x,y,-z
-y,x,-z
1/2+x,1/2+y,1/2+z
1/2-y,1/2+x,1/2+z
1/2-x,1/2-y,1/2+z
1/2+y,1/2-x,1/2+z
1/2-x,1/2-y,1/2-z
1/2+y,1/2-x,1/2-z
1/2+x,1/2+y,1/2-z
1/2-y,1/2+x,1/2-z
loop_
_atom_site_type_symbol
_atom_site_label
_atom_site_fract_x
_atom_site_fract_y
_atom_site_fract_z
Si Si1 0.335387 0.397298 0.347327
Si Si2 0.587071 0.138137 0.278566
Si Si3 0.431417 0.838471 0.055880
Si Si4 0.793102 0.297628 0.057365
Si Si5 0.500000 0.000000 0.633262
O O1 0.464043 0.347144 0.346639
O O2 0.260315 0.365872 0.297303
O O3 0.271858 0.355888 0.398312
O O4 0.452812 0.145331 0.259847
O O5 0.585308 0.066086 0.330252
O O6 0.564976 0.805603 0.061565
O O7 0.341453 0.736269 0.061475
O O8 0.411568 0.934075 0.097731
O O9 0.415032 0.887450 0.000000
O O10 0.830315 0.265841 0.000000
#
# Coordination Sequence:
#
# PCOD9545484 Si02
#       5
#    16  16  16  16   8
#     4  11  23  40  61  90 126 160 193 236 300 367
#     4   9  20  37  63  88 110 148 198 250 300 342
#     4  10  20  34  56  86 121 160 204 246 290 345
#     4  10  22  37  58  90 123 163 203 245 290 344
#     4  10  16  34  58  84 116 150 204 240 284 356
#
# _framework density 20.067202000000002
#
# number of rings (size 3 to 8) (size 9 to 14) (size 15 to 20)
#    0.000    2.222    2.222    1.667    0.000    2.222 
#    0.000    3.333    0.000    0.000    0.000    0.000 
#    0.000    0.000    0.000    0.000    0.000    0.000 
#
# Total GULP energy -200599.672486 kJ/mol
# GULP energy per Si atom -5572.213125 kJ/mol
# Density = 2.002153 g / cm^3
# Si number density = 20.067202 Si / 1000 Ang^3
#
#
#
# Elastic Constant Matrix: (Units=GPa)
#
#
# Indices 1 2 3 4 5 6 
#
# 1 70.4339 10.3145 33.0643 0.0000 0.0000 -4.4441
# 2 10.3145 70.4339 33.0643 0.0000 0.0000 4.4441
# 3 33.0643 33.0643 114.9948 0.0000 0.0000 0.0000
# 4 0.0000 0.0000 0.0000 -0.3556 0.0000 0.0000
# 5 0.0000 0.0000 0.0000 0.0000 -0.3556 0.0000
# 6 -4.4441 4.4441 0.0000 0.0000 0.0000 25.7330
#
#
#
# Elastic Compliance Matrix: (Units=1/GPa)
#
#
# Indices 1 2 3 4 5 6 
#
# 1 0.016634 -0.000436 -0.004658 0.000000 0.000000 0.002948
# 2 -0.000436 0.016634 -0.004658 0.000000 0.000000 -0.002948
# 3 -0.004658 -0.004658 0.011374 0.000000 0.000000 0.000000
# 4 0.000000 0.000000 0.000000 -2.812025 -0.000002 0.000000
# 5 0.000000 0.000000 0.000000 -0.000002 -2.812023 0.000000
# 6 0.002948 -0.002948 0.000000 0.000000 0.000000 0.039879
#
#
# Mechanical properties :
#
#
# Convention : Reuss Voigt Hill
#
# Bulk Modulus (GPa) = 39.77540 45.41651 42.59596
# Shear Modulus (GPa) = -0.90717 16.96564 8.02924
#
# Velocity S-wave (km/s) = -0.67309 2.91080 2.00246
# Velocity P-wave (km/s) = 4.38863 5.82910 5.15938
#
# Compressibility (1/GPa) = 0.02514117
#
# Stress axis : x y z
#
# Youngs Moduli (GPa) = 60.11817 60.11817 87.91688
#
# Poissons Ratio (x) = 0.02618 0.40947
# Poissons Ratio (y) = 0.02618 0.40947
# Poissons Ratio (z) = 0.28000 0.28000
#
# Static dielectric constant tensor:
#      x y z
#    x 1.749170 0.000000 0.000000 
#    y 0.000000 1.749170 0.000000 
#    z 0.000000 0.000000 1.731360 
# 
# From -- ./inp_files/6176.got.cif
#   From: 2010.05.17/outbox.cif.g08.bks.cpg/sg87_4_cif.got.tgz:6176.got - 2010.06.03 19:07:00.
