data_PCOD9545409
_publ_section_title
;
Structure prediction by ZEFSAII (Michael W. Deem and Ramdas Pophale) SiO2 
 PCOD9545409
Probable space group: P 42/N
;
_chemical_formula_sum "Si O2"
_cell_formula_units_Z 48
_cell_length_a 7.350406
_cell_length_b 7.350406
_cell_length_c 34.400954
_cell_angle_alpha 90.000000
_cell_angle_beta 90.000000
_cell_angle_gamma 90.000000
_cell_volume 1858.630855
_symmetry_space_group_name_H-M "P 42/N"
_symmetry_group_IT_number 86
_space_group.IT_coordinate_system_code '2'
_symmetry_cell_setting 'tetragonal'
loop_
_space_group_symop_operation_xyz
x,y,z
-y,1/2+x,1/2+z
1/2-x,1/2-y,z
1/2+y,-x,1/2+z
-x,-y,-z
y,1/2-x,1/2-z
1/2+x,1/2+y,-z
1/2-y,x,1/2-z
loop_
_atom_site_type_symbol
_atom_site_label
_atom_site_fract_x
_atom_site_fract_y
_atom_site_fract_z
Si Si1 0.971711 0.100671 0.853183
Si Si2 0.983532 0.126401 0.651848
Si Si3 0.250000 0.750000 0.997519
Si Si4 0.750000 0.250000 0.291594
Si Si5 0.525583 0.380994 0.938674
Si Si6 0.012592 0.625381 0.763458
Si Si7 0.387085 0.975006 0.934389
O O1 0.053337 0.307397 0.850477
O O2 0.152981 0.984932 0.845259
O O3 0.897526 0.068958 0.896420
O O4 0.806468 0.093386 0.823084
O O5 0.903057 0.080369 0.609296
O O6 0.901018 0.049623 0.691399
O O7 0.095278 0.665872 0.969338
O O8 0.342660 0.597087 0.024914
O O9 0.691763 0.085596 0.262125
O O10 0.492090 0.163100 0.939066
O O11 0.326386 0.469007 0.938104
O O12 0.833448 0.525719 0.748735
#
# Coordination Sequence:
#
# PCOD9545409 Si02
#       7
#     8   8   4   4   8   8   8
#     4   9  19  37  64  87 115 164 212 255 294 373
#     4   9  19  41  62  85 118 163 213 248 306 370
#     4  12  19  31  58  94 120 154 200 249 299 358
#     4  12  23  37  60  94 114 158 206 251 319 374
#     4   9  19  37  57  82 120 159 201 246 295 350
#     4  11  25  43  62  89 128 165 197 271 329 374
#     4   9  20  36  58  82 119 160 195 248 297 357
#
# _framework density 25.825458000000001
#
# number of rings (size 3 to 8) (size 9 to 14) (size 15 to 20)
#    0.000    2.167    1.667    3.500    2.333    0.667 
#    3.000    1.667    0.000    2.000    0.000    0.000 
#    0.000    0.000    0.000    0.000    0.000    0.000 
#
# Total GULP energy -267759.171396 kJ/mol
# GULP energy per Si atom -5578.316071 kJ/mol
# Density = 2.576668 g / cm^3
# Si number density = 25.825458 Si / 1000 Ang^3
#
#
#
# Elastic Constant Matrix: (Units=GPa)
#
#
# Indices 1 2 3 4 5 6 
#
# 1 61.1806 5.1446 33.8916 0.0000 0.0000 -5.7583
# 2 5.1446 61.1806 33.8916 0.0000 0.0000 5.7583
# 3 33.8916 33.8916 244.1635 0.0000 0.0000 0.0000
# 4 0.0000 0.0000 0.0000 34.6634 0.0000 0.0000
# 5 0.0000 0.0000 0.0000 0.0000 34.6634 0.0000
# 6 -5.7583 5.7583 0.0000 0.0000 0.0000 24.7774
#
#
#
# Elastic Compliance Matrix: (Units=1/GPa)
#
#
# Indices 1 2 3 4 5 6 
#
# 1 0.018155 -0.000586 -0.002439 0.000000 0.000000 0.004355
# 2 -0.000586 0.018155 -0.002439 0.000000 0.000000 -0.004355
# 3 -0.002439 -0.002439 0.004773 0.000000 0.000000 0.000000
# 4 0.000000 0.000000 0.000000 0.028849 0.000000 0.000000
# 5 0.000000 0.000000 0.000000 0.000000 0.028849 0.000000
# 6 0.004355 -0.004355 0.000000 0.000000 0.000000 0.042384
#
#
# Mechanical properties :
#
#
# Convention : Reuss Voigt Hill
#
# Bulk Modulus (GPa) = 33.16006 56.93114 45.04560
# Shear Modulus (GPa) = 30.83694 38.39397 34.61545
#
# Velocity S-wave (km/s) = 3.45925 3.85992 3.66507
# Velocity P-wave (km/s) = 5.36872 6.47748 5.94899
#
# Compressibility (1/GPa) = 0.03015676
#
# Stress axis : x y z
#
# Youngs Moduli (GPa) = 55.08056 55.08056 209.52682
#
# Poissons Ratio (x) = 0.03226 0.51099
# Poissons Ratio (y) = 0.03226 0.51099
# Poissons Ratio (z) = 0.13433 0.13433
#
# Static dielectric constant tensor:
#      x y z
#    x 2.775350 0.000000 0.000000 
#    y 0.000000 2.775350 0.000000 
#    z 0.000000 0.000000 2.130140 
# 
# From -- ./inp_files/5234.got.cif
#   From: 2010.05.17/outbox.cif.g08.bks.cpg/sg86_3_cif.got.tgz:5234.got - 2010.06.03 19:03:11.
