data_PCOD9545655
_publ_section_title
;
Structure prediction by ZEFSAII (Michael W. Deem and Ramdas Pophale) SiO2 
 PCOD9545655
Probable space group: I 4/M
;
_chemical_formula_sum "Si O2"
_cell_formula_units_Z 96
_cell_length_a 16.563298
_cell_length_b 16.563298
_cell_length_c 19.733676
_cell_angle_alpha 90.000000
_cell_angle_beta 90.000000
_cell_angle_gamma 90.000000
_cell_volume 5413.792730
_symmetry_space_group_name_H-M "I 4/M"
_symmetry_group_IT_number 87
_symmetry_cell_setting 'tetragonal'
loop_
_space_group_symop_operation_xyz
x,y,z
-y,x,z
-x,-y,z
y,-x,z
-x,-y,-z
y,-x,-z
x,y,-z
-y,x,-z
1/2+x,1/2+y,1/2+z
1/2-y,1/2+x,1/2+z
1/2-x,1/2-y,1/2+z
1/2+y,1/2-x,1/2+z
1/2-x,1/2-y,1/2-z
1/2+y,1/2-x,1/2-z
1/2+x,1/2+y,1/2-z
1/2-y,1/2+x,1/2-z
loop_
_atom_site_type_symbol
_atom_site_label
_atom_site_fract_x
_atom_site_fract_y
_atom_site_fract_z
Si Si1 0.830980 0.167971 0.580431
Si Si2 0.734310 0.498044 0.132370
Si Si3 0.563659 0.210515 0.732141
Si Si4 0.405013 0.163714 0.666212
Si Si5 0.019655 0.591803 0.420573
Si Si6 0.782166 0.224847 0.824535
O O1 0.817582 0.168083 0.500000
O O2 0.919763 0.204007 0.596374
O O3 0.765149 0.221280 0.620767
O O4 0.818871 0.077579 0.609457
O O5 0.734198 0.518451 0.212158
O O6 0.828908 0.479811 0.113751
O O7 0.496147 0.166241 0.689468
O O8 0.614126 0.146727 0.777683
O O9 0.623794 0.257990 0.682863
O O10 0.396494 0.113838 0.597345
O O11 0.365519 0.251655 0.662823
O O12 0.002658 0.595826 0.500000
O O13 0.000000 0.500000 0.397039
O O14 0.750000 0.250000 0.750000
#
# Coordination Sequence:
#
# PCOD9545655 Si02
#       6
#    16  16  16  16  16  16
#     4  12  23  38  60  85 119 157 200 241 297 359
#     4  11  23  39  59  81 117 160 194 241 289 355
#     4  10  21  35  58  81 115 147 201 242 293 345
#     4  10  21  33  56  82 108 147 192 243 290 351
#     4  10  21  36  52  80 118 151 183 233 298 355
#     4  10  19  39  56  81 111 156 197 241 290 348
#
# _framework density 17.732485
#
# number of rings (size 3 to 8) (size 9 to 14) (size 15 to 20)
#    0.000    1.500    5.000    3.500    7.000    0.333 
#    0.000    0.833    0.000    0.500    0.000    0.000 
#    0.000    0.000    0.000    3.000    0.000    0.000 
#
# Total GULP energy -267556.986936 kJ/mol
# GULP energy per Si atom -5574.103894 kJ/mol
# Density = 1.769213 g / cm^3
# Si number density = 17.732485 Si / 1000 Ang^3
#
#
#
# Elastic Constant Matrix: (Units=GPa)
#
#
# Indices 1 2 3 4 5 6 
#
# 1 60.1663 44.4664 16.9848 0.0000 0.0000 -6.5441
# 2 44.4664 60.1663 16.9848 0.0000 0.0000 6.5441
# 3 16.9848 16.9848 37.5591 0.0000 0.0000 0.0000
# 4 0.0000 0.0000 0.0000 17.5510 0.0000 0.0000
# 5 0.0000 0.0000 0.0000 0.0000 17.5510 0.0000
# 6 -6.5441 6.5441 0.0000 0.0000 0.0000 21.5289
#
#
#
# Elastic Compliance Matrix: (Units=1/GPa)
#
#
# Indices 1 2 3 4 5 6 
#
# 1 0.048258 -0.037056 -0.005066 0.000000 0.000000 0.025933
# 2 -0.037056 0.048258 -0.005066 0.000000 0.000000 -0.025933
# 3 -0.005066 -0.005066 0.031206 0.000000 0.000000 0.000000
# 4 0.000000 0.000000 0.000000 0.056977 0.000000 0.000000
# 5 0.000000 0.000000 0.000000 0.000000 0.056977 0.000000
# 6 0.025933 -0.025933 0.000000 0.000000 0.000000 0.062215
#
#
# Mechanical properties :
#
#
# Convention : Reuss Voigt Hill
#
# Bulk Modulus (GPa) = 29.98744 34.97377 32.48061
# Shear Modulus (GPa) = 12.21360 16.62322 14.41841
#
# Velocity S-wave (km/s) = 2.62729 3.06509 2.85460
# Velocity P-wave (km/s) = 5.11383 5.68262 5.40571
#
# Compressibility (1/GPa) = 0.03334729
#
# Stress axis : x y z
#
# Youngs Moduli (GPa) = 20.72210 20.72210 32.04492
#
# Poissons Ratio (x) = 0.76787 0.16233
# Poissons Ratio (y) = 0.76787 0.16233
# Poissons Ratio (z) = 0.10497 0.10497
#
# Static dielectric constant tensor:
#      x y z
#    x 1.655780 0.000000 0.000000 
#    y 0.000000 1.655780 0.000000 
#    z 0.000000 0.000000 1.607710 
# 
# From -- ./inp_files/5296.got.cif
#   From: 2010.05.17/outbox.cif.g08.bks.cpg/sg87_3_cif.got.tgz:5296.got - 2010.06.03 19:07:00.
