data_PCOD9545524
_publ_section_title
;
Structure prediction by ZEFSAII (Michael W. Deem and Ramdas Pophale) SiO2 
 PCOD9545524
Probable space group: I 4/M
;
_chemical_formula_sum "Si O2"
_cell_formula_units_Z 72
_cell_length_a 15.752211
_cell_length_b 15.752211
_cell_length_c 11.359062
_cell_angle_alpha 90.000000
_cell_angle_beta 90.000000
_cell_angle_gamma 90.000000
_cell_volume 2818.548492
_symmetry_space_group_name_H-M "I 4/M"
_symmetry_group_IT_number 87
_symmetry_cell_setting 'tetragonal'
loop_
_space_group_symop_operation_xyz
x,y,z
-y,x,z
-x,-y,z
y,-x,z
-x,-y,-z
y,-x,-z
x,y,-z
-y,x,-z
1/2+x,1/2+y,1/2+z
1/2-y,1/2+x,1/2+z
1/2-x,1/2-y,1/2+z
1/2+y,1/2-x,1/2+z
1/2-x,1/2-y,1/2-z
1/2+y,1/2-x,1/2-z
1/2+x,1/2+y,1/2-z
1/2-y,1/2+x,1/2-z
loop_
_atom_site_type_symbol
_atom_site_label
_atom_site_fract_x
_atom_site_fract_y
_atom_site_fract_z
Si Si1 0.850393 0.637495 0.000000
Si Si2 0.036644 0.147517 0.140851
Si Si3 0.626436 0.801192 0.256335
Si Si4 0.167673 0.136489 0.500000
Si Si5 0.796710 0.444518 0.000000
Si Si6 0.190377 0.109662 0.758861
O O1 0.897661 0.656229 0.879900
O O2 0.758506 0.687870 0.000000
O O3 0.816664 0.542662 0.000000
O O4 0.980070 0.227445 0.191683
O O5 0.098106 0.061145 0.164331
O O6 0.046943 0.158604 0.000000
O O7 0.587775 0.824196 0.129839
O O8 0.723263 0.834252 0.241464
O O9 0.626112 0.696459 0.287243
O O10 0.089690 0.200517 0.500000
O O11 0.164564 0.089484 0.623285
#
# Coordination Sequence:
#
# PCOD9545524 Si02
#       6
#     8  16  16   8   8  16
#     4  12  22  42  75  94 135 176 207 285 338 382
#     4  10  18  33  55  86 135 177 214 264 315 388
#     4   9  21  40  61 102 128 171 227 268 324 405
#     4  10  22  38  64  92 129 170 217 262 331 399
#     4  10  22  42  67  97 139 167 218 274 338 394
#     4   9  20  33  57  87 132 171 215 267 314 398
#
# _framework density 25.545062999999999
#
# number of rings (size 3 to 8) (size 9 to 14) (size 15 to 20)
#    1.333    0.889    1.111    2.000    1.556    4.000 
#    0.000    2.222    2.444    3.667    0.000    0.000 
#    0.000    0.000    0.000    0.000    0.000    0.000 
#
# Total GULP energy -200460.087746 kJ/mol
# GULP energy per Si atom -5568.335771 kJ/mol
# Density = 2.548692 g / cm^3
# Si number density = 25.545063 Si / 1000 Ang^3
#
#
#
# Elastic Constant Matrix: (Units=GPa)
#
#
# Indices 1 2 3 4 5 6 
#
# 1 95.7343 80.8023 67.4755 0.0000 0.0000 44.0291
# 2 80.8023 95.7343 67.4755 0.0000 0.0000 -44.0291
# 3 67.4755 67.4755 301.6394 0.0000 0.0000 0.0000
# 4 0.0000 0.0000 0.0000 44.9065 0.0000 0.0000
# 5 0.0000 0.0000 0.0000 0.0000 44.9065 0.0000
# 6 44.0291 -44.0291 0.0000 0.0000 0.0000 -51.3455
#
#
#
# Elastic Compliance Matrix: (Units=1/GPa)
#
#
# Indices 1 2 3 4 5 6 
#
# 1 0.008945 -0.002112 -0.001529 0.000000 0.000000 0.009481
# 2 -0.002112 0.008945 -0.001529 0.000000 0.000000 -0.009481
# 3 -0.001529 -0.001529 0.003999 0.000000 0.000000 0.000000
# 4 0.000000 0.000000 0.000000 0.022269 0.000000 0.000000
# 5 0.000000 0.000000 0.000000 0.000000 0.022269 0.000000
# 6 0.009481 -0.009481 0.000000 0.000000 0.000000 -0.003215
#
#
# Mechanical properties :
#
#
# Convention : Reuss Voigt Hill
#
# Bulk Modulus (GPa) = 86.57255 102.73495 94.65375
# Shear Modulus (GPa) = 64.60070 26.18380 45.39225
#
# Velocity S-wave (km/s) = 5.03426 3.20504 4.21996
# Velocity P-wave (km/s) = 8.23137 7.34853 7.80245
#
# Compressibility (1/GPa) = 0.01155101
#
# Stress axis : x y z
#
# Youngs Moduli (GPa) = 111.79576 111.79576 250.05872
#
# Poissons Ratio (x) = 0.23610 0.38222
# Poissons Ratio (y) = 0.23610 0.38222
# Poissons Ratio (z) = 0.17088 0.17088
#
# Static dielectric constant tensor:
#      x y z
#    x 2.134230 0.000000 0.000000 
#    y 0.000000 2.134230 0.000000 
#    z 0.000000 0.000000 1.987890 
# 
# From -- ./inp_files/2526.got.cif
#   From: 2010.05.17/outbox.cif.g08.bks.cpg/sg87_2_cif.got.tgz:2526.got - 2010.06.03 19:07:00.
