data_PCOD9545889
_publ_section_title
;
Structure prediction by ZEFSAII (Michael W. Deem and Ramdas Pophale) SiO2 
 PCOD9545889
Probable space group: I 4/M
;
_chemical_formula_sum "Si O2"
_cell_formula_units_Z 72
_cell_length_a 13.033428
_cell_length_b 13.033428
_cell_length_c 16.693171
_cell_angle_alpha 90.000000
_cell_angle_beta 90.000000
_cell_angle_gamma 90.000000
_cell_volume 2835.673055
_symmetry_space_group_name_H-M "I 4/M"
_symmetry_group_IT_number 87
_symmetry_cell_setting 'tetragonal'
loop_
_space_group_symop_operation_xyz
x,y,z
-y,x,z
-x,-y,z
y,-x,z
-x,-y,-z
y,-x,-z
x,y,-z
-y,x,-z
1/2+x,1/2+y,1/2+z
1/2-y,1/2+x,1/2+z
1/2-x,1/2-y,1/2+z
1/2+y,1/2-x,1/2+z
1/2-x,1/2-y,1/2-z
1/2+y,1/2-x,1/2-z
1/2+x,1/2+y,1/2-z
1/2-y,1/2+x,1/2-z
loop_
_atom_site_type_symbol
_atom_site_label
_atom_site_fract_x
_atom_site_fract_y
_atom_site_fract_z
Si Si1 0.729845 0.591883 0.000000
Si Si2 0.114337 0.871821 0.666193
Si Si3 0.601850 0.202842 0.284326
Si Si4 0.006074 0.380732 0.632221
Si Si5 0.002430 0.173143 0.088643
O O1 0.654292 0.633411 0.927060
O O2 0.808488 0.547422 0.931358
O O3 0.154720 0.796782 0.736194
O O4 0.138044 0.990757 0.678730
O O5 0.653381 0.123063 0.346303
O O6 0.557481 0.134620 0.213381
O O7 0.511214 0.250082 0.339337
O O8 0.000000 0.500000 0.608984
O O9 0.902270 0.099436 0.093080
O O10 0.004735 0.222126 0.000000
#
# Coordination Sequence:
#
# PCOD9545889 Si02
#       5
#     8  16  16  16  16
#     4  10  23  37  66  90 114 157 206 260 301 362
#     4  10  21  40  67  93 123 163 203 251 315 380
#     4  11  20  36  63  87 118 160 210 251 297 365
#     4  11  22  42  61  83 117 166 210 247 302 373
#     4   9  19  37  60  86 120 160 200 246 307 376
#
# _framework density 25.390796000000002
#
# number of rings (size 3 to 8) (size 9 to 14) (size 15 to 20)
#    0.000    1.778    2.222    3.000    1.556    2.667 
#    0.000   10.000    9.778    0.000    0.000    0.000 
#    0.000    0.000    0.000    0.000    0.000    0.000 
#
# Total GULP energy -200443.702346 kJ/mol
# GULP energy per Si atom -5567.880621 kJ/mol
# Density = 2.533301 g / cm^3
# Si number density = 25.390796 Si / 1000 Ang^3
#
#
#
# Elastic Constant Matrix: (Units=GPa)
#
#
# Indices 1 2 3 4 5 6 
#
# 1 80.6061 8.2069 39.7028 0.0000 0.0000 -6.0362
# 2 8.2069 80.6061 39.7028 0.0000 0.0000 6.0362
# 3 39.7028 39.7028 163.6752 0.0000 0.0000 0.0000
# 4 0.0000 0.0000 0.0000 33.5320 0.0000 0.0000
# 5 0.0000 0.0000 0.0000 0.0000 33.5320 0.0000
# 6 -6.0362 6.0362 0.0000 0.0000 0.0000 29.2661
#
#
#
# Elastic Compliance Matrix: (Units=1/GPa)
#
#
# Indices 1 2 3 4 5 6 
#
# 1 0.014341 0.000037 -0.003488 0.000000 0.000000 0.002950
# 2 0.000037 0.014341 -0.003488 0.000000 0.000000 -0.002950
# 3 -0.003488 -0.003488 0.007802 0.000000 0.000000 0.000000
# 4 0.000000 0.000000 0.000000 0.029822 0.000000 0.000000
# 5 0.000000 0.000000 0.000000 0.000000 0.029822 0.000000
# 6 0.002950 -0.002950 0.000000 0.000000 0.000000 0.035386
#
#
# Mechanical properties :
#
#
# Convention : Reuss Voigt Hill
#
# Bulk Modulus (GPa) = 44.23453 55.56804 49.90128
# Shear Modulus (GPa) = 32.69530 35.08434 33.88982
#
# Velocity S-wave (km/s) = 3.59232 3.72125 3.65736
# Velocity P-wave (km/s) = 5.88776 6.35581 6.12625
#
# Compressibility (1/GPa) = 0.02260677
#
# Stress axis : x y z
#
# Youngs Moduli (GPa) = 69.72987 69.72987 128.17781
#
# Poissons Ratio (x) = -0.00257 0.44704
# Poissons Ratio (y) = -0.00257 0.44704
# Poissons Ratio (z) = 0.24319 0.24319
#
# Static dielectric constant tensor:
#      x y z
#    x 2.088840 0.000000 0.000000 
#    y 0.000000 2.088840 0.000000 
#    z 0.000000 0.000000 1.831180 
# 
# From -- ./inp_files/4263.got.cif
#   From: 2010.05.17/outbox.cif.g08.bks.cpg/sg87_3_cif.got.tgz:4263.got - 2010.06.03 19:07:00.
