data_PCOD9545444
_publ_section_title
;
Structure prediction by ZEFSAII (Michael W. Deem and Ramdas Pophale) SiO2 
 PCOD9545444
Probable space group: P 42/N
;
_chemical_formula_sum "Si O2"
_cell_formula_units_Z 36
_cell_length_a 10.876125
_cell_length_b 10.876125
_cell_length_c 11.959635
_cell_angle_alpha 90.000000
_cell_angle_beta 90.000000
_cell_angle_gamma 90.000000
_cell_volume 1414.706361
_symmetry_space_group_name_H-M "P 42/N"
_symmetry_group_IT_number 86
_space_group.IT_coordinate_system_code '2'
_symmetry_cell_setting 'tetragonal'
loop_
_space_group_symop_operation_xyz
x,y,z
-y,1/2+x,1/2+z
1/2-x,1/2-y,z
1/2+y,-x,1/2+z
-x,-y,-z
y,1/2-x,1/2-z
1/2+x,1/2+y,-z
1/2-y,x,1/2-z
loop_
_atom_site_type_symbol
_atom_site_label
_atom_site_fract_x
_atom_site_fract_y
_atom_site_fract_z
Si Si1 0.750000 0.750000 0.750000
Si Si2 0.250000 0.250000 0.750000
Si Si3 0.144212 0.020798 0.160340
Si Si4 0.092441 0.582125 0.078366
Si Si5 0.626403 0.525815 0.178468
Si Si6 0.348676 0.659401 0.364044
O O1 0.834537 0.662156 0.676684
O O2 0.329817 0.153802 0.680629
O O3 0.273061 0.974844 0.107318
O O4 0.138078 0.953045 0.281007
O O5 0.004371 0.999188 0.120618
O O6 0.028012 0.615049 0.194717
O O7 0.119766 0.689759 0.988623
O O8 0.000000 0.500000 0.000000
O O9 0.750048 0.465530 0.129130
O O10 0.250000 0.750000 0.311196
#
# Coordination Sequence:
#
# PCOD9545444 Si02
#       6
#     2   2   8   8   8   8
#     4  12  20  44  74 108 144 198 264 328 414 472
#     4  12  24  44  78 100 160 206 256 332 398 476
#     4  12  24  45  78 107 158 204 255 344 406 482
#     4  12  25  47  75 110 153 201 266 331 407 491
#     4  12  25  47  73 111 158 208 261 335 411 474
#     4  12  25  44  71 112 147 202 259 325 404 487
#
# _framework density 25.446978999999999
#
# number of rings (size 3 to 8) (size 9 to 14) (size 15 to 20)
#    0.000    0.000    8.889    0.000    3.111    0.889 
#    0.000   12.222    0.000    0.000    0.000    0.000 
#    0.000    0.000    0.000    0.000    0.000    0.000 
#
# Total GULP energy -201046.114824 kJ/mol
# GULP energy per Si atom -5584.614301 kJ/mol
# Density = 2.538906 g / cm^3
# Si number density = 25.446979 Si / 1000 Ang^3
#
#
#
# Elastic Constant Matrix: (Units=GPa)
#
#
# Indices 1 2 3 4 5 6 
#
# 1 126.3461 69.4745 27.7627 0.0000 0.0000 -13.7223
# 2 69.4745 126.3461 27.7627 0.0000 0.0000 13.7223
# 3 27.7627 27.7627 164.4273 0.0000 0.0000 0.0000
# 4 0.0000 0.0000 0.0000 2.4480 0.0000 0.0000
# 5 0.0000 0.0000 0.0000 0.0000 2.4480 0.0000
# 6 -13.7223 13.7223 0.0000 0.0000 0.0000 60.5627
#
#
#
# Elastic Compliance Matrix: (Units=1/GPa)
#
#
# Indices 1 2 3 4 5 6 
#
# 1 0.012553 -0.007189 -0.000906 0.000000 0.000000 0.004473
# 2 -0.007189 0.012553 -0.000906 0.000000 0.000000 -0.004473
# 3 -0.000906 -0.000906 0.006388 0.000000 0.000000 0.000000
# 4 0.000000 0.000000 0.000000 0.408499 0.000000 0.000000
# 5 0.000000 0.000000 0.000000 0.000000 0.408499 0.000000
# 6 0.004473 -0.004473 0.000000 0.000000 0.000000 0.018539
#
#
# Mechanical properties :
#
#
# Convention : Reuss Voigt Hill
#
# Bulk Modulus (GPa) = 74.11727 74.12435 74.12081
# Shear Modulus (GPa) = 5.62095 32.56637 19.09366
#
# Velocity S-wave (km/s) = 1.48785 3.58127 2.74219
# Velocity P-wave (km/s) = 5.66930 6.80389 6.26234
#
# Compressibility (1/GPa) = 0.01349213
#
# Stress axis : x y z
#
# Youngs Moduli (GPa) = 79.66354 79.66354 156.55511
#
# Poissons Ratio (x) = 0.57272 0.14178
# Poissons Ratio (y) = 0.57272 0.14178
# Poissons Ratio (z) = 0.07214 0.07214
#
# Static dielectric constant tensor:
#      x y z
#    x 2.087900 0.000000 0.000000 
#    y 0.000000 2.087900 0.000000 
#    z 0.000000 0.000000 2.052350 
# 
# From -- ./inp_files/2089.got.cif
#   From: 2010.05.17/outbox.cif.g08.bks.cpg/sg86_2_cif.got.tgz:2089.got - 2010.06.03 19:03:11.
