data_PCOD9545071
_publ_section_title
;
Structure prediction by ZEFSAII (Michael W. Deem and Ramdas Pophale) SiO2 
 PCOD9545071
Probable space group: P 42/N
;
_chemical_formula_sum "Si O2"
_cell_formula_units_Z 48
_cell_length_a 14.392764
_cell_length_b 14.392764
_cell_length_c 11.583592
_cell_angle_alpha 90.000000
_cell_angle_beta 90.000000
_cell_angle_gamma 90.000000
_cell_volume 2399.560260
_symmetry_space_group_name_H-M "P 42/N"
_symmetry_group_IT_number 86
_space_group.IT_coordinate_system_code '2'
_symmetry_cell_setting 'tetragonal'
loop_
_space_group_symop_operation_xyz
x,y,z
-y,1/2+x,1/2+z
1/2-x,1/2-y,z
1/2+y,-x,1/2+z
-x,-y,-z
y,1/2-x,1/2-z
1/2+x,1/2+y,-z
1/2-y,x,1/2-z
loop_
_atom_site_type_symbol
_atom_site_label
_atom_site_fract_x
_atom_site_fract_y
_atom_site_fract_z
Si Si1 0.783033 0.643628 0.891871
Si Si2 0.006695 0.975864 0.364621
Si Si3 0.296867 0.476087 0.324847
Si Si4 0.881589 0.833647 0.242412
Si Si5 0.125730 0.058767 0.976085
Si Si6 0.402766 0.964843 0.349595
O O1 0.750000 0.750000 0.885254
O O2 0.892655 0.658388 0.900997
O O3 0.747837 0.583937 0.781420
O O4 0.728021 0.593164 0.993378
O O5 0.946604 0.885623 0.332915
O O6 0.112061 0.960694 0.317773
O O7 0.000000 0.000000 0.500000
O O8 0.967752 0.059320 0.281585
O O9 0.207602 0.534136 0.363312
O O10 0.873504 0.723194 0.245187
O O11 0.914676 0.868669 0.116739
O O12 0.114276 0.958491 0.918370
O O13 0.061418 0.065099 0.089213
#
# Coordination Sequence:
#
# PCOD9545071 Si02
#       6
#     8   8   8   8   8   8
#     4  12  18  30  59  95 123 157 211 271 314 367
#     4  11  24  39  60  96 130 168 213 273 329 393
#     4  12  20  35  60  95 129 155 220 276 321 369
#     4  10  25  41  59  92 131 169 208 267 342 399
#     4  10  21  35  58  83 131 167 207 249 330 403
#     4  10  21  38  56  90 125 172 205 260 328 393
#
# _framework density 20.003665999999999
#
# number of rings (size 3 to 8) (size 9 to 14) (size 15 to 20)
#    0.000    1.167    6.667    0.000    7.000    0.000 
#    0.000    0.000    0.000    4.000    4.333    0.000 
#    0.000    0.000    0.000    0.000    0.000    0.000 
#
# Total GULP energy -267555.666379 kJ/mol
# GULP energy per Si atom -5574.076383 kJ/mol
# Density = 1.995814 g / cm^3
# Si number density = 20.003666 Si / 1000 Ang^3
#
#
#
# Elastic Constant Matrix: (Units=GPa)
#
#
# Indices 1 2 3 4 5 6 
#
# 1 99.4433 65.3508 23.8021 0.0000 0.0000 -5.8067
# 2 65.3508 99.4433 23.8021 0.0000 0.0000 5.8067
# 3 23.8021 23.8021 99.9289 0.0000 0.0000 0.0000
# 4 0.0000 0.0000 0.0000 22.5578 0.0000 0.0000
# 5 0.0000 0.0000 0.0000 0.0000 22.5578 0.0000
# 6 -5.8067 5.8067 0.0000 0.0000 0.0000 40.6148
#
#
#
# Elastic Compliance Matrix: (Units=1/GPa)
#
#
# Indices 1 2 3 4 5 6 
#
# 1 0.018675 -0.012159 -0.001552 0.000000 0.000000 0.004408
# 2 -0.012159 0.018675 -0.001552 0.000000 0.000000 -0.004408
# 3 -0.001552 -0.001552 0.010747 0.000000 0.000000 0.000000
# 4 0.000000 0.000000 0.000000 0.044331 0.000000 0.000000
# 5 0.000000 0.000000 0.000000 0.000000 0.044331 0.000000
# 6 0.004408 -0.004408 0.000000 0.000000 0.000000 0.025882
#
#
# Mechanical properties :
#
#
# Convention : Reuss Voigt Hill
#
# Bulk Modulus (GPa) = 56.91215 58.30282 57.60748
# Shear Modulus (GPa) = 25.12277 29.53678 27.32977
#
# Velocity S-wave (km/s) = 3.54772 3.84678 3.70028
# Velocity P-wave (km/s) = 6.73011 6.99569 6.86419
#
# Compressibility (1/GPa) = 0.01757094
#
# Stress axis : x y z
#
# Youngs Moduli (GPa) = 53.54732 53.54732 93.05318
#
# Poissons Ratio (x) = 0.65106 0.14444
# Poissons Ratio (y) = 0.65106 0.14444
# Poissons Ratio (z) = 0.08312 0.08312
#
# Static dielectric constant tensor:
#      x y z
#    x 1.743090 0.000000 0.000000 
#    y 0.000000 1.743090 0.000000 
#    z 0.000000 0.000000 1.815050 
# 
# From -- ./inp_files/2280.got.cif
#   From: 2010.05.17/outbox.cif.g08.bks.cpg/sg86_2_cif.got.tgz:2280.got - 2010.06.03 19:03:11.
