data_PCOD9545471
_publ_section_title
;
Structure prediction by ZEFSAII (Michael W. Deem and Ramdas Pophale) SiO2 
 PCOD9545471
Probable space group: P 42/N
;
_chemical_formula_sum "Si O2"
_cell_formula_units_Z 42
_cell_length_a 15.000000
_cell_length_b 15.000000
_cell_length_c 9.000000
_cell_angle_alpha 90.000000
_cell_angle_beta 90.000000
_cell_angle_gamma 90.000000
_cell_volume 2025.000000
_symmetry_space_group_name_H-M "P 42/N"
_symmetry_group_IT_number 86
_space_group.IT_coordinate_system_code '2'
_symmetry_cell_setting 'tetragonal'
loop_
_space_group_symop_operation_xyz
x,y,z
-y,1/2+x,1/2+z
1/2-x,1/2-y,z
1/2+y,-x,1/2+z
-x,-y,-z
y,1/2-x,1/2-z
1/2+x,1/2+y,-z
1/2-y,x,1/2-z
loop_
_atom_site_type_symbol
_atom_site_label
_atom_site_fract_x
_atom_site_fract_y
_atom_site_fract_z
Si Si1 0.513242 0.015136 0.669677
Si Si2 0.571841 0.663923 0.669372
Si Si3 0.369274 0.962625 0.876150
Si Si4 0.875370 0.318884 0.594174
Si Si5 0.788427 0.088305 0.741333
Si Si6 0.750000 0.750000 0.750000
O O1 0.578880 0.937434 0.724977
O O2 0.418661 0.016983 0.749145
O O3 0.500000 0.000000 0.500000
O O4 0.565609 0.106733 0.675876
O O5 0.523959 0.632765 0.519018
O O6 0.504313 0.737651 0.734802
O O7 0.670017 0.704128 0.657966
O O8 0.272105 0.921407 0.854560
O O9 0.423980 0.870274 0.872132
O O10 0.880244 0.317548 0.410768
O O11 0.778572 0.342899 0.659852
#
# Coordination Sequence:
#
# PCOD9545471 Si02
#       6
#     8   8   8   8   8   2
#     4  11  22  44  66  92 137 178 221 279 341 399
#     4  10  25  42  68  99 129 183 227 273 337 406
#     4  11  22  41  66  98 134 166 223 275 337 407
#     4  10  23  39  65 101 135 175 221 278 339 407
#     4  10  21  42  67 101 136 171 218 278 350 401
#     4  12  24  48  72  94 136 184 240 274 316 424
#
# _framework density 20.740741
#
# number of rings (size 3 to 8) (size 9 to 14) (size 15 to 20)
#    0.000    1.524    1.905    2.286    2.667    7.619 
#    3.429    0.000    0.000    1.143    0.000    0.000 
#    0.000    0.000    0.000    0.000    0.000    0.000 
#
# Total GULP energy -233914.433908 kJ/mol
# GULP energy per Si atom -5569.391284 kJ/mol
# Density = 2.069353 g / cm^3
# Si number density = 20.740741 Si / 1000 Ang^3
#
#
#
# Elastic Constant Matrix: (Units=GPa)
#
#
# Indices 1 2 3 4 5 6 
#
# 1 117.6379 36.2336 66.9563 0.0000 0.0000 9.1884
# 2 36.2336 117.6379 66.9563 0.0000 0.0000 -9.1884
# 3 66.9563 66.9563 80.1654 0.0000 0.0000 0.0000
# 4 0.0000 0.0000 0.0000 28.1308 0.0000 0.0000
# 5 0.0000 0.0000 0.0000 0.0000 28.1308 0.0000
# 6 9.1884 -9.1884 0.0000 0.0000 0.0000 8.0406
#
#
#
# Elastic Compliance Matrix: (Units=1/GPa)
#
#
# Indices 1 2 3 4 5 6 
#
# 1 0.020176 0.003620 -0.019875 0.000000 0.000000 -0.018918
# 2 0.003620 0.020176 -0.019875 0.000000 0.000000 0.018918
# 3 -0.019875 -0.019875 0.045674 0.000000 0.000000 0.000000
# 4 0.000000 0.000000 0.000000 0.035548 0.000000 0.000000
# 5 0.000000 0.000000 0.000000 0.000000 0.035548 0.000000
# 6 -0.018918 0.018918 0.000000 0.000000 0.000000 0.167607
#
#
# Mechanical properties :
#
#
# Convention : Reuss Voigt Hill
#
# Bulk Modulus (GPa) = 72.64097 72.85928 72.75012
# Shear Modulus (GPa) = 12.45090 22.54677 17.49884
#
# Velocity S-wave (km/s) = 2.45278 3.30066 2.90779
# Velocity P-wave (km/s) = 6.56665 7.05200 6.81365
#
# Compressibility (1/GPa) = 0.01376634
#
# Stress axis : x y z
#
# Youngs Moduli (GPa) = 49.56501 49.56501 21.89409
#
# Poissons Ratio (x) = -0.17944 0.43514
# Poissons Ratio (y) = -0.17944 0.43514
# Poissons Ratio (z) = 0.98510 0.98510
#
# Static dielectric constant tensor:
#      x y z
#    x 1.800880 0.000000 0.000000 
#    y 0.000000 1.800880 0.000000 
#    z 0.000000 0.000000 1.767830 
# 
# From -- ./inp_files/1183.got.cif
#   From: 2010.05.17/outbox.ucp.g08.bks.cvg/sg86_1_cif.got.tgz:1183.got - 2010.06.11 10:35:13.
