data_PCOD9545305
_publ_section_title
;
Structure prediction by ZEFSAII (Michael W. Deem and Ramdas Pophale) SiO2 
 PCOD9545305
Probable space group: P 42/N
;
_chemical_formula_sum "Si O2"
_cell_formula_units_Z 40
_cell_length_a 9.446505
_cell_length_b 9.446505
_cell_length_c 23.090792
_cell_angle_alpha 90.000000
_cell_angle_beta 90.000000
_cell_angle_gamma 90.000000
_cell_volume 2060.540461
_symmetry_space_group_name_H-M "P 42/N"
_symmetry_group_IT_number 86
_space_group.IT_coordinate_system_code '2'
_symmetry_cell_setting 'tetragonal'
loop_
_space_group_symop_operation_xyz
x,y,z
-y,1/2+x,1/2+z
1/2-x,1/2-y,z
1/2+y,-x,1/2+z
-x,-y,-z
y,1/2-x,1/2-z
1/2+x,1/2+y,-z
1/2-y,x,1/2-z
loop_
_atom_site_type_symbol
_atom_site_label
_atom_site_fract_x
_atom_site_fract_y
_atom_site_fract_z
Si Si1 0.258778 0.421209 0.330550
Si Si2 0.283263 0.079810 0.678740
Si Si3 0.834909 0.396893 0.558595
Si Si4 0.958663 0.477280 0.761828
Si Si5 0.104719 0.171135 0.953691
O O1 0.250000 0.250000 0.337674
O O2 0.197056 0.504116 0.385747
O O3 0.415723 0.475326 0.315498
O O4 0.178017 0.469956 0.272261
O O5 0.250000 0.250000 0.687363
O O6 0.427044 0.037175 0.710472
O O7 0.282821 0.058778 0.610349
O O8 0.173263 0.974500 0.708532
O O9 0.750000 0.250000 0.563261
O O10 0.796411 0.486815 0.501489
O O11 0.002674 0.369095 0.552110
O O12 0.250000 0.250000 0.969003
#
# Coordination Sequence:
#
# PCOD9545305 Si02
#       5
#     8   8   8   8   8
#     4  12  26  46  63  99 138 179 219 275 337 396
#     4  11  23  42  68 100 134 172 220 276 331 390
#     4  11  26  46  73  98 130 181 230 271 339 402
#     4  12  22  43  65  98 138 174 216 273 335 399
#     4  10  24  48  68  98 137 171 223 289 328 391
#
# _framework density 19.412382000000001
#
# number of rings (size 3 to 8) (size 9 to 14) (size 15 to 20)
#    0.000    0.800    6.000    0.600    8.400    0.800 
#   10.800    0.000    0.000    0.000    0.000    0.000 
#    0.000    0.000    0.000    0.000    0.000    0.000 
#
# Total GULP energy -223125.367414 kJ/mol
# GULP energy per Si atom -5578.134185 kJ/mol
# Density = 1.936820 g / cm^3
# Si number density = 19.412382 Si / 1000 Ang^3
#
#
#
# Elastic Constant Matrix: (Units=GPa)
#
#
# Indices 1 2 3 4 5 6 
#
# 1 24.9591 8.5491 19.4013 0.0000 0.0000 -2.3372
# 2 8.5491 24.9591 19.4013 0.0000 0.0000 2.3372
# 3 19.4013 19.4013 116.1388 0.0000 0.0000 0.0000
# 4 0.0000 0.0000 0.0000 29.4256 0.0000 0.0000
# 5 0.0000 0.0000 0.0000 0.0000 29.4256 0.0000
# 6 -2.3372 2.3372 0.0000 0.0000 0.0000 29.3383
#
#
#
# Elastic Compliance Matrix: (Units=1/GPa)
#
#
# Indices 1 2 3 4 5 6 
#
# 1 0.049677 -0.012676 -0.006181 0.000000 0.000000 0.004967
# 2 -0.012676 0.049677 -0.006181 0.000000 0.000000 -0.004967
# 3 -0.006181 -0.006181 0.010676 0.000000 0.000000 0.000000
# 4 0.000000 0.000000 0.000000 0.033984 0.000000 0.000000
# 5 0.000000 0.000000 0.000000 0.000000 0.033984 0.000000
# 6 0.004967 -0.004967 0.000000 0.000000 0.000000 0.034877
#
#
# Mechanical properties :
#
#
# Convention : Reuss Voigt Hill
#
# Bulk Modulus (GPa) = 16.67962 28.97339 22.82650
# Shear Modulus (GPa) = 17.67181 25.55157 21.61169
#
# Velocity S-wave (km/s) = 3.02045 3.63195 3.34023
# Velocity P-wave (km/s) = 4.55797 5.70489 5.16337
#
# Compressibility (1/GPa) = 0.05995342
#
# Stress axis : x y z
#
# Youngs Moduli (GPa) = 20.12987 20.12987 93.67187
#
# Poissons Ratio (x) = 0.25517 0.57900
# Poissons Ratio (y) = 0.25517 0.57900
# Poissons Ratio (z) = 0.12443 0.12443
#
# Static dielectric constant tensor:
#      x y z
#    x 1.661320 0.000000 0.000000 
#    y 0.000000 1.661320 0.000000 
#    z 0.000000 0.000000 1.662700 
# 
# From -- ./inp_files/4488.got.cif
#   From: 2010.05.17/outbox.cif.g08.bks.cpg/sg86_3_cif.got.tgz:4488.got - 2010.06.03 19:03:11.
