data_PCOD9545601
_publ_section_title
;
Structure prediction by ZEFSAII (Michael W. Deem and Ramdas Pophale) SiO2 
 PCOD9545601
Probable space group: I 4/M
;
_chemical_formula_sum "Si O2"
_cell_formula_units_Z 96
_cell_length_a 24.687205
_cell_length_b 24.687205
_cell_length_c 7.818569
_cell_angle_alpha 90.000000
_cell_angle_beta 90.000000
_cell_angle_gamma 90.000000
_cell_volume 4765.090135
_symmetry_space_group_name_H-M "I 4/M"
_symmetry_group_IT_number 87
_symmetry_cell_setting 'tetragonal'
loop_
_space_group_symop_operation_xyz
x,y,z
-y,x,z
-x,-y,z
y,-x,z
-x,-y,-z
y,-x,-z
x,y,-z
-y,x,-z
1/2+x,1/2+y,1/2+z
1/2-y,1/2+x,1/2+z
1/2-x,1/2-y,1/2+z
1/2+y,1/2-x,1/2+z
1/2-x,1/2-y,1/2-z
1/2+y,1/2-x,1/2-z
1/2+x,1/2+y,1/2-z
1/2-y,1/2+x,1/2-z
loop_
_atom_site_type_symbol
_atom_site_label
_atom_site_fract_x
_atom_site_fract_y
_atom_site_fract_z
Si Si1 0.105895 0.383689 0.693490
Si Si2 0.714388 0.613719 0.210215
Si Si3 0.801960 0.128325 0.296450
Si Si4 0.506072 0.145283 0.799952
Si Si5 0.229199 0.989943 0.296431
Si Si6 0.191472 0.304704 0.808766
O O1 0.104497 0.361027 0.500000
O O2 0.135641 0.440392 0.695923
O O3 0.138434 0.342226 0.807881
O O4 0.044236 0.391916 0.748757
O O5 0.659383 0.644104 0.261322
O O6 0.716210 0.551004 0.268866
O O7 0.762952 0.654640 0.268256
O O8 0.719015 0.612012 0.000000
O O9 0.805899 0.122350 0.500000
O O10 0.793900 0.067172 0.226233
O O11 0.751446 0.169650 0.268049
O O12 0.485485 0.206207 0.779842
O O13 0.520194 0.137310 0.000000
O O14 0.216290 0.991445 0.500000
O O15 0.210213 0.291450 0.000000
#
# Coordination Sequence:
#
# PCOD9545601 Si02
#       6
#    16  16  16  16  16  16
#     4  11  22  35  53  76 100 134 180 218 253 302
#     4   9  18  31  51  77 102 134 169 206 257 306
#     4  10  19  33  54  77 102 134 174 210 249 310
#     4  10  20  36  53  70  99 137 174 214 257 300
#     4   9  16  31  52  73 101 133 165 204 252 305
#     4  11  20  32  51  76 108 137 166 212 263 306
#
# _framework density 20.146522000000001
#
# number of rings (size 3 to 8) (size 9 to 14) (size 15 to 20)
#    0.000    2.000    3.333    1.500    0.000    1.667 
#    0.000    2.500    0.000    0.500    0.000    3.500 
#    0.000    0.000    0.000    1.500    0.000    1.667 
#
# Total GULP energy -267494.019597 kJ/mol
# GULP energy per Si atom -5572.792075 kJ/mol
# Density = 2.010067 g / cm^3
# Si number density = 20.146522 Si / 1000 Ang^3
#
#
#
# Elastic Constant Matrix: (Units=GPa)
#
#
# Indices 1 2 3 4 5 6 
#
# 1 88.2199 70.6353 11.4845 0.0000 0.0000 -12.6368
# 2 70.6353 88.2199 11.4845 0.0000 0.0000 12.6368
# 3 11.4845 11.4845 18.7721 0.0000 0.0000 0.0000
# 4 0.0000 0.0000 0.0000 11.3791 0.0000 0.0000
# 5 0.0000 0.0000 0.0000 0.0000 11.3791 0.0000
# 6 -12.6368 12.6368 0.0000 0.0000 0.0000 14.3323
#
#
#
# Elastic Compliance Matrix: (Units=1/GPa)
#
#
# Indices 1 2 3 4 5 6 
#
# 1 -0.102943 0.109849 -0.004225 0.000000 0.000000 -0.187620
# 2 0.109849 -0.102943 -0.004225 0.000000 0.000000 0.187620
# 3 -0.004225 -0.004225 0.058440 0.000000 0.000000 0.000000
# 4 0.000000 0.000000 0.000000 0.087880 0.000000 0.000000
# 5 0.000000 0.000000 0.000000 0.000000 0.087880 0.000000
# 6 -0.187620 0.187620 0.000000 0.000000 0.000000 -0.261079
#
#
# Mechanical properties :
#
#
# Convention : Reuss Voigt Hill
#
# Bulk Modulus (GPa) = 18.06614 42.49115 30.27865
# Shear Modulus (GPa) = -11.98717 14.19194 1.10239
#
# Velocity S-wave (km/s) = -2.44191 2.65700 0.74052
# Velocity P-wave (km/s) = 1.01799 5.52718 3.97404
#
# Compressibility (1/GPa) = 0.05535215
#
# Stress axis : x y z
#
# Youngs Moduli (GPa) = -9.71410 -9.71410 17.11154
#
# Poissons Ratio (x) = 1.06708 0.07230
# Poissons Ratio (y) = 1.06708 0.07230
# Poissons Ratio (z) = -0.04104 -0.04104
#
# Static dielectric constant tensor:
#      x y z
#    x 1.729650 0.000000 0.000000 
#    y 0.000000 1.729650 0.000000 
#    z 0.000000 0.000000 1.783890 
# 
# From -- ./inp_files/1342.got.cif
#   From: 2010.05.17/outbox.cif.g08.bks.cpg/sg87_1_cif.got.tgz:1342.got - 2010.06.03 19:07:00.
