data_PCOD9545144
_publ_section_title
;
Structure prediction by ZEFSAII (Michael W. Deem and Ramdas Pophale) SiO2 
 PCOD9545144
Probable space group: P 42/N
;
_chemical_formula_sum "Si O2"
_cell_formula_units_Z 36
_cell_length_a 13.543028
_cell_length_b 13.543028
_cell_length_c 9.108643
_cell_angle_alpha 90.000000
_cell_angle_beta 90.000000
_cell_angle_gamma 90.000000
_cell_volume 1670.649071
_symmetry_space_group_name_H-M "P 42/N"
_symmetry_group_IT_number 86
_space_group.IT_coordinate_system_code '2'
_symmetry_cell_setting 'tetragonal'
loop_
_space_group_symop_operation_xyz
x,y,z
-y,1/2+x,1/2+z
1/2-x,1/2-y,z
1/2+y,-x,1/2+z
-x,-y,-z
y,1/2-x,1/2-z
1/2+x,1/2+y,-z
1/2-y,x,1/2-z
loop_
_atom_site_type_symbol
_atom_site_label
_atom_site_fract_x
_atom_site_fract_y
_atom_site_fract_z
Si Si1 0.769369 0.392133 0.598405
Si Si2 0.545457 0.051690 0.142945
Si Si3 0.250000 0.750000 0.151220
Si Si4 0.154628 0.369354 0.703892
Si Si5 0.417134 0.065267 0.417898
O O1 0.650720 0.397104 0.598566
O O2 0.798689 0.330074 0.741857
O O3 0.799168 0.330859 0.454170
O O4 0.821587 0.496471 0.600394
O O5 0.611111 0.968772 0.224846
O O6 0.462963 0.088271 0.260232
O O7 0.500000 0.000000 0.000000
O O8 0.273070 0.374555 0.703124
O O9 0.112190 0.354401 0.539436
O O10 0.500000 0.000000 0.500000
#
# Coordination Sequence:
#
# PCOD9545144 Si02
#       5
#     8   8   4   8   8
#     4  11  22  39  60  92 123 161 208 261 325 386
#     4  11  23  38  63  92 124 163 208 267 325 388
#     4  10  22  36  60  88 124 158 202 266 324 384
#     4  10  22  41  64  89 124 172 215 257 319 396
#     4  10  22  39  60  86 122 165 209 257 317 389
#
# _framework density 21.54851
#
# number of rings (size 3 to 8) (size 9 to 14) (size 15 to 20)
#    0.000    1.556    0.000    5.333    0.000   12.444 
#    0.000    0.000    0.000    2.667    0.000    0.000 
#    0.000    0.000    0.000    0.000    0.000    0.000 
#
# Total GULP energy -201137.675755 kJ/mol
# GULP energy per Si atom -5587.157660 kJ/mol
# Density = 2.149946 g / cm^3
# Si number density = 21.548510 Si / 1000 Ang^3
#
#
#
# Elastic Constant Matrix: (Units=GPa)
#
#
# Indices 1 2 3 4 5 6 
#
# 1 70.3648 -0.2392 10.8982 0.0000 0.0000 -3.6656
# 2 -0.2392 70.3648 10.8982 0.0000 0.0000 3.6656
# 3 10.8982 10.8982 122.9932 0.0000 0.0000 0.0000
# 4 0.0000 0.0000 0.0000 22.2164 0.0000 0.0000
# 5 0.0000 0.0000 0.0000 0.0000 22.2164 0.0000
# 6 -3.6656 3.6656 0.0000 0.0000 0.0000 33.4123
#
#
#
# Elastic Compliance Matrix: (Units=1/GPa)
#
#
# Indices 1 2 3 4 5 6 
#
# 1 0.014495 0.000169 -0.001299 0.000000 0.000000 0.001572
# 2 0.000169 0.014495 -0.001299 0.000000 0.000000 -0.001572
# 3 -0.001299 -0.001299 0.008361 0.000000 0.000000 0.000000
# 4 0.000000 0.000000 0.000000 0.045012 0.000000 0.000000
# 5 0.000000 0.000000 0.000000 0.000000 0.045012 0.000000
# 6 0.001572 -0.001572 0.000000 0.000000 0.000000 0.030274
#
#
# Mechanical properties :
#
#
# Convention : Reuss Voigt Hill
#
# Bulk Modulus (GPa) = 30.77738 34.09301 32.43520
# Shear Modulus (GPa) = 28.84511 31.71340 30.27925
#
# Velocity S-wave (km/s) = 3.66267 3.84046 3.75262
# Velocity P-wave (km/s) = 5.67457 5.95998 5.81903
#
# Compressibility (1/GPa) = 0.03249139
#
# Stress axis : x y z
#
# Youngs Moduli (GPa) = 68.98764 68.98764 119.60584
#
# Poissons Ratio (x) = -0.01163 0.15541
# Poissons Ratio (y) = -0.01163 0.15541
# Poissons Ratio (z) = 0.08964 0.08964
#
# Static dielectric constant tensor:
#      x y z
#    x 1.772700 0.000000 0.000000 
#    y 0.000000 1.772700 0.000000 
#    z 0.000000 0.000000 1.823160 
# 
# From -- ./inp_files/1043.got.cif
#   From: 2010.05.17/outbox.cif.g08.bks.cpg/sg86_1_cif.got.tgz:1043.got - 2010.06.03 19:03:11.
