data_PCOD9545533
_publ_section_title
;
Structure prediction by ZEFSAII (Michael W. Deem and Ramdas Pophale) SiO2 
 PCOD9545533
Probable space group: I 4/M
;
_chemical_formula_sum "Si O2"
_cell_formula_units_Z 96
_cell_length_a 18.797272
_cell_length_b 18.797272
_cell_length_c 15.499657
_cell_angle_alpha 90.000000
_cell_angle_beta 90.000000
_cell_angle_gamma 90.000000
_cell_volume 5476.609042
_symmetry_space_group_name_H-M "I 4/M"
_symmetry_group_IT_number 87
_symmetry_cell_setting 'tetragonal'
loop_
_space_group_symop_operation_xyz
x,y,z
-y,x,z
-x,-y,z
y,-x,z
-x,-y,-z
y,-x,-z
x,y,-z
-y,x,-z
1/2+x,1/2+y,1/2+z
1/2-y,1/2+x,1/2+z
1/2-x,1/2-y,1/2+z
1/2+y,1/2-x,1/2+z
1/2-x,1/2-y,1/2-z
1/2+y,1/2-x,1/2-z
1/2+x,1/2+y,1/2-z
1/2-y,1/2+x,1/2-z
loop_
_atom_site_type_symbol
_atom_site_label
_atom_site_fract_x
_atom_site_fract_y
_atom_site_fract_z
Si Si1 0.103367 0.181749 0.331287
Si Si2 0.338201 0.169088 0.100452
Si Si3 0.336297 0.145880 0.597282
Si Si4 0.090617 0.575984 0.246258
Si Si5 0.701583 0.710965 0.322124
Si Si6 0.553467 0.306822 0.898232
O O1 0.139430 0.248594 0.381522
O O2 0.134410 0.184229 0.233366
O O3 0.131318 0.108591 0.372721
O O4 0.018968 0.190197 0.343496
O O5 0.389503 0.123507 0.161019
O O6 0.257085 0.157863 0.133109
O O7 0.345596 0.153702 0.000000
O O8 0.359964 0.130748 0.500000
O O9 0.393039 0.129891 0.670607
O O10 0.317407 0.228600 0.609011
O O11 0.266471 0.097606 0.615024
O O12 0.096273 0.491591 0.244496
O O13 0.750000 0.750000 0.250000
O O14 0.535346 0.311022 0.000000
#
# Coordination Sequence:
#
# PCOD9545533 Si02
#       6
#    16  16  16  16  16  16
#     4  11  21  35  54  81 117 152 192 232 288 344
#     4  11  20  37  62  84 110 150 198 241 287 337
#     4  11  21  37  59  82 109 148 192 236 286 341
#     4  11  24  39  55  81 120 157 190 235 287 343
#     4  10  18  35  57  83 106 139 188 242 282 328
#     4  11  21  33  54  83 114 151 190 234 288 350
#
# _framework density 17.529095000000002
#
# number of rings (size 3 to 8) (size 9 to 14) (size 15 to 20)
#    0.000    1.167    6.667    3.000    0.000    3.000 
#    0.000    2.500    0.000    0.000    0.000    0.000 
#    0.000    0.000    0.000   11.000    0.000    0.000 
#
# Total GULP energy -267850.640113 kJ/mol
# GULP energy per Si atom -5580.221669 kJ/mol
# Density = 1.748920 g / cm^3
# Si number density = 17.529095 Si / 1000 Ang^3
#
#
#
# Elastic Constant Matrix: (Units=GPa)
#
#
# Indices 1 2 3 4 5 6 
#
# 1 60.9978 27.3640 31.3358 0.0000 0.0000 -0.7482
# 2 27.3640 60.9978 31.3358 0.0000 0.0000 0.7482
# 3 31.3358 31.3358 114.5144 0.0000 0.0000 0.0000
# 4 0.0000 0.0000 0.0000 -3.1919 0.0000 0.0000
# 5 0.0000 0.0000 0.0000 0.0000 -3.1919 0.0000
# 6 -0.7482 0.7482 0.0000 0.0000 0.0000 21.3721
#
#
#
# Elastic Compliance Matrix: (Units=1/GPa)
#
#
# Indices 1 2 3 4 5 6 
#
# 1 0.021910 -0.007868 -0.003843 0.000000 0.000000 0.001042
# 2 -0.007868 0.021910 -0.003843 0.000000 0.000000 -0.001042
# 3 -0.003843 -0.003843 0.010836 0.000000 0.000000 0.000000
# 4 0.000000 0.000000 0.000000 -0.313296 0.000000 0.000000
# 5 0.000000 0.000000 0.000000 0.000000 -0.313296 0.000000
# 6 0.001042 -0.001042 0.000000 0.000000 0.000000 0.046863
#
#
# Mechanical properties :
#
#
# Convention : Reuss Voigt Hill
#
# Bulk Modulus (GPa) = 42.46263 46.28681 44.37472
# Shear Modulus (GPa) = -10.28561 12.76263 1.23851
#
# Velocity S-wave (km/s) = -2.42497 2.70123 0.84147
# Velocity P-wave (km/s) = 4.05414 6.01597 5.12971
#
# Compressibility (1/GPa) = 0.02355012
#
# Stress axis : x y z
#
# Youngs Moduli (GPa) = 45.64034 45.64034 92.28913
#
# Poissons Ratio (x) = 0.35909 0.35463
# Poissons Ratio (y) = 0.35909 0.35463
# Poissons Ratio (z) = 0.17538 0.17538
#
# Static dielectric constant tensor:
#      x y z
#    x 1.615360 0.000000 0.000000 
#    y 0.000000 1.615360 0.000000 
#    z 0.000000 0.000000 1.608270 
# 
# From -- ./inp_files/4449.got.cif
#   From: 2010.05.17/outbox.cif.g08.bks.cpg/sg87_3_cif.got.tgz:4449.got - 2010.06.03 19:07:00.
