data_PCOD9545111
_publ_section_title
;
Structure prediction by ZEFSAII (Michael W. Deem and Ramdas Pophale) SiO2 
 PCOD9545111
Probable space group: P 42/N
;
_chemical_formula_sum "Si O2"
_cell_formula_units_Z 40
_cell_length_a 8.601799
_cell_length_b 8.601799
_cell_length_c 25.284305
_cell_angle_alpha 90.000000
_cell_angle_beta 90.000000
_cell_angle_gamma 90.000000
_cell_volume 1870.809647
_symmetry_space_group_name_H-M "P 42/N"
_symmetry_group_IT_number 86
_space_group.IT_coordinate_system_code '2'
_symmetry_cell_setting 'tetragonal'
loop_
_space_group_symop_operation_xyz
x,y,z
-y,1/2+x,1/2+z
1/2-x,1/2-y,z
1/2+y,-x,1/2+z
-x,-y,-z
y,1/2-x,1/2-z
1/2+x,1/2+y,-z
1/2-y,x,1/2-z
loop_
_atom_site_type_symbol
_atom_site_label
_atom_site_fract_x
_atom_site_fract_y
_atom_site_fract_z
Si Si1 0.564306 0.905528 0.171456
Si Si2 0.914780 0.329885 0.934032
Si Si3 0.169966 0.920981 0.781302
Si Si4 0.699686 0.574901 0.541119
Si Si5 0.565887 0.748091 0.844370
O O1 0.524926 0.818571 0.117282
O O2 0.487875 0.826447 0.222476
O O3 0.741927 0.952001 0.182875
O O4 0.486631 0.077722 0.169586
O O5 0.750000 0.250000 0.921788
O O6 0.912515 0.515339 0.946160
O O7 0.977295 0.262300 0.989185
O O8 0.250000 0.750000 0.783125
O O9 0.002003 0.880701 0.805142
O O10 0.750000 0.750000 0.531254
O O11 0.778832 0.512485 0.594905
O O12 0.750000 0.750000 0.844139
#
# Coordination Sequence:
#
# PCOD9545111 Si02
#       5
#     8   8   8   8   8
#     4  10  22  39  56  86 122 162 202 249 320 362
#     4  10  21  39  64  88 124 163 205 258 304 382
#     4  10  22  38  60  86 123 160 203 259 308 373
#     4   9  20  40  60  92 122 154 206 254 314 367
#     4   9  20  36  64  92 116 156 208 256 299 372
#
# _framework density 21.381115999999999
#
# number of rings (size 3 to 8) (size 9 to 14) (size 15 to 20)
#    0.000    2.400    0.000    0.600    5.600    6.800 
#    7.200    0.000    0.000    0.000    0.000    0.000 
#    0.000    0.000    0.000    0.000    0.000    0.000 
#
# Total GULP energy -223252.668997 kJ/mol
# GULP energy per Si atom -5581.316725 kJ/mol
# Density = 2.133245 g / cm^3
# Si number density = 21.381116 Si / 1000 Ang^3
#
#
#
# Elastic Constant Matrix: (Units=GPa)
#
#
# Indices 1 2 3 4 5 6 
#
# 1 26.7196 9.9018 29.5496 0.0000 0.0000 0.0650
# 2 9.9018 26.7196 29.5496 0.0000 0.0000 -0.0650
# 3 29.5496 29.5496 124.2004 0.0000 0.0000 0.0000
# 4 0.0000 0.0000 0.0000 -4.4552 0.0000 0.0000
# 5 0.0000 0.0000 0.0000 0.0000 -4.4552 0.0000
# 6 0.0650 -0.0650 0.0000 0.0000 0.0000 25.5550
#
#
#
# Elastic Compliance Matrix: (Units=1/GPa)
#
#
# Indices 1 2 3 4 5 6 
#
# 1 0.051894 -0.007569 -0.010546 0.000000 0.000000 -0.000151
# 2 -0.007569 0.051894 -0.010546 0.000000 0.000000 0.000151
# 3 -0.010546 -0.010546 0.013070 0.000000 0.000000 0.000000
# 4 0.000000 0.000000 0.000000 -0.224459 0.000000 0.000000
# 5 0.000000 0.000000 0.000000 0.000000 -0.224459 0.000000
# 6 -0.000151 0.000151 0.000000 0.000000 0.000000 0.039132
#
#
# Mechanical properties :
#
#
# Convention : Reuss Voigt Hill
#
# Bulk Modulus (GPa) = 16.79637 35.07130 25.93384
# Shear Modulus (GPa) = -23.17365 10.57150 -6.30108
#
# Velocity S-wave (km/s) = -3.29574 2.22599 -1.71855
# Velocity P-wave (km/s) = 2.57095 4.80055 2.86666
#
# Compressibility (1/GPa) = 0.05953666
#
# Stress axis : x y z
#
# Youngs Moduli (GPa) = 19.27017 19.27017 76.51352
#
# Poissons Ratio (x) = 0.14585 0.80689
# Poissons Ratio (y) = 0.14585 0.80689
# Poissons Ratio (z) = 0.20322 0.20322
#
# Static dielectric constant tensor:
#      x y z
#    x 1.779420 0.000000 0.000000 
#    y 0.000000 1.779420 0.000000 
#    z 0.000000 0.000000 1.786400 
# 
# From -- ./inp_files/4462.got.cif
#   From: 2010.05.17/outbox.cif.g08.bks.cpg/sg86_3_cif.got.tgz:4462.got - 2010.06.03 19:03:11.
