data_PCOD9545354
_publ_section_title
;
Structure prediction by ZEFSAII (Michael W. Deem and Ramdas Pophale) SiO2 
 PCOD9545354
Probable space group: P 42/N
;
_chemical_formula_sum "Si O2"
_cell_formula_units_Z 40
_cell_length_a 11.456612
_cell_length_b 11.456612
_cell_length_c 13.748451
_cell_angle_alpha 90.000000
_cell_angle_beta 90.000000
_cell_angle_gamma 90.000000
_cell_volume 1804.538617
_symmetry_space_group_name_H-M "P 42/N"
_symmetry_group_IT_number 86
_space_group.IT_coordinate_system_code '2'
_symmetry_cell_setting 'tetragonal'
loop_
_space_group_symop_operation_xyz
x,y,z
-y,1/2+x,1/2+z
1/2-x,1/2-y,z
1/2+y,-x,1/2+z
-x,-y,-z
y,1/2-x,1/2-z
1/2+x,1/2+y,-z
1/2-y,x,1/2-z
loop_
_atom_site_type_symbol
_atom_site_label
_atom_site_fract_x
_atom_site_fract_y
_atom_site_fract_z
Si Si1 0.925587 0.692459 0.780396
Si Si2 0.861375 0.429810 0.224193
Si Si3 0.488684 0.145525 0.852891
Si Si4 0.822253 0.637035 0.974394
Si Si5 0.699649 0.118746 0.000630
O O1 0.825506 0.616280 0.727880
O O2 0.921301 0.644148 0.890797
O O3 0.055192 0.674607 0.739720
O O4 0.755149 0.466363 0.292068
O O5 0.949802 0.539542 0.215795
O O6 0.818214 0.393683 0.116794
O O7 0.374666 0.162752 0.919797
O O8 0.585186 0.115379 0.933264
O O9 0.750000 0.750000 0.946989
O O10 0.753502 0.513618 0.975405
O O11 0.750000 0.250000 0.983804
#
# Coordination Sequence:
#
# PCOD9545354 Si02
#       5
#     8   8   8   8   8
#     4  11  22  40  68 100 137 189 235 296 369 441
#     4  11  25  45  67 105 140 189 245 300 377 447
#     4  11  25  44  71  99 146 191 238 307 377 443
#     4  11  22  46  69  98 145 190 241 302 378 448
#     4  11  25  46  70 102 146 193 240 317 375 438
#
# _framework density 22.166333000000002
#
# number of rings (size 3 to 8) (size 9 to 14) (size 15 to 20)
#    0.000    1.000    6.000    1.200    8.400    2.400 
#    0.000    2.000    0.000    0.000    0.000    0.000 
#    0.000    0.000    0.000    0.000    0.000    0.000 
#
# Total GULP energy -222942.071871 kJ/mol
# GULP energy per Si atom -5573.551797 kJ/mol
# Density = 2.211588 g / cm^3
# Si number density = 22.166333 Si / 1000 Ang^3
#
#
#
# Elastic Constant Matrix: (Units=GPa)
#
#
# Indices 1 2 3 4 5 6 
#
# 1 88.8932 24.5426 20.5120 0.0000 0.0000 -15.6925
# 2 24.5426 88.8932 20.5120 0.0000 0.0000 15.6925
# 3 20.5120 20.5120 90.9099 0.0000 0.0000 0.0000
# 4 0.0000 0.0000 0.0000 30.3177 0.0000 0.0000
# 5 0.0000 0.0000 0.0000 0.0000 30.3177 0.0000
# 6 -15.6925 15.6925 0.0000 0.0000 0.0000 41.8788
#
#
#
# Elastic Compliance Matrix: (Units=1/GPa)
#
#
# Indices 1 2 3 4 5 6 
#
# 1 0.014307 -0.004708 -0.002166 0.000000 0.000000 0.007125
# 2 -0.004708 0.014307 -0.002166 0.000000 0.000000 -0.007125
# 3 -0.002166 -0.002166 0.011977 0.000000 0.000000 0.000000
# 4 0.000000 0.000000 0.000000 0.032984 0.000000 0.000000
# 5 0.000000 0.000000 0.000000 0.000000 0.032984 0.000000
# 6 0.007125 -0.007125 0.000000 0.000000 0.000000 0.029218
#
#
# Mechanical properties :
#
#
# Convention : Reuss Voigt Hill
#
# Bulk Modulus (GPa) = 44.42127 44.42550 44.42339
# Shear Modulus (GPa) = 30.98654 34.04482 32.51568
#
# Velocity S-wave (km/s) = 3.74292 3.92328 3.83416
# Velocity P-wave (km/s) = 6.22597 6.37246 6.29964
#
# Compressibility (1/GPa) = 0.02251174
#
# Stress axis : x y z
#
# Youngs Moduli (GPa) = 69.89650 69.89650 83.49178
#
# Poissons Ratio (x) = 0.32908 0.18082
# Poissons Ratio (y) = 0.32908 0.18082
# Poissons Ratio (z) = 0.15138 0.15138
#
# Static dielectric constant tensor:
#      x y z
#    x 1.858940 0.000000 0.000000 
#    y 0.000000 1.858940 0.000000 
#    z 0.000000 0.000000 1.835800 
# 
# From -- ./inp_files/2889.got.cif
#   From: 2010.05.17/outbox.cif.g08.bks.cpg/sg86_2_cif.got.tgz:2889.got - 2010.06.03 19:03:11.
