data_PCOD9545010
_publ_section_title
;
Structure prediction by ZEFSAII (Michael W. Deem and Ramdas Pophale) SiO2 
 PCOD9545010
Probable space group: P 42/N
;
_chemical_formula_sum "Si O2"
_cell_formula_units_Z 40
_cell_length_a 9.978167
_cell_length_b 9.978167
_cell_length_c 21.261113
_cell_angle_alpha 90.000000
_cell_angle_beta 90.000000
_cell_angle_gamma 90.000000
_cell_volume 2116.837557
_symmetry_space_group_name_H-M "P 42/N"
_symmetry_group_IT_number 86
_space_group.IT_coordinate_system_code '2'
_symmetry_cell_setting 'tetragonal'
loop_
_space_group_symop_operation_xyz
x,y,z
-y,1/2+x,1/2+z
1/2-x,1/2-y,z
1/2+y,-x,1/2+z
-x,-y,-z
y,1/2-x,1/2-z
1/2+x,1/2+y,-z
1/2-y,x,1/2-z
loop_
_atom_site_type_symbol
_atom_site_label
_atom_site_fract_x
_atom_site_fract_y
_atom_site_fract_z
Si Si1 0.980528 0.059767 0.874465
Si Si2 0.931148 0.871278 0.760097
Si Si3 0.596176 0.725156 0.422577
Si Si4 0.457191 0.867086 0.152347
Si Si5 0.403572 0.742619 0.535970
O O1 0.953834 0.205334 0.842227
O O2 0.887286 0.056303 0.936116
O O3 0.135370 0.050593 0.892448
O O4 0.945042 0.943264 0.826647
O O5 0.920846 0.711460 0.767296
O O6 0.051496 0.914123 0.713833
O O7 0.750000 0.750000 0.443141
O O8 0.596203 0.605411 0.372222
O O9 0.502712 0.695357 0.481852
O O10 0.356062 0.903487 0.095796
O O11 0.250000 0.750000 0.512760
#
# Coordination Sequence:
#
# PCOD9545010 Si02
#       5
#     8   8   8   8   8
#     4  10  22  40  59  88 121 156 197 244 292 345
#     4  11  24  40  59  84 116 152 201 248 298 349
#     4  10  22  38  60  92 120 156 197 236 293 351
#     4  10  22  40  59  88 121 156 197 244 292 345
#     4  10  20  38  62  86 122 158 193 244 291 343
#
# _framework density 18.896113
#
# number of rings (size 3 to 8) (size 9 to 14) (size 15 to 20)
#    0.000    1.800    2.000    1.200    2.800    3.200 
#    0.000    0.000    0.000    0.000    0.000    0.000 
#    0.000    0.000    0.000    0.000    0.000    0.000 
#
# Total GULP energy -223434.776167 kJ/mol
# GULP energy per Si atom -5585.869404 kJ/mol
# Density = 1.885311 g / cm^3
# Si number density = 18.896113 Si / 1000 Ang^3
#
#
#
# Elastic Constant Matrix: (Units=GPa)
#
#
# Indices 1 2 3 4 5 6 
#
# 1 34.0158 -12.7008 -5.2857 0.0000 0.0000 -1.7154
# 2 -12.7008 34.0158 -5.2857 0.0000 0.0000 1.7154
# 3 -5.2857 -5.2857 19.8787 0.0000 0.0000 0.0000
# 4 0.0000 0.0000 0.0000 5.3062 0.0000 0.0000
# 5 0.0000 0.0000 0.0000 0.0000 5.3062 0.0000
# 6 -1.7154 1.7154 0.0000 0.0000 0.0000 14.6914
#
#
#
# Elastic Compliance Matrix: (Units=1/GPa)
#
#
# Indices 1 2 3 4 5 6 
#
# 1 0.037817 0.016226 0.014370 0.000000 0.000000 0.002521
# 2 0.016226 0.037817 0.014370 0.000000 0.000000 -0.002521
# 3 0.014370 0.014370 0.057947 0.000000 0.000000 0.000000
# 4 0.000000 0.000000 0.000000 0.188458 0.000000 0.000000
# 5 0.000000 0.000000 0.000000 0.000000 0.188458 0.000000
# 6 0.002521 -0.002521 0.000000 0.000000 0.000000 0.068656
#
#
# Mechanical properties :
#
#
# Convention : Reuss Voigt Hill
#
# Bulk Modulus (GPa) = 4.47407 4.59620 4.53514
# Shear Modulus (GPa) = 8.86958 12.47293 10.67126
#
# Velocity S-wave (km/s) = 2.16888 2.57199 2.37899
# Velocity P-wave (km/s) = 2.94023 3.35526 3.15458
#
# Compressibility (1/GPa) = 0.22350990
#
# Stress axis : x y z
#
# Youngs Moduli (GPa) = 26.44345 26.44345 17.25722
#
# Poissons Ratio (x) = -0.42906 -0.24798
# Poissons Ratio (y) = -0.42906 -0.24798
# Poissons Ratio (z) = -0.37998 -0.37998
#
# Static dielectric constant tensor:
#      x y z
#    x 1.659180 0.000000 0.000000 
#    y 0.000000 1.659180 0.000000 
#    z 0.000000 0.000000 1.606590 
# 
# From -- ./inp_files/4460.got.cif
#   From: 2010.05.17/outbox.cif.g08.bks.cpg/sg86_3_cif.got.tgz:4460.got - 2010.06.03 19:03:11.
