data_PCOD9545496
_publ_section_title
;
Structure prediction by ZEFSAII (Michael W. Deem and Ramdas Pophale) SiO2 
 PCOD9545496
Probable space group: I 4/M
;
_chemical_formula_sum "Si O2"
_cell_formula_units_Z 88
_cell_length_a 11.519704
_cell_length_b 11.519704
_cell_length_c 32.552080
_cell_angle_alpha 90.000000
_cell_angle_beta 90.000000
_cell_angle_gamma 90.000000
_cell_volume 4319.777561
_symmetry_space_group_name_H-M "I 4/M"
_symmetry_group_IT_number 87
_symmetry_cell_setting 'tetragonal'
loop_
_space_group_symop_operation_xyz
x,y,z
-y,x,z
-x,-y,z
y,-x,z
-x,-y,-z
y,-x,-z
x,y,-z
-y,x,-z
1/2+x,1/2+y,1/2+z
1/2-y,1/2+x,1/2+z
1/2-x,1/2-y,1/2+z
1/2+y,1/2-x,1/2+z
1/2-x,1/2-y,1/2-z
1/2+y,1/2-x,1/2-z
1/2+x,1/2+y,1/2-z
1/2-y,1/2+x,1/2-z
loop_
_atom_site_type_symbol
_atom_site_label
_atom_site_fract_x
_atom_site_fract_y
_atom_site_fract_z
Si Si1 0.203336 0.702636 0.909466
Si Si2 0.801340 0.295692 0.000000
Si Si3 0.344376 0.928787 0.088443
Si Si4 0.500000 0.000000 0.845837
Si Si5 0.410513 0.137589 0.226498
Si Si6 0.334834 0.604390 0.170163
Si Si7 0.656326 0.072082 0.000000
O O1 0.239557 0.657975 0.955421
O O2 0.240591 0.838057 0.907998
O O3 0.270528 0.644356 0.871637
O O4 0.063903 0.690513 0.907481
O O5 0.762433 0.161518 0.000000
O O6 0.939700 0.304411 0.000000
O O7 0.434784 0.910776 0.124765
O O8 0.403356 0.908379 0.043819
O O9 0.413420 0.065478 0.815908
O O10 0.545295 0.146884 0.242115
O O11 0.362339 0.260229 0.211093
O O12 0.345841 0.464645 0.170776
#
# Coordination Sequence:
#
# PCOD9545496 Si02
#       7
#    16   8  16   8  16  16   8
#     4  10  20  35  57  86 118 161 198 252 288 345
#     4   8  16  31  48  77 118 152 204 241 296 331
#     4  10  19  32  55  80 118 155 202 244 297 338
#     4  10  17  33  56  84 112 148 196 233 281 354
#     4   9  20  38  64  89 112 144 188 232 296 354
#     4  11  23  40  62  91 122 155 196 235 281 347
#     4   8  16  28  44  76 110 154 196 249 288 340
#
# _framework density 20.371420000000001
#
# number of rings (size 3 to 8) (size 9 to 14) (size 15 to 20)
#    0.000    2.545    1.818    1.091    0.000    1.636 
#    0.000    4.545    0.000    1.091    0.000    0.000 
#    0.000    0.000    0.000    0.000    0.000    0.000 
#
# Total GULP energy -244952.503137 kJ/mol
# GULP energy per Si atom -5567.102344 kJ/mol
# Density = 2.032505 g / cm^3
# Si number density = 20.371420 Si / 1000 Ang^3
#
#
#
# Elastic Constant Matrix: (Units=GPa)
#
#
# Indices 1 2 3 4 5 6 
#
# 1 61.2869 14.8236 28.6378 0.0000 0.0000 2.6759
# 2 14.8236 61.2869 28.6378 0.0000 0.0000 -2.6759
# 3 28.6378 28.6378 139.3867 0.0000 0.0000 0.0000
# 4 0.0000 0.0000 0.0000 26.4733 0.0000 0.0000
# 5 0.0000 0.0000 0.0000 0.0000 26.4733 0.0000
# 6 2.6759 -2.6759 0.0000 0.0000 0.0000 28.3623
#
#
#
# Elastic Compliance Matrix: (Units=1/GPa)
#
#
# Indices 1 2 3 4 5 6 
#
# 1 0.018650 -0.003109 -0.003193 0.000000 0.000000 -0.002053
# 2 -0.003109 0.018650 -0.003193 0.000000 0.000000 0.002053
# 3 -0.003193 -0.003193 0.008486 0.000000 0.000000 0.000000
# 4 0.000000 0.000000 0.000000 0.037774 0.000000 0.000000
# 5 0.000000 0.000000 0.000000 0.000000 0.037774 0.000000
# 6 -0.002053 0.002053 0.000000 0.000000 0.000000 0.035645
#
#
# Mechanical properties :
#
#
# Convention : Reuss Voigt Hill
#
# Bulk Modulus (GPa) = 37.31719 45.12875 41.22297
# Shear Modulus (GPa) = 27.04130 28.91918 27.98024
#
# Velocity S-wave (km/s) = 3.64732 3.77184 3.71010
# Velocity P-wave (km/s) = 6.00795 6.41639 6.21553
#
# Compressibility (1/GPa) = 0.02679730
#
# Stress axis : x y z
#
# Youngs Moduli (GPa) = 53.61850 53.61850 117.83578
#
# Poissons Ratio (x) = 0.16668 0.37627
# Poissons Ratio (y) = 0.16668 0.37627
# Poissons Ratio (z) = 0.17121 0.17121
#
# Static dielectric constant tensor:
#      x y z
#    x 1.755450 0.000000 0.000000 
#    y 0.000000 1.755450 0.000000 
#    z 0.000000 0.000000 1.788610 
# 
# From -- ./inp_files/6612.got.cif
#   From: 2010.05.17/outbox.cif.g08.bks.cpg/sg87_4_cif.got.tgz:6612.got - 2010.06.03 19:07:00.
