data_PCOD9545396
_publ_section_title
;
Structure prediction by ZEFSAII (Michael W. Deem and Ramdas Pophale) SiO2 
 PCOD9545396
Probable space group: P 42/N
;
_chemical_formula_sum "Si O2"
_cell_formula_units_Z 40
_cell_length_a 8.761762
_cell_length_b 8.761762
_cell_length_c 22.571014
_cell_angle_alpha 90.000000
_cell_angle_beta 90.000000
_cell_angle_gamma 90.000000
_cell_volume 1732.742287
_symmetry_space_group_name_H-M "P 42/N"
_symmetry_group_IT_number 86
_space_group.IT_coordinate_system_code '2'
_symmetry_cell_setting 'tetragonal'
loop_
_space_group_symop_operation_xyz
x,y,z
-y,1/2+x,1/2+z
1/2-x,1/2-y,z
1/2+y,-x,1/2+z
-x,-y,-z
y,1/2-x,1/2-z
1/2+x,1/2+y,-z
1/2-y,x,1/2-z
loop_
_atom_site_type_symbol
_atom_site_label
_atom_site_fract_x
_atom_site_fract_y
_atom_site_fract_z
Si Si1 0.042119 0.427719 0.870353
Si Si2 0.960621 0.076338 0.876449
Si Si3 0.434638 0.428212 0.248941
Si Si4 0.570438 0.214885 0.563892
Si Si5 0.573532 0.703744 0.561672
O O1 0.216691 0.474704 0.880579
O O2 0.985800 0.471945 0.805395
O O3 0.968926 0.543761 0.918673
O O4 0.007795 0.251684 0.884460
O O5 0.982028 0.018013 0.809849
O O6 0.785155 0.042215 0.892225
O O7 0.037806 0.963625 0.924462
O O8 0.454637 0.246388 0.240016
O O9 0.750000 0.250000 0.563597
O O10 0.487553 0.264042 0.503652
O O11 0.750000 0.750000 0.569207
#
# Coordination Sequence:
#
# PCOD9545396 Si02
#       5
#     8   8   8   8   8
#     4  12  26  45  70 104 143 188 243 302 369 435
#     4  12  26  45  70 104 143 188 243 302 369 435
#     4  11  24  44  69  96 138 186 243 294 361 440
#     4  12  26  46  72 104 146 190 241 300 369 434
#     4  12  24  46  74 106 144 190 241 298 363 446
#
# _framework density 23.084793000000001
#
# number of rings (size 3 to 8) (size 9 to 14) (size 15 to 20)
#    0.000    0.200    2.000    8.400    2.800    0.000 
#    0.000    0.000    0.000    0.000    0.000    0.000 
#    0.000    0.000    0.000    0.000    0.000    0.000 
#
# Total GULP energy -223772.819952 kJ/mol
# GULP energy per Si atom -5594.320499 kJ/mol
# Density = 2.303225 g / cm^3
# Si number density = 23.084793 Si / 1000 Ang^3
#
#
#
# Elastic Constant Matrix: (Units=GPa)
#
#
# Indices 1 2 3 4 5 6 
#
# 1 102.7398 26.8456 24.5388 0.0000 0.0000 2.7221
# 2 26.8456 102.7398 24.5388 0.0000 0.0000 -2.7221
# 3 24.5388 24.5388 106.6246 0.0000 0.0000 0.0000
# 4 0.0000 0.0000 0.0000 42.2788 0.0000 0.0000
# 5 0.0000 0.0000 0.0000 0.0000 42.2788 0.0000
# 6 2.7221 -2.7221 0.0000 0.0000 0.0000 40.1594
#
#
#
# Elastic Compliance Matrix: (Units=1/GPa)
#
#
# Indices 1 2 3 4 5 6 
#
# 1 0.010847 -0.002393 -0.001946 0.000000 0.000000 -0.000897
# 2 -0.002393 0.010847 -0.001946 0.000000 0.000000 0.000897
# 3 -0.001946 -0.001946 0.010274 0.000000 0.000000 0.000000
# 4 0.000000 0.000000 0.000000 0.023653 0.000000 0.000000
# 5 0.000000 0.000000 0.000000 0.000000 0.023653 0.000000
# 6 -0.000897 0.000897 0.000000 0.000000 0.000000 0.025022
#
#
# Mechanical properties :
#
#
# Convention : Reuss Voigt Hill
#
# Bulk Modulus (GPa) = 51.54781 51.55007 51.54894
# Shear Modulus (GPa) = 40.54109 40.68880 40.61495
#
# Velocity S-wave (km/s) = 4.19523 4.20286 4.19905
# Velocity P-wave (km/s) = 6.77088 6.77726 6.77407
#
# Compressibility (1/GPa) = 0.01939947
#
# Stress axis : x y z
#
# Youngs Moduli (GPa) = 92.18982 92.18982 97.33109
#
# Poissons Ratio (x) = 0.22065 0.18936
# Poissons Ratio (y) = 0.22065 0.18936
# Poissons Ratio (z) = 0.17936 0.17936
#
# Static dielectric constant tensor:
#      x y z
#    x 1.815640 0.000000 0.000000 
#    y 0.000000 1.815640 0.000000 
#    z 0.000000 0.000000 1.797010 
# 
# From -- ./inp_files/4471.got.cif
#   From: 2010.05.17/outbox.cif.g08.bks.cpg/sg86_3_cif.got.tgz:4471.got - 2010.06.03 19:03:11.
