data_PCOD9545650
_publ_section_title
;
Structure prediction by ZEFSAII (Michael W. Deem and Ramdas Pophale) SiO2 
 PCOD9545650
Probable space group: I 4/M
;
_chemical_formula_sum "Si O2"
_cell_formula_units_Z 128
_cell_length_a 22.056849
_cell_length_b 22.056849
_cell_length_c 14.339267
_cell_angle_alpha 90.000000
_cell_angle_beta 90.000000
_cell_angle_gamma 90.000000
_cell_volume 6976.119181
_symmetry_space_group_name_H-M "I 4/M"
_symmetry_group_IT_number 87
_symmetry_cell_setting 'tetragonal'
loop_
_space_group_symop_operation_xyz
x,y,z
-y,x,z
-x,-y,z
y,-x,z
-x,-y,-z
y,-x,-z
x,y,-z
-y,x,-z
1/2+x,1/2+y,1/2+z
1/2-y,1/2+x,1/2+z
1/2-x,1/2-y,1/2+z
1/2+y,1/2-x,1/2+z
1/2-x,1/2-y,1/2-z
1/2+y,1/2-x,1/2-z
1/2+x,1/2+y,1/2-z
1/2-y,1/2+x,1/2-z
loop_
_atom_site_type_symbol
_atom_site_label
_atom_site_fract_x
_atom_site_fract_y
_atom_site_fract_z
Si Si1 0.747705 0.411387 0.605065
Si Si2 0.099888 0.988943 0.597683
Si Si3 0.079226 0.635392 0.267063
Si Si4 0.699662 0.208683 0.803998
Si Si5 0.317853 0.573074 0.784470
Si Si6 0.765549 0.510401 0.890546
Si Si7 0.020634 0.374470 0.888505
Si Si8 0.186258 0.129878 0.605572
O O1 0.726869 0.407983 0.500000
O O2 0.769227 0.346091 0.641766
O O3 0.696955 0.428853 0.677657
O O4 0.804331 0.457414 0.610845
O O5 0.135794 0.982761 0.500000
O O6 0.134250 0.978081 0.691224
O O7 0.050457 0.936029 0.595141
O O8 0.142276 0.674435 0.252072
O O9 0.036519 0.678671 0.330700
O O10 0.093177 0.574852 0.328656
O O11 0.041519 0.620760 0.172211
O O12 0.750000 0.250000 0.750000
O O13 0.669771 0.254412 0.877001
O O14 0.259071 0.551592 0.844124
O O15 0.345422 0.635428 0.823902
O O16 0.712553 0.561983 0.882995
O O17 0.780571 0.504160 0.000000
O O18 0.016958 0.392513 0.000000
O O19 0.163818 0.136630 0.500000
#
# Coordination Sequence:
#
# PCOD9545650 Si02
#       8
#    16  16  16  16  16  16  16  16
#     4  10  21  37  57  78 110 156 193 226 280 346
#     4   9  18  32  50  75 109 147 182 221 283 350
#     4  10  21  38  63  87 115 156 197 235 289 351
#     4  10  19  37  59  80 113 147 186 238 285 339
#     4  12  19  30  53  80 111 142 186 239 281 335
#     4  10  20  34  53  84 117 148 192 238 287 345
#     4  10  21  42  65  85 117 157 193 236 290 350
#     4  10  20  32  52  80 112 147 179 225 291 345
#
# _framework density 18.348312
#
# number of rings (size 3 to 8) (size 9 to 14) (size 15 to 20)
#    0.000    1.875    2.500    3.000    0.000    5.250 
#    0.000    3.125    0.000    3.000    0.000    0.875 
#    0.000    0.000    0.000    0.000    0.000    0.000 
#
# Total GULP energy -356383.615090 kJ/mol
# GULP energy per Si atom -5568.493986 kJ/mol
# Density = 1.830655 g / cm^3
# Si number density = 18.348312 Si / 1000 Ang^3
#
#
#
# Elastic Constant Matrix: (Units=GPa)
#
#
# Indices 1 2 3 4 5 6 
#
# 1 61.6093 32.5338 50.9812 0.0000 0.0000 -21.5575
# 2 32.5338 61.6093 50.9812 0.0000 0.0000 21.5575
# 3 50.9812 50.9812 149.2634 0.0000 0.0000 0.0000
# 4 0.0000 0.0000 0.0000 29.9157 0.0000 0.0000
# 5 0.0000 0.0000 0.0000 0.0000 29.9157 0.0000
# 6 -21.5575 21.5575 0.0000 0.0000 0.0000 -4.9672
#
#
#
# Elastic Compliance Matrix: (Units=1/GPa)
#
#
# Indices 1 2 3 4 5 6 
#
# 1 0.010742 0.006116 -0.005758 0.000000 0.000000 -0.020074
# 2 0.006116 0.010742 -0.005758 0.000000 0.000000 0.020074
# 3 -0.005758 -0.005758 0.010633 0.000000 0.000000 0.000000
# 4 0.000000 0.000000 0.000000 0.033427 0.000000 0.000000
# 5 0.000000 0.000000 0.000000 0.000000 0.033427 0.000000
# 6 -0.020074 0.020074 0.000000 0.000000 0.000000 -0.027075
#
#
# Mechanical properties :
#
#
# Convention : Reuss Voigt Hill
#
# Bulk Modulus (GPa) = 46.90959 60.16385 53.53672
# Shear Modulus (GPa) = 55.67859 20.17190 37.92525
#
# Velocity S-wave (km/s) = 5.51464 3.31930 4.55132
# Velocity P-wave (km/s) = 8.13449 6.89575 7.54060
#
# Compressibility (1/GPa) = 0.02131760
#
# Stress axis : x y z
#
# Youngs Moduli (GPa) = 93.09299 93.09299 94.04777
#
# Poissons Ratio (x) = -0.56940 0.54153
# Poissons Ratio (y) = -0.56940 0.54153
# Poissons Ratio (z) = 0.53603 0.53603
#
# Static dielectric constant tensor:
#      x y z
#    x 1.627510 0.000000 0.000000 
#    y 0.000000 1.627510 0.000000 
#    z 0.000000 0.000000 1.627640 
# 
# From -- ./inp_files/2959.got.cif
#   From: 2010.05.17/outbox.cif.g08.bks.cpg/sg87_2_cif.got.tgz:2959.got - 2010.06.03 19:07:00.
