data_PCOD9545247
_publ_section_title
;
Structure prediction by ZEFSAII (Michael W. Deem and Ramdas Pophale) SiO2 
 PCOD9545247
Probable space group: P 42/N
;
_chemical_formula_sum "Si O2"
_cell_formula_units_Z 24
_cell_length_a 6.910353
_cell_length_b 6.910353
_cell_length_c 20.218102
_cell_angle_alpha 90.000000
_cell_angle_beta 90.000000
_cell_angle_gamma 90.000000
_cell_volume 965.474592
_symmetry_space_group_name_H-M "P 42/N"
_symmetry_group_IT_number 86
_space_group.IT_coordinate_system_code '2'
_symmetry_cell_setting 'tetragonal'
loop_
_space_group_symop_operation_xyz
x,y,z
-y,1/2+x,1/2+z
1/2-x,1/2-y,z
1/2+y,-x,1/2+z
-x,-y,-z
y,1/2-x,1/2-z
1/2+x,1/2+y,-z
1/2-y,x,1/2-z
loop_
_atom_site_type_symbol
_atom_site_label
_atom_site_fract_x
_atom_site_fract_y
_atom_site_fract_z
Si Si1 0.445847 0.968498 0.658924
Si Si2 0.750000 0.250000 0.587666
Si Si3 0.280344 0.022192 0.523238
Si Si4 0.750000 0.750000 0.250000
Si Si5 0.250000 0.250000 0.250000
O O1 0.597017 0.134948 0.632649
O O2 0.304500 0.935685 0.596105
O O3 0.298352 0.061686 0.709356
O O4 0.576728 0.814780 0.699525
O O5 0.665661 0.409569 0.535228
O O6 0.250000 0.250000 0.525651
O O7 0.500000 0.000000 0.500000
#
# Coordination Sequence:
#
# PCOD9545247 Si02
#       5
#     8   4   8   2   2
#     4  11  25  46  68 105 141 195 253 305 383 454
#     4  10  24  44  74 104 144 190 244 320 384 452
#     4  10  23  43  68 105 142 184 241 315 386 449
#     4  12  24  48  70 100 148 192 248 310 368 460
#     4  12  28  48  74 100 152 204 256 302 372 476
#
# _framework density 24.858239000000001
#
# number of rings (size 3 to 8) (size 9 to 14) (size 15 to 20)
#    0.000    1.333    1.667    2.000    9.333    8.000 
#    0.000    0.000    0.000    0.000    0.000    0.000 
#    0.000    0.000    0.000    0.000    0.000    0.000 
#
# Total GULP energy -133849.596788 kJ/mol
# GULP energy per Si atom -5577.066533 kJ/mol
# Density = 2.480166 g / cm^3
# Si number density = 24.858239 Si / 1000 Ang^3
#
#
#
# Elastic Constant Matrix: (Units=GPa)
#
#
# Indices 1 2 3 4 5 6 
#
# 1 71.1192 43.6201 16.6314 0.0000 0.0000 -7.3761
# 2 43.6201 71.1192 16.6314 0.0000 0.0000 7.3761
# 3 16.6314 16.6314 135.5886 0.0000 0.0000 0.0000
# 4 0.0000 0.0000 0.0000 44.9238 0.0000 0.0000
# 5 0.0000 0.0000 0.0000 0.0000 44.9238 0.0000
# 6 -7.3761 7.3761 0.0000 0.0000 0.0000 69.4989
#
#
#
# Elastic Compliance Matrix: (Units=1/GPa)
#
#
# Indices 1 2 3 4 5 6 
#
# 1 0.023799 -0.014762 -0.001108 0.000000 0.000000 0.004092
# 2 -0.014762 0.023799 -0.001108 0.000000 0.000000 -0.004092
# 3 -0.001108 -0.001108 0.007647 0.000000 0.000000 0.000000
# 4 0.000000 0.000000 0.000000 0.022260 0.000000 0.000000
# 5 0.000000 0.000000 0.000000 0.000000 0.022260 0.000000
# 6 0.004092 -0.004092 0.000000 0.000000 0.000000 0.015257
#
#
# Mechanical properties :
#
#
# Convention : Reuss Voigt Hill
#
# Bulk Modulus (GPa) = 46.97732 47.95474 47.46603
# Shear Modulus (GPa) = 32.03599 45.26558 38.65078
#
# Velocity S-wave (km/s) = 3.59381 4.27189 3.94743
# Velocity P-wave (km/s) = 6.01330 6.60796 6.31763
#
# Compressibility (1/GPa) = 0.02128687
#
# Stress axis : x y z
#
# Youngs Moduli (GPa) = 42.01941 42.01941 130.76721
#
# Poissons Ratio (x) = 0.62028 0.14495
# Poissons Ratio (y) = 0.62028 0.14495
# Poissons Ratio (z) = 0.04658 0.04658
#
# Static dielectric constant tensor:
#      x y z
#    x 2.164200 0.000000 0.000000 
#    y 0.000000 2.164200 0.000000 
#    z 0.000000 0.000000 1.903830 
# 
# From -- ./inp_files/3246.got.cif
#   From: 2010.05.17/outbox.cif.g08.bks.cpg/sg86_2_cif.got.tgz:3246.got - 2010.06.03 19:03:11.
