data_PCOD9545782
_publ_section_title
;
Structure prediction by ZEFSAII (Michael W. Deem and Ramdas Pophale) SiO2 
 PCOD9545782
Probable space group: I 4/M
;
_chemical_formula_sum "Si O2"
_cell_formula_units_Z 64
_cell_length_a 14.116385
_cell_length_b 14.116385
_cell_length_c 14.097803
_cell_angle_alpha 90.000000
_cell_angle_beta 90.000000
_cell_angle_gamma 90.000000
_cell_volume 2809.301988
_symmetry_space_group_name_H-M "I 4/M"
_symmetry_group_IT_number 87
_symmetry_cell_setting 'tetragonal'
loop_
_space_group_symop_operation_xyz
x,y,z
-y,x,z
-x,-y,z
y,-x,z
-x,-y,-z
y,-x,-z
x,y,-z
-y,x,-z
1/2+x,1/2+y,1/2+z
1/2-y,1/2+x,1/2+z
1/2-x,1/2-y,1/2+z
1/2+y,1/2-x,1/2+z
1/2-x,1/2-y,1/2-z
1/2+y,1/2-x,1/2-z
1/2+x,1/2+y,1/2-z
1/2-y,1/2+x,1/2-z
loop_
_atom_site_type_symbol
_atom_site_label
_atom_site_fract_x
_atom_site_fract_y
_atom_site_fract_z
Si Si1 0.060453 0.858659 0.687788
Si Si2 0.198377 0.700720 0.338647
Si Si3 0.098208 0.792300 0.101928
Si Si4 0.515196 0.891033 0.611106
O O1 0.110940 0.769624 0.638885
O O2 0.063097 0.842844 0.802371
O O3 0.952123 0.879260 0.663269
O O4 0.250000 0.750000 0.250000
O O5 0.289675 0.691965 0.404212
O O6 0.155638 0.597085 0.325951
O O7 0.073166 0.680776 0.115398
O O8 0.054606 0.820882 0.000000
O O9 0.547083 0.890365 0.500000
O O10 0.500000 0.000000 0.636385
#
# Coordination Sequence:
#
# PCOD9545782 Si02
#       4
#    16  16  16  16
#     4  10  22  38  57  84 120 161 204 249 303 373
#     4  10  21  37  58  87 126 162 200 249 310 373
#     4  10  20  37  62  88 118 156 198 255 316 368
#     4  10  22  40  63  93 124 161 213 263 313 376
#
# _framework density 22.781459000000002
#
# number of rings (size 3 to 8) (size 9 to 14) (size 15 to 20)
#    0.000    2.000    0.000    3.750    3.500    3.000 
#    4.500    1.250    0.000    0.000    0.000    7.000 
#    0.000    0.000    0.000    0.000    0.000    0.000 
#
# Total GULP energy -178588.089878 kJ/mol
# GULP energy per Si atom -5580.877809 kJ/mol
# Density = 2.272961 g / cm^3
# Si number density = 22.781459 Si / 1000 Ang^3
#
#
#
# Elastic Constant Matrix: (Units=GPa)
#
#
# Indices 1 2 3 4 5 6 
#
# 1 97.0585 37.4458 -15.5664 0.0000 0.0000 4.5832
# 2 37.4458 97.0585 -15.5664 0.0000 0.0000 -4.5832
# 3 -15.5664 -15.5664 30.4053 0.0000 0.0000 0.0000
# 4 0.0000 0.0000 0.0000 8.8520 0.0000 0.0000
# 5 0.0000 0.0000 0.0000 0.0000 8.8520 0.0000
# 6 4.5832 -4.5832 0.0000 0.0000 0.0000 46.7839
#
#
#
# Elastic Compliance Matrix: (Units=1/GPa)
#
#
# Indices 1 2 3 4 5 6 
#
# 1 0.012733 -0.004299 0.004318 0.000000 0.000000 -0.001669
# 2 -0.004299 0.012733 0.004318 0.000000 0.000000 0.001669
# 3 0.004318 0.004318 0.037310 0.000000 0.000000 0.000000
# 4 0.000000 0.000000 0.000000 0.112969 0.000000 0.000000
# 5 0.000000 0.000000 0.000000 0.000000 0.112969 0.000000
# 6 -0.001669 0.001669 0.000000 0.000000 0.000000 0.021702
#
#
# Mechanical properties :
#
#
# Convention : Reuss Voigt Hill
#
# Bulk Modulus (GPa) = 13.99569 26.34979 20.17274
# Shear Modulus (GPa) = 15.35822 27.44487 21.40154
#
# Velocity S-wave (km/s) = 2.59926 3.47465 3.06833
# Velocity P-wave (km/s) = 3.89423 5.26203 4.62893
#
# Compressibility (1/GPa) = 0.07145056
#
# Stress axis : x y z
#
# Youngs Moduli (GPa) = 78.53713 78.53713 26.80227
#
# Poissons Ratio (x) = 0.33760 -0.11573
# Poissons Ratio (y) = 0.33760 -0.11573
# Poissons Ratio (z) = -0.33912 -0.33912
#
# Static dielectric constant tensor:
#      x y z
#    x 1.848620 0.000000 0.000000 
#    y 0.000000 1.848620 0.000000 
#    z 0.000000 0.000000 1.920430 
# 
# From -- ./inp_files/3349.got.cif
#   From: 2010.05.17/outbox.cif.g08.bks.cpg/sg87_2_cif.got.tgz:3349.got - 2010.06.03 19:07:00.
