data_PCOD9545360
_publ_section_title
;
Structure prediction by ZEFSAII (Michael W. Deem and Ramdas Pophale) SiO2 
 PCOD9545360
Probable space group: P 42/N
;
_chemical_formula_sum "Si O2"
_cell_formula_units_Z 40
_cell_length_a 12.161367
_cell_length_b 12.161367
_cell_length_c 12.670457
_cell_angle_alpha 90.000000
_cell_angle_beta 90.000000
_cell_angle_gamma 90.000000
_cell_volume 1873.945985
_symmetry_space_group_name_H-M "P 42/N"
_symmetry_group_IT_number 86
_space_group.IT_coordinate_system_code '2'
_symmetry_cell_setting 'tetragonal'
loop_
_space_group_symop_operation_xyz
x,y,z
-y,1/2+x,1/2+z
1/2-x,1/2-y,z
1/2+y,-x,1/2+z
-x,-y,-z
y,1/2-x,1/2-z
1/2+x,1/2+y,-z
1/2-y,x,1/2-z
loop_
_atom_site_type_symbol
_atom_site_label
_atom_site_fract_x
_atom_site_fract_y
_atom_site_fract_z
Si Si1 0.660123 0.898385 0.780155
Si Si2 0.994362 0.620988 0.956112
Si Si3 0.540800 0.090891 0.647539
Si Si4 0.862578 0.191386 0.710132
Si Si5 0.658945 0.047495 0.426127
O O1 0.791204 0.890157 0.777732
O O2 0.622154 0.876069 0.898614
O O3 0.607949 0.007060 0.725708
O O4 0.086372 0.626904 0.864139
O O5 0.011668 0.719315 0.038144
O O6 0.000000 0.500000 0.000000
O O7 0.546265 0.214493 0.690720
O O8 0.600670 0.086399 0.533668
O O9 0.418733 0.045619 0.626083
O O10 0.750000 0.250000 0.680306
O O11 0.862483 0.163619 0.833857
#
# Coordination Sequence:
#
# PCOD9545360 Si02
#       5
#     8   8   8   8   8
#     4  11  22  44  71  97 134 183 236 283 340 423
#     4  12  26  46  72 105 139 184 236 287 360 425
#     4  11  24  46  69 103 143 177 233 291 355 407
#     4  12  25  45  72 105 141 184 238 291 351 427
#     4  11  25  43  71 100 139 184 227 294 350 416
#
# _framework density 21.345333
#
# number of rings (size 3 to 8) (size 9 to 14) (size 15 to 20)
#    0.000    0.600    6.000    1.200    2.800    3.200 
#    0.000    0.000    0.000    0.000    0.000    0.000 
#    0.000    0.000    0.000    0.000    0.000    0.000 
#
# Total GULP energy -223551.738088 kJ/mol
# GULP energy per Si atom -5588.793452 kJ/mol
# Density = 2.129675 g / cm^3
# Si number density = 21.345333 Si / 1000 Ang^3
#
#
#
# Elastic Constant Matrix: (Units=GPa)
#
#
# Indices 1 2 3 4 5 6 
#
# 1 91.9563 -13.0167 3.8348 0.0000 0.0000 0.1612
# 2 -13.0167 91.9563 3.8348 0.0000 0.0000 -0.1612
# 3 3.8348 3.8348 48.1235 0.0000 0.0000 0.0000
# 4 0.0000 0.0000 0.0000 31.4102 0.0000 0.0000
# 5 0.0000 0.0000 0.0000 0.0000 31.4102 0.0000
# 6 0.1612 -0.1612 0.0000 0.0000 0.0000 20.7424
#
#
#
# Elastic Compliance Matrix: (Units=1/GPa)
#
#
# Indices 1 2 3 4 5 6 
#
# 1 0.011147 0.001620 -0.001017 0.000000 0.000000 -0.000074
# 2 0.001620 0.011147 -0.001017 0.000000 0.000000 0.000074
# 3 -0.001017 -0.001017 0.020942 0.000000 0.000000 0.000000
# 4 0.000000 0.000000 0.000000 0.031837 0.000000 0.000000
# 5 0.000000 0.000000 0.000000 0.000000 0.031837 0.000000
# 6 -0.000074 0.000074 0.000000 0.000000 0.000000 0.048212
#
#
# Mechanical properties :
#
#
# Convention : Reuss Voigt Hill
#
# Bulk Modulus (GPa) = 23.58145 24.59351 24.08748
# Shear Modulus (GPa) = 29.39707 32.53809 30.96758
#
# Velocity S-wave (km/s) = 3.71511 3.90855 3.81305
# Velocity P-wave (km/s) = 5.42902 5.64940 5.54031
#
# Compressibility (1/GPa) = 0.04240622
#
# Stress axis : x y z
#
# Youngs Moduli (GPa) = 89.71325 89.71325 47.75091
#
# Poissons Ratio (x) = -0.14535 0.04858
# Poissons Ratio (y) = -0.14535 0.04858
# Poissons Ratio (z) = 0.09127 0.09127
#
# Static dielectric constant tensor:
#      x y z
#    x 1.768970 0.000000 0.000000 
#    y 0.000000 1.768970 0.000000 
#    z 0.000000 0.000000 1.718620 
# 
# From -- ./inp_files/2888.got.cif
#   From: 2010.05.17/outbox.cif.g08.bks.cpg/sg86_2_cif.got.tgz:2888.got - 2010.06.03 19:03:11.
