data_PCOD9545917
_publ_section_title
;
Structure prediction by ZEFSAII (Michael W. Deem and Ramdas Pophale) SiO2 
 PCOD9545917
Probable space group: I 4/M
;
_chemical_formula_sum "Si O2"
_cell_formula_units_Z 88
_cell_length_a 13.950617
_cell_length_b 13.950617
_cell_length_c 24.581828
_cell_angle_alpha 90.000000
_cell_angle_beta 90.000000
_cell_angle_gamma 90.000000
_cell_volume 4784.108352
_symmetry_space_group_name_H-M "I 4/M"
_symmetry_group_IT_number 87
_symmetry_cell_setting 'tetragonal'
loop_
_space_group_symop_operation_xyz
x,y,z
-y,x,z
-x,-y,z
y,-x,z
-x,-y,-z
y,-x,-z
x,y,-z
-y,x,-z
1/2+x,1/2+y,1/2+z
1/2-y,1/2+x,1/2+z
1/2-x,1/2-y,1/2+z
1/2+y,1/2-x,1/2+z
1/2-x,1/2-y,1/2-z
1/2+y,1/2-x,1/2-z
1/2+x,1/2+y,1/2-z
1/2-y,1/2+x,1/2-z
loop_
_atom_site_type_symbol
_atom_site_label
_atom_site_fract_x
_atom_site_fract_y
_atom_site_fract_z
Si Si1 0.595388 0.065237 0.596773
Si Si2 0.092907 0.870012 0.500000
Si Si3 0.206715 0.384884 0.919861
Si Si4 0.371973 0.262170 0.500000
Si Si5 0.605617 0.781072 0.794359
Si Si6 0.573520 0.216925 0.500000
Si Si7 0.382786 0.764389 0.205895
O O1 0.653317 0.102735 0.650329
O O2 0.573566 0.148706 0.553406
O O3 0.500000 0.000000 0.609877
O O4 0.666445 0.989996 0.567567
O O5 0.125394 0.811178 0.446854
O O6 0.977936 0.872307 0.500000
O O7 0.143255 0.305731 0.948313
O O8 0.201040 0.374859 0.855919
O O9 0.482376 0.287864 0.500000
O O10 0.287038 0.336900 0.500000
O O11 0.670491 0.684919 0.794530
O O12 0.495749 0.751618 0.783127
O O13 0.656167 0.843627 0.747472
#
# Coordination Sequence:
#
# PCOD9545917 Si02
#       7
#    16   8  16   8  16   8  16
#     4  11  22  39  63  91 119 155 208 262 314 375
#     4  10  23  36  55  91 134 167 197 241 311 393
#     4  10  22  37  59  87 119 160 203 252 313 370
#     4  11  23  37  57  83 122 160 207 256 306 369
#     4  10  24  40  63  91 121 161 208 263 312 377
#     4  12  23  38  60  88 122 164 203 261 312 380
#     4  10  23  41  61  91 123 163 210 256 315 376
#
# _framework density 18.394233
#
# number of rings (size 3 to 8) (size 9 to 14) (size 15 to 20)
#    0.000    1.545    1.818    2.455   15.273    0.545 
#    0.000    0.000    0.000    0.000    0.000    5.091 
#    0.000    0.000    0.000    0.000    0.000    0.000 
#
# Total GULP energy -245314.733536 kJ/mol
# GULP energy per Si atom -5575.334853 kJ/mol
# Density = 1.835237 g / cm^3
# Si number density = 18.394233 Si / 1000 Ang^3
#
#
#
# Elastic Constant Matrix: (Units=GPa)
#
#
# Indices 1 2 3 4 5 6 
#
# 1 118.6119 50.6686 61.1439 0.0000 0.0000 -1.0643
# 2 50.6686 118.6119 61.1439 0.0000 0.0000 1.0643
# 3 61.1439 61.1439 108.9505 0.0000 0.0000 0.0000
# 4 0.0000 0.0000 0.0000 8.9618 0.0000 0.0000
# 5 0.0000 0.0000 0.0000 0.0000 8.9618 0.0000
# 6 -1.0643 1.0643 0.0000 0.0000 0.0000 19.3028
#
#
#
# Elastic Compliance Matrix: (Units=1/GPa)
#
#
# Indices 1 2 3 4 5 6 
#
# 1 0.012339 -0.002404 -0.005576 0.000000 0.000000 0.000813
# 2 -0.002404 0.012339 -0.005576 0.000000 0.000000 -0.000813
# 3 -0.005576 -0.005576 0.015437 0.000000 0.000000 0.000000
# 4 0.000000 0.000000 0.000000 0.111585 0.000000 0.000000
# 5 0.000000 0.000000 0.000000 0.000000 0.111585 0.000000
# 6 0.000813 -0.000813 0.000000 0.000000 0.000000 0.051896
#
#
# Mechanical properties :
#
#
# Convention : Reuss Voigt Hill
#
# Bulk Modulus (GPa) = 76.89751 76.89854 76.89802
# Shear Modulus (GPa) = 14.42473 18.99314 16.70894
#
# Velocity S-wave (km/s) = 2.80339 3.21683 3.01720
# Velocity P-wave (km/s) = 7.23703 7.46283 7.35080
#
# Compressibility (1/GPa) = 0.01300432
#
# Stress axis : x y z
#
# Youngs Moduli (GPa) = 81.04094 81.04094 64.78033
#
# Poissons Ratio (x) = 0.19484 0.36120
# Poissons Ratio (y) = 0.19484 0.36120
# Poissons Ratio (z) = 0.45186 0.45186
#
# Static dielectric constant tensor:
#      x y z
#    x 1.650950 0.000000 0.000000 
#    y 0.000000 1.650950 0.000000 
#    z 0.000000 0.000000 1.604940 
# 
# From -- ./inp_files/5225.got.cif
#   From: 2010.05.17/outbox.cif.g08.bks.cpg/sg87_3_cif.got.tgz:5225.got - 2010.06.03 19:07:00.
