data_PCOD9545848
_publ_section_title
;
Structure prediction by ZEFSAII (Michael W. Deem and Ramdas Pophale) SiO2 
 PCOD9545848
Probable space group: I 4/M
;
_chemical_formula_sum "Si O2"
_cell_formula_units_Z 84
_cell_length_a 15.386279
_cell_length_b 15.386279
_cell_length_c 17.425863
_cell_angle_alpha 90.000000
_cell_angle_beta 90.000000
_cell_angle_gamma 90.000000
_cell_volume 4125.356662
_symmetry_space_group_name_H-M "I 4/M"
_symmetry_group_IT_number 87
_symmetry_cell_setting 'tetragonal'
loop_
_space_group_symop_operation_xyz
x,y,z
-y,x,z
-x,-y,z
y,-x,z
-x,-y,-z
y,-x,-z
x,y,-z
-y,x,-z
1/2+x,1/2+y,1/2+z
1/2-y,1/2+x,1/2+z
1/2-x,1/2-y,1/2+z
1/2+y,1/2-x,1/2+z
1/2-x,1/2-y,1/2-z
1/2+y,1/2-x,1/2-z
1/2+x,1/2+y,1/2-z
1/2-y,1/2+x,1/2-z
loop_
_atom_site_type_symbol
_atom_site_label
_atom_site_fract_x
_atom_site_fract_y
_atom_site_fract_z
Si Si1 0.498896 0.182851 0.330250
Si Si2 0.000000 0.000000 0.150487
Si Si3 0.418536 0.334858 0.588083
Si Si4 0.314602 0.890046 0.319435
Si Si5 0.251576 0.281694 0.911650
Si Si6 0.556154 0.126299 0.910019
O O1 0.485564 0.256805 0.393792
O O2 0.597276 0.165093 0.306730
O O3 0.440345 0.209939 0.257759
O O4 0.455046 0.094967 0.363273
O O5 0.933957 0.916177 0.142258
O O6 0.430178 0.364589 0.500000
O O7 0.324418 0.290374 0.595457
O O8 0.241339 0.827540 0.353207
O O9 0.341675 0.963966 0.380185
O O10 0.203323 0.373088 0.898891
O O11 0.283065 0.279219 0.000000
O O12 0.554159 0.105013 0.000000
#
# Coordination Sequence:
#
# PCOD9545848 Si02
#       6
#    16   4  16  16  16  16
#     4  11  23  37  56  88 123 153 196 244 301 361
#     4  12  21  36  60  84 116 156 197 242 289 352
#     4  10  21  37  57  85 119 155 197 243 292 361
#     4  12  22  38  61  86 122 157 195 249 303 349
#     4   9  21  40  61  87 117 156 205 243 296 359
#     4  10  22  39  61  88 118 156 203 249 293 355
#
# _framework density 20.361877
#
# number of rings (size 3 to 8) (size 9 to 14) (size 15 to 20)
#    0.000    1.524    1.905    4.857    0.000    8.381 
#    3.429    0.000    0.000    0.571    0.000    2.667 
#    0.000    0.000    0.000    0.000    0.000    0.000 
#
# Total GULP energy -234335.175322 kJ/mol
# GULP energy per Si atom -5579.408936 kJ/mol
# Density = 2.031553 g / cm^3
# Si number density = 20.361877 Si / 1000 Ang^3
#
#
#
# Elastic Constant Matrix: (Units=GPa)
#
#
# Indices 1 2 3 4 5 6 
#
# 1 56.3590 3.6354 6.6310 0.0000 0.0000 -5.2501
# 2 3.6354 56.3590 6.6310 0.0000 0.0000 5.2501
# 3 6.6310 6.6310 55.5478 0.0000 0.0000 0.0000
# 4 0.0000 0.0000 0.0000 16.5465 0.0000 0.0000
# 5 0.0000 0.0000 0.0000 0.0000 16.5465 0.0000
# 6 -5.2501 5.2501 0.0000 0.0000 0.0000 20.4793
#
#
#
# Elastic Compliance Matrix: (Units=1/GPa)
#
#
# Indices 1 2 3 4 5 6 
#
# 1 0.018554 -0.001434 -0.002044 0.000000 0.000000 0.005124
# 2 -0.001434 0.018554 -0.002044 0.000000 0.000000 -0.005124
# 3 -0.002044 -0.002044 0.018490 0.000000 0.000000 0.000000
# 4 0.000000 0.000000 0.000000 0.060436 0.000000 0.000000
# 5 0.000000 0.000000 0.000000 0.000000 0.060436 0.000000
# 6 0.005124 -0.005124 0.000000 0.000000 0.000000 0.051457
#
#
# Mechanical properties :
#
#
# Convention : Reuss Voigt Hill
#
# Bulk Modulus (GPa) = 22.44385 22.45118 22.44751
# Shear Modulus (GPa) = 19.69897 20.80569 20.25233
#
# Velocity S-wave (km/s) = 3.11375 3.20002 3.15718
# Velocity P-wave (km/s) = 4.89629 4.97027 4.93342
#
# Compressibility (1/GPa) = 0.04455564
#
# Stress axis : x y z
#
# Youngs Moduli (GPa) = 53.89777 53.89776 54.08200
#
# Poissons Ratio (x) = 0.07727 0.11053
# Poissons Ratio (y) = 0.07727 0.11053
# Poissons Ratio (z) = 0.11015 0.11015
#
# Static dielectric constant tensor:
#      x y z
#    x 1.718310 0.000000 0.000000 
#    y 0.000000 1.718310 0.000000 
#    z 0.000000 0.000000 1.749070 
# 
# From -- ./inp_files/5196.got.cif
#   From: 2010.05.17/outbox.cif.g08.bks.cpg/sg87_3_cif.got.tgz:5196.got - 2010.06.03 19:07:00.
