data_PCOD9545501
_publ_section_title
;
Structure prediction by ZEFSAII (Michael W. Deem and Ramdas Pophale) SiO2 
 PCOD9545501
Probable space group: I 4/M
;
_chemical_formula_sum "Si O2"
_cell_formula_units_Z 96
_cell_length_a 24.822182
_cell_length_b 24.822182
_cell_length_c 7.502457
_cell_angle_alpha 90.000000
_cell_angle_beta 90.000000
_cell_angle_gamma 90.000000
_cell_volume 4622.569252
_symmetry_space_group_name_H-M "I 4/M"
_symmetry_group_IT_number 87
_symmetry_cell_setting 'tetragonal'
loop_
_space_group_symop_operation_xyz
x,y,z
-y,x,z
-x,-y,z
y,-x,z
-x,-y,-z
y,-x,-z
x,y,-z
-y,x,-z
1/2+x,1/2+y,1/2+z
1/2-y,1/2+x,1/2+z
1/2-x,1/2-y,1/2+z
1/2+y,1/2-x,1/2+z
1/2-x,1/2-y,1/2-z
1/2+y,1/2-x,1/2-z
1/2+x,1/2+y,1/2-z
1/2-y,1/2+x,1/2-z
loop_
_atom_site_type_symbol
_atom_site_label
_atom_site_fract_x
_atom_site_fract_y
_atom_site_fract_z
Si Si1 0.141387 0.431061 0.786072
Si Si2 0.155305 0.139407 0.706787
Si Si3 0.742242 0.134876 0.783926
Si Si4 0.149763 0.555595 0.289159
Si Si5 0.839031 0.275046 0.717382
Si Si6 0.053915 0.931246 0.282308
O O1 0.149632 0.492338 0.735215
O O2 0.085896 0.403707 0.720842
O O3 0.188462 0.390170 0.730530
O O4 0.141463 0.430888 0.000000
O O5 0.164135 0.124668 0.500000
O O6 0.127500 0.197675 0.715963
O O7 0.214729 0.151010 0.784216
O O8 0.116436 0.093072 0.781597
O O9 0.702074 0.087632 0.721865
O O10 0.714125 0.191427 0.726711
O O11 0.744605 0.135071 0.000000
O O12 0.150523 0.565543 0.500000
O O13 0.836495 0.273598 0.500000
O O14 0.055063 0.930810 0.500000
O O15 0.991207 0.926480 0.229067
#
# Coordination Sequence:
#
# PCOD9545501 Si02
#       6
#    16  16  16  16  16  16
#     4   9  18  33  51  69  94 129 162 195 239 284
#     4  10  18  28  49  76  92 113 158 201 225 265
#     4   9  18  33  48  64  96 132 151 179 236 290
#     4   9  19  34  49  68  96 128 160 196 239 283
#     4   8  16  31  48  68  96 125 152 189 237 279
#     4   8  15  28  44  65  95 123 145 181 234 276
#
# _framework density 20.767671
#
# number of rings (size 3 to 8) (size 9 to 14) (size 15 to 20)
#    0.000    3.167    0.000    3.000    0.000    3.000 
#    0.000    8.333    0.000    1.000    0.000    1.167 
#    0.000    0.000    0.000    0.000    0.000    0.000 
#
# Total GULP energy -267636.504913 kJ/mol
# GULP energy per Si atom -5575.760519 kJ/mol
# Density = 2.072040 g / cm^3
# Si number density = 20.767671 Si / 1000 Ang^3
#
#
#
# Elastic Constant Matrix: (Units=GPa)
#
#
# Indices 1 2 3 4 5 6 
#
# 1 45.3752 21.8692 -7.4515 0.0000 0.0000 -0.9817
# 2 21.8692 45.3752 -7.4515 0.0000 0.0000 0.9817
# 3 -7.4515 -7.4515 50.0004 0.0000 0.0000 0.0000
# 4 0.0000 0.0000 0.0000 -60.5671 0.0000 0.0000
# 5 0.0000 0.0000 0.0000 0.0000 -60.5671 0.0000
# 6 -0.9817 0.9817 0.0000 0.0000 0.0000 25.4614
#
#
#
# Elastic Compliance Matrix: (Units=1/GPa)
#
#
# Indices 1 2 3 4 5 6 
#
# 1 0.029029 -0.013650 0.002292 0.000000 0.000000 0.001646
# 2 -0.013650 0.029029 0.002292 0.000000 0.000000 -0.001646
# 3 0.002292 0.002292 0.020683 0.000000 0.000000 0.000000
# 4 0.000000 0.000000 0.000000 -0.016511 0.000000 0.000000
# 5 0.000000 0.000000 0.000000 0.000000 -0.016511 0.000000
# 6 0.001646 -0.001646 0.000000 0.000000 0.000000 0.039402
#
#
# Mechanical properties :
#
#
# Convention : Reuss Voigt Hill
#
# Bulk Modulus (GPa) = 16.49921 17.18698 16.84310
# Shear Modulus (GPa) = 40.49943 -10.21557 15.14193
#
# Velocity S-wave (km/s) = 4.42081 -2.22028 2.70313
# Velocity P-wave (km/s) = 5.83266 1.31184 4.22734
#
# Compressibility (1/GPa) = 0.06060896
#
# Stress axis : x y z
#
# Youngs Moduli (GPa) = 34.44779 34.44779 48.34890
#
# Poissons Ratio (x) = 0.47022 -0.11081
# Poissons Ratio (y) = 0.47022 -0.11081
# Poissons Ratio (z) = -0.07895 -0.07895
#
# Static dielectric constant tensor:
#      x y z
#    x 1.741390 0.000000 0.000000 
#    y 0.000000 1.741390 0.000000 
#    z 0.000000 0.000000 1.805010 
# 
# From -- ./inp_files/1390.got.cif
#   From: 2010.05.17/outbox.cif.g08.bks.cpg/sg87_1_cif.got.tgz:1390.got - 2010.06.03 19:07:00.
