data_PCOD9545669
_publ_section_title
;
Structure prediction by ZEFSAII (Michael W. Deem and Ramdas Pophale) SiO2 
 PCOD9545669
Probable space group: I 4/M
;
_chemical_formula_sum "Si O2"
_cell_formula_units_Z 104
_cell_length_a 18.032669
_cell_length_b 18.032669
_cell_length_c 18.015779
_cell_angle_alpha 90.000000
_cell_angle_beta 90.000000
_cell_angle_gamma 90.000000
_cell_volume 5858.319693
_symmetry_space_group_name_H-M "I 4/M"
_symmetry_group_IT_number 87
_symmetry_cell_setting 'tetragonal'
loop_
_space_group_symop_operation_xyz
x,y,z
-y,x,z
-x,-y,z
y,-x,z
-x,-y,-z
y,-x,-z
x,y,-z
-y,x,-z
1/2+x,1/2+y,1/2+z
1/2-y,1/2+x,1/2+z
1/2-x,1/2-y,1/2+z
1/2+y,1/2-x,1/2+z
1/2-x,1/2-y,1/2-z
1/2+y,1/2-x,1/2-z
1/2+x,1/2+y,1/2-z
1/2-y,1/2+x,1/2-z
loop_
_atom_site_type_symbol
_atom_site_label
_atom_site_fract_x
_atom_site_fract_y
_atom_site_fract_z
Si Si1 0.935067 0.106775 0.000000
Si Si2 0.853389 0.593047 0.832358
Si Si3 0.112075 0.785480 0.868494
Si Si4 0.821720 0.211195 0.713163
Si Si5 0.730713 0.162891 0.415122
Si Si6 0.991737 0.347011 0.178025
Si Si7 0.899517 0.456232 0.916479
O O1 0.909219 0.152359 0.072552
O O2 0.024151 0.098444 0.000000
O O3 0.774783 0.632884 0.830199
O O4 0.852990 0.539246 0.760936
O O5 0.874099 0.539229 0.899333
O O6 0.919860 0.651704 0.823337
O O7 0.132192 0.814440 0.785558
O O8 0.181681 0.736950 0.899059
O O9 0.046112 0.724913 0.858753
O O10 0.750000 0.250000 0.750000
O O11 0.791216 0.156722 0.650008
O O12 0.758560 0.165188 0.500000
O O13 0.672686 0.095833 0.408085
O O14 0.960671 0.420230 0.136910
O O15 0.926902 0.448633 0.000000
#
# Coordination Sequence:
#
# PCOD9545669 Si02
#       7
#     8  16  16  16  16  16  16
#     4  11  24  42  60  82 113 148 188 244 297 328
#     4  11  20  33  50  80 110 141 182 224 270 334
#     4   9  19  37  53  79 109 142 188 233 275 340
#     4   9  20  34  54  80 105 139 190 235 272 325
#     4   9  17  35  57  74 109 149 183 228 284 330
#     4  10  20  32  53  76 110 149 178 215 277 337
#     4  10  21  34  51  76 114 147 179 222 277 335
#
# _framework density 17.75253
#
# number of rings (size 3 to 8) (size 9 to 14) (size 15 to 20)
#    0.000    2.231    2.308    1.385    1.077    4.308 
#    2.769    0.000    0.000    0.000    0.000    0.000 
#    0.000    0.000    0.000    5.077    0.000    0.000 
#
# Total GULP energy -289952.990562 kJ/mol
# GULP energy per Si atom -5576.019049 kJ/mol
# Density = 1.771212 g / cm^3
# Si number density = 17.752530 Si / 1000 Ang^3
#
#
#
# Elastic Constant Matrix: (Units=GPa)
#
#
# Indices 1 2 3 4 5 6 
#
# 1 48.8965 19.8123 21.5497 0.0000 0.0000 4.6280
# 2 19.8123 48.8965 21.5497 0.0000 0.0000 -4.6280
# 3 21.5497 21.5497 64.2265 0.0000 0.0000 0.0000
# 4 0.0000 0.0000 0.0000 22.5225 0.0000 0.0000
# 5 0.0000 0.0000 0.0000 0.0000 22.5225 0.0000
# 6 4.6280 -4.6280 0.0000 0.0000 0.0000 14.4398
#
#
#
# Elastic Compliance Matrix: (Units=1/GPa)
#
#
# Indices 1 2 3 4 5 6 
#
# 1 0.028361 -0.009927 -0.006185 0.000000 0.000000 -0.012271
# 2 -0.009927 0.028361 -0.006185 0.000000 0.000000 0.012271
# 3 -0.006185 -0.006185 0.019720 0.000000 0.000000 0.000000
# 4 0.000000 0.000000 0.000000 0.044400 0.000000 0.000000
# 5 0.000000 0.000000 0.000000 0.000000 0.044400 0.000000
# 6 -0.012271 0.012271 0.000000 0.000000 0.000000 0.077119
#
#
# Mechanical properties :
#
#
# Convention : Reuss Voigt Hill
#
# Bulk Modulus (GPa) = 31.39917 31.98254 31.69086
# Shear Modulus (GPa) = 16.80263 18.50415 17.65339
#
# Velocity S-wave (km/s) = 3.07985 3.23203 3.15686
# Velocity P-wave (km/s) = 5.51116 5.65534 5.58371
#
# Compressibility (1/GPa) = 0.03184797
#
# Stress axis : x y z
#
# Youngs Moduli (GPa) = 35.25958 35.25958 50.70885
#
# Poissons Ratio (x) = 0.35003 0.31364
# Poissons Ratio (y) = 0.35003 0.31364
# Poissons Ratio (z) = 0.21808 0.21808
#
# Static dielectric constant tensor:
#      x y z
#    x 1.611470 0.000000 0.000000 
#    y 0.000000 1.611470 0.000000 
#    z 0.000000 0.000000 1.624410 
# 
# From -- ./inp_files/4511.got.cif
#   From: 2010.05.17/outbox.cif.g08.bks.cpg/sg87_3_cif.got.tgz:4511.got - 2010.06.03 19:07:00.
