data_PCOD9545932
_publ_section_title
;
Structure prediction by ZEFSAII (Michael W. Deem and Ramdas Pophale) SiO2 
 PCOD9545932
Probable space group: I 4/M
;
_chemical_formula_sum "Si O2"
_cell_formula_units_Z 108
_cell_length_a 14.979978
_cell_length_b 14.979978
_cell_length_c 22.648527
_cell_angle_alpha 90.000000
_cell_angle_beta 90.000000
_cell_angle_gamma 90.000000
_cell_volume 5082.323590
_symmetry_space_group_name_H-M "I 4/M"
_symmetry_group_IT_number 87
_symmetry_cell_setting 'tetragonal'
loop_
_space_group_symop_operation_xyz
x,y,z
-y,x,z
-x,-y,z
y,-x,z
-x,-y,-z
y,-x,-z
x,y,-z
-y,x,-z
1/2+x,1/2+y,1/2+z
1/2-y,1/2+x,1/2+z
1/2-x,1/2-y,1/2+z
1/2+y,1/2-x,1/2+z
1/2-x,1/2-y,1/2-z
1/2+y,1/2-x,1/2-z
1/2+x,1/2+y,1/2-z
1/2-y,1/2+x,1/2-z
loop_
_atom_site_type_symbol
_atom_site_label
_atom_site_fract_x
_atom_site_fract_y
_atom_site_fract_z
Si Si1 0.575518 0.816413 0.389216
Si Si2 0.510262 0.753998 0.270063
Si Si3 0.136988 0.847012 0.702440
Si Si4 0.500000 0.500000 0.834534
Si Si5 0.620572 0.596202 0.000000
Si Si6 0.269751 0.279471 0.088425
Si Si7 0.604851 0.992187 0.324856
Si Si8 0.116103 0.390255 0.564659
O O1 0.525635 0.757430 0.339640
O O2 0.662989 0.779792 0.421416
O O3 0.620412 0.894034 0.349502
O O4 0.493619 0.854309 0.427775
O O5 0.586621 0.694106 0.241929
O O6 0.416416 0.715793 0.247671
O O7 0.516552 0.847180 0.235312
O O8 0.062859 0.908599 0.669357
O O9 0.199286 0.795410 0.656289
O O10 0.513334 0.621293 0.000000
O O11 0.674531 0.643405 0.053507
O O12 0.306361 0.183123 0.068972
O O13 0.500000 0.000000 0.320041
O O14 0.632846 0.054765 0.379463
O O15 0.072280 0.380348 0.500000
#
# Coordination Sequence:
#
# PCOD9545932 Si02
#       8
#    16  16  16   4   8  16  16  16
#     4  11  28  40  69  98 138 183 237 295 351 417
#     4  11  23  42  66 101 136 180 230 287 358 426
#     4  10  22  39  69  95 138 178 223 282 355 428
#     4   8  20  36  60  97 132 176 213 264 344 436
#     4  11  30  46  74 110 150 183 232 294 356 439
#     4  12  25  44  71 104 134 192 235 291 358 428
#     4  10  23  39  62  96 136 182 220 285 347 426
#     4  11  26  47  67  96 136 186 238 294 345 423
#
# _framework density 21.250124
#
# number of rings (size 3 to 8) (size 9 to 14) (size 15 to 20)
#    0.000    1.259    3.704    0.000   13.481    3.259 
#    0.000    0.000    0.000    0.444    0.000    1.037 
#    0.000    0.000    0.000    0.000    0.000    0.000 
#
# Total GULP energy -300933.725923 kJ/mol
# GULP energy per Si atom -5572.846776 kJ/mol
# Density = 2.120176 g / cm^3
# Si number density = 21.250124 Si / 1000 Ang^3
#
#
#
# Elastic Constant Matrix: (Units=GPa)
#
#
# Indices 1 2 3 4 5 6 
#
# 1 72.0394 3.1752 13.3425 0.0000 0.0000 6.0710
# 2 3.1752 72.0394 13.3425 0.0000 0.0000 -6.0710
# 3 13.3425 13.3425 53.9327 0.0000 0.0000 0.0000
# 4 0.0000 0.0000 0.0000 -945.7378 -0.0001 0.0000
# 5 0.0000 0.0000 0.0000 -0.0001 -945.7374 0.0000
# 6 6.0710 -6.0710 0.0000 0.0000 0.0000 36.5622
#
#
#
# Elastic Compliance Matrix: (Units=1/GPa)
#
#
# Indices 1 2 3 4 5 6 
#
# 1 0.014767 -0.000192 -0.003606 0.000000 0.000000 -0.002484
# 2 -0.000192 0.014767 -0.003606 0.000000 0.000000 0.002484
# 3 -0.003606 -0.003606 0.020326 0.000000 0.000000 0.000000
# 4 0.000000 0.000000 0.000000 -0.001057 0.000000 0.000000
# 5 0.000000 0.000000 0.000000 0.000000 -0.001057 0.000000
# 6 -0.002484 0.002484 0.000000 0.000000 0.000000 0.028176
#
#
# Mechanical properties :
#
#
# Convention : Reuss Voigt Hill
#
# Bulk Modulus (GPa) = 28.52892 28.63691 28.58292
# Shear Modulus (GPa) = 48.82264 -359.77252 -155.47494
#
# Velocity S-wave (km/s) = 4.79845 -13.02579 -8.56289
# Velocity P-wave (km/s) = 6.64489 14.58503 9.18064
#
# Compressibility (1/GPa) = 0.03505215
#
# Stress axis : x y z
#
# Youngs Moduli (GPa) = 67.71904 67.71904 49.19901
#
# Poissons Ratio (x) = 0.01303 0.17739
# Poissons Ratio (y) = 0.01303 0.17739
# Poissons Ratio (z) = 0.24417 0.24417
#
# Static dielectric constant tensor:
#      x y z
#    x 1.823510 0.000000 0.000000 
#    y 0.000000 1.823510 0.000000 
#    z 0.000000 0.000000 1.828760 
# 
# From -- ./inp_files/5932.got.cif
#   From: 2010.05.17/outbox.cif.g08.bks.cpg/sg87_3_cif.got.tgz:5932.got - 2010.06.03 19:07:00.
