data_PCOD9545662
_publ_section_title
;
Structure prediction by ZEFSAII (Michael W. Deem and Ramdas Pophale) SiO2 
 PCOD9545662
Probable space group: I 4/M
;
_chemical_formula_sum "Si O2"
_cell_formula_units_Z 96
_cell_length_a 16.694459
_cell_length_b 16.694459
_cell_length_c 15.290339
_cell_angle_alpha 90.000000
_cell_angle_beta 90.000000
_cell_angle_gamma 90.000000
_cell_volume 4261.493339
_symmetry_space_group_name_H-M "I 4/M"
_symmetry_group_IT_number 87
_symmetry_cell_setting 'tetragonal'
loop_
_space_group_symop_operation_xyz
x,y,z
-y,x,z
-x,-y,z
y,-x,z
-x,-y,-z
y,-x,-z
x,y,-z
-y,x,-z
1/2+x,1/2+y,1/2+z
1/2-y,1/2+x,1/2+z
1/2-x,1/2-y,1/2+z
1/2+y,1/2-x,1/2+z
1/2-x,1/2-y,1/2-z
1/2+y,1/2-x,1/2-z
1/2+x,1/2+y,1/2-z
1/2-y,1/2+x,1/2-z
loop_
_atom_site_type_symbol
_atom_site_label
_atom_site_fract_x
_atom_site_fract_y
_atom_site_fract_z
Si Si1 0.539449 0.374069 0.782388
Si Si2 0.283229 0.912257 0.095300
Si Si3 0.317096 0.818738 0.650250
Si Si4 0.747457 0.848096 0.652959
Si Si5 0.624088 0.039966 0.742228
Si Si6 0.662869 0.605932 0.595281
O O1 0.597650 0.449789 0.800690
O O2 0.571221 0.297776 0.836194
O O3 0.552136 0.357340 0.678670
O O4 0.337695 0.831848 0.096295
O O5 0.311715 0.961596 0.179442
O O6 0.192238 0.880966 0.106410
O O7 0.290541 0.951076 0.000000
O O8 0.224726 0.806055 0.626342
O O9 0.327538 0.784879 0.749449
O O10 0.342996 0.910401 0.659937
O O11 0.370949 0.756900 0.596835
O O12 0.547474 0.090758 0.776027
O O13 0.640867 0.572544 0.500000
#
# Coordination Sequence:
#
# PCOD9545662 Si02
#       6
#    16  16  16  16  16  16
#     4  10  20  31  45  70 102 134 166 200 241 293
#     4   9  18  34  55  76  98 126 164 210 254 293
#     4   8  15  29  48  68  89 120 162 204 240 285
#     4   8  15  29  50  70  90 119 161 205 241 284
#     4  10  20  33  48  71 103 136 167 199 241 293
#     4   9  18  32  49  71  98 127 162 207 254 294
#
# _framework density 22.527314000000001
#
# number of rings (size 3 to 8) (size 9 to 14) (size 15 to 20)
#    0.000    3.000    0.000    3.000    0.000    8.667 
#    0.000    5.833    0.000    5.000    0.000    1.167 
#    0.000    0.000    0.000    0.000    0.000    0.000 
#
# Total GULP energy -268014.228373 kJ/mol
# GULP energy per Si atom -5583.629758 kJ/mol
# Density = 2.247604 g / cm^3
# Si number density = 22.527314 Si / 1000 Ang^3
#
#
#
# Elastic Constant Matrix: (Units=GPa)
#
#
# Indices 1 2 3 4 5 6 
#
# 1 72.7471 31.3441 5.8193 0.0000 0.0000 2.3463
# 2 31.3441 72.7471 5.8193 0.0000 0.0000 -2.3463
# 3 5.8193 5.8193 30.6818 0.0000 0.0000 0.0000
# 4 0.0000 0.0000 0.0000 9.6083 0.0000 0.0000
# 5 0.0000 0.0000 0.0000 0.0000 9.6083 0.0000
# 6 2.3463 -2.3463 0.0000 0.0000 0.0000 43.0728
#
#
#
# Elastic Compliance Matrix: (Units=1/GPa)
#
#
# Indices 1 2 3 4 5 6 
#
# 1 0.017059 -0.007244 -0.001862 0.000000 0.000000 -0.001324
# 2 -0.007244 0.017059 -0.001862 0.000000 0.000000 0.001324
# 3 -0.001862 -0.001862 0.033299 0.000000 0.000000 0.000000
# 4 0.000000 0.000000 0.000000 0.104076 0.000000 0.000000
# 5 0.000000 0.000000 0.000000 0.000000 0.104076 0.000000
# 6 -0.001324 0.001324 0.000000 0.000000 0.000000 0.023361
#
#
# Mechanical properties :
#
#
# Convention : Reuss Voigt Hill
#
# Bulk Modulus (GPa) = 21.98643 29.12685 25.55664
# Shear Modulus (GPa) = 14.87985 21.33745 18.10865
#
# Velocity S-wave (km/s) = 2.57286 3.08097 2.83831
# Velocity P-wave (km/s) = 4.31361 5.06104 4.70220
#
# Compressibility (1/GPa) = 0.04548260
#
# Stress axis : x y z
#
# Youngs Moduli (GPa) = 58.62013 58.62013 30.03109
#
# Poissons Ratio (x) = 0.42464 0.05591
# Poissons Ratio (y) = 0.42464 0.05591
# Poissons Ratio (z) = 0.10913 0.10913
#
# Static dielectric constant tensor:
#      x y z
#    x 1.871670 0.000000 0.000000 
#    y 0.000000 1.871670 0.000000 
#    z 0.000000 0.000000 1.826510 
# 
# From -- ./inp_files/4409.got.cif
#   From: 2010.05.17/outbox.cif.g08.bks.cpg/sg87_3_cif.got.tgz:4409.got - 2010.06.03 19:07:00.
