data_PCOD9545744
_publ_section_title
;
Structure prediction by ZEFSAII (Michael W. Deem and Ramdas Pophale) SiO2 
 PCOD9545744
Probable space group: I 4/M
;
_chemical_formula_sum "Si O2"
_cell_formula_units_Z 88
_cell_length_a 14.401566
_cell_length_b 14.401566
_cell_length_c 20.621654
_cell_angle_alpha 90.000000
_cell_angle_beta 90.000000
_cell_angle_gamma 90.000000
_cell_volume 4277.036277
_symmetry_space_group_name_H-M "I 4/M"
_symmetry_group_IT_number 87
_symmetry_cell_setting 'tetragonal'
loop_
_space_group_symop_operation_xyz
x,y,z
-y,x,z
-x,-y,z
y,-x,z
-x,-y,-z
y,-x,-z
x,y,-z
-y,x,-z
1/2+x,1/2+y,1/2+z
1/2-y,1/2+x,1/2+z
1/2-x,1/2-y,1/2+z
1/2+y,1/2-x,1/2+z
1/2-x,1/2-y,1/2-z
1/2+y,1/2-x,1/2-z
1/2+x,1/2+y,1/2-z
1/2-y,1/2+x,1/2-z
loop_
_atom_site_type_symbol
_atom_site_label
_atom_site_fract_x
_atom_site_fract_y
_atom_site_fract_z
Si Si1 0.348222 0.543477 0.000000
Si Si2 0.272108 0.625164 0.129337
Si Si3 0.397386 0.613593 0.247170
Si Si4 0.090201 0.379154 0.741337
Si Si5 0.459213 0.353019 0.576776
Si Si6 0.327479 0.247898 0.343503
O O1 0.388567 0.438836 0.000000
O O2 0.289312 0.566345 0.935150
O O3 0.365976 0.624932 0.172966
O O4 0.189342 0.594230 0.178810
O O5 0.254576 0.733924 0.115468
O O6 0.373619 0.505388 0.260265
O O7 0.333054 0.675794 0.292371
O O8 0.118920 0.485360 0.730663
O O9 0.155873 0.339366 0.797646
O O10 0.561311 0.389921 0.592962
O O11 0.457177 0.339659 0.500000
O O12 0.417892 0.265894 0.613255
#
# Coordination Sequence:
#
# PCOD9545744 Si02
#       6
#     8  16  16  16  16  16
#     4  11  26  48  72  95 129 172 211 270 330 373
#     4  11  25  38  65  94 126 163 217 264 315 386
#     4  10  20  35  60  90 121 155 199 264 328 380
#     4  10  24  43  64  88 125 173 210 258 320 378
#     4   9  19  36  57  84 121 160 197 252 320 381
#     4  11  23  33  61  90 121 158 205 261 312 373
#
# _framework density 20.574995999999999
#
# number of rings (size 3 to 8) (size 9 to 14) (size 15 to 20)
#    0.000    1.727    0.000    4.909   16.545    2.909 
#    0.000    0.000    0.000    1.091    0.000    0.000 
#    0.000    0.000    0.000    0.000    0.000    0.000 
#
# Total GULP energy -245805.568991 kJ/mol
# GULP energy per Si atom -5586.490204 kJ/mol
# Density = 2.052817 g / cm^3
# Si number density = 20.574996 Si / 1000 Ang^3
#
#
#
# Elastic Constant Matrix: (Units=GPa)
#
#
# Indices 1 2 3 4 5 6 
#
# 1 64.3827 10.8468 8.5946 0.0000 0.0000 1.2144
# 2 10.8468 64.3827 8.5946 0.0000 0.0000 -1.2144
# 3 8.5946 8.5946 81.2776 0.0000 0.0000 0.0000
# 4 0.0000 0.0000 0.0000 28.3987 0.0000 0.0000
# 5 0.0000 0.0000 0.0000 0.0000 28.3987 0.0000
# 6 1.2144 -1.2144 0.0000 0.0000 0.0000 21.1709
#
#
#
# Elastic Compliance Matrix: (Units=1/GPa)
#
#
# Indices 1 2 3 4 5 6 
#
# 1 0.016175 -0.002553 -0.001440 0.000000 0.000000 -0.001074
# 2 -0.002553 0.016175 -0.001440 0.000000 0.000000 0.001074
# 3 -0.001440 -0.001440 0.012608 0.000000 0.000000 0.000000
# 4 0.000000 0.000000 0.000000 0.035213 0.000000 0.000000
# 5 0.000000 0.000000 0.000000 0.000000 0.035213 0.000000
# 6 -0.001074 0.001074 0.000000 0.000000 0.000000 0.047358
#
#
# Mechanical properties :
#
#
# Convention : Reuss Voigt Hill
#
# Bulk Modulus (GPa) = 29.33409 29.56833 29.45121
# Shear Modulus (GPa) = 27.03107 27.72746 27.37926
#
# Velocity S-wave (km/s) = 3.62855 3.67499 3.65184
# Velocity P-wave (km/s) = 5.64298 5.69294 5.66802
#
# Compressibility (1/GPa) = 0.03409003
#
# Stress axis : x y z
#
# Youngs Moduli (GPa) = 61.82461 61.82461 79.31386
#
# Poissons Ratio (x) = 0.15784 0.11424
# Poissons Ratio (y) = 0.15784 0.11424
# Poissons Ratio (z) = 0.08905 0.08905
#
# Static dielectric constant tensor:
#      x y z
#    x 1.740040 0.000000 0.000000 
#    y 0.000000 1.740040 0.000000 
#    z 0.000000 0.000000 1.738250 
# 
# From -- ./inp_files/5148.got.cif
#   From: 2010.05.17/outbox.cif.g08.bks.cpg/sg87_3_cif.got.tgz:5148.got - 2010.06.03 19:07:00.
