data_PCOD9545228
_publ_section_title
;
Structure prediction by ZEFSAII (Michael W. Deem and Ramdas Pophale) SiO2 
 PCOD9545228
Probable space group: P 42/N
;
_chemical_formula_sum "Si O2"
_cell_formula_units_Z 34
_cell_length_a 10.963486
_cell_length_b 10.963486
_cell_length_c 11.770343
_cell_angle_alpha 90.000000
_cell_angle_beta 90.000000
_cell_angle_gamma 90.000000
_cell_volume 1414.771985
_symmetry_space_group_name_H-M "P 42/N"
_symmetry_group_IT_number 86
_space_group.IT_coordinate_system_code '2'
_symmetry_cell_setting 'tetragonal'
loop_
_space_group_symop_operation_xyz
x,y,z
-y,1/2+x,1/2+z
1/2-x,1/2-y,z
1/2+y,-x,1/2+z
-x,-y,-z
y,1/2-x,1/2-z
1/2+x,1/2+y,-z
1/2-y,x,1/2-z
loop_
_atom_site_type_symbol
_atom_site_label
_atom_site_fract_x
_atom_site_fract_y
_atom_site_fract_z
Si Si1 0.750000 0.750000 0.750000
Si Si2 0.700918 0.044404 0.516902
Si Si3 0.418957 0.442321 0.600290
Si Si4 0.193465 0.028830 0.020518
Si Si5 0.997522 0.644257 0.778218
O O1 0.642646 0.822174 0.813259
O O2 0.791740 0.015272 0.411017
O O3 0.623588 0.918838 0.524134
O O4 0.601413 0.149332 0.523361
O O5 0.785150 0.069026 0.625525
O O6 0.500000 0.500000 0.500000
O O7 0.416877 0.301481 0.557992
O O8 0.501292 0.469101 0.711638
O O9 0.201565 0.992384 0.154438
#
# Coordination Sequence:
#
# PCOD9545228 Si02
#       5
#     2   8   8   8   8
#     4  12  20  40  76 100 116 186 248 268 332 448
#     4  10  23  42  68 101 133 176 228 285 339 413
#     4  10  23  40  64 103 134 169 226 292 338 402
#     4  11  23  44  69 100 137 180 232 281 343 423
#     4  11  22  40  71  97 129 181 230 277 344 413
#
# _framework density 24.032142
#
# number of rings (size 3 to 8) (size 9 to 14) (size 15 to 20)
#    0.000    1.412    2.353    3.529    0.000    3.765 
#    8.471    7.059    0.000    0.000    0.000    0.000 
#    0.000    0.000    0.000    0.000    0.000    0.000 
#
# Total GULP energy -189347.523760 kJ/mol
# GULP energy per Si atom -5569.044816 kJ/mol
# Density = 2.397744 g / cm^3
# Si number density = 24.032142 Si / 1000 Ang^3
#
#
#
# Elastic Constant Matrix: (Units=GPa)
#
#
# Indices 1 2 3 4 5 6 
#
# 1 74.7440 -21.4057 6.4436 0.0000 0.0000 1.5911
# 2 -21.4057 74.7440 6.4436 0.0000 0.0000 -1.5911
# 3 6.4436 6.4436 34.1275 0.0000 0.0000 0.0000
# 4 0.0000 0.0000 0.0000 81.7541 0.0000 0.0000
# 5 0.0000 0.0000 0.0000 0.0000 81.7541 0.0000
# 6 1.5911 -1.5911 0.0000 0.0000 0.0000 44.8092
#
#
#
# Elastic Compliance Matrix: (Units=1/GPa)
#
#
# Indices 1 2 3 4 5 6 
#
# 1 0.015029 0.004616 -0.003709 0.000000 0.000000 -0.000370
# 2 0.004616 0.015029 -0.003709 0.000000 0.000000 0.000370
# 3 -0.003709 -0.003709 0.030702 0.000000 0.000000 0.000000
# 4 0.000000 0.000000 0.000000 0.012232 0.000000 0.000000
# 5 0.000000 0.000000 0.000000 0.000000 0.012232 0.000000
# 6 -0.000370 0.000370 0.000000 0.000000 0.000000 0.022343
#
#
# Mechanical properties :
#
#
# Convention : Reuss Voigt Hill
#
# Bulk Modulus (GPa) = 18.13068 18.50870 18.31969
# Shear Modulus (GPa) = 38.00670 54.47240 46.23955
#
# Velocity S-wave (km/s) = 3.98111 4.76610 4.39118
# Velocity P-wave (km/s) = 5.35659 6.16490 5.77490
#
# Compressibility (1/GPa) = 0.05515514
#
# Stress axis : x y z
#
# Youngs Moduli (GPa) = 66.54003 66.54003 32.57067
#
# Poissons Ratio (x) = -0.30714 0.12081
# Poissons Ratio (y) = -0.30714 0.12081
# Poissons Ratio (z) = 0.24680 0.24680
#
# Static dielectric constant tensor:
#      x y z
#    x 2.076030 0.000000 0.000000 
#    y 0.000000 2.076030 0.000000 
#    z 0.000000 0.000000 2.038510 
# 
# From -- ./inp_files/2829.got.cif
#   From: 2010.05.17/outbox.cif.g08.bks.cpg/sg86_2_cif.got.tgz:2829.got - 2010.06.03 19:03:11.
