data_PCOD9545223
_publ_section_title
;
Structure prediction by ZEFSAII (Michael W. Deem and Ramdas Pophale) SiO2 
 PCOD9545223
Probable space group: P 42/N
;
_chemical_formula_sum "Si O2"
_cell_formula_units_Z 36
_cell_length_a 11.911520
_cell_length_b 11.911520
_cell_length_c 9.691840
_cell_angle_alpha 90.000000
_cell_angle_beta 90.000000
_cell_angle_gamma 90.000000
_cell_volume 1375.120019
_symmetry_space_group_name_H-M "P 42/N"
_symmetry_group_IT_number 86
_space_group.IT_coordinate_system_code '2'
_symmetry_cell_setting 'tetragonal'
loop_
_space_group_symop_operation_xyz
x,y,z
-y,1/2+x,1/2+z
1/2-x,1/2-y,z
1/2+y,-x,1/2+z
-x,-y,-z
y,1/2-x,1/2-z
1/2+x,1/2+y,-z
1/2-y,x,1/2-z
loop_
_atom_site_type_symbol
_atom_site_label
_atom_site_fract_x
_atom_site_fract_y
_atom_site_fract_z
Si Si1 0.245082 0.428657 0.715743
Si Si2 0.724232 0.992393 0.842098
Si Si3 0.126986 0.785083 0.412812
Si Si4 0.383515 0.049168 0.436298
Si Si5 0.000000 0.000000 0.500000
O O1 0.355754 0.352786 0.711897
O O2 0.266903 0.537443 0.805935
O O3 0.200099 0.449515 0.564826
O O4 0.826705 0.909154 0.874246
O O5 0.678619 0.011537 0.689495
O O6 0.611200 0.953994 0.920292
O O7 0.250000 0.750000 0.374571
O O8 0.102475 0.742036 0.569101
O O9 0.092199 0.915910 0.420095
O O10 0.500000 0.000000 0.500000
#
# Coordination Sequence:
#
# PCOD9545223 Si02
#       5
#     8   8   8   8   4
#     4  11  24  48  81 123 173 229 296 375 462 559
#     4  10  25  51  84 122 179 237 302 390 466 565
#     4  10  22  50  85 125 181 252 302 380 482 564
#     4  12  27  50  82 134 175 239 323 385 473 574
#     4   8  20  48  80 116 166 236 286 372 464 552
#
# _framework density 26.179534
#
# number of rings (size 3 to 8) (size 9 to 14) (size 15 to 20)
#    1.333    0.222    2.222    1.333    3.111    0.444 
#   12.000    3.333    0.000    2.667    0.000    0.000 
#    0.000    0.000    0.000    0.000    0.000    0.000 
#
# Total GULP energy -200609.247298 kJ/mol
# GULP energy per Si atom -5572.479092 kJ/mol
# Density = 2.611995 g / cm^3
# Si number density = 26.179534 Si / 1000 Ang^3
#
#
#
# Elastic Constant Matrix: (Units=GPa)
#
#
# Indices 1 2 3 4 5 6 
#
# 1 89.3660 142.2541 72.6838 0.0000 0.0000 107.0983
# 2 142.2541 89.3660 72.6838 0.0000 0.0000 -107.0983
# 3 72.6838 72.6838 228.5364 0.0000 0.0000 0.0000
# 4 0.0000 0.0000 0.0000 11.7157 0.0000 0.0000
# 5 0.0000 0.0000 0.0000 0.0000 11.7157 0.0000
# 6 107.0983 -107.0983 0.0000 0.0000 0.0000 -121.7783
#
#
#
# Elastic Compliance Matrix: (Units=1/GPa)
#
#
# Indices 1 2 3 4 5 6 
#
# 1 0.006387 -0.000993 -0.001716 0.000000 0.000000 0.006491
# 2 -0.000993 0.006387 -0.001716 0.000000 0.000000 -0.006491
# 3 -0.001716 -0.001716 0.005467 0.000000 0.000000 0.000000
# 4 0.000000 0.000000 0.000000 0.085355 0.000000 0.000000
# 5 0.000000 0.000000 0.000000 0.000000 0.085355 0.000000
# 6 0.006491 -0.006491 0.000000 0.000000 0.000000 0.003205
#
#
# Mechanical properties :
#
#
# Convention : Reuss Voigt Hill
#
# Bulk Modulus (GPa) = 106.46298 109.16800 107.81549
# Shear Modulus (GPa) = 24.49329 -11.69292 6.40019
#
# Velocity S-wave (km/s) = 3.06206 -2.11569 1.56526
# Velocity P-wave (km/s) = 7.29770 5.98516 6.67377
#
# Compressibility (1/GPa) = 0.00939294
#
# Stress axis : x y z
#
# Youngs Moduli (GPa) = 156.55757 156.55757 182.91908
#
# Poissons Ratio (x) = 0.15551 0.31381
# Poissons Ratio (y) = 0.15551 0.31381
# Poissons Ratio (z) = 0.26858 0.26858
#
# Static dielectric constant tensor:
#      x y z
#    x 2.068090 0.000000 0.000000 
#    y 0.000000 2.068090 0.000000 
#    z 0.000000 0.000000 3.184840 
# 
# From -- ./inp_files/2078.got.cif
#   From: 2010.05.17/outbox.cif.g08.bks.cpg/sg86_2_cif.got.tgz:2078.got - 2010.06.03 19:03:11.
