data_PCOD9545905
_publ_section_title
;
Structure prediction by ZEFSAII (Michael W. Deem and Ramdas Pophale) SiO2 
 PCOD9545905
Probable space group: I 4/M
;
_chemical_formula_sum "Si O2"
_cell_formula_units_Z 72
_cell_length_a 21.347576
_cell_length_b 21.347576
_cell_length_c 8.978639
_cell_angle_alpha 90.000000
_cell_angle_beta 90.000000
_cell_angle_gamma 90.000000
_cell_volume 4091.736396
_symmetry_space_group_name_H-M "I 4/M"
_symmetry_group_IT_number 87
_symmetry_cell_setting 'tetragonal'
loop_
_space_group_symop_operation_xyz
x,y,z
-y,x,z
-x,-y,z
y,-x,z
-x,-y,-z
y,-x,-z
x,y,-z
-y,x,-z
1/2+x,1/2+y,1/2+z
1/2-y,1/2+x,1/2+z
1/2-x,1/2-y,1/2+z
1/2+y,1/2-x,1/2+z
1/2-x,1/2-y,1/2-z
1/2+y,1/2-x,1/2-z
1/2+x,1/2+y,1/2-z
1/2-y,1/2+x,1/2-z
loop_
_atom_site_type_symbol
_atom_site_label
_atom_site_fract_x
_atom_site_fract_y
_atom_site_fract_z
Si Si1 0.091772 0.656429 0.678593
Si Si2 0.100314 0.970101 0.000000
Si Si3 0.822301 0.447041 0.821690
Si Si4 0.770645 0.815870 0.678158
Si Si5 0.101583 0.196199 0.830687
O O1 0.095662 0.647121 0.500000
O O2 0.123807 0.598152 0.759793
O O3 0.132044 0.718584 0.714325
O O4 0.019278 0.665382 0.718912
O O5 0.144136 0.951609 0.860156
O O6 0.040242 0.924575 0.000000
O O7 0.756988 0.423869 0.752038
O O8 0.819048 0.442304 0.000000
O O9 0.774436 0.809685 0.500000
O O10 0.750000 0.750000 0.750000
O O11 0.838585 0.830664 0.745423
O O12 0.121607 0.214509 0.000000
#
# Coordination Sequence:
#
# PCOD9545905 Si02
#       5
#    16   8  16  16  16
#     4  10  24  41  60  85 122 160 203 252 306 366
#     4   9  22  42  62  90 126 161 203 245 301 365
#     4  11  23  40  60  88 119 162 204 253 305 365
#     4  11  21  36  59  88 122 156 195 252 308 361
#     4  10  22  35  61  88 119 154 201 245 305 353
#
# _framework density 17.596440999999999
#
# number of rings (size 3 to 8) (size 9 to 14) (size 15 to 20)
#    0.667    1.000    2.222    2.000    3.111    3.111 
#    0.000    2.222    0.000    0.000    0.000    6.222 
#    0.000    0.000    0.000    0.000    0.000    0.000 
#
# Total GULP energy -200894.106523 kJ/mol
# GULP energy per Si atom -5580.391848 kJ/mol
# Density = 1.755639 g / cm^3
# Si number density = 17.596441 Si / 1000 Ang^3
#
#
#
# Elastic Constant Matrix: (Units=GPa)
#
#
# Indices 1 2 3 4 5 6 
#
# 1 130.2308 67.7623 56.4005 0.0000 0.0000 -6.2002
# 2 67.7623 130.2308 56.4005 0.0000 0.0000 6.2002
# 3 56.4005 56.4005 62.5072 0.0000 0.0000 0.0000
# 4 0.0000 0.0000 0.0000 23.1831 0.0000 0.0000
# 5 0.0000 0.0000 0.0000 0.0000 23.1831 0.0000
# 6 -6.2002 6.2002 0.0000 0.0000 0.0000 22.2714
#
#
#
# Elastic Compliance Matrix: (Units=1/GPa)
#
#
# Indices 1 2 3 4 5 6 
#
# 1 0.013669 -0.003275 -0.009378 0.000000 0.000000 0.004717
# 2 -0.003275 0.013669 -0.009378 0.000000 0.000000 -0.004717
# 3 -0.009378 -0.009378 0.032922 0.000000 0.000000 0.000000
# 4 0.000000 0.000000 0.000000 0.043135 0.000000 0.000000
# 5 0.000000 0.000000 0.000000 0.000000 0.043135 0.000000
# 6 0.004717 -0.004717 0.000000 0.000000 0.000000 0.047527
#
#
# Mechanical properties :
#
#
# Convention : Reuss Voigt Hill
#
# Bulk Modulus (GPa) = 61.74153 76.01062 68.87607
# Shear Modulus (GPa) = 20.53223 23.22124 21.87673
#
# Velocity S-wave (km/s) = 3.41961 3.63665 3.52980
# Velocity P-wave (km/s) = 7.12428 7.80538 7.47259
#
# Compressibility (1/GPa) = 0.01619655
#
# Stress axis : x y z
#
# Youngs Moduli (GPa) = 73.15792 73.15792 30.37465
#
# Poissons Ratio (x) = 0.23962 0.28486
# Poissons Ratio (y) = 0.23962 0.28486
# Poissons Ratio (z) = 0.68609 0.68609
#
# Static dielectric constant tensor:
#      x y z
#    x 1.588050 0.000000 0.000000 
#    y 0.000000 1.588050 0.000000 
#    z 0.000000 0.000000 1.587390 
# 
# From -- ./inp_files/1092.got.cif
#   From: 2010.05.17/outbox.cif.g08.bks.cpg/sg87_1_cif.got.tgz:1092.got - 2010.06.03 19:07:00.
