data_PCOD9545610
_publ_section_title
;
Structure prediction by ZEFSAII (Michael W. Deem and Ramdas Pophale) SiO2 
 PCOD9545610
Probable space group: I 4/M
;
_chemical_formula_sum "Si O2"
_cell_formula_units_Z 96
_cell_length_a 23.105613
_cell_length_b 23.105613
_cell_length_c 8.655748
_cell_angle_alpha 90.000000
_cell_angle_beta 90.000000
_cell_angle_gamma 90.000000
_cell_volume 4621.038577
_symmetry_space_group_name_H-M "I 4/M"
_symmetry_group_IT_number 87
_symmetry_cell_setting 'tetragonal'
loop_
_space_group_symop_operation_xyz
x,y,z
-y,x,z
-x,-y,z
y,-x,z
-x,-y,-z
y,-x,-z
x,y,-z
-y,x,-z
1/2+x,1/2+y,1/2+z
1/2-y,1/2+x,1/2+z
1/2-x,1/2-y,1/2+z
1/2+y,1/2-x,1/2+z
1/2-x,1/2-y,1/2-z
1/2+y,1/2-x,1/2-z
1/2+x,1/2+y,1/2-z
1/2-y,1/2+x,1/2-z
loop_
_atom_site_type_symbol
_atom_site_label
_atom_site_fract_x
_atom_site_fract_y
_atom_site_fract_z
Si Si1 0.006376 0.589165 0.817230
Si Si2 0.170049 0.771328 0.818951
Si Si3 0.372122 0.416692 0.321619
Si Si4 0.969562 0.838852 0.680730
Si Si5 0.712606 0.160456 0.182010
Si Si6 0.705819 0.034858 0.683148
O O1 0.946789 0.556639 0.768731
O O2 0.000760 0.655746 0.768007
O O3 0.014993 0.583767 0.000000
O O4 0.113700 0.810049 0.803161
O O5 0.224784 0.812052 0.774246
O O6 0.169848 0.713134 0.720783
O O7 0.178549 0.756453 0.000000
O O8 0.379286 0.434197 0.500000
O O9 0.419317 0.369057 0.277332
O O10 0.373929 0.472000 0.212700
O O11 0.954189 0.838971 0.500000
O O12 0.978929 0.772049 0.728646
O O13 0.699023 0.102681 0.274792
O O14 0.713171 0.147200 0.000000
O O15 0.699587 0.026367 0.500000
#
# Coordination Sequence:
#
# PCOD9545610 Si02
#       6
#    16  16  16  16  16  16
#     4  11  23  42  67  94 129 170 213 259 306 363
#     4   9  19  35  56  85 120 158 198 244 302 368
#     4  11  23  42  66  90 122 160 205 254 308 371
#     4  11  25  43  65  92 123 159 203 256 312 369
#     4  10  19  33  57  88 122 159 201 248 302 365
#     4  11  23  40  63  92 128 167 209 258 310 366
#
# _framework density 20.774550000000001
#
# number of rings (size 3 to 8) (size 9 to 14) (size 15 to 20)
#    0.000    1.500    1.667    4.000    0.000    5.667 
#    0.000    5.000    0.000    0.000    0.000    0.000 
#    0.000    0.000    0.000    0.000    0.000    0.000 
#
# Total GULP energy -268365.221788 kJ/mol
# GULP energy per Si atom -5590.942121 kJ/mol
# Density = 2.072727 g / cm^3
# Si number density = 20.774550 Si / 1000 Ang^3
#
#
#
# Elastic Constant Matrix: (Units=GPa)
#
#
# Indices 1 2 3 4 5 6 
#
# 1 52.3676 3.8801 5.5901 0.0000 0.0000 12.1594
# 2 3.8801 52.3676 5.5901 0.0000 0.0000 -12.1594
# 3 5.5901 5.5901 30.5322 0.0000 0.0000 0.0000
# 4 0.0000 0.0000 0.0000 27.8559 0.0000 0.0000
# 5 0.0000 0.0000 0.0000 0.0000 27.8559 0.0000
# 6 12.1594 -12.1594 0.0000 0.0000 0.0000 4.5027
#
#
#
# Elastic Compliance Matrix: (Units=1/GPa)
#
#
# Indices 1 2 3 4 5 6 
#
# 1 -0.019872 0.038322 -0.003378 0.000000 0.000000 0.157151
# 2 0.038322 -0.019872 -0.003378 0.000000 0.000000 -0.157151
# 3 -0.003378 -0.003378 0.033989 0.000000 0.000000 0.000000
# 4 0.000000 0.000000 0.000000 0.035899 0.000000 0.000000
# 5 0.000000 0.000000 0.000000 0.000000 0.035899 0.000000
# 6 0.157151 -0.157151 0.000000 0.000000 0.000000 -0.626665
#
#
# Mechanical properties :
#
#
# Convention : Reuss Voigt Hill
#
# Bulk Modulus (GPa) = 17.42854 18.37646 17.90250
# Shear Modulus (GPa) = -8.26952 20.05671 5.89359
#
# Velocity S-wave (km/s) = -1.99731 3.11053 1.68615
# Velocity P-wave (km/s) = 1.75744 4.66534 3.52520
#
# Compressibility (1/GPa) = 0.05737715
#
# Stress axis : x y z
#
# Youngs Moduli (GPa) = -50.32124 -50.32124 29.42109
#
# Poissons Ratio (x) = 1.92842 0.09938
# Poissons Ratio (y) = 1.92842 0.09938
# Poissons Ratio (z) = -0.16998 -0.16998
#
# Static dielectric constant tensor:
#      x y z
#    x 1.744430 0.000000 0.000000 
#    y 0.000000 1.744430 0.000000 
#    z 0.000000 0.000000 1.697520 
# 
# From -- ./inp_files/1371.got.cif
#   From: 2010.05.17/outbox.cif.g08.bks.cpg/sg87_1_cif.got.tgz:1371.got - 2010.06.03 19:07:00.
