data_PCOD9545201
_publ_section_title
;
Structure prediction by ZEFSAII (Michael W. Deem and Ramdas Pophale) SiO2 
 PCOD9545201
Probable space group: P 42/N
;
_chemical_formula_sum "Si O2"
_cell_formula_units_Z 38
_cell_length_a 11.182088
_cell_length_b 11.182088
_cell_length_c 13.693448
_cell_angle_alpha 90.000000
_cell_angle_beta 90.000000
_cell_angle_gamma 90.000000
_cell_volume 1712.216305
_symmetry_space_group_name_H-M "P 42/N"
_symmetry_group_IT_number 86
_space_group.IT_coordinate_system_code '2'
_symmetry_cell_setting 'tetragonal'
loop_
_space_group_symop_operation_xyz
x,y,z
-y,1/2+x,1/2+z
1/2-x,1/2-y,z
1/2+y,-x,1/2+z
-x,-y,-z
y,1/2-x,1/2-z
1/2+x,1/2+y,-z
1/2-y,x,1/2-z
loop_
_atom_site_type_symbol
_atom_site_label
_atom_site_fract_x
_atom_site_fract_y
_atom_site_fract_z
Si Si1 0.750000 0.750000 0.026717
Si Si2 0.804112 0.553317 0.620236
Si Si3 0.652519 0.337027 0.985124
Si Si4 0.473824 0.271308 0.632040
Si Si5 0.004887 0.061874 0.807257
Si Si6 0.750000 0.750000 0.750000
O O1 0.678688 0.851264 0.085331
O O2 0.654736 0.675971 0.962485
O O3 0.770360 0.433968 0.563020
O O4 0.719352 0.631311 0.689054
O O5 0.921130 0.520906 0.682169
O O6 0.750000 0.250000 0.939932
O O7 0.725236 0.434816 0.048875
O O8 0.566778 0.387903 0.901182
O O9 0.527308 0.363948 0.710269
O O10 0.429241 0.148294 0.682775
#
# Coordination Sequence:
#
# PCOD9545201 Si02
#       6
#     4   8   8   8   8   2
#     4  11  18  42  71  98 130 184 223 289 345 417
#     4  10  22  43  66  93 139 173 225 281 353 403
#     4  11  24  44  65  97 142 180 219 294 354 406
#     4  11  22  39  72 100 134 180 237 282 343 424
#     4  11  22  43  65 103 134 178 233 295 343 408
#     4  10  24  40  66  96 126 188 214 280 340 434
#
# _framework density 22.193459000000001
#
# number of rings (size 3 to 8) (size 9 to 14) (size 15 to 20)
#    0.000    1.263    4.211    2.526    2.947    0.842 
#    3.789    1.053    0.000    0.000    0.000    0.000 
#    0.000    0.000    0.000    0.000    0.000    0.000 
#
# Total GULP energy -211771.620878 kJ/mol
# GULP energy per Si atom -5572.937392 kJ/mol
# Density = 2.214295 g / cm^3
# Si number density = 22.193459 Si / 1000 Ang^3
#
#
#
# Elastic Constant Matrix: (Units=GPa)
#
#
# Indices 1 2 3 4 5 6 
#
# 1 37.1434 19.0045 7.1102 0.0000 0.0000 1.6119
# 2 19.0045 37.1434 7.1102 0.0000 0.0000 -1.6119
# 3 7.1102 7.1102 68.3122 0.0000 0.0000 0.0000
# 4 0.0000 0.0000 0.0000 31.1408 0.0000 0.0000
# 5 0.0000 0.0000 0.0000 0.0000 31.1408 0.0000
# 6 1.6119 -1.6119 0.0000 0.0000 0.0000 30.2646
#
#
#
# Elastic Compliance Matrix: (Units=1/GPa)
#
#
# Indices 1 2 3 4 5 6 
#
# 1 0.036975 -0.018682 -0.001904 0.000000 0.000000 -0.002964
# 2 -0.018682 0.036975 -0.001904 0.000000 0.000000 0.002964
# 3 -0.001904 -0.001904 0.015035 0.000000 0.000000 0.000000
# 4 0.000000 0.000000 0.000000 0.032112 0.000000 0.000000
# 5 0.000000 0.000000 0.000000 0.000000 0.032112 0.000000
# 6 -0.002964 0.002964 0.000000 0.000000 0.000000 0.033358
#
#
# Mechanical properties :
#
#
# Convention : Reuss Voigt Hill
#
# Bulk Modulus (GPa) = 22.72523 23.22761 22.97642
# Shear Modulus (GPa) = 20.30751 25.80087 23.05419
#
# Velocity S-wave (km/s) = 3.02821 3.41331 3.22651
# Velocity P-wave (km/s) = 4.74222 5.10127 4.92501
#
# Compressibility (1/GPa) = 0.04400395
#
# Stress axis : x y z
#
# Youngs Moduli (GPa) = 27.04561 27.04561 66.51140
#
# Poissons Ratio (x) = 0.50527 0.12663
# Poissons Ratio (y) = 0.50527 0.12663
# Poissons Ratio (z) = 0.05149 0.05149
#
# Static dielectric constant tensor:
#      x y z
#    x 1.836210 0.000000 0.000000 
#    y 0.000000 1.836210 0.000000 
#    z 0.000000 0.000000 1.917770 
# 
# From -- ./inp_files/2949.got.cif
#   From: 2010.05.17/outbox.cif.g08.bks.cpg/sg86_2_cif.got.tgz:2949.got - 2010.06.03 19:03:11.
