data_PCOD9545843
_publ_section_title
;
Structure prediction by ZEFSAII (Michael W. Deem and Ramdas Pophale) SiO2 
 PCOD9545843
Probable space group: I 4/M
;
_chemical_formula_sum "Si O2"
_cell_formula_units_Z 96
_cell_length_a 24.403869
_cell_length_b 24.403869
_cell_length_c 8.744316
_cell_angle_alpha 90.000000
_cell_angle_beta 90.000000
_cell_angle_gamma 90.000000
_cell_volume 5207.667094
_symmetry_space_group_name_H-M "I 4/M"
_symmetry_group_IT_number 87
_symmetry_cell_setting 'tetragonal'
loop_
_space_group_symop_operation_xyz
x,y,z
-y,x,z
-x,-y,z
y,-x,z
-x,-y,-z
y,-x,-z
x,y,-z
-y,x,-z
1/2+x,1/2+y,1/2+z
1/2-y,1/2+x,1/2+z
1/2-x,1/2-y,1/2+z
1/2+y,1/2-x,1/2+z
1/2-x,1/2-y,1/2-z
1/2+y,1/2-x,1/2-z
1/2+x,1/2+y,1/2-z
1/2-y,1/2+x,1/2-z
loop_
_atom_site_type_symbol
_atom_site_label
_atom_site_fract_x
_atom_site_fract_y
_atom_site_fract_z
Si Si1 0.635802 0.761156 0.680694
Si Si2 0.848727 0.444868 0.819810
Si Si3 0.639807 0.938816 0.178826
Si Si4 0.224639 0.339145 0.320136
Si Si5 0.069634 0.054906 0.686213
Si Si6 0.353446 0.655305 0.816832
O O1 0.637821 0.752740 0.500000
O O2 0.587260 0.802332 0.726803
O O3 0.691966 0.790433 0.736199
O O4 0.628468 0.703729 0.765843
O O5 0.906717 0.416105 0.782776
O O6 0.850121 0.508303 0.779887
O O7 0.838929 0.435112 0.000000
O O8 0.686954 0.893143 0.196914
O O9 0.638298 0.955027 0.000000
O O10 0.228202 0.325815 0.500000
O O11 0.284165 0.351637 0.254081
O O12 0.069988 0.055233 0.500000
O O13 0.117809 0.095567 0.736135
O O14 0.008743 0.074875 0.733393
O O15 0.355628 0.659525 0.000000
#
# Coordination Sequence:
#
# PCOD9545843 Si02
#       6
#    16  16  16  16  16  16
#     4  11  22  37  56  78 109 146 181 224 277 326
#     4  10  21  37  57  81 110 144 184 229 273 323
#     4   9  20  37  55  78 109 145 183 226 275 323
#     4  10  21  38  56  78 111 146 182 226 273 323
#     4   8  16  33  55  79 108 139 173 217 264 309
#     4  11  21  33  55  86 112 140 181 223 269 329
#
# _framework density 18.434358
#
# number of rings (size 3 to 8) (size 9 to 14) (size 15 to 20)
#    0.000    2.167    0.000    5.000    0.000    5.667 
#    0.000    3.333    0.000    3.000    0.000    4.667 
#    0.000    0.000    0.000    0.000    0.000    0.000 
#
# Total GULP energy -267998.511579 kJ/mol
# GULP energy per Si atom -5583.302325 kJ/mol
# Density = 1.839240 g / cm^3
# Si number density = 18.434358 Si / 1000 Ang^3
#
#
#
# Elastic Constant Matrix: (Units=GPa)
#
#
# Indices 1 2 3 4 5 6 
#
# 1 15.8304 16.4479 2.3611 0.0000 0.0000 -5.4844
# 2 16.4479 15.8304 2.3611 0.0000 0.0000 5.4844
# 3 2.3611 2.3611 32.8876 0.0000 0.0000 0.0000
# 4 0.0000 0.0000 0.0000 25.2869 0.0000 0.0000
# 5 0.0000 0.0000 0.0000 0.0000 25.2869 0.0000
# 6 -5.4844 5.4844 0.0000 0.0000 0.0000 19.1224
#
#
#
# Elastic Compliance Matrix: (Units=1/GPa)
#
#
# Indices 1 2 3 4 5 6 
#
# 1 -0.117200 0.148509 -0.002248 0.000000 0.000000 -0.076207
# 2 0.148509 -0.117200 -0.002248 0.000000 0.000000 0.076207
# 3 -0.002248 -0.002248 0.030729 0.000000 0.000000 0.000000
# 4 0.000000 0.000000 0.000000 0.039546 0.000000 0.000000
# 5 0.000000 0.000000 0.000000 0.000000 0.039546 0.000000
# 6 -0.076207 0.076207 0.000000 0.000000 0.000000 0.008581
#
#
# Mechanical properties :
#
#
# Convention : Reuss Voigt Hill
#
# Bulk Modulus (GPa) = 11.85438 11.87651 11.86544
# Shear Modulus (GPa) = -13.30125 16.83112 1.76494
#
# Velocity S-wave (km/s) = -2.68908 3.02492 0.97954
# Velocity P-wave (km/s) = 1.78800 4.31934 2.78027
#
# Compressibility (1/GPa) = 0.08435702
#
# Stress axis : x y z
#
# Youngs Moduli (GPa) = -8.53245 -8.53245 32.54216
#
# Poissons Ratio (x) = 1.26715 0.07315
# Poissons Ratio (y) = 1.26715 0.07315
# Poissons Ratio (z) = -0.01918 -0.01918
#
# Static dielectric constant tensor:
#      x y z
#    x 1.625250 0.000000 0.000000 
#    y 0.000000 1.625250 0.000000 
#    z 0.000000 0.000000 1.620120 
# 
# From -- ./inp_files/1410.got.cif
#   From: 2010.05.17/outbox.cif.g08.bks.cpg/sg87_1_cif.got.tgz:1410.got - 2010.06.03 19:07:00.
