data_PCOD9545717
_publ_section_title
;
Structure prediction by ZEFSAII (Michael W. Deem and Ramdas Pophale) SiO2 
 PCOD9545717
Probable space group: I 4/M
;
_chemical_formula_sum "Si O2"
_cell_formula_units_Z 84
_cell_length_a 21.374102
_cell_length_b 21.374102
_cell_length_c 7.218588
_cell_angle_alpha 90.000000
_cell_angle_beta 90.000000
_cell_angle_gamma 90.000000
_cell_volume 3297.828071
_symmetry_space_group_name_H-M "I 4/M"
_symmetry_group_IT_number 87
_symmetry_cell_setting 'tetragonal'
loop_
_space_group_symop_operation_xyz
x,y,z
-y,x,z
-x,-y,z
y,-x,z
-x,-y,-z
y,-x,-z
x,y,-z
-y,x,-z
1/2+x,1/2+y,1/2+z
1/2-y,1/2+x,1/2+z
1/2-x,1/2-y,1/2+z
1/2+y,1/2-x,1/2+z
1/2-x,1/2-y,1/2-z
1/2+y,1/2-x,1/2-z
1/2+x,1/2+y,1/2-z
1/2-y,1/2+x,1/2-z
loop_
_atom_site_type_symbol
_atom_site_label
_atom_site_fract_x
_atom_site_fract_y
_atom_site_fract_z
Si Si1 0.082964 0.253136 0.205813
Si Si2 0.000000 0.500000 0.250000
Si Si3 0.330826 0.354542 0.273934
Si Si4 0.036615 0.907289 0.224252
Si Si5 0.690060 0.847191 0.776562
Si Si6 0.013710 0.642719 0.225836
O O1 0.113331 0.190886 0.290089
O O2 0.144102 0.296486 0.194939
O O3 0.031515 0.300444 0.285937
O O4 0.058887 0.235665 0.000000
O O5 0.002487 0.425680 0.306214
O O6 0.331732 0.351187 0.500000
O O7 0.346116 0.425905 0.220230
O O8 0.261314 0.337572 0.215486
O O9 0.966898 0.922073 0.283386
O O10 0.034567 0.907191 0.000000
O O11 0.663691 0.915908 0.732059
O O12 0.688277 0.841613 0.000000
O O13 0.006872 0.635867 0.000000
#
# Coordination Sequence:
#
# PCOD9545717 Si02
#       6
#    16   4  16  16  16  16
#     4  10  20  35  51  74 101 133 168 206 253 301
#     4  12  18  36  52  70 100 136 182 208 258 288
#     4   9  18  29  49  71  98 133 165 203 249 300
#     4   8  14  24  39  65  98 129 158 192 239 293
#     4  10  20  35  51  74 101 133 168 206 253 301
#     4  10  21  33  51  74 102 135 173 213 253 302
#
# _framework density 25.471309999999999
#
# number of rings (size 3 to 8) (size 9 to 14) (size 15 to 20)
#    0.000    2.476    1.905    1.429    2.667    0.000 
#    0.000    0.952    0.000    0.000    0.000    0.000 
#    0.000    0.000    0.000    8.381    0.000    7.619 
#
# Total GULP energy -234450.638418 kJ/mol
# GULP energy per Si atom -5582.158058 kJ/mol
# Density = 2.541334 g / cm^3
# Si number density = 25.471310 Si / 1000 Ang^3
#
#
#
# Elastic Constant Matrix: (Units=GPa)
#
#
# Indices 1 2 3 4 5 6 
#
# 1 96.2908 21.9128 -0.0027 0.0000 0.0000 -5.8357
# 2 21.9128 96.2908 -0.0027 0.0000 0.0000 5.8357
# 3 -0.0027 -0.0027 125.0855 0.0000 0.0000 0.0000
# 4 0.0000 0.0000 0.0000 -6.5137 0.0000 0.0000
# 5 0.0000 0.0000 0.0000 0.0000 -6.5137 0.0000
# 6 -5.8357 5.8357 0.0000 0.0000 0.0000 51.2804
#
#
#
# Elastic Compliance Matrix: (Units=1/GPa)
#
#
# Indices 1 2 3 4 5 6 
#
# 1 0.011075 -0.002615 0.000000 0.000000 0.000000 0.001558
# 2 -0.002615 0.011075 0.000000 0.000000 0.000000 -0.001558
# 3 0.000000 0.000000 0.007995 0.000000 0.000000 0.000000
# 4 0.000000 0.000000 0.000000 -0.153523 0.000000 0.000000
# 5 0.000000 0.000000 0.000000 0.000000 -0.153523 0.000000
# 6 0.001558 -0.001558 0.000000 0.000000 0.000000 0.019855
#
#
# Mechanical properties :
#
#
# Convention : Reuss Voigt Hill
#
# Bulk Modulus (GPa) = 40.13612 40.16466 40.15039
# Shear Modulus (GPa) = -20.53281 27.36792 3.41755
#
# Velocity S-wave (km/s) = -2.84230 3.28145 1.15959
# Velocity P-wave (km/s) = 2.24055 5.49182 4.19405
#
# Compressibility (1/GPa) = 0.02491522
#
# Stress axis : x y z
#
# Youngs Moduli (GPa) = 90.29645 90.29645 125.08551
#
# Poissons Ratio (x) = 0.23609 -0.00002
# Poissons Ratio (y) = 0.23609 -0.00002
# Poissons Ratio (z) = -0.00002 -0.00002
#
# Static dielectric constant tensor:
#      x y z
#    x 1.936530 0.000000 0.000000 
#    y 0.000000 1.936530 0.000000 
#    z 0.000000 0.000000 2.025510 
# 
# From -- ./inp_files/2656.got.cif
#   From: 2010.05.17/outbox.cif.g08.bks.cpg/sg87_2_cif.got.tgz:2656.got - 2010.06.03 19:07:00.
