data_PCOD9545193
_publ_section_title
;
Structure prediction by ZEFSAII (Michael W. Deem and Ramdas Pophale) SiO2 
 PCOD9545193
Probable space group: P 42/N
;
_chemical_formula_sum "Si O2"
_cell_formula_units_Z 20
_cell_length_a 7.889594
_cell_length_b 7.889594
_cell_length_c 13.940021
_cell_angle_alpha 90.000000
_cell_angle_beta 90.000000
_cell_angle_gamma 90.000000
_cell_volume 867.706274
_symmetry_space_group_name_H-M "P 42/N"
_symmetry_group_IT_number 86
_space_group.IT_coordinate_system_code '2'
_symmetry_cell_setting 'tetragonal'
loop_
_space_group_symop_operation_xyz
x,y,z
-y,1/2+x,1/2+z
1/2-x,1/2-y,z
1/2+y,-x,1/2+z
-x,-y,-z
y,1/2-x,1/2-z
1/2+x,1/2+y,-z
1/2-y,x,1/2-z
loop_
_atom_site_type_symbol
_atom_site_label
_atom_site_fract_x
_atom_site_fract_y
_atom_site_fract_z
Si Si1 0.250000 0.750000 0.271105
Si Si2 0.796579 0.066263 0.908852
Si Si3 0.797668 0.932481 0.102684
O O1 0.277341 0.909167 0.197912
O O2 0.415218 0.724326 0.334784
O O3 0.750000 0.250000 0.952693
O O4 0.998553 0.048313 0.897820
O O5 0.735914 0.941635 0.991637
O O6 0.750000 0.750000 0.141376
#
# Coordination Sequence:
#
# PCOD9545193 Si02
#       3
#     4   8   8
#     4  10  22  42  68 104 134 172 248 280 324 444
#     4   9  23  43  60 101 140 168 229 293 334 406
#     4  11  23  44  72  94 136 190 219 282 361 398
#
# _framework density 23.049275000000002
#
# number of rings (size 3 to 8) (size 9 to 14) (size 15 to 20)
#    1.200    0.800    2.000    0.000    5.600    1.600 
#   14.400    0.000    0.000    0.000    0.000    0.000 
#    0.000    0.000    0.000    0.000    0.000    0.000 
#
# Total GULP energy -111462.957752 kJ/mol
# GULP energy per Si atom -5573.147888 kJ/mol
# Density = 2.299681 g / cm^3
# Si number density = 23.049275 Si / 1000 Ang^3
#
#
#
# Elastic Constant Matrix: (Units=GPa)
#
#
# Indices 1 2 3 4 5 6 
#
# 1 77.3976 -4.9276 50.4114 0.0000 0.0000 -10.5816
# 2 -4.9276 77.3976 50.4114 0.0000 0.0000 10.5816
# 3 50.4114 50.4114 173.2213 0.0000 0.0000 0.0000
# 4 0.0000 0.0000 0.0000 -3.3668 0.0000 0.0000
# 5 0.0000 0.0000 0.0000 0.0000 -3.3668 0.0000
# 6 -10.5816 10.5816 0.0000 0.0000 0.0000 21.9332
#
#
#
# Elastic Compliance Matrix: (Units=1/GPa)
#
#
# Indices 1 2 3 4 5 6 
#
# 1 0.018527 0.004660 -0.006748 0.000000 0.000000 0.006690
# 2 0.004660 0.018527 -0.006748 0.000000 0.000000 -0.006690
# 3 -0.006748 -0.006748 0.009701 0.000000 0.000000 0.000000
# 4 0.000000 0.000000 0.000000 -0.297016 0.000000 0.000000
# 5 0.000000 0.000000 0.000000 0.000000 -0.297016 0.000000
# 6 0.006690 -0.006690 0.000000 0.000000 0.000000 0.052048
#
#
# Mechanical properties :
#
#
# Convention : Reuss Voigt Hill
#
# Bulk Modulus (GPa) = 34.38504 57.75630 46.07067
# Shear Modulus (GPa) = -10.68684 18.51467 3.91392
#
# Velocity S-wave (km/s) = -2.15559 2.83727 1.30451
# Velocity P-wave (km/s) = 2.95888 5.98712 4.72232
#
# Compressibility (1/GPa) = 0.02908242
#
# Stress axis : x y z
#
# Youngs Moduli (GPa) = 53.97620 53.97620 103.08732
#
# Poissons Ratio (x) = -0.25153 0.69562
# Poissons Ratio (y) = -0.25153 0.69562
# Poissons Ratio (z) = 0.36422 0.36422
#
# Static dielectric constant tensor:
#      x y z
#    x 1.878930 0.000000 0.000000 
#    y 0.000000 1.878930 0.000000 
#    z 0.000000 0.000000 1.911900 
# 
# From -- ./inp_files/2512.got.cif
#   From: 2010.05.17/outbox.cif.g08.bks.cpg/sg86_2_cif.got.tgz:2512.got - 2010.06.03 19:03:11.
