data_PCOD9545241
_publ_section_title
;
Structure prediction by ZEFSAII (Michael W. Deem and Ramdas Pophale) SiO2 
 PCOD9545241
Probable space group: P 42/N
;
_chemical_formula_sum "Si O2"
_cell_formula_units_Z 34
_cell_length_a 11.677836
_cell_length_b 11.677836
_cell_length_c 11.355885
_cell_angle_alpha 90.000000
_cell_angle_beta 90.000000
_cell_angle_gamma 90.000000
_cell_volume 1548.623087
_symmetry_space_group_name_H-M "P 42/N"
_symmetry_group_IT_number 86
_space_group.IT_coordinate_system_code '2'
_symmetry_cell_setting 'tetragonal'
loop_
_space_group_symop_operation_xyz
x,y,z
-y,1/2+x,1/2+z
1/2-x,1/2-y,z
1/2+y,-x,1/2+z
-x,-y,-z
y,1/2-x,1/2-z
1/2+x,1/2+y,-z
1/2-y,x,1/2-z
loop_
_atom_site_type_symbol
_atom_site_label
_atom_site_fract_x
_atom_site_fract_y
_atom_site_fract_z
Si Si1 0.750000 0.750000 0.250000
Si Si2 0.040486 0.137729 0.857696
Si Si3 0.335133 0.841186 0.823489
Si Si4 0.844357 0.063669 0.009435
Si Si5 0.778264 0.935948 0.769227
O O1 0.771358 0.640378 0.333540
O O2 0.960444 0.142917 0.743307
O O3 0.945779 0.144572 0.960889
O O4 0.103711 0.018295 0.888996
O O5 0.250000 0.750000 0.759851
O O6 0.458080 0.782589 0.819961
O O7 0.265972 0.872805 0.940397
O O8 0.808326 0.985479 0.898218
O O9 0.872898 0.842706 0.734058
#
# Coordination Sequence:
#
# PCOD9545241 Si02
#       5
#     2   8   8   8   8
#     4  12  20  40  76 108 138 188 232 300 348 436
#     4  10  23  42  69 105 139 174 240 294 352 415
#     4  11  25  44  72 104 141 191 238 290 355 431
#     4  10  23  46  69 101 147 191 227 303 351 423
#     4  10  25  48  71 106 151 185 235 306 356 421
#
# _framework density 21.954989000000001
#
# number of rings (size 3 to 8) (size 9 to 14) (size 15 to 20)
#    0.000    1.647    2.353    0.000    9.882    6.588 
#    0.000    0.000    0.000    0.000    0.000    0.000 
#    0.000    0.000    0.000    0.000    0.000    0.000 
#
# Total GULP energy -189740.641129 kJ/mol
# GULP energy per Si atom -5580.607092 kJ/mol
# Density = 2.190502 g / cm^3
# Si number density = 21.954989 Si / 1000 Ang^3
#
#
#
# Elastic Constant Matrix: (Units=GPa)
#
#
# Indices 1 2 3 4 5 6 
#
# 1 145.5854 68.9990 58.3903 0.0000 0.0000 3.3947
# 2 68.9990 145.5854 58.3903 0.0000 0.0000 -3.3947
# 3 58.3903 58.3903 84.5070 0.0000 0.0000 0.0000
# 4 0.0000 0.0000 0.0000 25.3357 0.0000 0.0000
# 5 0.0000 0.0000 0.0000 0.0000 25.3357 0.0000
# 6 3.3947 -3.3947 0.0000 0.0000 0.0000 16.4468
#
#
#
# Elastic Compliance Matrix: (Units=1/GPa)
#
#
# Indices 1 2 3 4 5 6 
#
# 1 0.010385 -0.002916 -0.005160 0.000000 0.000000 -0.002745
# 2 -0.002916 0.010385 -0.005160 0.000000 0.000000 0.002745
# 3 -0.005160 -0.005160 0.018965 0.000000 0.000000 0.000000
# 4 0.000000 0.000000 0.000000 0.039470 0.000000 0.000000
# 5 0.000000 0.000000 0.000000 0.000000 0.039470 0.000000
# 6 -0.002745 0.002745 0.000000 0.000000 0.000000 0.061936
#
#
# Mechanical properties :
#
#
# Convention : Reuss Voigt Hill
#
# Bulk Modulus (GPa) = 75.41482 83.02632 79.22057
# Shear Modulus (GPa) = 23.64034 26.08350 24.86192
#
# Velocity S-wave (km/s) = 3.28497 3.45054 3.36877
# Velocity P-wave (km/s) = 6.98658 7.33305 7.16191
#
# Compressibility (1/GPa) = 0.01325999
#
# Stress axis : x y z
#
# Youngs Moduli (GPa) = 96.29698 96.29698 52.73000
#
# Poissons Ratio (x) = 0.28080 0.27211
# Poissons Ratio (y) = 0.28080 0.27211
# Poissons Ratio (z) = 0.49693 0.49693
#
# Static dielectric constant tensor:
#      x y z
#    x 1.805520 0.000000 0.000000 
#    y 0.000000 1.805520 0.000000 
#    z 0.000000 0.000000 1.825230 
# 
# From -- ./inp_files/1941.got.cif
#   From: 2010.05.17/outbox.cif.g08.bks.cpg/sg86_1_cif.got.tgz:1941.got - 2010.06.03 19:03:11.
