data_PCOD9545240
_publ_section_title
;
Structure prediction by ZEFSAII (Michael W. Deem and Ramdas Pophale) SiO2 
 PCOD9545240
Probable space group: P 42/N
;
_chemical_formula_sum "Si O2"
_cell_formula_units_Z 24
_cell_length_a 8.052801
_cell_length_b 8.052801
_cell_length_c 15.033102
_cell_angle_alpha 90.000000
_cell_angle_beta 90.000000
_cell_angle_gamma 90.000000
_cell_volume 974.860645
_symmetry_space_group_name_H-M "P 42/N"
_symmetry_group_IT_number 86
_space_group.IT_coordinate_system_code '2'
_symmetry_cell_setting 'tetragonal'
loop_
_space_group_symop_operation_xyz
x,y,z
-y,1/2+x,1/2+z
1/2-x,1/2-y,z
1/2+y,-x,1/2+z
-x,-y,-z
y,1/2-x,1/2-z
1/2+x,1/2+y,-z
1/2-y,x,1/2-z
loop_
_atom_site_type_symbol
_atom_site_label
_atom_site_fract_x
_atom_site_fract_y
_atom_site_fract_z
Si Si1 0.411409 0.151678 0.874167
Si Si2 0.223425 0.925127 0.452088
Si Si3 0.633974 0.999004 0.732204
O O1 0.250000 0.250000 0.843110
O O2 0.415825 0.959884 0.908502
O O3 0.544314 0.135583 0.793665
O O4 0.449864 0.242837 0.967631
O O5 0.250000 0.750000 0.497593
O O6 0.347399 0.948996 0.370124
O O7 0.821624 0.960231 0.764989
#
# Coordination Sequence:
#
# PCOD9545240 Si02
#       3
#     8   8   8
#     4  10  23  43  71 105 139 184 244 302 360 439
#     4  10  23  42  67 101 143 189 235 293 369 432
#     4   9  20  42  72 103 144 194 240 299 367 436
#
# _framework density 24.618901000000001
#
# number of rings (size 3 to 8) (size 9 to 14) (size 15 to 20)
#    0.000    2.333    0.000    0.000   14.000    2.667 
#   12.000    0.000    7.333    0.000    0.000    0.000 
#    0.000    0.000    0.000    0.000    0.000    0.000 
#
# Total GULP energy -134061.003695 kJ/mol
# GULP energy per Si atom -5585.875154 kJ/mol
# Density = 2.456287 g / cm^3
# Si number density = 24.618901 Si / 1000 Ang^3
#
#
#
# Elastic Constant Matrix: (Units=GPa)
#
#
# Indices 1 2 3 4 5 6 
#
# 1 72.5396 21.9960 68.2048 0.0000 0.0000 -5.8916
# 2 21.9960 72.5396 68.2048 0.0000 0.0000 5.8916
# 3 68.2048 68.2048 201.5758 0.0000 0.0000 0.0000
# 4 0.0000 0.0000 0.0000 -0.8904 0.0000 0.0000
# 5 0.0000 0.0000 0.0000 0.0000 -0.8904 0.0000
# 6 -5.8916 5.8916 0.0000 0.0000 0.0000 39.5525
#
#
#
# Elastic Compliance Matrix: (Units=1/GPa)
#
#
# Indices 1 2 3 4 5 6 
#
# 1 0.020583 0.000086 -0.006994 0.000000 0.000000 0.003053
# 2 0.000086 0.020583 -0.006994 0.000000 0.000000 -0.003053
# 3 -0.006994 -0.006994 0.009694 0.000000 0.000000 0.000000
# 4 0.000000 0.000000 0.000000 -1.123082 0.000000 0.000000
# 5 0.000000 0.000000 0.000000 0.000000 -1.123082 0.000000
# 6 0.003053 -0.003053 0.000000 0.000000 0.000000 0.026192
#
#
# Mechanical properties :
#
#
# Convention : Reuss Voigt Hill
#
# Bulk Modulus (GPa) = 43.36903 73.71845 58.54374
# Shear Modulus (GPa) = -2.34343 20.10431 8.88044
#
# Velocity S-wave (km/s) = -0.97670 2.86076 1.90131
# Velocity P-wave (km/s) = 4.04753 6.39693 5.35272
#
# Compressibility (1/GPa) = 0.02305793
#
# Stress axis : x y z
#
# Youngs Moduli (GPa) = 48.58352 48.58352 103.16026
#
# Poissons Ratio (x) = -0.00420 0.72147
# Poissons Ratio (y) = -0.00420 0.72147
# Poissons Ratio (z) = 0.33978 0.33978
#
# Static dielectric constant tensor:
#      x y z
#    x 1.974440 0.000000 0.000000 
#    y 0.000000 1.974440 0.000000 
#    z 0.000000 0.000000 1.900000 
# 
# From -- ./inp_files/2606.got.cif
#   From: 2010.05.17/outbox.cif.g08.bks.cpg/sg86_2_cif.got.tgz:2606.got - 2010.06.03 19:03:11.
