data_PCOD9545273
_publ_section_title
;
Structure prediction by ZEFSAII (Michael W. Deem and Ramdas Pophale) SiO2 
 PCOD9545273
Probable space group: P 42/N
;
_chemical_formula_sum "Si O2"
_cell_formula_units_Z 56
_cell_length_a 12.108786
_cell_length_b 12.108786
_cell_length_c 19.198134
_cell_angle_alpha 90.000000
_cell_angle_beta 90.000000
_cell_angle_gamma 90.000000
_cell_volume 2814.882211
_symmetry_space_group_name_H-M "P 42/N"
_symmetry_group_IT_number 86
_space_group.IT_coordinate_system_code '2'
_symmetry_cell_setting 'tetragonal'
loop_
_space_group_symop_operation_xyz
x,y,z
-y,1/2+x,1/2+z
1/2-x,1/2-y,z
1/2+y,-x,1/2+z
-x,-y,-z
y,1/2-x,1/2-z
1/2+x,1/2+y,-z
1/2-y,x,1/2-z
loop_
_atom_site_type_symbol
_atom_site_label
_atom_site_fract_x
_atom_site_fract_y
_atom_site_fract_z
Si Si1 0.636195 0.708958 0.090371
Si Si2 0.619766 0.264910 0.100718
Si Si3 0.379603 0.526514 0.527428
Si Si4 0.636962 0.177755 0.243779
Si Si5 0.758845 0.381829 0.893570
Si Si6 0.482530 0.876073 0.477173
Si Si7 0.807643 0.573979 0.264788
O O1 0.750000 0.750000 0.123243
O O2 0.578444 0.808400 0.050651
O O3 0.665618 0.602005 0.045906
O O4 0.556230 0.675568 0.152689
O O5 0.750000 0.250000 0.102870
O O6 0.574761 0.221966 0.174743
O O7 0.611339 0.394369 0.084804
O O8 0.577791 0.193638 0.035196
O O9 0.500000 0.500000 0.500000
O O10 0.398517 0.611374 0.591345
O O11 0.750000 0.250000 0.246630
O O12 0.583237 0.208294 0.318827
O O13 0.664229 0.046827 0.233567
O O14 0.750000 0.250000 0.898647
O O15 0.694715 0.434101 0.959196
O O16 0.500000 0.000000 0.500000
O O17 0.679263 0.613359 0.254138
#
# Coordination Sequence:
#
# PCOD9545273 Si02
#       7
#     8   8   8   8   8   8   8
#     4  12  25  39  63  97 127 170 214 270 346 395
#     4  11  23  41  63  95 127 168 222 271 319 394
#     4  12  24  41  67  93 130 172 220 276 330 393
#     4  10  24  40  66  93 131 175 222 261 327 405
#     4  11  20  44  62  92 127 171 221 269 327 397
#     4  12  21  39  66  92 128 166 219 274 322 392
#     4  11  24  42  61  96 143 170 210 279 347 391
#
# _framework density 19.894259999999999
#
# number of rings (size 3 to 8) (size 9 to 14) (size 15 to 20)
#    0.000    0.714    5.714    3.429    6.000    0.000 
#    0.000    0.000    0.000    0.000    0.000    0.000 
#    0.000    0.000    0.000    0.000    0.000    0.000 
#
# Total GULP energy -312302.024257 kJ/mol
# GULP energy per Si atom -5576.821862 kJ/mol
# Density = 1.984898 g / cm^3
# Si number density = 19.894260 Si / 1000 Ang^3
#
#
#
# Elastic Constant Matrix: (Units=GPa)
#
#
# Indices 1 2 3 4 5 6 
#
# 1 89.0907 32.0741 26.9950 0.0000 0.0000 8.3813
# 2 32.0741 89.0907 26.9950 0.0000 0.0000 -8.3813
# 3 26.9950 26.9950 90.6085 0.0000 0.0000 0.0000
# 4 0.0000 0.0000 0.0000 -52.4428 0.0000 0.0000
# 5 0.0000 0.0000 0.0000 0.0000 -52.4428 0.0000
# 6 8.3813 -8.3813 0.0000 0.0000 0.0000 27.8923
#
#
#
# Elastic Compliance Matrix: (Units=1/GPa)
#
#
# Indices 1 2 3 4 5 6 
#
# 1 0.014377 -0.004861 -0.002835 0.000000 0.000000 -0.005781
# 2 -0.004861 0.014377 -0.002835 0.000000 0.000000 0.005781
# 3 -0.002835 -0.002835 0.012726 0.000000 0.000000 0.000000
# 4 0.000000 0.000000 0.000000 -0.019068 0.000000 0.000000
# 5 0.000000 0.000000 0.000000 0.000000 -0.019068 0.000000
# 6 -0.005781 0.005781 0.000000 0.000000 0.000000 0.039326
#
#
# Mechanical properties :
#
#
# Convention : Reuss Voigt Hill
#
# Bulk Modulus (GPa) = 48.97639 48.99089 48.98364
# Shear Modulus (GPa) = 70.88249 -3.21695 33.83277
#
# Velocity S-wave (km/s) = 5.97553 -1.27300 4.12834
# Velocity P-wave (km/s) = 8.50183 4.74535 6.88475
#
# Compressibility (1/GPa) = 0.02041800
#
# Stress axis : x y z
#
# Youngs Moduli (GPa) = 69.55328 69.55328 78.57975
#
# Poissons Ratio (x) = 0.33809 0.22280
# Poissons Ratio (y) = 0.33809 0.22280
# Poissons Ratio (z) = 0.19720 0.19720
#
# Static dielectric constant tensor:
#      x y z
#    x 1.837200 0.000000 0.000000 
#    y 0.000000 1.837200 0.000000 
#    z 0.000000 0.000000 1.827560 
# 
# From -- ./inp_files/4209.got.cif
#   From: 2010.05.17/outbox.cif.g08.bks.cpg/sg86_3_cif.got.tgz:4209.got - 2010.06.03 19:03:11.
