data_PCOD9545625
_publ_section_title
;
Structure prediction by ZEFSAII (Michael W. Deem and Ramdas Pophale) SiO2 
 PCOD9545625
Probable space group: I 4/M
;
_chemical_formula_sum "Si O2"
_cell_formula_units_Z 64
_cell_length_a 14.661626
_cell_length_b 14.661626
_cell_length_c 14.367385
_cell_angle_alpha 90.000000
_cell_angle_beta 90.000000
_cell_angle_gamma 90.000000
_cell_volume 3088.460161
_symmetry_space_group_name_H-M "I 4/M"
_symmetry_group_IT_number 87
_symmetry_cell_setting 'tetragonal'
loop_
_space_group_symop_operation_xyz
x,y,z
-y,x,z
-x,-y,z
y,-x,z
-x,-y,-z
y,-x,-z
x,y,-z
-y,x,-z
1/2+x,1/2+y,1/2+z
1/2-y,1/2+x,1/2+z
1/2-x,1/2-y,1/2+z
1/2+y,1/2-x,1/2+z
1/2-x,1/2-y,1/2-z
1/2+y,1/2-x,1/2-z
1/2+x,1/2+y,1/2-z
1/2-y,1/2+x,1/2-z
loop_
_atom_site_type_symbol
_atom_site_label
_atom_site_fract_x
_atom_site_fract_y
_atom_site_fract_z
Si Si1 0.598876 0.276818 0.894196
Si Si2 0.598690 0.782928 0.397015
Si Si3 0.589266 0.738067 0.802215
Si Si4 0.065915 0.584038 0.108420
O O1 0.636118 0.173423 0.891490
O O2 0.513257 0.290011 0.827505
O O3 0.681929 0.340769 0.864578
O O4 0.570447 0.296408 0.000000
O O5 0.609424 0.741178 0.500000
O O6 0.612518 0.723144 0.305746
O O7 0.498961 0.827919 0.389120
O O8 0.594113 0.845469 0.828149
O O9 0.000000 0.500000 0.134655
O O10 0.094534 0.569148 0.000000
#
# Coordination Sequence:
#
# PCOD9545625 Si02
#       4
#    16  16  16  16
#     4  11  23  40  62  92 125 159 205 258 306 368
#     4  10  22  38  59  89 121 156 206 258 307 363
#     4  12  23  39  62  90 125 169 203 248 311 368
#     4  10  19  34  59  88 118 155 198 250 311 362
#
# _framework density 20.722301000000002
#
# number of rings (size 3 to 8) (size 9 to 14) (size 15 to 20)
#    0.000    1.250    2.500    4.500    0.000    0.500 
#    0.000    5.000    0.000    0.000    0.000    1.750 
#    0.000    0.000    0.000    0.000    0.000    0.000 
#
# Total GULP energy -178934.719506 kJ/mol
# GULP energy per Si atom -5591.709985 kJ/mol
# Density = 2.067514 g / cm^3
# Si number density = 20.722301 Si / 1000 Ang^3
#
#
#
# Elastic Constant Matrix: (Units=GPa)
#
#
# Indices 1 2 3 4 5 6 
#
# 1 43.8826 33.3049 12.4582 0.0000 0.0000 2.6233
# 2 33.3049 43.8826 12.4582 0.0000 0.0000 -2.6233
# 3 12.4582 12.4582 120.1751 0.0000 0.0000 0.0000
# 4 0.0000 0.0000 0.0000 17.4582 0.0000 0.0000
# 5 0.0000 0.0000 0.0000 0.0000 17.4582 0.0000
# 6 2.6233 -2.6233 0.0000 0.0000 0.0000 27.6480
#
#
#
# Elastic Compliance Matrix: (Units=1/GPa)
#
#
# Indices 1 2 3 4 5 6 
#
# 1 0.056306 -0.042902 -0.001390 0.000000 0.000000 -0.009413
# 2 -0.042902 0.056306 -0.001390 0.000000 0.000000 0.009413
# 3 -0.001390 -0.001390 0.008609 0.000000 0.000000 0.000000
# 4 0.000000 0.000000 0.000000 0.057280 0.000000 0.000000
# 5 0.000000 0.000000 0.000000 0.000000 0.057280 0.000000
# 6 -0.009413 0.009413 0.000000 0.000000 0.000000 0.037955
#
#
# Mechanical properties :
#
#
# Convention : Reuss Voigt Hill
#
# Bulk Modulus (GPa) = 33.49065 36.04257 34.76661
# Shear Modulus (GPa) = 13.33157 22.49415 17.91286
#
# Velocity S-wave (km/s) = 2.53917 3.29827 2.94330
# Velocity P-wave (km/s) = 4.97928 5.65117 5.32583
#
# Compressibility (1/GPa) = 0.02985908
#
# Stress axis : x y z
#
# Youngs Moduli (GPa) = 17.76022 17.76022 116.15355
#
# Poissons Ratio (x) = 0.76194 0.16140
# Poissons Ratio (y) = 0.76194 0.16140
# Poissons Ratio (z) = 0.02468 0.02468
#
# Static dielectric constant tensor:
#      x y z
#    x 1.711570 0.000000 0.000000 
#    y 0.000000 1.711570 0.000000 
#    z 0.000000 0.000000 1.793750 
# 
# From -- ./inp_files/3338.got.cif
#   From: 2010.05.17/outbox.cif.g08.bks.cpg/sg87_2_cif.got.tgz:3338.got - 2010.06.03 19:07:00.
