data_PCOD9545189
_publ_section_title
;
Structure prediction by ZEFSAII (Michael W. Deem and Ramdas Pophale) SiO2 
 PCOD9545189
Probable space group: P 42/N
;
_chemical_formula_sum "Si O2"
_cell_formula_units_Z 40
_cell_length_a 16.543868
_cell_length_b 16.543868
_cell_length_c 5.453181
_cell_angle_alpha 90.000000
_cell_angle_beta 90.000000
_cell_angle_gamma 90.000000
_cell_volume 1492.533286
_symmetry_space_group_name_H-M "P 42/N"
_symmetry_group_IT_number 86
_space_group.IT_coordinate_system_code '2'
_symmetry_cell_setting 'tetragonal'
loop_
_space_group_symop_operation_xyz
x,y,z
-y,1/2+x,1/2+z
1/2-x,1/2-y,z
1/2+y,-x,1/2+z
-x,-y,-z
y,1/2-x,1/2-z
1/2+x,1/2+y,-z
1/2-y,x,1/2-z
loop_
_atom_site_type_symbol
_atom_site_label
_atom_site_fract_x
_atom_site_fract_y
_atom_site_fract_z
Si Si1 0.792519 0.507837 0.055925
Si Si2 0.799981 0.872368 0.759083
Si Si3 0.153930 0.755820 0.174029
Si Si4 0.101018 0.883293 0.781189
Si Si5 0.425180 0.451526 0.626601
O O1 0.726476 0.574013 0.990854
O O2 0.638104 0.331007 0.001525
O O3 0.839226 0.480238 0.806940
O O4 0.865951 0.541541 0.220261
O O5 0.844096 0.789033 0.835032
O O6 0.853795 0.924315 0.564432
O O7 0.250000 0.750000 0.240782
O O8 0.073746 0.757305 0.340483
O O9 0.366069 0.833458 0.059502
O O10 0.094539 0.978224 0.820099
O O11 0.500000 0.500000 0.500000
#
# Coordination Sequence:
#
# PCOD9545189 Si02
#       5
#     8   8   8   8   8
#     4  10  22  42  66  95 133 177 232 293 353 420
#     4   9  18  38  72 108 143 188 240 297 364 436
#     4  12  25  39  62  95 131 181 236 287 350 423
#     4  11  22  39  61  90 133 175 226 287 352 425
#     4   9  20  38  64  99 138 181 228 283 352 424
#
# _framework density 26.800073000000001
#
# number of rings (size 3 to 8) (size 9 to 14) (size 15 to 20)
#    0.000    1.800    0.000    4.200    0.000    6.400 
#    0.000    6.000    0.000    0.000    0.000   14.000 
#    0.000    0.000    0.000    0.000    0.000    0.000 
#
# Total GULP energy -223081.922147 kJ/mol
# GULP energy per Si atom -5577.048054 kJ/mol
# Density = 2.673908 g / cm^3
# Si number density = 26.800073 Si / 1000 Ang^3
#
#
#
# Elastic Constant Matrix: (Units=GPa)
#
#
# Indices 1 2 3 4 5 6 
#
# 1 152.0515 51.1693 27.9254 0.0000 0.0000 7.9786
# 2 51.1693 152.0515 27.9254 0.0000 0.0000 -7.9786
# 3 27.9254 27.9254 45.9701 0.0000 0.0000 0.0000
# 4 0.0000 0.0000 0.0000 20.2372 0.0000 0.0000
# 5 0.0000 0.0000 0.0000 0.0000 20.2372 0.0000
# 6 7.9786 -7.9786 0.0000 0.0000 0.0000 67.4786
#
#
#
# Elastic Compliance Matrix: (Units=1/GPa)
#
#
# Indices 1 2 3 4 5 6 
#
# 1 0.008004 -0.002097 -0.003588 0.000000 0.000000 -0.001194
# 2 -0.002097 0.008004 -0.003588 0.000000 0.000000 0.001194
# 3 -0.003588 -0.003588 0.026113 0.000000 0.000000 0.000000
# 4 0.000000 0.000000 0.000000 0.049414 0.000000 0.000000
# 5 0.000000 0.000000 0.000000 0.000000 0.049414 0.000000
# 6 -0.001194 0.001194 0.000000 0.000000 0.000000 0.015102
#
#
# Mechanical properties :
#
#
# Convention : Reuss Voigt Hill
#
# Bulk Modulus (GPa) = 42.42041 62.67926 52.54983
# Shear Modulus (GPa) = 27.40377 37.79412 32.59895
#
# Velocity S-wave (km/s) = 3.20117 3.75937 3.49144
# Velocity P-wave (km/s) = 5.43379 6.50248 5.99201
#
# Compressibility (1/GPa) = 0.02357356
#
# Stress axis : x y z
#
# Youngs Moduli (GPa) = 124.93442 124.93442 38.29537
#
# Poissons Ratio (x) = 0.26202 0.13741
# Poissons Ratio (y) = 0.26202 0.13741
# Poissons Ratio (z) = 0.44830 0.44830
#
# Static dielectric constant tensor:
#      x y z
#    x 2.218160 0.000000 0.000000 
#    y 0.000000 2.218160 0.000000 
#    z 0.000000 0.000000 2.287440 
# 
# From -- ./inp_files/2142.got.cif
#   From: 2010.05.17/outbox.cif.g08.bks.cpg/sg86_2_cif.got.tgz:2142.got - 2010.06.03 19:03:11.
