data_PCOD9545246
_publ_section_title
;
Structure prediction by ZEFSAII (Michael W. Deem and Ramdas Pophale) SiO2 
 PCOD9545246
Probable space group: P 42/N
;
_chemical_formula_sum "Si O2"
_cell_formula_units_Z 42
_cell_length_a 15.094584
_cell_length_b 15.094584
_cell_length_c 8.685771
_cell_angle_alpha 90.000000
_cell_angle_beta 90.000000
_cell_angle_gamma 90.000000
_cell_volume 1979.022228
_symmetry_space_group_name_H-M "P 42/N"
_symmetry_group_IT_number 86
_space_group.IT_coordinate_system_code '2'
_symmetry_cell_setting 'tetragonal'
loop_
_space_group_symop_operation_xyz
x,y,z
-y,1/2+x,1/2+z
1/2-x,1/2-y,z
1/2+y,-x,1/2+z
-x,-y,-z
y,1/2-x,1/2-z
1/2+x,1/2+y,-z
1/2-y,x,1/2-z
loop_
_atom_site_type_symbol
_atom_site_label
_atom_site_fract_x
_atom_site_fract_y
_atom_site_fract_z
Si Si1 0.972345 0.053148 0.706760
Si Si2 0.657749 0.289884 0.254140
Si Si3 0.250000 0.250000 0.750000
Si Si4 0.640797 0.417346 0.982480
Si Si5 0.143306 0.966791 0.576124
Si Si6 0.247774 0.447380 0.816156
O O1 0.942627 0.054603 0.881851
O O2 0.887951 0.030970 0.599170
O O3 0.010189 0.150796 0.666467
O O4 0.050877 0.986619 0.665137
O O5 0.750000 0.250000 0.198236
O O6 0.612081 0.214268 0.355818
O O7 0.674525 0.370135 0.373110
O O8 0.618243 0.338796 0.103627
O O9 0.249159 0.342600 0.842759
O O10 0.685778 0.497210 0.076790
O O11 0.215415 0.034469 0.642965
#
# Coordination Sequence:
#
# PCOD9545246 Si02
#       6
#     8   8   2   8   8   8
#     4  11  23  43  68  99 134 179 222 282 328 406
#     4  11  23  38  61 102 141 170 215 274 336 408
#     4  12  24  48  72  90 132 176 240 266 328 408
#     4  11  24  39  67 102 138 174 221 273 346 398
#     4  10  23  43  67  95 135 173 226 272 340 390
#     4  11  23  43  70  98 128 181 222 279 333 403
#
# _framework density 21.222601999999998
#
# number of rings (size 3 to 8) (size 9 to 14) (size 15 to 20)
#    0.000    1.143    3.810    2.857    5.333    3.048 
#    0.000    0.000    0.000    1.143    0.000    0.000 
#    0.000    0.000    0.000    0.000    0.000    0.000 
#
# Total GULP energy -234625.225505 kJ/mol
# GULP energy per Si atom -5586.314893 kJ/mol
# Density = 2.117430 g / cm^3
# Si number density = 21.222602 Si / 1000 Ang^3
#
#
#
# Elastic Constant Matrix: (Units=GPa)
#
#
# Indices 1 2 3 4 5 6 
#
# 1 59.6701 -9.0251 24.4496 0.0000 0.0000 1.6358
# 2 -9.0251 59.6701 24.4496 0.0000 0.0000 -1.6358
# 3 24.4496 24.4496 99.5867 0.0000 0.0000 0.0000
# 4 0.0000 0.0000 0.0000 32.9522 0.0000 0.0000
# 5 0.0000 0.0000 0.0000 0.0000 32.9522 0.0000
# 6 1.6358 -1.6358 0.0000 0.0000 0.0000 22.3970
#
#
#
# Elastic Compliance Matrix: (Units=1/GPa)
#
#
# Indices 1 2 3 4 5 6 
#
# 1 0.020244 0.005636 -0.006354 0.000000 0.000000 -0.001067
# 2 0.005636 0.020244 -0.006354 0.000000 0.000000 0.001067
# 3 -0.006354 -0.006354 0.013161 0.000000 0.000000 0.000000
# 4 0.000000 0.000000 0.000000 0.030347 0.000000 0.000000
# 5 0.000000 0.000000 0.000000 0.000000 0.030347 0.000000
# 6 -0.001067 0.001067 0.000000 0.000000 0.000000 0.044805
#
#
# Mechanical properties :
#
#
# Convention : Reuss Voigt Hill
#
# Bulk Modulus (GPa) = 25.31244 33.18611 29.24927
# Shear Modulus (GPa) = 26.81540 29.59711 28.20626
#
# Velocity S-wave (km/s) = 3.55847 3.73849 3.64959
# Velocity P-wave (km/s) = 5.36998 5.85715 5.61884
#
# Compressibility (1/GPa) = 0.03950627
#
# Stress axis : x y z
#
# Youngs Moduli (GPa) = 49.39731 49.39731 75.97982
#
# Poissons Ratio (x) = -0.27841 0.48277
# Poissons Ratio (y) = -0.27841 0.48277
# Poissons Ratio (z) = 0.31386 0.31386
#
# Static dielectric constant tensor:
#      x y z
#    x 1.773520 0.000000 0.000000 
#    y 0.000000 1.773520 0.000000 
#    z 0.000000 0.000000 1.807140 
# 
# From -- ./inp_files/1155.got.cif
#   From: 2010.05.17/outbox.cif.g08.bks.cpg/sg86_1_cif.got.tgz:1155.got - 2010.06.03 19:03:11.
