data_PCOD9545324
_publ_section_title
;
Structure prediction by ZEFSAII (Michael W. Deem and Ramdas Pophale) SiO2 
 PCOD9545324
Probable space group: P 42/N
;
_chemical_formula_sum "Si O2"
_cell_formula_units_Z 48
_cell_length_a 8.345943
_cell_length_b 8.345943
_cell_length_c 29.984057
_cell_angle_alpha 90.000000
_cell_angle_beta 90.000000
_cell_angle_gamma 90.000000
_cell_volume 2088.532431
_symmetry_space_group_name_H-M "P 42/N"
_symmetry_group_IT_number 86
_space_group.IT_coordinate_system_code '2'
_symmetry_cell_setting 'tetragonal'
loop_
_space_group_symop_operation_xyz
x,y,z
-y,1/2+x,1/2+z
1/2-x,1/2-y,z
1/2+y,-x,1/2+z
-x,-y,-z
y,1/2-x,1/2-z
1/2+x,1/2+y,-z
1/2-y,x,1/2-z
loop_
_atom_site_type_symbol
_atom_site_label
_atom_site_fract_x
_atom_site_fract_y
_atom_site_fract_z
Si Si1 0.543894 0.642526 0.466249
Si Si2 0.750000 0.750000 0.107454
Si Si3 0.576160 0.298677 0.350362
Si Si4 0.530331 0.065738 0.660227
Si Si5 0.506312 0.633653 0.746562
Si Si6 0.032889 0.674411 0.899312
Si Si7 0.750000 0.750000 0.536448
O O1 0.500000 0.500000 0.500000
O O2 0.683286 0.621211 0.428906
O O3 0.399646 0.664919 0.432378
O O4 0.601964 0.769754 0.502255
O O5 0.668264 0.612392 0.137665
O O6 0.750000 0.250000 0.368934
O O7 0.587993 0.366454 0.299941
O O8 0.467412 0.427042 0.376204
O O9 0.492756 0.125810 0.346148
O O10 0.551353 0.088511 0.713076
O O11 0.699502 0.090998 0.636357
O O12 0.548569 0.819330 0.758740
O O13 0.903202 0.750812 0.932500
#
# Coordination Sequence:
#
# PCOD9545324 Si02
#       7
#     8   4   8   8   8   8   4
#     4   9  21  41  66  89 134 167 220 277 334 410
#     4  11  24  44  60  94 136 175 218 273 344 403
#     4  11  21  37  64  99 131 166 220 282 337 397
#     4  11  22  40  66  95 133 175 221 276 331 413
#     4   9  18  37  65  98 126 163 218 277 333 402
#     4  11  19  39  70  95 123 171 223 274 338 402
#     4   9  18  38  66  96 132 158 216 282 340 401
#
# _framework density 22.982647
#
# number of rings (size 3 to 8) (size 9 to 14) (size 15 to 20)
#    0.000    1.833    3.333    1.000    0.000    0.667 
#    3.000   10.833   14.667    2.000    0.000    0.000 
#    0.000    0.000    0.000    0.000    0.000    0.000 
#
# Total GULP energy -267559.129028 kJ/mol
# GULP energy per Si atom -5574.148521 kJ/mol
# Density = 2.293034 g / cm^3
# Si number density = 22.982647 Si / 1000 Ang^3
#
#
#
# Elastic Constant Matrix: (Units=GPa)
#
#
# Indices 1 2 3 4 5 6 
#
# 1 82.3890 33.6536 65.1012 0.0000 0.0000 -9.1899
# 2 33.6536 82.3890 65.1012 0.0000 0.0000 9.1899
# 3 65.1012 65.1012 171.7140 0.0000 0.0000 0.0000
# 4 0.0000 0.0000 0.0000 -224.6089 0.0000 0.0000
# 5 0.0000 0.0000 0.0000 0.0000 -224.6089 0.0000
# 6 -9.1899 9.1899 0.0000 0.0000 0.0000 37.4663
#
#
#
# Elastic Compliance Matrix: (Units=1/GPa)
#
#
# Indices 1 2 3 4 5 6 
#
# 1 0.018804 -0.003807 -0.005686 0.000000 0.000000 0.005546
# 2 -0.003807 0.018804 -0.005686 0.000000 0.000000 -0.005546
# 3 -0.005686 -0.005686 0.010135 0.000000 0.000000 0.000000
# 4 0.000000 0.000000 0.000000 -0.004452 0.000000 0.000000
# 5 0.000000 0.000000 0.000000 0.000000 -0.004452 0.000000
# 6 0.005546 -0.005546 0.000000 0.000000 0.000000 0.029411
#
#
# Mechanical properties :
#
#
# Convention : Reuss Voigt Hill
#
# Bulk Modulus (GPa) = 57.51766 73.80044 65.65905
# Shear Modulus (GPa) = 47.89200 -70.84124 -11.47462
#
# Velocity S-wave (km/s) = 4.56985 -5.55794 -2.23687
# Velocity P-wave (km/s) = 7.27500 3.00109 4.68610
#
# Compressibility (1/GPa) = 0.01738597
#
# Stress axis : x y z
#
# Youngs Moduli (GPa) = 53.18059 53.18059 98.66896
#
# Poissons Ratio (x) = 0.20244 0.56101
# Poissons Ratio (y) = 0.20244 0.56101
# Poissons Ratio (z) = 0.30237 0.30237
#
# Static dielectric constant tensor:
#      x y z
#    x 1.983120 0.000000 0.000000 
#    y 0.000000 1.983120 0.000000 
#    z 0.000000 0.000000 1.831710 
# 
# From -- ./inp_files/5232.got.cif
#   From: 2010.05.17/outbox.cif.g08.bks.cpg/sg86_3_cif.got.tgz:5232.got - 2010.06.03 19:03:11.
