data_PCOD9545716
_publ_section_title
;
Structure prediction by ZEFSAII (Michael W. Deem and Ramdas Pophale) SiO2 
 PCOD9545716
Probable space group: I 4/M
;
_chemical_formula_sum "Si O2"
_cell_formula_units_Z 104
_cell_length_a 16.559108
_cell_length_b 16.559108
_cell_length_c 16.931159
_cell_angle_alpha 90.000000
_cell_angle_beta 90.000000
_cell_angle_gamma 90.000000
_cell_volume 4642.592500
_symmetry_space_group_name_H-M "I 4/M"
_symmetry_group_IT_number 87
_symmetry_cell_setting 'tetragonal'
loop_
_space_group_symop_operation_xyz
x,y,z
-y,x,z
-x,-y,z
y,-x,z
-x,-y,-z
y,-x,-z
x,y,-z
-y,x,-z
1/2+x,1/2+y,1/2+z
1/2-y,1/2+x,1/2+z
1/2-x,1/2-y,1/2+z
1/2+y,1/2-x,1/2+z
1/2-x,1/2-y,1/2-z
1/2+y,1/2-x,1/2-z
1/2+x,1/2+y,1/2-z
1/2-y,1/2+x,1/2-z
loop_
_atom_site_type_symbol
_atom_site_label
_atom_site_fract_x
_atom_site_fract_y
_atom_site_fract_z
Si Si1 0.586863 0.396800 0.500000
Si Si2 0.377982 0.996319 0.785726
Si Si3 0.955687 0.220236 0.710202
Si Si4 0.656309 0.307086 0.347574
Si Si5 0.073303 0.214762 0.588183
Si Si6 0.764859 0.676200 0.092528
Si Si7 0.387718 0.867336 0.408971
O O1 0.609977 0.490496 0.500000
O O2 0.620631 0.355751 0.421123
O O3 0.419096 0.071098 0.738244
O O4 0.284101 0.994590 0.763770
O O5 0.392381 0.026050 0.874893
O O6 0.891662 0.174618 0.766787
O O7 0.903936 0.267873 0.644012
O O8 0.020934 0.174202 0.656585
O O9 0.752899 0.309728 0.358524
O O10 0.636513 0.212653 0.361388
O O11 0.042772 0.195942 0.500000
O O12 0.168304 0.194695 0.590306
O O13 0.072006 0.312597 0.599429
O O14 0.790903 0.673207 0.000000
O O15 0.392363 0.845142 0.500000
#
# Coordination Sequence:
#
# PCOD9545716 Si02
#       7
#     8  16  16  16  16  16  16
#     4  11  24  44  64  84 114 158 204 257 310 352
#     4  10  20  35  49  76 121 154 184 236 294 348
#     4  11  21  34  60  91 113 152 202 237 290 355
#     4  10  20  39  57  84 115 149 194 248 296 347
#     4   9  18  34  56  82 117 152 188 235 290 352
#     4  10  20  38  61  86 122 155 193 245 296 346
#     4   9  16  33  57  72 106 156 191 225 291 350
#
# _framework density 22.401274999999998
#
# number of rings (size 3 to 8) (size 9 to 14) (size 15 to 20)
#    0.000    2.077    3.077    1.846    0.000    1.231 
#    5.538    3.077    0.000    0.462    0.000    2.154 
#    0.000    0.000    0.000    0.000    0.000    0.000 
#
# Total GULP energy -290069.193266 kJ/mol
# GULP energy per Si atom -5578.253717 kJ/mol
# Density = 2.235029 g / cm^3
# Si number density = 22.401275 Si / 1000 Ang^3
#
#
#
# Elastic Constant Matrix: (Units=GPa)
#
#
# Indices 1 2 3 4 5 6 
#
# 1 192.5532 -137.9292 18.0493 0.0000 0.0000 -20.0904
# 2 -137.9292 192.5532 18.0493 0.0000 0.0000 20.0904
# 3 18.0493 18.0493 96.4138 0.0000 0.0000 0.0000
# 4 0.0000 0.0000 0.0000 28.4723 0.0000 0.0000
# 5 0.0000 0.0000 0.0000 0.0000 28.4723 0.0000
# 6 -20.0904 20.0904 0.0000 0.0000 0.0000 18.7493
#
#
#
# Elastic Compliance Matrix: (Units=1/GPa)
#
#
# Indices 1 2 3 4 5 6 
#
# 1 0.012185 0.008706 -0.003911 0.000000 0.000000 0.003728
# 2 0.008706 0.012185 -0.003911 0.000000 0.000000 -0.003728
# 3 -0.003911 -0.003911 0.011836 0.000000 0.000000 0.000000
# 4 0.000000 0.000000 0.000000 0.035122 0.000000 0.000000
# 5 0.000000 0.000000 0.000000 0.000000 0.035122 0.000000
# 6 0.003728 -0.003728 0.000000 0.000000 0.000000 0.061325
#
#
# Mechanical properties :
#
#
# Convention : Reuss Voigt Hill
#
# Bulk Modulus (GPa) = 26.33288 30.87322 28.60305
# Shear Modulus (GPa) = 27.98521 54.02881 41.00701
#
# Velocity S-wave (km/s) = 3.53833 4.91640 4.28315
# Velocity P-wave (km/s) = 5.33607 6.78526 6.10383
#
# Compressibility (1/GPa) = 0.03797534
#
# Stress axis : x y z
#
# Youngs Moduli (GPa) = 82.06561 82.06561 84.48585
#
# Poissons Ratio (x) = -0.71448 0.33043
# Poissons Ratio (y) = -0.71448 0.33043
# Poissons Ratio (z) = 0.32096 0.32096
#
# Static dielectric constant tensor:
#      x y z
#    x 1.851950 0.000000 0.000000 
#    y 0.000000 1.851950 0.000000 
#    z 0.000000 0.000000 1.866100 
# 
# From -- ./inp_files/4540.got.cif
#   From: 2010.05.17/outbox.cif.g08.bks.cpg/sg87_3_cif.got.tgz:4540.got - 2010.06.03 19:07:00.
