data_PCOD9545842
_publ_section_title
;
Structure prediction by ZEFSAII (Michael W. Deem and Ramdas Pophale) SiO2 
 PCOD9545842
Probable space group: I 4/M
;
_chemical_formula_sum "Si O2"
_cell_formula_units_Z 96
_cell_length_a 24.169041
_cell_length_b 24.169041
_cell_length_c 8.946432
_cell_angle_alpha 90.000000
_cell_angle_beta 90.000000
_cell_angle_gamma 90.000000
_cell_volume 5225.991538
_symmetry_space_group_name_H-M "I 4/M"
_symmetry_group_IT_number 87
_symmetry_cell_setting 'tetragonal'
loop_
_space_group_symop_operation_xyz
x,y,z
-y,x,z
-x,-y,z
y,-x,z
-x,-y,-z
y,-x,-z
x,y,-z
-y,x,-z
1/2+x,1/2+y,1/2+z
1/2-y,1/2+x,1/2+z
1/2-x,1/2-y,1/2+z
1/2+y,1/2-x,1/2+z
1/2-x,1/2-y,1/2-z
1/2+y,1/2-x,1/2-z
1/2+x,1/2+y,1/2-z
1/2-y,1/2+x,1/2-z
loop_
_atom_site_type_symbol
_atom_site_label
_atom_site_fract_x
_atom_site_fract_y
_atom_site_fract_z
Si Si1 0.426390 0.556152 0.335155
Si Si2 0.355637 0.366870 0.172868
Si Si3 0.646508 0.071826 0.177993
Si Si4 0.424570 0.266524 0.179818
Si Si5 0.146418 0.445539 0.323662
Si Si6 0.456856 0.722526 0.323506
O O1 0.425765 0.490299 0.329669
O O2 0.404149 0.573119 0.500000
O O3 0.396350 0.585391 0.199995
O O4 0.372081 0.304951 0.223323
O O5 0.313395 0.405942 0.261531
O O6 0.339507 0.366034 0.000000
O O7 0.704537 0.082926 0.259949
O O8 0.599578 0.113870 0.229587
O O9 0.629538 0.008505 0.213922
O O10 0.655734 0.074250 0.000000
O O11 0.483478 0.287621 0.246324
O O12 0.428330 0.267290 0.000000
O O13 0.135934 0.436158 0.500000
O O14 0.212571 0.443550 0.300382
O O15 0.463348 0.712457 0.500000
#
# Coordination Sequence:
#
# PCOD9545842 Si02
#       6
#    16  16  16  16  16  16
#     4   9  18  31  46  66  94 130 172 221 277 329
#     4  11  22  33  49  75 103 138 184 227 273 325
#     4  10  21  37  60  88 114 145 182 217 263 323
#     4  10  21  37  56  79 111 147 183 229 279 325
#     4   9  20  38  58  84 115 143 175 217 266 320
#     4  10  21  37  57  80 108 145 187 229 275 327
#
# _framework density 18.369720000000001
#
# number of rings (size 3 to 8) (size 9 to 14) (size 15 to 20)
#    0.000    2.167    0.000    4.500    0.000   10.333 
#    0.000    3.333    0.000    0.000    0.000    0.000 
#    0.000    0.000    0.000    0.000    0.000    0.000 
#
# Total GULP energy -267781.340420 kJ/mol
# GULP energy per Si atom -5578.777925 kJ/mol
# Density = 1.832791 g / cm^3
# Si number density = 18.369720 Si / 1000 Ang^3
#
#
#
# Elastic Constant Matrix: (Units=GPa)
#
#
# Indices 1 2 3 4 5 6 
#
# 1 63.9828 46.1376 37.9409 0.0000 0.0000 -0.1066
# 2 46.1376 63.9828 37.9409 0.0000 0.0000 0.1066
# 3 37.9409 37.9409 58.9310 0.0000 0.0000 0.0000
# 4 0.0000 0.0000 0.0000 30.4026 0.0000 0.0000
# 5 0.0000 0.0000 0.0000 0.0000 30.4026 0.0000
# 6 -0.1066 0.1066 0.0000 0.0000 0.0000 32.8878
#
#
#
# Elastic Compliance Matrix: (Units=1/GPa)
#
#
# Indices 1 2 3 4 5 6 
#
# 1 0.036181 -0.019859 -0.010509 0.000000 0.000000 0.000182
# 2 -0.019859 0.036181 -0.010509 0.000000 0.000000 -0.000182
# 3 -0.010509 -0.010509 0.030500 0.000000 0.000000 0.000000
# 4 0.000000 0.000000 0.000000 0.032892 0.000000 0.000000
# 5 0.000000 0.000000 0.000000 0.000000 0.032892 0.000000
# 6 0.000182 -0.000182 0.000000 0.000000 0.000000 0.030408
#
#
# Mechanical properties :
#
#
# Convention : Reuss Voigt Hill
#
# Bulk Modulus (GPa) = 47.36995 47.88170 47.62583
# Shear Modulus (GPa) = 17.37061 23.06373 20.21717
#
# Velocity S-wave (km/s) = 3.07842 3.54719 3.32108
# Velocity P-wave (km/s) = 6.20310 6.54972 6.37877
#
# Compressibility (1/GPa) = 0.02111043
#
# Stress axis : x y z
#
# Youngs Moduli (GPa) = 27.63878 27.63878 32.78667
#
# Poissons Ratio (x) = 0.54887 0.34454
# Poissons Ratio (y) = 0.54887 0.34454
# Poissons Ratio (z) = 0.29044 0.29044
#
# Static dielectric constant tensor:
#      x y z
#    x 1.635730 0.000000 0.000000 
#    y 0.000000 1.635730 0.000000 
#    z 0.000000 0.000000 1.629980 
# 
# From -- ./inp_files/1331.got.cif
#   From: 2010.05.17/outbox.cif.g08.bks.cpg/sg87_1_cif.got.tgz:1331.got - 2010.06.03 19:07:00.
