data_PCOD9545343
_publ_section_title
;
Structure prediction by ZEFSAII (Michael W. Deem and Ramdas Pophale) SiO2 
 PCOD9545343
Probable space group: P 42/N
;
_chemical_formula_sum "Si O2"
_cell_formula_units_Z 48
_cell_length_a 8.491233
_cell_length_b 8.491233
_cell_length_c 29.138177
_cell_angle_alpha 90.000000
_cell_angle_beta 90.000000
_cell_angle_gamma 90.000000
_cell_volume 2100.892803
_symmetry_space_group_name_H-M "P 42/N"
_symmetry_group_IT_number 86
_space_group.IT_coordinate_system_code '2'
_symmetry_cell_setting 'tetragonal'
loop_
_space_group_symop_operation_xyz
x,y,z
-y,1/2+x,1/2+z
1/2-x,1/2-y,z
1/2+y,-x,1/2+z
-x,-y,-z
y,1/2-x,1/2-z
1/2+x,1/2+y,-z
1/2-y,x,1/2-z
loop_
_atom_site_type_symbol
_atom_site_label
_atom_site_fract_x
_atom_site_fract_y
_atom_site_fract_z
Si Si1 0.925503 0.692779 0.907264
Si Si2 0.026505 0.068486 0.650542
Si Si3 0.315110 0.934777 0.501132
Si Si4 0.433878 0.714872 0.104804
Si Si5 0.435969 0.932968 0.348452
Si Si6 0.431318 0.445214 0.750050
O O1 0.750000 0.750000 0.901276
O O2 0.954840 0.514212 0.892634
O O3 0.983141 0.733445 0.957767
O O4 0.037709 0.761031 0.866762
O O5 0.994792 0.003748 0.701560
O O6 0.981281 0.250496 0.646519
O O7 0.214377 0.051324 0.643006
O O8 0.250000 0.750000 0.497361
O O9 0.261118 0.982179 0.551969
O O10 0.500000 0.000000 0.500000
O O11 0.250000 0.750000 0.112122
O O12 0.460498 0.530121 0.115393
O O13 0.466644 0.982807 0.296153
O O14 0.464087 0.258140 0.752960
#
# Coordination Sequence:
#
# PCOD9545343 Si02
#       6
#     8   8   8   8   8   8
#     4  12  27  46  66  97 145 177 229 293 359 422
#     4  11  23  41  67 101 130 184 233 290 347 416
#     4  11  25  47  75 103 140 187 236 290 359 437
#     4  11  23  41  69 100 139 176 228 287 353 414
#     4  11  21  43  67  94 135 180 231 288 340 427
#     4   9  18  37  65  98 128 171 233 285 332 409
#
# _framework density 22.847429000000002
#
# number of rings (size 3 to 8) (size 9 to 14) (size 15 to 20)
#    0.000    1.167    3.333    3.000    2.333    2.000 
#    6.000    0.000    0.000    0.000    0.000    0.000 
#    0.000    0.000    0.000    0.000    0.000    0.000 
#
# Total GULP energy -267453.667800 kJ/mol
# GULP energy per Si atom -5571.951413 kJ/mol
# Density = 2.279543 g / cm^3
# Si number density = 22.847429 Si / 1000 Ang^3
#
#
#
# Elastic Constant Matrix: (Units=GPa)
#
#
# Indices 1 2 3 4 5 6 
#
# 1 34.1340 25.5306 39.0851 0.0000 0.0000 1.3515
# 2 25.5306 34.1340 39.0851 0.0000 0.0000 -1.3515
# 3 39.0851 39.0851 196.9727 0.0000 0.0000 0.0000
# 4 0.0000 0.0000 0.0000 36.5502 0.0000 0.0000
# 5 0.0000 0.0000 0.0000 0.0000 36.5502 0.0000
# 6 1.3515 -1.3515 0.0000 0.0000 0.0000 48.1781
#
#
#
# Elastic Compliance Matrix: (Units=1/GPa)
#
#
# Indices 1 2 3 4 5 6 
#
# 1 0.069957 -0.047309 -0.004494 0.000000 0.000000 -0.003289
# 2 -0.047309 0.069957 -0.004494 0.000000 0.000000 0.003289
# 3 -0.004494 -0.004494 0.006860 0.000000 0.000000 0.000000
# 4 0.000000 0.000000 0.000000 0.027360 0.000000 0.000000
# 5 0.000000 0.000000 0.000000 0.000000 0.027360 0.000000
# 6 -0.003289 0.003289 0.000000 0.000000 0.000000 0.020941
#
#
# Mechanical properties :
#
#
# Convention : Reuss Voigt Hill
#
# Bulk Modulus (GPa) = 29.25625 52.51577 40.88601
# Shear Modulus (GPa) = 14.43322 35.02506 24.72914
#
# Velocity S-wave (km/s) = 2.51613 3.91960 3.29349
# Velocity P-wave (km/s) = 4.61238 6.59694 5.69183
#
# Compressibility (1/GPa) = 0.03418073
#
# Stress axis : x y z
#
# Youngs Moduli (GPa) = 14.29442 14.29442 145.76494
#
# Poissons Ratio (x) = 0.67625 0.65508
# Poissons Ratio (y) = 0.67625 0.65508
# Poissons Ratio (z) = 0.06424 0.06424
#
# Static dielectric constant tensor:
#      x y z
#    x 1.851290 0.000000 0.000000 
#    y 0.000000 1.851290 0.000000 
#    z 0.000000 0.000000 1.800010 
# 
# From -- ./inp_files/5205.got.cif
#   From: 2010.05.17/outbox.cif.g08.bks.cpg/sg86_3_cif.got.tgz:5205.got - 2010.06.03 19:03:11.
