data_PCOD9545101
_publ_section_title
;
Structure prediction by ZEFSAII (Michael W. Deem and Ramdas Pophale) SiO2 
 PCOD9545101
Probable space group: P 42/N
;
_chemical_formula_sum "Si O2"
_cell_formula_units_Z 36
_cell_length_a 10.729685
_cell_length_b 10.729685
_cell_length_c 14.925648
_cell_angle_alpha 90.000000
_cell_angle_beta 90.000000
_cell_angle_gamma 90.000000
_cell_volume 1718.332244
_symmetry_space_group_name_H-M "P 42/N"
_symmetry_group_IT_number 86
_space_group.IT_coordinate_system_code '2'
_symmetry_cell_setting 'tetragonal'
loop_
_space_group_symop_operation_xyz
x,y,z
-y,1/2+x,1/2+z
1/2-x,1/2-y,z
1/2+y,-x,1/2+z
-x,-y,-z
y,1/2-x,1/2-z
1/2+x,1/2+y,-z
1/2-y,x,1/2-z
loop_
_atom_site_type_symbol
_atom_site_label
_atom_site_fract_x
_atom_site_fract_y
_atom_site_fract_z
Si Si1 0.608374 0.709291 0.088705
Si Si2 0.391626 0.209291 0.411295
Si Si3 0.076484 0.576484 0.109355
Si Si4 0.940295 0.440295 0.269677
Si Si5 0.250000 0.750000 0.226054
O O1 0.750000 0.750000 0.114154
O O2 0.522867 0.829766 0.064715
O O3 0.538419 0.633881 0.167391
O O4 0.626032 0.626032 0.000000
O O5 0.250000 0.250000 0.385846
O O6 0.477133 0.329766 0.435285
O O7 0.461581 0.133881 0.332609
O O8 0.168368 0.668368 0.160341
O O9 0.005835 0.505835 0.188124
O O10 0.842879 0.342879 0.225779
#
# Coordination Sequence:
#
# PCOD9545101 Si02
#       5
#     8   8   8   8   4
#     4  10  23  40  61  90 127 165 207 256 319 375
#     4  10  23  40  61  90 127 165 207 256 319 375
#     4  10  22  38  63  90 123 161 215 259 300 376
#     4  10  21  38  66  89 123 159 213 258 316 356
#     4   8  20  38  54  92 114 154 196 264 302 358
#
# _framework density 20.950547
#
# number of rings (size 3 to 8) (size 9 to 14) (size 15 to 20)
#    0.000    2.222    0.000    0.667   12.444    3.556 
#    0.000    2.222    0.000    0.000    0.000    0.000 
#    0.000    0.000    0.000    0.000    0.000    0.000 
#
# Total GULP energy -200729.511207 kJ/mol
# GULP energy per Si atom -5575.819756 kJ/mol
# Density = 2.090286 g / cm^3
# Si number density = 20.950547 Si / 1000 Ang^3
#
#
#
# Elastic Constant Matrix: (Units=GPa)
#
#
# Indices 1 2 3 4 5 6 
#
# 1 112.7445 58.1081 15.9000 0.0000 0.0000 0.0000
# 2 58.1081 112.7445 15.9000 0.0000 0.0000 0.0000
# 3 15.9000 15.9000 45.2418 0.0000 0.0000 0.0000
# 4 0.0000 0.0000 0.0000 49.9041 0.0000 0.0000
# 5 0.0000 0.0000 0.0000 0.0000 49.9041 0.0000
# 6 0.0000 0.0000 0.0000 0.0000 0.0000 73.8896
#
#
#
# Elastic Compliance Matrix: (Units=1/GPa)
#
#
# Indices 1 2 3 4 5 6 
#
# 1 0.012283 -0.006020 -0.002201 0.000000 0.000000 0.000000
# 2 -0.006020 0.012283 -0.002201 0.000000 0.000000 0.000000
# 3 -0.002201 -0.002201 0.023651 0.000000 0.000000 0.000000
# 4 0.000000 0.000000 0.000000 0.020038 0.000000 0.000000
# 5 0.000000 0.000000 0.000000 0.000000 0.020038 0.000000
# 6 0.000000 0.000000 0.000000 0.000000 0.000000 0.013534
#
#
# Mechanical properties :
#
#
# Convention : Reuss Voigt Hill
#
# Bulk Modulus (GPa) = 36.53383 50.06078 43.29730
# Shear Modulus (GPa) = 37.93782 46.79439 42.36610
#
# Velocity S-wave (km/s) = 4.26000 4.73119 4.50176
# Velocity P-wave (km/s) = 6.45544 7.33431 6.90887
#
# Compressibility (1/GPa) = 0.02737189
#
# Stress axis : x y z
#
# Youngs Moduli (GPa) = 81.41515 81.41515 42.28240
#
# Poissons Ratio (x) = 0.49012 0.09306
# Poissons Ratio (y) = 0.49012 0.09306
# Poissons Ratio (z) = 0.17919 0.17919
#
# Static dielectric constant tensor:
#      x y z
#    x 1.784730 0.000000 0.000000 
#    y 0.000000 1.784730 0.000000 
#    z 0.000000 0.000000 1.717530 
# 
# From -- ./inp_files/2814.got.cif
#   From: 2010.05.17/outbox.cif.g08.bks.cpg/sg86_2_cif.got.tgz:2814.got - 2010.06.03 19:03:11.
