data_PCOD9545153
_publ_section_title
;
Structure prediction by ZEFSAII (Michael W. Deem and Ramdas Pophale) SiO2 
 PCOD9545153
Probable space group: P 42/N
;
_chemical_formula_sum "Si O2"
_cell_formula_units_Z 48
_cell_length_a 9.226839
_cell_length_b 9.226839
_cell_length_c 28.661712
_cell_angle_alpha 90.000000
_cell_angle_beta 90.000000
_cell_angle_gamma 90.000000
_cell_volume 2440.102181
_symmetry_space_group_name_H-M "P 42/N"
_symmetry_group_IT_number 86
_space_group.IT_coordinate_system_code '2'
_symmetry_cell_setting 'tetragonal'
loop_
_space_group_symop_operation_xyz
x,y,z
-y,1/2+x,1/2+z
1/2-x,1/2-y,z
1/2+y,-x,1/2+z
-x,-y,-z
y,1/2-x,1/2-z
1/2+x,1/2+y,-z
1/2-y,x,1/2-z
loop_
_atom_site_type_symbol
_atom_site_label
_atom_site_fract_x
_atom_site_fract_y
_atom_site_fract_z
Si Si1 0.886528 0.822221 0.451269
Si Si2 0.396771 0.388233 0.861727
Si Si3 0.610116 0.477644 0.310422
Si Si4 0.273414 0.574888 0.123050
Si Si5 0.347844 0.890100 0.032489
Si Si6 0.416105 0.739441 0.286327
O O1 0.750000 0.750000 0.476967
O O2 0.902784 0.715032 0.405957
O O3 0.026068 0.837459 0.483903
O O4 0.848565 0.993377 0.447208
O O5 0.430844 0.223234 0.843360
O O6 0.556962 0.449915 0.871819
O O7 0.334658 0.480064 0.819006
O O8 0.539595 0.340061 0.336360
O O9 0.483806 0.580823 0.291940
O O10 0.705824 0.427083 0.266682
O O11 0.250000 0.750000 0.120915
O O12 0.220179 0.514171 0.073832
O O13 0.250000 0.750000 0.026305
O O14 0.250000 0.750000 0.301629
#
# Coordination Sequence:
#
# PCOD9545153 Si02
#       6
#     8   8   8   8   8   8
#     4  11  22  38  62  91 123 158 213 262 308 384
#     4  11  22  39  64  92 117 158 209 254 308 373
#     4  11  22  40  64  89 121 158 205 257 308 372
#     4   9  19  38  64  88 121 158 202 257 312 369
#     4  10  22  39  59  89 124 164 203 261 323 370
#     4  12  24  38  60  91 122 156 204 255 303 364
#
# _framework density 19.671305
#
# number of rings (size 3 to 8) (size 9 to 14) (size 15 to 20)
#    0.000    1.333    1.667    7.000    0.000    3.333 
#    0.000    4.167    0.000    0.000    0.000    0.000 
#    0.000    0.000    0.000    0.000    0.000    0.000 
#
# Total GULP energy -267405.985398 kJ/mol
# GULP energy per Si atom -5570.958029 kJ/mol
# Density = 1.962653 g / cm^3
# Si number density = 19.671305 Si / 1000 Ang^3
#
#
#
# Elastic Constant Matrix: (Units=GPa)
#
#
# Indices 1 2 3 4 5 6 
#
# 1 101.2707 41.8328 40.8341 0.0000 0.0000 -0.2352
# 2 41.8328 101.2707 40.8341 0.0000 0.0000 0.2352
# 3 40.8341 40.8341 96.9829 0.0000 0.0000 0.0000
# 4 0.0000 0.0000 0.0000 -1.6417 0.0000 0.0000
# 5 0.0000 0.0000 0.0000 0.0000 -1.6417 0.0000
# 6 -0.2352 0.2352 0.0000 0.0000 0.0000 9.1263
#
#
#
# Elastic Compliance Matrix: (Units=1/GPa)
#
#
# Indices 1 2 3 4 5 6 
#
# 1 0.013013 -0.003815 -0.003873 0.000000 0.000000 0.000434
# 2 -0.003815 0.013013 -0.003873 0.000000 0.000000 -0.000434
# 3 -0.003873 -0.003873 0.013572 0.000000 0.000000 0.000000
# 4 0.000000 0.000000 0.000000 -0.609129 0.000000 0.000000
# 5 0.000000 0.000000 0.000000 0.000000 -0.609129 0.000000
# 6 0.000434 -0.000434 0.000000 0.000000 0.000000 0.109596
#
#
# Mechanical properties :
#
#
# Convention : Reuss Voigt Hill
#
# Bulk Modulus (GPa) = 60.68941 60.72516 60.70728
# Shear Modulus (GPa) = -4.80561 12.90346 4.04892
#
# Velocity S-wave (km/s) = -1.56469 2.56394 1.43623
# Velocity P-wave (km/s) = 5.25874 6.30095 5.80329
#
# Compressibility (1/GPa) = 0.01647734
#
# Stress axis : x y z
#
# Youngs Moduli (GPa) = 76.84660 76.84660 73.67909
#
# Poissons Ratio (x) = 0.29315 0.28535
# Poissons Ratio (y) = 0.29315 0.28535
# Poissons Ratio (z) = 0.29761 0.29761
#
# Static dielectric constant tensor:
#      x y z
#    x 1.722830 0.000000 0.000000 
#    y 0.000000 1.722830 0.000000 
#    z 0.000000 0.000000 1.765080 
# 
# From -- ./inp_files/5215.got.cif
#   From: 2010.05.17/outbox.cif.g08.bks.cpg/sg86_3_cif.got.tgz:5215.got - 2010.06.03 19:03:11.
