data_PCOD9545670
_publ_section_title
;
Structure prediction by ZEFSAII (Michael W. Deem and Ramdas Pophale) SiO2 
 PCOD9545670
Probable space group: I 4/M
;
_chemical_formula_sum "Si O2"
_cell_formula_units_Z 120
_cell_length_a 18.599146
_cell_length_b 18.599146
_cell_length_c 18.689277
_cell_angle_alpha 90.000000
_cell_angle_beta 90.000000
_cell_angle_gamma 90.000000
_cell_volume 6465.148549
_symmetry_space_group_name_H-M "I 4/M"
_symmetry_group_IT_number 87
_symmetry_cell_setting 'tetragonal'
loop_
_space_group_symop_operation_xyz
x,y,z
-y,x,z
-x,-y,z
y,-x,z
-x,-y,-z
y,-x,-z
x,y,-z
-y,x,-z
1/2+x,1/2+y,1/2+z
1/2-y,1/2+x,1/2+z
1/2-x,1/2-y,1/2+z
1/2+y,1/2-x,1/2+z
1/2-x,1/2-y,1/2-z
1/2+y,1/2-x,1/2-z
1/2+x,1/2+y,1/2-z
1/2-y,1/2+x,1/2-z
loop_
_atom_site_type_symbol
_atom_site_label
_atom_site_fract_x
_atom_site_fract_y
_atom_site_fract_z
Si Si1 0.518717 0.614842 0.715963
Si Si2 0.541181 0.677048 0.133960
Si Si3 0.330234 0.134540 0.162443
Si Si4 0.013193 0.339745 0.678420
Si Si5 0.779598 0.482173 0.668305
Si Si6 0.148298 0.662192 0.335878
Si Si7 0.881548 0.981797 0.500000
Si Si8 0.300583 0.286274 0.086311
O O1 0.442284 0.580096 0.695141
O O2 0.525756 0.622915 0.801797
O O3 0.526148 0.695595 0.687565
O O4 0.527182 0.756938 0.160200
O O5 0.623798 0.676848 0.108695
O O6 0.485427 0.664224 0.070673
O O7 0.415739 0.120711 0.151844
O O8 0.323074 0.152007 0.248746
O O9 0.306003 0.205193 0.118860
O O10 0.288973 0.062628 0.137895
O O11 0.012138 0.335241 0.764281
O O12 0.934819 0.358619 0.650685
O O13 0.803747 0.405127 0.638130
O O14 0.173215 0.733954 0.376490
O O15 0.923136 0.057728 0.500000
O O16 0.295125 0.285663 0.000000
#
# Coordination Sequence:
#
# PCOD9545670 Si02
#       8
#    16  16  16  16  16  16   8  16
#     4  10  21  33  50  80 117 146 183 233 284 342
#     4  10  20  33  48  70 106 153 184 224 271 325
#     4   9  19  37  58  80 112 151 186 234 291 350
#     4   8  18  33  51  81 111 138 184 226 279 334
#     4   9  19  33  57  83 105 145 186 232 294 341
#     4  10  20  35  57  86 111 143 187 242 291 344
#     4  11  22  30  42  64  98 147 197 217 250 313
#     4  11  23  36  54  84 111 151 199 238 281 338
#
# _framework density 18.561059
#
# number of rings (size 3 to 8) (size 9 to 14) (size 15 to 20)
#    0.000    2.333    0.667    2.000    9.333    1.600 
#    0.000    3.333    0.000    0.000    0.000    2.800 
#    0.000    1.067    0.000    0.000    0.000    0.000 
#
# Total GULP energy -334117.456646 kJ/mol
# GULP energy per Si atom -5568.624277 kJ/mol
# Density = 1.851881 g / cm^3
# Si number density = 18.561059 Si / 1000 Ang^3
#
#
#
# Elastic Constant Matrix: (Units=GPa)
#
#
# Indices 1 2 3 4 5 6 
#
# 1 102.9122 44.7067 22.1883 0.0000 0.0000 -6.0357
# 2 44.7067 102.9122 22.1883 0.0000 0.0000 6.0357
# 3 22.1883 22.1883 31.0906 0.0000 0.0000 0.0000
# 4 0.0000 0.0000 0.0000 12.1300 0.0000 0.0000
# 5 0.0000 0.0000 0.0000 0.0000 12.1300 0.0000
# 6 -6.0357 6.0357 0.0000 0.0000 0.0000 26.2834
#
#
#
# Elastic Compliance Matrix: (Units=1/GPa)
#
#
# Indices 1 2 3 4 5 6 
#
# 1 0.013332 -0.004708 -0.006155 0.000000 0.000000 0.004143
# 2 -0.004708 0.013332 -0.006155 0.000000 0.000000 -0.004143
# 3 -0.006155 -0.006155 0.040949 0.000000 0.000000 0.000000
# 4 0.000000 0.000000 0.000000 0.082440 0.000000 0.000000
# 5 0.000000 0.000000 0.000000 0.000000 0.082440 0.000000
# 6 0.004143 -0.004143 0.000000 0.000000 0.000000 0.039949
#
#
# Mechanical properties :
#
#
# Convention : Reuss Voigt Hill
#
# Bulk Modulus (GPa) = 29.78121 46.12017 37.95069
# Shear Modulus (GPa) = 15.73952 19.96411 17.85182
#
# Velocity S-wave (km/s) = 2.91518 3.28318 3.10464
# Velocity P-wave (km/s) = 5.23554 6.26691 5.77429
#
# Compressibility (1/GPa) = 0.03357822
#
# Stress axis : x y z
#
# Youngs Moduli (GPa) = 75.00707 75.00707 24.42049
#
# Poissons Ratio (x) = 0.35310 0.15031
# Poissons Ratio (y) = 0.35310 0.15031
# Poissons Ratio (z) = 0.46167 0.46167
#
# Static dielectric constant tensor:
#      x y z
#    x 1.663750 0.000000 0.000000 
#    y 0.000000 1.663750 0.000000 
#    z 0.000000 0.000000 1.630770 
# 
# From -- ./inp_files/5517.got.cif
#   From: 2010.05.17/outbox.cif.g08.bks.cpg/sg87_3_cif.got.tgz:5517.got - 2010.06.03 19:07:00.
