data_PCOD9545805
_publ_section_title
;
Structure prediction by ZEFSAII (Michael W. Deem and Ramdas Pophale) SiO2 
 PCOD9545805
Probable space group: I 4/M
;
_chemical_formula_sum "Si O2"
_cell_formula_units_Z 112
_cell_length_a 13.742150
_cell_length_b 13.742150
_cell_length_c 26.393228
_cell_angle_alpha 90.000000
_cell_angle_beta 90.000000
_cell_angle_gamma 90.000000
_cell_volume 4984.273657
_symmetry_space_group_name_H-M "I 4/M"
_symmetry_group_IT_number 87
_symmetry_cell_setting 'tetragonal'
loop_
_space_group_symop_operation_xyz
x,y,z
-y,x,z
-x,-y,z
y,-x,z
-x,-y,-z
y,-x,-z
x,y,-z
-y,x,-z
1/2+x,1/2+y,1/2+z
1/2-y,1/2+x,1/2+z
1/2-x,1/2-y,1/2+z
1/2+y,1/2-x,1/2+z
1/2-x,1/2-y,1/2-z
1/2+y,1/2-x,1/2-z
1/2+x,1/2+y,1/2-z
1/2-y,1/2+x,1/2-z
loop_
_atom_site_type_symbol
_atom_site_label
_atom_site_fract_x
_atom_site_fract_y
_atom_site_fract_z
Si Si1 0.892834 0.638620 0.121762
Si Si2 0.378428 0.090613 0.836176
Si Si3 0.739023 0.527158 0.821820
Si Si4 0.626271 0.047113 0.555779
Si Si5 0.153118 0.968934 0.578383
Si Si6 0.932897 0.852979 0.137645
Si Si7 0.846683 0.198118 0.771586
O O1 0.788218 0.614671 0.145766
O O2 0.904080 0.560567 0.076265
O O3 0.903907 0.752339 0.110262
O O4 0.973971 0.609452 0.164260
O O5 0.455038 0.168200 0.812896
O O6 0.382271 0.104956 0.897055
O O7 0.277039 0.114444 0.811328
O O8 0.669433 0.470565 0.860550
O O9 0.690772 0.575377 0.773480
O O10 0.589047 0.070017 0.500000
O O11 0.742814 0.046321 0.554673
O O12 0.109897 0.073493 0.564431
O O13 0.900642 0.832118 0.196448
O O14 0.045516 0.877563 0.127062
O O15 0.750000 0.250000 0.750000
#
# Coordination Sequence:
#
# PCOD9545805 Si02
#       7
#    16  16  16  16  16  16  16
#     4  10  20  43  62  92 126 167 209 277 340 403
#     4  10  23  40  62  93 132 169 220 273 342 397
#     4  10  23  35  61  89 129 174 224 268 323 398
#     4  10  23  42  71 101 128 163 219 282 349 416
#     4   9  20  39  62  89 131 176 215 265 322 392
#     4  11  24  42  62  88 124 177 231 270 323 394
#     4  12  25  37  62  91 138 180 228 274 329 398
#
# _framework density 22.470675
#
# number of rings (size 3 to 8) (size 9 to 14) (size 15 to 20)
#    0.000    2.000    2.857    1.714    8.000    1.714 
#    0.000    2.143    0.000    0.857    0.000    1.000 
#    0.000    0.000    0.000    0.000    0.000    0.000 
#
# Total GULP energy -312530.911403 kJ/mol
# GULP energy per Si atom -5580.909132 kJ/mol
# Density = 2.241953 g / cm^3
# Si number density = 22.470675 Si / 1000 Ang^3
#
#
#
# Elastic Constant Matrix: (Units=GPa)
#
#
# Indices 1 2 3 4 5 6 
#
# 1 61.9395 -25.2006 2.2844 0.0000 0.0000 2.3316
# 2 -25.2006 61.9395 2.2844 0.0000 0.0000 -2.3316
# 3 2.2844 2.2844 110.1487 0.0000 0.0000 0.0000
# 4 0.0000 0.0000 0.0000 10.3524 0.0000 0.0000
# 5 0.0000 0.0000 0.0000 0.0000 10.3524 0.0000
# 6 2.3316 -2.3316 0.0000 0.0000 0.0000 24.8234
#
#
#
# Elastic Compliance Matrix: (Units=1/GPa)
#
#
# Indices 1 2 3 4 5 6 
#
# 1 0.019412 0.007878 -0.000566 0.000000 0.000000 -0.001083
# 2 0.007878 0.019412 -0.000566 0.000000 0.000000 0.001083
# 3 -0.000566 -0.000566 0.009102 0.000000 0.000000 0.000000
# 4 0.000000 0.000000 0.000000 0.096596 0.000000 0.000000
# 5 0.000000 0.000000 0.000000 0.000000 0.096596 0.000000
# 6 -0.001083 0.001083 0.000000 0.000000 0.000000 0.040488
#
#
# Mechanical properties :
#
#
# Convention : Reuss Voigt Hill
#
# Bulk Modulus (GPa) = 16.28206 21.41823 18.85014
# Shear Modulus (GPa) = 17.32592 26.08296 21.70444
#
# Velocity S-wave (km/s) = 2.77978 3.41068 3.11127
# Velocity P-wave (km/s) = 4.19101 5.00626 4.61667
#
# Compressibility (1/GPa) = 0.06141729
#
# Stress axis : x y z
#
# Youngs Moduli (GPa) = 51.51548 51.51548 109.86458
#
# Poissons Ratio (x) = -0.40583 0.06218
# Poissons Ratio (y) = -0.40583 0.06218
# Poissons Ratio (z) = 0.02916 0.02916
#
# Static dielectric constant tensor:
#      x y z
#    x 1.881950 0.000000 0.000000 
#    y 0.000000 1.881950 0.000000 
#    z 0.000000 0.000000 2.054520 
# 
# From -- ./inp_files/6299.got.cif
#   From: 2010.05.17/outbox.cif.g08.bks.cpg/sg87_4_cif.got.tgz:6299.got - 2010.06.03 19:07:00.
