data_PCOD9545990
_publ_section_title
;
Structure prediction by ZEFSAII (Michael W. Deem and Ramdas Pophale) SiO2 
 PCOD9545990
Probable space group: I 4/M
;
_chemical_formula_sum "Si O2"
_cell_formula_units_Z 72
_cell_length_a 21.217839
_cell_length_b 21.217839
_cell_length_c 7.930572
_cell_angle_alpha 90.000000
_cell_angle_beta 90.000000
_cell_angle_gamma 90.000000
_cell_volume 3570.317279
_symmetry_space_group_name_H-M "I 4/M"
_symmetry_group_IT_number 87
_symmetry_cell_setting 'tetragonal'
loop_
_space_group_symop_operation_xyz
x,y,z
-y,x,z
-x,-y,z
y,-x,z
-x,-y,-z
y,-x,-z
x,y,-z
-y,x,-z
1/2+x,1/2+y,1/2+z
1/2-y,1/2+x,1/2+z
1/2-x,1/2-y,1/2+z
1/2+y,1/2-x,1/2+z
1/2-x,1/2-y,1/2-z
1/2+y,1/2-x,1/2-z
1/2+x,1/2+y,1/2-z
1/2-y,1/2+x,1/2-z
loop_
_atom_site_type_symbol
_atom_site_label
_atom_site_fract_x
_atom_site_fract_y
_atom_site_fract_z
Si Si1 0.093370 0.659566 0.703738
Si Si2 0.529910 0.601557 0.000000
Si Si3 0.684604 0.048575 0.301108
Si Si4 0.775887 0.819070 0.297754
Si Si5 0.081913 0.177731 0.187134
O O1 0.095973 0.655599 0.500000
O O2 0.130605 0.599995 0.774440
O O3 0.130151 0.723259 0.752864
O O4 0.020693 0.663206 0.755075
O O5 0.458940 0.575885 0.000000
O O6 0.544583 0.642220 0.834174
O O7 0.700117 0.045437 0.500000
O O8 0.747759 0.069496 0.206855
O O9 0.784122 0.821451 0.500000
O O10 0.750000 0.750000 0.250000
O O11 0.843423 0.831382 0.215685
O O12 0.063823 0.156634 0.000000
#
# Coordination Sequence:
#
# PCOD9545990 Si02
#       5
#    16   8  16  16  16
#     4  10  24  41  64  94 132 181 229 282 347 412
#     4  11  28  52  74 100 144 185 225 281 343 411
#     4  11  23  42  65  95 137 182 228 286 347 408
#     4  11  21  38  64  98 136 172 223 287 347 401
#     4  12  25  43  72 105 139 177 232 285 341 411
#
# _framework density 20.166276
#
# number of rings (size 3 to 8) (size 9 to 14) (size 15 to 20)
#    0.000    1.000    4.444    1.333    3.111    4.000 
#    0.000    3.333    0.000    0.000    0.000    0.000 
#    0.000    0.000    0.000    0.000    0.000    0.000 
#
# Total GULP energy -201479.808870 kJ/mol
# GULP energy per Si atom -5596.661358 kJ/mol
# Density = 2.012038 g / cm^3
# Si number density = 20.166276 Si / 1000 Ang^3
#
#
#
# Elastic Constant Matrix: (Units=GPa)
#
#
# Indices 1 2 3 4 5 6 
#
# 1 110.1192 54.8905 36.2991 0.0000 0.0000 -14.6034
# 2 54.8905 110.1192 36.2991 0.0000 0.0000 14.6034
# 3 36.2991 36.2991 103.6973 0.0000 0.0000 0.0000
# 4 0.0000 0.0000 0.0000 21.3673 0.0000 0.0000
# 5 0.0000 0.0000 0.0000 0.0000 21.3673 0.0000
# 6 -14.6034 14.6034 0.0000 0.0000 0.0000 15.6643
#
#
#
# Elastic Compliance Matrix: (Units=1/GPa)
#
#
# Indices 1 2 3 4 5 6 
#
# 1 0.021439 -0.014275 -0.002508 0.000000 0.000000 0.033296
# 2 -0.014275 0.021439 -0.002508 0.000000 0.000000 -0.033296
# 3 -0.002508 -0.002508 0.011399 0.000000 0.000000 0.000000
# 4 0.000000 0.000000 0.000000 0.046800 0.000000 0.000000
# 5 0.000000 0.000000 0.000000 0.000000 0.046800 0.000000
# 6 0.033296 -0.033296 0.000000 0.000000 0.000000 0.125921
#
#
# Mechanical properties :
#
#
# Convention : Reuss Voigt Hill
#
# Bulk Modulus (GPa) = 63.71173 64.32366 64.01770
# Shear Modulus (GPa) = 15.74251 24.77628 20.25939
#
# Velocity S-wave (km/s) = 2.79702 3.50894 3.17301
# Velocity P-wave (km/s) = 6.48790 6.95577 6.72591
#
# Compressibility (1/GPa) = 0.01569570
#
# Stress axis : x y z
#
# Youngs Moduli (GPa) = 46.64407 46.64407 87.72711
#
# Poissons Ratio (x) = 0.66587 0.21998
# Poissons Ratio (y) = 0.66587 0.21998
# Poissons Ratio (z) = 0.11696 0.11696
#
# Static dielectric constant tensor:
#      x y z
#    x 1.678210 0.000000 0.000000 
#    y 0.000000 1.678210 0.000000 
#    z 0.000000 0.000000 1.729820 
# 
# From -- ./inp_files/1035.got.cif
#   From: 2010.05.17/outbox.cif.g08.bks.cpg/sg87_1_cif.got.tgz:1035.got - 2010.06.03 19:07:00.
