data_PCOD9545873
_publ_section_title
;
Structure prediction by ZEFSAII (Michael W. Deem and Ramdas Pophale) SiO2 
 PCOD9545873
Probable space group: I 4/M
;
_chemical_formula_sum "Si O2"
_cell_formula_units_Z 96
_cell_length_a 24.033761
_cell_length_b 24.033761
_cell_length_c 8.814785
_cell_angle_alpha 90.000000
_cell_angle_beta 90.000000
_cell_angle_gamma 90.000000
_cell_volume 5091.610813
_symmetry_space_group_name_H-M "I 4/M"
_symmetry_group_IT_number 87
_symmetry_cell_setting 'tetragonal'
loop_
_space_group_symop_operation_xyz
x,y,z
-y,x,z
-x,-y,z
y,-x,z
-x,-y,-z
y,-x,-z
x,y,-z
-y,x,-z
1/2+x,1/2+y,1/2+z
1/2-y,1/2+x,1/2+z
1/2-x,1/2-y,1/2+z
1/2+y,1/2-x,1/2+z
1/2-x,1/2-y,1/2-z
1/2+y,1/2-x,1/2-z
1/2+x,1/2+y,1/2-z
1/2-y,1/2+x,1/2-z
loop_
_atom_site_type_symbol
_atom_site_label
_atom_site_fract_x
_atom_site_fract_y
_atom_site_fract_z
Si Si1 0.571126 0.048225 0.181635
Si Si2 0.228796 0.838643 0.823870
Si Si3 0.851842 0.947914 0.679027
Si Si4 0.635783 0.434791 0.324768
Si Si5 0.635751 0.846208 0.179738
Si Si6 0.739043 0.631068 0.317896
O O1 0.513590 0.073953 0.246905
O O2 0.622264 0.086939 0.232102
O O3 0.568013 0.044005 0.000000
O O4 0.185088 0.889490 0.817958
O O5 0.282390 0.854812 0.727849
O O6 0.191742 0.785618 0.772822
O O7 0.245408 0.830129 0.000000
O O8 0.857546 0.941494 0.500000
O O9 0.903651 0.918328 0.761522
O O10 0.797304 0.915395 0.736348
O O11 0.849750 0.011686 0.727101
O O12 0.628109 0.450906 0.500000
O O13 0.695811 0.873887 0.212620
O O14 0.625264 0.849963 0.000000
O O15 0.729876 0.626966 0.500000
#
# Coordination Sequence:
#
# PCOD9545873 Si02
#       6
#    16  16  16  16  16  16
#     4  11  23  42  64  85 113 146 183 229 281 334
#     4   9  19  36  57  82 113 150 190 233 280 329
#     4  11  22  36  57  85 113 143 188 241 284 327
#     4  10  21  39  59  79 111 153 190 228 283 342
#     4  11  22  36  59  89 117 149 189 228 272 332
#     4   9  20  38  57  80 115 155 189 226 279 337
#
# _framework density 18.854544000000001
#
# number of rings (size 3 to 8) (size 9 to 14) (size 15 to 20)
#    0.000    1.833    0.000    6.000    0.000    6.333 
#    0.000    3.333    0.000    0.000    0.000    0.000 
#    0.000    0.000    0.000    0.000    0.000    0.000 
#
# Total GULP energy -268157.020236 kJ/mol
# GULP energy per Si atom -5586.604588 kJ/mol
# Density = 1.881163 g / cm^3
# Si number density = 18.854544 Si / 1000 Ang^3
#
#
#
# Elastic Constant Matrix: (Units=GPa)
#
#
# Indices 1 2 3 4 5 6 
#
# 1 17.3571 7.7179 8.3202 0.0000 0.0000 -0.7802
# 2 7.7179 17.3571 8.3202 0.0000 0.0000 0.7802
# 3 8.3202 8.3202 54.7756 0.0000 0.0000 0.0000
# 4 0.0000 0.0000 0.0000 20.8191 0.0000 0.0000
# 5 0.0000 0.0000 0.0000 0.0000 20.8191 0.0000
# 6 -0.7802 0.7802 0.0000 0.0000 0.0000 19.1868
#
#
#
# Elastic Compliance Matrix: (Units=1/GPa)
#
#
# Indices 1 2 3 4 5 6 
#
# 1 0.074391 -0.030040 -0.006737 0.000000 0.000000 0.004246
# 2 -0.030040 0.074391 -0.006737 0.000000 0.000000 -0.004246
# 3 -0.006737 -0.006737 0.020303 0.000000 0.000000 0.000000
# 4 0.000000 0.000000 0.000000 0.048033 0.000000 0.000000
# 5 0.000000 0.000000 0.000000 0.000000 0.048033 0.000000
# 6 0.004246 -0.004246 0.000000 0.000000 0.000000 0.052464
#
#
# Mechanical properties :
#
#
# Convention : Reuss Voigt Hill
#
# Bulk Modulus (GPa) = 12.18653 15.35628 13.77141
# Shear Modulus (GPa) = 11.57423 16.50712 14.04067
#
# Velocity S-wave (km/s) = 2.48033 2.96209 2.73185
# Velocity P-wave (km/s) = 3.83147 4.45656 4.15579
#
# Compressibility (1/GPa) = 0.08205781
#
# Stress axis : x y z
#
# Youngs Moduli (GPa) = 13.44249 13.44249 49.25412
#
# Poissons Ratio (x) = 0.40381 0.33181
# Poissons Ratio (y) = 0.40381 0.33181
# Poissons Ratio (z) = 0.09056 0.09056
#
# Static dielectric constant tensor:
#      x y z
#    x 1.637050 0.000000 0.000000 
#    y 0.000000 1.637050 0.000000 
#    z 0.000000 0.000000 1.632230 
# 
# From -- ./inp_files/1370.got.cif
#   From: 2010.05.17/outbox.cif.g08.bks.cpg/sg87_1_cif.got.tgz:1370.got - 2010.06.03 19:07:00.
