data_PCOD9545395
_publ_section_title
;
Structure prediction by ZEFSAII (Michael W. Deem and Ramdas Pophale) SiO2 
 PCOD9545395
Probable space group: P 42/N
;
_chemical_formula_sum "Si O2"
_cell_formula_units_Z 34
_cell_length_a 7.999670
_cell_length_b 7.999670
_cell_length_c 22.046497
_cell_angle_alpha 90.000000
_cell_angle_beta 90.000000
_cell_angle_gamma 90.000000
_cell_volume 1410.859405
_symmetry_space_group_name_H-M "P 42/N"
_symmetry_group_IT_number 86
_space_group.IT_coordinate_system_code '2'
_symmetry_cell_setting 'tetragonal'
loop_
_space_group_symop_operation_xyz
x,y,z
-y,1/2+x,1/2+z
1/2-x,1/2-y,z
1/2+y,-x,1/2+z
-x,-y,-z
y,1/2-x,1/2-z
1/2+x,1/2+y,-z
1/2-y,x,1/2-z
loop_
_atom_site_type_symbol
_atom_site_label
_atom_site_fract_x
_atom_site_fract_y
_atom_site_fract_z
Si Si1 0.938004 0.098348 0.112938
Si Si2 0.250000 0.250000 0.750000
Si Si3 0.069526 0.542863 0.934145
Si Si4 0.247639 0.540483 0.653971
Si Si5 0.980482 0.178564 0.247512
O O1 0.004329 0.276594 0.087840
O O2 0.770525 0.060300 0.074758
O O3 0.895418 0.138234 0.183480
O O4 0.052141 0.930641 0.117907
O O5 0.214892 0.402344 0.705666
O O6 0.024136 0.383229 0.893867
O O7 0.000000 0.500000 0.000000
O O8 0.368790 0.662156 0.693345
O O9 0.054960 0.363503 0.244699
#
# Coordination Sequence:
#
# PCOD9545395 Si02
#       5
#     8   2   8   8   8
#     4  11  24  44  78 110 146 210 264 317 407 490
#     4  12  20  36  76 120 144 192 240 310 404 480
#     4  11  25  46  71 107 154 205 273 332 380 472
#     4  12  21  42  74 115 157 201 246 323 409 489
#     4  11  24  43  74 123 165 192 244 331 417 501
#
# _framework density 24.098787000000002
#
# number of rings (size 3 to 8) (size 9 to 14) (size 15 to 20)
#    0.000    0.706    7.059    0.000    0.000    1.882 
#    0.000    9.412    0.000    0.000    0.000    0.000 
#    0.000    0.000    0.000    0.000    0.000    0.000 
#
# Total GULP energy -189815.106744 kJ/mol
# GULP energy per Si atom -5582.797257 kJ/mol
# Density = 2.404394 g / cm^3
# Si number density = 24.098787 Si / 1000 Ang^3
#
#
#
# Elastic Constant Matrix: (Units=GPa)
#
#
# Indices 1 2 3 4 5 6 
#
# 1 155.2653 63.9748 52.0239 0.0000 0.0000 -1.7748
# 2 63.9748 155.2653 52.0239 0.0000 0.0000 1.7748
# 3 52.0239 52.0239 150.7749 0.0000 0.0000 0.0000
# 4 0.0000 0.0000 0.0000 43.9179 0.0000 0.0000
# 5 0.0000 0.0000 0.0000 0.0000 43.9179 0.0000
# 6 -1.7748 1.7748 0.0000 0.0000 0.0000 34.9282
#
#
#
# Elastic Compliance Matrix: (Units=1/GPa)
#
#
# Indices 1 2 3 4 5 6 
#
# 1 0.008215 -0.002761 -0.001882 0.000000 0.000000 0.000558
# 2 -0.002761 0.008215 -0.001882 0.000000 0.000000 -0.000558
# 3 -0.001882 -0.001882 0.007931 0.000000 0.000000 0.000000
# 4 0.000000 0.000000 0.000000 0.022770 0.000000 0.000000
# 5 0.000000 0.000000 0.000000 0.000000 0.022770 0.000000
# 6 0.000558 -0.000558 0.000000 0.000000 0.000000 0.028687
#
#
# Mechanical properties :
#
#
# Convention : Reuss Voigt Hill
#
# Bulk Modulus (GPa) = 88.40244 88.59454 88.49849
# Shear Modulus (GPa) = 43.32472 44.10499 43.71485
#
# Velocity S-wave (km/s) = 4.24464 4.28270 4.26371
# Velocity P-wave (km/s) = 7.79652 7.82932 7.81293
#
# Compressibility (1/GPa) = 0.01131191
#
# Stress axis : x y z
#
# Youngs Moduli (GPa) = 121.72773 121.72773 126.08515
#
# Poissons Ratio (x) = 0.33605 0.23729
# Poissons Ratio (y) = 0.33605 0.23729
# Poissons Ratio (z) = 0.22909 0.22909
#
# Static dielectric constant tensor:
#      x y z
#    x 2.215450 0.000000 0.000000 
#    y 0.000000 2.215450 0.000000 
#    z 0.000000 0.000000 1.901020 
# 
# From -- ./inp_files/3964.got.cif
#   From: 2010.05.17/outbox.cif.g08.bks.cpg/sg86_2_cif.got.tgz:3964.got - 2010.06.03 19:03:11.
