data_PCOD9545894
_publ_section_title
;
Structure prediction by ZEFSAII (Michael W. Deem and Ramdas Pophale) SiO2 
 PCOD9545894
Probable space group: I 4/M
;
_chemical_formula_sum "Si O2"
_cell_formula_units_Z 72
_cell_length_a 15.599775
_cell_length_b 15.599775
_cell_length_c 15.941416
_cell_angle_alpha 90.000000
_cell_angle_beta 90.000000
_cell_angle_gamma 90.000000
_cell_volume 3879.391090
_symmetry_space_group_name_H-M "I 4/M"
_symmetry_group_IT_number 87
_symmetry_cell_setting 'tetragonal'
loop_
_space_group_symop_operation_xyz
x,y,z
-y,x,z
-x,-y,z
y,-x,z
-x,-y,-z
y,-x,-z
x,y,-z
-y,x,-z
1/2+x,1/2+y,1/2+z
1/2-y,1/2+x,1/2+z
1/2-x,1/2-y,1/2+z
1/2+y,1/2-x,1/2+z
1/2-x,1/2-y,1/2-z
1/2+y,1/2-x,1/2-z
1/2+x,1/2+y,1/2-z
1/2-y,1/2+x,1/2-z
loop_
_atom_site_type_symbol
_atom_site_label
_atom_site_fract_x
_atom_site_fract_y
_atom_site_fract_z
Si Si1 0.367766 0.946720 0.239809
Si Si2 0.754162 0.033749 0.902471
Si Si3 0.919270 0.879263 0.500000
Si Si4 0.691741 0.650702 0.662286
Si Si5 0.274930 0.651145 0.841156
O O1 0.454112 0.892624 0.250535
O O2 0.328538 0.932980 0.147846
O O3 0.295006 0.916074 0.304609
O O4 0.826505 0.104525 0.885701
O O5 0.779675 0.944285 0.860107
O O6 0.738470 0.021653 0.000000
O O7 0.885627 0.828886 0.417970
O O8 0.022822 0.885109 0.500000
O O9 0.675837 0.665539 0.761501
O O10 0.764852 0.719061 0.636317
#
# Coordination Sequence:
#
# PCOD9545894 Si02
#       5
#    16  16   8  16  16
#     4  10  21  41  65  94 131 167 211 263 326 393
#     4  11  23  39  64  94 130 163 217 268 315 385
#     4  11  28  44  66  97 131 168 225 270 308 381
#     4  10  23  41  65  92 125 171 212 261 324 386
#     4  10  23  43  67  90 126 174 211 261 320 380
#
# _framework density 18.559614
#
# number of rings (size 3 to 8) (size 9 to 14) (size 15 to 20)
#    0.000    1.667    2.222    0.667    9.333    0.444 
#    2.000    2.222    0.000    0.000    0.000    0.000 
#    0.000    0.000    0.000    0.000    0.000    0.000 
#
# Total GULP energy -201097.348442 kJ/mol
# GULP energy per Si atom -5586.037457 kJ/mol
# Density = 1.851737 g / cm^3
# Si number density = 18.559614 Si / 1000 Ang^3
#
#
#
# Elastic Constant Matrix: (Units=GPa)
#
#
# Indices 1 2 3 4 5 6 
#
# 1 102.5272 46.2284 69.2058 0.0000 0.0000 -2.1831
# 2 46.2284 102.5272 69.2058 0.0000 0.0000 2.1831
# 3 69.2058 69.2058 117.5283 0.0000 0.0000 0.0000
# 4 0.0000 0.0000 0.0000 16.9444 0.0000 0.0000
# 5 0.0000 0.0000 0.0000 0.0000 16.9444 0.0000
# 6 -2.1831 2.1831 0.0000 0.0000 0.0000 31.6100
#
#
#
# Elastic Compliance Matrix: (Units=1/GPa)
#
#
# Indices 1 2 3 4 5 6 
#
# 1 0.016364 -0.001494 -0.008756 0.000000 0.000000 0.001233
# 2 -0.001494 0.016364 -0.008756 0.000000 0.000000 -0.001233
# 3 -0.008756 -0.008756 0.018820 0.000000 0.000000 0.000000
# 4 0.000000 0.000000 0.000000 0.059017 0.000000 0.000000
# 5 0.000000 0.000000 0.000000 0.000000 0.059017 0.000000
# 6 0.001233 -0.001233 0.000000 0.000000 0.000000 0.031806
#
#
# Mechanical properties :
#
#
# Convention : Reuss Voigt Hill
#
# Bulk Modulus (GPa) = 73.87775 76.87362 75.37568
# Shear Modulus (GPa) = 20.49939 22.29595 21.39767
#
# Velocity S-wave (km/s) = 3.32703 3.46976 3.39914
# Velocity P-wave (km/s) = 7.39263 7.58697 7.49043
#
# Compressibility (1/GPa) = 0.01353588
#
# Stress axis : x y z
#
# Youngs Moduli (GPa) = 61.11111 61.11111 53.13491
#
# Poissons Ratio (x) = 0.09132 0.46523
# Poissons Ratio (y) = 0.09132 0.46523
# Poissons Ratio (z) = 0.53507 0.53507
#
# Static dielectric constant tensor:
#      x y z
#    x 1.632900 0.000000 0.000000 
#    y 0.000000 1.632900 0.000000 
#    z 0.000000 0.000000 1.616270 
# 
# From -- ./inp_files/4255.got.cif
#   From: 2010.05.17/outbox.cif.g08.bks.cpg/sg87_3_cif.got.tgz:4255.got - 2010.06.03 19:07:00.
