data_PCOD9545366
_publ_section_title
;
Structure prediction by ZEFSAII (Michael W. Deem and Ramdas Pophale) SiO2 
 PCOD9545366
Probable space group: P 42/N
;
_chemical_formula_sum "Si O2"
_cell_formula_units_Z 40
_cell_length_a 8.589178
_cell_length_b 8.589178
_cell_length_c 24.690076
_cell_angle_alpha 90.000000
_cell_angle_beta 90.000000
_cell_angle_gamma 90.000000
_cell_volume 1821.485141
_symmetry_space_group_name_H-M "P 42/N"
_symmetry_group_IT_number 86
_space_group.IT_coordinate_system_code '2'
_symmetry_cell_setting 'tetragonal'
loop_
_space_group_symop_operation_xyz
x,y,z
-y,1/2+x,1/2+z
1/2-x,1/2-y,z
1/2+y,-x,1/2+z
-x,-y,-z
y,1/2-x,1/2-z
1/2+x,1/2+y,-z
1/2-y,x,1/2-z
loop_
_atom_site_type_symbol
_atom_site_label
_atom_site_fract_x
_atom_site_fract_y
_atom_site_fract_z
Si Si1 0.432482 0.819340 0.497418
Si Si2 0.712819 0.988837 0.230978
Si Si3 0.074215 0.817751 0.610768
Si Si4 0.528621 0.795261 0.723770
Si Si5 0.425613 0.310085 0.612979
O O1 0.250000 0.750000 0.496287
O O2 0.490892 0.745013 0.553827
O O3 0.502892 0.754603 0.442021
O O4 0.500000 0.000000 0.500000
O O5 0.853157 0.918361 0.265254
O O6 0.746237 0.011419 0.167792
O O7 0.633999 0.132233 0.259649
O O8 0.250000 0.750000 0.616180
O O9 0.977552 0.762076 0.662664
O O10 0.076050 0.003647 0.610345
O O11 0.660293 0.923928 0.734555
O O12 0.250000 0.250000 0.618100
#
# Coordination Sequence:
#
# PCOD9545366 Si02
#       5
#     8   8   8   8   8
#     4  11  27  49  73 110 145 194 254 312 382 460
#     4  11  23  41  68 100 137 182 243 290 359 441
#     4  11  24  46  73 100 145 192 239 305 371 443
#     4  11  25  44  63 102 145 183 237 293 369 432
#     4  12  23  46  73 105 140 191 243 307 371 452
#
# _framework density 21.960101999999999
#
# number of rings (size 3 to 8) (size 9 to 14) (size 15 to 20)
#    0.000    0.800    4.000    4.200    2.800    1.600 
#    3.600    0.000    0.000    0.000    0.000    0.000 
#    0.000    0.000    0.000    0.000    0.000    0.000 
#
# Total GULP energy -223433.469853 kJ/mol
# GULP energy per Si atom -5585.836746 kJ/mol
# Density = 2.191012 g / cm^3
# Si number density = 21.960102 Si / 1000 Ang^3
#
#
#
# Elastic Constant Matrix: (Units=GPa)
#
#
# Indices 1 2 3 4 5 6 
#
# 1 55.0477 62.4680 46.1522 0.0000 0.0000 -2.0574
# 2 62.4680 55.0477 46.1522 0.0000 0.0000 2.0574
# 3 46.1522 46.1522 221.9755 0.0000 0.0000 0.0000
# 4 0.0000 0.0000 0.0000 42.6941 0.0000 0.0000
# 5 0.0000 0.0000 0.0000 0.0000 42.6941 0.0000
# 6 -2.0574 2.0574 0.0000 0.0000 0.0000 47.6587
#
#
#
# Elastic Compliance Matrix: (Units=1/GPa)
#
#
# Indices 1 2 3 4 5 6 
#
# 1 -0.060722 0.070892 -0.002115 0.000000 0.000000 -0.005682
# 2 0.070892 -0.060722 -0.002115 0.000000 0.000000 0.005682
# 3 -0.002115 -0.002115 0.005384 0.000000 0.000000 0.000000
# 4 0.000000 0.000000 0.000000 0.023422 0.000000 0.000000
# 5 0.000000 0.000000 0.000000 0.000000 0.023422 0.000000
# 6 -0.005682 0.005682 0.000000 0.000000 0.000000 0.020492
#
#
# Mechanical properties :
#
#
# Convention : Reuss Voigt Hill
#
# Bulk Modulus (GPa) = 57.91454 71.29064 64.60259
# Shear Modulus (GPa) = -28.36181 38.42927 5.03373
#
# Velocity S-wave (km/s) = -3.59766 4.18779 1.51565
# Velocity P-wave (km/s) = 3.02858 7.47781 5.70482
#
# Compressibility (1/GPa) = 0.01726682
#
# Stress axis : x y z
#
# Youngs Moduli (GPa) = -16.46852 -16.46852 185.72453
#
# Poissons Ratio (x) = 1.16749 0.39273
# Poissons Ratio (y) = 1.16749 0.39273
# Poissons Ratio (z) = -0.03482 -0.03482
#
# Static dielectric constant tensor:
#      x y z
#    x 1.866690 0.000000 0.000000 
#    y 0.000000 1.866690 0.000000 
#    z 0.000000 0.000000 1.750320 
# 
# From -- ./inp_files/4498.got.cif
#   From: 2010.05.17/outbox.cif.g08.bks.cpg/sg86_3_cif.got.tgz:4498.got - 2010.06.03 19:03:11.
