data_PCOD9545362
_publ_section_title
;
Structure prediction by ZEFSAII (Michael W. Deem and Ramdas Pophale) SiO2 
 PCOD9545362
Probable space group: P 42/N
;
_chemical_formula_sum "Si O2"
_cell_formula_units_Z 32
_cell_length_a 8.330351
_cell_length_b 8.330351
_cell_length_c 19.541704
_cell_angle_alpha 90.000000
_cell_angle_beta 90.000000
_cell_angle_gamma 90.000000
_cell_volume 1356.091620
_symmetry_space_group_name_H-M "P 42/N"
_symmetry_group_IT_number 86
_space_group.IT_coordinate_system_code '2'
_symmetry_cell_setting 'tetragonal'
loop_
_space_group_symop_operation_xyz
x,y,z
-y,1/2+x,1/2+z
1/2-x,1/2-y,z
1/2+y,-x,1/2+z
-x,-y,-z
y,1/2-x,1/2-z
1/2+x,1/2+y,-z
1/2-y,x,1/2-z
loop_
_atom_site_type_symbol
_atom_site_label
_atom_site_fract_x
_atom_site_fract_y
_atom_site_fract_z
Si Si1 0.942663 0.933883 0.254123
Si Si2 0.435794 0.815068 0.512271
Si Si3 0.622552 0.384628 0.609850
Si Si4 0.126571 0.129923 0.137985
O O1 0.965620 0.745633 0.238232
O O2 0.023672 0.952742 0.327482
O O3 0.021312 0.038311 0.194052
O O4 0.250000 0.750000 0.515356
O O5 0.486224 0.701273 0.447922
O O6 0.507961 0.786088 0.586998
O O7 0.500000 0.000000 0.500000
O O8 0.750000 0.250000 0.635139
O O9 0.749231 0.521751 0.589910
O O10 0.250000 0.250000 0.172831
#
# Coordination Sequence:
#
# PCOD9545362 Si02
#       4
#     8   8   8   8
#     4  11  25  48  79 110 149 209 268 329 398 473
#     4  11  22  48  77 109 157 211 261 328 402 484
#     4  11  23  47  74 108 160 194 261 332 387 481
#     4  12  28  47  76 117 153 207 263 330 403 481
#
# _framework density 23.597223
#
# number of rings (size 3 to 8) (size 9 to 14) (size 15 to 20)
#    0.000    0.750    7.500    0.000    3.500    4.000 
#    9.000    0.000    0.000    0.000    0.000    0.000 
#    0.000    0.000    0.000    0.000    0.000    0.000 
#
# Total GULP energy -178348.964262 kJ/mol
# GULP energy per Si atom -5573.405133 kJ/mol
# Density = 2.354351 g / cm^3
# Si number density = 23.597223 Si / 1000 Ang^3
#
#
#
# Elastic Constant Matrix: (Units=GPa)
#
#
# Indices 1 2 3 4 5 6 
#
# 1 100.1610 77.8783 51.4138 0.0000 0.0000 -0.5635
# 2 77.8783 100.1610 51.4138 0.0000 0.0000 0.5635
# 3 51.4138 51.4138 124.2900 0.0000 0.0000 0.0000
# 4 0.0000 0.0000 0.0000 28.4849 0.0000 0.0000
# 5 0.0000 0.0000 0.0000 0.0000 28.4849 0.0000
# 6 -0.5635 0.5635 0.0000 0.0000 0.0000 47.7709
#
#
#
# Elastic Compliance Matrix: (Units=1/GPa)
#
#
# Indices 1 2 3 4 5 6 
#
# 1 0.026142 -0.018762 -0.003053 0.000000 0.000000 0.000530
# 2 -0.018762 0.026142 -0.003053 0.000000 0.000000 -0.000530
# 3 -0.003053 -0.003053 0.010571 0.000000 0.000000 0.000000
# 4 0.000000 0.000000 0.000000 0.035106 0.000000 0.000000
# 5 0.000000 0.000000 0.000000 0.000000 0.035106 0.000000
# 6 0.000530 -0.000530 0.000000 0.000000 0.000000 0.020946
#
#
# Mechanical properties :
#
#
# Convention : Reuss Voigt Hill
#
# Bulk Modulus (GPa) = 76.21938 76.22487 76.22212
# Shear Modulus (GPa) = 24.02424 30.54189 27.28306
#
# Velocity S-wave (km/s) = 3.19422 3.60154 3.40398
# Velocity P-wave (km/s) = 6.78044 7.04751 6.91526
#
# Compressibility (1/GPa) = 0.01312002
#
# Stress axis : x y z
#
# Youngs Moduli (GPa) = 38.25229 38.25229 94.59565
#
# Poissons Ratio (x) = 0.71770 0.28878
# Poissons Ratio (y) = 0.71770 0.28878
# Poissons Ratio (z) = 0.11678 0.11678
#
# Static dielectric constant tensor:
#      x y z
#    x 2.062180 0.000000 0.000000 
#    y 0.000000 2.062180 0.000000 
#    z 0.000000 0.000000 1.910180 
# 
# From -- ./inp_files/3846.got.cif
#   From: 2010.05.17/outbox.cif.g08.bks.cpg/sg86_2_cif.got.tgz:3846.got - 2010.06.03 19:03:11.
