data_PCOD9545061
_publ_section_title
;
Structure prediction by ZEFSAII (Michael W. Deem and Ramdas Pophale) SiO2 
 PCOD9545061
Probable space group: P 42/N
;
_chemical_formula_sum "Si O2"
_cell_formula_units_Z 56
_cell_length_a 10.545222
_cell_length_b 10.545222
_cell_length_c 25.518211
_cell_angle_alpha 90.000000
_cell_angle_beta 90.000000
_cell_angle_gamma 90.000000
_cell_volume 2837.668624
_symmetry_space_group_name_H-M "P 42/N"
_symmetry_group_IT_number 86
_space_group.IT_coordinate_system_code '2'
_symmetry_cell_setting 'tetragonal'
loop_
_space_group_symop_operation_xyz
x,y,z
-y,1/2+x,1/2+z
1/2-x,1/2-y,z
1/2+y,-x,1/2+z
-x,-y,-z
y,1/2-x,1/2-z
1/2+x,1/2+y,-z
1/2-y,x,1/2-z
loop_
_atom_site_type_symbol
_atom_site_label
_atom_site_fract_x
_atom_site_fract_y
_atom_site_fract_z
Si Si1 0.785830 0.110758 0.490868
Si Si2 0.086645 0.514047 0.425758
Si Si3 0.891189 0.762943 0.551174
Si Si4 0.675618 0.935225 0.684840
Si Si5 0.468283 0.933139 0.105369
Si Si6 0.019920 0.214458 0.559846
Si Si7 0.038262 0.169572 0.302674
O O1 0.750000 0.250000 0.471536
O O2 0.683477 0.040261 0.526380
O O3 0.822710 0.040118 0.437876
O O4 0.898547 0.148699 0.531100
O O5 0.037896 0.370774 0.437328
O O6 0.151540 0.509203 0.368732
O O7 0.000285 0.639129 0.425860
O O8 0.750000 0.750000 0.573315
O O9 0.885181 0.785626 0.489270
O O10 0.958662 0.883354 0.576401
O O11 0.655076 0.997293 0.741777
O O12 0.823430 0.894800 0.687674
O O13 0.577933 0.815002 0.684560
O O14 0.618619 0.956458 0.107463
O O15 0.396560 0.934020 0.160551
#
# Coordination Sequence:
#
# PCOD9545061 Si02
#       7
#     8   8   8   8   8   8   8
#     4   9  19  32  48  71 106 143 170 208 266 330
#     4  11  19  32  50  75 108 137 176 225 269 323
#     4  11  19  30  50  73 102 135 176 212 257 317
#     4   9  17  30  50  77  99 128 170 228 279 316
#     4  11  19  33  51  74 106 144 175 213 275 338
#     4  10  21  31  45  75 103 137 170 204 265 326
#     4   9  17  30  51  75 100 128 174 221 276 326
#
# _framework density 19.73451
#
# number of rings (size 3 to 8) (size 9 to 14) (size 15 to 20)
#    0.000    2.000    1.429    6.429    0.000    0.000 
#    0.000    0.000    0.000    6.000    0.000    0.000 
#    0.000    0.000    0.000    0.000    0.000    0.000 
#
# Total GULP energy -311913.043278 kJ/mol
# GULP energy per Si atom -5569.875773 kJ/mol
# Density = 1.968959 g / cm^3
# Si number density = 19.734510 Si / 1000 Ang^3
#
#
#
# Elastic Constant Matrix: (Units=GPa)
#
#
# Indices 1 2 3 4 5 6 
#
# 1 55.1953 14.1642 24.8097 0.0000 0.0000 0.8437
# 2 14.1642 55.1953 24.8097 0.0000 0.0000 -0.8437
# 3 24.8097 24.8097 120.8890 0.0000 0.0000 0.0000
# 4 0.0000 0.0000 0.0000 30.0155 0.0000 0.0000
# 5 0.0000 0.0000 0.0000 0.0000 30.0155 0.0000
# 6 0.8437 -0.8437 0.0000 0.0000 0.0000 10.6516
#
#
#
# Elastic Compliance Matrix: (Units=1/GPa)
#
#
# Indices 1 2 3 4 5 6 
#
# 1 0.020675 -0.003776 -0.003468 0.000000 0.000000 -0.001937
# 2 -0.003776 0.020675 -0.003468 0.000000 0.000000 0.001937
# 3 -0.003468 -0.003468 0.009696 0.000000 0.000000 0.000000
# 4 0.000000 0.000000 0.000000 0.033316 0.000000 0.000000
# 5 0.000000 0.000000 0.000000 0.000000 0.033316 0.000000
# 6 -0.001937 0.001937 0.000000 0.000000 0.000000 0.094189
#
#
# Mechanical properties :
#
#
# Convention : Reuss Voigt Hill
#
# Bulk Modulus (GPa) = 33.76025 39.87185 36.81605
# Shear Modulus (GPa) = 20.56211 25.30291 22.93251
#
# Velocity S-wave (km/s) = 3.23141 3.58462 3.41259
# Velocity P-wave (km/s) = 5.57378 6.11397 5.85011
#
# Compressibility (1/GPa) = 0.02962063
#
# Stress axis : x y z
#
# Youngs Moduli (GPa) = 48.36754 48.36754 103.14031
#
# Poissons Ratio (x) = 0.18265 0.35770
# Poissons Ratio (y) = 0.18265 0.35770
# Poissons Ratio (z) = 0.16774 0.16774
#
# Static dielectric constant tensor:
#      x y z
#    x 1.771050 0.000000 0.000000 
#    y 0.000000 1.771050 0.000000 
#    z 0.000000 0.000000 1.729020 
# 
# From -- ./inp_files/4914.got.cif
#   From: 2010.05.17/outbox.cif.g08.bks.cpg/sg86_3_cif.got.tgz:4914.got - 2010.06.03 19:03:11.
