data_PCOD9545322
_publ_section_title
;
Structure prediction by ZEFSAII (Michael W. Deem and Ramdas Pophale) SiO2 
 PCOD9545322
Probable space group: P 42/N
;
_chemical_formula_sum "Si O2"
_cell_formula_units_Z 48
_cell_length_a 11.296683
_cell_length_b 11.296683
_cell_length_c 20.836637
_cell_angle_alpha 90.000000
_cell_angle_beta 90.000000
_cell_angle_gamma 90.000000
_cell_volume 2659.068406
_symmetry_space_group_name_H-M "P 42/N"
_symmetry_group_IT_number 86
_space_group.IT_coordinate_system_code '2'
_symmetry_cell_setting 'tetragonal'
loop_
_space_group_symop_operation_xyz
x,y,z
-y,1/2+x,1/2+z
1/2-x,1/2-y,z
1/2+y,-x,1/2+z
-x,-y,-z
y,1/2-x,1/2-z
1/2+x,1/2+y,-z
1/2-y,x,1/2-z
loop_
_atom_site_type_symbol
_atom_site_label
_atom_site_fract_x
_atom_site_fract_y
_atom_site_fract_z
Si Si1 0.521451 0.852783 0.254151
Si Si2 0.105064 0.039614 0.216591
Si Si3 0.307478 0.870908 0.162452
Si Si4 0.012421 0.008457 0.424099
Si Si5 0.632756 0.694757 0.357296
Si Si6 0.111347 0.273933 0.151110
O O1 0.391098 0.840665 0.223654
O O2 0.552086 0.788791 0.319745
O O3 0.611274 0.812768 0.198723
O O4 0.538104 0.993225 0.263516
O O5 0.063805 0.143488 0.168503
O O6 0.154064 0.099870 0.281732
O O7 0.206168 0.960689 0.185125
O O8 0.250000 0.750000 0.138567
O O9 0.388635 0.933638 0.109240
O O10 0.145424 0.040666 0.399669
O O11 0.000000 0.000000 0.500000
O O12 0.954678 0.887680 0.397513
O O13 0.750000 0.750000 0.390226
O O14 0.250000 0.250000 0.135419
#
# Coordination Sequence:
#
# PCOD9545322 Si02
#       6
#     8   8   8   8   8   8
#     4  11  19  33  58  93 127 150 188 254 321 369
#     4  12  19  34  62 100 126 149 197 265 330 359
#     4  11  23  35  61  92 127 154 192 258 315 362
#     4  11  26  44  60  85 122 172 214 242 294 373
#     4  11  21  37  59  87 125 161 201 249 304 380
#     4  12  18  36  63  92 123 152 201 261 308 363
#
# _framework density 18.051435000000001
#
# number of rings (size 3 to 8) (size 9 to 14) (size 15 to 20)
#    0.000    0.667   10.000    1.000    2.333    0.667 
#    0.000    1.667    0.000    2.000    0.000    0.000 
#    0.000    0.000    0.000    0.000    0.000    0.000 
#
# Total GULP energy -267787.627838 kJ/mol
# GULP energy per Si atom -5578.908913 kJ/mol
# Density = 1.801035 g / cm^3
# Si number density = 18.051435 Si / 1000 Ang^3
#
#
#
# Elastic Constant Matrix: (Units=GPa)
#
#
# Indices 1 2 3 4 5 6 
#
# 1 88.3944 39.7786 33.5811 0.0000 0.0000 1.7376
# 2 39.7786 88.3944 33.5811 0.0000 0.0000 -1.7376
# 3 33.5811 33.5811 89.1391 0.0000 0.0000 0.0000
# 4 0.0000 0.0000 0.0000 14.0408 0.0000 0.0000
# 5 0.0000 0.0000 0.0000 0.0000 14.0408 0.0000
# 6 1.7376 -1.7376 0.0000 0.0000 0.0000 36.9039
#
#
#
# Elastic Compliance Matrix: (Units=1/GPa)
#
#
# Indices 1 2 3 4 5 6 
#
# 1 0.015180 -0.005459 -0.003662 0.000000 0.000000 -0.000972
# 2 -0.005459 0.015180 -0.003662 0.000000 0.000000 0.000972
# 3 -0.003662 -0.003662 0.013978 0.000000 0.000000 0.000000
# 4 0.000000 0.000000 0.000000 0.071221 0.000000 0.000000
# 5 0.000000 0.000000 0.000000 0.000000 0.071221 0.000000
# 6 -0.000972 0.000972 0.000000 0.000000 0.000000 0.027189
#
#
# Mechanical properties :
#
#
# Convention : Reuss Voigt Hill
#
# Bulk Modulus (GPa) = 53.27376 53.31215 53.29295
# Shear Modulus (GPa) = 20.34244 23.59626 21.96935
#
# Velocity S-wave (km/s) = 3.36060 3.61940 3.49240
# Velocity P-wave (km/s) = 6.68090 6.86034 6.77122
#
# Compressibility (1/GPa) = 0.01877097
#
# Stress axis : x y z
#
# Youngs Moduli (GPa) = 65.87662 65.87662 71.54273
#
# Poissons Ratio (x) = 0.35962 0.26200
# Poissons Ratio (y) = 0.35962 0.26200
# Poissons Ratio (z) = 0.24125 0.24125
#
# Static dielectric constant tensor:
#      x y z
#    x 1.665170 0.000000 0.000000 
#    y 0.000000 1.665170 0.000000 
#    z 0.000000 0.000000 1.586430 
# 
# From -- ./inp_files/3562.got.cif
#   From: 2010.05.17/outbox.cif.g08.bks.cpg/sg86_2_cif.got.tgz:3562.got - 2010.06.03 19:03:11.
