data_PCOD9545532
_publ_section_title
;
Structure prediction by ZEFSAII (Michael W. Deem and Ramdas Pophale) SiO2 
 PCOD9545532
Probable space group: I 4/M
;
_chemical_formula_sum "Si O2"
_cell_formula_units_Z 112
_cell_length_a 14.789284
_cell_length_b 14.789284
_cell_length_c 25.438532
_cell_angle_alpha 90.000000
_cell_angle_beta 90.000000
_cell_angle_gamma 90.000000
_cell_volume 5563.990031
_symmetry_space_group_name_H-M "I 4/M"
_symmetry_group_IT_number 87
_symmetry_cell_setting 'tetragonal'
loop_
_space_group_symop_operation_xyz
x,y,z
-y,x,z
-x,-y,z
y,-x,z
-x,-y,-z
y,-x,-z
x,y,-z
-y,x,-z
1/2+x,1/2+y,1/2+z
1/2-y,1/2+x,1/2+z
1/2-x,1/2-y,1/2+z
1/2+y,1/2-x,1/2+z
1/2-x,1/2-y,1/2-z
1/2+y,1/2-x,1/2-z
1/2+x,1/2+y,1/2-z
1/2-y,1/2+x,1/2-z
loop_
_atom_site_type_symbol
_atom_site_label
_atom_site_fract_x
_atom_site_fract_y
_atom_site_fract_z
Si Si1 0.706593 0.701862 0.800799
Si Si2 0.637105 0.564327 0.728952
Si Si3 0.758517 0.066191 0.615026
Si Si4 0.406862 0.209063 0.559515
Si Si5 0.643871 0.902847 0.062419
Si Si6 0.385813 0.710573 0.059855
Si Si7 0.811385 0.830716 0.127128
O O1 0.750000 0.750000 0.750000
O O2 0.693770 0.601150 0.778598
O O3 0.610749 0.731381 0.827226
O O4 0.774086 0.739005 0.845033
O O5 0.541002 0.616488 0.730948
O O6 0.678873 0.596751 0.673575
O O7 0.655346 0.072379 0.595128
O O8 0.814471 0.134368 0.576959
O O9 0.792878 0.966612 0.602032
O O10 0.424162 0.240541 0.500000
O O11 0.490338 0.144331 0.573007
O O12 0.310573 0.158182 0.559191
O O13 0.399726 0.295535 0.597442
O O14 0.740075 0.866100 0.084248
O O15 0.633877 0.886975 0.000000
O O16 0.417952 0.693565 0.000000
#
# Coordination Sequence:
#
# PCOD9545532 Si02
#       7
#    16  16  16  16  16  16  16
#     4   9  20  36  56  77 104 145 194 235 291 345
#     4  10  21  34  52  77 109 139 184 240 288 339
#     4  11  23  38  60  83 121 157 196 243 299 354
#     4  10  20  33  57  87 116 153 198 238 287 351
#     4  10  19  34  57  84 115 152 192 237 285 343
#     4  11  22  38  59  87 120 158 198 242 299 365
#     4  10  18  35  55  80 110 147 188 232 292 343
#
# _framework density 20.129439000000001
#
# number of rings (size 3 to 8) (size 9 to 14) (size 15 to 20)
#    0.000    1.857    2.857    2.571    2.000    0.857 
#    0.000    2.857    0.000    0.000    0.000    6.000 
#    0.000    0.000    0.000    0.000    0.000    0.000 
#
# Total GULP energy -311944.663151 kJ/mol
# GULP energy per Si atom -5570.440413 kJ/mol
# Density = 2.008362 g / cm^3
# Si number density = 20.129439 Si / 1000 Ang^3
#
#
#
# Elastic Constant Matrix: (Units=GPa)
#
#
# Indices 1 2 3 4 5 6 
#
# 1 48.2639 -8.0667 4.1581 0.0000 0.0000 -5.2488
# 2 -8.0667 48.2639 4.1581 0.0000 0.0000 5.2488
# 3 4.1581 4.1581 87.1768 0.0000 0.0000 0.0000
# 4 0.0000 0.0000 0.0000 21.0854 0.0000 0.0000
# 5 0.0000 0.0000 0.0000 0.0000 21.0854 0.0000
# 6 -5.2488 5.2488 0.0000 0.0000 0.0000 17.7309
#
#
#
# Elastic Compliance Matrix: (Units=1/GPa)
#
#
# Indices 1 2 3 4 5 6 
#
# 1 0.021957 0.003168 -0.001198 0.000000 0.000000 0.005562
# 2 0.003168 0.021957 -0.001198 0.000000 0.000000 -0.005562
# 3 -0.001198 -0.001198 0.011585 0.000000 0.000000 0.000000
# 4 0.000000 0.000000 0.000000 0.047426 0.000000 0.000000
# 5 0.000000 0.000000 0.000000 0.000000 0.047426 0.000000
# 6 0.005562 -0.005562 0.000000 0.000000 0.000000 0.059692
#
#
# Mechanical properties :
#
#
# Convention : Reuss Voigt Hill
#
# Bulk Modulus (GPa) = 17.53090 20.46707 18.99898
# Shear Modulus (GPa) = 21.97664 24.21070 23.09367
#
# Velocity S-wave (km/s) = 3.30777 3.47183 3.39079
# Velocity P-wave (km/s) = 4.82871 5.12458 4.97884
#
# Compressibility (1/GPa) = 0.05704215
#
# Stress axis : x y z
#
# Youngs Moduli (GPa) = 45.54348 45.54348 86.31651
#
# Poissons Ratio (x) = -0.14429 0.10344
# Poissons Ratio (y) = -0.14429 0.10344
# Poissons Ratio (z) = 0.05458 0.05458
#
# Static dielectric constant tensor:
#      x y z
#    x 1.721330 0.000000 0.000000 
#    y 0.000000 1.721330 0.000000 
#    z 0.000000 0.000000 1.763140 
# 
# From -- ./inp_files/6297.got.cif
#   From: 2010.05.17/outbox.cif.g08.bks.cpg/sg87_4_cif.got.tgz:6297.got - 2010.06.03 19:07:00.
