data_PCOD9545303
_publ_section_title
;
Structure prediction by ZEFSAII (Michael W. Deem and Ramdas Pophale) SiO2 
 PCOD9545303
Probable space group: P 42/N
;
_chemical_formula_sum "Si O2"
_cell_formula_units_Z 32
_cell_length_a 9.565364
_cell_length_b 9.565364
_cell_length_c 12.719147
_cell_angle_alpha 90.000000
_cell_angle_beta 90.000000
_cell_angle_gamma 90.000000
_cell_volume 1163.753471
_symmetry_space_group_name_H-M "P 42/N"
_symmetry_group_IT_number 86
_space_group.IT_coordinate_system_code '2'
_symmetry_cell_setting 'tetragonal'
loop_
_space_group_symop_operation_xyz
x,y,z
-y,1/2+x,1/2+z
1/2-x,1/2-y,z
1/2+y,-x,1/2+z
-x,-y,-z
y,1/2-x,1/2-z
1/2+x,1/2+y,-z
1/2-y,x,1/2-z
loop_
_atom_site_type_symbol
_atom_site_label
_atom_site_fract_x
_atom_site_fract_y
_atom_site_fract_z
Si Si1 0.584570 0.281949 0.172360
Si Si2 0.802165 0.408859 0.907963
Si Si3 0.838096 0.907889 0.479919
Si Si4 0.133803 0.098825 0.814448
O O1 0.750000 0.250000 0.155995
O O2 0.554732 0.242945 0.293717
O O3 0.567441 0.449533 0.165394
O O4 0.484357 0.209014 0.088518
O O5 0.750000 0.250000 0.932961
O O6 0.969368 0.396752 0.905695
O O7 0.961301 0.799177 0.511973
O O8 0.697014 0.875360 0.416542
O O9 0.925131 0.793716 0.274539
#
# Coordination Sequence:
#
# PCOD9545303 Si02
#       4
#     8   8   8   8
#     4  11  25  46  82 121 166 224 281 364 433 521
#     4  10  24  46  78 121 169 215 281 356 434 507
#     4  11  24  47  81 117 166 226 287 348 431 513
#     4  11  25  45  77 117 164 224 286 348 434 525
#
# _framework density 27.497233000000001
#
# number of rings (size 3 to 8) (size 9 to 14) (size 15 to 20)
#    0.000    1.250    2.500    1.500    3.500    6.000 
#    0.000    7.500    0.000    0.000    0.000    0.000 
#    0.000    0.000    0.000    0.000    0.000    0.000 
#
# Total GULP energy -178896.736607 kJ/mol
# GULP energy per Si atom -5590.523019 kJ/mol
# Density = 2.743465 g / cm^3
# Si number density = 27.497233 Si / 1000 Ang^3
#
#
#
# Elastic Constant Matrix: (Units=GPa)
#
#
# Indices 1 2 3 4 5 6 
#
# 1 153.2725 62.2545 67.3977 0.0000 0.0000 -17.9578
# 2 62.2545 153.2725 67.3977 0.0000 0.0000 17.9578
# 3 67.3977 67.3977 161.1460 0.0000 0.0000 0.0000
# 4 0.0000 0.0000 0.0000 40.1076 0.0000 0.0000
# 5 0.0000 0.0000 0.0000 0.0000 40.1076 0.0000
# 6 -17.9578 17.9578 0.0000 0.0000 0.0000 58.4590
#
#
#
# Elastic Compliance Matrix: (Units=1/GPa)
#
#
# Indices 1 2 3 4 5 6 
#
# 1 0.009393 -0.003109 -0.002628 0.000000 0.000000 0.003841
# 2 -0.003109 0.009393 -0.002628 0.000000 0.000000 -0.003841
# 3 -0.002628 -0.002628 0.008404 0.000000 0.000000 0.000000
# 4 0.000000 0.000000 0.000000 0.024933 0.000000 0.000000
# 5 0.000000 0.000000 0.000000 0.000000 0.024933 0.000000
# 6 0.003841 -0.003841 0.000000 0.000000 0.000000 0.019466
#
#
# Mechanical properties :
#
#
# Convention : Reuss Voigt Hill
#
# Bulk Modulus (GPa) = 95.61416 95.75453 95.68434
# Shear Modulus (GPa) = 42.83102 45.77760 44.30431
#
# Velocity S-wave (km/s) = 3.95099 4.08463 4.01837
# Velocity P-wave (km/s) = 7.46066 7.55940 7.51020
#
# Compressibility (1/GPa) = 0.01045870
#
# Stress axis : x y z
#
# Youngs Moduli (GPa) = 106.46403 106.46403 118.99392
#
# Poissons Ratio (x) = 0.33105 0.31271
# Poissons Ratio (y) = 0.33105 0.31271
# Poissons Ratio (z) = 0.27978 0.27978
#
# Static dielectric constant tensor:
#      x y z
#    x 2.439980 0.000000 0.000000 
#    y 0.000000 2.439980 0.000000 
#    z 0.000000 0.000000 2.219710 
# 
# From -- ./inp_files/1898.got.cif
#   From: 2010.05.17/outbox.cif.g08.bks.cpg/sg86_1_cif.got.tgz:1898.got - 2010.06.03 19:03:11.
