data_PCOD9545317
_publ_section_title
;
Structure prediction by ZEFSAII (Michael W. Deem and Ramdas Pophale) SiO2 
 PCOD9545317
Probable space group: P 42/N
;
_chemical_formula_sum "Si O2"
_cell_formula_units_Z 36
_cell_length_a 11.743696
_cell_length_b 11.743696
_cell_length_c 10.443645
_cell_angle_alpha 90.000000
_cell_angle_beta 90.000000
_cell_angle_gamma 90.000000
_cell_volume 1440.328990
_symmetry_space_group_name_H-M "P 42/N"
_symmetry_group_IT_number 86
_space_group.IT_coordinate_system_code '2'
_symmetry_cell_setting 'tetragonal'
loop_
_space_group_symop_operation_xyz
x,y,z
-y,1/2+x,1/2+z
1/2-x,1/2-y,z
1/2+y,-x,1/2+z
-x,-y,-z
y,1/2-x,1/2-z
1/2+x,1/2+y,-z
1/2-y,x,1/2-z
loop_
_atom_site_type_symbol
_atom_site_label
_atom_site_fract_x
_atom_site_fract_y
_atom_site_fract_z
Si Si1 0.462230 0.466303 0.641955
Si Si2 0.750000 0.250000 0.675999
Si Si3 0.794238 0.996815 0.736521
Si Si4 0.794494 0.007319 0.154496
Si Si5 0.657195 0.660805 0.958549
O O1 0.500000 0.500000 0.500000
O O2 0.569716 0.509696 0.722566
O O3 0.454554 0.330637 0.654899
O O4 0.348298 0.516111 0.704243
O O5 0.730068 0.369093 0.749511
O O6 0.866117 0.274988 0.600117
O O7 0.771953 0.915350 0.856064
O O8 0.728300 0.943044 0.614410
O O9 0.875036 0.927338 0.069278
O O10 0.750000 0.750000 0.008751
#
# Coordination Sequence:
#
# PCOD9545317 Si02
#       5
#     8   4   8   8   8
#     4  11  27  48  74 116 160 203 269 345 406 493
#     4  10  26  48  66 108 154 204 254 322 402 480
#     4  11  23  45  73 108 148 206 260 324 404 479
#     4  11  28  47  78 112 157 210 261 333 417 484
#     4  12  24  44  79 114 148 207 273 331 402 489
#
# _framework density 24.994292000000002
#
# number of rings (size 3 to 8) (size 9 to 14) (size 15 to 20)
#    0.000    0.889    2.222    2.667    9.333    4.444 
#    8.000    0.000    0.000    0.000    0.000    0.000 
#    0.000    0.000    0.000    0.000    0.000    0.000 
#
# Total GULP energy -201363.029681 kJ/mol
# GULP energy per Si atom -5593.417491 kJ/mol
# Density = 2.493740 g / cm^3
# Si number density = 24.994292 Si / 1000 Ang^3
#
#
#
# Elastic Constant Matrix: (Units=GPa)
#
#
# Indices 1 2 3 4 5 6 
#
# 1 156.3485 23.0293 33.1296 0.0000 0.0000 -0.2178
# 2 23.0293 156.3485 33.1296 0.0000 0.0000 0.2178
# 3 33.1296 33.1296 86.8036 0.0000 0.0000 0.0000
# 4 0.0000 0.0000 0.0000 19.4615 0.0000 0.0000
# 5 0.0000 0.0000 0.0000 0.0000 19.4615 0.0000
# 6 -0.2178 0.2178 0.0000 0.0000 0.0000 32.3891
#
#
#
# Elastic Compliance Matrix: (Units=1/GPa)
#
#
# Indices 1 2 3 4 5 6 
#
# 1 0.006995 -0.000506 -0.002477 0.000000 0.000000 0.000050
# 2 -0.000506 0.006995 -0.002477 0.000000 0.000000 -0.000050
# 3 -0.002477 -0.002477 0.013411 0.000000 0.000000 0.000000
# 4 0.000000 0.000000 0.000000 0.051383 0.000000 0.000000
# 5 0.000000 0.000000 0.000000 0.000000 0.051383 0.000000
# 6 0.000050 -0.000050 0.000000 0.000000 0.000000 0.030875
#
#
# Mechanical properties :
#
#
# Convention : Reuss Voigt Hill
#
# Bulk Modulus (GPa) = 60.66905 64.23084 62.44994
# Shear Modulus (GPa) = 28.17588 34.94325 31.55956
#
# Velocity S-wave (km/s) = 3.36116 3.74311 3.55726
# Velocity P-wave (km/s) = 6.27607 6.66597 6.47395
#
# Compressibility (1/GPa) = 0.01648287
#
# Stress axis : x y z
#
# Youngs Moduli (GPa) = 142.95208 142.95208 74.56612
#
# Poissons Ratio (x) = 0.07228 0.18469
# Poissons Ratio (y) = 0.07228 0.18469
# Poissons Ratio (z) = 0.35408 0.35408
#
# Static dielectric constant tensor:
#      x y z
#    x 2.025930 0.000000 0.000000 
#    y 0.000000 2.025930 0.000000 
#    z 0.000000 0.000000 2.058830 
# 
# From -- ./inp_files/2073.got.cif
#   From: 2010.05.17/outbox.cif.g08.bks.cpg/sg86_2_cif.got.tgz:2073.got - 2010.06.03 19:03:11.
