data_PCOD9545115
_publ_section_title
;
Structure prediction by ZEFSAII (Michael W. Deem and Ramdas Pophale) SiO2 
 PCOD9545115
Probable space group: P 42/N
;
_chemical_formula_sum "Si O2"
_cell_formula_units_Z 48
_cell_length_a 9.607405
_cell_length_b 9.607405
_cell_length_c 23.618559
_cell_angle_alpha 90.000000
_cell_angle_beta 90.000000
_cell_angle_gamma 90.000000
_cell_volume 2180.045685
_symmetry_space_group_name_H-M "P 42/N"
_symmetry_group_IT_number 86
_space_group.IT_coordinate_system_code '2'
_symmetry_cell_setting 'tetragonal'
loop_
_space_group_symop_operation_xyz
x,y,z
-y,1/2+x,1/2+z
1/2-x,1/2-y,z
1/2+y,-x,1/2+z
-x,-y,-z
y,1/2-x,1/2-z
1/2+x,1/2+y,-z
1/2-y,x,1/2-z
loop_
_atom_site_type_symbol
_atom_site_label
_atom_site_fract_x
_atom_site_fract_y
_atom_site_fract_z
Si Si1 0.090220 0.250242 0.350729
Si Si2 0.997140 0.092785 0.803945
Si Si3 0.339252 0.614072 0.510972
Si Si4 0.106824 0.002078 0.637211
Si Si5 0.140304 0.163449 0.478209
Si Si6 0.277660 0.914354 0.813420
O O1 0.250000 0.250000 0.327480
O O2 0.109626 0.234617 0.418458
O O3 0.003225 0.386996 0.336882
O O4 0.988365 0.121513 0.335509
O O5 0.023393 0.244700 0.832182
O O6 0.929489 0.129958 0.743436
O O7 0.136787 0.001127 0.801391
O O8 0.250000 0.750000 0.511204
O O9 0.353688 0.550804 0.574171
O O10 0.294228 0.488869 0.470599
O O11 0.493897 0.652113 0.492453
O O12 0.004986 0.134974 0.640986
O O13 0.250000 0.250000 0.513093
O O14 0.250000 0.750000 0.826102
#
# Coordination Sequence:
#
# PCOD9545115 Si02
#       6
#     8   8   8   8   8   8
#     4  10  21  42  66  95 133 178 224 279 343 413
#     4  12  24  43  67  93 133 173 226 285 343 424
#     4  10  21  40  65  97 131 178 226 277 347 415
#     4  11  22  41  66  93 135 176 224 279 344 416
#     4   9  20  39  63  95 133 168 224 280 331 407
#     4  12  26  43  63  97 127 172 228 282 346 414
#
# _framework density 22.017886000000001
#
# number of rings (size 3 to 8) (size 9 to 14) (size 15 to 20)
#    0.000    1.333    1.667    5.000    0.000    2.000 
#    0.000   17.500    0.000    0.000    0.000    0.000 
#    0.000    0.000    0.000    0.000    0.000    0.000 
#
# Total GULP energy -267829.190823 kJ/mol
# GULP energy per Si atom -5579.774809 kJ/mol
# Density = 2.196777 g / cm^3
# Si number density = 22.017886 Si / 1000 Ang^3
#
#
#
# Elastic Constant Matrix: (Units=GPa)
#
#
# Indices 1 2 3 4 5 6 
#
# 1 164.2150 84.0148 28.7753 0.0000 0.0000 7.4423
# 2 84.0148 164.2150 28.7753 0.0000 0.0000 -7.4423
# 3 28.7753 28.7753 66.4863 0.0000 0.0000 0.0000
# 4 0.0000 0.0000 0.0000 32.4520 0.0000 0.0000
# 5 0.0000 0.0000 0.0000 0.0000 32.4520 0.0000
# 6 7.4423 -7.4423 0.0000 0.0000 0.0000 56.8265
#
#
#
# Elastic Compliance Matrix: (Units=1/GPa)
#
#
# Indices 1 2 3 4 5 6 
#
# 1 0.008629 -0.004151 -0.001938 0.000000 0.000000 -0.001674
# 2 -0.004151 0.008629 -0.001938 0.000000 0.000000 0.001674
# 3 -0.001938 -0.001938 0.016718 0.000000 0.000000 0.000000
# 4 0.000000 0.000000 0.000000 0.030815 0.000000 0.000000
# 5 0.000000 0.000000 0.000000 0.000000 0.030815 0.000000
# 6 -0.001674 0.001674 0.000000 0.000000 0.000000 0.018036
#
#
# Mechanical properties :
#
#
# Convention : Reuss Voigt Hill
#
# Bulk Modulus (GPa) = 55.79773 75.33858 65.56816
# Shear Modulus (GPa) = 36.85458 41.23617 39.04538
#
# Velocity S-wave (km/s) = 4.09571 4.33234 4.21568
# Velocity P-wave (km/s) = 6.91111 7.70174 7.31711
#
# Compressibility (1/GPa) = 0.01792187
#
# Stress axis : x y z
#
# Youngs Moduli (GPa) = 115.89325 115.89325 59.81488
#
# Poissons Ratio (x) = 0.48105 0.11592
# Poissons Ratio (y) = 0.48105 0.11592
# Poissons Ratio (z) = 0.22460 0.22460
#
# Static dielectric constant tensor:
#      x y z
#    x 1.872580 0.000000 0.000000 
#    y 0.000000 1.872580 0.000000 
#    z 0.000000 0.000000 1.847710 
# 
# From -- ./inp_files/5191.got.cif
#   From: 2010.05.17/outbox.cif.g08.bks.cpg/sg86_3_cif.got.tgz:5191.got - 2010.06.03 19:03:11.
