data_PCOD9545179
_publ_section_title
;
Structure prediction by ZEFSAII (Michael W. Deem and Ramdas Pophale) SiO2 
 PCOD9545179
Probable space group: P 42/N
;
_chemical_formula_sum "Si O2"
_cell_formula_units_Z 50
_cell_length_a 9.182399
_cell_length_b 9.182399
_cell_length_c 28.825638
_cell_angle_alpha 90.000000
_cell_angle_beta 90.000000
_cell_angle_gamma 90.000000
_cell_volume 2430.475505
_symmetry_space_group_name_H-M "P 42/N"
_symmetry_group_IT_number 86
_space_group.IT_coordinate_system_code '2'
_symmetry_cell_setting 'tetragonal'
loop_
_space_group_symop_operation_xyz
x,y,z
-y,1/2+x,1/2+z
1/2-x,1/2-y,z
1/2+y,-x,1/2+z
-x,-y,-z
y,1/2-x,1/2-z
1/2+x,1/2+y,-z
1/2-y,x,1/2-z
loop_
_atom_site_type_symbol
_atom_site_label
_atom_site_fract_x
_atom_site_fract_y
_atom_site_fract_z
Si Si1 0.250000 0.250000 0.250000
Si Si2 0.250000 0.750000 0.788388
Si Si3 0.291763 0.471201 0.730953
Si Si4 0.551167 0.699332 0.930617
Si Si5 0.368576 0.622377 0.646255
Si Si6 0.687570 0.548705 0.671863
Si Si7 0.503039 0.308923 0.452138
Si Si8 0.750000 0.250000 0.026242
O O1 0.383877 0.269184 0.215502
O O2 0.311262 0.626496 0.754635
O O3 0.376610 0.819952 0.819580
O O4 0.409484 0.361983 0.751994
O O5 0.301452 0.487709 0.675345
O O6 0.574642 0.731091 0.876329
O O7 0.608374 0.847603 0.956042
O O8 0.644756 0.556497 0.942753
O O9 0.382821 0.690068 0.943295
O O10 0.250000 0.750000 0.652470
O O11 0.530318 0.627202 0.668936
O O12 0.410316 0.623002 0.591867
O O13 0.616119 0.304131 0.494097
#
# Coordination Sequence:
#
# PCOD9545179 Si02
#       8
#     2   4   8   8   8   8   8   4
#     4  12  24  40  64  96 120 168 240 260 328 392
#     4  12  23  39  60  88 128 170 228 259 339 400
#     4  11  24  40  61  90 130 179 216 274 336 395
#     4  10  23  42  65  95 142 164 216 282 326 390
#     4  11  21  40  66  92 129 167 228 280 324 396
#     4  11  24  40  64  98 127 178 219 282 329 390
#     4  10  22  41  67  99 125 173 221 270 336 391
#     4  12  21  41  70 100 130 180 216 267 345 408
#
# _framework density 20.572106999999999
#
# number of rings (size 3 to 8) (size 9 to 14) (size 15 to 20)
#    0.000    1.120    3.200    4.320    0.000    1.280 
#    0.000    0.000    0.000    1.920    0.000    0.000 
#    0.000    0.000    0.000    0.000    0.000    0.000 
#
# Total GULP energy -278918.636969 kJ/mol
# GULP energy per Si atom -5578.372739 kJ/mol
# Density = 2.052528 g / cm^3
# Si number density = 20.572107 Si / 1000 Ang^3
#
#
#
# Elastic Constant Matrix: (Units=GPa)
#
#
# Indices 1 2 3 4 5 6 
#
# 1 86.4698 9.6335 34.6839 0.0000 0.0000 -2.2977
# 2 9.6335 86.4698 34.6839 0.0000 0.0000 2.2977
# 3 34.6839 34.6839 87.2154 0.0000 0.0000 0.0000
# 4 0.0000 0.0000 0.0000 10.6294 0.0000 0.0000
# 5 0.0000 0.0000 0.0000 0.0000 10.6294 0.0000
# 6 -2.2977 2.2977 0.0000 0.0000 0.0000 25.9048
#
#
#
# Elastic Compliance Matrix: (Units=1/GPa)
#
#
# Indices 1 2 3 4 5 6 
#
# 1 0.013839 0.000755 -0.005804 0.000000 0.000000 0.001161
# 2 0.000755 0.013839 -0.005804 0.000000 0.000000 -0.001161
# 3 -0.005804 -0.005804 0.016082 0.000000 0.000000 0.000000
# 4 0.000000 0.000000 0.000000 0.094079 0.000000 0.000000
# 5 0.000000 0.000000 0.000000 0.000000 0.094079 0.000000
# 6 0.001161 -0.001161 0.000000 0.000000 0.000000 0.038809
#
#
# Mechanical properties :
#
#
# Convention : Reuss Voigt Hill
#
# Bulk Modulus (GPa) = 45.33999 46.46196 45.90098
# Shear Modulus (GPa) = 16.67864 21.50965 19.09414
#
# Velocity S-wave (km/s) = 2.85044 3.23704 3.04987
# Velocity P-wave (km/s) = 5.73766 6.05022 5.89601
#
# Compressibility (1/GPa) = 0.02205558
#
# Stress axis : x y z
#
# Youngs Moduli (GPa) = 72.25698 72.25698 62.18041
#
# Poissons Ratio (x) = -0.05458 0.36090
# Poissons Ratio (y) = -0.05458 0.36090
# Poissons Ratio (z) = 0.41939 0.41939
#
# Static dielectric constant tensor:
#      x y z
#    x 1.763990 0.000000 0.000000 
#    y 0.000000 1.763990 0.000000 
#    z 0.000000 0.000000 1.744630 
# 
# From -- ./inp_files/5264.got.cif
#   From: 2010.05.17/outbox.cif.g08.bks.cpg/sg86_3_cif.got.tgz:5264.got - 2010.06.03 19:03:11.
