data_PCOD9545831
_publ_section_title
;
Structure prediction by ZEFSAII (Michael W. Deem and Ramdas Pophale) SiO2 
 PCOD9545831
Probable space group: I 4/M
;
_chemical_formula_sum "Si O2"
_cell_formula_units_Z 64
_cell_length_a 18.017660
_cell_length_b 18.017660
_cell_length_c 8.357350
_cell_angle_alpha 90.000000
_cell_angle_beta 90.000000
_cell_angle_gamma 90.000000
_cell_volume 2713.097275
_symmetry_space_group_name_H-M "I 4/M"
_symmetry_group_IT_number 87
_symmetry_cell_setting 'tetragonal'
loop_
_space_group_symop_operation_xyz
x,y,z
-y,x,z
-x,-y,z
y,-x,z
-x,-y,-z
y,-x,-z
x,y,-z
-y,x,-z
1/2+x,1/2+y,1/2+z
1/2-y,1/2+x,1/2+z
1/2-x,1/2-y,1/2+z
1/2+y,1/2-x,1/2+z
1/2-x,1/2-y,1/2-z
1/2+y,1/2-x,1/2-z
1/2+x,1/2+y,1/2-z
1/2-y,1/2+x,1/2-z
loop_
_atom_site_type_symbol
_atom_site_label
_atom_site_fract_x
_atom_site_fract_y
_atom_site_fract_z
Si Si1 0.383532 0.465739 0.692052
Si Si2 0.979803 0.608930 0.819878
Si Si3 0.216904 0.630853 0.186141
Si Si4 0.772199 0.857836 0.311444
O O1 0.452389 0.411548 0.734525
O O2 0.373981 0.462858 0.500000
O O3 0.310781 0.435714 0.777166
O O4 0.917302 0.544667 0.798225
O O5 0.939087 0.685460 0.780862
O O6 0.008796 0.608029 0.000000
O O7 0.158993 0.698411 0.213197
O O8 0.294459 0.667840 0.237911
O O9 0.221627 0.611919 0.000000
O O10 0.756459 0.848252 0.500000
#
# Coordination Sequence:
#
# PCOD9545831 Si02
#       4
#    16  16  16  16
#     4   9  19  36  56  78 107 144 183 221 265 322
#     4  11  22  38  59  83 112 145 183 226 274 326
#     4  10  21  38  57  79 110 146 183 224 271 325
#     4  10  21  36  56  82 110 141 180 227 275 324
#
# _framework density 23.589275000000001
#
# number of rings (size 3 to 8) (size 9 to 14) (size 15 to 20)
#    0.000    2.000    0.000    5.250    0.000    6.000 
#    0.000    6.250    0.000    0.000    0.000    0.000 
#    0.000    0.000    0.000    0.000    0.000    0.000 
#
# Total GULP energy -179079.351491 kJ/mol
# GULP energy per Si atom -5596.229734 kJ/mol
# Density = 2.353558 g / cm^3
# Si number density = 23.589275 Si / 1000 Ang^3
#
#
#
# Elastic Constant Matrix: (Units=GPa)
#
#
# Indices 1 2 3 4 5 6 
#
# 1 21.6957 56.3778 3.7050 0.0000 0.0000 2.7785
# 2 56.3778 21.6957 3.7050 0.0000 0.0000 -2.7785
# 3 3.7050 3.7050 29.3325 0.0000 0.0000 0.0000
# 4 0.0000 0.0000 0.0000 25.3479 0.0000 0.0000
# 5 0.0000 0.0000 0.0000 0.0000 25.3479 0.0000
# 6 2.7785 -2.7785 0.0000 0.0000 0.0000 58.0785
#
#
#
# Elastic Compliance Matrix: (Units=1/GPa)
#
#
# Indices 1 2 3 4 5 6 
#
# 1 -0.007825 0.020789 -0.001637 0.000000 0.000000 0.001369
# 2 0.020789 -0.007825 -0.001637 0.000000 0.000000 -0.001369
# 3 -0.001637 -0.001637 0.034506 0.000000 0.000000 0.000000
# 4 0.000000 0.000000 0.000000 0.039451 0.000000 0.000000
# 5 0.000000 0.000000 0.000000 0.000000 0.039451 0.000000
# 6 0.001369 -0.001369 0.000000 0.000000 0.000000 0.017087
#
#
# Mechanical properties :
#
#
# Convention : Reuss Voigt Hill
#
# Bulk Modulus (GPa) = 18.55858 22.25548 20.40703
# Shear Modulus (GPa) = 51.13643 22.35061 36.74352
#
# Velocity S-wave (km/s) = 4.66100 3.08147 3.95097
# Velocity P-wave (km/s) = 6.07050 4.70273 5.42986
#
# Compressibility (1/GPa) = 0.05388342
#
# Stress axis : x y z
#
# Youngs Moduli (GPa) = -127.79504 -127.79504 28.98086
#
# Poissons Ratio (x) = 2.65672 0.04745
# Poissons Ratio (y) = 2.65672 0.04745
# Poissons Ratio (z) = -0.20926 -0.20926
#
# Static dielectric constant tensor:
#      x y z
#    x 1.917670 0.000000 0.000000 
#    y 0.000000 1.917670 0.000000 
#    z 0.000000 0.000000 1.817220 
# 
# From -- ./inp_files/923.got.cif
#   From: 2010.05.17/outbox.cif.g08.bks.cpg/sg87_1_cif.got.tgz:923.got - 2010.06.03 19:07:00.
