data_PCOD9545160
_publ_section_title
;
Structure prediction by ZEFSAII (Michael W. Deem and Ramdas Pophale) SiO2 
 PCOD9545160
Probable space group: P 42/N
;
_chemical_formula_sum "Si O2"
_cell_formula_units_Z 40
_cell_length_a 7.846534
_cell_length_b 7.846534
_cell_length_c 27.925655
_cell_angle_alpha 90.000000
_cell_angle_beta 90.000000
_cell_angle_gamma 90.000000
_cell_volume 1719.329403
_symmetry_space_group_name_H-M "P 42/N"
_symmetry_group_IT_number 86
_space_group.IT_coordinate_system_code '2'
_symmetry_cell_setting 'tetragonal'
loop_
_space_group_symop_operation_xyz
x,y,z
-y,1/2+x,1/2+z
1/2-x,1/2-y,z
1/2+y,-x,1/2+z
-x,-y,-z
y,1/2-x,1/2-z
1/2+x,1/2+y,-z
1/2-y,x,1/2-z
loop_
_atom_site_type_symbol
_atom_site_label
_atom_site_fract_x
_atom_site_fract_y
_atom_site_fract_z
Si Si1 0.250000 0.750000 0.151738
Si Si2 0.497521 0.010499 0.695139
Si Si3 0.250000 0.250000 0.250000
Si Si4 0.590281 0.005251 0.926447
Si Si5 0.431158 0.657195 0.908199
Si Si6 0.754252 0.943225 0.022779
Si Si7 0.750000 0.750000 0.250000
O O1 0.110862 0.837619 0.184586
O O2 0.329759 0.893486 0.117254
O O3 0.642293 0.896421 0.721572
O O4 0.571743 0.057044 0.643156
O O5 0.412441 0.174252 0.720695
O O6 0.397180 0.059734 0.937780
O O7 0.569359 0.804923 0.914750
O O8 0.691187 0.042523 0.975754
O O9 0.250000 0.750000 0.912692
O O10 0.419569 0.518832 0.950874
O O11 0.750000 0.750000 0.006813
#
# Coordination Sequence:
#
# PCOD9545160 Si02
#       7
#     4   8   2   8   8   8   2
#     4  12  26  44  72 102 148 190 244 298 370 450
#     4  12  28  49  79 107 147 185 245 309 390 457
#     4  12  28  52  84 108 146 192 244 324 396 468
#     4  10  24  39  63 102 142 192 245 291 356 428
#     4  10  24  42  70  99 141 188 247 300 360 443
#     4  10  22  39  63  94 145 189 246 293 351 416
#     4  12  32  48  80 116 142 184 244 320 396 468
#
# _framework density 23.264883999999999
#
# number of rings (size 3 to 8) (size 9 to 14) (size 15 to 20)
#    0.000    1.200    0.000    3.600   19.600    0.800 
#    0.000    0.000    0.000    0.000    0.000    0.000 
#    0.000    0.000    0.000    0.000    0.000    0.000 
#
# Total GULP energy -223619.461344 kJ/mol
# GULP energy per Si atom -5590.486534 kJ/mol
# Density = 2.321193 g / cm^3
# Si number density = 23.264884 Si / 1000 Ang^3
#
#
#
# Elastic Constant Matrix: (Units=GPa)
#
#
# Indices 1 2 3 4 5 6 
#
# 1 88.2101 20.1195 26.9937 0.0000 0.0000 -8.6944
# 2 20.1195 88.2101 26.9937 0.0000 0.0000 8.6944
# 3 26.9937 26.9937 100.3395 0.0000 0.0000 0.0000
# 4 0.0000 0.0000 0.0000 49.9391 0.0000 0.0000
# 5 0.0000 0.0000 0.0000 0.0000 49.9391 0.0000
# 6 -8.6944 8.6944 0.0000 0.0000 0.0000 25.3882
#
#
#
# Elastic Compliance Matrix: (Units=1/GPa)
#
#
# Indices 1 2 3 4 5 6 
#
# 1 0.013377 -0.002717 -0.002868 0.000000 0.000000 0.005511
# 2 -0.002717 0.013377 -0.002868 0.000000 0.000000 -0.005511
# 3 -0.002868 -0.002868 0.011509 0.000000 0.000000 0.000000
# 4 0.000000 0.000000 0.000000 0.020024 0.000000 0.000000
# 5 0.000000 0.000000 0.000000 0.000000 0.020024 0.000000
# 6 0.005511 -0.005511 0.000000 0.000000 0.000000 0.043163
#
#
# Mechanical properties :
#
#
# Convention : Reuss Voigt Hill
#
# Bulk Modulus (GPa) = 46.82012 47.21932 47.01972
# Shear Modulus (GPa) = 34.36430 38.56349 36.46389
#
# Velocity S-wave (km/s) = 3.84746 4.07576 3.96325
# Velocity P-wave (km/s) = 6.31710 6.51840 6.41854
#
# Compressibility (1/GPa) = 0.02135834
#
# Stress axis : x y z
#
# Youngs Moduli (GPa) = 74.75473 74.75473 86.88686
#
# Poissons Ratio (x) = 0.20309 0.24918
# Poissons Ratio (y) = 0.20309 0.24918
# Poissons Ratio (z) = 0.21439 0.21439
#
# Static dielectric constant tensor:
#      x y z
#    x 1.969440 0.000000 0.000000 
#    y 0.000000 1.969440 0.000000 
#    z 0.000000 0.000000 1.832700 
# 
# From -- ./inp_files/4884.got.cif
#   From: 2010.05.17/outbox.cif.g08.bks.cpg/sg86_3_cif.got.tgz:4884.got - 2010.06.03 19:03:11.
