data_PCOD9545339
_publ_section_title
;
Structure prediction by ZEFSAII (Michael W. Deem and Ramdas Pophale) SiO2 
 PCOD9545339
Probable space group: P 42/N
;
_chemical_formula_sum "Si O2"
_cell_formula_units_Z 34
_cell_length_a 12.681345
_cell_length_b 12.681345
_cell_length_c 7.546693
_cell_angle_alpha 90.000000
_cell_angle_beta 90.000000
_cell_angle_gamma 90.000000
_cell_volume 1213.632838
_symmetry_space_group_name_H-M "P 42/N"
_symmetry_group_IT_number 86
_space_group.IT_coordinate_system_code '2'
_symmetry_cell_setting 'tetragonal'
loop_
_space_group_symop_operation_xyz
x,y,z
-y,1/2+x,1/2+z
1/2-x,1/2-y,z
1/2+y,-x,1/2+z
-x,-y,-z
y,1/2-x,1/2-z
1/2+x,1/2+y,-z
1/2-y,x,1/2-z
loop_
_atom_site_type_symbol
_atom_site_label
_atom_site_fract_x
_atom_site_fract_y
_atom_site_fract_z
Si Si1 0.250000 0.250000 0.250000
Si Si2 0.408333 0.933481 0.240012
Si Si3 0.575820 0.814376 0.019902
Si Si4 0.250513 0.875075 0.986090
Si Si5 0.124600 0.494340 0.714688
O O1 0.191842 0.158381 0.361658
O O2 0.293160 0.939843 0.155364
O O3 0.463628 0.870451 0.071051
O O4 0.406238 0.864489 0.417005
O O5 0.499791 0.016730 0.278697
O O6 0.544424 0.692160 0.048695
O O7 0.638015 0.887596 0.163454
O O8 0.250000 0.750000 0.016255
O O9 0.315600 0.911747 0.812552
#
# Coordination Sequence:
#
# PCOD9545339 Si02
#       5
#     2   8   8   8   8
#     4  12  20  34  60 108 140 170 232 304 336 406
#     4   9  22  41  66  98 134 189 230 286 353 418
#     4   9  20  35  62  98 132 179 223 284 345 408
#     4  11  21  41  67 101 133 183 238 289 351 419
#     4   9  19  42  69  94 133 189 234 274 359 422
#
# _framework density 28.015066000000001
#
# number of rings (size 3 to 8) (size 9 to 14) (size 15 to 20)
#    1.412    0.941    0.000    2.824    0.000    0.000 
#    8.471    0.000    0.000    9.882    0.000    0.000 
#    0.000    0.000    0.000    0.000    0.000    0.000 
#
# Total GULP energy -189432.479595 kJ/mol
# GULP energy per Si atom -5571.543518 kJ/mol
# Density = 2.795130 g / cm^3
# Si number density = 28.015066 Si / 1000 Ang^3
#
#
#
# Elastic Constant Matrix: (Units=GPa)
#
#
# Indices 1 2 3 4 5 6 
#
# 1 112.5278 32.3493 21.0523 0.0000 0.0000 -2.1216
# 2 32.3493 112.5278 21.0523 0.0000 0.0000 2.1216
# 3 21.0523 21.0523 71.0726 0.0000 0.0000 0.0000
# 4 0.0000 0.0000 0.0000 46.5970 0.0000 0.0000
# 5 0.0000 0.0000 0.0000 0.0000 46.5970 0.0000
# 6 -2.1216 2.1216 0.0000 0.0000 0.0000 46.3933
#
#
#
# Elastic Compliance Matrix: (Units=1/GPa)
#
#
# Indices 1 2 3 4 5 6 
#
# 1 0.010027 -0.002475 -0.002237 0.000000 0.000000 0.000572
# 2 -0.002475 0.010027 -0.002237 0.000000 0.000000 -0.000572
# 3 -0.002237 -0.002237 0.015395 0.000000 0.000000 0.000000
# 4 0.000000 0.000000 0.000000 0.021461 0.000000 0.000000
# 5 0.000000 0.000000 0.000000 0.000000 0.021461 0.000000
# 6 0.000572 -0.000572 0.000000 0.000000 0.000000 0.021607
#
#
# Mechanical properties :
#
#
# Convention : Reuss Voigt Hill
#
# Bulk Modulus (GPa) = 46.39933 49.44844 47.92388
# Shear Modulus (GPa) = 41.30143 42.69575 41.99859
#
# Velocity S-wave (km/s) = 3.84377 3.90812 3.87608
# Velocity P-wave (km/s) = 6.02476 6.16875 6.09718
#
# Compressibility (1/GPa) = 0.02155204
#
# Stress axis : x y z
#
# Youngs Moduli (GPa) = 99.72579 99.72579 64.95429
#
# Poissons Ratio (x) = 0.24681 0.14531
# Poissons Ratio (y) = 0.24681 0.14531
# Poissons Ratio (z) = 0.22310 0.22310
#
# Static dielectric constant tensor:
#      x y z
#    x 2.286190 0.000000 0.000000 
#    y 0.000000 2.286190 0.000000 
#    z 0.000000 0.000000 2.355700 
# 
# From -- ./inp_files/968.got.cif
#   From: 2010.05.17/outbox.cif.g08.bks.cpg/sg86_1_cif.got.tgz:968.got - 2010.06.03 19:03:11.
