data_PCOD9545301
_publ_section_title
;
Structure prediction by ZEFSAII (Michael W. Deem and Ramdas Pophale) SiO2 
 PCOD9545301
Probable space group: P 42/N
;
_chemical_formula_sum "Si O2"
_cell_formula_units_Z 60
_cell_length_a 17.276161
_cell_length_b 17.276161
_cell_length_c 8.888351
_cell_angle_alpha 90.000000
_cell_angle_beta 90.000000
_cell_angle_gamma 90.000000
_cell_volume 2652.868249
_symmetry_space_group_name_H-M "P 42/N"
_symmetry_group_IT_number 86
_space_group.IT_coordinate_system_code '2'
_symmetry_cell_setting 'tetragonal'
loop_
_space_group_symop_operation_xyz
x,y,z
-y,1/2+x,1/2+z
1/2-x,1/2-y,z
1/2+y,-x,1/2+z
-x,-y,-z
y,1/2-x,1/2-z
1/2+x,1/2+y,-z
1/2-y,x,1/2-z
loop_
_atom_site_type_symbol
_atom_site_label
_atom_site_fract_x
_atom_site_fract_y
_atom_site_fract_z
Si Si1 0.670493 0.660133 0.801607
Si Si2 0.180043 0.422485 0.612410
Si Si3 0.394113 0.902203 0.289325
Si Si4 0.583006 0.071971 0.363823
Si Si5 0.250000 0.750000 0.024618
Si Si6 0.447017 0.446536 0.339804
Si Si7 0.855138 0.286739 0.222286
Si Si8 0.638896 0.552726 0.349329
O O1 0.653622 0.736931 0.701641
O O2 0.632494 0.587899 0.722374
O O3 0.627027 0.663699 0.961152
O O4 0.154157 0.512455 0.621165
O O5 0.123101 0.387238 0.739652
O O6 0.272729 0.423086 0.617986
O O7 0.425454 0.906639 0.461444
O O8 0.304994 0.872326 0.288321
O O9 0.464011 0.855993 0.210738
O O10 0.387904 0.983031 0.196995
O O11 0.514423 0.028001 0.276618
O O12 0.584150 0.147304 0.254835
O O13 0.196092 0.696858 0.923177
O O14 0.300358 0.698471 0.133062
O O15 0.424167 0.455617 0.514270
#
# Coordination Sequence:
#
# PCOD9545301 Si02
#       8
#     8   8   8   8   4   8   8   8
#     4  11  25  47  78 110 146 198 260 316 380 462
#     4  12  28  51  75 111 156 197 256 321 392 457
#     4  12  26  48  72 111 150 198 257 312 383 461
#     4  12  27  47  75 108 150 203 248 319 376 465
#     4  10  24  46  62 110 144 184 244 310 364 448
#     4  12  26  48  75 108 147 196 251 308 386 459
#     4  11  26  43  75 102 150 195 249 303 378 453
#     4  12  30  48  76 113 151 200 251 327 391 460
#
# _framework density 22.617031000000001
#
# number of rings (size 3 to 8) (size 9 to 14) (size 15 to 20)
#    0.000    0.400    5.333    1.600   11.200    1.333 
#    0.000    0.000    0.000    0.000    0.000    0.000 
#    0.000    0.000    0.000    0.000    0.000    0.000 
#
# Total GULP energy -334295.269537 kJ/mol
# GULP energy per Si atom -5571.587826 kJ/mol
# Density = 2.256555 g / cm^3
# Si number density = 22.617031 Si / 1000 Ang^3
#
#
#
# Elastic Constant Matrix: (Units=GPa)
#
#
# Indices 1 2 3 4 5 6 
#
# 1 82.2803 -0.9443 25.7791 0.0000 0.0000 -0.5096
# 2 -0.9443 82.2803 25.7791 0.0000 0.0000 0.5096
# 3 25.7791 25.7791 118.0553 0.0000 0.0000 0.0000
# 4 0.0000 0.0000 0.0000 93.4922 0.0000 0.0000
# 5 0.0000 0.0000 0.0000 0.0000 93.4922 0.0000
# 6 -0.5096 0.5096 0.0000 0.0000 0.0000 39.6571
#
#
#
# Elastic Compliance Matrix: (Units=1/GPa)
#
#
# Indices 1 2 3 4 5 6 
#
# 1 0.013144 0.001126 -0.003116 0.000000 0.000000 0.000154
# 2 0.001126 0.013144 -0.003116 0.000000 0.000000 -0.000154
# 3 -0.003116 -0.003116 0.009831 0.000000 0.000000 0.000000
# 4 0.000000 0.000000 0.000000 0.010696 0.000000 0.000000
# 5 0.000000 0.000000 0.000000 0.000000 0.010696 0.000000
# 6 0.000154 -0.000154 0.000000 0.000000 0.000000 0.025220
#
#
# Mechanical properties :
#
#
# Convention : Reuss Voigt Hill
#
# Bulk Modulus (GPa) = 38.59942 42.64931 40.62436
# Shear Modulus (GPa) = 49.22285 60.79510 55.00897
#
# Velocity S-wave (km/s) = 4.67021 5.19024 4.93708
# Velocity P-wave (km/s) = 6.79594 7.40380 7.10637
#
# Compressibility (1/GPa) = 0.02590712
#
# Stress axis : x y z
#
# Youngs Moduli (GPa) = 76.08180 76.08180 101.71407
#
# Poissons Ratio (x) = -0.08568 0.31695
# Poissons Ratio (y) = -0.08568 0.31695
# Poissons Ratio (z) = 0.23707 0.23707
#
# Static dielectric constant tensor:
#      x y z
#    x 1.557240 0.000000 0.000000 
#    y 0.000000 1.557240 0.000000 
#    z 0.000000 0.000000 1.874100 
# 
# From -- ./inp_files/1492.got.cif
#   From: 2010.05.17/outbox.cif.g08.bks.cpg/sg86_1_cif.got.tgz:1492.got - 2010.06.03 19:03:11.
