data_PCOD9545867
_publ_section_title
;
Structure prediction by ZEFSAII (Michael W. Deem and Ramdas Pophale) SiO2 
 PCOD9545867
Probable space group: I 4/M
;
_chemical_formula_sum "Si O2"
_cell_formula_units_Z 64
_cell_length_a 19.786653
_cell_length_b 19.786653
_cell_length_c 8.871429
_cell_angle_alpha 90.000000
_cell_angle_beta 90.000000
_cell_angle_gamma 90.000000
_cell_volume 3473.267690
_symmetry_space_group_name_H-M "I 4/M"
_symmetry_group_IT_number 87
_symmetry_cell_setting 'tetragonal'
loop_
_space_group_symop_operation_xyz
x,y,z
-y,x,z
-x,-y,z
y,-x,z
-x,-y,-z
y,-x,-z
x,y,-z
-y,x,-z
1/2+x,1/2+y,1/2+z
1/2-y,1/2+x,1/2+z
1/2-x,1/2-y,1/2+z
1/2+y,1/2-x,1/2+z
1/2-x,1/2-y,1/2-z
1/2+y,1/2-x,1/2-z
1/2+x,1/2+y,1/2-z
1/2-y,1/2+x,1/2-z
loop_
_atom_site_type_symbol
_atom_site_label
_atom_site_fract_x
_atom_site_fract_y
_atom_site_fract_z
Si Si1 0.145016 0.735993 0.679802
Si Si2 0.739395 0.507334 0.673632
Si Si3 0.110485 0.023769 0.334185
Si Si4 0.359015 0.259196 0.820186
O O1 0.148844 0.727043 0.500000
O O2 0.195955 0.684521 0.760838
O O3 0.175242 0.811498 0.713268
O O4 0.069060 0.725130 0.738880
O O5 0.759266 0.505765 0.500000
O O6 0.661245 0.527720 0.697745
O O7 0.743313 0.432768 0.745395
O O8 0.145015 0.031148 0.500000
O O9 0.076482 0.950148 0.330779
O O10 0.366951 0.256748 0.000000
#
# Coordination Sequence:
#
# PCOD9545867 Si02
#       4
#    16  16  16  16
#     4  10  21  38  59  82 110 144 183 228 277 327
#     4  12  23  33  51  79 109 142 181 222 267 322
#     4   9  18  32  48  68  99 139 179 218 263 315
#     4  10  21  38  59  82 110 144 183 228 277 327
#
# _framework density 18.426452000000001
#
# number of rings (size 3 to 8) (size 9 to 14) (size 15 to 20)
#    0.000    1.750    0.000    6.000    0.000   10.000 
#    0.000    1.250    0.000    0.750    0.000    5.250 
#    0.000    0.000    0.000    0.000    0.000    0.000 
#
# Total GULP energy -178604.603673 kJ/mol
# GULP energy per Si atom -5581.393865 kJ/mol
# Density = 1.838451 g / cm^3
# Si number density = 18.426452 Si / 1000 Ang^3
#
#
#
# Elastic Constant Matrix: (Units=GPa)
#
#
# Indices 1 2 3 4 5 6 
#
# 1 89.4776 17.9238 34.8664 0.0000 0.0000 0.6003
# 2 17.9238 89.4776 34.8664 0.0000 0.0000 -0.6003
# 3 34.8664 34.8664 82.8135 0.0000 0.0000 0.0000
# 4 0.0000 0.0000 0.0000 29.7187 0.0000 0.0000
# 5 0.0000 0.0000 0.0000 0.0000 29.7187 0.0000
# 6 0.6003 -0.6003 0.0000 0.0000 0.0000 13.6483
#
#
#
# Elastic Compliance Matrix: (Units=1/GPa)
#
#
# Indices 1 2 3 4 5 6 
#
# 1 0.013400 -0.000586 -0.005395 0.000000 0.000000 -0.000615
# 2 -0.000586 0.013400 -0.005395 0.000000 0.000000 0.000615
# 3 -0.005395 -0.005395 0.016618 0.000000 0.000000 0.000000
# 4 0.000000 0.000000 0.000000 0.033649 0.000000 0.000000
# 5 0.000000 0.000000 0.000000 0.000000 0.033649 0.000000
# 6 -0.000615 0.000615 0.000000 0.000000 0.000000 0.073323
#
#
# Mechanical properties :
#
#
# Convention : Reuss Voigt Hill
#
# Bulk Modulus (GPa) = 48.38889 48.56467 48.47678
# Shear Modulus (GPa) = 23.39961 26.22459 24.81210
#
# Velocity S-wave (km/s) = 3.56742 3.77663 3.67352
# Velocity P-wave (km/s) = 6.57923 6.74021 6.66020
#
# Compressibility (1/GPa) = 0.02066590
#
# Stress axis : x y z
#
# Youngs Moduli (GPa) = 74.62851 74.62851 60.17564
#
# Poissons Ratio (x) = 0.04374 0.32464
# Poissons Ratio (y) = 0.04374 0.32464
# Poissons Ratio (z) = 0.40261 0.40261
#
# Static dielectric constant tensor:
#      x y z
#    x 1.653950 0.000000 0.000000 
#    y 0.000000 1.653950 0.000000 
#    z 0.000000 0.000000 1.636840 
# 
# From -- ./inp_files/918.got.cif
#   From: 2010.05.17/outbox.cif.g08.bks.cpg/sg87_1_cif.got.tgz:918.got - 2010.06.03 19:07:00.
