data_PCOD9545329
_publ_section_title
;
Structure prediction by ZEFSAII (Michael W. Deem and Ramdas Pophale) SiO2 
 PCOD9545329
Probable space group: P 42/N
;
_chemical_formula_sum "Si O2"
_cell_formula_units_Z 50
_cell_length_a 17.042682
_cell_length_b 17.042682
_cell_length_c 7.606416
_cell_angle_alpha 90.000000
_cell_angle_beta 90.000000
_cell_angle_gamma 90.000000
_cell_volume 2209.306421
_symmetry_space_group_name_H-M "P 42/N"
_symmetry_group_IT_number 86
_space_group.IT_coordinate_system_code '2'
_symmetry_cell_setting 'tetragonal'
loop_
_space_group_symop_operation_xyz
x,y,z
-y,1/2+x,1/2+z
1/2-x,1/2-y,z
1/2+y,-x,1/2+z
-x,-y,-z
y,1/2-x,1/2-z
1/2+x,1/2+y,-z
1/2-y,x,1/2-z
loop_
_atom_site_type_symbol
_atom_site_label
_atom_site_fract_x
_atom_site_fract_y
_atom_site_fract_z
Si Si1 0.549509 0.557213 0.115307
Si Si2 0.871804 0.706445 0.494014
Si Si3 0.750000 0.750000 0.750000
Si Si4 0.649623 0.175322 0.609215
Si Si5 0.875542 0.028057 0.405814
Si Si6 0.572675 0.724513 0.150809
Si Si7 0.141940 0.670428 0.802501
O O1 0.634564 0.566692 0.016888
O O2 0.559085 0.526601 0.314885
O O3 0.521702 0.647156 0.118092
O O4 0.500000 0.500000 0.000000
O O5 0.836243 0.749621 0.658972
O O6 0.907935 0.765970 0.355361
O O7 0.794114 0.658427 0.428531
O O8 0.590799 0.138181 0.749087
O O9 0.647359 0.268674 0.649976
O O10 0.737135 0.141818 0.642892
O O11 0.629301 0.164629 0.405378
O O12 0.877030 0.078519 0.583009
O O13 0.800695 0.970122 0.418780
#
# Coordination Sequence:
#
# PCOD9545329 Si02
#       7
#     8   8   2   8   8   8   8
#     4   9  22  41  63  90 128 173 211 267 336 405
#     4   9  20  37  65  91 123 162 215 276 332 383
#     4  12  20  34  72 104 124 150 228 308 316 378
#     4  11  20  35  60  91 124 160 213 270 316 377
#     4  11  22  38  63  91 122 177 209 257 336 387
#     4   9  20  42  63  85 119 170 213 254 333 397
#     4  11  20  36  59  90 127 160 214 267 314 385
#
# _framework density 22.631537000000002
#
# number of rings (size 3 to 8) (size 9 to 14) (size 15 to 20)
#    0.960    0.960    3.200    1.920    2.240    0.000 
#    5.760    0.000    0.000    2.880    0.000    0.000 
#    0.000    0.000    0.000    0.000    0.000    0.000 
#
# Total GULP energy -278872.743422 kJ/mol
# GULP energy per Si atom -5577.454868 kJ/mol
# Density = 2.258003 g / cm^3
# Si number density = 22.631537 Si / 1000 Ang^3
#
#
#
# Elastic Constant Matrix: (Units=GPa)
#
#
# Indices 1 2 3 4 5 6 
#
# 1 51.5896 3.9018 11.4172 0.0000 0.0000 -7.9376
# 2 3.9018 51.5896 11.4172 0.0000 0.0000 7.9376
# 3 11.4172 11.4172 98.1294 0.0000 0.0000 0.0000
# 4 0.0000 0.0000 0.0000 12.1877 0.0000 0.0000
# 5 0.0000 0.0000 0.0000 0.0000 12.1877 0.0000
# 6 -7.9376 7.9376 0.0000 0.0000 0.0000 21.5773
#
#
#
# Elastic Compliance Matrix: (Units=1/GPa)
#
#
# Indices 1 2 3 4 5 6 
#
# 1 0.021412 -0.002485 -0.002202 0.000000 0.000000 0.008791
# 2 -0.002485 0.021412 -0.002202 0.000000 0.000000 -0.008791
# 3 -0.002202 -0.002202 0.010703 0.000000 0.000000 0.000000
# 4 0.000000 0.000000 0.000000 0.082050 0.000000 0.000000
# 5 0.000000 0.000000 0.000000 0.000000 0.082050 0.000000
# 6 0.008791 -0.008791 0.000000 0.000000 0.000000 0.052813
#
#
# Mechanical properties :
#
#
# Convention : Reuss Voigt Hill
#
# Bulk Modulus (GPa) = 25.15818 28.30900 26.73359
# Shear Modulus (GPa) = 16.80867 20.82871 18.81869
#
# Velocity S-wave (km/s) = 2.72823 3.03700 2.88675
# Velocity P-wave (km/s) = 4.58965 4.98334 4.79054
#
# Compressibility (1/GPa) = 0.03974851
#
# Stress axis : x y z
#
# Youngs Moduli (GPa) = 46.70371 46.70371 93.43129
#
# Poissons Ratio (x) = 0.11604 0.20575
# Poissons Ratio (y) = 0.11604 0.20575
# Poissons Ratio (z) = 0.10285 0.10285
#
# Static dielectric constant tensor:
#      x y z
#    x 1.951500 0.000000 0.000000 
#    y 0.000000 1.951500 0.000000 
#    z 0.000000 0.000000 1.878520 
# 
# From -- ./inp_files/1506.got.cif
#   From: 2010.05.17/outbox.cif.g08.bks.cpg/sg86_1_cif.got.tgz:1506.got - 2010.06.03 19:03:11.
