data_PCOD9545445
_publ_section_title
;
Structure prediction by ZEFSAII (Michael W. Deem and Ramdas Pophale) SiO2 
 PCOD9545445
Probable space group: P 42/N
;
_chemical_formula_sum "Si O2"
_cell_formula_units_Z 26
_cell_length_a 8.252947
_cell_length_b 8.252947
_cell_length_c 13.864972
_cell_angle_alpha 90.000000
_cell_angle_beta 90.000000
_cell_angle_gamma 90.000000
_cell_volume 944.358968
_symmetry_space_group_name_H-M "P 42/N"
_symmetry_group_IT_number 86
_space_group.IT_coordinate_system_code '2'
_symmetry_cell_setting 'tetragonal'
loop_
_space_group_symop_operation_xyz
x,y,z
-y,1/2+x,1/2+z
1/2-x,1/2-y,z
1/2+y,-x,1/2+z
-x,-y,-z
y,1/2-x,1/2-z
1/2+x,1/2+y,-z
1/2-y,x,1/2-z
loop_
_atom_site_type_symbol
_atom_site_label
_atom_site_fract_x
_atom_site_fract_y
_atom_site_fract_z
Si Si1 0.926207 0.288979 0.202846
Si Si2 0.250000 0.250000 0.750000
Si Si3 0.430909 0.322760 0.028050
Si Si4 0.049739 0.632880 0.138770
O O1 0.750000 0.250000 0.161159
O O2 0.903874 0.223944 0.311772
O O3 0.052538 0.181592 0.143803
O O4 0.966018 0.464898 0.165346
O O5 0.245676 0.418899 0.690106
O O6 0.250000 0.250000 0.006220
O O7 0.500000 0.500000 0.000000
O O8 0.545350 0.194791 0.969846
#
# Coordination Sequence:
#
# PCOD9545445 Si02
#       4
#     8   2   8   8
#     4  12  28  46  78 119 160 224 289 365 465 553
#     4  12  20  48  72 108 148 222 276 352 432 544
#     4  12  28  53  84 123 175 233 303 384 476 567
#     4  12  26  49  78 114 168 221 294 368 459 557
#
# _framework density 27.531901000000001
#
# number of rings (size 3 to 8) (size 9 to 14) (size 15 to 20)
#    0.000    0.000    4.615    4.615    4.308    1.231 
#    0.000    0.000    0.000    0.000    0.000    0.000 
#    0.000    0.000    0.000    0.000    0.000    0.000 
#
# Total GULP energy -144990.640812 kJ/mol
# GULP energy per Si atom -5576.563108 kJ/mol
# Density = 2.746924 g / cm^3
# Si number density = 27.531901 Si / 1000 Ang^3
#
#
#
# Elastic Constant Matrix: (Units=GPa)
#
#
# Indices 1 2 3 4 5 6 
#
# 1 161.6454 16.8912 14.5772 0.0000 0.0000 -14.6690
# 2 16.8912 161.6454 14.5772 0.0000 0.0000 14.6690
# 3 14.5772 14.5772 97.0864 0.0000 0.0000 0.0000
# 4 0.0000 0.0000 0.0000 322.1546 0.0000 0.0000
# 5 0.0000 0.0000 0.0000 0.0000 322.1546 0.0000
# 6 -14.6690 14.6690 0.0000 0.0000 0.0000 51.6936
#
#
#
# Elastic Compliance Matrix: (Units=1/GPa)
#
#
# Indices 1 2 3 4 5 6 
#
# 1 0.006536 -0.000794 -0.000862 0.000000 0.000000 0.002080
# 2 -0.000794 0.006536 -0.000862 0.000000 0.000000 -0.002080
# 3 -0.000862 -0.000862 0.010559 0.000000 0.000000 0.000000
# 4 0.000000 0.000000 0.000000 0.003104 0.000000 0.000000
# 5 0.000000 0.000000 0.000000 0.000000 0.003104 0.000000
# 6 0.002080 -0.002080 0.000000 0.000000 0.000000 0.020525
#
#
# Mechanical properties :
#
#
# Convention : Reuss Voigt Hill
#
# Bulk Modulus (GPa) = 53.78006 56.94093 55.36049
# Shear Modulus (GPa) = 81.17065 164.15600 122.66333
#
# Velocity S-wave (km/s) = 5.43566 7.73003 6.68206
# Velocity P-wave (km/s) = 7.67928 10.01987 8.92662
#
# Compressibility (1/GPa) = 0.01859425
#
# Stress axis : x y z
#
# Youngs Moduli (GPa) = 153.00237 153.00237 94.70598
#
# Poissons Ratio (x) = 0.12148 0.08165
# Poissons Ratio (y) = 0.12148 0.08165
# Poissons Ratio (z) = 0.13191 0.13191
#
# Static dielectric constant tensor:
#      x y z
#    x 2.190410 0.000000 0.000000 
#    y 0.000000 2.190410 0.000000 
#    z 0.000000 0.000000 2.174600 
# 
# From -- ./inp_files/3296.got.cif
#   From: 2010.05.17/outbox.cif.g08.bks.cpg/sg86_2_cif.got.tgz:3296.got - 2010.06.03 19:03:11.
