data_PCOD9545218
_publ_section_title
;
Structure prediction by ZEFSAII (Michael W. Deem and Ramdas Pophale) SiO2 
 PCOD9545218
Probable space group: P 42/N
;
_chemical_formula_sum "Si O2"
_cell_formula_units_Z 54
_cell_length_a 14.236273
_cell_length_b 14.236273
_cell_length_c 11.415283
_cell_angle_alpha 90.000000
_cell_angle_beta 90.000000
_cell_angle_gamma 90.000000
_cell_volume 2313.552174
_symmetry_space_group_name_H-M "P 42/N"
_symmetry_group_IT_number 86
_space_group.IT_coordinate_system_code '2'
_symmetry_cell_setting 'tetragonal'
loop_
_space_group_symop_operation_xyz
x,y,z
-y,1/2+x,1/2+z
1/2-x,1/2-y,z
1/2+y,-x,1/2+z
-x,-y,-z
y,1/2-x,1/2-z
1/2+x,1/2+y,-z
1/2-y,x,1/2-z
loop_
_atom_site_type_symbol
_atom_site_label
_atom_site_fract_x
_atom_site_fract_y
_atom_site_fract_z
Si Si1 0.102328 0.281052 0.071077
Si Si2 0.055926 0.981823 0.381988
Si Si3 0.388201 0.210242 0.797852
Si Si4 0.750000 0.750000 0.750000
Si Si5 0.113117 0.891981 0.020771
Si Si6 0.070340 0.440361 0.362310
Si Si7 0.203567 0.564102 0.752092
Si Si8 0.250000 0.750000 0.380826
O O1 0.004116 0.334012 0.095668
O O2 0.183600 0.310098 0.162810
O O3 0.097159 0.171183 0.098891
O O4 0.123608 0.303892 0.936410
O O5 0.037076 0.050423 0.273057
O O6 0.031072 0.878290 0.339089
O O7 0.000000 0.000000 0.500000
O O8 0.316795 0.145560 0.727557
O O9 0.494393 0.207915 0.749062
O O10 0.059480 0.831515 0.118946
O O11 0.132078 0.988626 0.093877
O O12 0.188010 0.820332 0.963557
O O13 0.041281 0.930081 0.924824
O O14 0.211437 0.671711 0.790890
#
# Coordination Sequence:
#
# PCOD9545218 Si02
#       8
#     8   8   8   2   8   8   8   4
#     4  12  23  44  70 103 149 185 251 317 370 458
#     4  11  25  46  69 109 142 191 249 312 380 453
#     4  11  25  45  73 109 146 191 247 304 376 455
#     4  12  24  40  70 108 144 196 244 318 384 440
#     4  10  23  46  70 103 138 195 246 299 376 456
#     4  10  22  45  74  97 143 195 246 297 383 459
#     4  11  25  45  71 101 144 188 241 305 379 449
#     4  12  26  44  70 108 146 188 244 318 380 450
#
# _framework density 23.340731000000002
#
# number of rings (size 3 to 8) (size 9 to 14) (size 15 to 20)
#    0.000    1.037    2.963    3.111    2.074    1.185 
#    8.000    0.000    0.000    0.000    0.000    0.000 
#    0.000    0.000    0.000    0.000    0.000    0.000 
#
# Total GULP energy -301187.858825 kJ/mol
# GULP energy per Si atom -5577.552941 kJ/mol
# Density = 2.328761 g / cm^3
# Si number density = 23.340731 Si / 1000 Ang^3
#
#
#
# Elastic Constant Matrix: (Units=GPa)
#
#
# Indices 1 2 3 4 5 6 
#
# 1 85.3130 29.3200 31.8720 0.0000 0.0000 5.9855
# 2 29.3200 85.3130 31.8720 0.0000 0.0000 -5.9855
# 3 31.8720 31.8720 161.6302 0.0000 0.0000 0.0000
# 4 0.0000 0.0000 0.0000 15.8524 0.0000 0.0000
# 5 0.0000 0.0000 0.0000 0.0000 15.8524 0.0000
# 6 5.9855 -5.9855 0.0000 0.0000 0.0000 35.5854
#
#
#
# Elastic Compliance Matrix: (Units=1/GPa)
#
#
# Indices 1 2 3 4 5 6 
#
# 1 0.014162 -0.004364 -0.001932 0.000000 0.000000 -0.003116
# 2 -0.004364 0.014162 -0.001932 0.000000 0.000000 0.003116
# 3 -0.001932 -0.001932 0.006949 0.000000 0.000000 0.000000
# 4 0.000000 0.000000 0.000000 0.063082 0.000000 0.000000
# 5 0.000000 0.000000 0.000000 0.000000 0.063082 0.000000
# 6 -0.003116 0.003116 0.000000 0.000000 0.000000 0.029150
#
#
# Mechanical properties :
#
#
# Convention : Reuss Voigt Hill
#
# Bulk Modulus (GPa) = 53.14501 57.59822 55.37162
# Shear Modulus (GPa) = 23.43960 29.40418 26.42189
#
# Velocity S-wave (km/s) = 3.17241 3.55319 3.36818
# Velocity P-wave (km/s) = 6.01976 6.44703 6.23706
#
# Compressibility (1/GPa) = 0.01881644
#
# Stress axis : x y z
#
# Youngs Moduli (GPa) = 70.61306 70.61306 143.90719
#
# Poissons Ratio (x) = 0.30814 0.27803
# Poissons Ratio (y) = 0.30814 0.27803
# Poissons Ratio (z) = 0.13643 0.13643
#
# Static dielectric constant tensor:
#      x y z
#    x 1.969320 0.000000 0.000000 
#    y 0.000000 1.969320 0.000000 
#    z 0.000000 0.000000 1.868960 
# 
# From -- ./inp_files/2429.got.cif
#   From: 2010.05.17/outbox.cif.g08.bks.cpg/sg86_2_cif.got.tgz:2429.got - 2010.06.03 19:03:11.
