data_PCOD9545584
_publ_section_title
;
Structure prediction by ZEFSAII (Michael W. Deem and Ramdas Pophale) SiO2 
 PCOD9545584
Probable space group: I 4/M
;
_chemical_formula_sum "Si O2"
_cell_formula_units_Z 68
_cell_length_a 17.215831
_cell_length_b 17.215831
_cell_length_c 13.737615
_cell_angle_alpha 90.000000
_cell_angle_beta 90.000000
_cell_angle_gamma 90.000000
_cell_volume 4071.620783
_symmetry_space_group_name_H-M "I 4/M"
_symmetry_group_IT_number 87
_symmetry_cell_setting 'tetragonal'
loop_
_space_group_symop_operation_xyz
x,y,z
-y,x,z
-x,-y,z
y,-x,z
-x,-y,-z
y,-x,-z
x,y,-z
-y,x,-z
1/2+x,1/2+y,1/2+z
1/2-y,1/2+x,1/2+z
1/2-x,1/2-y,1/2+z
1/2+y,1/2-x,1/2+z
1/2-x,1/2-y,1/2-z
1/2+y,1/2-x,1/2-z
1/2+x,1/2+y,1/2-z
1/2-y,1/2+x,1/2-z
loop_
_atom_site_type_symbol
_atom_site_label
_atom_site_fract_x
_atom_site_fract_y
_atom_site_fract_z
Si Si1 0.088879 0.386343 0.113126
Si Si2 0.695287 0.253729 0.112619
Si Si3 0.219435 0.987408 0.883939
Si Si4 0.153875 0.829174 0.806789
Si Si5 0.500000 0.000000 0.250000
O O1 0.177681 0.358964 0.127510
O O2 0.036902 0.309347 0.130568
O O3 0.060769 0.454068 0.182890
O O4 0.079917 0.408612 0.000000
O O5 0.782149 0.223685 0.137070
O O6 0.671254 0.316478 0.192698
O O7 0.690417 0.277588 0.000000
O O8 0.198590 0.068543 0.835104
O O9 0.169308 0.916888 0.840308
O O10 0.206226 0.991820 0.000000
#
# Coordination Sequence:
#
# PCOD9545584 Si02
#       5
#    16  16  16  16   4
#     4   9  19  31  46  69  98 128 161 200 242 283
#     4   9  18  35  53  70  96 133 169 200 235 291
#     4  10  19  33  50  73 100 126 161 207 247 288
#     4  10  19  32  53  75  98 129 163 200 250 293
#     4  12  18  28  48  70 100 132 158 196 244 294
#
# _framework density 16.700965
#
# number of rings (size 3 to 8) (size 9 to 14) (size 15 to 20)
#    0.000    2.353    0.000    5.294    0.000    0.471 
#    0.000    2.353    0.000    8.471    0.000    1.647 
#    0.000    0.000    0.000    0.000    0.000    0.000 
#
# Total GULP energy -189703.927714 kJ/mol
# GULP energy per Si atom -5579.527286 kJ/mol
# Density = 1.666295 g / cm^3
# Si number density = 16.700965 Si / 1000 Ang^3
#
#
#
# Elastic Constant Matrix: (Units=GPa)
#
#
# Indices 1 2 3 4 5 6 
#
# 1 39.9670 9.7550 28.2486 0.0000 0.0000 7.2471
# 2 9.7550 39.9670 28.2486 0.0000 0.0000 -7.2471
# 3 28.2486 28.2486 99.7810 0.0000 0.0000 0.0000
# 4 0.0000 0.0000 0.0000 20.7706 0.0000 0.0000
# 5 0.0000 0.0000 0.0000 0.0000 20.7706 0.0000
# 6 7.2471 -7.2471 0.0000 0.0000 0.0000 9.8664
#
#
#
# Elastic Compliance Matrix: (Units=1/GPa)
#
#
# Indices 1 2 3 4 5 6 
#
# 1 0.040380 -0.010730 -0.008394 0.000000 0.000000 -0.037542
# 2 -0.010730 0.040380 -0.008394 0.000000 0.000000 0.037542
# 3 -0.008394 -0.008394 0.014775 0.000000 0.000000 0.000000
# 4 0.000000 0.000000 0.000000 0.048145 0.000000 0.000000
# 5 0.000000 0.000000 0.000000 0.000000 0.048145 0.000000
# 6 -0.037542 0.037542 0.000000 0.000000 0.000000 0.156506
#
#
# Mechanical properties :
#
#
# Convention : Reuss Voigt Hill
#
# Bulk Modulus (GPa) = 24.69262 34.69105 29.69184
# Shear Modulus (GPa) = 11.99426 17.84570 14.91998
#
# Velocity S-wave (km/s) = 2.68279 3.27240 2.99216
# Velocity P-wave (km/s) = 4.94103 5.92412 5.45476
#
# Compressibility (1/GPa) = 0.04049793
#
# Stress axis : x y z
#
# Youngs Moduli (GPa) = 24.76479 24.76479 67.68317
#
# Poissons Ratio (x) = 0.26574 0.56813
# Poissons Ratio (y) = 0.26574 0.56813
# Poissons Ratio (z) = 0.20787 0.20787
#
# Static dielectric constant tensor:
#      x y z
#    x 1.544150 0.000000 0.000000 
#    y 0.000000 1.544150 0.000000 
#    z 0.000000 0.000000 1.556760 
# 
# From -- ./inp_files/2482.got.cif
#   From: 2010.05.17/outbox.cif.g08.bks.cpg/sg87_2_cif.got.tgz:2482.got - 2010.06.03 19:07:00.
