data_PCOD9545207
_publ_section_title
;
Structure prediction by ZEFSAII (Michael W. Deem and Ramdas Pophale) SiO2 
 PCOD9545207
Probable space group: P 42/N
;
_chemical_formula_sum "Si O2"
_cell_formula_units_Z 48
_cell_length_a 18.608399
_cell_length_b 18.608399
_cell_length_c 5.322233
_cell_angle_alpha 90.000000
_cell_angle_beta 90.000000
_cell_angle_gamma 90.000000
_cell_volume 1842.942998
_symmetry_space_group_name_H-M "P 42/N"
_symmetry_group_IT_number 86
_space_group.IT_coordinate_system_code '2'
_symmetry_cell_setting 'tetragonal'
loop_
_space_group_symop_operation_xyz
x,y,z
-y,1/2+x,1/2+z
1/2-x,1/2-y,z
1/2+y,-x,1/2+z
-x,-y,-z
y,1/2-x,1/2-z
1/2+x,1/2+y,-z
1/2-y,x,1/2-z
loop_
_atom_site_type_symbol
_atom_site_label
_atom_site_fract_x
_atom_site_fract_y
_atom_site_fract_z
Si Si1 0.646729 0.357038 0.078690
Si Si2 0.459835 0.287855 0.818473
Si Si3 0.977758 0.456902 0.751572
Si Si4 0.648113 0.588263 0.072789
Si Si5 0.183097 0.972199 0.282822
Si Si6 0.168241 0.603054 0.926202
O O1 0.572226 0.399055 0.160168
O O2 0.651060 0.311866 0.332081
O O3 0.625812 0.417461 0.599547
O O4 0.637905 0.306833 0.837822
O O5 0.411057 0.229483 0.670917
O O6 0.403008 0.343709 0.930649
O O7 0.517606 0.324130 0.626463
O O8 0.506305 0.248347 0.037462
O O9 0.000000 0.500000 0.500000
O O10 0.031153 0.389380 0.755193
O O11 0.000000 0.500000 0.000000
O O12 0.651286 0.547031 0.809398
O O13 0.196730 0.923727 0.022130
#
# Coordination Sequence:
#
# PCOD9545207 Si02
#       6
#     8   8   8   8   8   8
#     4   9  19  38  62 101 138 179 232 315 385 447
#     4  12  26  46  68 108 152 210 257 327 397 486
#     4  11  21  36  65  99 136 176 231 322 388 428
#     4  11  27  41  69 100 155 197 266 306 395 475
#     4   9  23  43  68 104 144 193 257 326 385 465
#     4  10  22  43  72 102 148 184 249 325 400 444
#
# _framework density 26.045297000000001
#
# number of rings (size 3 to 8) (size 9 to 14) (size 15 to 20)
#    1.000    0.667    0.000    5.000    7.000    1.667 
#    0.000    0.000    0.000    0.000    0.000    3.500 
#    0.000    0.000    0.000    0.000    0.000    0.000 
#
# Total GULP energy -267561.403302 kJ/mol
# GULP energy per Si atom -5574.195902 kJ/mol
# Density = 2.598602 g / cm^3
# Si number density = 26.045297 Si / 1000 Ang^3
#
#
#
# Elastic Constant Matrix: (Units=GPa)
#
#
# Indices 1 2 3 4 5 6 
#
# 1 120.4019 53.2682 18.2917 0.0000 0.0000 5.9855
# 2 53.2682 120.4019 18.2917 0.0000 0.0000 -5.9855
# 3 18.2917 18.2917 168.8533 0.0000 0.0000 0.0000
# 4 0.0000 0.0000 0.0000 33.9919 0.0000 0.0000
# 5 0.0000 0.0000 0.0000 0.0000 33.9919 0.0000
# 6 5.9855 -5.9855 0.0000 0.0000 0.0000 38.5513
#
#
#
# Elastic Compliance Matrix: (Units=1/GPa)
#
#
# Indices 1 2 3 4 5 6 
#
# 1 0.010606 -0.004714 -0.000638 0.000000 0.000000 -0.002379
# 2 -0.004714 0.010606 -0.000638 0.000000 0.000000 0.002379
# 3 -0.000638 -0.000638 0.006061 0.000000 0.000000 0.000000
# 4 0.000000 0.000000 0.000000 0.029419 0.000000 0.000000
# 5 0.000000 0.000000 0.000000 0.000000 0.029419 0.000000
# 6 -0.002379 0.002379 0.000000 0.000000 0.000000 0.026678
#
#
# Mechanical properties :
#
#
# Convention : Reuss Voigt Hill
#
# Bulk Modulus (GPa) = 65.39240 65.48448 65.43844
# Shear Modulus (GPa) = 38.50106 42.62737 40.56422
#
# Velocity S-wave (km/s) = 3.84895 4.04996 3.95073
# Velocity P-wave (km/s) = 6.70181 6.86051 6.78163
#
# Compressibility (1/GPa) = 0.01529230
#
# Stress axis : x y z
#
# Youngs Moduli (GPa) = 94.28489 94.28489 165.00017
#
# Poissons Ratio (x) = 0.44443 0.10532
# Poissons Ratio (y) = 0.44443 0.10532
# Poissons Ratio (z) = 0.06018 0.06018
#
# Static dielectric constant tensor:
#      x y z
#    x 2.286980 0.000000 0.000000 
#    y 0.000000 2.286980 0.000000 
#    z 0.000000 0.000000 2.347040 
# 
# From -- ./inp_files/406.got.cif
#   From: 2010.05.17/outbox.cif.g08.bks.cpg/sg86_1_cif.got.tgz:406.got - 2010.06.03 19:03:11.
