data_PCOD9545850
_publ_section_title
;
Structure prediction by ZEFSAII (Michael W. Deem and Ramdas Pophale) SiO2 
 PCOD9545850
Probable space group: I 4/M
;
_chemical_formula_sum "Si O2"
_cell_formula_units_Z 64
_cell_length_a 10.695014
_cell_length_b 10.695014
_cell_length_c 28.014982
_cell_angle_alpha 90.000000
_cell_angle_beta 90.000000
_cell_angle_gamma 90.000000
_cell_volume 3204.446776
_symmetry_space_group_name_H-M "I 4/M"
_symmetry_group_IT_number 87
_symmetry_cell_setting 'tetragonal'
loop_
_space_group_symop_operation_xyz
x,y,z
-y,x,z
-x,-y,z
y,-x,z
-x,-y,-z
y,-x,-z
x,y,-z
-y,x,-z
1/2+x,1/2+y,1/2+z
1/2-y,1/2+x,1/2+z
1/2-x,1/2-y,1/2+z
1/2+y,1/2-x,1/2+z
1/2-x,1/2-y,1/2-z
1/2+y,1/2-x,1/2-z
1/2+x,1/2+y,1/2-z
1/2-y,1/2+x,1/2-z
loop_
_atom_site_type_symbol
_atom_site_label
_atom_site_fract_x
_atom_site_fract_y
_atom_site_fract_z
Si Si1 0.228769 0.731856 0.805917
Si Si2 0.476196 0.848078 0.151869
Si Si3 0.915011 0.186291 0.107729
Si Si4 0.560127 0.861672 0.052915
O O1 0.250000 0.750000 0.750000
O O2 0.343974 0.805363 0.829083
O O3 0.219348 0.584871 0.818001
O O4 0.109462 0.782507 0.836259
O O5 0.485410 0.803010 0.096982
O O6 0.500000 0.000000 0.153776
O O7 0.872358 0.300439 0.074624
O O8 0.059545 0.159488 0.097827
O O9 0.500000 0.000000 0.049038
O O10 0.557653 0.805558 0.000000
#
# Coordination Sequence:
#
# PCOD9545850 Si02
#       4
#    16  16  16  16
#     4  11  24  37  63  89 122 174 219 266 329 399
#     4  10  23  42  62  90 131 167 219 275 331 395
#     4  10  21  37  57  90 132 161 207 272 333 396
#     4   9  18  36  61  85 117 163 206 253 322 398
#
# _framework density 19.972245999999998
#
# number of rings (size 3 to 8) (size 9 to 14) (size 15 to 20)
#    0.000    2.000    0.000    4.500    7.000    1.500 
#    0.000    8.750    0.000    0.000    0.000    7.000 
#    0.000    0.000    0.000    0.000    0.000    0.000 
#
# Total GULP energy -178332.401730 kJ/mol
# GULP energy per Si atom -5572.887554 kJ/mol
# Density = 1.992679 g / cm^3
# Si number density = 19.972246 Si / 1000 Ang^3
#
#
#
# Elastic Constant Matrix: (Units=GPa)
#
#
# Indices 1 2 3 4 5 6 
#
# 1 86.1165 28.1589 42.3166 0.0000 0.0000 -4.7993
# 2 28.1589 86.1164 42.3166 0.0000 0.0000 4.7993
# 3 42.3166 42.3166 208.6148 0.0000 0.0000 0.0000
# 4 0.0000 0.0000 0.0000 -10.4745 0.0000 0.0000
# 5 0.0000 0.0000 0.0000 0.0000 -10.4745 0.0000
# 6 -4.7993 4.7993 0.0000 0.0000 0.0000 33.8439
#
#
#
# Elastic Compliance Matrix: (Units=1/GPa)
#
#
# Indices 1 2 3 4 5 6 
#
# 1 0.013983 -0.003686 -0.002089 0.000000 0.000000 0.002506
# 2 -0.003686 0.013983 -0.002089 0.000000 0.000000 -0.002506
# 3 -0.002089 -0.002089 0.005641 0.000000 0.000000 0.000000
# 4 0.000000 0.000000 0.000000 -0.095470 0.000000 0.000000
# 5 0.000000 0.000000 0.000000 0.000000 -0.095470 0.000000
# 6 0.002506 -0.002506 0.000000 0.000000 0.000000 0.030258
#
#
# Mechanical properties :
#
#
# Convention : Reuss Voigt Hill
#
# Bulk Modulus (GPa) = 55.92486 67.38132 61.65309
# Shear Modulus (GPa) = -47.44375 20.44938 -13.49719
#
# Velocity S-wave (km/s) = -4.87918 3.20330 -2.60243
# Velocity P-wave (km/s) = 1.91828 6.89146 4.68041
#
# Compressibility (1/GPa) = 0.01788114
#
# Stress axis : x y z
#
# Youngs Moduli (GPa) = 71.51337 71.51337 177.27486
#
# Poissons Ratio (x) = 0.26357 0.37030
# Poissons Ratio (y) = 0.26357 0.37030
# Poissons Ratio (z) = 0.14938 0.14938
#
# Static dielectric constant tensor:
#      x y z
#    x 1.727690 0.000000 0.000000 
#    y 0.000000 1.727690 0.000000 
#    z 0.000000 0.000000 1.730580 
# 
# From -- ./inp_files/6121.got.cif
#   From: 2010.05.17/outbox.cif.g08.bks.cpg/sg87_4_cif.got.tgz:6121.got - 2010.06.03 19:07:00.
