data_PCOD9545580
_publ_section_title
;
Structure prediction by ZEFSAII (Michael W. Deem and Ramdas Pophale) SiO2 
 PCOD9545580
Probable space group: I 4/M
;
_chemical_formula_sum "Si O2"
_cell_formula_units_Z 96
_cell_length_a 20.055410
_cell_length_b 20.055410
_cell_length_c 12.632302
_cell_angle_alpha 90.000000
_cell_angle_beta 90.000000
_cell_angle_gamma 90.000000
_cell_volume 5080.957819
_symmetry_space_group_name_H-M "I 4/M"
_symmetry_group_IT_number 87
_symmetry_cell_setting 'tetragonal'
loop_
_space_group_symop_operation_xyz
x,y,z
-y,x,z
-x,-y,z
y,-x,z
-x,-y,-z
y,-x,-z
x,y,-z
-y,x,-z
1/2+x,1/2+y,1/2+z
1/2-y,1/2+x,1/2+z
1/2-x,1/2-y,1/2+z
1/2+y,1/2-x,1/2+z
1/2-x,1/2-y,1/2-z
1/2+y,1/2-x,1/2-z
1/2+x,1/2+y,1/2-z
1/2-y,1/2+x,1/2-z
loop_
_atom_site_type_symbol
_atom_site_label
_atom_site_fract_x
_atom_site_fract_y
_atom_site_fract_z
Si Si1 0.858320 0.380397 0.732658
Si Si2 0.282852 0.613291 0.625044
Si Si3 0.747772 0.854828 0.122781
Si Si4 0.020366 0.795078 0.232886
Si Si5 0.948552 0.099636 0.385491
Si Si6 0.494016 0.834156 0.873160
O O1 0.794904 0.391334 0.656965
O O2 0.841574 0.314862 0.802015
O O3 0.865709 0.442549 0.812781
O O4 0.925504 0.368035 0.666453
O O5 0.291868 0.604405 0.500000
O O6 0.312128 0.686338 0.650846
O O7 0.315444 0.550874 0.686133
O O8 0.764325 0.932825 0.142516
O O9 0.731821 0.842429 0.000000
O O10 0.062633 0.853511 0.286955
O O11 0.008865 0.740934 0.325725
O O12 0.931740 0.130501 0.500000
O O13 0.914284 0.027948 0.382533
O O14 0.500128 0.835351 0.000000
#
# Coordination Sequence:
#
# PCOD9545580 Si02
#       6
#    16  16  16  16  16  16
#     4  10  21  37  56  78 102 130 166 209 257 306
#     4  10  20  34  53  76 104 137 171 208 249 296
#     4  10  20  34  53  76 104 137 171 208 249 296
#     4  10  19  32  51  75 103 136 172 208 248 295
#     4   9  17  29  46  70 101 135 171 211 251 291
#     4  10  21  37  56  77 102 130 164 209 257 308
#
# _framework density 18.894074
#
# number of rings (size 3 to 8) (size 9 to 14) (size 15 to 20)
#    0.000    2.167    0.000    4.000    0.000    0.333 
#    0.000    3.333    0.000   16.000    0.000    7.000 
#    0.000    0.000    0.000    0.000    0.000    0.000 
#
# Total GULP energy -267657.042994 kJ/mol
# GULP energy per Si atom -5576.188396 kJ/mol
# Density = 1.885107 g / cm^3
# Si number density = 18.894074 Si / 1000 Ang^3
#
#
#
# Elastic Constant Matrix: (Units=GPa)
#
#
# Indices 1 2 3 4 5 6 
#
# 1 55.9137 2.5655 30.5859 0.0000 0.0000 -5.4019
# 2 2.5655 55.9137 30.5859 0.0000 0.0000 5.4019
# 3 30.5859 30.5859 95.4765 0.0000 0.0000 0.0000
# 4 0.0000 0.0000 0.0000 19.4508 0.0000 0.0000
# 5 0.0000 0.0000 0.0000 0.0000 19.4508 0.0000
# 6 -5.4019 5.4019 0.0000 0.0000 0.0000 24.4812
#
#
#
# Elastic Compliance Matrix: (Units=1/GPa)
#
#
# Indices 1 2 3 4 5 6 
#
# 1 0.022670 0.003048 -0.008239 0.000000 0.000000 0.004330
# 2 0.003048 0.022670 -0.008239 0.000000 0.000000 -0.004330
# 3 -0.008239 -0.008239 0.015752 0.000000 0.000000 0.000000
# 4 0.000000 0.000000 0.000000 0.051412 0.000000 0.000000
# 5 0.000000 0.000000 0.000000 0.000000 0.051412 0.000000
# 6 0.004330 -0.004330 0.000000 0.000000 0.000000 0.042758
#
#
# Mechanical properties :
#
#
# Convention : Reuss Voigt Hill
#
# Bulk Modulus (GPa) = 29.21106 37.19760 33.20433
# Shear Modulus (GPa) = 20.41282 22.24767 21.33024
#
# Velocity S-wave (km/s) = 3.29048 3.43519 3.36361
# Velocity P-wave (km/s) = 5.47086 5.95518 5.71815
#
# Compressibility (1/GPa) = 0.03423361
#
# Stress axis : x y z
#
# Youngs Moduli (GPa) = 44.11123 44.11123 63.48226
#
# Poissons Ratio (x) = -0.13447 0.52302
# Poissons Ratio (y) = -0.13447 0.52302
# Poissons Ratio (z) = 0.36343 0.36343
#
# Static dielectric constant tensor:
#      x y z
#    x 1.652860 0.000000 0.000000 
#    y 0.000000 1.652860 0.000000 
#    z 0.000000 0.000000 1.634970 
# 
# From -- ./inp_files/2730.got.cif
#   From: 2010.05.17/outbox.cif.g08.bks.cpg/sg87_2_cif.got.tgz:2730.got - 2010.06.03 19:07:00.
