data_PCOD9545734
_publ_section_title
;
Structure prediction by ZEFSAII (Michael W. Deem and Ramdas Pophale) SiO2 
 PCOD9545734
Probable space group: I 4/M
;
_chemical_formula_sum "Si O2"
_cell_formula_units_Z 88
_cell_length_a 17.728265
_cell_length_b 17.728265
_cell_length_c 14.171477
_cell_angle_alpha 90.000000
_cell_angle_beta 90.000000
_cell_angle_gamma 90.000000
_cell_volume 4453.973062
_symmetry_space_group_name_H-M "I 4/M"
_symmetry_group_IT_number 87
_symmetry_cell_setting 'tetragonal'
loop_
_space_group_symop_operation_xyz
x,y,z
-y,x,z
-x,-y,z
y,-x,z
-x,-y,-z
y,-x,-z
x,y,-z
-y,x,-z
1/2+x,1/2+y,1/2+z
1/2-y,1/2+x,1/2+z
1/2-x,1/2-y,1/2+z
1/2+y,1/2-x,1/2+z
1/2-x,1/2-y,1/2-z
1/2+y,1/2-x,1/2-z
1/2+x,1/2+y,1/2-z
1/2-y,1/2+x,1/2-z
loop_
_atom_site_type_symbol
_atom_site_label
_atom_site_fract_x
_atom_site_fract_y
_atom_site_fract_z
Si Si1 0.726078 0.477468 0.389263
Si Si2 0.707884 0.650330 0.000000
Si Si3 0.282954 0.145342 0.155129
Si Si4 0.212212 0.679386 0.643107
Si Si5 0.378496 0.534066 0.791675
Si Si6 0.695059 0.111748 0.500000
Si Si7 0.516089 0.686406 0.000000
O O1 0.699475 0.483854 0.500000
O O2 0.755501 0.559592 0.355662
O O3 0.784550 0.407383 0.387757
O O4 0.669636 0.454386 0.303583
O O5 0.763954 0.658449 0.912929
O O6 0.653602 0.722747 0.000000
O O7 0.665533 0.571990 0.000000
O O8 0.311382 0.181349 0.252137
O O9 0.215462 0.203776 0.127316
O O10 0.355273 0.152673 0.088345
O O11 0.410049 0.449178 0.788222
O O12 0.340110 0.542693 0.894810
O O13 0.722679 0.026704 0.500000
#
# Coordination Sequence:
#
# PCOD9545734 Si02
#       7
#    16   8  16  16  16   8   8
#     4  12  23  39  65  93 127 167 209 260 323 390
#     4  10  20  35  57  85 114 153 205 258 311 360
#     4  10  21  38  60  88 122 161 209 259 308 374
#     4  10  21  38  60  88 122 161 209 259 308 374
#     4  11  24  38  56  88 128 169 209 254 315 388
#     4  10  20  35  57  85 114 153 205 258 311 360
#     4  12  22  39  64  87 122 170 220 272 316 372
#
# _framework density 19.757639999999999
#
# number of rings (size 3 to 8) (size 9 to 14) (size 15 to 20)
#    0.000    1.273    1.818    4.909    0.000    5.818 
#    0.000    0.909    0.000    4.909    0.000    0.000 
#    0.000    0.000    0.000    0.000    0.000    0.000 
#
# Total GULP energy -245075.296528 kJ/mol
# GULP energy per Si atom -5569.893103 kJ/mol
# Density = 1.971267 g / cm^3
# Si number density = 19.757640 Si / 1000 Ang^3
#
#
#
# Elastic Constant Matrix: (Units=GPa)
#
#
# Indices 1 2 3 4 5 6 
#
# 1 51.4540 -3.2591 23.5470 0.0000 0.0000 10.9022
# 2 -3.2591 51.4540 23.5470 0.0000 0.0000 -10.9022
# 3 23.5470 23.5470 124.9549 0.0000 0.0000 0.0000
# 4 0.0000 0.0000 0.0000 29.8898 0.0000 0.0000
# 5 0.0000 0.0000 0.0000 0.0000 29.8898 0.0000
# 6 10.9022 -10.9022 0.0000 0.0000 0.0000 -26.2610
#
#
#
# Elastic Compliance Matrix: (Units=1/GPa)
#
#
# Indices 1 2 3 4 5 6 
#
# 1 0.020557 0.004875 -0.004793 0.000000 0.000000 0.006511
# 2 0.004875 0.020557 -0.004793 0.000000 0.000000 -0.006511
# 3 -0.004793 -0.004793 0.009809 0.000000 0.000000 0.000000
# 4 0.000000 0.000000 0.000000 0.033456 0.000000 0.000000
# 5 0.000000 0.000000 0.000000 0.000000 0.033456 0.000000
# 6 0.006511 -0.006511 0.000000 0.000000 0.000000 -0.032674
#
#
# Mechanical properties :
#
#
# Convention : Reuss Voigt Hill
#
# Bulk Modulus (GPa) = 24.09449 35.05920 29.57685
# Shear Modulus (GPa) = 46.11797 18.97227 32.54512
#
# Velocity S-wave (km/s) = 4.83658 3.10215 4.06300
# Velocity P-wave (km/s) = 6.58874 5.53302 6.08382
#
# Compressibility (1/GPa) = 0.04150326
#
# Stress axis : x y z
#
# Youngs Moduli (GPa) = 48.64444 48.64444 101.94577
#
# Poissons Ratio (x) = -0.23713 0.48858
# Poissons Ratio (y) = -0.23713 0.48858
# Poissons Ratio (z) = 0.23313 0.23313
#
# Static dielectric constant tensor:
#      x y z
#    x 1.747330 0.000000 0.000000 
#    y 0.000000 1.747330 0.000000 
#    z 0.000000 0.000000 1.709770 
# 
# From -- ./inp_files/3684.got.cif
#   From: 2010.05.17/outbox.cif.g08.bks.cpg/sg87_2_cif.got.tgz:3684.got - 2010.06.03 19:07:00.
