data_PCOD9545009
_publ_section_title
;
Structure prediction by ZEFSAII (Michael W. Deem and Ramdas Pophale) SiO2 
 PCOD9545009
Probable space group: P 42/N
;
_chemical_formula_sum "Si O2"
_cell_formula_units_Z 64
_cell_length_a 11.011234
_cell_length_b 11.011234
_cell_length_c 22.655249
_cell_angle_alpha 90.000000
_cell_angle_beta 90.000000
_cell_angle_gamma 90.000000
_cell_volume 2746.887188
_symmetry_space_group_name_H-M "P 42/N"
_symmetry_group_IT_number 86
_space_group.IT_coordinate_system_code '2'
_symmetry_cell_setting 'tetragonal'
loop_
_space_group_symop_operation_xyz
x,y,z
-y,1/2+x,1/2+z
1/2-x,1/2-y,z
1/2+y,-x,1/2+z
-x,-y,-z
y,1/2-x,1/2-z
1/2+x,1/2+y,-z
1/2-y,x,1/2-z
loop_
_atom_site_type_symbol
_atom_site_label
_atom_site_fract_x
_atom_site_fract_y
_atom_site_fract_z
Si Si1 0.016866 0.266257 0.383570
Si Si2 0.345928 0.145915 0.011040
Si Si3 0.848862 0.925513 0.249187
Si Si4 0.371828 0.806923 0.152413
Si Si5 0.523362 0.319546 0.956863
Si Si6 0.764702 0.550954 0.749060
Si Si7 0.581931 0.038219 0.648127
Si Si8 0.820166 0.032533 0.041781
O O1 0.114930 0.190489 0.421396
O O2 0.998217 0.256168 0.313066
O O3 0.056810 0.409342 0.386325
O O4 0.897278 0.186040 0.396354
O O5 0.250000 0.250000 0.993653
O O6 0.473366 0.204606 0.993842
O O7 0.308145 0.028603 0.972304
O O8 0.902656 0.793533 0.266305
O O9 0.853559 0.028958 0.300243
O O10 0.923579 0.975236 0.193277
O O11 0.250000 0.750000 0.181463
O O12 0.443512 0.713408 0.110010
O O13 0.417296 0.420871 0.957596
O O14 0.636745 0.380669 0.989374
O O15 0.644963 0.627309 0.737680
O O16 0.803761 0.478681 0.691609
O O17 0.597163 0.148230 0.602699
#
# Coordination Sequence:
#
# PCOD9545009 Si02
#       8
#     8   8   8   8   8   8   8   8
#     4  11  22  38  63  95 134 170 217 271 333 407
#     4  10  22  37  65  97 127 173 223 279 336 394
#     4  11  25  43  66  97 128 174 227 277 327 398
#     4  12  24  43  68  93 131 178 220 271 337 408
#     4  10  22  39  62  92 125 171 217 269 334 393
#     4   9  20  34  58  94 128 167 213 266 332 397
#     4  11  21  40  67  95 132 170 217 280 331 396
#     4  10  20  38  61  93 123 161 220 272 323 396
#
# _framework density 23.299099999999999
#
# number of rings (size 3 to 8) (size 9 to 14) (size 15 to 20)
#    0.000    1.500    1.250    5.250    7.000    0.500 
#    0.000    0.000    0.000    0.000    0.000    0.000 
#    0.000    0.000    0.000    0.000    0.000    0.000 
#
# Total GULP energy -356629.423042 kJ/mol
# GULP energy per Si atom -5572.334735 kJ/mol
# Density = 2.324607 g / cm^3
# Si number density = 23.299100 Si / 1000 Ang^3
#
#
#
# Elastic Constant Matrix: (Units=GPa)
#
#
# Indices 1 2 3 4 5 6 
#
# 1 61.5472 19.4404 13.6683 0.0000 0.0000 -4.3802
# 2 19.4404 61.5472 13.6683 0.0000 0.0000 4.3802
# 3 13.6683 13.6683 66.2581 0.0000 0.0000 0.0000
# 4 0.0000 0.0000 0.0000 22.2812 0.0000 0.0000
# 5 0.0000 0.0000 0.0000 0.0000 22.2812 0.0000
# 6 -4.3802 4.3802 0.0000 0.0000 0.0000 26.4322
#
#
#
# Elastic Compliance Matrix: (Units=1/GPa)
#
#
# Indices 1 2 3 4 5 6 
#
# 1 0.018934 -0.005663 -0.002738 0.000000 0.000000 0.004076
# 2 -0.005663 0.018934 -0.002738 0.000000 0.000000 -0.004076
# 3 -0.002738 -0.002738 0.016222 0.000000 0.000000 0.000000
# 4 0.000000 0.000000 0.000000 0.044881 0.000000 0.000000
# 5 0.000000 0.000000 0.000000 0.000000 0.044881 0.000000
# 6 0.004076 -0.004076 0.000000 0.000000 0.000000 0.039184
#
#
# Mechanical properties :
#
#
# Convention : Reuss Voigt Hill
#
# Bulk Modulus (GPa) = 31.43246 31.43404 31.43325
# Shear Modulus (GPa) = 23.15698 23.70396 23.43047
#
# Velocity S-wave (km/s) = 3.15604 3.19309 3.17462
# Velocity P-wave (km/s) = 5.17696 5.20723 5.19212
#
# Compressibility (1/GPa) = 0.03181425
#
# Stress axis : x y z
#
# Youngs Moduli (GPa) = 52.81380 52.81380 61.64448
#
# Poissons Ratio (x) = 0.29907 0.16877
# Poissons Ratio (y) = 0.29907 0.16877
# Poissons Ratio (z) = 0.14459 0.14459
#
# Static dielectric constant tensor:
#      x y z
#    x 2.133940 0.000000 0.000000 
#    y 0.000000 2.133940 0.000000 
#    z 0.000000 0.000000 1.948190 
# 
# From -- ./inp_files/4677.got.cif
#   From: 2010.05.17/outbox.cif.g08.bks.cpg/sg86_3_cif.got.tgz:4677.got - 2010.06.03 19:03:11.
