data_PCOD9545604
_publ_section_title
;
Structure prediction by ZEFSAII (Michael W. Deem and Ramdas Pophale) SiO2 
 PCOD9545604
Probable space group: I 4/M
;
_chemical_formula_sum "Si O2"
_cell_formula_units_Z 96
_cell_length_a 16.331421
_cell_length_b 16.331421
_cell_length_c 19.328984
_cell_angle_alpha 90.000000
_cell_angle_beta 90.000000
_cell_angle_gamma 90.000000
_cell_volume 5155.335996
_symmetry_space_group_name_H-M "I 4/M"
_symmetry_group_IT_number 87
_symmetry_cell_setting 'tetragonal'
loop_
_space_group_symop_operation_xyz
x,y,z
-y,x,z
-x,-y,z
y,-x,z
-x,-y,-z
y,-x,-z
x,y,-z
-y,x,-z
1/2+x,1/2+y,1/2+z
1/2-y,1/2+x,1/2+z
1/2-x,1/2-y,1/2+z
1/2+y,1/2-x,1/2+z
1/2-x,1/2-y,1/2-z
1/2+y,1/2-x,1/2-z
1/2+x,1/2+y,1/2-z
1/2-y,1/2+x,1/2-z
loop_
_atom_site_type_symbol
_atom_site_label
_atom_site_fract_x
_atom_site_fract_y
_atom_site_fract_z
Si Si1 0.507352 0.227937 0.285680
Si Si2 0.401840 0.999869 0.576400
Si Si3 0.315973 0.737693 0.422741
Si Si4 0.626184 0.840864 0.810639
Si Si5 0.814239 0.407904 0.578776
Si Si6 0.871823 0.950191 0.865020
O O1 0.427198 0.218253 0.238139
O O2 0.581551 0.165352 0.269708
O O3 0.473695 0.204239 0.362141
O O4 0.545496 0.318835 0.293803
O O5 0.373817 0.973792 0.500000
O O6 0.373713 0.939939 0.635246
O O7 0.500000 0.000000 0.576156
O O8 0.376401 0.093412 0.588014
O O9 0.309793 0.773717 0.500000
O O10 0.307129 0.801110 0.359471
O O11 0.248193 0.667029 0.415652
O O12 0.402785 0.690484 0.415276
O O13 0.809111 0.441496 0.500000
O O14 0.899055 0.044363 0.872887
#
# Coordination Sequence:
#
# PCOD9545604 Si02
#       6
#    16  16  16  16  16  16
#     4  11  22  36  55  82 117 151 192 245 284 350
#     4  10  19  33  55  81 111 146 188 240 290 340
#     4  10  22  39  59  85 118 152 194 245 293 353
#     4  11  23  36  55  84 112 154 197 240 290 348
#     4  10  20  36  55  80 114 150 188 235 293 349
#     4  10  21  39  58  82 114 153 198 243 288 349
#
# _framework density 18.621482
#
# number of rings (size 3 to 8) (size 9 to 14) (size 15 to 20)
#    0.000    1.667    3.333    1.500    0.000    4.000 
#    3.000    0.833    0.000    0.000    0.000    0.000 
#    0.000    0.000    0.000    9.667    0.000    0.000 
#
# Total GULP energy -267479.194183 kJ/mol
# GULP energy per Si atom -5572.483212 kJ/mol
# Density = 1.857910 g / cm^3
# Si number density = 18.621482 Si / 1000 Ang^3
#
#
#
# Elastic Constant Matrix: (Units=GPa)
#
#
# Indices 1 2 3 4 5 6 
#
# 1 63.2818 6.8200 10.4723 0.0000 0.0000 1.8401
# 2 6.8200 63.2818 10.4723 0.0000 0.0000 -1.8401
# 3 10.4723 10.4723 51.3194 0.0000 0.0000 0.0000
# 4 0.0000 0.0000 0.0000 12.0640 0.0000 0.0000
# 5 0.0000 0.0000 0.0000 0.0000 12.0640 0.0000
# 6 1.8401 -1.8401 0.0000 0.0000 0.0000 24.7716
#
#
#
# Elastic Compliance Matrix: (Units=1/GPa)
#
#
# Indices 1 2 3 4 5 6 
#
# 1 0.016494 -0.001303 -0.003100 0.000000 0.000000 -0.001322
# 2 -0.001303 0.016494 -0.003100 0.000000 0.000000 0.001322
# 3 -0.003100 -0.003100 0.020751 0.000000 0.000000 0.000000
# 4 0.000000 0.000000 0.000000 0.082891 0.000000 0.000000
# 5 0.000000 0.000000 0.000000 0.000000 0.082891 0.000000
# 6 -0.001322 0.001322 0.000000 0.000000 0.000000 0.040565
#
#
# Mechanical properties :
#
#
# Convention : Reuss Voigt Hill
#
# Bulk Modulus (GPa) = 25.81740 25.93468 25.87604
# Shear Modulus (GPa) = 17.36085 19.78781 18.57433
#
# Velocity S-wave (km/s) = 3.05668 3.26334 3.16170
# Velocity P-wave (km/s) = 5.13343 5.30629 5.22058
#
# Compressibility (1/GPa) = 0.03873357
#
# Stress axis : x y z
#
# Youngs Moduli (GPa) = 60.62734 60.62734 48.19057
#
# Poissons Ratio (x) = 0.07900 0.14939
# Poissons Ratio (y) = 0.07900 0.14939
# Poissons Ratio (z) = 0.18794 0.18794
#
# Static dielectric constant tensor:
#      x y z
#    x 1.680140 0.000000 0.000000 
#    y 0.000000 1.680140 0.000000 
#    z 0.000000 0.000000 1.676340 
# 
# From -- ./inp_files/5407.got.cif
#   From: 2010.05.17/outbox.cif.g08.bks.cpg/sg87_3_cif.got.tgz:5407.got - 2010.06.03 19:07:00.
