data_PCOD9545949
_publ_section_title
;
Structure prediction by ZEFSAII (Michael W. Deem and Ramdas Pophale) SiO2 
 PCOD9545949
Probable space group: I 4/M
;
_chemical_formula_sum "Si O2"
_cell_formula_units_Z 80
_cell_length_a 15.671832
_cell_length_b 15.671832
_cell_length_c 12.977007
_cell_angle_alpha 90.000000
_cell_angle_beta 90.000000
_cell_angle_gamma 90.000000
_cell_volume 3187.234911
_symmetry_space_group_name_H-M "I 4/M"
_symmetry_group_IT_number 87
_symmetry_cell_setting 'tetragonal'
loop_
_space_group_symop_operation_xyz
x,y,z
-y,x,z
-x,-y,z
y,-x,z
-x,-y,-z
y,-x,-z
x,y,-z
-y,x,-z
1/2+x,1/2+y,1/2+z
1/2-y,1/2+x,1/2+z
1/2-x,1/2-y,1/2+z
1/2+y,1/2-x,1/2+z
1/2-x,1/2-y,1/2-z
1/2+y,1/2-x,1/2-z
1/2+x,1/2+y,1/2-z
1/2-y,1/2+x,1/2-z
loop_
_atom_site_type_symbol
_atom_site_label
_atom_site_fract_x
_atom_site_fract_y
_atom_site_fract_z
Si Si1 0.204010 0.753795 0.113135
Si Si2 0.193889 0.424733 0.787562
Si Si3 0.579269 0.614414 0.335542
Si Si4 0.349533 0.383291 0.115127
Si Si5 0.526305 0.900268 0.386496
O O1 0.149523 0.715416 0.206129
O O2 0.188157 0.856364 0.125432
O O3 0.295485 0.706936 0.115610
O O4 0.169016 0.733132 0.000000
O O5 0.276981 0.450963 0.850538
O O6 0.151726 0.492931 0.711436
O O7 0.126960 0.398204 0.873296
O O8 0.479836 0.616032 0.366887
O O9 0.587359 0.616078 0.211434
O O10 0.382843 0.396193 0.000000
O O11 0.500221 0.870170 0.500000
O O12 0.500000 0.000000 0.378148
#
# Coordination Sequence:
#
# PCOD9545949 Si02
#       5
#    16  16  16  16  16
#     4  10  23  41  62  91 125 161 208 260 313 378
#     4  11  19  38  58  85 118 165 203 254 299 365
#     4  10  22  41  65  92 124 162 211 268 322 377
#     4  10  23  41  61  89 124 162 207 257 313 377
#     4  11  22  37  56  86 125 161 200 248 301 362
#
# _framework density 25.100128000000002
#
# number of rings (size 3 to 8) (size 9 to 14) (size 15 to 20)
#    0.000    1.600    2.000    3.600    0.000    8.000 
#    0.000    6.000    0.000    0.000    0.000    0.000 
#    0.000    0.000    0.000    0.000    0.000    0.000 
#
# Total GULP energy -223467.767470 kJ/mol
# GULP energy per Si atom -5586.694187 kJ/mol
# Density = 2.504300 g / cm^3
# Si number density = 25.100128 Si / 1000 Ang^3
#
#
#
# Elastic Constant Matrix: (Units=GPa)
#
#
# Indices 1 2 3 4 5 6 
#
# 1 74.0103 24.6798 -10.5736 0.0000 0.0000 -7.4673
# 2 24.6798 74.0103 -10.5736 0.0000 0.0000 7.4673
# 3 -10.5736 -10.5736 135.6190 0.0000 0.0000 0.0000
# 4 0.0000 0.0000 0.0000 0.8673 0.0000 0.0000
# 5 0.0000 0.0000 0.0000 0.0000 0.8673 0.0000
# 6 -7.4673 7.4673 0.0000 0.0000 0.0000 31.0093
#
#
#
# Elastic Compliance Matrix: (Units=1/GPa)
#
#
# Indices 1 2 3 4 5 6 
#
# 1 0.016085 -0.005780 0.000803 0.000000 0.000000 0.005265
# 2 -0.005780 0.016085 0.000803 0.000000 0.000000 -0.005265
# 3 0.000803 0.000803 0.007499 0.000000 0.000000 0.000000
# 4 0.000000 0.000000 0.000000 1.153013 0.000000 0.000000
# 5 0.000000 0.000000 0.000000 0.000000 1.153013 0.000000
# 6 0.005265 -0.005265 0.000000 0.000000 0.000000 0.034784
#
#
# Mechanical properties :
#
#
# Convention : Reuss Voigt Hill
#
# Bulk Modulus (GPa) = 31.92610 32.30054 32.11332
# Shear Modulus (GPa) = 2.08397 25.22259 13.65328
#
# Velocity S-wave (km/s) = 0.91218 3.17342 2.33481
# Velocity P-wave (km/s) = 3.72244 5.13070 4.48222
#
# Compressibility (1/GPa) = 0.03132234
#
# Stress axis : x y z
#
# Youngs Moduli (GPa) = 62.16902 62.16902 133.35328
#
# Poissons Ratio (x) = 0.35936 -0.10714
# Poissons Ratio (y) = 0.35936 -0.10714
# Poissons Ratio (z) = -0.04995 -0.04995
#
# Static dielectric constant tensor:
#      x y z
#    x 2.160310 0.000000 0.000000 
#    y 0.000000 2.160310 0.000000 
#    z 0.000000 0.000000 1.966880 
# 
# From -- ./inp_files/3492.got.cif
#   From: 2010.05.17/outbox.cif.g08.bks.cpg/sg87_2_cif.got.tgz:3492.got - 2010.06.03 19:07:00.
