data_PCOD9545042
_publ_section_title
;
Structure prediction by ZEFSAII (Michael W. Deem and Ramdas Pophale) SiO2 
 PCOD9545042
Probable space group: P 42/N
;
_chemical_formula_sum "Si O2"
_cell_formula_units_Z 48
_cell_length_a 11.927556
_cell_length_b 11.927556
_cell_length_c 17.379208
_cell_angle_alpha 90.000000
_cell_angle_beta 90.000000
_cell_angle_gamma 90.000000
_cell_volume 2472.480696
_symmetry_space_group_name_H-M "P 42/N"
_symmetry_group_IT_number 86
_space_group.IT_coordinate_system_code '2'
_symmetry_cell_setting 'tetragonal'
loop_
_space_group_symop_operation_xyz
x,y,z
-y,1/2+x,1/2+z
1/2-x,1/2-y,z
1/2+y,-x,1/2+z
-x,-y,-z
y,1/2-x,1/2-z
1/2+x,1/2+y,-z
1/2-y,x,1/2-z
loop_
_atom_site_type_symbol
_atom_site_label
_atom_site_fract_x
_atom_site_fract_y
_atom_site_fract_z
Si Si1 0.419633 0.417975 0.545616
Si Si2 0.872165 0.780715 0.927449
Si Si3 0.107148 0.661944 0.632984
Si Si4 0.357122 0.590509 0.675377
Si Si5 0.518136 0.425797 0.164502
Si Si6 0.494000 0.826962 0.476098
O O1 0.500000 0.500000 0.500000
O O2 0.313397 0.400875 0.489810
O O3 0.385147 0.482357 0.623430
O O4 0.482943 0.299068 0.553217
O O5 0.750000 0.750000 0.893929
O O6 0.964697 0.807403 0.862919
O O7 0.859749 0.894792 0.976524
O O8 0.225218 0.619083 0.666348
O O9 0.086490 0.793750 0.646347
O O10 0.102936 0.654862 0.539876
O O11 0.010763 0.586508 0.670864
O O12 0.405136 0.575983 0.760564
O O13 0.593100 0.471608 0.094770
#
# Coordination Sequence:
#
# PCOD9545042 Si02
#       6
#     8   8   8   8   8   8
#     4  11  21  38  65  94 126 161 215 254 310 382
#     4   9  20  40  66  91 121 168 218 259 312 386
#     4  10  22  45  60  86 130 169 207 259 320 379
#     4  11  24  39  61  96 133 163 198 275 325 370
#     4  11  23  40  66  93 123 166 214 261 326 383
#     4  10  20  41  69  90 118 169 214 258 308 392
#
# _framework density 19.413701
#
# number of rings (size 3 to 8) (size 9 to 14) (size 15 to 20)
#    0.000    1.667    1.667    4.000    2.333    1.333 
#    3.000    0.000    0.000    0.000    0.000    0.000 
#    0.000    0.000    0.000    0.000    0.000    0.000 
#
# Total GULP energy -267861.516576 kJ/mol
# GULP energy per Si atom -5580.448262 kJ/mol
# Density = 1.936951 g / cm^3
# Si number density = 19.413701 Si / 1000 Ang^3
#
#
#
# Elastic Constant Matrix: (Units=GPa)
#
#
# Indices 1 2 3 4 5 6 
#
# 1 89.9611 29.0477 30.9448 0.0000 0.0000 -0.5720
# 2 29.0477 89.9611 30.9448 0.0000 0.0000 0.5720
# 3 30.9448 30.9448 76.4611 0.0000 0.0000 0.0000
# 4 0.0000 0.0000 0.0000 20.4084 0.0000 0.0000
# 5 0.0000 0.0000 0.0000 0.0000 20.4084 0.0000
# 6 -0.5720 0.5720 0.0000 0.0000 0.0000 29.4942
#
#
#
# Elastic Compliance Matrix: (Units=1/GPa)
#
#
# Indices 1 2 3 4 5 6 
#
# 1 0.013533 -0.002890 -0.004307 0.000000 0.000000 0.000319
# 2 -0.002890 0.013533 -0.004307 0.000000 0.000000 -0.000319
# 3 -0.004307 -0.004307 0.016565 0.000000 0.000000 0.000000
# 4 0.000000 0.000000 0.000000 0.048999 0.000000 0.000000
# 5 0.000000 0.000000 0.000000 0.000000 0.048999 0.000000
# 6 0.000319 -0.000319 0.000000 0.000000 0.000000 0.033917
#
#
# Mechanical properties :
#
#
# Convention : Reuss Voigt Hill
#
# Bulk Modulus (GPa) = 48.49339 48.69532 48.59435
# Shear Modulus (GPa) = 24.33926 25.09192 24.71559
#
# Velocity S-wave (km/s) = 3.54463 3.59902 3.57192
# Velocity P-wave (km/s) = 6.46418 6.51214 6.48821
#
# Compressibility (1/GPa) = 0.02062137
#
# Stress axis : x y z
#
# Youngs Moduli (GPa) = 73.89505 73.89505 60.36844
#
# Poissons Ratio (x) = 0.21356 0.26002
# Poissons Ratio (y) = 0.21356 0.26002
# Poissons Ratio (z) = 0.31828 0.31828
#
# Static dielectric constant tensor:
#      x y z
#    x 1.722480 0.000000 0.000000 
#    y 0.000000 1.722480 0.000000 
#    z 0.000000 0.000000 1.651110 
# 
# From -- ./inp_files/3581.got.cif
#   From: 2010.05.17/outbox.cif.g08.bks.cpg/sg86_2_cif.got.tgz:3581.got - 2010.06.03 19:03:11.
