data_PCOD9545629
_publ_section_title
;
Structure prediction by ZEFSAII (Michael W. Deem and Ramdas Pophale) SiO2 
 PCOD9545629
Probable space group: I 4/M
;
_chemical_formula_sum "Si O2"
_cell_formula_units_Z 96
_cell_length_a 23.718138
_cell_length_b 23.718138
_cell_length_c 7.796068
_cell_angle_alpha 90.000000
_cell_angle_beta 90.000000
_cell_angle_gamma 90.000000
_cell_volume 4385.678601
_symmetry_space_group_name_H-M "I 4/M"
_symmetry_group_IT_number 87
_symmetry_cell_setting 'tetragonal'
loop_
_space_group_symop_operation_xyz
x,y,z
-y,x,z
-x,-y,z
y,-x,z
-x,-y,-z
y,-x,-z
x,y,-z
-y,x,-z
1/2+x,1/2+y,1/2+z
1/2-y,1/2+x,1/2+z
1/2-x,1/2-y,1/2+z
1/2+y,1/2-x,1/2+z
1/2-x,1/2-y,1/2-z
1/2+y,1/2-x,1/2-z
1/2+x,1/2+y,1/2-z
1/2-y,1/2+x,1/2-z
loop_
_atom_site_type_symbol
_atom_site_label
_atom_site_fract_x
_atom_site_fract_y
_atom_site_fract_z
Si Si1 0.971278 0.835531 0.210495
Si Si2 0.671587 0.272036 0.797301
Si Si3 0.718720 0.159788 0.301029
Si Si4 0.409835 0.006455 0.200676
Si Si5 0.708433 0.034721 0.800147
Si Si6 0.133454 0.091490 0.793552
O O1 0.975754 0.770988 0.272123
O O2 0.915383 0.867275 0.271675
O O3 0.026803 0.869946 0.260173
O O4 0.968776 0.833575 0.000000
O O5 0.674615 0.210695 0.714957
O O6 0.723476 0.311467 0.731712
O O7 0.615724 0.306398 0.760841
O O8 0.680161 0.264932 0.000000
O O9 0.727579 0.145782 0.500000
O O10 0.701496 0.102463 0.210438
O O11 0.445497 0.948296 0.214809
O O12 0.347121 0.995573 0.272747
O O13 0.405835 0.021122 0.000000
O O14 0.710541 0.018451 0.000000
O O15 0.130976 0.092654 0.000000
#
# Coordination Sequence:
#
# PCOD9545629 Si02
#       6
#    16  16  16  16  16  16
#     4   9  19  34  56  83 110 145 188 235 285 333
#     4  10  20  34  53  80 111 144 182 225 277 333
#     4  10  20  33  54  82 110 144 182 221 273 335
#     4  10  21  37  58  81 112 151 191 233 281 331
#     4  10  20  36  56  82 115 146 182 234 284 331
#     4  10  19  35  57  80 111 149 190 236 284 336
#
# _framework density 21.889430000000001
#
# number of rings (size 3 to 8) (size 9 to 14) (size 15 to 20)
#    0.000    2.167    1.667    2.000    0.000    4.333 
#    0.000    5.000    0.000    0.000    0.000    1.167 
#    0.000    0.000    0.000    0.000    0.000    0.000 
#
# Total GULP energy -268026.572552 kJ/mol
# GULP energy per Si atom -5583.886928 kJ/mol
# Density = 2.183961 g / cm^3
# Si number density = 21.889430 Si / 1000 Ang^3
#
#
#
# Elastic Constant Matrix: (Units=GPa)
#
#
# Indices 1 2 3 4 5 6 
#
# 1 82.5167 27.8820 -2.9183 0.0000 0.0000 11.0159
# 2 27.8820 82.5167 -2.9183 0.0000 0.0000 -11.0159
# 3 -2.9183 -2.9183 34.3001 0.0000 0.0000 0.0000
# 4 0.0000 0.0000 0.0000 7.4717 0.0000 0.0000
# 5 0.0000 0.0000 0.0000 0.0000 7.4717 0.0000
# 6 11.0159 -11.0159 0.0000 0.0000 0.0000 5.7925
#
#
#
# Elastic Compliance Matrix: (Units=1/GPa)
#
#
# Indices 1 2 3 4 5 6 
#
# 1 0.043810 -0.034711 0.000774 0.000000 0.000000 -0.149327
# 2 -0.034711 0.043810 0.000774 0.000000 0.000000 0.149327
# 3 0.000774 0.000774 0.029286 0.000000 0.000000 0.000000
# 4 0.000000 0.000000 0.000000 0.133838 0.000000 0.000000
# 5 0.000000 0.000000 0.000000 0.000000 0.133838 0.000000
# 6 -0.149327 0.149327 0.000000 0.000000 0.000000 0.740599
#
#
# Mechanical properties :
#
#
# Convention : Reuss Voigt Hill
#
# Bulk Modulus (GPa) = 19.77034 27.04713 23.40873
# Shear Modulus (GPa) = 4.13782 15.96640 10.05211
#
# Velocity S-wave (km/s) = 1.37638 2.70369 2.14527
# Velocity P-wave (km/s) = 3.40256 4.70422 4.10531
#
# Compressibility (1/GPa) = 0.05058082
#
# Stress axis : x y z
#
# Youngs Moduli (GPa) = 22.82593 22.82593 34.14582
#
# Poissons Ratio (x) = 0.79231 -0.02643
# Poissons Ratio (y) = 0.79231 -0.02643
# Poissons Ratio (z) = -0.01767 -0.01767
#
# Static dielectric constant tensor:
#      x y z
#    x 1.806540 0.000000 0.000000 
#    y 0.000000 1.806540 0.000000 
#    z 0.000000 0.000000 1.784510 
# 
# From -- ./inp_files/1363.got.cif
#   From: 2010.05.17/outbox.cif.g08.bks.cpg/sg87_1_cif.got.tgz:1363.got - 2010.06.03 19:07:00.
