data_PCOD9545658
_publ_section_title
;
Structure prediction by ZEFSAII (Michael W. Deem and Ramdas Pophale) SiO2 
 PCOD9545658
Probable space group: I 4/M
;
_chemical_formula_sum "Si O2"
_cell_formula_units_Z 84
_cell_length_a 13.953885
_cell_length_b 13.953885
_cell_length_c 18.924230
_cell_angle_alpha 90.000000
_cell_angle_beta 90.000000
_cell_angle_gamma 90.000000
_cell_volume 3684.753980
_symmetry_space_group_name_H-M "I 4/M"
_symmetry_group_IT_number 87
_symmetry_cell_setting 'tetragonal'
loop_
_space_group_symop_operation_xyz
x,y,z
-y,x,z
-x,-y,z
y,-x,z
-x,-y,-z
y,-x,-z
x,y,-z
-y,x,-z
1/2+x,1/2+y,1/2+z
1/2-y,1/2+x,1/2+z
1/2-x,1/2-y,1/2+z
1/2+y,1/2-x,1/2+z
1/2-x,1/2-y,1/2-z
1/2+y,1/2-x,1/2-z
1/2+x,1/2+y,1/2-z
1/2-y,1/2+x,1/2-z
loop_
_atom_site_type_symbol
_atom_site_label
_atom_site_fract_x
_atom_site_fract_y
_atom_site_fract_z
Si Si1 0.901542 0.118669 0.414776
Si Si2 0.268451 0.802050 0.079526
Si Si3 0.362023 0.326206 0.277637
Si Si4 0.000000 0.000000 0.224415
Si Si5 0.405289 0.962608 0.129107
Si Si6 0.341474 0.111907 0.238406
O O1 0.907571 0.113763 0.500000
O O2 0.828270 0.205500 0.403252
O O3 0.012256 0.130585 0.389516
O O4 0.195659 0.826609 0.142176
O O5 0.340085 0.893068 0.083521
O O6 0.229085 0.793187 0.000000
O O7 0.453433 0.392060 0.277457
O O8 0.378028 0.222395 0.241396
O O9 0.269759 0.375757 0.243612
O O10 0.437057 0.897643 0.196757
O O11 0.500000 0.000000 0.091807
O O12 0.353393 0.052639 0.166506
#
# Coordination Sequence:
#
# PCOD9545658 Si02
#       6
#    16  16  16   4  16  16
#     4   8  15  32  58  85 124 179 230 277 329 386
#     4  10  22  39  58  93 135 178 227 275 330 407
#     4  10  23  39  66  90 130 170 209 279 331 401
#     4  12  24  44  69 100 124 164 225 276 344 394
#     4  11  20  35  65  89 122 164 208 272 333 404
#     4  10  19  40  64  96 122 166 215 262 343 401
#
# _framework density 22.796637
#
# number of rings (size 3 to 8) (size 9 to 14) (size 15 to 20)
#    0.000    2.095    1.905    2.857    0.000    1.905 
#    0.000    4.286    0.000    0.000    0.000    0.000 
#    0.000    0.000    0.000    0.857    0.000    0.000 
#
# Total GULP energy -234127.119849 kJ/mol
# GULP energy per Si atom -5574.455235 kJ/mol
# Density = 2.274475 g / cm^3
# Si number density = 22.796637 Si / 1000 Ang^3
#
#
#
# Elastic Constant Matrix: (Units=GPa)
#
#
# Indices 1 2 3 4 5 6 
#
# 1 92.3099 42.5190 16.3540 0.0000 0.0000 -3.9432
# 2 42.5190 92.3099 16.3540 0.0000 0.0000 3.9432
# 3 16.3540 16.3540 112.1542 0.0000 0.0000 0.0000
# 4 0.0000 0.0000 0.0000 15.5678 0.0000 0.0000
# 5 0.0000 0.0000 0.0000 0.0000 15.5678 0.0000
# 6 -3.9432 3.9432 0.0000 0.0000 0.0000 67.8430
#
#
#
# Elastic Compliance Matrix: (Units=1/GPa)
#
#
# Indices 1 2 3 4 5 6 
#
# 1 0.013980 -0.006291 -0.001121 0.000000 0.000000 0.001178
# 2 -0.006291 0.013980 -0.001121 0.000000 0.000000 -0.001178
# 3 -0.001121 -0.001121 0.009243 0.000000 0.000000 0.000000
# 4 0.000000 0.000000 0.000000 0.064235 0.000000 0.000000
# 5 0.000000 0.000000 0.000000 0.000000 0.064235 0.000000
# 6 0.001178 -0.001178 0.000000 0.000000 0.000000 0.014877
#
#
# Mechanical properties :
#
#
# Convention : Reuss Voigt Hill
#
# Bulk Modulus (GPa) = 49.66176 49.69198 49.67687
# Shear Modulus (GPa) = 24.47039 34.56550 29.51794
#
# Velocity S-wave (km/s) = 3.27986 3.89814 3.60229
# Velocity P-wave (km/s) = 6.01459 6.48890 6.25625
#
# Compressibility (1/GPa) = 0.02013622
#
# Stress axis : x y z
#
# Youngs Moduli (GPa) = 71.53224 71.53224 108.18694
#
# Poissons Ratio (x) = 0.45000 0.12129
# Poissons Ratio (y) = 0.45000 0.12129
# Poissons Ratio (z) = 0.08020 0.08020
#
# Static dielectric constant tensor:
#      x y z
#    x 1.857870 0.000000 0.000000 
#    y 0.000000 1.857870 0.000000 
#    z 0.000000 0.000000 1.914350 
# 
# From -- ./inp_files/5186.got.cif
#   From: 2010.05.17/outbox.cif.g08.bks.cpg/sg87_3_cif.got.tgz:5186.got - 2010.06.03 19:07:00.
