data_PCOD9545335
_publ_section_title
;
Structure prediction by ZEFSAII (Michael W. Deem and Ramdas Pophale) SiO2 
 PCOD9545335
Probable space group: P 42/N
;
_chemical_formula_sum "Si O2"
_cell_formula_units_Z 56
_cell_length_a 11.700001
_cell_length_b 11.700001
_cell_length_c 20.133872
_cell_angle_alpha 90.000000
_cell_angle_beta 90.000000
_cell_angle_gamma 90.000000
_cell_volume 2756.126209
_symmetry_space_group_name_H-M "P 42/N"
_symmetry_group_IT_number 86
_space_group.IT_coordinate_system_code '2'
_symmetry_cell_setting 'tetragonal'
loop_
_space_group_symop_operation_xyz
x,y,z
-y,1/2+x,1/2+z
1/2-x,1/2-y,z
1/2+y,-x,1/2+z
-x,-y,-z
y,1/2-x,1/2-z
1/2+x,1/2+y,-z
1/2-y,x,1/2-z
loop_
_atom_site_type_symbol
_atom_site_label
_atom_site_fract_x
_atom_site_fract_y
_atom_site_fract_z
Si Si1 0.244455 0.611951 0.149667
Si Si2 0.093802 0.583748 0.432709
Si Si3 0.480182 0.190013 0.995884
Si Si4 0.870231 0.493110 0.385725
Si Si5 0.482133 0.681760 0.508020
Si Si6 0.270851 0.085688 0.734365
Si Si7 0.335480 0.645352 0.784650
O O1 0.250000 0.750000 0.137391
O O2 0.378745 0.589213 0.150587
O O3 0.196029 0.544074 0.086646
O O4 0.181979 0.591126 0.219568
O O5 0.199445 0.505865 0.457845
O O6 0.068185 0.703643 0.472124
O O7 0.118364 0.607393 0.354713
O O8 0.971554 0.522987 0.434242
O O9 0.507190 0.249241 0.924417
O O10 0.578271 0.099467 0.014703
O O11 0.362979 0.113722 0.997053
O O12 0.853802 0.583714 0.328212
O O13 0.159209 0.156753 0.713966
O O14 0.236718 0.962739 0.759228
O O15 0.250000 0.750000 0.796141
#
# Coordination Sequence:
#
# PCOD9545335 Si02
#       7
#     8   8   8   8   8   8   8
#     4  11  20  42  67  89 130 181 230 267 343 423
#     4  12  25  44  64 103 141 172 231 296 340 414
#     4  11  24  41  67 102 129 179 228 275 351 414
#     4  12  23  43  68  95 135 181 219 277 356 414
#     4  11  23  42  68  96 135 177 226 291 338 421
#     4  11  23  39  62  98 138 169 220 281 355 416
#     4  11  22  40  66  94 126 181 224 281 336 414
#
# _framework density 20.318370999999999
#
# number of rings (size 3 to 8) (size 9 to 14) (size 15 to 20)
#    0.000    0.714    7.143    1.714    2.000    0.571 
#    5.143    0.000    0.000    0.000    0.000    0.000 
#    0.000    0.000    0.000    0.000    0.000    0.000 
#
# Total GULP energy -311831.840659 kJ/mol
# GULP energy per Si atom -5568.425726 kJ/mol
# Density = 2.027213 g / cm^3
# Si number density = 20.318371 Si / 1000 Ang^3
#
#
#
# Elastic Constant Matrix: (Units=GPa)
#
#
# Indices 1 2 3 4 5 6 
#
# 1 90.5393 32.3359 26.9924 0.0000 0.0000 -4.8346
# 2 32.3359 90.5393 26.9924 0.0000 0.0000 4.8346
# 3 26.9924 26.9924 104.0771 0.0000 0.0000 0.0000
# 4 0.0000 0.0000 0.0000 23.8086 0.0000 0.0000
# 5 0.0000 0.0000 0.0000 0.0000 23.8086 0.0000
# 6 -4.8346 4.8346 0.0000 0.0000 0.0000 30.4331
#
#
#
# Elastic Compliance Matrix: (Units=1/GPa)
#
#
# Indices 1 2 3 4 5 6 
#
# 1 0.013416 -0.004231 -0.002382 0.000000 0.000000 0.002803
# 2 -0.004231 0.013416 -0.002382 0.000000 0.000000 -0.002803
# 3 -0.002382 -0.002382 0.010844 0.000000 0.000000 0.000000
# 4 0.000000 0.000000 0.000000 0.042002 0.000000 0.000000
# 5 0.000000 0.000000 0.000000 0.000000 0.042002 0.000000
# 6 0.002803 -0.002803 0.000000 0.000000 0.000000 0.033750
#
#
# Mechanical properties :
#
#
# Convention : Reuss Voigt Hill
#
# Bulk Modulus (GPa) = 50.79943 50.86633 50.83288
# Shear Modulus (GPa) = 27.78078 28.86573 28.32325
#
# Velocity S-wave (km/s) = 3.70168 3.77327 3.73764
# Velocity P-wave (km/s) = 6.58224 6.63871 6.61053
#
# Compressibility (1/GPa) = 0.01968526
#
# Stress axis : x y z
#
# Youngs Moduli (GPa) = 74.53851 74.53851 92.21803
#
# Poissons Ratio (x) = 0.31537 0.21967
# Poissons Ratio (y) = 0.31537 0.21967
# Poissons Ratio (z) = 0.17756 0.17756
#
# Static dielectric constant tensor:
#      x y z
#    x 1.772430 0.000000 0.000000 
#    y 0.000000 1.772430 0.000000 
#    z 0.000000 0.000000 1.785000 
# 
# From -- ./inp_files/4174.got.cif
#   From: 2010.05.17/outbox.cif.g08.bks.cpg/sg86_3_cif.got.tgz:4174.got - 2010.06.03 19:03:11.
