data_PCOD9545210
_publ_section_title
;
Structure prediction by ZEFSAII (Michael W. Deem and Ramdas Pophale) SiO2 
 PCOD9545210
Probable space group: P 42/N
;
_chemical_formula_sum "Si O2"
_cell_formula_units_Z 50
_cell_length_a 8.877971
_cell_length_b 8.877971
_cell_length_c 32.255587
_cell_angle_alpha 90.000000
_cell_angle_beta 90.000000
_cell_angle_gamma 90.000000
_cell_volume 2542.332761
_symmetry_space_group_name_H-M "P 42/N"
_symmetry_group_IT_number 86
_space_group.IT_coordinate_system_code '2'
_symmetry_cell_setting 'tetragonal'
loop_
_space_group_symop_operation_xyz
x,y,z
-y,1/2+x,1/2+z
1/2-x,1/2-y,z
1/2+y,-x,1/2+z
-x,-y,-z
y,1/2-x,1/2-z
1/2+x,1/2+y,-z
1/2-y,x,1/2-z
loop_
_atom_site_type_symbol
_atom_site_label
_atom_site_fract_x
_atom_site_fract_y
_atom_site_fract_z
Si Si1 0.918324 0.205632 0.200206
Si Si2 0.929686 0.781466 0.884250
Si Si3 0.750000 0.750000 0.410174
Si Si4 0.980861 0.438638 0.871627
Si Si5 0.002237 0.461960 0.778326
Si Si6 0.491962 0.462006 0.951790
Si Si7 0.750000 0.250000 0.922428
Si Si8 0.750000 0.750000 0.250000
O O1 0.750000 0.250000 0.185994
O O2 0.982633 0.358764 0.219990
O O3 0.016183 0.154860 0.160572
O O4 0.916416 0.089195 0.237787
O O5 0.750000 0.750000 0.885153
O O6 0.002655 0.613471 0.884329
O O7 0.979074 0.895049 0.920955
O O8 0.659278 0.627660 0.382953
O O9 0.627480 0.841868 0.437423
O O10 0.938690 0.424114 0.823398
O O11 0.841323 0.370559 0.895923
O O12 0.159556 0.373434 0.776052
O O13 0.626783 0.343399 0.946634
O O14 0.500000 0.500000 0.000000
#
# Coordination Sequence:
#
# PCOD9545210 Si02
#       8
#     8   8   4   8   8   8   4   2
#     4  11  26  43  62  97 133 178 229 276 331 390
#     4  11  25  45  70  95 135 182 224 273 339 407
#     4  10  25  44  68 105 138 172 224 281 346 400
#     4  10  23  42  67  96 135 182 224 275 332 401
#     4  11  25  39  64  91 133 178 233 270 327 382
#     4  11  26  45  74 101 136 172 220 281 341 414
#     4  10  22  44  66 100 132 174 224 268 344 396
#     4  12  22  40  56  92 132 176 224 288 324 376
#
# _framework density 19.666975999999998
#
# number of rings (size 3 to 8) (size 9 to 14) (size 15 to 20)
#    0.000    1.280    3.200    0.480   11.200    3.840 
#    0.000    3.200    0.000    0.000    0.000    0.000 
#    0.000    0.000    0.000    0.000    0.000    0.000 
#
# Total GULP energy -279054.713470 kJ/mol
# GULP energy per Si atom -5581.094269 kJ/mol
# Density = 1.962221 g / cm^3
# Si number density = 19.666976 Si / 1000 Ang^3
#
#
#
# Elastic Constant Matrix: (Units=GPa)
#
#
# Indices 1 2 3 4 5 6 
#
# 1 76.6954 18.4541 61.6247 0.0000 0.0000 4.6567
# 2 18.4541 76.6954 61.6247 0.0000 0.0000 -4.6567
# 3 61.6247 61.6247 157.1165 0.0000 0.0000 0.0000
# 4 0.0000 0.0000 0.0000 1021.2343 0.0000 0.0000
# 5 0.0000 0.0000 0.0000 0.0000 1021.2343 0.0000
# 6 4.6567 -4.6567 0.0000 0.0000 0.0000 25.5367
#
#
#
# Elastic Compliance Matrix: (Units=1/GPa)
#
#
# Indices 1 2 3 4 5 6 
#
# 1 0.019525 0.001839 -0.008379 0.000000 0.000000 -0.003225
# 2 0.001839 0.019525 -0.008379 0.000000 0.000000 0.003225
# 3 -0.008379 -0.008379 0.012938 0.000000 0.000000 0.000000
# 4 0.000000 0.000000 0.000000 0.000979 0.000000 0.000000
# 5 0.000000 0.000000 0.000000 0.000000 0.000979 0.000000
# 6 -0.003225 0.003225 0.000000 0.000000 0.000000 0.040335
#
#
# Mechanical properties :
#
#
# Convention : Reuss Voigt Hill
#
# Bulk Modulus (GPa) = 45.15095 65.99046 55.57071
# Shear Modulus (GPa) = 38.02196 424.85465 231.43831
#
# Velocity S-wave (km/s) = 4.40169 14.71371 10.85975
# Velocity P-wave (km/s) = 6.98862 17.95229 13.62214
#
# Compressibility (1/GPa) = 0.02214793
#
# Stress axis : x y z
#
# Youngs Moduli (GPa) = 51.21722 51.21722 77.29267
#
# Poissons Ratio (x) = -0.09419 0.64766
# Poissons Ratio (y) = -0.09419 0.64766
# Poissons Ratio (z) = 0.42917 0.42917
#
# Static dielectric constant tensor:
#      x y z
#    x 1.850510 0.000000 0.000000 
#    y 0.000000 1.850510 0.000000 
#    z 0.000000 0.000000 1.683940 
# 
# From -- ./inp_files/5288.got.cif
#   From: 2010.05.17/outbox.cif.g08.bks.cpg/sg86_3_cif.got.tgz:5288.got - 2010.06.03 19:03:11.
