data_PCOD9545548
_publ_section_title
;
Structure prediction by ZEFSAII (Michael W. Deem and Ramdas Pophale) SiO2 
 PCOD9545548
Probable space group: I 4/M
;
_chemical_formula_sum "Si O2"
_cell_formula_units_Z 96
_cell_length_a 19.768229
_cell_length_b 19.768229
_cell_length_c 13.685485
_cell_angle_alpha 90.000000
_cell_angle_beta 90.000000
_cell_angle_gamma 90.000000
_cell_volume 5348.053212
_symmetry_space_group_name_H-M "I 4/M"
_symmetry_group_IT_number 87
_symmetry_cell_setting 'tetragonal'
loop_
_space_group_symop_operation_xyz
x,y,z
-y,x,z
-x,-y,z
y,-x,z
-x,-y,-z
y,-x,-z
x,y,-z
-y,x,-z
1/2+x,1/2+y,1/2+z
1/2-y,1/2+x,1/2+z
1/2-x,1/2-y,1/2+z
1/2+y,1/2-x,1/2+z
1/2-x,1/2-y,1/2-z
1/2+y,1/2-x,1/2-z
1/2+x,1/2+y,1/2-z
1/2-y,1/2+x,1/2-z
loop_
_atom_site_type_symbol
_atom_site_label
_atom_site_fract_x
_atom_site_fract_y
_atom_site_fract_z
Si Si1 0.614355 0.170286 0.108076
Si Si2 0.583221 0.575537 0.883178
Si Si3 0.060344 0.411033 0.733361
Si Si4 0.715111 0.032037 0.387070
Si Si5 0.730980 0.737069 0.390158
Si Si6 0.295873 0.643424 0.789712
O O1 0.617701 0.114910 0.191933
O O2 0.549000 0.217416 0.123295
O O3 0.684379 0.209202 0.107504
O O4 0.604508 0.139209 0.000000
O O5 0.504119 0.592505 0.860369
O O6 0.632597 0.628974 0.831939
O O7 0.591462 0.582684 0.000000
O O8 0.083126 0.487647 0.713357
O O9 0.050917 0.362213 0.641198
O O10 0.732027 0.049482 0.500000
O O11 0.761254 0.070909 0.309239
O O12 0.729809 0.709711 0.500000
O O13 0.678548 0.701778 0.316326
O O14 0.806378 0.744504 0.347999
#
# Coordination Sequence:
#
# PCOD9545548 Si02
#       6
#    16  16  16  16  16  16
#     4   9  18  32  49  69  96 132 172 210 253 305
#     4   9  19  35  56  86 116 139 175 228 279 324
#     4   9  17  30  46  66  95 130 170 212 250 293
#     4  10  19  30  47  73 100 129 169 211 253 307
#     4  10  21  36  53  77 108 140 173 212 260 316
#     4  11  21  34  55  79 105 141 172 212 265 324
#
# _framework density 17.950458000000001
#
# number of rings (size 3 to 8) (size 9 to 14) (size 15 to 20)
#    0.000    2.333    1.667    2.000    2.333    0.667 
#    0.000    3.333    0.000    1.000    0.000    1.167 
#    0.000    0.000    0.000    0.000    0.000    0.000 
#
# Total GULP energy -267434.058148 kJ/mol
# GULP energy per Si atom -5571.542878 kJ/mol
# Density = 1.790960 g / cm^3
# Si number density = 17.950458 Si / 1000 Ang^3
#
#
#
# Elastic Constant Matrix: (Units=GPa)
#
#
# Indices 1 2 3 4 5 6 
#
# 1 49.5343 16.1774 23.4314 0.0000 0.0000 -6.2384
# 2 16.1774 49.5343 23.4314 0.0000 0.0000 6.2384
# 3 23.4314 23.4314 77.5522 0.0000 0.0000 0.0000
# 4 0.0000 0.0000 0.0000 18.3175 0.0000 0.0000
# 5 0.0000 0.0000 0.0000 0.0000 18.3175 0.0000
# 6 -6.2384 6.2384 0.0000 0.0000 0.0000 24.3562
#
#
#
# Elastic Compliance Matrix: (Units=1/GPa)
#
#
# Indices 1 2 3 4 5 6 
#
# 1 0.026276 -0.006879 -0.005861 0.000000 0.000000 0.008492
# 2 -0.006879 0.026276 -0.005861 0.000000 0.000000 -0.008492
# 3 -0.005861 -0.005861 0.016436 0.000000 0.000000 0.000000
# 4 0.000000 0.000000 0.000000 0.054593 0.000000 0.000000
# 5 0.000000 0.000000 0.000000 0.000000 0.054593 0.000000
# 6 0.008492 -0.008492 0.000000 0.000000 0.000000 0.045408
#
#
# Mechanical properties :
#
#
# Convention : Reuss Voigt Hill
#
# Bulk Modulus (GPa) = 31.45810 33.63345 32.54578
# Shear Modulus (GPa) = 18.42449 19.77030 19.09740
#
# Velocity S-wave (km/s) = 3.20724 3.32231 3.26528
# Velocity P-wave (km/s) = 5.59269 5.78744 5.69090
#
# Compressibility (1/GPa) = 0.03178832
#
# Stress axis : x y z
#
# Youngs Moduli (GPa) = 38.05700 38.05700 60.84201
#
# Poissons Ratio (x) = 0.26179 0.35658
# Poissons Ratio (y) = 0.26179 0.35658
# Poissons Ratio (z) = 0.22304 0.22304
#
# Static dielectric constant tensor:
#      x y z
#    x 1.644180 0.000000 0.000000 
#    y 0.000000 1.644180 0.000000 
#    z 0.000000 0.000000 1.615960 
# 
# From -- ./inp_files/2726.got.cif
#   From: 2010.05.17/outbox.cif.g08.bks.cpg/sg87_2_cif.got.tgz:2726.got - 2010.06.03 19:07:00.
