data_PCOD9545914
_publ_section_title
;
Structure prediction by ZEFSAII (Michael W. Deem and Ramdas Pophale) SiO2 
 PCOD9545914
Probable space group: I 4/M
;
_chemical_formula_sum "Si O2"
_cell_formula_units_Z 80
_cell_length_a 14.409682
_cell_length_b 14.409682
_cell_length_c 19.441584
_cell_angle_alpha 90.000000
_cell_angle_beta 90.000000
_cell_angle_gamma 90.000000
_cell_volume 4036.829803
_symmetry_space_group_name_H-M "I 4/M"
_symmetry_group_IT_number 87
_symmetry_cell_setting 'tetragonal'
loop_
_space_group_symop_operation_xyz
x,y,z
-y,x,z
-x,-y,z
y,-x,z
-x,-y,-z
y,-x,-z
x,y,-z
-y,x,-z
1/2+x,1/2+y,1/2+z
1/2-y,1/2+x,1/2+z
1/2-x,1/2-y,1/2+z
1/2+y,1/2-x,1/2+z
1/2-x,1/2-y,1/2-z
1/2+y,1/2-x,1/2-z
1/2+x,1/2+y,1/2-z
1/2-y,1/2+x,1/2-z
loop_
_atom_site_type_symbol
_atom_site_label
_atom_site_fract_x
_atom_site_fract_y
_atom_site_fract_z
Si Si1 0.392196 0.603307 0.416311
Si Si2 0.789799 0.286028 0.579001
Si Si3 0.220086 0.484506 0.749608
Si Si4 0.186637 0.824054 0.288323
Si Si5 0.913290 0.435776 0.642055
O O1 0.372735 0.497003 0.394487
O O2 0.392645 0.603047 0.500000
O O3 0.309540 0.672062 0.397199
O O4 0.783733 0.256320 0.500000
O O5 0.817613 0.205534 0.631808
O O6 0.863043 0.370673 0.586539
O O7 0.264305 0.579243 0.776354
O O8 0.304304 0.412183 0.753807
O O9 0.166315 0.502161 0.678355
O O10 0.137710 0.449155 0.800299
O O11 0.250000 0.750000 0.250000
O O12 0.000000 0.500000 0.620817
#
# Coordination Sequence:
#
# PCOD9545914 Si02
#       5
#    16  16  16  16  16
#     4   8  15  30  49  71 109 159 198 237 302 376
#     4  10  22  37  56  87 126 163 207 265 321 383
#     4  11  20  38  64  92 120 162 210 266 320 376
#     4  11  22  40  63  90 121 163 212 263 315 380
#     4  11  19  37  63  87 121 166 213 263 329 383
#
# _framework density 19.817530000000001
#
# number of rings (size 3 to 8) (size 9 to 14) (size 15 to 20)
#    0.000    1.800    6.000    0.600    0.000    4.000 
#    0.000    4.000    0.000    0.000    0.000    5.600 
#    0.000    0.000    0.000    0.000    0.000    0.000 
#
# Total GULP energy -223330.656865 kJ/mol
# GULP energy per Si atom -5583.266422 kJ/mol
# Density = 1.977242 g / cm^3
# Si number density = 19.817530 Si / 1000 Ang^3
#
#
#
# Elastic Constant Matrix: (Units=GPa)
#
#
# Indices 1 2 3 4 5 6 
#
# 1 84.3879 10.6016 15.8988 0.0000 0.0000 -1.0904
# 2 10.6016 84.3879 15.8988 0.0000 0.0000 1.0904
# 3 15.8988 15.8988 76.5355 0.0000 0.0000 0.0000
# 4 0.0000 0.0000 0.0000 20.1592 0.0000 0.0000
# 5 0.0000 0.0000 0.0000 0.0000 20.1592 0.0000
# 6 -1.0904 1.0904 0.0000 0.0000 0.0000 31.7663
#
#
#
# Elastic Compliance Matrix: (Units=1/GPa)
#
#
# Indices 1 2 3 4 5 6 
#
# 1 0.012440 -0.001126 -0.002350 0.000000 0.000000 0.000466
# 2 -0.001126 0.012440 -0.002350 0.000000 0.000000 -0.000466
# 3 -0.002350 -0.002350 0.014042 0.000000 0.000000 0.000000
# 4 0.000000 0.000000 0.000000 0.049605 0.000000 0.000000
# 5 0.000000 0.000000 0.000000 0.000000 0.049605 0.000000
# 6 0.000466 -0.000466 0.000000 0.000000 0.000000 0.031512
#
#
# Mechanical properties :
#
#
# Convention : Reuss Voigt Hill
#
# Bulk Modulus (GPa) = 36.67101 36.67888 36.67494
# Shear Modulus (GPa) = 26.26209 27.94440 27.10324
#
# Velocity S-wave (km/s) = 3.64427 3.75918 3.70217
# Velocity P-wave (km/s) = 6.02097 6.11477 6.06805
#
# Compressibility (1/GPa) = 0.02726950
#
# Stress axis : x y z
#
# Youngs Moduli (GPa) = 80.38365 80.38365 71.21340
#
# Poissons Ratio (x) = 0.09052 0.16737
# Poissons Ratio (y) = 0.09052 0.16737
# Poissons Ratio (z) = 0.18893 0.18893
#
# Static dielectric constant tensor:
#      x y z
#    x 1.244360 0.000000 0.000000 
#    y 0.000000 1.244360 0.000000 
#    z 0.000000 0.000000 1.701720 
# 
# From -- ./inp_files/5104.got.cif
#   From: 2010.05.17/outbox.cif.g08.bks.cpg/sg87_3_cif.got.tgz:5104.got - 2010.06.03 19:07:00.
