data_PCOD9545433
_publ_section_title
;
Structure prediction by ZEFSAII (Michael W. Deem and Ramdas Pophale) SiO2 
 PCOD9545433
Probable space group: P 42/N
;
_chemical_formula_sum "Si O2"
_cell_formula_units_Z 34
_cell_length_a 8.947680
_cell_length_b 8.947680
_cell_length_c 19.054338
_cell_angle_alpha 90.000000
_cell_angle_beta 90.000000
_cell_angle_gamma 90.000000
_cell_volume 1525.508924
_symmetry_space_group_name_H-M "P 42/N"
_symmetry_group_IT_number 86
_space_group.IT_coordinate_system_code '2'
_symmetry_cell_setting 'tetragonal'
loop_
_space_group_symop_operation_xyz
x,y,z
-y,1/2+x,1/2+z
1/2-x,1/2-y,z
1/2+y,-x,1/2+z
-x,-y,-z
y,1/2-x,1/2-z
1/2+x,1/2+y,-z
1/2-y,x,1/2-z
loop_
_atom_site_type_symbol
_atom_site_label
_atom_site_fract_x
_atom_site_fract_y
_atom_site_fract_z
Si Si1 0.250000 0.250000 0.250000
Si Si2 0.402576 0.966444 0.177772
Si Si3 0.902860 0.293868 0.457801
Si Si4 0.260200 0.916219 0.800660
Si Si5 0.366100 0.384805 0.915300
O O1 0.200284 0.399851 0.208848
O O2 0.329860 0.938301 0.101516
O O3 0.404668 0.813091 0.223222
O O4 0.572754 0.024594 0.185820
O O5 0.750000 0.250000 0.495726
O O6 0.868087 0.457035 0.425643
O O7 0.031617 0.310040 0.514629
O O8 0.250000 0.750000 0.829524
O O9 0.151713 0.018791 0.845582
O O10 0.250000 0.250000 0.906328
#
# Coordination Sequence:
#
# PCOD9545433 Si02
#       5
#     2   8   8   8   8
#     4  12  24  44  68 104 144 196 244 314 384 460
#     4  12  27  45  75 106 151 197 257 319 388 458
#     4  11  26  48  74 106 150 198 254 314 384 464
#     4  12  27  45  70 107 148 196 252 313 386 459
#     4  11  27  47  75 110 149 198 257 318 383 462
#
# _framework density 22.287644
#
# number of rings (size 3 to 8) (size 9 to 14) (size 15 to 20)
#    0.000    0.471    2.353    4.235    8.235    5.647 
#    0.000    0.000    0.000    0.000    0.000    0.000 
#    0.000    0.000    0.000    0.000    0.000    0.000 
#
# Total GULP energy -189983.218613 kJ/mol
# GULP energy per Si atom -5587.741724 kJ/mol
# Density = 2.223692 g / cm^3
# Si number density = 22.287644 Si / 1000 Ang^3
#
#
#
# Elastic Constant Matrix: (Units=GPa)
#
#
# Indices 1 2 3 4 5 6 
#
# 1 106.9549 19.0099 20.6915 0.0000 0.0000 2.8380
# 2 19.0099 106.9549 20.6915 0.0000 0.0000 -2.8380
# 3 20.6915 20.6915 100.5491 0.0000 0.0000 0.0000
# 4 0.0000 0.0000 0.0000 42.7074 0.0000 0.0000
# 5 0.0000 0.0000 0.0000 0.0000 42.7074 0.0000
# 6 2.8380 -2.8380 0.0000 0.0000 0.0000 45.5948
#
#
#
# Elastic Compliance Matrix: (Units=1/GPa)
#
#
# Indices 1 2 3 4 5 6 
#
# 1 0.009965 -0.001451 -0.001752 0.000000 0.000000 -0.000711
# 2 -0.001451 0.009965 -0.001752 0.000000 0.000000 0.000711
# 3 -0.001752 -0.001752 0.010667 0.000000 0.000000 0.000000
# 4 0.000000 0.000000 0.000000 0.023415 0.000000 0.000000
# 5 0.000000 0.000000 0.000000 0.000000 0.023415 0.000000
# 6 -0.000711 0.000711 0.000000 0.000000 0.000000 0.022021
#
#
# Mechanical properties :
#
#
# Convention : Reuss Voigt Hill
#
# Bulk Modulus (GPa) = 48.34022 48.36052 48.35037
# Shear Modulus (GPa) = 43.00897 43.13968 43.07433
#
# Velocity S-wave (km/s) = 4.39763 4.40430 4.40097
# Velocity P-wave (km/s) = 6.89361 6.89995 6.89678
#
# Compressibility (1/GPa) = 0.02068671
#
# Stress axis : x y z
#
# Youngs Moduli (GPa) = 100.34647 100.34647 93.75141
#
# Poissons Ratio (x) = 0.14562 0.16426
# Poissons Ratio (y) = 0.14562 0.16426
# Poissons Ratio (z) = 0.17582 0.17582
#
# Static dielectric constant tensor:
#      x y z
#    x 1.818730 0.000000 0.000000 
#    y 0.000000 1.818730 0.000000 
#    z 0.000000 0.000000 1.795920 
# 
# From -- ./inp_files/3991.got.cif
#   From: 2010.05.17/outbox.cif.g08.bks.cpg/sg86_2_cif.got.tgz:3991.got - 2010.06.03 19:03:11.
