data_PCOD9545100
_publ_section_title
;
Structure prediction by ZEFSAII (Michael W. Deem and Ramdas Pophale) SiO2 
 PCOD9545100
Probable space group: P 42/N
;
_chemical_formula_sum "Si O2"
_cell_formula_units_Z 54
_cell_length_a 11.031074
_cell_length_b 11.031074
_cell_length_c 21.776439
_cell_angle_alpha 90.000000
_cell_angle_beta 90.000000
_cell_angle_gamma 90.000000
_cell_volume 2649.857130
_symmetry_space_group_name_H-M "P 42/N"
_symmetry_group_IT_number 86
_space_group.IT_coordinate_system_code '2'
_symmetry_cell_setting 'tetragonal'
loop_
_space_group_symop_operation_xyz
x,y,z
-y,1/2+x,1/2+z
1/2-x,1/2-y,z
1/2+y,-x,1/2+z
-x,-y,-z
y,1/2-x,1/2-z
1/2+x,1/2+y,-z
1/2-y,x,1/2-z
loop_
_atom_site_type_symbol
_atom_site_label
_atom_site_fract_x
_atom_site_fract_y
_atom_site_fract_z
Si Si1 0.385189 0.299851 0.558200
Si Si2 0.108820 0.049891 0.040938
Si Si3 0.250000 0.250000 0.750000
Si Si4 0.876628 0.196171 0.912269
Si Si5 0.332993 0.510818 0.695168
Si Si6 0.250000 0.750000 0.771097
Si Si7 0.503940 0.203074 0.027893
Si Si8 0.601377 0.065695 0.145895
O O1 0.250000 0.250000 0.571266
O O2 0.446293 0.219003 0.505912
O O3 0.369691 0.425339 0.521822
O O4 0.468266 0.301772 0.618388
O O5 0.076649 0.187776 0.056424
O O6 0.124787 0.949102 0.092638
O O7 0.000000 0.000000 0.000000
O O8 0.282801 0.384056 0.722185
O O9 0.750000 0.250000 0.892777
O O10 0.973570 0.258088 0.868181
O O11 0.897360 0.234660 0.983244
O O12 0.308344 0.635900 0.733068
O O13 0.475948 0.491201 0.680931
O O14 0.344305 0.825802 0.813606
O O15 0.549621 0.123863 0.083641
#
# Coordination Sequence:
#
# PCOD9545100 Si02
#       8
#     8   8   2   8   8   4   8   8
#     4  10  21  38  64 102 143 174 229 284 359 445
#     4   9  21  35  56  99 145 175 212 272 352 438
#     4  12  28  52  76 104 136 192 264 312 358 416
#     4  11  22  39  69 100 143 182 225 287 364 441
#     4  12  27  48  72 104 138 193 249 310 364 425
#     4  12  30  50  68 106 142 188 264 304 358 434
#     4  10  22  39  61 106 134 180 226 278 369 439
#     4  12  26  43  74  96 140 183 235 309 358 427
#
# _framework density 20.378457000000001
#
# number of rings (size 3 to 8) (size 9 to 14) (size 15 to 20)
#    0.000    1.185    3.704    1.333    8.296    1.185 
#    0.000    0.000    0.000    0.000    0.000    0.000 
#    0.000    0.000    0.000    0.000    0.000    0.000 
#
# Total GULP energy -300921.218999 kJ/mol
# GULP energy per Si atom -5572.615167 kJ/mol
# Density = 2.033207 g / cm^3
# Si number density = 20.378457 Si / 1000 Ang^3
#
#
#
# Elastic Constant Matrix: (Units=GPa)
#
#
# Indices 1 2 3 4 5 6 
#
# 1 120.3533 40.0227 61.6113 0.0000 0.0000 -2.6559
# 2 40.0227 120.3533 61.6113 0.0000 0.0000 2.6559
# 3 61.6113 61.6113 99.0251 0.0000 0.0000 0.0000
# 4 0.0000 0.0000 0.0000 -169.0941 0.0000 0.0000
# 5 0.0000 0.0000 0.0000 0.0000 -169.0941 0.0000
# 6 -2.6559 2.6559 0.0000 0.0000 0.0000 30.7378
#
#
#
# Elastic Compliance Matrix: (Units=1/GPa)
#
#
# Indices 1 2 3 4 5 6 
#
# 1 0.012233 -0.000287 -0.007433 0.000000 0.000000 0.001082
# 2 -0.000287 0.012233 -0.007433 0.000000 0.000000 -0.001082
# 3 -0.007433 -0.007433 0.019347 0.000000 0.000000 0.000000
# 4 0.000000 0.000000 0.000000 -0.005914 0.000000 0.000000
# 5 0.000000 0.000000 0.000000 0.000000 -0.005914 0.000000
# 6 0.001082 -0.001082 0.000000 0.000000 0.000000 0.032720
#
#
# Mechanical properties :
#
#
# Convention : Reuss Voigt Hill
#
# Bulk Modulus (GPa) = 74.02454 74.02468 74.02461
# Shear Modulus (GPa) = 50.24460 -49.72433 0.26014
#
# Velocity S-wave (km/s) = 4.97084 -4.94504 0.35767
# Velocity P-wave (km/s) = 8.32763 1.94917 6.04767
#
# Compressibility (1/GPa) = 0.01350903
#
# Stress axis : x y z
#
# Youngs Moduli (GPa) = 81.74558 81.74558 51.68699
#
# Poissons Ratio (x) = 0.02346 0.38417
# Poissons Ratio (y) = 0.02346 0.38417
# Poissons Ratio (z) = 0.60758 0.60758
#
# Static dielectric constant tensor:
#      x y z
#    x 1.749470 0.000000 0.000000 
#    y 0.000000 1.749470 0.000000 
#    z 0.000000 0.000000 1.747990 
# 
# From -- ./inp_files/4223.got.cif
#   From: 2010.05.17/outbox.cif.g08.bks.cpg/sg86_3_cif.got.tgz:4223.got - 2010.06.03 19:03:11.
