data_PCOD9545277
_publ_section_title
;
Structure prediction by ZEFSAII (Michael W. Deem and Ramdas Pophale) SiO2 
 PCOD9545277
Probable space group: P 42/N
;
_chemical_formula_sum "Si O2"
_cell_formula_units_Z 32
_cell_length_a 13.600145
_cell_length_b 13.600145
_cell_length_c 9.021502
_cell_angle_alpha 90.000000
_cell_angle_beta 90.000000
_cell_angle_gamma 90.000000
_cell_volume 1668.652591
_symmetry_space_group_name_H-M "P 42/N"
_symmetry_group_IT_number 86
_space_group.IT_coordinate_system_code '2'
_symmetry_cell_setting 'tetragonal'
loop_
_space_group_symop_operation_xyz
x,y,z
-y,1/2+x,1/2+z
1/2-x,1/2-y,z
1/2+y,-x,1/2+z
-x,-y,-z
y,1/2-x,1/2-z
1/2+x,1/2+y,-z
1/2-y,x,1/2-z
loop_
_atom_site_type_symbol
_atom_site_label
_atom_site_fract_x
_atom_site_fract_y
_atom_site_fract_z
Si Si1 0.582447 0.728067 0.551959
Si Si2 0.217612 0.044099 0.389116
Si Si3 0.462910 0.586232 0.392832
Si Si4 0.095066 0.447151 0.570835
O O1 0.576276 0.745471 0.727375
O O2 0.662462 0.639519 0.538653
O O3 0.481653 0.684598 0.484996
O O4 0.599686 0.831123 0.469462
O O5 0.306759 0.012704 0.493235
O O6 0.145659 0.952263 0.360156
O O7 0.500000 0.500000 0.500000
O O8 0.526849 0.593068 0.243764
O O9 0.000000 0.500000 0.500000
#
# Coordination Sequence:
#
# PCOD9545277 Si02
#       4
#     8   8   8   8
#     4  11  22  40  68  99 132 173 228 282 341 403
#     4  11  22  44  68  95 135 179 229 283 342 412
#     4  10  24  42  62  98 136 173 222 282 340 414
#     4  12  23  41  70  96 133 178 220 281 345 393
#
# _framework density 19.177149
#
# number of rings (size 3 to 8) (size 9 to 14) (size 15 to 20)
#    0.000    1.000    5.000    2.250    7.000    0.000 
#    0.000    1.250    0.000    0.000    0.000    0.000 
#    0.000    0.000    0.000    0.000    0.000    0.000 
#
# Total GULP energy -178463.313808 kJ/mol
# GULP energy per Si atom -5576.978557 kJ/mol
# Density = 1.913350 g / cm^3
# Si number density = 19.177149 Si / 1000 Ang^3
#
#
#
# Elastic Constant Matrix: (Units=GPa)
#
#
# Indices 1 2 3 4 5 6 
#
# 1 62.5557 38.3301 50.0775 0.0000 0.0000 -11.5273
# 2 38.3301 62.5557 50.0775 0.0000 0.0000 11.5273
# 3 50.0775 50.0775 133.6315 0.0000 0.0000 0.0000
# 4 0.0000 0.0000 0.0000 35.8284 0.0000 0.0000
# 5 0.0000 0.0000 0.0000 0.0000 35.8284 0.0000
# 6 -11.5273 11.5273 0.0000 0.0000 0.0000 35.5315
#
#
#
# Elastic Compliance Matrix: (Units=1/GPa)
#
#
# Indices 1 2 3 4 5 6 
#
# 1 0.037750 -0.021965 -0.005915 0.000000 0.000000 0.019373
# 2 -0.021965 0.037750 -0.005915 0.000000 0.000000 -0.019373
# 3 -0.005915 -0.005915 0.011917 0.000000 0.000000 0.000000
# 4 0.000000 0.000000 0.000000 0.027911 0.000000 0.000000
# 5 0.000000 0.000000 0.000000 0.000000 0.027911 0.000000
# 6 0.019373 -0.019373 0.000000 0.000000 0.000000 0.040714
#
#
# Mechanical properties :
#
#
# Convention : Reuss Voigt Hill
#
# Bulk Modulus (GPa) = 50.44130 59.52365 54.98247
# Shear Modulus (GPa) = 19.36844 29.45487 24.41165
#
# Velocity S-wave (km/s) = 3.18146 3.92335 3.57172
# Velocity P-wave (km/s) = 6.31312 7.18539 6.76333
#
# Compressibility (1/GPa) = 0.01982503
#
# Stress axis : x y z
#
# Youngs Moduli (GPa) = 26.49012 26.49012 83.91680
#
# Poissons Ratio (x) = 0.58187 0.49638
# Poissons Ratio (y) = 0.58187 0.49638
# Poissons Ratio (z) = 0.15669 0.15669
#
# Static dielectric constant tensor:
#      x y z
#    x 1.622890 0.000000 0.000000 
#    y 0.000000 1.622890 0.000000 
#    z 0.000000 0.000000 1.688860 
# 
# From -- ./inp_files/923.got.cif
#   From: 2010.05.17/outbox.cif.g08.bks.cpg/sg86_1_cif.got.tgz:923.got - 2010.06.03 19:03:11.
