data_PCOD9545723
_publ_section_title
;
Structure prediction by ZEFSAII (Michael W. Deem and Ramdas Pophale) SiO2 
 PCOD9545723
Probable space group: I 4/M
;
_chemical_formula_sum "Si O2"
_cell_formula_units_Z 120
_cell_length_a 25.161130
_cell_length_b 25.161130
_cell_length_c 7.745971
_cell_angle_alpha 90.000000
_cell_angle_beta 90.000000
_cell_angle_gamma 90.000000
_cell_volume 4903.838398
_symmetry_space_group_name_H-M "I 4/M"
_symmetry_group_IT_number 87
_symmetry_cell_setting 'tetragonal'
loop_
_space_group_symop_operation_xyz
x,y,z
-y,x,z
-x,-y,z
y,-x,z
-x,-y,-z
y,-x,-z
x,y,-z
-y,x,-z
1/2+x,1/2+y,1/2+z
1/2-y,1/2+x,1/2+z
1/2-x,1/2-y,1/2+z
1/2+y,1/2-x,1/2+z
1/2-x,1/2-y,1/2-z
1/2+y,1/2-x,1/2-z
1/2+x,1/2+y,1/2-z
1/2-y,1/2+x,1/2-z
loop_
_atom_site_type_symbol
_atom_site_label
_atom_site_fract_x
_atom_site_fract_y
_atom_site_fract_z
Si Si1 0.256677 0.368419 0.712225
Si Si2 0.209657 0.015014 0.797614
Si Si3 0.793317 0.427421 0.801527
Si Si4 0.569248 0.554821 0.000000
Si Si5 0.874130 0.071054 0.805980
Si Si6 0.513466 0.080910 0.695376
Si Si7 0.389409 0.862531 0.288360
Si Si8 0.838458 0.784958 0.804695
O O1 0.259779 0.367767 0.500000
O O2 0.280327 0.425661 0.771528
O O3 0.195182 0.368975 0.762367
O O4 0.287345 0.315273 0.770463
O O5 0.260596 0.975514 0.782411
O O6 0.160782 0.978510 0.734702
O O7 0.199157 0.022067 0.000000
O O8 0.849533 0.408621 0.726055
O O9 0.759218 0.372472 0.793349
O O10 0.800219 0.442461 0.000000
O O11 0.507367 0.570202 0.000000
O O12 0.589369 0.580947 0.175165
O O13 0.832872 0.119094 0.818535
O O14 0.894027 0.059309 0.000000
O O15 0.495643 0.090340 0.500000
O O16 0.466811 0.057043 0.807947
O O17 0.549418 0.128688 0.764541
O O18 0.389587 0.864162 0.500000
O O19 0.827478 0.765707 0.000000
#
# Coordination Sequence:
#
# PCOD9545723 Si02
#       8
#    16  16  16   8  16  16  16  16
#     4   9  18  35  58  83 110 140 188 238 277 335
#     4   9  19  35  58  85 105 140 196 240 283 338
#     4  10  20  35  54  79 115 152 180 221 288 348
#     4  11  26  40  54  86 120 158 200 238 299 373
#     4   9  20  38  60  86 114 151 198 250 302 349
#     4  10  20  36  57  82 110 148 191 228 276 331
#     4   9  20  35  54  83 117 150 181 226 286 338
#     4   9  19  36  58  83 106 142 193 236 281 341
#
# _framework density 24.470625999999999
#
# number of rings (size 3 to 8) (size 9 to 14) (size 15 to 20)
#    0.000    2.600    0.000    2.000    7.467    1.067 
#    0.000    3.333    0.000    4.000    0.000    0.000 
#    0.000    0.000    0.000    0.000    0.000    0.000 
#
# Total GULP energy -335079.838667 kJ/mol
# GULP energy per Si atom -5584.663978 kJ/mol
# Density = 2.441493 g / cm^3
# Si number density = 24.470626 Si / 1000 Ang^3
#
#
#
# Elastic Constant Matrix: (Units=GPa)
#
#
# Indices 1 2 3 4 5 6 
#
# 1 71.3256 0.2961 6.1526 0.0000 0.0000 -2.8095
# 2 0.2961 71.3256 6.1526 0.0000 0.0000 2.8095
# 3 6.1526 6.1526 54.9271 0.0000 0.0000 0.0000
# 4 0.0000 0.0000 0.0000 20.9104 0.0000 0.0000
# 5 0.0000 0.0000 0.0000 0.0000 20.9104 0.0000
# 6 -2.8095 2.8095 0.0000 0.0000 0.0000 39.8074
#
#
#
# Elastic Compliance Matrix: (Units=1/GPa)
#
#
# Indices 1 2 3 4 5 6 
#
# 1 0.014197 0.000039 -0.001595 0.000000 0.000000 0.000999
# 2 0.000039 0.014197 -0.001595 0.000000 0.000000 -0.000999
# 3 -0.001595 -0.001595 0.018563 0.000000 0.000000 0.000000
# 4 0.000000 0.000000 0.000000 0.047823 0.000000 0.000000
# 5 0.000000 0.000000 0.000000 0.000000 0.047823 0.000000
# 6 0.000999 -0.000999 0.000000 0.000000 0.000000 0.025262
#
#
# Mechanical properties :
#
#
# Convention : Reuss Voigt Hill
#
# Bulk Modulus (GPa) = 24.59600 24.75344 24.67472
# Shear Modulus (GPa) = 26.63572 28.65743 27.64658
#
# Velocity S-wave (km/s) = 3.30279 3.42584 3.36488
# Velocity P-wave (km/s) = 4.96161 5.07799 5.02014
#
# Compressibility (1/GPa) = 0.04065702
#
# Stress axis : x y z
#
# Youngs Moduli (GPa) = 70.43763 70.43763 53.87002
#
# Poissons Ratio (x) = -0.00277 0.08590
# Poissons Ratio (y) = -0.00277 0.08590
# Poissons Ratio (z) = 0.11232 0.11232
#
# Static dielectric constant tensor:
#      x y z
#    x 1.983250 0.000000 0.000000 
#    y 0.000000 1.983250 0.000000 
#    z 0.000000 0.000000 -0.804380 
# 
# From -- ./inp_files/1699.got.cif
#   From: 2010.05.17/outbox.cif.g08.bks.cpg/sg87_1_cif.got.tgz:1699.got - 2010.06.03 19:07:00.
