data_PCOD9545352
_publ_section_title
;
Structure prediction by ZEFSAII (Michael W. Deem and Ramdas Pophale) SiO2 
 PCOD9545352
Probable space group: P 42/N
;
_chemical_formula_sum "Si O2"
_cell_formula_units_Z 48
_cell_length_a 19.651773
_cell_length_b 19.651773
_cell_length_c 6.667690
_cell_angle_alpha 90.000000
_cell_angle_beta 90.000000
_cell_angle_gamma 90.000000
_cell_volume 2575.009750
_symmetry_space_group_name_H-M "P 42/N"
_symmetry_group_IT_number 86
_space_group.IT_coordinate_system_code '2'
_symmetry_cell_setting 'tetragonal'
loop_
_space_group_symop_operation_xyz
x,y,z
-y,1/2+x,1/2+z
1/2-x,1/2-y,z
1/2+y,-x,1/2+z
-x,-y,-z
y,1/2-x,1/2-z
1/2+x,1/2+y,-z
1/2-y,x,1/2-z
loop_
_atom_site_type_symbol
_atom_site_label
_atom_site_fract_x
_atom_site_fract_y
_atom_site_fract_z
Si Si1 0.057332 0.060402 0.529684
Si Si2 0.839797 0.383585 0.725743
Si Si3 0.670556 0.509039 0.747626
Si Si4 0.209675 0.507206 0.983886
Si Si5 0.579477 0.236848 0.899173
Si Si6 0.571630 0.480309 0.094718
O O1 0.025803 0.135369 0.538454
O O2 0.115399 0.057821 0.359049
O O3 0.089490 0.037709 0.742507
O O4 0.000000 0.000000 0.500000
O O5 0.798313 0.420509 0.901526
O O6 0.865381 0.310193 0.791300
O O7 0.798744 0.386878 0.519404
O O8 0.907351 0.429395 0.699036
O O9 0.738020 0.533097 0.868670
O O10 0.693338 0.458727 0.570517
O O11 0.627075 0.473297 0.921357
O O12 0.239058 0.524861 0.765625
O O13 0.500000 0.500000 0.000000
#
# Coordination Sequence:
#
# PCOD9545352 Si02
#       6
#     8   8   8   8   8   8
#     4  12  21  37  65 100 126 162 224 271 332 397
#     4  11  23  38  59  85 122 174 217 267 315 383
#     4  11  22  40  61  95 134 161 206 275 338 390
#     4  11  23  40  64  92 130 172 210 273 342 389
#     4  11  24  40  61  84 129 176 221 266 322 384
#     4  12  21  36  65  94 124 161 211 281 327 384
#
# _framework density 18.640706000000002
#
# number of rings (size 3 to 8) (size 9 to 14) (size 15 to 20)
#    0.000    0.667    6.667    1.000    2.333    1.333 
#    0.000    2.500    0.000    0.500    0.000    0.000 
#    0.000    0.000    0.000    0.000    0.000    0.000 
#
# Total GULP energy -267804.343007 kJ/mol
# GULP energy per Si atom -5579.257146 kJ/mol
# Density = 1.859828 g / cm^3
# Si number density = 18.640706 Si / 1000 Ang^3
#
#
#
# Elastic Constant Matrix: (Units=GPa)
#
#
# Indices 1 2 3 4 5 6 
#
# 1 93.3196 35.0332 43.8192 0.0000 0.0000 2.1524
# 2 35.0332 93.3196 43.8192 0.0000 0.0000 -2.1524
# 3 43.8192 43.8192 128.2707 0.0000 0.0000 0.0000
# 4 0.0000 0.0000 0.0000 36.8523 0.0000 0.0000
# 5 0.0000 0.0000 0.0000 0.0000 36.8523 0.0000
# 6 2.1524 -2.1524 0.0000 0.0000 0.0000 25.4737
#
#
#
# Elastic Compliance Matrix: (Units=1/GPa)
#
#
# Indices 1 2 3 4 5 6 
#
# 1 0.013713 -0.003552 -0.003471 0.000000 0.000000 -0.001459
# 2 -0.003552 0.013713 -0.003471 0.000000 0.000000 0.001459
# 3 -0.003471 -0.003471 0.010168 0.000000 0.000000 0.000000
# 4 0.000000 0.000000 0.000000 0.027135 0.000000 0.000000
# 5 0.000000 0.000000 0.000000 0.000000 0.027135 0.000000
# 6 -0.001459 0.001459 0.000000 0.000000 0.000000 0.039503
#
#
# Mechanical properties :
#
#
# Convention : Reuss Voigt Hill
#
# Bulk Modulus (GPa) = 60.22239 62.25034 61.23636
# Shear Modulus (GPa) = 31.66771 32.65156 32.15963
#
# Velocity S-wave (km/s) = 4.12618 4.18978 4.15810
# Velocity P-wave (km/s) = 7.42142 7.54142 7.48166
#
# Compressibility (1/GPa) = 0.01660512
#
# Stress axis : x y z
#
# Youngs Moduli (GPa) = 72.92479 72.92479 98.35137
#
# Poissons Ratio (x) = 0.25900 0.34140
# Poissons Ratio (y) = 0.25900 0.34140
# Poissons Ratio (z) = 0.25314 0.25314
#
# Static dielectric constant tensor:
#      x y z
#    x 1.659270 0.000000 0.000000 
#    y 0.000000 1.659270 0.000000 
#    z 0.000000 0.000000 1.696960 
# 
# From -- ./inp_files/423.got.cif
#   From: 2010.05.17/outbox.cif.g08.bks.cpg/sg86_1_cif.got.tgz:423.got - 2010.06.03 19:03:11.
