data_PCOD9545180
_publ_section_title
;
Structure prediction by ZEFSAII (Michael W. Deem and Ramdas Pophale) SiO2 
 PCOD9545180
Probable space group: P 42/N
;
_chemical_formula_sum "Si O2"
_cell_formula_units_Z 26
_cell_length_a 11.006305
_cell_length_b 11.006305
_cell_length_c 8.341174
_cell_angle_alpha 90.000000
_cell_angle_beta 90.000000
_cell_angle_gamma 90.000000
_cell_volume 1010.439390
_symmetry_space_group_name_H-M "P 42/N"
_symmetry_group_IT_number 86
_space_group.IT_coordinate_system_code '2'
_symmetry_cell_setting 'tetragonal'
loop_
_space_group_symop_operation_xyz
x,y,z
-y,1/2+x,1/2+z
1/2-x,1/2-y,z
1/2+y,-x,1/2+z
-x,-y,-z
y,1/2-x,1/2-z
1/2+x,1/2+y,-z
1/2-y,x,1/2-z
loop_
_atom_site_type_symbol
_atom_site_label
_atom_site_fract_x
_atom_site_fract_y
_atom_site_fract_z
Si Si1 0.302388 0.526998 0.434712
Si Si2 0.250000 0.250000 0.750000
Si Si3 0.013050 0.868426 0.631405
Si Si4 0.410782 0.050337 0.635756
O O1 0.233515 0.535616 0.264419
O O2 0.394572 0.635416 0.482598
O O3 0.374923 0.398255 0.418652
O O4 0.208737 0.523498 0.582730
O O5 0.355925 0.185637 0.646864
O O6 0.040065 0.999673 0.714297
O O7 0.500000 0.000000 0.500000
#
# Coordination Sequence:
#
# PCOD9545180 Si02
#       4
#     8   2   8   8
#     4  10  22  43  67 100 147 189 249 318 385 459
#     4  12  20  40  76 102 148 212 240 340 382 448
#     4  10  22  44  67 104 143 193 256 320 385 476
#     4  10  22  41  69 104 140 193 263 308 385 469
#
# _framework density 25.731380000000001
#
# number of rings (size 3 to 8) (size 9 to 14) (size 15 to 20)
#    0.000    1.846    3.077    0.000    0.000    5.538 
#    0.000    4.615    0.000    0.000    0.000    0.000 
#    0.000    0.000    0.000    0.000    0.000    0.000 
#
# Total GULP energy -144794.989287 kJ/mol
# GULP energy per Si atom -5569.038050 kJ/mol
# Density = 2.567281 g / cm^3
# Si number density = 25.731380 Si / 1000 Ang^3
#
#
#
# Elastic Constant Matrix: (Units=GPa)
#
#
# Indices 1 2 3 4 5 6 
#
# 1 109.7240 29.9925 40.5350 0.0000 0.0000 -13.1299
# 2 29.9925 109.7240 40.5350 0.0000 0.0000 13.1299
# 3 40.5350 40.5350 97.1475 0.0000 0.0000 0.0000
# 4 0.0000 0.0000 0.0000 54.4742 0.0000 0.0000
# 5 0.0000 0.0000 0.0000 0.0000 54.4742 0.0000
# 6 -13.1299 13.1299 0.0000 0.0000 0.0000 21.7339
#
#
#
# Elastic Compliance Matrix: (Units=1/GPa)
#
#
# Indices 1 2 3 4 5 6 
#
# 1 0.012551 -0.003107 -0.003940 0.000000 0.000000 0.009459
# 2 -0.003107 0.012551 -0.003940 0.000000 0.000000 -0.009459
# 3 -0.003940 -0.003940 0.013582 0.000000 0.000000 0.000000
# 4 0.000000 0.000000 0.000000 0.018357 0.000000 0.000000
# 5 0.000000 0.000000 0.000000 0.000000 0.018357 0.000000
# 6 0.009459 -0.009459 0.000000 0.000000 0.000000 0.057440
#
#
# Mechanical properties :
#
#
# Convention : Reuss Voigt Hill
#
# Bulk Modulus (GPa) = 59.85247 59.85782 59.85515
# Shear Modulus (GPa) = 31.17558 39.83869 35.50713
#
# Velocity S-wave (km/s) = 3.48455 3.93905 3.71875
# Velocity P-wave (km/s) = 6.28494 6.63335 6.46149
#
# Compressibility (1/GPa) = 0.01670775
#
# Stress axis : x y z
#
# Youngs Moduli (GPa) = 79.67753 79.67753 73.62721
#
# Poissons Ratio (x) = 0.24754 0.29012
# Poissons Ratio (y) = 0.24754 0.29012
# Poissons Ratio (z) = 0.31396 0.31396
#
# Static dielectric constant tensor:
#      x y z
#    x 2.285070 0.000000 0.000000 
#    y 0.000000 2.285070 0.000000 
#    z 0.000000 0.000000 2.114860 
# 
# From -- ./inp_files/761.got.cif
#   From: 2010.05.17/outbox.cif.g08.bks.cpg/sg86_1_cif.got.tgz:761.got - 2010.06.03 19:03:11.
