data_PCOD9545514
_publ_section_title
;
Structure prediction by ZEFSAII (Michael W. Deem and Ramdas Pophale) SiO2 
 PCOD9545514
Probable space group: I 4/M
;
_chemical_formula_sum "Si O2"
_cell_formula_units_Z 96
_cell_length_a 19.133210
_cell_length_b 19.133210
_cell_length_c 14.551465
_cell_angle_alpha 90.000000
_cell_angle_beta 90.000000
_cell_angle_gamma 90.000000
_cell_volume 5326.996304
_symmetry_space_group_name_H-M "I 4/M"
_symmetry_group_IT_number 87
_symmetry_cell_setting 'tetragonal'
loop_
_space_group_symop_operation_xyz
x,y,z
-y,x,z
-x,-y,z
y,-x,z
-x,-y,-z
y,-x,-z
x,y,-z
-y,x,-z
1/2+x,1/2+y,1/2+z
1/2-y,1/2+x,1/2+z
1/2-x,1/2-y,1/2+z
1/2+y,1/2-x,1/2+z
1/2-x,1/2-y,1/2-z
1/2+y,1/2-x,1/2-z
1/2+x,1/2+y,1/2-z
1/2-y,1/2+x,1/2-z
loop_
_atom_site_type_symbol
_atom_site_label
_atom_site_fract_x
_atom_site_fract_y
_atom_site_fract_z
Si Si1 0.114748 0.479822 0.739644
Si Si2 0.183208 0.408895 0.901504
Si Si3 0.409522 0.424880 0.606350
Si Si4 0.779604 0.777583 0.392271
Si Si5 0.199838 0.849600 0.204813
Si Si6 0.052749 0.301266 0.101545
O O1 0.076967 0.553001 0.764151
O O2 0.169354 0.459319 0.817732
O O3 0.156820 0.489181 0.645835
O O4 0.246728 0.355570 0.890712
O O5 0.115422 0.358046 0.904418
O O6 0.188147 0.445389 0.000000
O O7 0.491581 0.405521 0.617491
O O8 0.390112 0.407939 0.500000
O O9 0.363896 0.380218 0.677539
O O10 0.796337 0.761825 0.500000
O O11 0.837037 0.780407 0.311349
O O12 0.717940 0.727210 0.353235
O O13 0.241988 0.916193 0.166352
O O14 0.038277 0.273971 0.000000
#
# Coordination Sequence:
#
# PCOD9545514 Si02
#       6
#    16  16  16  16  16  16
#     4   9  17  28  44  68  98 134 172 200 226 273
#     4   8  15  29  46  64  91 126 162 199 239 278
#     4   9  18  32  50  74 101 126 157 199 245 292
#     4   9  18  32  51  75  99 125 159 198 241 289
#     4  10  18  31  53  73  95 129 160 194 242 294
#     4   9  17  29  45  66  94 127 162 201 243 282
#
# _framework density 18.021414
#
# number of rings (size 3 to 8) (size 9 to 14) (size 15 to 20)
#    0.000    3.000    0.000    3.000    0.000    2.000 
#    0.000    4.167    0.000   17.000    0.000    1.167 
#    0.000    0.000    0.000    0.000    0.000    0.000 
#
# Total GULP energy -267241.350120 kJ/mol
# GULP energy per Si atom -5567.528127 kJ/mol
# Density = 1.798040 g / cm^3
# Si number density = 18.021414 Si / 1000 Ang^3
#
#
#
# Elastic Constant Matrix: (Units=GPa)
#
#
# Indices 1 2 3 4 5 6 
#
# 1 30.3474 15.4568 32.5188 0.0000 0.0000 -7.0168
# 2 15.4568 30.3474 32.5188 0.0000 0.0000 7.0168
# 3 32.5188 32.5188 133.8486 0.0000 0.0000 0.0000
# 4 0.0000 0.0000 0.0000 17.4759 0.0000 0.0000
# 5 0.0000 0.0000 0.0000 0.0000 17.4759 0.0000
# 6 -7.0168 7.0168 0.0000 0.0000 0.0000 12.4976
#
#
#
# Elastic Compliance Matrix: (Units=1/GPa)
#
#
# Indices 1 2 3 4 5 6 
#
# 1 0.087978 -0.054648 -0.008098 0.000000 0.000000 0.080078
# 2 -0.054648 0.087978 -0.008098 0.000000 0.000000 -0.080078
# 3 -0.008098 -0.008098 0.011406 0.000000 0.000000 0.000000
# 4 0.000000 0.000000 0.000000 0.057222 0.000000 0.000000
# 5 0.000000 0.000000 0.000000 0.000000 0.057222 0.000000
# 6 0.080078 -0.080078 0.000000 0.000000 0.000000 0.169935
#
#
# Mechanical properties :
#
#
# Convention : Reuss Voigt Hill
#
# Bulk Modulus (GPa) = 21.89372 39.50355 30.69863
# Shear Modulus (GPa) = 7.95351 17.09314 12.52332
#
# Velocity S-wave (km/s) = 2.10308 3.08310 2.63898
# Velocity P-wave (km/s) = 4.25116 5.88574 5.13392
#
# Compressibility (1/GPa) = 0.04567521
#
# Stress axis : x y z
#
# Youngs Moduli (GPa) = 11.36645 11.36645 87.67507
#
# Poissons Ratio (x) = 0.62116 0.70995
# Poissons Ratio (y) = 0.62116 0.70995
# Poissons Ratio (z) = 0.09204 0.09204
#
# Static dielectric constant tensor:
#      x y z
#    x 1.630020 0.000000 0.000000 
#    y 0.000000 1.630020 0.000000 
#    z 0.000000 0.000000 1.645450 
# 
# From -- ./inp_files/3785.got.cif
#   From: 2010.05.17/outbox.cif.g08.bks.cpg/sg87_2_cif.got.tgz:3785.got - 2010.06.03 19:07:00.
