data_PCOD9545006
_publ_section_title
;
Structure prediction by ZEFSAII (Michael W. Deem and Ramdas Pophale) SiO2 
 PCOD9545006
Probable space group: P 42/N
;
_chemical_formula_sum "Si O2"
_cell_formula_units_Z 52
_cell_length_a 18.089881
_cell_length_b 18.089881
_cell_length_c 8.622544
_cell_angle_alpha 90.000000
_cell_angle_beta 90.000000
_cell_angle_gamma 90.000000
_cell_volume 2821.674018
_symmetry_space_group_name_H-M "P 42/N"
_symmetry_group_IT_number 86
_space_group.IT_coordinate_system_code '2'
_symmetry_cell_setting 'tetragonal'
loop_
_space_group_symop_operation_xyz
x,y,z
-y,1/2+x,1/2+z
1/2-x,1/2-y,z
1/2+y,-x,1/2+z
-x,-y,-z
y,1/2-x,1/2-z
1/2+x,1/2+y,-z
1/2-y,x,1/2-z
loop_
_atom_site_type_symbol
_atom_site_label
_atom_site_fract_x
_atom_site_fract_y
_atom_site_fract_z
Si Si1 0.603660 0.433579 0.531149
Si Si2 0.971012 0.502854 0.752995
Si Si3 0.447067 0.390313 0.949404
Si Si4 0.767463 0.004652 0.353538
Si Si5 0.806473 0.852754 0.225080
Si Si6 0.375723 0.730386 0.359416
Si Si7 0.250000 0.750000 0.607180
O O1 0.555470 0.435211 0.372571
O O2 0.568155 0.494685 0.643002
O O3 0.686883 0.452712 0.483445
O O4 0.602861 0.354529 0.612741
O O5 0.915516 0.532910 0.622441
O O6 0.040609 0.466502 0.662431
O O7 0.493209 0.317712 0.900229
O O8 0.361791 0.368572 0.916421
O O9 0.804752 0.925036 0.331031
O O10 0.771577 0.049381 0.190939
O O11 0.836363 0.779375 0.311397
O O12 0.324374 0.751478 0.504437
O O13 0.321691 0.744788 0.214726
#
# Coordination Sequence:
#
# PCOD9545006 Si02
#       7
#     8   8   8   8   8   8   4
#     4  11  22  39  57  86 121 156 198 256 297 359
#     4  10  22  37  61  87 120 154 198 258 298 352
#     4  10  20  38  61  90 116 158 203 245 302 365
#     4  11  21  36  62  88 119 161 203 241 302 366
#     4   9  19  36  60  90 120 153 197 247 297 365
#     4  11  22  38  56  83 120 162 205 249 301 357
#     4  10  24  38  54  82 122 164 210 248 298 356
#
# _framework density 18.428775000000002
#
# number of rings (size 3 to 8) (size 9 to 14) (size 15 to 20)
#    0.000    1.692    4.615    0.000    0.000    3.692 
#    0.000    1.538    0.000    0.000    0.000    0.000 
#    0.000    0.000    0.000    0.000    0.000    0.000 
#
# Total GULP energy -289933.731694 kJ/mol
# GULP energy per Si atom -5575.648686 kJ/mol
# Density = 1.838683 g / cm^3
# Si number density = 18.428775 Si / 1000 Ang^3
#
#
#
# Elastic Constant Matrix: (Units=GPa)
#
#
# Indices 1 2 3 4 5 6 
#
# 1 77.7024 26.5112 33.8956 0.0000 0.0000 0.1700
# 2 26.5112 77.7024 33.8956 0.0000 0.0000 -0.1700
# 3 33.8956 33.8956 95.6143 0.0000 0.0000 0.0000
# 4 0.0000 0.0000 0.0000 17.3603 0.0000 0.0000
# 5 0.0000 0.0000 0.0000 0.0000 17.3603 0.0000
# 6 0.1700 -0.1700 0.0000 0.0000 0.0000 23.3239
#
#
#
# Elastic Compliance Matrix: (Units=1/GPa)
#
#
# Indices 1 2 3 4 5 6 
#
# 1 0.016004 -0.003532 -0.004421 0.000000 0.000000 -0.000142
# 2 -0.003532 0.016004 -0.004421 0.000000 0.000000 0.000142
# 3 -0.004421 -0.004421 0.013593 0.000000 0.000000 0.000000
# 4 0.000000 0.000000 0.000000 0.057603 0.000000 0.000000
# 5 0.000000 0.000000 0.000000 0.000000 0.057603 0.000000
# 6 -0.000142 0.000142 0.000000 0.000000 0.000000 0.042877
#
#
# Mechanical properties :
#
#
# Convention : Reuss Voigt Hill
#
# Bulk Modulus (GPa) = 47.95758 48.84712 48.40235
# Shear Modulus (GPa) = 21.24208 22.05669 21.64938
#
# Velocity S-wave (km/s) = 3.39876 3.46332 3.43120
# Velocity P-wave (km/s) = 6.44064 6.52351 6.48221
#
# Compressibility (1/GPa) = 0.02085176
#
# Stress axis : x y z
#
# Youngs Moduli (GPa) = 62.48576 62.48576 73.56506
#
# Poissons Ratio (x) = 0.22069 0.32525
# Poissons Ratio (y) = 0.22069 0.32525
# Poissons Ratio (z) = 0.27627 0.27627
#
# Static dielectric constant tensor:
#      x y z
#    x 1.654270 0.000000 0.000000 
#    y 0.000000 1.654270 0.000000 
#    z 0.000000 0.000000 1.607810 
# 
# From -- ./inp_files/1415.got.cif
#   From: 2010.05.17/outbox.cif.g08.bks.cpg/sg86_1_cif.got.tgz:1415.got - 2010.06.03 19:03:11.
