data_PCOD9545854
_publ_section_title
;
Structure prediction by ZEFSAII (Michael W. Deem and Ramdas Pophale) SiO2 
 PCOD9545854
Probable space group: I 4/M
;
_chemical_formula_sum "Si O2"
_cell_formula_units_Z 112
_cell_length_a 13.672202
_cell_length_b 13.672202
_cell_length_c 23.693974
_cell_angle_alpha 90.000000
_cell_angle_beta 90.000000
_cell_angle_gamma 90.000000
_cell_volume 4429.093414
_symmetry_space_group_name_H-M "I 4/M"
_symmetry_group_IT_number 87
_symmetry_cell_setting 'tetragonal'
loop_
_space_group_symop_operation_xyz
x,y,z
-y,x,z
-x,-y,z
y,-x,z
-x,-y,-z
y,-x,-z
x,y,-z
-y,x,-z
1/2+x,1/2+y,1/2+z
1/2-y,1/2+x,1/2+z
1/2-x,1/2-y,1/2+z
1/2+y,1/2-x,1/2+z
1/2-x,1/2-y,1/2-z
1/2+y,1/2-x,1/2-z
1/2+x,1/2+y,1/2-z
1/2-y,1/2+x,1/2-z
loop_
_atom_site_type_symbol
_atom_site_label
_atom_site_fract_x
_atom_site_fract_y
_atom_site_fract_z
Si Si1 0.627896 0.923452 0.732601
Si Si2 0.601803 0.276730 0.063040
Si Si3 0.122323 0.897293 0.326439
Si Si4 0.002569 0.164088 0.062018
Si Si5 0.058690 0.394936 0.433207
Si Si6 0.298963 0.169356 0.169671
Si Si7 0.218574 0.629475 0.371414
O O1 0.537546 0.886834 0.771575
O O2 0.711446 0.899234 0.775893
O O3 0.627094 0.868921 0.673705
O O4 0.611760 0.365133 0.107158
O O5 0.511115 0.201532 0.069544
O O6 0.688249 0.199864 0.077066
O O7 0.606431 0.314238 0.000000
O O8 0.223186 0.842434 0.311353
O O9 0.011221 0.866905 0.309707
O O10 0.025847 0.245951 0.107330
O O11 0.909519 0.094827 0.065567
O O12 0.002341 0.209659 0.000000
O O13 0.090037 0.400320 0.500000
O O14 0.137139 0.367969 0.384058
O O15 0.000000 0.500000 0.422445
O O16 0.187718 0.193390 0.155545
#
# Coordination Sequence:
#
# PCOD9545854 Si02
#       7
#    16  16  16  16  16  16  16
#     4  11  27  46  70  94 126 177 229 287 352 417
#     4  10  21  37  59  94 134 171 212 263 321 403
#     4  10  21  39  62  91 131 176 210 258 325 398
#     4   9  20  40  66  99 138 177 217 272 346 422
#     4  10  22  39  64  97 139 180 218 272 336 403
#     4  11  24  42  68  95 133 171 227 283 337 408
#     4  11  24  41  66  97 131 169 228 286 337 399
#
# _framework density 25.287341999999999
#
# number of rings (size 3 to 8) (size 9 to 14) (size 15 to 20)
#    0.000    1.714    1.429    2.143    8.000    3.429 
#    0.000    3.571    0.000    1.714    0.000    0.000 
#    0.000    0.000    0.000    0.000    0.000    0.000 
#
# Total GULP energy -312712.234954 kJ/mol
# GULP energy per Si atom -5584.147053 kJ/mol
# Density = 2.522979 g / cm^3
# Si number density = 25.287342 Si / 1000 Ang^3
#
#
#
# Elastic Constant Matrix: (Units=GPa)
#
#
# Indices 1 2 3 4 5 6 
#
# 1 65.1327 31.4309 19.4399 0.0000 0.0000 5.7780
# 2 31.4309 65.1327 19.4399 0.0000 0.0000 -5.7780
# 3 19.4399 19.4399 82.2108 0.0000 0.0000 0.0000
# 4 0.0000 0.0000 0.0000 29.1692 0.0000 0.0000
# 5 0.0000 0.0000 0.0000 0.0000 29.1692 0.0000
# 6 5.7780 -5.7780 0.0000 0.0000 0.0000 43.8353
#
#
#
# Elastic Compliance Matrix: (Units=1/GPa)
#
#
# Indices 1 2 3 4 5 6 
#
# 1 0.021261 -0.009815 -0.002706 0.000000 0.000000 -0.004096
# 2 -0.009815 0.021261 -0.002706 0.000000 0.000000 0.004096
# 3 -0.002706 -0.002706 0.013444 0.000000 0.000000 0.000000
# 4 0.000000 0.000000 0.000000 0.034283 0.000000 0.000000
# 5 0.000000 0.000000 0.000000 0.000000 0.034283 0.000000
# 6 -0.004096 0.004096 0.000000 0.000000 0.000000 0.023893
#
#
# Mechanical properties :
#
#
# Convention : Reuss Voigt Hill
#
# Bulk Modulus (GPa) = 39.20168 39.23307 39.21738
# Shear Modulus (GPa) = 26.68319 29.91244 28.29782
#
# Velocity S-wave (km/s) = 3.25191 3.44306 3.34885
# Velocity P-wave (km/s) = 5.44390 5.59954 5.52227
#
# Compressibility (1/GPa) = 0.02550911
#
# Stress axis : x y z
#
# Youngs Moduli (GPa) = 47.03433 47.03433 74.38366
#
# Poissons Ratio (x) = 0.46166 0.20132
# Poissons Ratio (y) = 0.46166 0.20132
# Poissons Ratio (z) = 0.12730 0.12730
#
# Static dielectric constant tensor:
#      x y z
#    x 2.029640 0.000000 0.000000 
#    y 0.000000 2.029640 0.000000 
#    z 0.000000 0.000000 2.052520 
# 
# From -- ./inp_files/6289.got.cif
#   From: 2010.05.17/outbox.cif.g08.bks.cpg/sg87_4_cif.got.tgz:6289.got - 2010.06.03 19:07:00.
