data_PCOD9545184
_publ_section_title
;
Structure prediction by ZEFSAII (Michael W. Deem and Ramdas Pophale) SiO2 
 PCOD9545184
Probable space group: P 42/N
;
_chemical_formula_sum "Si O2"
_cell_formula_units_Z 40
_cell_length_a 14.399766
_cell_length_b 14.399766
_cell_length_c 9.053629
_cell_angle_alpha 90.000000
_cell_angle_beta 90.000000
_cell_angle_gamma 90.000000
_cell_volume 1877.299496
_symmetry_space_group_name_H-M "P 42/N"
_symmetry_group_IT_number 86
_space_group.IT_coordinate_system_code '2'
_symmetry_cell_setting 'tetragonal'
loop_
_space_group_symop_operation_xyz
x,y,z
-y,1/2+x,1/2+z
1/2-x,1/2-y,z
1/2+y,-x,1/2+z
-x,-y,-z
y,1/2-x,1/2-z
1/2+x,1/2+y,-z
1/2-y,x,1/2-z
loop_
_atom_site_type_symbol
_atom_site_label
_atom_site_fract_x
_atom_site_fract_y
_atom_site_fract_z
Si Si1 0.466661 0.501416 0.334964
Si Si2 0.664721 0.872728 0.698705
Si Si3 0.124325 0.709280 0.791553
Si Si4 0.377242 0.800512 0.444153
Si Si5 0.416209 0.444054 0.920121
O O1 0.500000 0.500000 0.500000
O O2 0.452974 0.396185 0.276918
O O3 0.364532 0.544043 0.318342
O O4 0.538549 0.564466 0.240675
O O5 0.771523 0.872070 0.747742
O O6 0.641345 0.886773 0.524272
O O7 0.122013 0.801640 0.892546
O O8 0.131605 0.725967 0.616268
O O9 0.215235 0.653572 0.844170
O O10 0.481170 0.833718 0.415217
O O11 0.500000 0.500000 0.000000
#
# Coordination Sequence:
#
# PCOD9545184 Si02
#       5
#     8   8   8   8   8
#     4  11  26  39  64  99 127 167 219 272 331 392
#     4  10  23  45  69  90 125 179 224 267 333 401
#     4  11  24  39  62  94 127 172 206 270 326 388
#     4  11  23  40  63  93 129 169 212 266 331 392
#     4  10  22  42  63  89 126 165 215 269 324 385
#
# _framework density 21.307203000000001
#
# number of rings (size 3 to 8) (size 9 to 14) (size 15 to 20)
#    0.000    1.400    4.000    2.400   14.000    0.000 
#    0.000    0.000    0.000    2.400    0.000    0.000 
#    0.000    0.000    0.000    0.000    0.000    0.000 
#
# Total GULP energy -223263.198256 kJ/mol
# GULP energy per Si atom -5581.579956 kJ/mol
# Density = 2.125871 g / cm^3
# Si number density = 21.307203 Si / 1000 Ang^3
#
#
#
# Elastic Constant Matrix: (Units=GPa)
#
#
# Indices 1 2 3 4 5 6 
#
# 1 70.0071 16.4269 25.1710 0.0000 0.0000 -2.0082
# 2 16.4269 70.0071 25.1710 0.0000 0.0000 2.0082
# 3 25.1710 25.1710 140.0145 0.0000 0.0000 0.0000
# 4 0.0000 0.0000 0.0000 17.3442 0.0000 0.0000
# 5 0.0000 0.0000 0.0000 0.0000 17.3442 0.0000
# 6 -2.0082 2.0082 0.0000 0.0000 0.0000 35.1059
#
#
#
# Elastic Compliance Matrix: (Units=1/GPa)
#
#
# Indices 1 2 3 4 5 6 
#
# 1 0.015833 -0.002911 -0.002323 0.000000 0.000000 0.001072
# 2 -0.002911 0.015833 -0.002323 0.000000 0.000000 -0.001072
# 3 -0.002323 -0.002323 0.007977 0.000000 0.000000 0.000000
# 4 0.000000 0.000000 0.000000 0.057656 0.000000 0.000000
# 5 0.000000 0.000000 0.000000 0.000000 0.057656 0.000000
# 6 0.001072 -0.001072 0.000000 0.000000 0.000000 0.028608
#
#
# Mechanical properties :
#
#
# Convention : Reuss Voigt Hill
#
# Bulk Modulus (GPa) = 40.76642 45.95186 43.35914
# Shear Modulus (GPa) = 24.17150 28.17616 26.17383
#
# Velocity S-wave (km/s) = 3.37178 3.64040 3.50866
# Velocity P-wave (km/s) = 5.85942 6.26763 6.06696
#
# Compressibility (1/GPa) = 0.02452999
#
# Stress axis : x y z
#
# Youngs Moduli (GPa) = 63.15798 63.15798 125.35409
#
# Poissons Ratio (x) = 0.18383 0.29122
# Poissons Ratio (y) = 0.18383 0.29122
# Poissons Ratio (z) = 0.14673 0.14673
#
# Static dielectric constant tensor:
#      x y z
#    x 1.450430 0.000000 0.000000 
#    y 0.000000 1.450430 0.000000 
#    z 0.000000 0.000000 1.094140 
# 
# From -- ./inp_files/1108.got.cif
#   From: 2010.05.17/outbox.cif.g08.bks.cpg/sg86_1_cif.got.tgz:1108.got - 2010.06.03 19:03:11.
