data_PCOD9545559
_publ_section_title
;
Structure prediction by ZEFSAII (Michael W. Deem and Ramdas Pophale) SiO2 
 PCOD9545559
Probable space group: I 4/M
;
_chemical_formula_sum "Si O2"
_cell_formula_units_Z 96
_cell_length_a 25.803994
_cell_length_b 25.803994
_cell_length_c 9.049363
_cell_angle_alpha 90.000000
_cell_angle_beta 90.000000
_cell_angle_gamma 90.000000
_cell_volume 6025.483119
_symmetry_space_group_name_H-M "I 4/M"
_symmetry_group_IT_number 87
_symmetry_cell_setting 'tetragonal'
loop_
_space_group_symop_operation_xyz
x,y,z
-y,x,z
-x,-y,z
y,-x,z
-x,-y,-z
y,-x,-z
x,y,-z
-y,x,-z
1/2+x,1/2+y,1/2+z
1/2-y,1/2+x,1/2+z
1/2-x,1/2-y,1/2+z
1/2+y,1/2-x,1/2+z
1/2-x,1/2-y,1/2-z
1/2+y,1/2-x,1/2-z
1/2+x,1/2+y,1/2-z
1/2-y,1/2+x,1/2-z
loop_
_atom_site_type_symbol
_atom_site_label
_atom_site_fract_x
_atom_site_fract_y
_atom_site_fract_z
Si Si1 0.311073 0.887009 0.825884
Si Si2 0.999442 0.300244 0.174128
Si Si3 0.312485 0.608182 0.324113
Si Si4 0.308333 0.386269 0.177173
Si Si5 0.304644 0.115977 0.825950
Si Si6 0.809900 0.002538 0.325379
O O1 0.249309 0.885939 0.793873
O O2 0.342961 0.845328 0.735058
O O3 0.329103 0.946478 0.798359
O O4 0.317518 0.876094 0.000000
O O5 0.943191 0.325276 0.194630
O O6 0.999949 0.250492 0.279513
O O7 0.002103 0.283173 0.000000
O O8 0.319311 0.610390 0.500000
O O9 0.344230 0.653336 0.245322
O O10 0.330333 0.552173 0.262778
O O11 0.250800 0.380283 0.244712
O O12 0.328889 0.444585 0.211959
O O13 0.305423 0.381765 0.000000
O O14 0.296099 0.123683 0.000000
O O15 0.815770 0.011038 0.500000
#
# Coordination Sequence:
#
# PCOD9545559 Si02
#       6
#    16  16  16  16  16  16
#     4   9  18  32  48  68  95 125 156 193 237 281
#     4   8  16  31  48  66  91 123 159 196 232 276
#     4  10  20  33  50  71  97 129 160 193 234 280
#     4  10  20  33  50  72  98 127 158 194 236 281
#     4  10  19  31  49  72  96 124 159 197 237 282
#     4   9  17  30  49  71  93 120 157 197 234 275
#
# _framework density 15.932332000000001
#
# number of rings (size 3 to 8) (size 9 to 14) (size 15 to 20)
#    0.000    2.667    0.000    3.000    0.000    6.667 
#    0.000    0.000    0.000    1.000    0.000    7.000 
#    0.000    0.000    0.000    0.000    0.000    0.000 
#
# Total GULP energy -267229.932960 kJ/mol
# GULP energy per Si atom -5567.290270 kJ/mol
# Density = 1.589607 g / cm^3
# Si number density = 15.932332 Si / 1000 Ang^3
#
#
#
# Elastic Constant Matrix: (Units=GPa)
#
#
# Indices 1 2 3 4 5 6 
#
# 1 87.1491 60.0105 55.1045 0.0000 0.0000 -0.0068
# 2 60.0105 87.1491 55.1045 0.0000 0.0000 0.0068
# 3 55.1045 55.1045 68.1538 0.0000 0.0000 0.0000
# 4 0.0000 0.0000 0.0000 24.3561 0.0000 0.0000
# 5 0.0000 0.0000 0.0000 0.0000 24.3561 0.0000
# 6 -0.0068 0.0068 0.0000 0.0000 0.0000 -3.5092
#
#
#
# Elastic Compliance Matrix: (Units=1/GPa)
#
#
# Indices 1 2 3 4 5 6 
#
# 1 0.027037 -0.009811 -0.013928 0.000000 0.000000 -0.000071
# 2 -0.009811 0.027037 -0.013928 0.000000 0.000000 0.000071
# 3 -0.013928 -0.013928 0.037195 0.000000 0.000000 0.000000
# 4 0.000000 0.000000 0.000000 0.041057 0.000000 0.000000
# 5 0.000000 0.000000 0.000000 0.000000 0.041057 0.000000
# 6 -0.000071 0.000071 0.000000 0.000000 0.000000 -0.284963
#
#
# Mechanical properties :
#
#
# Convention : Reuss Voigt Hill
#
# Bulk Modulus (GPa) = 62.75216 64.76564 63.75890
# Shear Modulus (GPa) = -161.62647 13.85612 -73.88518
#
# Velocity S-wave (km/s) = -10.08295 2.95224 -6.81726
# Velocity P-wave (km/s) = 9.80215 7.23600 4.67560
#
# Compressibility (1/GPa) = 0.01593571
#
# Stress axis : x y z
#
# Youngs Moduli (GPa) = 36.98656 36.98656 26.88567
#
# Poissons Ratio (x) = 0.36287 0.37445
# Poissons Ratio (y) = 0.36287 0.37445
# Poissons Ratio (z) = 0.51514 0.51514
#
# Static dielectric constant tensor:
#      x y z
#    x 1.533790 0.000000 0.000000 
#    y 0.000000 1.533790 0.000000 
#    z 0.000000 0.000000 1.529010 
# 
# From -- ./inp_files/1379.got.cif
#   From: 2010.05.17/outbox.cif.g08.bks.cpg/sg87_1_cif.got.tgz:1379.got - 2010.06.03 19:07:00.
