data_PCOD9545108
_publ_section_title
;
Structure prediction by ZEFSAII (Michael W. Deem and Ramdas Pophale) SiO2 
 PCOD9545108
Probable space group: P 42/N
;
_chemical_formula_sum "Si O2"
_cell_formula_units_Z 48
_cell_length_a 13.526173
_cell_length_b 13.526173
_cell_length_c 11.838899
_cell_angle_alpha 90.000000
_cell_angle_beta 90.000000
_cell_angle_gamma 90.000000
_cell_volume 2166.013659
_symmetry_space_group_name_H-M "P 42/N"
_symmetry_group_IT_number 86
_space_group.IT_coordinate_system_code '2'
_symmetry_cell_setting 'tetragonal'
loop_
_space_group_symop_operation_xyz
x,y,z
-y,1/2+x,1/2+z
1/2-x,1/2-y,z
1/2+y,-x,1/2+z
-x,-y,-z
y,1/2-x,1/2-z
1/2+x,1/2+y,-z
1/2-y,x,1/2-z
loop_
_atom_site_type_symbol
_atom_site_label
_atom_site_fract_x
_atom_site_fract_y
_atom_site_fract_z
Si Si1 0.561026 0.168762 0.200736
Si Si2 0.921413 0.373835 0.940496
Si Si3 0.552487 0.569097 0.273016
Si Si4 0.750000 0.750000 0.750000
Si Si5 0.750000 0.250000 0.816599
Si Si6 0.750000 0.750000 0.250000
Si Si7 0.286393 0.434384 0.881533
Si Si8 0.441898 0.295894 0.375636
O O1 0.671951 0.193621 0.238982
O O2 0.497965 0.248595 0.269008
O O3 0.532336 0.058971 0.240010
O O4 0.557573 0.162767 0.066031
O O5 0.833307 0.306635 0.889939
O O6 0.882783 0.487330 0.924260
O O7 0.022645 0.378358 0.870976
O O8 0.537158 0.683781 0.316856
O O9 0.611835 0.523048 0.165719
O O10 0.694060 0.830240 0.829759
O O11 0.675810 0.803421 0.333440
O O12 0.274448 0.439671 0.014362
#
# Coordination Sequence:
#
# PCOD9545108 Si02
#       8
#     8   8   8   2   4   2   8   8
#     4  11  23  43  67  99 132 176 229 275 345 405
#     4  11  23  42  71  97 132 182 225 279 344 409
#     4  11  22  40  70  95 133 176 224 278 336 409
#     4  12  26  44  60  98 140 170 220 272 346 400
#     4  10  24  44  68 100 134 178 230 292 334 406
#     4   8  18  36  60  86 116 174 212 260 322 380
#     4  10  21  39  62  94 129 167 223 269 327 396
#     4  11  25  42  65  96 135 175 222 280 338 407
#
# _framework density 22.160523999999999
#
# number of rings (size 3 to 8) (size 9 to 14) (size 15 to 20)
#    0.000    1.333    1.667    3.500    2.333    0.667 
#    6.000    0.000    0.000    0.000    0.000    0.000 
#    0.000    0.000    0.000    0.000    0.000    0.000 
#
# Total GULP energy -267377.204840 kJ/mol
# GULP energy per Si atom -5570.358434 kJ/mol
# Density = 2.211009 g / cm^3
# Si number density = 22.160524 Si / 1000 Ang^3
#
#
#
# Elastic Constant Matrix: (Units=GPa)
#
#
# Indices 1 2 3 4 5 6 
#
# 1 80.2574 -47.8447 1.1098 0.0000 0.0000 15.9040
# 2 -47.8447 80.2574 1.1098 0.0000 0.0000 -15.9040
# 3 1.1098 1.1098 94.9204 0.0000 0.0000 0.0000
# 4 0.0000 0.0000 0.0000 32.9687 0.0000 0.0000
# 5 0.0000 0.0000 0.0000 0.0000 32.9687 0.0000
# 6 15.9040 -15.9040 0.0000 0.0000 0.0000 24.9004
#
#
#
# Elastic Compliance Matrix: (Units=1/GPa)
#
#
# Indices 1 2 3 4 5 6 
#
# 1 0.020077 0.010800 -0.000361 0.000000 0.000000 -0.005926
# 2 0.010800 0.020077 -0.000361 0.000000 0.000000 0.005926
# 3 -0.000361 -0.000361 0.010544 0.000000 0.000000 0.000000
# 4 0.000000 0.000000 0.000000 0.030332 0.000000 0.000000
# 5 0.000000 0.000000 0.000000 0.000000 0.030332 0.000000
# 6 -0.005926 0.005926 0.000000 0.000000 0.000000 0.047729
#
#
# Mechanical properties :
#
#
# Convention : Reuss Voigt Hill
#
# Bulk Modulus (GPa) = 14.11372 18.24279 16.17825
# Shear Modulus (GPa) = 30.75909 38.23826 34.49868
#
# Velocity S-wave (km/s) = 3.72965 4.15844 3.94986
# Velocity P-wave (km/s) = 4.99296 5.59524 5.30266
#
# Compressibility (1/GPa) = 0.07085307
#
# Stress axis : x y z
#
# Youngs Moduli (GPa) = 49.80777 49.80777 94.84438
#
# Poissons Ratio (x) = -0.53790 0.03424
# Poissons Ratio (y) = -0.53790 0.03424
# Poissons Ratio (z) = 0.01798 0.01798
#
# Static dielectric constant tensor:
#      x y z
#    x 1.585330 0.000000 0.000000 
#    y 0.000000 1.585330 0.000000 
#    z 0.000000 0.000000 1.863100 
# 
# From -- ./inp_files/2355.got.cif
#   From: 2010.05.17/outbox.cif.g08.bks.cpg/sg86_2_cif.got.tgz:2355.got - 2010.06.03 19:03:11.
