data_PCOD9545385
_publ_section_title
;
Structure prediction by ZEFSAII (Michael W. Deem and Ramdas Pophale) SiO2 
 PCOD9545385
Probable space group: P 42/N
;
_chemical_formula_sum "Si O2"
_cell_formula_units_Z 24
_cell_length_a 10.282418
_cell_length_b 10.282418
_cell_length_c 9.309833
_cell_angle_alpha 90.000000
_cell_angle_beta 90.000000
_cell_angle_gamma 90.000000
_cell_volume 984.311140
_symmetry_space_group_name_H-M "P 42/N"
_symmetry_group_IT_number 86
_space_group.IT_coordinate_system_code '2'
_symmetry_cell_setting 'tetragonal'
loop_
_space_group_symop_operation_xyz
x,y,z
-y,1/2+x,1/2+z
1/2-x,1/2-y,z
1/2+y,-x,1/2+z
-x,-y,-z
y,1/2-x,1/2-z
1/2+x,1/2+y,-z
1/2-y,x,1/2-z
loop_
_atom_site_type_symbol
_atom_site_label
_atom_site_fract_x
_atom_site_fract_y
_atom_site_fract_z
Si Si1 0.478768 0.611754 0.619616
Si Si2 0.932054 0.724310 0.166849
Si Si3 0.889678 0.916018 0.923497
O O1 0.500000 0.500000 0.500000
O O2 0.219976 0.393440 0.510837
O O3 0.571342 0.598588 0.758115
O O4 0.331221 0.577115 0.668946
O O5 0.840984 0.607815 0.226590
O O6 0.992438 0.745192 0.562988
O O7 0.000000 0.000000 0.000000
#
# Coordination Sequence:
#
# PCOD9545385 Si02
#       3
#     8   8   8
#     4  12  27  50  83 121 167 229 293 361 446 542
#     4  11  23  48  81 112 167 227 278 368 456 508
#     4  12  28  50  79 129 167 226 295 362 449 534
#
# _framework density 24.382531
#
# number of rings (size 3 to 8) (size 9 to 14) (size 15 to 20)
#    0.000    0.333    3.333    6.000    0.000    4.667 
#    0.000    3.333    0.000    0.000    0.000    0.000 
#    0.000    0.000    0.000    0.000    0.000    0.000 
#
# Total GULP energy -134311.691065 kJ/mol
# GULP energy per Si atom -5596.320461 kJ/mol
# Density = 2.432704 g / cm^3
# Si number density = 24.382531 Si / 1000 Ang^3
#
#
#
# Elastic Constant Matrix: (Units=GPa)
#
#
# Indices 1 2 3 4 5 6 
#
# 1 147.8611 90.3840 58.0246 0.0000 0.0000 -0.3672
# 2 90.3840 147.8611 58.0246 0.0000 0.0000 0.3672
# 3 58.0246 58.0246 190.1093 0.0000 0.0000 0.0000
# 4 0.0000 0.0000 0.0000 48.6744 0.0000 0.0000
# 5 0.0000 0.0000 0.0000 0.0000 48.6744 0.0000
# 6 -0.3672 0.3672 0.0000 0.0000 0.0000 41.0366
#
#
#
# Elastic Compliance Matrix: (Units=1/GPa)
#
#
# Indices 1 2 3 4 5 6 
#
# 1 0.011165 -0.006235 -0.001505 0.000000 0.000000 0.000156
# 2 -0.006235 0.011165 -0.001505 0.000000 0.000000 -0.000156
# 3 -0.001505 -0.001505 0.006179 0.000000 0.000000 0.000000
# 4 0.000000 0.000000 0.000000 0.020545 0.000000 0.000000
# 5 0.000000 0.000000 0.000000 0.000000 0.020545 0.000000
# 6 0.000156 -0.000156 0.000000 0.000000 0.000000 0.024371
#
#
# Mechanical properties :
#
#
# Convention : Reuss Voigt Hill
#
# Bulk Modulus (GPa) = 99.79909 99.85534 99.82722
# Shear Modulus (GPa) = 43.17820 46.30363 44.74091
#
# Velocity S-wave (km/s) = 4.21273 4.36254 4.28829
# Velocity P-wave (km/s) = 8.04253 8.14973 8.09631
#
# Compressibility (1/GPa) = 0.01002013
#
# Stress axis : x y z
#
# Youngs Moduli (GPa) = 89.56328 89.56328 161.84549
#
# Poissons Ratio (x) = 0.55842 0.24355
# Poissons Ratio (y) = 0.55842 0.24355
# Poissons Ratio (z) = 0.13478 0.13478
#
# Static dielectric constant tensor:
#      x y z
#    x 2.032450 0.000000 0.000000 
#    y 0.000000 2.032450 0.000000 
#    z 0.000000 0.000000 2.027670 
# 
# From -- ./inp_files/717.got.cif
#   From: 2010.05.17/outbox.cif.g08.bks.cpg/sg86_1_cif.got.tgz:717.got - 2010.06.03 19:03:11.
