data_PCOD9545170
_publ_section_title
;
Structure prediction by ZEFSAII (Michael W. Deem and Ramdas Pophale) SiO2 
 PCOD9545170
Probable space group: P 42/N
;
_chemical_formula_sum "Si O2"
_cell_formula_units_Z 40
_cell_length_a 9.535453
_cell_length_b 9.535453
_cell_length_c 20.302795
_cell_angle_alpha 90.000000
_cell_angle_beta 90.000000
_cell_angle_gamma 90.000000
_cell_volume 1846.028872
_symmetry_space_group_name_H-M "P 42/N"
_symmetry_group_IT_number 86
_space_group.IT_coordinate_system_code '2'
_symmetry_cell_setting 'tetragonal'
loop_
_space_group_symop_operation_xyz
x,y,z
-y,1/2+x,1/2+z
1/2-x,1/2-y,z
1/2+y,-x,1/2+z
-x,-y,-z
y,1/2-x,1/2-z
1/2+x,1/2+y,-z
1/2-y,x,1/2-z
loop_
_atom_site_type_symbol
_atom_site_label
_atom_site_fract_x
_atom_site_fract_y
_atom_site_fract_z
Si Si1 0.853453 0.008386 0.872752
Si Si2 0.750000 0.250000 0.549478
Si Si3 0.950208 0.348128 0.666612
Si Si4 0.250000 0.750000 0.221187
Si Si5 0.250000 0.250000 0.432009
Si Si6 0.750000 0.750000 0.368281
Si Si7 0.504087 0.729911 0.034336
O O1 0.785484 0.122463 0.826050
O O2 0.930131 0.093874 0.932619
O O3 0.738441 0.892600 0.891335
O O4 0.984098 0.937669 0.835287
O O5 0.873860 0.298011 0.598859
O O6 0.804367 0.126395 0.501345
O O7 0.875909 0.284969 0.729751
O O8 0.111020 0.300270 0.667671
O O9 0.211595 0.384595 0.475768
O O10 0.708556 0.610177 0.410854
#
# Coordination Sequence:
#
# PCOD9545170 Si02
#       7
#     8   4   8   4   4   4   8
#     4  11  24  46  68 102 134 180 225 281 335 400
#     4  11  21  40  66 102 143 173 210 280 332 399
#     4  10  24  46  67  95 138 179 227 278 327 394
#     4  11  27  48  70  92 135 181 238 280 324 389
#     4  11  22  42  74  97 137 176 215 276 346 409
#     4   9  22  42  70  99 130 185 217 268 344 397
#     4  10  22  40  67 102 141 166 213 274 339 409
#
# _framework density 21.668133999999998
#
# number of rings (size 3 to 8) (size 9 to 14) (size 15 to 20)
#    0.000    1.600    2.000    1.200    5.600    5.600 
#    7.200    2.000    0.000    0.000    0.000    0.000 
#    0.000    0.000    0.000    0.000    0.000    0.000 
#
# Total GULP energy -223211.893589 kJ/mol
# GULP energy per Si atom -5580.297340 kJ/mol
# Density = 2.161882 g / cm^3
# Si number density = 21.668134 Si / 1000 Ang^3
#
#
#
# Elastic Constant Matrix: (Units=GPa)
#
#
# Indices 1 2 3 4 5 6 
#
# 1 83.2430 18.7087 52.5365 0.0000 0.0000 -11.1617
# 2 18.7087 83.2430 52.5365 0.0000 0.0000 11.1617
# 3 52.5365 52.5365 100.0774 0.0000 0.0000 0.0000
# 4 0.0000 0.0000 0.0000 7.3933 0.0000 0.0000
# 5 0.0000 0.0000 0.0000 0.0000 7.3933 0.0000
# 6 -11.1617 11.1617 0.0000 0.0000 0.0000 38.2217
#
#
#
# Elastic Compliance Matrix: (Units=1/GPa)
#
#
# Indices 1 2 3 4 5 6 
#
# 1 0.019304 0.002067 -0.011219 0.000000 0.000000 0.005034
# 2 0.002067 0.019304 -0.011219 0.000000 0.000000 -0.005034
# 3 -0.011219 -0.011219 0.021771 0.000000 0.000000 0.000000
# 4 0.000000 0.000000 0.000000 0.135258 0.000000 0.000000
# 5 0.000000 0.000000 0.000000 0.000000 0.135258 0.000000
# 6 0.005034 -0.005034 0.000000 0.000000 0.000000 0.029103
#
#
# Mechanical properties :
#
#
# Convention : Reuss Voigt Hill
#
# Bulk Modulus (GPa) = 50.92285 57.12519 54.02402
# Shear Modulus (GPa) = 12.27643 20.12042 16.19843
#
# Velocity S-wave (km/s) = 2.38285 3.05055 2.73714
# Velocity P-wave (km/s) = 5.57879 6.23127 5.91404
#
# Compressibility (1/GPa) = 0.01963755
#
# Stress axis : x y z
#
# Youngs Moduli (GPa) = 51.80312 51.80312 45.93240
#
# Poissons Ratio (x) = -0.10708 0.51531
# Poissons Ratio (y) = -0.10708 0.51531
# Poissons Ratio (z) = 0.58117 0.58117
#
# Static dielectric constant tensor:
#      x y z
#    x 1.798570 0.000000 0.000000 
#    y 0.000000 1.798570 0.000000 
#    z 0.000000 0.000000 1.820090 
# 
# From -- ./inp_files/4587.got.cif
#   From: 2010.05.17/outbox.cif.g08.bks.cpg/sg86_3_cif.got.tgz:4587.got - 2010.06.03 19:03:11.
