data_PCOD9545104
_publ_section_title
;
Structure prediction by ZEFSAII (Michael W. Deem and Ramdas Pophale) SiO2 
 PCOD9545104
Probable space group: P 42/N
;
_chemical_formula_sum "Si O2"
_cell_formula_units_Z 48
_cell_length_a 8.791668
_cell_length_b 8.791668
_cell_length_c 28.745863
_cell_angle_alpha 90.000000
_cell_angle_beta 90.000000
_cell_angle_gamma 90.000000
_cell_volume 2221.866241
_symmetry_space_group_name_H-M "P 42/N"
_symmetry_group_IT_number 86
_space_group.IT_coordinate_system_code '2'
_symmetry_cell_setting 'tetragonal'
loop_
_space_group_symop_operation_xyz
x,y,z
-y,1/2+x,1/2+z
1/2-x,1/2-y,z
1/2+y,-x,1/2+z
-x,-y,-z
y,1/2-x,1/2-z
1/2+x,1/2+y,-z
1/2-y,x,1/2-z
loop_
_atom_site_type_symbol
_atom_site_label
_atom_site_fract_x
_atom_site_fract_y
_atom_site_fract_z
Si Si1 0.823114 0.519013 0.766686
Si Si2 0.558212 0.082802 0.047113
Si Si3 0.729994 0.415976 0.195168
Si Si4 0.653082 0.909258 0.370506
Si Si5 0.435358 0.924416 0.454302
Si Si6 0.457268 0.530924 0.648214
O O1 0.656100 0.567480 0.750116
O O2 0.876607 0.359273 0.743118
O O3 0.827055 0.514403 0.822512
O O4 0.740862 0.067789 0.045372
O O5 0.521366 0.261710 0.049783
O O6 0.498288 0.015353 0.096076
O O7 0.500000 0.000000 0.000000
O O8 0.750000 0.250000 0.171770
O O9 0.619782 0.531744 0.169436
O O10 0.891138 0.495907 0.183237
O O11 0.750000 0.750000 0.379447
O O12 0.554419 0.960930 0.413925
O O13 0.777154 0.029685 0.355730
O O14 0.500000 0.000000 0.500000
#
# Coordination Sequence:
#
# PCOD9545104 Si02
#       6
#     8   8   8   8   8   8
#     4  11  26  44  64  98 141 176 226 279 342 410
#     4  11  24  44  69  99 135 181 225 280 352 404
#     4  11  21  41  68  92 128 175 219 276 333 400
#     4  10  21  38  67  98 128 171 229 273 341 407
#     4  11  23  40  69  98 132 174 226 288 335 414
#     4  11  23  43  69  94 134 177 225 286 330 412
#
# _framework density 21.603459999999998
#
# number of rings (size 3 to 8) (size 9 to 14) (size 15 to 20)
#    0.000    1.167    5.000    2.000    2.333    0.000 
#    3.000    0.000    3.667    0.000    0.000    0.000 
#    0.000    0.000    0.000    0.000    0.000    0.000 
#
# Total GULP energy -267716.786586 kJ/mol
# GULP energy per Si atom -5577.433054 kJ/mol
# Density = 2.155429 g / cm^3
# Si number density = 21.603460 Si / 1000 Ang^3
#
#
#
# Elastic Constant Matrix: (Units=GPa)
#
#
# Indices 1 2 3 4 5 6 
#
# 1 94.2348 17.9586 61.4767 0.0000 0.0000 3.9514
# 2 17.9586 94.2348 61.4767 0.0000 0.0000 -3.9514
# 3 61.4767 61.4767 149.4326 0.0000 0.0000 0.0000
# 4 0.0000 0.0000 0.0000 15.8259 0.0000 0.0000
# 5 0.0000 0.0000 0.0000 0.0000 15.8259 0.0000
# 6 3.9514 -3.9514 0.0000 0.0000 0.0000 19.5202
#
#
#
# Elastic Compliance Matrix: (Units=1/GPa)
#
#
# Indices 1 2 3 4 5 6 
#
# 1 0.014811 0.001420 -0.006677 0.000000 0.000000 -0.002711
# 2 0.001420 0.014811 -0.006677 0.000000 0.000000 0.002711
# 3 -0.006677 -0.006677 0.012186 0.000000 0.000000 0.000000
# 4 0.000000 0.000000 0.000000 0.063188 0.000000 0.000000
# 5 0.000000 0.000000 0.000000 0.000000 0.063188 0.000000
# 6 -0.002711 0.002711 0.000000 0.000000 0.000000 0.052327
#
#
# Mechanical properties :
#
#
# Convention : Reuss Voigt Hill
#
# Bulk Modulus (GPa) = 55.74616 68.85846 62.30231
# Shear Modulus (GPa) = 19.97129 23.36707 21.66918
#
# Velocity S-wave (km/s) = 3.04377 3.29239 3.17052
# Velocity P-wave (km/s) = 6.18167 6.81147 6.50420
#
# Compressibility (1/GPa) = 0.01793845
#
# Stress axis : x y z
#
# Youngs Moduli (GPa) = 67.51700 67.51700 82.05995
#
# Poissons Ratio (x) = -0.09587 0.54795
# Poissons Ratio (y) = -0.09587 0.54795
# Poissons Ratio (z) = 0.45084 0.45084
#
# Static dielectric constant tensor:
#      x y z
#    x 1.847850 0.000000 0.000000 
#    y 0.000000 1.847850 0.000000 
#    z 0.000000 0.000000 1.256930 
# 
# From -- ./inp_files/5209.got.cif
#   From: 2010.05.17/outbox.cif.g08.bks.cpg/sg86_3_cif.got.tgz:5209.got - 2010.06.03 19:03:11.
