data_PCOD9545663
_publ_section_title
;
Structure prediction by ZEFSAII (Michael W. Deem and Ramdas Pophale) SiO2 
 PCOD9545663
Probable space group: I 4/M
;
_chemical_formula_sum "Si O2"
_cell_formula_units_Z 96
_cell_length_a 15.775002
_cell_length_b 15.775002
_cell_length_c 23.885180
_cell_angle_alpha 90.000000
_cell_angle_beta 90.000000
_cell_angle_gamma 90.000000
_cell_volume 5943.843478
_symmetry_space_group_name_H-M "I 4/M"
_symmetry_group_IT_number 87
_symmetry_cell_setting 'tetragonal'
loop_
_space_group_symop_operation_xyz
x,y,z
-y,x,z
-x,-y,z
y,-x,z
-x,-y,-z
y,-x,-z
x,y,-z
-y,x,-z
1/2+x,1/2+y,1/2+z
1/2-y,1/2+x,1/2+z
1/2-x,1/2-y,1/2+z
1/2+y,1/2-x,1/2+z
1/2-x,1/2-y,1/2-z
1/2+y,1/2-x,1/2-z
1/2+x,1/2+y,1/2-z
1/2-y,1/2+x,1/2-z
loop_
_atom_site_type_symbol
_atom_site_label
_atom_site_fract_x
_atom_site_fract_y
_atom_site_fract_z
Si Si1 0.405365 0.970034 0.565287
Si Si2 0.227436 0.366176 0.565534
Si Si3 0.861544 0.966349 0.272146
Si Si4 0.523377 0.262571 0.882045
Si Si5 0.545423 0.364902 0.357459
Si Si6 0.687738 0.343962 0.066390
O O1 0.383595 0.989040 0.500000
O O2 0.399588 0.868712 0.571491
O O3 0.500000 0.000000 0.575951
O O4 0.336559 0.014064 0.604774
O O5 0.251268 0.371793 0.500000
O O6 0.292051 0.419289 0.602754
O O7 0.217885 0.266602 0.581144
O O8 0.789153 0.957493 0.318341
O O9 0.836457 0.953023 0.207602
O O10 0.940082 0.901895 0.280323
O O11 0.433113 0.300966 0.901838
O O12 0.598905 0.302305 0.918363
O O13 0.603339 0.448861 0.366221
O O14 0.694630 0.360441 0.000000
#
# Coordination Sequence:
#
# PCOD9545663 Si02
#       6
#    16  16  16  16  16  16
#     4   9  19  35  54  72  99 142 181 209 250 311
#     4   9  19  35  53  75 103 133 171 222 265 308
#     4   9  17  32  52  77 104 140 169 199 254 322
#     4  11  18  31  52  75 108 140 170 210 258 314
#     4   9  19  35  56  77 102 132 173 222 270 318
#     4  10  20  31  48  79 112 138 170 213 258 312
#
# _framework density 16.151164999999999
#
# number of rings (size 3 to 8) (size 9 to 14) (size 15 to 20)
#    0.000    2.500    1.667    3.500    0.000    2.333 
#    0.000    5.833    7.333    0.000    0.000    0.000 
#    0.000    0.000    0.000    0.000    0.000    0.000 
#
# Total GULP energy -267467.981846 kJ/mol
# GULP energy per Si atom -5572.249622 kJ/mol
# Density = 1.611440 g / cm^3
# Si number density = 16.151165 Si / 1000 Ang^3
#
#
#
# Elastic Constant Matrix: (Units=GPa)
#
#
# Indices 1 2 3 4 5 6 
#
# 1 78.8506 43.9676 52.8276 0.0000 0.0000 11.4404
# 2 43.9676 78.8506 52.8276 0.0000 0.0000 -11.4404
# 3 52.8276 52.8276 90.7549 0.0000 0.0000 0.0000
# 4 0.0000 0.0000 0.0000 29.1717 0.0000 0.0000
# 5 0.0000 0.0000 0.0000 0.0000 29.1717 0.0000
# 6 11.4404 -11.4404 0.0000 0.0000 0.0000 23.8939
#
#
#
# Elastic Compliance Matrix: (Units=1/GPa)
#
#
# Indices 1 2 3 4 5 6 
#
# 1 0.029050 -0.012742 -0.009493 0.000000 0.000000 -0.020010
# 2 -0.012742 0.029050 -0.009493 0.000000 0.000000 0.020010
# 3 -0.009493 -0.009493 0.022070 0.000000 0.000000 0.000000
# 4 0.000000 0.000000 0.000000 0.034280 0.000000 0.000000
# 5 0.000000 0.000000 0.000000 0.000000 0.034280 0.000000
# 6 -0.020010 0.020010 0.000000 0.000000 0.000000 0.061013
#
#
# Mechanical properties :
#
#
# Convention : Reuss Voigt Hill
#
# Bulk Modulus (GPa) = 59.82571 60.85575 60.34073
# Shear Modulus (GPa) = 17.93579 23.03634 20.48607
#
# Velocity S-wave (km/s) = 3.33602 3.78073 3.56532
# Velocity P-wave (km/s) = 7.20835 7.53785 7.37494
#
# Compressibility (1/GPa) = 0.01671522
#
# Stress axis : x y z
#
# Youngs Moduli (GPa) = 34.42282 34.42282 45.30958
#
# Poissons Ratio (x) = 0.43861 0.43013
# Poissons Ratio (y) = 0.43861 0.43013
# Poissons Ratio (z) = 0.32678 0.32678
#
# Static dielectric constant tensor:
#      x y z
#    x 1.530100 0.000000 0.000000 
#    y 0.000000 1.530100 0.000000 
#    z 0.000000 0.000000 1.541400 
# 
# From -- ./inp_files/5276.got.cif
#   From: 2010.05.17/outbox.cif.g08.bks.cpg/sg87_3_cif.got.tgz:5276.got - 2010.06.03 19:07:00.
