data_PCOD9545710
_publ_section_title
;
Structure prediction by ZEFSAII (Michael W. Deem and Ramdas Pophale) SiO2 
 PCOD9545710
Probable space group: I 4/M
;
_chemical_formula_sum "Si O2"
_cell_formula_units_Z 96
_cell_length_a 23.439224
_cell_length_b 23.439224
_cell_length_c 9.841838
_cell_angle_alpha 90.000000
_cell_angle_beta 90.000000
_cell_angle_gamma 90.000000
_cell_volume 5407.078454
_symmetry_space_group_name_H-M "I 4/M"
_symmetry_group_IT_number 87
_symmetry_cell_setting 'tetragonal'
loop_
_space_group_symop_operation_xyz
x,y,z
-y,x,z
-x,-y,z
y,-x,z
-x,-y,-z
y,-x,-z
x,y,-z
-y,x,-z
1/2+x,1/2+y,1/2+z
1/2-y,1/2+x,1/2+z
1/2-x,1/2-y,1/2+z
1/2+y,1/2-x,1/2+z
1/2-x,1/2-y,1/2-z
1/2+y,1/2-x,1/2-z
1/2+x,1/2+y,1/2-z
1/2-y,1/2+x,1/2-z
loop_
_atom_site_type_symbol
_atom_site_label
_atom_site_fract_x
_atom_site_fract_y
_atom_site_fract_z
Si Si1 0.517871 0.224738 0.658645
Si Si2 0.345366 0.669867 0.660316
Si Si3 0.594629 0.488646 0.355919
Si Si4 0.693537 0.857493 0.844211
Si Si5 0.831585 0.954496 0.339066
Si Si6 0.721327 0.116100 0.158987
O O1 0.522365 0.245191 0.500000
O O2 0.573956 0.184889 0.671912
O O3 0.530851 0.271043 0.773309
O O4 0.451519 0.209252 0.677680
O O5 0.360333 0.659952 0.500000
O O6 0.342079 0.739011 0.676008
O O7 0.395251 0.652069 0.763712
O O8 0.286695 0.636093 0.688580
O O9 0.559357 0.547297 0.357742
O O10 0.627653 0.484369 0.500000
O O11 0.630359 0.494012 0.220325
O O12 0.654330 0.821106 0.746130
O O13 0.680331 0.842906 0.000000
O O14 0.832678 0.949865 0.500000
O O15 0.713045 0.128609 0.000000
#
# Coordination Sequence:
#
# PCOD9545710 Si02
#       6
#    16  16  16  16  16  16
#     4   9  20  38  55  76 106 143 180 214 258 322
#     4   9  19  35  53  77 107 144 181 214 258 317
#     4   9  19  35  52  66  86 130 184 222 260 315
#     4   9  18  34  54  77 112 142 168 219 278 316
#     4  11  22  33  49  75 108 138 170 224 274 310
#     4  10  20  34  58  84 104 136 185 223 255 318
#
# _framework density 17.754504000000001
#
# number of rings (size 3 to 8) (size 9 to 14) (size 15 to 20)
#    0.000    2.500    0.000    3.500    2.333    4.667 
#    0.000    0.833    0.000    0.500    0.000    3.500 
#    0.000    0.000    0.000    0.000    0.000    0.000 
#
# Total GULP energy -267221.157678 kJ/mol
# GULP energy per Si atom -5567.107452 kJ/mol
# Density = 1.771409 g / cm^3
# Si number density = 17.754504 Si / 1000 Ang^3
#
#
#
# Elastic Constant Matrix: (Units=GPa)
#
#
# Indices 1 2 3 4 5 6 
#
# 1 71.0146 36.9535 44.0787 0.0000 0.0000 6.0415
# 2 36.9535 71.0146 44.0787 0.0000 0.0000 -6.0415
# 3 44.0787 44.0787 108.3099 0.0000 0.0000 0.0000
# 4 0.0000 0.0000 0.0000 -8.4924 0.0000 0.0000
# 5 0.0000 0.0000 0.0000 0.0000 -8.4924 0.0000
# 6 6.0415 -6.0415 0.0000 0.0000 0.0000 14.4726
#
#
#
# Elastic Compliance Matrix: (Units=1/GPa)
#
#
# Indices 1 2 3 4 5 6 
#
# 1 0.024167 -0.010295 -0.005645 0.000000 0.000000 -0.014386
# 2 -0.010295 0.024167 -0.005645 0.000000 0.000000 0.014386
# 3 -0.005645 -0.005645 0.013828 0.000000 0.000000 0.000000
# 4 0.000000 0.000000 0.000000 -0.117753 0.000000 0.000000
# 5 0.000000 0.000000 0.000000 0.000000 -0.117753 0.000000
# 6 -0.014386 0.014386 0.000000 0.000000 0.000000 0.081107
#
#
# Mechanical properties :
#
#
# Convention : Reuss Voigt Hill
#
# Bulk Modulus (GPa) = 52.66061 55.61788 54.13924
# Shear Modulus (GPa) = -116.99807 7.84612 -54.57598
#
# Velocity S-wave (km/s) = -8.12655 2.10448 -5.55031
# Velocity P-wave (km/s) = 7.63738 6.10730 3.24271
#
# Compressibility (1/GPa) = 0.01898953
#
# Stress axis : x y z
#
# Youngs Moduli (GPa) = 41.37899 41.37899 72.31905
#
# Poissons Ratio (x) = 0.42602 0.40826
# Poissons Ratio (y) = 0.42602 0.40826
# Poissons Ratio (z) = 0.23359 0.23359
#
# Static dielectric constant tensor:
#      x y z
#    x 1.644900 0.000000 0.000000 
#    y 0.000000 1.644900 0.000000 
#    z 0.000000 0.000000 1.592730 
# 
# From -- ./inp_files/1323.got.cif
#   From: 2010.05.17/outbox.cif.g08.bks.cpg/sg87_1_cif.got.tgz:1323.got - 2010.06.03 19:07:00.
