data_PCOD9545392
_publ_section_title
;
Structure prediction by ZEFSAII (Michael W. Deem and Ramdas Pophale) SiO2 
 PCOD9545392
Probable space group: P 42/N
;
_chemical_formula_sum "Si O2"
_cell_formula_units_Z 24
_cell_length_a 14.083538
_cell_length_b 14.083538
_cell_length_c 5.167491
_cell_angle_alpha 90.000000
_cell_angle_beta 90.000000
_cell_angle_gamma 90.000000
_cell_volume 1024.951390
_symmetry_space_group_name_H-M "P 42/N"
_symmetry_group_IT_number 86
_space_group.IT_coordinate_system_code '2'
_symmetry_cell_setting 'tetragonal'
loop_
_space_group_symop_operation_xyz
x,y,z
-y,1/2+x,1/2+z
1/2-x,1/2-y,z
1/2+y,-x,1/2+z
-x,-y,-z
y,1/2-x,1/2-z
1/2+x,1/2+y,-z
1/2-y,x,1/2-z
loop_
_atom_site_type_symbol
_atom_site_label
_atom_site_fract_x
_atom_site_fract_y
_atom_site_fract_z
Si Si1 0.660288 0.643630 0.644447
Si Si2 0.271585 0.517856 0.680905
Si Si3 0.855272 0.456087 0.809516
O O1 0.637763 0.755652 0.644975
O O2 0.701512 0.590630 0.395950
O O3 0.560347 0.596887 0.721826
O O4 0.200140 0.537796 0.916612
O O5 0.369969 0.572813 0.711645
O O6 0.220304 0.554304 0.420452
#
# Coordination Sequence:
#
# PCOD9545392 Si02
#       3
#     8   8   8
#     4   9  21  42  64  92 125 165 214 268 326 385
#     4  11  24  42  67  97 132 175 220 272 331 394
#     4  11  24  42  67  97 132 175 220 272 331 394
#
# _framework density 23.415744
#
# number of rings (size 3 to 8) (size 9 to 14) (size 15 to 20)
#    0.000    1.667    0.000    3.000    0.000   17.333 
#    0.000   20.000    0.000    0.000    0.000    0.000 
#    0.000    0.000    0.000    0.000    0.000    0.000 
#
# Total GULP energy -134051.119761 kJ/mol
# GULP energy per Si atom -5585.463323 kJ/mol
# Density = 2.336245 g / cm^3
# Si number density = 23.415744 Si / 1000 Ang^3
#
#
#
# Elastic Constant Matrix: (Units=GPa)
#
#
# Indices 1 2 3 4 5 6 
#
# 1 85.1719 39.6624 38.6526 0.0000 0.0000 9.2040
# 2 39.6624 85.1719 38.6526 0.0000 0.0000 -9.2040
# 3 38.6526 38.6526 126.9046 0.0000 0.0000 0.0000
# 4 0.0000 0.0000 0.0000 25.4627 0.0000 0.0000
# 5 0.0000 0.0000 0.0000 0.0000 25.4627 0.0000
# 6 9.2040 -9.2040 0.0000 0.0000 0.0000 20.0761
#
#
#
# Elastic Compliance Matrix: (Units=1/GPa)
#
#
# Indices 1 2 3 4 5 6 
#
# 1 0.018424 -0.008552 -0.003007 0.000000 0.000000 -0.012367
# 2 -0.008552 0.018424 -0.003007 0.000000 0.000000 0.012367
# 3 -0.003007 -0.003007 0.009712 0.000000 0.000000 0.000000
# 4 0.000000 0.000000 0.000000 0.039273 0.000000 0.000000
# 5 0.000000 0.000000 0.000000 0.000000 0.039273 0.000000
# 6 -0.012367 0.012367 0.000000 0.000000 0.000000 0.061150
#
#
# Mechanical properties :
#
#
# Convention : Reuss Voigt Hill
#
# Bulk Modulus (GPa) = 57.37544 59.02039 58.19792
# Shear Modulus (GPa) = 22.60421 26.21903 24.41162
#
# Velocity S-wave (km/s) = 3.11037 3.34985 3.23233
# Velocity P-wave (km/s) = 6.12007 6.34209 6.23207
#
# Compressibility (1/GPa) = 0.01742906
#
# Stress axis : x y z
#
# Youngs Moduli (GPa) = 54.27611 54.27611 102.96850
#
# Poissons Ratio (x) = 0.46414 0.30963
# Poissons Ratio (y) = 0.46414 0.30963
# Poissons Ratio (z) = 0.16321 0.16321
#
# Static dielectric constant tensor:
#      x y z
#    x 1.939090 0.000000 0.000000 
#    y 0.000000 1.939090 0.000000 
#    z 0.000000 0.000000 1.894310 
# 
# From -- ./inp_files/109.got.cif
#   From: 2010.05.17/outbox.cif.g08.bks.cpg/sg86_1_cif.got.tgz:109.got - 2010.06.03 19:03:11.
