data_PCOD9545883
_publ_section_title
;
Structure prediction by ZEFSAII (Michael W. Deem and Ramdas Pophale) SiO2 
 PCOD9545883
Probable space group: I 4/M
;
_chemical_formula_sum "Si O2"
_cell_formula_units_Z 120
_cell_length_a 27.308034
_cell_length_b 27.308034
_cell_length_c 7.563775
_cell_angle_alpha 90.000000
_cell_angle_beta 90.000000
_cell_angle_gamma 90.000000
_cell_volume 5640.524256
_symmetry_space_group_name_H-M "I 4/M"
_symmetry_group_IT_number 87
_symmetry_cell_setting 'tetragonal'
loop_
_space_group_symop_operation_xyz
x,y,z
-y,x,z
-x,-y,z
y,-x,z
-x,-y,-z
y,-x,-z
x,y,-z
-y,x,-z
1/2+x,1/2+y,1/2+z
1/2-y,1/2+x,1/2+z
1/2-x,1/2-y,1/2+z
1/2+y,1/2-x,1/2+z
1/2-x,1/2-y,1/2-z
1/2+y,1/2-x,1/2-z
1/2+x,1/2+y,1/2-z
1/2-y,1/2+x,1/2-z
loop_
_atom_site_type_symbol
_atom_site_label
_atom_site_fract_x
_atom_site_fract_y
_atom_site_fract_z
Si Si1 0.422187 0.472896 0.000000
Si Si2 0.688218 0.840242 0.213991
Si Si3 0.341224 0.450583 0.285965
Si Si4 0.128741 0.245546 0.294703
Si Si5 0.842715 0.199907 0.212691
Si Si6 0.024594 0.354439 0.204177
Si Si7 0.079332 0.611799 0.292386
Si Si8 0.980358 0.753540 0.798191
O O1 0.470823 0.439715 0.000000
O O2 0.389216 0.461823 0.827740
O O3 0.655710 0.794175 0.275990
O O4 0.744150 0.837898 0.276067
O O5 0.661403 0.889892 0.268412
O O6 0.689068 0.838602 0.000000
O O7 0.348864 0.455083 0.500000
O O8 0.322352 0.395786 0.246862
O O9 0.298172 0.487864 0.226533
O O10 0.117088 0.254401 0.500000
O O11 0.165866 0.200586 0.281311
O O12 0.077220 0.234507 0.203648
O O13 0.838437 0.200811 0.000000
O O14 0.068226 0.386807 0.282262
O O15 0.016220 0.300609 0.284824
O O16 0.973690 0.382886 0.208430
O O17 0.039493 0.345440 0.000000
O O18 0.071212 0.602848 0.500000
O O19 0.998832 0.748570 0.000000
#
# Coordination Sequence:
#
# PCOD9545883 Si02
#       8
#     8  16  16  16  16  16  16  16
#     4  11  28  50  72  98 136 174 214 283 346 398
#     4  10  21  40  60  87 129 171 207 252 315 382
#     4  10  24  43  70 101 129 174 225 269 333 400
#     4  11  23  35  60  96 127 164 209 258 314 379
#     4  10  22  40  61  88 128 171 209 255 317 386
#     4  10  22  41  61  84 121 162 202 254 316 371
#     4  11  23  38  61  88 115 156 208 259 310 368
#     4  10  21  41  64  88 124 167 209 258 315 385
#
# _framework density 21.274618
#
# number of rings (size 3 to 8) (size 9 to 14) (size 15 to 20)
#    0.000    1.667    1.333    2.000    3.733    5.600 
#    2.400    2.000    0.000    0.000    0.000    0.000 
#    0.000    0.000    0.000    0.000    0.000    0.000 
#
# Total GULP energy -335370.332376 kJ/mol
# GULP energy per Si atom -5589.505540 kJ/mol
# Density = 2.122620 g / cm^3
# Si number density = 21.274618 Si / 1000 Ang^3
#
#
#
# Elastic Constant Matrix: (Units=GPa)
#
#
# Indices 1 2 3 4 5 6 
#
# 1 90.4946 14.4340 6.4105 0.0000 0.0000 -1.5531
# 2 14.4340 90.4946 6.4105 0.0000 0.0000 1.5531
# 3 6.4105 6.4105 61.4551 0.0000 0.0000 0.0000
# 4 0.0000 0.0000 0.0000 24.0231 0.0000 0.0000
# 5 0.0000 0.0000 0.0000 0.0000 24.0231 0.0000
# 6 -1.5531 1.5531 0.0000 0.0000 0.0000 -11.5064
#
#
#
# Elastic Compliance Matrix: (Units=1/GPa)
#
#
# Indices 1 2 3 4 5 6 
#
# 1 0.011364 -0.001711 -0.001007 0.000000 0.000000 -0.001765
# 2 -0.001711 0.011364 -0.001007 0.000000 0.000000 0.001765
# 3 -0.001007 -0.001007 0.016482 0.000000 0.000000 0.000000
# 4 0.000000 0.000000 0.000000 0.041627 0.000000 0.000000
# 5 0.000000 0.000000 0.000000 0.000000 0.041627 0.000000
# 6 -0.001765 0.001765 0.000000 0.000000 0.000000 -0.086432
#
#
# Mechanical properties :
#
#
# Convention : Reuss Voigt Hill
#
# Bulk Modulus (GPa) = 31.48524 32.99495 32.24010
# Shear Modulus (GPa) = 92.47474 21.65392 57.06433
#
# Velocity S-wave (km/s) = 6.60012 3.19380 5.18468
# Velocity P-wave (km/s) = 8.53895 5.39845 7.14342
#
# Compressibility (1/GPa) = 0.03176091
#
# Stress axis : x y z
#
# Youngs Moduli (GPa) = 87.99465 87.99465 60.67185
#
# Poissons Ratio (x) = 0.15056 0.06109
# Poissons Ratio (y) = 0.15056 0.06109
# Poissons Ratio (z) = 0.08861 0.08861
#
# Static dielectric constant tensor:
#      x y z
#    x 1.740720 0.000000 0.000000 
#    y 0.000000 1.740720 0.000000 
#    z 0.000000 0.000000 1.794360 
# 
# From -- ./inp_files/1724.got.cif
#   From: 2010.05.17/outbox.cif.g08.bks.cpg/sg87_1_cif.got.tgz:1724.got - 2010.06.03 19:07:00.
