data_PCOD9545561
_publ_section_title
;
Structure prediction by ZEFSAII (Michael W. Deem and Ramdas Pophale) SiO2 
 PCOD9545561
Probable space group: I 4/M
;
_chemical_formula_sum "Si O2"
_cell_formula_units_Z 96
_cell_length_a 24.715820
_cell_length_b 24.715820
_cell_length_c 7.747121
_cell_angle_alpha 90.000000
_cell_angle_beta 90.000000
_cell_angle_gamma 90.000000
_cell_volume 4732.497427
_symmetry_space_group_name_H-M "I 4/M"
_symmetry_group_IT_number 87
_symmetry_cell_setting 'tetragonal'
loop_
_space_group_symop_operation_xyz
x,y,z
-y,x,z
-x,-y,z
y,-x,z
-x,-y,-z
y,-x,-z
x,y,-z
-y,x,-z
1/2+x,1/2+y,1/2+z
1/2-y,1/2+x,1/2+z
1/2-x,1/2-y,1/2+z
1/2+y,1/2-x,1/2+z
1/2-x,1/2-y,1/2-z
1/2+y,1/2-x,1/2-z
1/2+x,1/2+y,1/2-z
1/2-y,1/2+x,1/2-z
loop_
_atom_site_type_symbol
_atom_site_label
_atom_site_fract_x
_atom_site_fract_y
_atom_site_fract_z
Si Si1 0.547932 0.149191 0.208751
Si Si2 0.870205 0.259869 0.703057
Si Si3 0.948166 0.929246 0.710613
Si Si4 0.642352 0.075389 0.799469
Si Si5 0.345182 0.642116 0.212287
Si Si6 0.663505 0.775424 0.196623
O O1 0.584329 0.199483 0.272702
O O2 0.583205 0.096433 0.255126
O O3 0.487958 0.148760 0.279093
O O4 0.543861 0.151611 0.000000
O O5 0.880653 0.255818 0.500000
O O6 0.870987 0.199052 0.770168
O O7 0.811829 0.288863 0.722888
O O8 0.947996 0.928611 0.500000
O O9 0.909140 0.880736 0.768865
O O10 0.011224 0.926413 0.763053
O O11 0.687113 0.110329 0.702100
O O12 0.648579 0.091132 0.000000
O O13 0.282807 0.646982 0.270384
O O14 0.344776 0.640308 0.000000
O O15 0.680733 0.766114 0.000000
#
# Coordination Sequence:
#
# PCOD9545561 Si02
#       6
#    16  16  16  16  16  16
#     4   9  19  34  51  72  98 131 167 204 249 297
#     4   9  18  33  50  71 102 134 163 202 251 294
#     4   8  14  25  41  63  93 126 158 196 242 287
#     4  10  21  36  53  73 100 133 166 206 254 298
#     4   9  17  28  46  72  98 129 168 204 242 292
#     4  10  19  31  49  73 100 131 167 205 247 295
#
# _framework density 20.285273
#
# number of rings (size 3 to 8) (size 9 to 14) (size 15 to 20)
#    0.000    2.833    0.000    3.000    0.000    5.000 
#    0.000    7.500    0.000    0.000    0.000    0.000 
#    0.000    0.000    0.000   18.000    0.000   16.667 
#
# Total GULP energy -267660.992041 kJ/mol
# GULP energy per Si atom -5576.270668 kJ/mol
# Density = 2.023910 g / cm^3
# Si number density = 20.285273 Si / 1000 Ang^3
#
#
#
# Elastic Constant Matrix: (Units=GPa)
#
#
# Indices 1 2 3 4 5 6 
#
# 1 45.8915 23.8831 -5.9967 0.0000 0.0000 5.0013
# 2 23.8831 45.8915 -5.9967 0.0000 0.0000 -5.0013
# 3 -5.9967 -5.9967 26.2820 0.0000 0.0000 0.0000
# 4 0.0000 0.0000 0.0000 7.3824 0.0000 0.0000
# 5 0.0000 0.0000 0.0000 0.0000 7.3824 0.0000
# 6 5.0013 -5.0013 0.0000 0.0000 0.0000 19.3412
#
#
#
# Elastic Compliance Matrix: (Units=1/GPa)
#
#
# Indices 1 2 3 4 5 6 
#
# 1 0.033203 -0.018286 0.003404 0.000000 0.000000 -0.013314
# 2 -0.018286 0.033203 0.003404 0.000000 0.000000 0.013314
# 3 0.003404 0.003404 0.039602 0.000000 0.000000 0.000000
# 4 0.000000 0.000000 0.000000 0.135457 0.000000 0.000000
# 5 0.000000 0.000000 0.000000 0.000000 0.135457 0.000000
# 6 -0.013314 0.013314 0.000000 0.000000 0.000000 0.058589
#
#
# Mechanical properties :
#
#
# Convention : Reuss Voigt Hill
#
# Bulk Modulus (GPa) = 12.04092 15.76048 13.90070
# Shear Modulus (GPa) = 10.28488 13.89956 12.09222
#
# Velocity S-wave (km/s) = 2.25414 2.62048 2.44418
# Velocity P-wave (km/s) = 3.56700 4.11609 3.85134
#
# Compressibility (1/GPa) = 0.08305013
#
# Stress axis : x y z
#
# Youngs Moduli (GPa) = 30.11815 30.11815 25.25121
#
# Poissons Ratio (x) = 0.55073 -0.08594
# Poissons Ratio (y) = 0.55073 -0.08594
# Poissons Ratio (z) = -0.10251 -0.10251
#
# Static dielectric constant tensor:
#      x y z
#    x 1.704680 0.000000 0.000000 
#    y 0.000000 1.704680 0.000000 
#    z 0.000000 0.000000 1.771460 
# 
# From -- ./inp_files/1314.got.cif
#   From: 2010.05.17/outbox.cif.g08.bks.cpg/sg87_1_cif.got.tgz:1314.got - 2010.06.03 19:07:00.
