data_PCOD9545041
_publ_section_title
;
Structure prediction by ZEFSAII (Michael W. Deem and Ramdas Pophale) SiO2 
 PCOD9545041
Probable space group: P 42/N
;
_chemical_formula_sum "Si O2"
_cell_formula_units_Z 40
_cell_length_a 14.803140
_cell_length_b 14.803140
_cell_length_c 7.406533
_cell_angle_alpha 90.000000
_cell_angle_beta 90.000000
_cell_angle_gamma 90.000000
_cell_volume 1623.015454
_symmetry_space_group_name_H-M "P 42/N"
_symmetry_group_IT_number 86
_space_group.IT_coordinate_system_code '2'
_symmetry_cell_setting 'tetragonal'
loop_
_space_group_symop_operation_xyz
x,y,z
-y,1/2+x,1/2+z
1/2-x,1/2-y,z
1/2+y,-x,1/2+z
-x,-y,-z
y,1/2-x,1/2-z
1/2+x,1/2+y,-z
1/2-y,x,1/2-z
loop_
_atom_site_type_symbol
_atom_site_label
_atom_site_fract_x
_atom_site_fract_y
_atom_site_fract_z
Si Si1 0.342964 0.010694 0.897864
Si Si2 0.558904 0.169554 0.125565
Si Si3 0.856899 0.986051 0.229874
Si Si4 0.832471 0.858569 0.790621
Si Si5 0.477391 0.638661 0.820652
O O1 0.399811 0.089068 0.802110
O O2 0.236927 0.026005 0.871513
O O3 0.375990 0.912674 0.821642
O O4 0.371161 0.002564 0.108273
O O5 0.460178 0.160765 0.217979
O O6 0.584426 0.272686 0.166825
O O7 0.541250 0.166274 0.912054
O O8 0.924288 0.050778 0.119666
O O9 0.844094 0.772231 0.654136
O O10 0.923221 0.847269 0.910778
#
# Coordination Sequence:
#
# PCOD9545041 Si02
#       5
#     8   8   8   8   8
#     4  11  23  43  59  88 128 158 195 250 309 347
#     4  10  20  41  68  86 114 165 204 241 292 365
#     4  11  23  43  59  88 128 158 195 250 309 347
#     4   9  16  31  60  91 115 145 202 240 284 351
#     4  10  20  41  68  86 114 165 204 241 292 365
#
# _framework density 24.645482999999999
#
# number of rings (size 3 to 8) (size 9 to 14) (size 15 to 20)
#    0.000    1.800    4.000    1.200    0.000    2.800 
#   18.000    6.000    0.000    0.000    0.000    0.000 
#    0.000    0.000    0.000    0.000    0.000    0.000 
#
# Total GULP energy -223262.906210 kJ/mol
# GULP energy per Si atom -5581.572655 kJ/mol
# Density = 2.458939 g / cm^3
# Si number density = 24.645483 Si / 1000 Ang^3
#
#
#
# Elastic Constant Matrix: (Units=GPa)
#
#
# Indices 1 2 3 4 5 6 
#
# 1 134.6070 64.4174 16.2183 0.0000 0.0000 1.6674
# 2 64.4174 134.6070 16.2183 0.0000 0.0000 -1.6674
# 3 16.2183 16.2183 71.7722 0.0000 0.0000 0.0000
# 4 0.0000 0.0000 0.0000 23.8778 0.0000 0.0000
# 5 0.0000 0.0000 0.0000 0.0000 23.8778 0.0000
# 6 1.6674 -1.6674 0.0000 0.0000 0.0000 19.4426
#
#
#
# Elastic Compliance Matrix: (Units=1/GPa)
#
#
# Indices 1 2 3 4 5 6 
#
# 1 0.009761 -0.004544 -0.001179 0.000000 0.000000 -0.001227
# 2 -0.004544 0.009761 -0.001179 0.000000 0.000000 0.001227
# 3 -0.001179 -0.001179 0.014466 0.000000 0.000000 0.000000
# 4 0.000000 0.000000 0.000000 0.041880 0.000000 0.000000
# 5 0.000000 0.000000 0.000000 0.000000 0.041880 0.000000
# 6 -0.001227 0.001227 0.000000 0.000000 0.000000 0.051644
#
#
# Mechanical properties :
#
#
# Convention : Reuss Voigt Hill
#
# Bulk Modulus (GPa) = 49.54472 59.41047 54.47760
# Shear Modulus (GPa) = 26.32638 29.71511 28.02074
#
# Velocity S-wave (km/s) = 3.27188 3.47609 3.37553
# Velocity P-wave (km/s) = 5.86688 6.34581 6.11104
#
# Compressibility (1/GPa) = 0.02018378
#
# Stress axis : x y z
#
# Youngs Moduli (GPa) = 102.44834 102.44834 69.12898
#
# Poissons Ratio (x) = 0.46557 0.08149
# Poissons Ratio (y) = 0.46557 0.08149
# Poissons Ratio (z) = 0.12077 0.12077
#
# Static dielectric constant tensor:
#      x y z
#    x 2.028460 0.000000 0.000000 
#    y 0.000000 2.028460 0.000000 
#    z 0.000000 0.000000 2.019490 
# 
# From -- ./inp_files/1125.got.cif
#   From: 2010.05.17/outbox.cif.g08.bks.cpg/sg86_1_cif.got.tgz:1125.got - 2010.06.03 19:03:11.
