data_PCOD9545221
_publ_section_title
;
Structure prediction by ZEFSAII (Michael W. Deem and Ramdas Pophale) SiO2 
 PCOD9545221
Probable space group: P 42/N
;
_chemical_formula_sum "Si O2"
_cell_formula_units_Z 50
_cell_length_a 8.712734
_cell_length_b 8.712734
_cell_length_c 31.907153
_cell_angle_alpha 90.000000
_cell_angle_beta 90.000000
_cell_angle_gamma 90.000000
_cell_volume 2422.127303
_symmetry_space_group_name_H-M "P 42/N"
_symmetry_group_IT_number 86
_space_group.IT_coordinate_system_code '2'
_symmetry_cell_setting 'tetragonal'
loop_
_space_group_symop_operation_xyz
x,y,z
-y,1/2+x,1/2+z
1/2-x,1/2-y,z
1/2+y,-x,1/2+z
-x,-y,-z
y,1/2-x,1/2-z
1/2+x,1/2+y,-z
1/2-y,x,1/2-z
loop_
_atom_site_type_symbol
_atom_site_label
_atom_site_fract_x
_atom_site_fract_y
_atom_site_fract_z
Si Si1 0.447422 0.498275 0.137497
Si Si2 0.250000 0.750000 0.588664
Si Si3 0.929371 0.211537 0.616712
Si Si4 0.982485 0.055670 0.705396
Si Si5 0.750000 0.750000 0.909157
Si Si6 0.213069 0.919767 0.215874
Si Si7 0.002962 0.963275 0.548803
Si Si8 0.750000 0.750000 0.250000
O O1 0.349110 0.633787 0.116606
O O2 0.624334 0.508321 0.124916
O O3 0.367889 0.345379 0.119548
O O4 0.420562 0.508361 0.187283
O O5 0.154153 0.868800 0.560963
O O6 0.750000 0.250000 0.610980
O O7 0.952165 0.109418 0.658340
O O8 0.990322 0.115676 0.577301
O O9 0.844983 0.095375 0.736913
O O10 0.135807 0.141963 0.722656
O O11 0.994124 0.872308 0.709099
O O12 0.852007 0.636406 0.937196
O O13 0.250000 0.750000 0.200540
O O14 0.000000 0.000000 0.500000
#
# Coordination Sequence:
#
# PCOD9545221 Si02
#       8
#     8   4   8   8   4   8   8   2
#     4  11  24  44  73 100 143 186 237 289 350 421
#     4  10  24  46  70 106 140 182 228 290 360 428
#     4  12  27  46  73 104 139 188 244 295 358 431
#     4  12  27  43  68  99 140 188 241 295 358 416
#     4  10  22  46  71 103 142 188 227 291 356 430
#     4  12  26  44  66 101 144 187 240 294 350 419
#     4  11  26  46  75 107 143 182 234 294 366 436
#     4  12  24  44  70 100 140 192 242 304 348 412
#
# _framework density 20.643008999999999
#
# number of rings (size 3 to 8) (size 9 to 14) (size 15 to 20)
#    0.000    0.640    4.000    3.360    3.360    2.240 
#    0.000    3.200    0.000    0.000    0.000    0.000 
#    0.000    0.000    0.000    0.000    0.000    0.000 
#
# Total GULP energy -279846.602036 kJ/mol
# GULP energy per Si atom -5596.932041 kJ/mol
# Density = 2.059602 g / cm^3
# Si number density = 20.643009 Si / 1000 Ang^3
#
#
#
# Elastic Constant Matrix: (Units=GPa)
#
#
# Indices 1 2 3 4 5 6 
#
# 1 112.1794 18.5248 45.0375 0.0000 0.0000 -0.6698
# 2 18.5248 112.1794 45.0375 0.0000 0.0000 0.6698
# 3 45.0375 45.0375 161.1710 0.0000 0.0000 0.0000
# 4 0.0000 0.0000 0.0000 34.0531 0.0000 0.0000
# 5 0.0000 0.0000 0.0000 0.0000 34.0531 0.0000
# 6 -0.6698 0.6698 0.0000 0.0000 0.0000 32.7511
#
#
#
# Elastic Compliance Matrix: (Units=1/GPa)
#
#
# Indices 1 2 3 4 5 6 
#
# 1 0.010078 -0.000603 -0.002648 0.000000 0.000000 0.000218
# 2 -0.000603 0.010078 -0.002648 0.000000 0.000000 -0.000218
# 3 -0.002648 -0.002648 0.007684 0.000000 0.000000 0.000000
# 4 0.000000 0.000000 0.000000 0.029366 0.000000 0.000000
# 5 0.000000 0.000000 0.000000 0.000000 0.029366 0.000000
# 6 0.000218 -0.000218 0.000000 0.000000 0.000000 0.030542
#
#
# Mechanical properties :
#
#
# Convention : Reuss Voigt Hill
#
# Bulk Modulus (GPa) = 62.32762 66.96992 64.64877
# Shear Modulus (GPa) = 37.24135 38.63347 37.93741
#
# Velocity S-wave (km/s) = 4.25204 4.33078 4.29159
# Velocity P-wave (km/s) = 7.37327 7.58419 7.47947
#
# Compressibility (1/GPa) = 0.01604425
#
# Stress axis : x y z
#
# Youngs Moduli (GPa) = 99.22458 99.22458 130.13342
#
# Poissons Ratio (x) = 0.05978 0.34458
# Poissons Ratio (y) = 0.05978 0.34458
# Poissons Ratio (z) = 0.26273 0.26273
#
# Static dielectric constant tensor:
#      x y z
#    x 1.722160 0.000000 0.000000 
#    y 0.000000 1.722160 0.000000 
#    z 0.000000 0.000000 1.703490 
# 
# From -- ./inp_files/5275.got.cif
#   From: 2010.05.17/outbox.cif.g08.bks.cpg/sg86_3_cif.got.tgz:5275.got - 2010.06.03 19:03:11.
