data_PCOD9545552
_publ_section_title
;
Structure prediction by ZEFSAII (Michael W. Deem and Ramdas Pophale) SiO2 
 PCOD9545552
Probable space group: I 4/M
;
_chemical_formula_sum "Si O2"
_cell_formula_units_Z 104
_cell_length_a 16.922166
_cell_length_b 16.922166
_cell_length_c 17.277785
_cell_angle_alpha 90.000000
_cell_angle_beta 90.000000
_cell_angle_gamma 90.000000
_cell_volume 4947.661366
_symmetry_space_group_name_H-M "I 4/M"
_symmetry_group_IT_number 87
_symmetry_cell_setting 'tetragonal'
loop_
_space_group_symop_operation_xyz
x,y,z
-y,x,z
-x,-y,z
y,-x,z
-x,-y,-z
y,-x,-z
x,y,-z
-y,x,-z
1/2+x,1/2+y,1/2+z
1/2-y,1/2+x,1/2+z
1/2-x,1/2-y,1/2+z
1/2+y,1/2-x,1/2+z
1/2-x,1/2-y,1/2-z
1/2+y,1/2-x,1/2-z
1/2+x,1/2+y,1/2-z
1/2-y,1/2+x,1/2-z
loop_
_atom_site_type_symbol
_atom_site_label
_atom_site_fract_x
_atom_site_fract_y
_atom_site_fract_z
Si Si1 0.629882 0.520804 0.000000
Si Si2 0.873919 0.461962 0.236146
Si Si3 0.691810 0.168217 0.182586
Si Si4 0.548595 0.376671 0.304302
Si Si5 0.610830 0.317129 0.861543
Si Si6 0.900737 0.722118 0.590177
Si Si7 0.749366 0.845512 0.850827
O O1 0.560800 0.586363 0.000000
O O2 0.674100 0.541383 0.922655
O O3 0.905630 0.547917 0.259749
O O4 0.822043 0.423425 0.304076
O O5 0.823528 0.453826 0.156034
O O6 0.634843 0.225466 0.135222
O O7 0.776953 0.185248 0.148548
O O8 0.676313 0.206171 0.268512
O O9 0.598443 0.457803 0.314537
O O10 0.573658 0.347551 0.218205
O O11 0.575716 0.300622 0.353401
O O12 0.691644 0.367057 0.880018
O O13 0.927499 0.727796 0.500000
O O14 0.820719 0.668639 0.590063
#
# Coordination Sequence:
#
# PCOD9545552 Si02
#       7
#     8  16  16  16  16  16  16
#     4  11  22  32  44  70 112 152 178 209 262 328
#     4  10  21  36  56  81 110 142 187 237 285 334
#     4   8  16  31  51  73  96 132 178 230 269 315
#     4  10  19  30  49  80 113 146 184 227 270 323
#     4  10  19  33  50  75 107 144 186 225 265 325
#     4  10  20  37  59  81 109 147 185 232 288 339
#     4   8  16  30  51  75 101 133 179 228 264 316
#
# _framework density 21.020030999999999
#
# number of rings (size 3 to 8) (size 9 to 14) (size 15 to 20)
#    0.000    2.538    0.769    3.692    0.000    9.846 
#    0.000    1.538    1.692    4.615    0.000    1.077 
#    0.000    0.000    0.000    0.000    0.000    0.000 
#
# Total GULP energy -289588.480658 kJ/mol
# GULP energy per Si atom -5569.009243 kJ/mol
# Density = 2.097219 g / cm^3
# Si number density = 21.020031 Si / 1000 Ang^3
#
#
#
# Elastic Constant Matrix: (Units=GPa)
#
#
# Indices 1 2 3 4 5 6 
#
# 1 68.1781 28.3062 15.4213 0.0000 0.0000 -3.5875
# 2 28.3062 68.1781 15.4213 0.0000 0.0000 3.5875
# 3 15.4213 15.4213 40.2513 0.0000 0.0000 0.0000
# 4 0.0000 0.0000 0.0000 18.9376 0.0000 0.0000
# 5 0.0000 0.0000 0.0000 0.0000 18.9376 0.0000
# 6 -3.5875 3.5875 0.0000 0.0000 0.0000 48.5314
#
#
#
# Elastic Compliance Matrix: (Units=1/GPa)
#
#
# Indices 1 2 3 4 5 6 
#
# 1 0.018615 -0.006804 -0.004525 0.000000 0.000000 0.001879
# 2 -0.006804 0.018615 -0.004525 0.000000 0.000000 -0.001879
# 3 -0.004525 -0.004525 0.028311 0.000000 0.000000 0.000000
# 4 0.000000 0.000000 0.000000 0.052805 0.000000 0.000000
# 5 0.000000 0.000000 0.000000 0.000000 0.052805 0.000000
# 6 0.001879 -0.001879 0.000000 0.000000 0.000000 0.020883
#
#
# Mechanical properties :
#
#
# Convention : Reuss Voigt Hill
#
# Bulk Modulus (GPa) = 29.55709 32.76723 31.16216
# Shear Modulus (GPa) = 21.27490 25.11191 23.19341
#
# Velocity S-wave (km/s) = 3.18484 3.46014 3.32534
# Velocity P-wave (km/s) = 5.25511 5.62013 5.44068
#
# Compressibility (1/GPa) = 0.03383283
#
# Stress axis : x y z
#
# Youngs Moduli (GPa) = 53.72111 53.72111 35.32166
#
# Poissons Ratio (x) = 0.36551 0.15983
# Poissons Ratio (y) = 0.36551 0.15983
# Poissons Ratio (z) = 0.24309 0.24309
#
# Static dielectric constant tensor:
#      x y z
#    x 1.842160 0.000000 0.000000 
#    y 0.000000 1.842160 0.000000 
#    z 0.000000 0.000000 1.793440 
# 
# From -- ./inp_files/4524.got.cif
#   From: 2010.05.17/outbox.cif.g08.bks.cpg/sg87_3_cif.got.tgz:4524.got - 2010.06.03 19:07:00.
