data_PCOD9545098
_publ_section_title
;
Structure prediction by ZEFSAII (Michael W. Deem and Ramdas Pophale) SiO2 
 PCOD9545098
Probable space group: P 42/N
;
_chemical_formula_sum "Si O2"
_cell_formula_units_Z 40
_cell_length_a 12.427785
_cell_length_b 12.427785
_cell_length_c 11.266110
_cell_angle_alpha 90.000000
_cell_angle_beta 90.000000
_cell_angle_gamma 90.000000
_cell_volume 1740.048887
_symmetry_space_group_name_H-M "P 42/N"
_symmetry_group_IT_number 86
_space_group.IT_coordinate_system_code '2'
_symmetry_cell_setting 'tetragonal'
loop_
_space_group_symop_operation_xyz
x,y,z
-y,1/2+x,1/2+z
1/2-x,1/2-y,z
1/2+y,-x,1/2+z
-x,-y,-z
y,1/2-x,1/2-z
1/2+x,1/2+y,-z
1/2-y,x,1/2-z
loop_
_atom_site_type_symbol
_atom_site_label
_atom_site_fract_x
_atom_site_fract_y
_atom_site_fract_z
Si Si1 0.106538 0.211899 0.814560
Si Si2 0.921628 0.687297 0.935978
Si Si3 0.206689 0.637577 0.391951
Si Si4 0.441128 0.368959 0.241814
Si Si5 0.433968 0.924232 0.593426
O O1 0.123949 0.301045 0.712961
O O2 0.995604 0.150081 0.832077
O O3 0.120453 0.275270 0.938033
O O4 0.876576 0.578353 0.881218
O O5 0.888229 0.775408 0.836852
O O6 0.051633 0.701891 0.934416
O O7 0.250000 0.750000 0.347278
O O8 0.141634 0.566510 0.295038
O O9 0.131056 0.654386 0.507463
O O10 0.388706 0.477341 0.186578
O O11 0.500000 0.000000 0.500000
#
# Coordination Sequence:
#
# PCOD9545098 Si02
#       5
#     8   8   8   8   8
#     4  10  21  38  61  93 125 178 234 279 342 404
#     4   9  20  37  60  97 138 172 239 275 347 397
#     4   8  17  36  64  92 138 179 230 281 350 414
#     4   9  19  37  64  95 135 180 222 285 347 404
#     4   9  17  40  63  88 136 177 226 284 352 404
#
# _framework density 22.987859
#
# number of rings (size 3 to 8) (size 9 to 14) (size 15 to 20)
#    1.200    1.800    2.000    0.000    0.000    3.600 
#    7.200    6.000    0.000    0.000    0.000    5.600 
#    0.000    0.000    0.000    0.000    0.000    0.000 
#
# Total GULP energy -222768.277974 kJ/mol
# GULP energy per Si atom -5569.206949 kJ/mol
# Density = 2.293554 g / cm^3
# Si number density = 22.987859 Si / 1000 Ang^3
#
#
#
# Elastic Constant Matrix: (Units=GPa)
#
#
# Indices 1 2 3 4 5 6 
#
# 1 79.5033 18.7019 41.4386 0.0000 0.0000 -14.3663
# 2 18.7019 79.5033 41.4386 0.0000 0.0000 14.3663
# 3 41.4386 41.4386 110.3181 0.0000 0.0000 0.0000
# 4 0.0000 0.0000 0.0000 29.8510 0.0000 0.0000
# 5 0.0000 0.0000 0.0000 0.0000 29.8510 0.0000
# 6 -14.3663 14.3663 0.0000 0.0000 0.0000 20.4177
#
#
#
# Elastic Compliance Matrix: (Units=1/GPa)
#
#
# Indices 1 2 3 4 5 6 
#
# 1 0.019774 -0.004865 -0.005600 0.000000 0.000000 0.017337
# 2 -0.004865 0.019774 -0.005600 0.000000 0.000000 -0.017337
# 3 -0.005600 -0.005600 0.013272 0.000000 0.000000 0.000000
# 4 0.000000 0.000000 0.000000 0.033500 0.000000 0.000000
# 5 0.000000 0.000000 0.000000 0.000000 0.033500 0.000000
# 6 0.017337 -0.017337 0.000000 0.000000 0.000000 0.073374
#
#
# Mechanical properties :
#
#
# Convention : Reuss Voigt Hill
#
# Bulk Modulus (GPa) = 48.33521 52.49810 50.41666
# Shear Modulus (GPa) = 21.53108 27.20698 24.36903
#
# Velocity S-wave (km/s) = 3.06376 3.44399 3.25942
# Velocity P-wave (km/s) = 5.79548 6.22106 6.01204
#
# Compressibility (1/GPa) = 0.02068885
#
# Stress axis : x y z
#
# Youngs Moduli (GPa) = 50.57049 50.57049 75.34719
#
# Poissons Ratio (x) = 0.24605 0.42196
# Poissons Ratio (y) = 0.24605 0.42196
# Poissons Ratio (z) = 0.28321 0.28321
#
# Static dielectric constant tensor:
#      x y z
#    x 1.925980 0.000000 0.000000 
#    y 0.000000 1.925980 0.000000 
#    z 0.000000 0.000000 1.884240 
# 
# From -- ./inp_files/1148.got.cif
#   From: 2010.05.17/outbox.cif.g08.bks.cpg/sg86_1_cif.got.tgz:1148.got - 2010.06.03 19:03:11.
