data_PCOD9545432
_publ_section_title
;
Structure prediction by ZEFSAII (Michael W. Deem and Ramdas Pophale) SiO2 
 PCOD9545432
Probable space group: P 42/N
;
_chemical_formula_sum "Si O2"
_cell_formula_units_Z 48
_cell_length_a 8.571918
_cell_length_b 8.571918
_cell_length_c 29.579226
_cell_angle_alpha 90.000000
_cell_angle_beta 90.000000
_cell_angle_gamma 90.000000
_cell_volume 2173.415807
_symmetry_space_group_name_H-M "P 42/N"
_symmetry_group_IT_number 86
_space_group.IT_coordinate_system_code '2'
_symmetry_cell_setting 'tetragonal'
loop_
_space_group_symop_operation_xyz
x,y,z
-y,1/2+x,1/2+z
1/2-x,1/2-y,z
1/2+y,-x,1/2+z
-x,-y,-z
y,1/2-x,1/2-z
1/2+x,1/2+y,-z
1/2-y,x,1/2-z
loop_
_atom_site_type_symbol
_atom_site_label
_atom_site_fract_x
_atom_site_fract_y
_atom_site_fract_z
Si Si1 0.454654 0.918580 0.452711
Si Si2 0.529770 0.401305 0.859901
Si Si3 0.584020 0.511884 0.304815
Si Si4 0.166470 0.417712 0.128757
Si Si5 0.552302 0.080047 0.046269
Si Si6 0.416090 0.821734 0.290566
O O1 0.268768 0.950953 0.449992
O O2 0.470326 0.731907 0.449076
O O3 0.500000 0.000000 0.500000
O O4 0.559780 0.981769 0.411498
O O5 0.495015 0.231840 0.838811
O O6 0.709407 0.449342 0.859131
O O7 0.442698 0.524800 0.827628
O O8 0.428707 0.453633 0.330237
O O9 0.546687 0.686582 0.289757
O O10 0.612148 0.411137 0.260097
O O11 0.250000 0.250000 0.123498
O O12 0.070001 0.466763 0.084695
O O13 0.500000 0.000000 0.000000
O O14 0.250000 0.750000 0.302596
#
# Coordination Sequence:
#
# PCOD9545432 Si02
#       6
#     8   8   8   8   8   8
#     4  11  26  48  74 111 149 198 261 317 391 469
#     4  12  25  45  76 106 153 202 257 321 392 467
#     4  12  27  48  74 110 150 203 260 319 400 476
#     4  12  25  48  73 109 152 201 260 321 394 475
#     4  11  26  47  74 106 152 202 251 323 389 464
#     4  12  26  48  73 109 153 199 258 323 393 483
#
# _framework density 22.085051
#
# number of rings (size 3 to 8) (size 9 to 14) (size 15 to 20)
#    0.000    0.333    3.333    5.000    4.667    0.000 
#    0.000    0.000    0.000    0.000    0.000    0.000 
#    0.000    0.000    0.000    0.000    0.000    0.000 
#
# Total GULP energy -268437.689134 kJ/mol
# GULP energy per Si atom -5592.451857 kJ/mol
# Density = 2.203478 g / cm^3
# Si number density = 22.085051 Si / 1000 Ang^3
#
#
#
# Elastic Constant Matrix: (Units=GPa)
#
#
# Indices 1 2 3 4 5 6 
#
# 1 72.5009 25.5028 33.5178 0.0000 0.0000 0.5012
# 2 25.5028 72.5009 33.5178 0.0000 0.0000 -0.5012
# 3 33.5178 33.5178 141.0511 0.0000 0.0000 0.0000
# 4 0.0000 0.0000 0.0000 34.5385 0.0000 0.0000
# 5 0.0000 0.0000 0.0000 0.0000 34.5385 0.0000
# 6 0.5012 -0.5012 0.0000 0.0000 0.0000 41.7365
#
#
#
# Elastic Compliance Matrix: (Units=1/GPa)
#
#
# Indices 1 2 3 4 5 6 
#
# 1 0.016734 -0.004549 -0.002895 0.000000 0.000000 -0.000256
# 2 -0.004549 0.016734 -0.002895 0.000000 0.000000 0.000256
# 3 -0.002895 -0.002895 0.008466 0.000000 0.000000 0.000000
# 4 0.000000 0.000000 0.000000 0.028953 0.000000 0.000000
# 5 0.000000 0.000000 0.000000 0.000000 0.028953 0.000000
# 6 -0.000256 0.000256 0.000000 0.000000 0.000000 0.023966
#
#
# Mechanical properties :
#
#
# Convention : Reuss Voigt Hill
#
# Bulk Modulus (GPa) = 47.05292 52.34777 49.70034
# Shear Modulus (GPa) = 32.98824 35.06368 34.02596
#
# Velocity S-wave (km/s) = 3.86902 3.98888 3.92941
# Velocity P-wave (km/s) = 6.42734 6.70590 6.56810
#
# Compressibility (1/GPa) = 0.02125267
#
# Stress axis : x y z
#
# Youngs Moduli (GPa) = 59.76036 59.76036 118.12457
#
# Poissons Ratio (x) = 0.27187 0.34201
# Poissons Ratio (y) = 0.27187 0.34201
# Poissons Ratio (z) = 0.17302 0.17302
#
# Static dielectric constant tensor:
#      x y z
#    x 1.836730 0.000000 0.000000 
#    y 0.000000 1.836730 0.000000 
#    z 0.000000 0.000000 1.813620 
# 
# From -- ./inp_files/5212.got.cif
#   From: 2010.05.17/outbox.cif.g08.bks.cpg/sg86_3_cif.got.tgz:5212.got - 2010.06.03 19:03:11.
