data_PCOD9545506
_publ_section_title
;
Structure prediction by ZEFSAII (Michael W. Deem and Ramdas Pophale) SiO2 
 PCOD9545506
Probable space group: I 4/M
;
_chemical_formula_sum "Si O2"
_cell_formula_units_Z 80
_cell_length_a 15.688286
_cell_length_b 15.688286
_cell_length_c 18.138207
_cell_angle_alpha 90.000000
_cell_angle_beta 90.000000
_cell_angle_gamma 90.000000
_cell_volume 4464.217544
_symmetry_space_group_name_H-M "I 4/M"
_symmetry_group_IT_number 87
_symmetry_cell_setting 'tetragonal'
loop_
_space_group_symop_operation_xyz
x,y,z
-y,x,z
-x,-y,z
y,-x,z
-x,-y,-z
y,-x,-z
x,y,-z
-y,x,-z
1/2+x,1/2+y,1/2+z
1/2-y,1/2+x,1/2+z
1/2-x,1/2-y,1/2+z
1/2+y,1/2-x,1/2+z
1/2-x,1/2-y,1/2-z
1/2+y,1/2-x,1/2-z
1/2+x,1/2+y,1/2-z
1/2-y,1/2+x,1/2-z
loop_
_atom_site_type_symbol
_atom_site_label
_atom_site_fract_x
_atom_site_fract_y
_atom_site_fract_z
Si Si1 0.319814 0.245480 0.684764
Si Si2 0.548118 0.868844 0.232232
Si Si3 0.906847 0.106922 0.783513
Si Si4 0.316887 0.364332 0.878538
Si Si5 0.764930 0.461993 0.919896
O O1 0.250000 0.250000 0.750000
O O2 0.403593 0.200683 0.717802
O O3 0.341158 0.342459 0.664327
O O4 0.272941 0.185318 0.627348
O O5 0.454878 0.894922 0.262512
O O6 0.540409 0.828586 0.150366
O O7 0.885587 0.141161 0.701385
O O8 0.007469 0.115308 0.792488
O O9 0.294278 0.454354 0.913743
O O10 0.382554 0.299416 0.914779
O O11 0.808403 0.461772 0.000000
#
# Coordination Sequence:
#
# PCOD9545506 Si02
#       5
#    16  16  16  16  16
#     4  10  19  31  57  79 108 143 194 241 273 329
#     4  11  22  38  60  84 109 151 197 242 290 334
#     4  10  18  29  50  81 116 141 183 242 286 331
#     4  11  20  36  53  80 113 158 189 227 281 346
#     4  12  24  38  57  85 123 155 190 233 289 354
#
# _framework density 17.920273000000002
#
# number of rings (size 3 to 8) (size 9 to 14) (size 15 to 20)
#    0.000    1.200    8.000    0.600    2.800    0.400 
#    0.000    3.000    0.000    0.000    0.000    0.000 
#    0.000    0.000    0.000   11.000    0.000    0.000 
#
# Total GULP energy -222926.888051 kJ/mol
# GULP energy per Si atom -5573.172201 kJ/mol
# Density = 1.787949 g / cm^3
# Si number density = 17.920273 Si / 1000 Ang^3
#
#
#
# Elastic Constant Matrix: (Units=GPa)
#
#
# Indices 1 2 3 4 5 6 
#
# 1 92.9228 49.4837 32.4281 0.0000 0.0000 -4.9021
# 2 49.4837 92.9228 32.4281 0.0000 0.0000 4.9021
# 3 32.4281 32.4281 65.3757 0.0000 0.0000 0.0000
# 4 0.0000 0.0000 0.0000 -2.2895 0.0000 0.0000
# 5 0.0000 0.0000 0.0000 0.0000 -2.2895 0.0000
# 6 -4.9021 4.9021 0.0000 0.0000 0.0000 39.1567
#
#
#
# Elastic Compliance Matrix: (Units=1/GPa)
#
#
# Indices 1 2 3 4 5 6 
#
# 1 0.016381 -0.007309 -0.004500 0.000000 0.000000 0.002966
# 2 -0.007309 0.016381 -0.004500 0.000000 0.000000 -0.002966
# 3 -0.004500 -0.004500 0.019760 0.000000 0.000000 0.000000
# 4 0.000000 0.000000 0.000000 -0.436779 0.000000 0.000000
# 5 0.000000 0.000000 0.000000 0.000000 -0.436779 0.000000
# 6 0.002966 -0.002966 0.000000 0.000000 0.000000 0.026281
#
#
# Mechanical properties :
#
#
# Convention : Reuss Voigt Hill
#
# Bulk Modulus (GPa) = 50.24041 53.32233 51.78137
# Shear Modulus (GPa) = -6.61810 16.04098 4.71144
#
# Velocity S-wave (km/s) = -1.92382 2.99512 1.62321
# Velocity P-wave (km/s) = 4.81265 6.46381 5.69835
#
# Compressibility (1/GPa) = 0.01990430
#
# Stress axis : x y z
#
# Youngs Moduli (GPa) = 61.04721 61.04721 50.60701
#
# Poissons Ratio (x) = 0.44621 0.22771
# Poissons Ratio (y) = 0.44621 0.22771
# Poissons Ratio (z) = 0.27469 0.27469
#
# Static dielectric constant tensor:
#      x y z
#    x 1.645390 0.000000 0.000000 
#    y 0.000000 1.645390 0.000000 
#    z 0.000000 0.000000 1.622290 
# 
# From -- ./inp_files/5056.got.cif
#   From: 2010.05.17/outbox.cif.g08.bks.cpg/sg87_3_cif.got.tgz:5056.got - 2010.06.03 19:07:00.
