data_PCOD9545771
_publ_section_title
;
Structure prediction by ZEFSAII (Michael W. Deem and Ramdas Pophale) SiO2 
 PCOD9545771
Probable space group: I 4/M
;
_chemical_formula_sum "Si O2"
_cell_formula_units_Z 96
_cell_length_a 14.647666
_cell_length_b 14.647666
_cell_length_c 24.763416
_cell_angle_alpha 90.000000
_cell_angle_beta 90.000000
_cell_angle_gamma 90.000000
_cell_volume 5313.092909
_symmetry_space_group_name_H-M "I 4/M"
_symmetry_group_IT_number 87
_symmetry_cell_setting 'tetragonal'
loop_
_space_group_symop_operation_xyz
x,y,z
-y,x,z
-x,-y,z
y,-x,z
-x,-y,-z
y,-x,-z
x,y,-z
-y,x,-z
1/2+x,1/2+y,1/2+z
1/2-y,1/2+x,1/2+z
1/2-x,1/2-y,1/2+z
1/2+y,1/2-x,1/2+z
1/2-x,1/2-y,1/2-z
1/2+y,1/2-x,1/2-z
1/2+x,1/2+y,1/2-z
1/2-y,1/2+x,1/2-z
loop_
_atom_site_type_symbol
_atom_site_label
_atom_site_fract_x
_atom_site_fract_y
_atom_site_fract_z
Si Si1 0.565734 0.913584 0.562656
Si Si2 0.223117 0.403078 0.439130
Si Si3 0.067345 0.860838 0.275457
Si Si4 0.583971 0.257546 0.882577
Si Si5 0.634845 0.573248 0.347444
Si Si6 0.723162 0.393299 0.937619
O O1 0.598359 0.923080 0.500000
O O2 0.501074 0.825410 0.565926
O O3 0.651213 0.907880 0.602424
O O4 0.500000 0.000000 0.573524
O O5 0.261546 0.394546 0.500000
O O6 0.297362 0.391784 0.392917
O O7 0.145607 0.325808 0.433979
O O8 0.095364 0.788386 0.320681
O O9 0.086691 0.831216 0.213940
O O10 0.959157 0.883011 0.281726
O O11 0.656690 0.314364 0.917154
O O12 0.483260 0.286893 0.902032
O O13 0.535463 0.618715 0.353297
O O14 0.704470 0.415466 0.000000
#
# Coordination Sequence:
#
# PCOD9545771 Si02
#       6
#    16  16  16  16  16  16
#     4  10  20  37  58  77 113 164 195 223 280 345
#     4  10  22  39  58  83 115 153 196 239 287 352
#     4   9  18  37  59  83 115 155 188 232 293 356
#     4  12  21  36  59  88 117 155 196 235 291 346
#     4   9  20  39  62  84 112 147 194 247 299 345
#     4  11  23  36  55  87 125 153 193 242 288 350
#
# _framework density 18.068572
#
# number of rings (size 3 to 8) (size 9 to 14) (size 15 to 20)
#    0.000    1.833    3.333    2.500    2.333    1.000 
#    0.000    4.167    0.000    0.000    0.000    0.000 
#    0.000    0.000    0.000    0.000    0.000    0.000 
#
# Total GULP energy -267958.573733 kJ/mol
# GULP energy per Si atom -5582.470286 kJ/mol
# Density = 1.802745 g / cm^3
# Si number density = 18.068572 Si / 1000 Ang^3
#
#
#
# Elastic Constant Matrix: (Units=GPa)
#
#
# Indices 1 2 3 4 5 6 
#
# 1 53.8934 -6.2798 20.5252 0.0000 0.0000 7.8104
# 2 -6.2798 53.8934 20.5252 0.0000 0.0000 -7.8104
# 3 20.5252 20.5252 98.5913 0.0000 0.0000 0.0000
# 4 0.0000 0.0000 0.0000 27.9488 0.0000 0.0000
# 5 0.0000 0.0000 0.0000 0.0000 27.9488 0.0000
# 6 7.8104 -7.8104 0.0000 0.0000 0.0000 15.3105
#
#
#
# Elastic Compliance Matrix: (Units=1/GPa)
#
#
# Indices 1 2 3 4 5 6 
#
# 1 0.022376 0.003221 -0.005329 0.000000 0.000000 -0.009772
# 2 0.003221 0.022376 -0.005329 0.000000 0.000000 0.009772
# 3 -0.005329 -0.005329 0.012362 0.000000 0.000000 0.000000
# 4 0.000000 0.000000 0.000000 0.035780 0.000000 0.000000
# 5 0.000000 0.000000 0.000000 0.000000 0.035780 0.000000
# 6 -0.009772 0.009772 0.000000 0.000000 0.000000 0.075285
#
#
# Mechanical properties :
#
#
# Convention : Reuss Voigt Hill
#
# Bulk Modulus (GPa) = 23.67442 30.65771 27.16607
# Shear Modulus (GPa) = 21.46732 25.68212 23.57472
#
# Velocity S-wave (km/s) = 3.45063 3.77420 3.61603
# Velocity P-wave (km/s) = 5.38579 5.99975 5.70104
#
# Compressibility (1/GPa) = 0.04223968
#
# Stress axis : x y z
#
# Youngs Moduli (GPa) = 44.69055 44.69055 80.89535
#
# Poissons Ratio (x) = -0.14393 0.43108
# Poissons Ratio (y) = -0.14393 0.43108
# Poissons Ratio (z) = 0.23815 0.23815
#
# Static dielectric constant tensor:
#      x y z
#    x 1.612470 0.000000 0.000000 
#    y 0.000000 1.612470 0.000000 
#    z 0.000000 0.000000 1.607890 
# 
# From -- ./inp_files/5267.got.cif
#   From: 2010.05.17/outbox.cif.g08.bks.cpg/sg87_3_cif.got.tgz:5267.got - 2010.06.03 19:07:00.
