data_PCOD9545325
_publ_section_title
;
Structure prediction by ZEFSAII (Michael W. Deem and Ramdas Pophale) SiO2 
 PCOD9545325
Probable space group: P 42/N
;
_chemical_formula_sum "Si O2"
_cell_formula_units_Z 40
_cell_length_a 8.589831
_cell_length_b 8.589831
_cell_length_c 25.160504
_cell_angle_alpha 90.000000
_cell_angle_beta 90.000000
_cell_angle_gamma 90.000000
_cell_volume 1856.472734
_symmetry_space_group_name_H-M "P 42/N"
_symmetry_group_IT_number 86
_space_group.IT_coordinate_system_code '2'
_symmetry_cell_setting 'tetragonal'
loop_
_space_group_symop_operation_xyz
x,y,z
-y,1/2+x,1/2+z
1/2-x,1/2-y,z
1/2+y,-x,1/2+z
-x,-y,-z
y,1/2-x,1/2-z
1/2+x,1/2+y,-z
1/2-y,x,1/2-z
loop_
_atom_site_type_symbol
_atom_site_label
_atom_site_fract_x
_atom_site_fract_y
_atom_site_fract_z
Si Si1 0.089288 0.453465 0.756385
Si Si2 0.863464 0.123072 0.842102
Si Si3 0.080312 0.327723 0.436701
Si Si4 0.927641 0.299423 0.549897
Si Si5 0.635062 0.613247 0.365964
O O1 0.276221 0.463051 0.751842
O O2 0.033278 0.553726 0.706324
O O3 0.057729 0.479641 0.818718
O O4 0.750000 0.250000 0.816994
O O5 0.980667 0.235725 0.875978
O O6 0.781152 0.009941 0.883377
O O7 0.250000 0.250000 0.438372
O O8 0.075042 0.516701 0.436033
O O9 0.989467 0.280208 0.489973
O O10 0.750000 0.250000 0.554539
O O11 0.038547 0.192873 0.587047
O O12 0.750000 0.750000 0.344367
#
# Coordination Sequence:
#
# PCOD9545325 Si02
#       5
#     8   8   8   8   8
#     4   9  15  33  62  90 117 157 213 265 313 385
#     4  11  23  38  64  97 129 172 215 274 345 396
#     4  11  25  43  62  91 141 172 215 277 337 398
#     4  11  25  41  65  98 125 176 225 272 329 406
#     4  11  19  40  70  95 127 165 227 280 324 400
#
# _framework density 21.546237000000001
#
# number of rings (size 3 to 8) (size 9 to 14) (size 15 to 20)
#    0.000    1.400    6.000    1.200    5.600    1.600 
#    0.000    0.000    0.000    0.000    0.000    0.000 
#    0.000    0.000    0.000    0.000    0.000    0.000 
#
# Total GULP energy -223034.494757 kJ/mol
# GULP energy per Si atom -5575.862369 kJ/mol
# Density = 2.149720 g / cm^3
# Si number density = 21.546237 Si / 1000 Ang^3
#
#
#
# Elastic Constant Matrix: (Units=GPa)
#
#
# Indices 1 2 3 4 5 6 
#
# 1 52.9688 11.6595 30.3398 0.0000 0.0000 -3.7945
# 2 11.6595 52.9688 30.3398 0.0000 0.0000 3.7945
# 3 30.3398 30.3398 143.1125 0.0000 0.0000 0.0000
# 4 0.0000 0.0000 0.0000 20.9958 0.0000 0.0000
# 5 0.0000 0.0000 0.0000 0.0000 20.9958 0.0000
# 6 -3.7945 3.7945 0.0000 0.0000 0.0000 32.8868
#
#
#
# Elastic Compliance Matrix: (Units=1/GPa)
#
#
# Indices 1 2 3 4 5 6 
#
# 1 0.022025 -0.002707 -0.004095 0.000000 0.000000 0.002854
# 2 -0.002707 0.022025 -0.004095 0.000000 0.000000 -0.002854
# 3 -0.004095 -0.004095 0.008724 0.000000 0.000000 0.000000
# 4 0.000000 0.000000 0.000000 0.047629 0.000000 0.000000
# 5 0.000000 0.000000 0.000000 0.000000 0.047629 0.000000
# 6 0.002854 -0.002854 0.000000 0.000000 0.000000 0.031066
#
#
# Mechanical properties :
#
#
# Convention : Reuss Voigt Hill
#
# Bulk Modulus (GPa) = 32.28015 43.74758 38.01386
# Shear Modulus (GPa) = 23.67213 26.75641 25.21427
#
# Velocity S-wave (km/s) = 3.31821 3.52776 3.42459
# Velocity P-wave (km/s) = 5.44931 6.07796 5.77220
#
# Compressibility (1/GPa) = 0.03097879
#
# Stress axis : x y z
#
# Youngs Moduli (GPa) = 45.40272 45.40272 114.62639
#
# Poissons Ratio (x) = 0.12289 0.46945
# Poissons Ratio (y) = 0.12289 0.46945
# Poissons Ratio (z) = 0.18595 0.18595
#
# Static dielectric constant tensor:
#      x y z
#    x 1.841480 0.000000 0.000000 
#    y 0.000000 1.841480 0.000000 
#    z 0.000000 0.000000 1.815360 
# 
# From -- ./inp_files/4440.got.cif
#   From: 2010.05.17/outbox.cif.g08.bks.cpg/sg86_3_cif.got.tgz:4440.got - 2010.06.03 19:03:11.
