data_PCOD9545555
_publ_section_title
;
Structure prediction by ZEFSAII (Michael W. Deem and Ramdas Pophale) SiO2 
 PCOD9545555
Probable space group: I 4/M
;
_chemical_formula_sum "Si O2"
_cell_formula_units_Z 96
_cell_length_a 23.799802
_cell_length_b 23.799802
_cell_length_c 7.467552
_cell_angle_alpha 90.000000
_cell_angle_beta 90.000000
_cell_angle_gamma 90.000000
_cell_volume 4229.849775
_symmetry_space_group_name_H-M "I 4/M"
_symmetry_group_IT_number 87
_symmetry_cell_setting 'tetragonal'
loop_
_space_group_symop_operation_xyz
x,y,z
-y,x,z
-x,-y,z
y,-x,z
-x,-y,-z
y,-x,-z
x,y,-z
-y,x,-z
1/2+x,1/2+y,1/2+z
1/2-y,1/2+x,1/2+z
1/2-x,1/2-y,1/2+z
1/2+y,1/2-x,1/2+z
1/2-x,1/2-y,1/2-z
1/2+y,1/2-x,1/2-z
1/2+x,1/2+y,1/2-z
1/2-y,1/2+x,1/2-z
loop_
_atom_site_type_symbol
_atom_site_label
_atom_site_fract_x
_atom_site_fract_y
_atom_site_fract_z
Si Si1 0.463428 0.835183 0.793209
Si Si2 0.786605 0.838912 0.209339
Si Si3 0.915959 0.633896 0.783016
Si Si4 0.998042 0.091094 0.281300
Si Si5 0.170085 0.277655 0.783675
Si Si6 0.533959 0.288475 0.796224
O O1 0.414647 0.874214 0.717257
O O2 0.521413 0.868445 0.786764
O O3 0.472901 0.773347 0.711196
O O4 0.446599 0.824616 0.000000
O O5 0.821559 0.785737 0.281134
O O6 0.722410 0.816824 0.226778
O O7 0.796546 0.898515 0.298876
O O8 0.798917 0.846760 0.000000
O O9 0.887129 0.692563 0.730560
O O10 0.918708 0.631153 0.000000
O O11 0.997386 0.092483 0.500000
O O12 0.993042 0.155135 0.216722
O O13 0.053240 0.055900 0.228043
O O14 0.172762 0.275950 0.000000
O O15 0.512327 0.284781 0.000000
#
# Coordination Sequence:
#
# PCOD9545555 Si02
#       6
#    16  16  16  16  16  16
#     4  10  22  38  56  79 106 138 179 225 272 327
#     4  10  19  30  52  82 108 138 177 215 256 318
#     4  10  21  39  58  76 107 143 175 221 275 321
#     4   8  15  29  51  80 110 142 182 223 261 305
#     4   9  18  35  54  75 107 142 172 212 269 320
#     4  10  19  34  55  79 112 144 175 223 273 313
#
# _framework density 22.695841999999999
#
# number of rings (size 3 to 8) (size 9 to 14) (size 15 to 20)
#    0.000    2.500    1.667    1.000    0.000    4.333 
#    0.000    3.333    0.000    1.000    0.000    1.167 
#    0.000    0.000    0.000    0.000    0.000    0.000 
#
# Total GULP energy -268009.836216 kJ/mol
# GULP energy per Si atom -5583.538255 kJ/mol
# Density = 2.264419 g / cm^3
# Si number density = 22.695842 Si / 1000 Ang^3
#
#
#
# Elastic Constant Matrix: (Units=GPa)
#
#
# Indices 1 2 3 4 5 6 
#
# 1 98.7528 34.7243 -1.8887 0.0000 0.0000 8.9201
# 2 34.7243 98.7528 -1.8887 0.0000 0.0000 -8.9201
# 3 -1.8887 -1.8887 71.1052 0.0000 0.0000 0.0000
# 4 0.0000 0.0000 0.0000 9.0490 0.0000 0.0000
# 5 0.0000 0.0000 0.0000 0.0000 9.0490 0.0000
# 6 8.9201 -8.9201 0.0000 0.0000 0.0000 6.9450
#
#
#
# Elastic Compliance Matrix: (Units=1/GPa)
#
#
# Indices 1 2 3 4 5 6 
#
# 1 0.015910 -0.008412 0.000199 0.000000 0.000000 -0.031239
# 2 -0.008412 0.015910 0.000199 0.000000 0.000000 0.031239
# 3 0.000199 0.000199 0.014074 0.000000 0.000000 0.000000
# 4 0.000000 0.000000 0.000000 0.110510 0.000000 0.000000
# 5 0.000000 0.000000 0.000000 0.000000 0.110510 0.000000
# 6 -0.031239 0.031239 0.000000 0.000000 0.000000 0.224235
#
#
# Mechanical properties :
#
#
# Convention : Reuss Voigt Hill
#
# Bulk Modulus (GPa) = 33.48290 36.72271 35.10280
# Shear Modulus (GPa) = 9.66870 20.85284 15.26077
#
# Velocity S-wave (km/s) = 2.06624 3.03445 2.59589
# Velocity P-wave (km/s) = 4.52520 5.33785 4.94824
#
# Compressibility (1/GPa) = 0.02986599
#
# Stress axis : x y z
#
# Youngs Moduli (GPa) = 62.85399 62.85399 71.05172
#
# Poissons Ratio (x) = 0.52875 -0.01415
# Poissons Ratio (y) = 0.52875 -0.01415
# Poissons Ratio (z) = -0.01252 -0.01252
#
# Static dielectric constant tensor:
#      x y z
#    x 1.832880 0.000000 0.000000 
#    y 0.000000 1.832880 0.000000 
#    z 0.000000 0.000000 1.749050 
# 
# From -- ./inp_files/1422.got.cif
#   From: 2010.05.17/outbox.cif.g08.bks.cpg/sg87_1_cif.got.tgz:1422.got - 2010.06.03 19:07:00.
