data_PCOD9545730
_publ_section_title
;
Structure prediction by ZEFSAII (Michael W. Deem and Ramdas Pophale) SiO2 
 PCOD9545730
Probable space group: I 4/M
;
_chemical_formula_sum "Si O2"
_cell_formula_units_Z 84
_cell_length_a 15.251263
_cell_length_b 15.251263
_cell_length_c 17.334938
_cell_angle_alpha 90.000000
_cell_angle_beta 90.000000
_cell_angle_gamma 90.000000
_cell_volume 4032.124314
_symmetry_space_group_name_H-M "I 4/M"
_symmetry_group_IT_number 87
_symmetry_cell_setting 'tetragonal'
loop_
_space_group_symop_operation_xyz
x,y,z
-y,x,z
-x,-y,z
y,-x,z
-x,-y,-z
y,-x,-z
x,y,-z
-y,x,-z
1/2+x,1/2+y,1/2+z
1/2-y,1/2+x,1/2+z
1/2-x,1/2-y,1/2+z
1/2+y,1/2-x,1/2+z
1/2-x,1/2-y,1/2-z
1/2+y,1/2-x,1/2-z
1/2+x,1/2+y,1/2-z
1/2-y,1/2+x,1/2-z
loop_
_atom_site_type_symbol
_atom_site_label
_atom_site_fract_x
_atom_site_fract_y
_atom_site_fract_z
Si Si1 0.491440 0.185842 0.333328
Si Si2 0.000000 0.000000 0.153364
Si Si3 0.403464 0.342559 0.587808
Si Si4 0.373357 0.939801 0.409534
Si Si5 0.278126 0.257064 0.911709
Si Si6 0.602879 0.190324 0.810185
O O1 0.464150 0.258084 0.395623
O O2 0.540507 0.103271 0.371479
O O3 0.555809 0.220793 0.267288
O O4 0.399740 0.156156 0.294734
O O5 0.928133 0.920026 0.144637
O O6 0.417993 0.373810 0.500000
O O7 0.304042 0.309279 0.594678
O O8 0.388881 0.954181 0.500000
O O9 0.297285 0.866433 0.401012
O O10 0.340278 0.027573 0.369224
O O11 0.259746 0.333128 0.850273
O O12 0.276051 0.291899 0.000000
#
# Coordination Sequence:
#
# PCOD9545730 Si02
#       6
#    16   4  16  16  16  16
#     4  11  22  37  57  87 123 154 194 245 302 360
#     4  12  21  36  60  84 116 156 197 246 293 348
#     4  10  20  35  56  84 119 156 194 244 296 358
#     4  11  22  37  62  88 114 156 204 247 295 357
#     4   9  21  40  60  86 118 156 204 244 294 357
#     4  11  22  39  60  86 124 157 193 249 304 347
#
# _framework density 20.832691000000001
#
# number of rings (size 3 to 8) (size 9 to 14) (size 15 to 20)
#    0.000    1.524    1.905    3.714    0.000    5.333 
#    3.429    0.000    0.000    0.571    0.000    2.667 
#    0.000    0.000    0.000    0.000    0.000    0.000 
#
# Total GULP energy -234432.511140 kJ/mol
# GULP energy per Si atom -5581.726456 kJ/mol
# Density = 2.078528 g / cm^3
# Si number density = 20.832691 Si / 1000 Ang^3
#
#
#
# Elastic Constant Matrix: (Units=GPa)
#
#
# Indices 1 2 3 4 5 6 
#
# 1 44.3765 8.0180 2.9501 0.0000 0.0000 1.4942
# 2 8.0180 44.3765 2.9501 0.0000 0.0000 -1.4942
# 3 2.9501 2.9501 59.7617 0.0000 0.0000 0.0000
# 4 0.0000 0.0000 0.0000 16.5398 0.0000 0.0000
# 5 0.0000 0.0000 0.0000 0.0000 16.5398 0.0000
# 6 1.4942 -1.4942 0.0000 0.0000 0.0000 22.7503
#
#
#
# Elastic Compliance Matrix: (Units=1/GPa)
#
#
# Indices 1 2 3 4 5 6 
#
# 1 0.023423 -0.004230 -0.000947 0.000000 0.000000 -0.001816
# 2 -0.004230 0.023423 -0.000947 0.000000 0.000000 0.001816
# 3 -0.000947 -0.000947 0.016827 0.000000 0.000000 0.000000
# 4 0.000000 0.000000 0.000000 0.060460 0.000000 0.000000
# 5 0.000000 0.000000 0.000000 0.000000 0.060460 0.000000
# 6 -0.001816 0.001816 0.000000 0.000000 0.000000 0.044194
#
#
# Mechanical properties :
#
#
# Convention : Reuss Voigt Hill
#
# Bulk Modulus (GPa) = 19.44687 19.59460 19.52073
# Shear Modulus (GPa) = 19.36646 20.13906 19.75276
#
# Velocity S-wave (km/s) = 3.05227 3.11256 3.08256
# Velocity P-wave (km/s) = 4.66657 4.72689 4.69683
#
# Compressibility (1/GPa) = 0.05142217
#
# Stress axis : x y z
#
# Youngs Moduli (GPa) = 42.69324 42.69324 59.42949
#
# Poissons Ratio (x) = 0.18060 0.05631
# Poissons Ratio (y) = 0.18060 0.05631
# Poissons Ratio (z) = 0.04045 0.04045
#
# Static dielectric constant tensor:
#      x y z
#    x 1.738880 0.000000 0.000000 
#    y 0.000000 1.738880 0.000000 
#    z 0.000000 0.000000 1.768180 
# 
# From -- ./inp_files/5197.got.cif
#   From: 2010.05.17/outbox.cif.g08.bks.cpg/sg87_3_cif.got.tgz:5197.got - 2010.06.03 19:07:00.
