data_PCOD9545849
_publ_section_title
;
Structure prediction by ZEFSAII (Michael W. Deem and Ramdas Pophale) SiO2 
 PCOD9545849
Probable space group: I 4/M
;
_chemical_formula_sum "Si O2"
_cell_formula_units_Z 96
_cell_length_a 13.564363
_cell_length_b 13.564363
_cell_length_c 25.459513
_cell_angle_alpha 90.000000
_cell_angle_beta 90.000000
_cell_angle_gamma 90.000000
_cell_volume 4684.345280
_symmetry_space_group_name_H-M "I 4/M"
_symmetry_group_IT_number 87
_symmetry_cell_setting 'tetragonal'
loop_
_space_group_symop_operation_xyz
x,y,z
-y,x,z
-x,-y,z
y,-x,z
-x,-y,-z
y,-x,-z
x,y,-z
-y,x,-z
1/2+x,1/2+y,1/2+z
1/2-y,1/2+x,1/2+z
1/2-x,1/2-y,1/2+z
1/2+y,1/2-x,1/2+z
1/2-x,1/2-y,1/2-z
1/2+y,1/2-x,1/2-z
1/2+x,1/2+y,1/2-z
1/2-y,1/2+x,1/2-z
loop_
_atom_site_type_symbol
_atom_site_label
_atom_site_fract_x
_atom_site_fract_y
_atom_site_fract_z
Si Si1 0.110581 0.883641 0.416652
Si Si2 0.763391 0.553901 0.292807
Si Si3 0.928221 0.590005 0.628831
Si Si4 0.266362 0.192697 0.059731
Si Si5 0.252593 0.069967 0.672130
Si Si6 0.856093 0.776497 0.157891
O O1 0.197548 0.815262 0.438217
O O2 0.102277 0.850787 0.354687
O O3 0.996349 0.867358 0.431905
O O4 0.873375 0.562560 0.316490
O O5 0.751076 0.533375 0.231593
O O6 0.710780 0.656085 0.305214
O O7 0.712431 0.468684 0.326767
O O8 0.844085 0.617338 0.586652
O O9 0.000000 0.500000 0.613958
O O10 0.988910 0.690173 0.637857
O O11 0.172990 0.198149 0.098385
O O12 0.245142 0.166808 0.000000
O O13 0.322686 0.165301 0.669433
#
# Coordination Sequence:
#
# PCOD9545849 Si02
#       6
#    16  16  16  16  16  16
#     4  10  21  37  57  89 127 160 202 243 297 388
#     4  11  23  37  63  90 129 169 206 254 317 374
#     4  11  22  39  62  94 125 158 213 264 304 381
#     4  10  23  44  65  88 124 166 209 271 320 356
#     4  11  21  37  62  89 130 168 201 252 314 372
#     4  10  23  41  58  92 126 162 216 265 302 378
#
# _framework density 20.493793
#
# number of rings (size 3 to 8) (size 9 to 14) (size 15 to 20)
#    0.000    1.500    3.333    1.500    2.333    1.333 
#    0.000    4.167    0.000    0.000    0.000    4.667 
#    0.000    0.000    0.000    0.000    0.000    0.000 
#
# Total GULP energy -267887.655985 kJ/mol
# GULP energy per Si atom -5580.992833 kJ/mol
# Density = 2.044715 g / cm^3
# Si number density = 20.493793 Si / 1000 Ang^3
#
#
#
# Elastic Constant Matrix: (Units=GPa)
#
#
# Indices 1 2 3 4 5 6 
#
# 1 48.1875 -3.7464 22.8596 0.0000 0.0000 3.8113
# 2 -3.7464 48.1875 22.8596 0.0000 0.0000 -3.8113
# 3 22.8596 22.8596 125.9035 0.0000 0.0000 0.0000
# 4 0.0000 0.0000 0.0000 8.6118 0.0000 0.0000
# 5 0.0000 0.0000 0.0000 0.0000 8.6118 0.0000
# 6 3.8113 -3.8113 0.0000 0.0000 0.0000 22.8769
#
#
#
# Elastic Compliance Matrix: (Units=1/GPa)
#
#
# Indices 1 2 3 4 5 6 
#
# 1 0.023704 0.003966 -0.005024 0.000000 0.000000 -0.003288
# 2 0.003966 0.023704 -0.005024 0.000000 0.000000 0.003288
# 3 -0.005024 -0.005024 0.009767 0.000000 0.000000 0.000000
# 4 0.000000 0.000000 0.000000 0.116120 0.000000 0.000000
# 5 0.000000 0.000000 0.000000 0.000000 0.116120 0.000000
# 6 -0.003288 0.003288 0.000000 0.000000 0.000000 0.044808
#
#
# Mechanical properties :
#
#
# Convention : Reuss Voigt Hill
#
# Bulk Modulus (GPa) = 22.21656 34.02492 28.12074
# Shear Modulus (GPa) = 13.83544 20.04046 16.93795
#
# Velocity S-wave (km/s) = 2.60109 3.13050 2.87800
# Velocity P-wave (km/s) = 4.45927 5.45026 4.97948
#
# Compressibility (1/GPa) = 0.04501147
#
# Stress axis : x y z
#
# Youngs Moduli (GPa) = 42.18696 42.18696 102.38639
#
# Poissons Ratio (x) = -0.16732 0.51438
# Poissons Ratio (y) = -0.16732 0.51438
# Poissons Ratio (z) = 0.21194 0.21194
#
# Static dielectric constant tensor:
#      x y z
#    x 1.743320 0.000000 0.000000 
#    y 0.000000 1.743320 0.000000 
#    z 0.000000 0.000000 1.732200 
# 
# From -- ./inp_files/5324.got.cif
#   From: 2010.05.17/outbox.cif.g08.bks.cpg/sg87_3_cif.got.tgz:5324.got - 2010.06.03 19:07:00.
