data_PCOD9545124
_publ_section_title
;
Structure prediction by ZEFSAII (Michael W. Deem and Ramdas Pophale) SiO2 
 PCOD9545124
Probable space group: P 42/N
;
_chemical_formula_sum "Si O2"
_cell_formula_units_Z 34
_cell_length_a 11.922759
_cell_length_b 11.922759
_cell_length_c 13.273314
_cell_angle_alpha 90.000000
_cell_angle_beta 90.000000
_cell_angle_gamma 90.000000
_cell_volume 1886.830550
_symmetry_space_group_name_H-M "P 42/N"
_symmetry_group_IT_number 86
_space_group.IT_coordinate_system_code '2'
_symmetry_cell_setting 'tetragonal'
loop_
_space_group_symop_operation_xyz
x,y,z
-y,1/2+x,1/2+z
1/2-x,1/2-y,z
1/2+y,-x,1/2+z
-x,-y,-z
y,1/2-x,1/2-z
1/2+x,1/2+y,-z
1/2-y,x,1/2-z
loop_
_atom_site_type_symbol
_atom_site_label
_atom_site_fract_x
_atom_site_fract_y
_atom_site_fract_z
Si Si1 0.759157 0.992501 0.657956
Si Si2 0.442968 0.875315 0.246775
Si Si3 0.450750 0.624897 0.228719
Si Si4 0.250000 0.250000 0.250000
Si Si5 0.618067 0.235261 0.951579
O O1 0.754995 0.860710 0.680181
O O2 0.642912 0.049576 0.691493
O O3 0.855578 0.045200 0.727709
O O4 0.781998 0.037526 0.545909
O O5 0.444290 0.746284 0.282497
O O6 0.398961 0.863203 0.131537
O O7 0.563636 0.932056 0.254752
O O8 0.423397 0.656742 0.113096
O O9 0.750000 0.250000 0.976754
#
# Coordination Sequence:
#
# PCOD9545124 Si02
#       5
#     8   8   8   2   8
#     4  12  22  46  66  90 138 166 217 280 316 400
#     4  10  21  41  64  95 130 169 217 269 320 386
#     4  10  21  41  64  95 130 169 217 269 320 386
#     4  12  28  44  64 100 126 172 216 268 344 372
#     4  10  22  40  69 102 121 180 224 252 341 386
#
# _framework density 18.019638
#
# number of rings (size 3 to 8) (size 9 to 14) (size 15 to 20)
#    1.412    0.000    4.706    2.118    0.000    2.353 
#    4.235    0.000    0.000    0.000    0.000    0.000 
#    0.000    0.000    0.000    0.000    0.000    0.000 
#
# Total GULP energy -189353.811771 kJ/mol
# GULP energy per Si atom -5569.229758 kJ/mol
# Density = 1.797862 g / cm^3
# Si number density = 18.019638 Si / 1000 Ang^3
#
#
#
# Elastic Constant Matrix: (Units=GPa)
#
#
# Indices 1 2 3 4 5 6 
#
# 1 98.9461 11.4438 -17.0619 0.0000 0.0000 0.0216
# 2 11.4438 98.9461 -17.0619 0.0000 0.0000 -0.0216
# 3 -17.0619 -17.0619 30.4403 0.0000 0.0000 0.0000
# 4 0.0000 0.0000 0.0000 -7.8449 0.0000 0.0000
# 5 0.0000 0.0000 0.0000 0.0000 -7.8449 0.0000
# 6 0.0216 -0.0216 0.0000 0.0000 0.0000 37.1469
#
#
#
# Elastic Compliance Matrix: (Units=1/GPa)
#
#
# Indices 1 2 3 4 5 6 
#
# 1 0.011193 -0.000235 0.006142 0.000000 0.000000 -0.000007
# 2 -0.000235 0.011193 0.006142 0.000000 0.000000 0.000007
# 3 0.006142 0.006142 0.039736 0.000000 0.000000 0.000000
# 4 0.000000 0.000000 0.000000 -0.127471 0.000000 0.000000
# 5 0.000000 0.000000 0.000000 0.000000 -0.127471 0.000000
# 6 -0.000007 0.000007 0.000000 0.000000 0.000000 0.026920
#
#
# Mechanical properties :
#
#
# Convention : Reuss Voigt Hill
#
# Bulk Modulus (GPa) = 11.59864 20.33027 15.96446
# Shear Modulus (GPa) = -31.00654 21.02556 -4.99049
#
# Velocity S-wave (km/s) = -4.15264 3.41957 -1.66598
# Velocity P-wave (km/s) = 4.06718 5.18634 2.27554
#
# Compressibility (1/GPa) = 0.08621701
#
# Stress axis : x y z
#
# Youngs Moduli (GPa) = 89.34324 89.34324 25.16610
#
# Poissons Ratio (x) = 0.02104 -0.15456
# Poissons Ratio (y) = 0.02104 -0.15456
# Poissons Ratio (z) = -0.54871 -0.54871
#
# Static dielectric constant tensor:
#      x y z
#    x 1.627180 0.000000 0.000000 
#    y 0.000000 1.627180 0.000000 
#    z 0.000000 0.000000 1.619150 
# 
# From -- ./inp_files/1969.got.cif
#   From: 2010.05.17/outbox.cif.g08.bks.cpg/sg86_1_cif.got.tgz:1969.got - 2010.06.03 19:03:11.
