data_PCOD9545647
_publ_section_title
;
Structure prediction by ZEFSAII (Michael W. Deem and Ramdas Pophale) SiO2 
 PCOD9545647
Probable space group: I 4/M
;
_chemical_formula_sum "Si O2"
_cell_formula_units_Z 96
_cell_length_a 14.826760
_cell_length_b 14.826760
_cell_length_c 19.839649
_cell_angle_alpha 90.000000
_cell_angle_beta 90.000000
_cell_angle_gamma 90.000000
_cell_volume 4361.405831
_symmetry_space_group_name_H-M "I 4/M"
_symmetry_group_IT_number 87
_symmetry_cell_setting 'tetragonal'
loop_
_space_group_symop_operation_xyz
x,y,z
-y,x,z
-x,-y,z
y,-x,z
-x,-y,-z
y,-x,-z
x,y,-z
-y,x,-z
1/2+x,1/2+y,1/2+z
1/2-y,1/2+x,1/2+z
1/2-x,1/2-y,1/2+z
1/2+y,1/2-x,1/2+z
1/2-x,1/2-y,1/2-z
1/2+y,1/2-x,1/2-z
1/2+x,1/2+y,1/2-z
1/2-y,1/2+x,1/2-z
loop_
_atom_site_type_symbol
_atom_site_label
_atom_site_fract_x
_atom_site_fract_y
_atom_site_fract_z
Si Si1 0.332672 0.197285 0.716661
Si Si2 0.902941 0.309878 0.921448
Si Si3 0.268724 0.483144 0.781719
Si Si4 0.131743 0.061599 0.156917
Si Si5 0.110329 0.346168 0.074820
Si Si6 0.474368 0.227748 0.923987
O O1 0.250000 0.250000 0.750000
O O2 0.424785 0.231849 0.749449
O O3 0.343053 0.206478 0.635936
O O4 0.310249 0.091578 0.725481
O O5 0.901880 0.221511 0.876465
O O6 0.825698 0.382590 0.907131
O O7 0.003240 0.351497 0.912469
O O8 0.894908 0.285323 0.000000
O O9 0.350340 0.444104 0.737136
O O10 0.289273 0.500189 0.860276
O O11 0.042416 0.114723 0.137247
O O12 0.154085 0.445335 0.073541
O O13 0.124149 0.305972 0.000000
O O14 0.467373 0.266627 0.000000
#
# Coordination Sequence:
#
# PCOD9545647 Si02
#       6
#    16  16  16  16  16  16
#     4  11  23  39  61  89 124 159 207 260 313 383
#     4  10  19  36  60  87 119 158 200 248 303 372
#     4  11  22  37  61  87 120 160 199 256 319 374
#     4  11  24  41  60  84 117 163 217 264 310 367
#     4   9  18  35  59  88 124 163 195 242 306 374
#     4   9  19  35  58  90 122 153 194 244 309 380
#
# _framework density 22.011251999999999
#
# number of rings (size 3 to 8) (size 9 to 14) (size 15 to 20)
#    0.000    1.833    1.667    2.500    0.000    3.000 
#    0.000    1.667    0.000    4.000    0.000    1.167 
#    0.000    0.000    0.000    0.000    0.000    0.000 
#
# Total GULP energy -268255.385966 kJ/mol
# GULP energy per Si atom -5588.653874 kJ/mol
# Density = 2.196115 g / cm^3
# Si number density = 22.011252 Si / 1000 Ang^3
#
#
#
# Elastic Constant Matrix: (Units=GPa)
#
#
# Indices 1 2 3 4 5 6 
#
# 1 74.8982 7.2384 22.8621 0.0000 0.0000 -5.8467
# 2 7.2384 74.8982 22.8621 0.0000 0.0000 5.8467
# 3 22.8621 22.8621 99.6059 0.0000 0.0000 0.0000
# 4 0.0000 0.0000 0.0000 19.9906 0.0000 0.0000
# 5 0.0000 0.0000 0.0000 0.0000 19.9906 0.0000
# 6 -5.8467 5.8467 0.0000 0.0000 0.0000 15.5574
#
#
#
# Elastic Compliance Matrix: (Units=1/GPa)
#
#
# Indices 1 2 3 4 5 6 
#
# 1 0.014882 -0.000924 -0.003204 0.000000 0.000000 0.005940
# 2 -0.000924 0.014882 -0.003204 0.000000 0.000000 -0.005940
# 3 -0.003204 -0.003204 0.011510 0.000000 0.000000 0.000000
# 4 0.000000 0.000000 0.000000 0.050024 0.000000 0.000000
# 5 0.000000 0.000000 0.000000 0.000000 0.050024 0.000000
# 6 0.005940 -0.005940 0.000000 0.000000 0.000000 0.068743
#
#
# Mechanical properties :
#
#
# Convention : Reuss Voigt Hill
#
# Bulk Modulus (GPa) = 37.57732 39.48081 38.52906
# Shear Modulus (GPa) = 21.40416 24.20367 22.80392
#
# Velocity S-wave (km/s) = 3.12175 3.31963 3.22221
# Velocity P-wave (km/s) = 5.48659 5.71566 5.60230
#
# Compressibility (1/GPa) = 0.02661180
#
# Stress axis : x y z
#
# Youngs Moduli (GPa) = 67.19338 67.19337 86.87891
#
# Poissons Ratio (x) = 0.06209 0.27834
# Poissons Ratio (y) = 0.06209 0.27834
# Poissons Ratio (z) = 0.21527 0.21527
#
# Static dielectric constant tensor:
#      x y z
#    x 1.792260 0.000000 0.000000 
#    y 0.000000 1.792260 0.000000 
#    z 0.000000 0.000000 1.859200 
# 
# From -- ./inp_files/5280.got.cif
#   From: 2010.05.17/outbox.cif.g08.bks.cpg/sg87_3_cif.got.tgz:5280.got - 2010.06.03 19:07:00.
