data_PCOD9545488
_publ_section_title
;
Structure prediction by ZEFSAII (Michael W. Deem and Ramdas Pophale) SiO2 
 PCOD9545488
Probable space group: I 4/M
;
_chemical_formula_sum "Si O2"
_cell_formula_units_Z 96
_cell_length_a 20.961597
_cell_length_b 20.961597
_cell_length_c 13.498974
_cell_angle_alpha 90.000000
_cell_angle_beta 90.000000
_cell_angle_gamma 90.000000
_cell_volume 5931.294596
_symmetry_space_group_name_H-M "I 4/M"
_symmetry_group_IT_number 87
_symmetry_cell_setting 'tetragonal'
loop_
_space_group_symop_operation_xyz
x,y,z
-y,x,z
-x,-y,z
y,-x,z
-x,-y,-z
y,-x,-z
x,y,-z
-y,x,-z
1/2+x,1/2+y,1/2+z
1/2-y,1/2+x,1/2+z
1/2-x,1/2-y,1/2+z
1/2+y,1/2-x,1/2+z
1/2-x,1/2-y,1/2-z
1/2+y,1/2-x,1/2-z
1/2+x,1/2+y,1/2-z
1/2-y,1/2+x,1/2-z
loop_
_atom_site_type_symbol
_atom_site_label
_atom_site_fract_x
_atom_site_fract_y
_atom_site_fract_z
Si Si1 0.727897 0.525400 0.617620
Si Si2 0.633242 0.818092 0.114211
Si Si3 0.835230 0.215514 0.118960
Si Si4 0.245466 0.605830 0.692247
Si Si5 0.599967 0.090271 0.116492
Si Si6 0.373255 0.045764 0.815778
O O1 0.719677 0.521707 0.500000
O O2 0.698085 0.592479 0.652049
O O3 0.713884 0.456126 0.661349
O O4 0.802597 0.534692 0.642155
O O5 0.709299 0.823057 0.138251
O O6 0.603243 0.770034 0.191844
O O7 0.604242 0.888032 0.136010
O O8 0.626033 0.801550 0.000000
O O9 0.783229 0.169578 0.165772
O O10 0.832768 0.208217 0.000000
O O11 0.175465 0.605080 0.638497
O O12 0.558310 0.128177 0.197781
O O13 0.589475 0.016549 0.149105
O O14 0.587241 0.099763 0.000000
#
# Coordination Sequence:
#
# PCOD9545488 Si02
#       6
#    16  16  16  16  16  16
#     4   9  17  30  46  64  89 116 142 174 213 261
#     4   9  17  28  44  66  91 116 142 177 216 255
#     4   9  16  27  45  68  90 113 142 175 215 258
#     4  10  17  28  48  67  86 114 147 177 212 257
#     4  10  19  31  45  61  83 110 146 185 215 251
#     4   9  17  30  44  60  83 115 146 175 214 254
#
# _framework density 16.185337000000001
#
# number of rings (size 3 to 8) (size 9 to 14) (size 15 to 20)
#    0.000    2.667    0.000    5.500    0.000    0.333 
#    0.000   10.000    0.000    1.500    0.000    2.333 
#    0.000    0.000    0.000    1.500    0.000    0.167 
#
# Total GULP energy -267260.818439 kJ/mol
# GULP energy per Si atom -5567.933717 kJ/mol
# Density = 1.614850 g / cm^3
# Si number density = 16.185337 Si / 1000 Ang^3
#
#
#
# Elastic Constant Matrix: (Units=GPa)
#
#
# Indices 1 2 3 4 5 6 
#
# 1 21.9304 19.1447 13.3096 0.0000 0.0000 -16.9509
# 2 19.1447 21.9304 13.3096 0.0000 0.0000 16.9509
# 3 13.3096 13.3096 83.4652 0.0000 0.0000 0.0000
# 4 0.0000 0.0000 0.0000 15.9046 0.0000 0.0000
# 5 0.0000 0.0000 0.0000 0.0000 15.9046 0.0000
# 6 -16.9509 16.9509 0.0000 0.0000 0.0000 -42.1209
#
#
#
# Elastic Compliance Matrix: (Units=1/GPa)
#
#
# Indices 1 2 3 4 5 6 
#
# 1 0.044010 -0.016858 -0.004330 0.000000 0.000000 -0.024495
# 2 -0.016858 0.044010 -0.004330 0.000000 0.000000 0.024495
# 3 -0.004330 -0.004330 0.013362 0.000000 0.000000 0.000000
# 4 0.000000 0.000000 0.000000 0.062875 0.000000 0.000000
# 5 0.000000 0.000000 0.000000 0.000000 0.062875 0.000000
# 6 -0.024495 0.024495 0.000000 0.000000 0.000000 -0.004026
#
#
# Mechanical properties :
#
#
# Convention : Reuss Voigt Hill
#
# Bulk Modulus (GPa) = 19.86243 24.31709 22.08976
# Shear Modulus (GPa) = 17.18671 3.37516 10.28094
#
# Velocity S-wave (km/s) = 3.26217 1.44563 2.52305
# Velocity P-wave (km/s) = 5.14660 4.22412 4.70801
#
# Compressibility (1/GPa) = 0.05034630
#
# Stress axis : x y z
#
# Youngs Moduli (GPa) = 22.72222 22.72222 74.83976
#
# Poissons Ratio (x) = 0.38306 0.32403
# Poissons Ratio (y) = 0.38306 0.32403
# Poissons Ratio (z) = 0.09838 0.09838
#
# Static dielectric constant tensor:
#      x y z
#    x 1.587500 0.000000 0.000000 
#    y 0.000000 1.587500 0.000000 
#    z 0.000000 0.000000 1.545880 
# 
# From -- ./inp_files/2844.got.cif
#   From: 2010.05.17/outbox.cif.g08.bks.cpg/sg87_2_cif.got.tgz:2844.got - 2010.06.03 19:07:00.
