data_PCOD9545749
_publ_section_title
;
Structure prediction by ZEFSAII (Michael W. Deem and Ramdas Pophale) SiO2 
 PCOD9545749
Probable space group: I 4/M
;
_chemical_formula_sum "Si O2"
_cell_formula_units_Z 96
_cell_length_a 24.547771
_cell_length_b 24.547771
_cell_length_c 8.939383
_cell_angle_alpha 90.000000
_cell_angle_beta 90.000000
_cell_angle_gamma 90.000000
_cell_volume 5386.810166
_symmetry_space_group_name_H-M "I 4/M"
_symmetry_group_IT_number 87
_symmetry_cell_setting 'tetragonal'
loop_
_space_group_symop_operation_xyz
x,y,z
-y,x,z
-x,-y,z
y,-x,z
-x,-y,-z
y,-x,-z
x,y,-z
-y,x,-z
1/2+x,1/2+y,1/2+z
1/2-y,1/2+x,1/2+z
1/2-x,1/2-y,1/2+z
1/2+y,1/2-x,1/2+z
1/2-x,1/2-y,1/2-z
1/2+y,1/2-x,1/2-z
1/2+x,1/2+y,1/2-z
1/2-y,1/2+x,1/2-z
loop_
_atom_site_type_symbol
_atom_site_label
_atom_site_fract_x
_atom_site_fract_y
_atom_site_fract_z
Si Si1 0.936351 0.937092 0.680373
Si Si2 0.145741 0.849779 0.178782
Si Si3 0.272664 0.859020 0.820640
Si Si4 0.439217 0.851949 0.324457
Si Si5 0.731865 0.857192 0.321976
Si Si6 0.055531 0.353545 0.675714
O O1 0.932629 0.933496 0.500000
O O2 0.893902 0.895402 0.752346
O O3 0.999549 0.925233 0.721366
O O4 0.209040 0.861831 0.215220
O O5 0.136185 0.789360 0.241747
O O6 0.139954 0.849838 0.000000
O O7 0.301605 0.801241 0.782697
O O8 0.305620 0.905399 0.734410
O O9 0.279435 0.866195 0.000000
O O10 0.436152 0.837855 0.500000
O O11 0.405440 0.807910 0.230170
O O12 0.408486 0.909390 0.304286
O O13 0.500462 0.854672 0.268426
O O14 0.739664 0.858125 0.500000
O O15 0.044040 0.346537 0.500000
#
# Coordination Sequence:
#
# PCOD9545749 Si02
#       6
#    16  16  16  16  16  16
#     4   9  20  40  61  79 104 140 181 224 267 313
#     4  11  22  35  56  86 114 141 176 218 269 328
#     4   9  20  37  55  78 111 148 182 222 271 320
#     4  10  21  37  56  79 110 145 183 230 278 325
#     4  10  20  36  57  79 108 146 185 224 267 318
#     4  10  21  36  56  81 108 144 187 229 276 327
#
# _framework density 17.821307000000001
#
# number of rings (size 3 to 8) (size 9 to 14) (size 15 to 20)
#    0.000    2.167    0.000    3.000    0.000    6.333 
#    0.000    5.833    0.000    0.000    0.000    0.000 
#    0.000    0.000    0.000    0.000    0.000    0.000 
#
# Total GULP energy -267962.564224 kJ/mol
# GULP energy per Si atom -5582.553421 kJ/mol
# Density = 1.778074 g / cm^3
# Si number density = 17.821307 Si / 1000 Ang^3
#
#
#
# Elastic Constant Matrix: (Units=GPa)
#
#
# Indices 1 2 3 4 5 6 
#
# 1 147.5833 42.9746 46.3363 0.0000 0.0000 -2.9346
# 2 42.9746 147.5833 46.3363 0.0000 0.0000 2.9346
# 3 46.3363 46.3363 35.9191 0.0000 0.0000 0.0000
# 4 0.0000 0.0000 0.0000 31.2148 0.0000 0.0000
# 5 0.0000 0.0000 0.0000 0.0000 31.2148 0.0000
# 6 -2.9346 2.9346 0.0000 0.0000 0.0000 20.3203
#
#
#
# Elastic Compliance Matrix: (Units=1/GPa)
#
#
# Indices 1 2 3 4 5 6 
#
# 1 0.011860 0.002223 -0.018167 0.000000 0.000000 0.001392
# 2 0.002223 0.011860 -0.018167 0.000000 0.000000 -0.001392
# 3 -0.018167 -0.018167 0.074712 0.000000 0.000000 0.000000
# 4 0.000000 0.000000 0.000000 0.032036 0.000000 0.000000
# 5 0.000000 0.000000 0.000000 0.000000 0.032036 0.000000
# 6 0.001392 -0.001392 0.000000 0.000000 0.000000 0.049614
#
#
# Mechanical properties :
#
#
# Convention : Reuss Voigt Hill
#
# Bulk Modulus (GPa) = 33.10225 66.93114 50.01670
# Shear Modulus (GPa) = 17.21692 29.57921 23.39806
#
# Velocity S-wave (km/s) = 3.11156 4.07844 3.62736
# Velocity P-wave (km/s) = 5.61462 7.73412 6.75798
#
# Compressibility (1/GPa) = 0.03020943
#
# Stress axis : x y z
#
# Youngs Moduli (GPa) = 84.31567 84.31567 13.38466
#
# Poissons Ratio (x) = -0.18741 0.24316
# Poissons Ratio (y) = -0.18741 0.24316
# Poissons Ratio (z) = 1.53178 1.53178
#
# Static dielectric constant tensor:
#      x y z
#    x 1.586060 0.000000 0.000000 
#    y 0.000000 1.586060 0.000000 
#    z 0.000000 0.000000 1.592490 
# 
# From -- ./inp_files/1436.got.cif
#   From: 2010.05.17/outbox.cif.g08.bks.cpg/sg87_1_cif.got.tgz:1436.got - 2010.06.03 19:07:00.
