data_PCOD9545300
_publ_section_title
;
Structure prediction by ZEFSAII (Michael W. Deem and Ramdas Pophale) SiO2 
 PCOD9545300
Probable space group: P 42/N
;
_chemical_formula_sum "Si O2"
_cell_formula_units_Z 48
_cell_length_a 8.789410
_cell_length_b 8.789410
_cell_length_c 29.528177
_cell_angle_alpha 90.000000
_cell_angle_beta 90.000000
_cell_angle_gamma 90.000000
_cell_volume 2281.161759
_symmetry_space_group_name_H-M "P 42/N"
_symmetry_group_IT_number 86
_space_group.IT_coordinate_system_code '2'
_symmetry_cell_setting 'tetragonal'
loop_
_space_group_symop_operation_xyz
x,y,z
-y,1/2+x,1/2+z
1/2-x,1/2-y,z
1/2+y,-x,1/2+z
-x,-y,-z
y,1/2-x,1/2-z
1/2+x,1/2+y,-z
1/2-y,x,1/2-z
loop_
_atom_site_type_symbol
_atom_site_label
_atom_site_fract_x
_atom_site_fract_y
_atom_site_fract_z
Si Si1 0.434715 0.911549 0.456405
Si Si2 0.492301 0.467133 0.863252
Si Si3 0.650482 0.525908 0.308037
Si Si4 0.184188 0.580045 0.115843
Si Si5 0.546332 0.082179 0.046215
Si Si6 0.421463 0.790238 0.292406
O O1 0.544963 0.925757 0.413123
O O2 0.264316 0.979611 0.448994
O O3 0.424322 0.729392 0.457987
O O4 0.500000 0.000000 0.500000
O O5 0.461455 0.313147 0.833983
O O6 0.662692 0.512030 0.876699
O O7 0.417302 0.590984 0.831044
O O8 0.589362 0.379512 0.333500
O O9 0.529196 0.660430 0.313976
O O10 0.666198 0.502030 0.254608
O O11 0.250000 0.750000 0.101746
O O12 0.053047 0.509160 0.084193
O O13 0.500000 0.000000 0.000000
O O14 0.250000 0.750000 0.280018
#
# Coordination Sequence:
#
# PCOD9545300 Si02
#       6
#     8   8   8   8   8   8
#     4  11  27  48  71 108 142 185 245 299 360 431
#     4  11  24  43  72 100 137 186 235 291 360 427
#     4  11  24  45  71 100 142 186 239 290 361 428
#     4  10  24  45  71 101 141 186 236 296 359 435
#     4  11  26  46  74 101 145 189 236 301 362 430
#     4  12  25  43  70 105 141 186 240 301 355 441
#
# _framework density 21.041907999999999
#
# number of rings (size 3 to 8) (size 9 to 14) (size 15 to 20)
#    0.000    1.000    1.667    4.000   11.667    4.000 
#    0.000    0.000    0.000    0.000    0.000    0.000 
#    0.000    0.000    0.000    0.000    0.000    0.000 
#
# Total GULP energy -267288.734758 kJ/mol
# GULP energy per Si atom -5568.515307 kJ/mol
# Density = 2.099402 g / cm^3
# Si number density = 21.041908 Si / 1000 Ang^3
#
#
#
# Elastic Constant Matrix: (Units=GPa)
#
#
# Indices 1 2 3 4 5 6 
#
# 1 83.1499 36.5369 33.7651 0.0000 0.0000 -3.9823
# 2 36.5369 83.1499 33.7651 0.0000 0.0000 3.9823
# 3 33.7651 33.7651 129.2511 0.0000 0.0000 0.0000
# 4 0.0000 0.0000 0.0000 31.2442 0.0000 0.0000
# 5 0.0000 0.0000 0.0000 0.0000 31.2442 0.0000
# 6 -3.9823 3.9823 0.0000 0.0000 0.0000 29.1193
#
#
#
# Elastic Compliance Matrix: (Units=1/GPa)
#
#
# Indices 1 2 3 4 5 6 
#
# 1 0.015883 -0.006084 -0.002560 0.000000 0.000000 0.003004
# 2 -0.006084 0.015883 -0.002560 0.000000 0.000000 -0.003004
# 3 -0.002560 -0.002560 0.009074 0.000000 0.000000 0.000000
# 4 0.000000 0.000000 0.000000 0.032006 0.000000 0.000000
# 5 0.000000 0.000000 0.000000 0.000000 0.032006 0.000000
# 6 0.003004 -0.003004 0.000000 0.000000 0.000000 0.035163
#
#
# Mechanical properties :
#
#
# Convention : Reuss Voigt Hill
#
# Bulk Modulus (GPa) = 54.24905 55.96505 55.10705
# Shear Modulus (GPa) = 29.66177 31.08711 30.37444
#
# Velocity S-wave (km/s) = 3.75861 3.84785 3.80349
# Velocity P-wave (km/s) = 6.68383 6.81146 6.74795
#
# Compressibility (1/GPa) = 0.01843350
#
# Stress axis : x y z
#
# Youngs Moduli (GPa) = 62.96019 62.96019 110.20003
#
# Poissons Ratio (x) = 0.38302 0.28211
# Poissons Ratio (y) = 0.38302 0.28211
# Poissons Ratio (z) = 0.16118 0.16118
#
# Static dielectric constant tensor:
#      x y z
#    x 1.966160 0.000000 0.000000 
#    y 0.000000 1.966160 0.000000 
#    z 0.000000 0.000000 1.948800 
# 
# From -- ./inp_files/5213.got.cif
#   From: 2010.05.17/outbox.cif.g08.bks.cpg/sg86_3_cif.got.tgz:5213.got - 2010.06.03 19:03:11.
