data_PCOD9545452
_publ_section_title
;
Structure prediction by ZEFSAII (Michael W. Deem and Ramdas Pophale) SiO2 
 PCOD9545452
Probable space group: P 42/N
;
_chemical_formula_sum "Si O2"
_cell_formula_units_Z 22
_cell_length_a 5.398892
_cell_length_b 5.398892
_cell_length_c 28.934504
_cell_angle_alpha 90.000000
_cell_angle_beta 90.000000
_cell_angle_gamma 90.000000
_cell_volume 843.383930
_symmetry_space_group_name_H-M "P 42/N"
_symmetry_group_IT_number 86
_space_group.IT_coordinate_system_code '2'
_symmetry_cell_setting 'tetragonal'
loop_
_space_group_symop_operation_xyz
x,y,z
-y,1/2+x,1/2+z
1/2-x,1/2-y,z
1/2+y,-x,1/2+z
-x,-y,-z
y,1/2-x,1/2-z
1/2+x,1/2+y,-z
1/2-y,x,1/2-z
loop_
_atom_site_type_symbol
_atom_site_label
_atom_site_fract_x
_atom_site_fract_y
_atom_site_fract_z
Si Si1 0.250000 0.750000 0.707908
Si Si2 0.250000 0.250000 0.750000
Si Si3 0.499895 0.905576 0.052399
Si Si4 0.000502 0.379424 0.148169
O O1 0.130321 0.531944 0.739390
O O2 0.355421 0.544419 0.670563
O O3 0.250000 0.750000 0.058766
O O4 0.750000 0.750000 0.059394
O O5 0.498773 0.107907 0.092609
O O6 0.500000 0.000000 0.000000
O O7 0.250000 0.250000 0.164503
O O8 0.750000 0.250000 0.162266
#
# Coordination Sequence:
#
# PCOD9545452 Si02
#       4
#     4   2   8   8
#     4  12  30  54  78 120 154 206 266 334 416 496
#     4  12  32  52  88 116 164 208 276 352 420 508
#     4  12  24  43  68 107 155 200 259 315 377 464
#     4  12  26  47  79 111 155 205 257 323 399 475
#
# _framework density 26.085388999999999
#
# number of rings (size 3 to 8) (size 9 to 14) (size 15 to 20)
#    0.000    0.000    1.818    7.636   10.182    0.000 
#    0.000    0.000    0.000    0.000    0.000    0.000 
#    0.000    0.000    0.000    0.000    0.000    0.000 
#
# Total GULP energy -122584.119456 kJ/mol
# GULP energy per Si atom -5572.005430 kJ/mol
# Density = 2.602602 g / cm^3
# Si number density = 26.085389 Si / 1000 Ang^3
#
#
#
# Elastic Constant Matrix: (Units=GPa)
#
#
# Indices 1 2 3 4 5 6 
#
# 1 182.7409 55.0780 10.0903 0.0000 0.0000 4.1328
# 2 55.0780 182.7409 10.0903 0.0000 0.0000 -4.1328
# 3 10.0903 10.0903 100.5190 0.0000 0.0000 0.0000
# 4 0.0000 0.0000 0.0000 41.4772 0.0000 0.0000
# 5 0.0000 0.0000 0.0000 0.0000 41.4772 0.0000
# 6 4.1328 -4.1328 0.0000 0.0000 0.0000 63.9976
#
#
#
# Elastic Compliance Matrix: (Units=1/GPa)
#
#
# Indices 1 2 3 4 5 6 
#
# 1 0.006054 -0.001813 -0.000426 0.000000 0.000000 -0.000508
# 2 -0.001813 0.006054 -0.000426 0.000000 0.000000 0.000508
# 3 -0.000426 -0.000426 0.010034 0.000000 0.000000 0.000000
# 4 0.000000 0.000000 0.000000 0.024110 0.000000 0.000000
# 5 0.000000 0.000000 0.000000 0.000000 0.024110 0.000000
# 6 -0.000508 0.000508 0.000000 0.000000 0.000000 0.015691
#
#
# Mechanical properties :
#
#
# Convention : Reuss Voigt Hill
#
# Bulk Modulus (GPa) = 59.47791 68.50201 63.98996
# Shear Modulus (GPa) = 51.55513 55.43987 53.49750
#
# Velocity S-wave (km/s) = 4.45049 4.61512 4.53356
# Velocity P-wave (km/s) = 7.01854 7.39708 7.21030
#
# Compressibility (1/GPa) = 0.01681296
#
# Stress axis : x y z
#
# Youngs Moduli (GPa) = 165.19332 165.19332 99.66273
#
# Poissons Ratio (x) = 0.29941 0.04243
# Poissons Ratio (y) = 0.29941 0.04243
# Poissons Ratio (z) = 0.07033 0.07033
#
# Static dielectric constant tensor:
#      x y z
#    x 1.606400 0.000000 0.000000 
#    y 0.000000 1.606400 0.000000 
#    z 0.000000 0.000000 2.158420 
# 
# From -- ./inp_files/4963.got.cif
#   From: 2010.05.17/outbox.cif.g08.bks.cpg/sg86_3_cif.got.tgz:4963.got - 2010.06.03 19:03:11.
