data_PCOD9545969
_publ_section_title
;
Structure prediction by ZEFSAII (Michael W. Deem and Ramdas Pophale) SiO2 
 PCOD9545969
Probable space group: I 4/M
;
_chemical_formula_sum "Si O2"
_cell_formula_units_Z 80
_cell_length_a 10.970055
_cell_length_b 10.970055
_cell_length_c 27.929420
_cell_angle_alpha 90.000000
_cell_angle_beta 90.000000
_cell_angle_gamma 90.000000
_cell_volume 3361.085242
_symmetry_space_group_name_H-M "I 4/M"
_symmetry_group_IT_number 87
_symmetry_cell_setting 'tetragonal'
loop_
_space_group_symop_operation_xyz
x,y,z
-y,x,z
-x,-y,z
y,-x,z
-x,-y,-z
y,-x,-z
x,y,-z
-y,x,-z
1/2+x,1/2+y,1/2+z
1/2-y,1/2+x,1/2+z
1/2-x,1/2-y,1/2+z
1/2+y,1/2-x,1/2+z
1/2-x,1/2-y,1/2-z
1/2+y,1/2-x,1/2-z
1/2+x,1/2+y,1/2-z
1/2-y,1/2+x,1/2-z
loop_
_atom_site_type_symbol
_atom_site_label
_atom_site_fract_x
_atom_site_fract_y
_atom_site_fract_z
Si Si1 0.395027 0.327687 0.331615
Si Si2 0.663828 0.838018 0.419944
Si Si3 0.813657 0.441769 0.240651
Si Si4 0.148652 0.141726 0.500000
Si Si5 0.992904 0.795067 0.636723
Si Si6 0.471174 0.293414 0.500000
O O1 0.539519 0.340568 0.338593
O O2 0.344190 0.238427 0.371412
O O3 0.379172 0.278283 0.277776
O O4 0.778783 0.810655 0.454268
O O5 0.686402 0.976334 0.400669
O O6 0.552523 0.793123 0.453764
O O7 0.933775 0.360798 0.234910
O O8 0.757375 0.476386 0.189864
O O9 0.005523 0.164748 0.500000
O O10 0.881915 0.888631 0.631065
O O11 0.598223 0.367819 0.500000
#
# Coordination Sequence:
#
# PCOD9545969 Si02
#       6
#    16  16  16   8  16   8
#     4  11  24  42  67 100 135 186 242 280 338 418
#     4  11  22  40  70 103 136 180 226 293 348 395
#     4  11  24  43  66 102 140 185 226 289 344 406
#     4  10  22  44  72 102 138 180 235 288 351 430
#     4  11  24  42  67 100 135 186 242 280 338 418
#     4  10  22  44  72 102 138 180 235 288 351 430
#
# _framework density 23.801838
#
# number of rings (size 3 to 8) (size 9 to 14) (size 15 to 20)
#    0.000    1.200    2.000    3.600    2.800    6.400 
#    0.000    0.000    4.400    7.200    0.000    0.000 
#    0.000    0.000    0.000    0.000    0.000    0.000 
#
# Total GULP energy -223632.787657 kJ/mol
# GULP energy per Si atom -5590.819691 kJ/mol
# Density = 2.374766 g / cm^3
# Si number density = 23.801838 Si / 1000 Ang^3
#
#
#
# Elastic Constant Matrix: (Units=GPa)
#
#
# Indices 1 2 3 4 5 6 
#
# 1 77.4273 31.5428 38.1751 0.0000 0.0000 -2.0772
# 2 31.5428 77.4273 38.1751 0.0000 0.0000 2.0772
# 3 38.1751 38.1751 159.0070 0.0000 0.0000 0.0000
# 4 0.0000 0.0000 0.0000 33.3996 0.0000 0.0000
# 5 0.0000 0.0000 0.0000 0.0000 33.3996 0.0000
# 6 -2.0772 2.0772 0.0000 0.0000 0.0000 52.3755
#
#
#
# Elastic Compliance Matrix: (Units=1/GPa)
#
#
# Indices 1 2 3 4 5 6 
#
# 1 0.016453 -0.005420 -0.002649 0.000000 0.000000 0.000867
# 2 -0.005420 0.016453 -0.002649 0.000000 0.000000 -0.000867
# 3 -0.002649 -0.002649 0.007561 0.000000 0.000000 0.000000
# 4 0.000000 0.000000 0.000000 0.029940 0.000000 0.000000
# 5 0.000000 0.000000 0.000000 0.000000 0.029940 0.000000
# 6 0.000867 -0.000867 0.000000 0.000000 0.000000 0.019162
#
#
# Mechanical properties :
#
#
# Convention : Reuss Voigt Hill
#
# Bulk Modulus (GPa) = 52.54536 58.84973 55.69755
# Shear Modulus (GPa) = 33.94729 37.56619 35.75674
#
# Velocity S-wave (km/s) = 3.78067 3.97708 3.88012
# Velocity P-wave (km/s) = 6.41732 6.77260 6.59735
#
# Compressibility (1/GPa) = 0.01903117
#
# Stress axis : x y z
#
# Youngs Moduli (GPa) = 60.78089 60.78090 132.25950
#
# Poissons Ratio (x) = 0.32942 0.35033
# Poissons Ratio (y) = 0.32942 0.35033
# Poissons Ratio (z) = 0.16100 0.16100
#
# Static dielectric constant tensor:
#      x y z
#    x 1.905850 0.000000 0.000000 
#    y 0.000000 1.905850 0.000000 
#    z 0.000000 0.000000 1.904740 
# 
# From -- ./inp_files/6549.got.cif
#   From: 2010.05.17/outbox.cif.g08.bks.cpg/sg87_4_cif.got.tgz:6549.got - 2010.06.03 19:07:00.
