data_PCOD9545365
_publ_section_title
;
Structure prediction by ZEFSAII (Michael W. Deem and Ramdas Pophale) SiO2 
 PCOD9545365
Probable space group: P 42/N
;
_chemical_formula_sum "Si O2"
_cell_formula_units_Z 40
_cell_length_a 19.888226
_cell_length_b 19.888226
_cell_length_c 4.941661
_cell_angle_alpha 90.000000
_cell_angle_beta 90.000000
_cell_angle_gamma 90.000000
_cell_volume 1954.632170
_symmetry_space_group_name_H-M "P 42/N"
_symmetry_group_IT_number 86
_space_group.IT_coordinate_system_code '2'
_symmetry_cell_setting 'tetragonal'
loop_
_space_group_symop_operation_xyz
x,y,z
-y,1/2+x,1/2+z
1/2-x,1/2-y,z
1/2+y,-x,1/2+z
-x,-y,-z
y,1/2-x,1/2-z
1/2+x,1/2+y,-z
1/2-y,x,1/2-z
loop_
_atom_site_type_symbol
_atom_site_label
_atom_site_fract_x
_atom_site_fract_y
_atom_site_fract_z
Si Si1 0.816581 0.561765 0.838572
Si Si2 0.858180 0.372368 0.546353
Si Si3 0.647266 0.714685 0.168904
Si Si4 0.912851 0.224658 0.501349
Si Si5 0.993808 0.049275 0.245334
O O1 0.782784 0.614102 0.628337
O O2 0.893425 0.550545 0.751885
O O3 0.815439 0.591540 0.136562
O O4 0.784133 0.487964 0.875855
O O5 0.897980 0.303004 0.529860
O O6 0.822225 0.400606 0.270197
O O7 0.908479 0.426062 0.687340
O O8 0.800452 0.362755 0.768449
O O9 0.669019 0.786697 0.291856
O O10 0.000000 0.000000 0.500000
O O11 0.000000 0.000000 0.000000
#
# Coordination Sequence:
#
# PCOD9545365 Si02
#       5
#     8   8   8   8   8
#     4  11  23  42  64  92 126 163 209 261 315 380
#     4  11  24  42  64  95 130 169 217 268 322 387
#     4  11  24  42  64  92 125 162 209 263 318 380
#     4  11  24  42  65  95 131 169 215 268 322 387
#     4  11  23  41  63  90 125 162 206 257 310 372
#
# _framework density 20.464210999999999
#
# number of rings (size 3 to 8) (size 9 to 14) (size 15 to 20)
#    0.000    1.000    0.000    8.400    0.000    8.800 
#    0.000    4.000    0.000    0.000    0.000    0.000 
#    0.000    0.000    0.000    0.000    0.000    0.000 
#
# Total GULP energy -223104.151990 kJ/mol
# GULP energy per Si atom -5577.603800 kJ/mol
# Density = 2.041763 g / cm^3
# Si number density = 20.464211 Si / 1000 Ang^3
#
#
#
# Elastic Constant Matrix: (Units=GPa)
#
#
# Indices 1 2 3 4 5 6 
#
# 1 78.5006 22.8548 7.3311 0.0000 0.0000 8.3087
# 2 22.8548 78.5006 7.3311 0.0000 0.0000 -8.3087
# 3 7.3311 7.3311 113.9328 0.0000 0.0000 0.0000
# 4 0.0000 0.0000 0.0000 35.0448 0.0000 0.0000
# 5 0.0000 0.0000 0.0000 0.0000 35.0448 0.0000
# 6 8.3087 -8.3087 0.0000 0.0000 0.0000 18.2132
#
#
#
# Elastic Compliance Matrix: (Units=1/GPa)
#
#
# Indices 1 2 3 4 5 6 
#
# 1 0.015382 -0.005423 -0.000641 0.000000 0.000000 -0.009491
# 2 -0.005423 0.015382 -0.000641 0.000000 0.000000 0.009491
# 3 -0.000641 -0.000641 0.008860 0.000000 0.000000 0.000000
# 4 0.000000 0.000000 0.000000 0.028535 0.000000 0.000000
# 5 0.000000 0.000000 0.000000 0.000000 0.028535 0.000000
# 6 -0.009491 0.009491 0.000000 0.000000 0.000000 0.063565
#
#
# Mechanical properties :
#
#
# Convention : Reuss Voigt Hill
#
# Bulk Modulus (GPa) = 38.14721 38.44090 38.29406
# Shear Modulus (GPa) = 27.41145 33.22171 30.31658
#
# Velocity S-wave (km/s) = 3.66386 4.03352 3.85313
# Velocity P-wave (km/s) = 6.04814 6.36535 6.20877
#
# Compressibility (1/GPa) = 0.02621424
#
# Stress axis : x y z
#
# Youngs Moduli (GPa) = 65.01090 65.01090 112.87225
#
# Poissons Ratio (x) = 0.35256 0.07233
# Poissons Ratio (y) = 0.35256 0.07233
# Poissons Ratio (z) = 0.04166 0.04166
#
# Static dielectric constant tensor:
#      x y z
#    x 1.764720 0.000000 0.000000 
#    y 0.000000 1.764720 0.000000 
#    z 0.000000 0.000000 1.729920 
# 
# From -- ./inp_files/313.got.cif
#   From: 2010.05.17/outbox.cif.g08.bks.cpg/sg86_1_cif.got.tgz:313.got - 2010.06.03 19:03:11.
