data_PCOD9545302
_publ_section_title
;
Structure prediction by ZEFSAII (Michael W. Deem and Ramdas Pophale) SiO2 
 PCOD9545302
Probable space group: P 42/N
;
_chemical_formula_sum "Si O2"
_cell_formula_units_Z 48
_cell_length_a 9.179665
_cell_length_b 9.179665
_cell_length_c 25.986427
_cell_angle_alpha 90.000000
_cell_angle_beta 90.000000
_cell_angle_gamma 90.000000
_cell_volume 2189.778742
_symmetry_space_group_name_H-M "P 42/N"
_symmetry_group_IT_number 86
_space_group.IT_coordinate_system_code '2'
_symmetry_cell_setting 'tetragonal'
loop_
_space_group_symop_operation_xyz
x,y,z
-y,1/2+x,1/2+z
1/2-x,1/2-y,z
1/2+y,-x,1/2+z
-x,-y,-z
y,1/2-x,1/2-z
1/2+x,1/2+y,-z
1/2-y,x,1/2-z
loop_
_atom_site_type_symbol
_atom_site_label
_atom_site_fract_x
_atom_site_fract_y
_atom_site_fract_z
Si Si1 0.374775 0.646590 0.171993
Si Si2 0.824548 0.407916 0.216322
Si Si3 0.153672 0.393109 0.058190
Si Si4 0.103386 0.161241 0.318982
Si Si5 0.408433 0.179307 0.626421
Si Si6 0.311812 0.908552 0.967340
O O1 0.250000 0.750000 0.148416
O O2 0.448517 0.708637 0.224138
O O3 0.273547 0.521532 0.196595
O O4 0.504035 0.600240 0.134227
O O5 0.750000 0.250000 0.208157
O O6 0.745463 0.513969 0.176565
O O7 0.997538 0.405854 0.202558
O O8 0.250000 0.250000 0.047008
O O9 0.154172 0.413562 0.119211
O O10 0.984299 0.389887 0.042545
O O11 0.216406 0.520837 0.022880
O O12 0.250000 0.250000 0.307691
O O13 0.250000 0.250000 0.622629
O O14 0.495634 0.234272 0.576596
O O15 0.250000 0.750000 0.964258
#
# Coordination Sequence:
#
# PCOD9545302 Si02
#       6
#     8   8   8   8   8   8
#     4  11  28  43  67 104 142 190 241 292 355 427
#     4  11  25  44  71 102 143 192 242 289 357 428
#     4  10  24  46  71 104 142 175 237 294 357 425
#     4  11  24  43  69 103 142 183 231 298 354 423
#     4  12  26  45  72 101 143 186 240 297 359 423
#     4  11  25  47  75 104 136 188 232 291 361 434
#
# _framework density 21.920021999999999
#
# number of rings (size 3 to 8) (size 9 to 14) (size 15 to 20)
#    0.000    1.000    1.667    3.000   14.000    1.333 
#    3.000    0.000    0.000    0.000    0.000    0.000 
#    0.000    0.000    0.000    0.000    0.000    0.000 
#
# Total GULP energy -268342.402947 kJ/mol
# GULP energy per Si atom -5590.466728 kJ/mol
# Density = 2.187013 g / cm^3
# Si number density = 21.920022 Si / 1000 Ang^3
#
#
#
# Elastic Constant Matrix: (Units=GPa)
#
#
# Indices 1 2 3 4 5 6 
#
# 1 135.2971 46.1934 29.7664 0.0000 0.0000 -10.6821
# 2 46.1934 135.2971 29.7664 0.0000 0.0000 10.6821
# 3 29.7664 29.7664 70.4053 0.0000 0.0000 0.0000
# 4 0.0000 0.0000 0.0000 -96.6863 0.0000 0.0000
# 5 0.0000 0.0000 0.0000 0.0000 -96.6863 0.0000
# 6 -10.6821 10.6821 0.0000 0.0000 0.0000 37.0879
#
#
#
# Elastic Compliance Matrix: (Units=1/GPa)
#
#
# Indices 1 2 3 4 5 6 
#
# 1 0.009226 -0.002829 -0.002705 0.000000 0.000000 0.003472
# 2 -0.002829 0.009226 -0.002705 0.000000 0.000000 -0.003472
# 3 -0.002705 -0.002705 0.016490 0.000000 0.000000 0.000000
# 4 0.000000 0.000000 0.000000 -0.010343 0.000000 0.000000
# 5 0.000000 0.000000 0.000000 0.000000 -0.010343 0.000000
# 6 0.003472 -0.003472 0.000000 0.000000 0.000000 0.028963
#
#
# Mechanical properties :
#
#
# Convention : Reuss Voigt Hill
#
# Bulk Modulus (GPa) = 54.15300 61.38354 57.76827
# Shear Modulus (GPa) = 75.92698 -15.57206 30.17746
#
# Velocity S-wave (km/s) = 5.89181 -2.66823 3.71443
# Velocity P-wave (km/s) = 8.42870 4.30948 6.69382
#
# Compressibility (1/GPa) = 0.01846620
#
# Stress axis : x y z
#
# Youngs Moduli (GPa) = 108.38637 108.38637 60.64125
#
# Poissons Ratio (x) = 0.30664 0.16401
# Poissons Ratio (y) = 0.30664 0.16401
# Poissons Ratio (z) = 0.29314 0.29314
#
# Static dielectric constant tensor:
#      x y z
#    x 2.625480 0.000000 0.000000 
#    y 0.000000 2.625480 0.000000 
#    z 0.000000 0.000000 1.800060 
# 
# From -- ./inp_files/5139.got.cif
#   From: 2010.05.17/outbox.cif.g08.bks.cpg/sg86_3_cif.got.tgz:5139.got - 2010.06.03 19:03:11.
