data_PCOD9545398
_publ_section_title
;
Structure prediction by ZEFSAII (Michael W. Deem and Ramdas Pophale) SiO2 
 PCOD9545398
Probable space group: P 42/N
;
_chemical_formula_sum "Si O2"
_cell_formula_units_Z 26
_cell_length_a 9.909062
_cell_length_b 9.909062
_cell_length_c 10.885651
_cell_angle_alpha 90.000000
_cell_angle_beta 90.000000
_cell_angle_gamma 90.000000
_cell_volume 1068.856735
_symmetry_space_group_name_H-M "P 42/N"
_symmetry_group_IT_number 86
_space_group.IT_coordinate_system_code '2'
_symmetry_cell_setting 'tetragonal'
loop_
_space_group_symop_operation_xyz
x,y,z
-y,1/2+x,1/2+z
1/2-x,1/2-y,z
1/2+y,-x,1/2+z
-x,-y,-z
y,1/2-x,1/2-z
1/2+x,1/2+y,-z
1/2-y,x,1/2-z
loop_
_atom_site_type_symbol
_atom_site_label
_atom_site_fract_x
_atom_site_fract_y
_atom_site_fract_z
Si Si1 0.507938 0.273726 0.088538
Si Si2 0.750000 0.750000 0.750000
Si Si3 0.421246 0.089051 0.629858
Si Si4 0.622538 0.002626 0.098259
O O1 0.377969 0.223784 0.163313
O O2 0.527690 0.428966 0.124944
O O3 0.622916 0.164787 0.119283
O O4 0.482814 0.299580 0.943408
O O5 0.444447 0.232239 0.560768
O O6 0.394067 0.076572 0.773926
O O7 0.500000 0.000000 0.000000
#
# Coordination Sequence:
#
# PCOD9545398 Si02
#       4
#     8   2   8   8
#     4  11  24  44  70 103 144 192 251 310 381 466
#     4  12  20  44  76 102 144 204 252 316 414 468
#     4  11  26  44  69 108 142 191 256 308 378 472
#     4  12  25  45  72 104 148 195 244 322 392 457
#
# _framework density 24.325057000000001
#
# number of rings (size 3 to 8) (size 9 to 14) (size 15 to 20)
#    0.000    0.615    3.077    4.615    0.000    3.077 
#    0.000    6.154    0.000    0.000    0.000    0.000 
#    0.000    0.000    0.000    0.000    0.000    0.000 
#
# Total GULP energy -145025.429826 kJ/mol
# GULP energy per Si atom -5577.901147 kJ/mol
# Density = 2.426969 g / cm^3
# Si number density = 24.325057 Si / 1000 Ang^3
#
#
#
# Elastic Constant Matrix: (Units=GPa)
#
#
# Indices 1 2 3 4 5 6 
#
# 1 90.6871 12.4226 21.3305 0.0000 0.0000 10.9298
# 2 12.4226 90.6871 21.3305 0.0000 0.0000 -10.9298
# 3 21.3305 21.3305 77.5325 0.0000 0.0000 0.0000
# 4 0.0000 0.0000 0.0000 36.2275 0.0000 0.0000
# 5 0.0000 0.0000 0.0000 0.0000 36.2275 0.0000
# 6 10.9298 -10.9298 0.0000 0.0000 0.0000 31.3489
#
#
#
# Elastic Compliance Matrix: (Units=1/GPa)
#
#
# Indices 1 2 3 4 5 6 
#
# 1 0.012550 -0.001606 -0.003011 0.000000 0.000000 -0.004935
# 2 -0.001606 0.012550 -0.003011 0.000000 0.000000 0.004935
# 3 -0.003011 -0.003011 0.014555 0.000000 0.000000 0.000000
# 4 0.000000 0.000000 0.000000 0.027603 0.000000 0.000000
# 5 0.000000 0.000000 0.000000 0.000000 0.027603 0.000000
# 6 -0.004935 0.004935 0.000000 0.000000 0.000000 0.035341
#
#
# Mechanical properties :
#
#
# Convention : Reuss Voigt Hill
#
# Bulk Modulus (GPa) = 40.98503 41.00822 40.99662
# Shear Modulus (GPa) = 32.55426 34.34899 33.45162
#
# Velocity S-wave (km/s) = 3.66225 3.76185 3.71238
# Velocity P-wave (km/s) = 5.89646 5.98027 5.93851
#
# Compressibility (1/GPa) = 0.02439915
#
# Stress axis : x y z
#
# Youngs Moduli (GPa) = 79.68192 79.68192 68.70715
#
# Poissons Ratio (x) = 0.12795 0.20687
# Poissons Ratio (y) = 0.12795 0.20687
# Poissons Ratio (z) = 0.23992 0.23992
#
# Static dielectric constant tensor:
#      x y z
#    x 2.015620 0.000000 0.000000 
#    y 0.000000 2.015620 0.000000 
#    z 0.000000 0.000000 2.008070 
# 
# From -- ./inp_files/787.got.cif
#   From: 2010.05.17/outbox.cif.g08.bks.cpg/sg86_1_cif.got.tgz:787.got - 2010.06.03 19:03:11.
