data_PCOD9545712
_publ_section_title
;
Structure prediction by ZEFSAII (Michael W. Deem and Ramdas Pophale) SiO2 
 PCOD9545712
Probable space group: I 4/M
;
_chemical_formula_sum "Si O2"
_cell_formula_units_Z 76
_cell_length_a 11.288358
_cell_length_b 11.288358
_cell_length_c 27.773365
_cell_angle_alpha 90.000000
_cell_angle_beta 90.000000
_cell_angle_gamma 90.000000
_cell_volume 3539.077313
_symmetry_space_group_name_H-M "I 4/M"
_symmetry_group_IT_number 87
_symmetry_cell_setting 'tetragonal'
loop_
_space_group_symop_operation_xyz
x,y,z
-y,x,z
-x,-y,z
y,-x,z
-x,-y,-z
y,-x,-z
x,y,-z
-y,x,-z
1/2+x,1/2+y,1/2+z
1/2-y,1/2+x,1/2+z
1/2-x,1/2-y,1/2+z
1/2+y,1/2-x,1/2+z
1/2-x,1/2-y,1/2-z
1/2+y,1/2-x,1/2-z
1/2+x,1/2+y,1/2-z
1/2-y,1/2+x,1/2-z
loop_
_atom_site_type_symbol
_atom_site_label
_atom_site_fract_x
_atom_site_fract_y
_atom_site_fract_z
Si Si1 0.610791 0.187324 0.898802
Si Si2 0.559582 0.306119 0.000000
Si Si3 0.242761 0.894093 0.341173
Si Si4 0.000000 0.000000 0.686933
Si Si5 0.167249 0.587496 0.253056
Si Si6 0.807707 0.050125 0.149135
O O1 0.681884 0.298702 0.875492
O O2 0.483482 0.177579 0.872471
O O3 0.699633 0.079971 0.886980
O O4 0.585165 0.227114 0.953126
O O5 0.642293 0.424778 0.000000
O O6 0.141052 0.974699 0.317548
O O7 0.297402 0.836439 0.293494
O O8 0.138448 0.458252 0.230439
O O9 0.255902 0.568652 0.296970
O O10 0.918895 0.139035 0.142550
#
# Coordination Sequence:
#
# PCOD9545712 Si02
#       6
#    16   8  16   4  16  16
#     4  11  21  41  63  96 135 167 207 273 334 395
#     4  11  22  38  72 109 134 160 210 276 353 410
#     4  10  20  34  58  90 130 169 202 255 327 388
#     4   8  20  28  48  81 116 160 200 237 304 368
#     4  11  23  38  59  93 130 175 219 268 322 377
#     4  11  26  43  63  91 131 183 232 264 306 390
#
# _framework density 21.474525
#
# number of rings (size 3 to 8) (size 9 to 14) (size 15 to 20)
#    0.000    1.368    4.211    1.263    5.895    1.684 
#    0.000    1.053    0.000    2.526    0.000    0.000 
#    0.000    0.000    0.000    0.000    0.000    0.000 
#
# Total GULP energy -211696.970308 kJ/mol
# GULP energy per Si atom -5570.972903 kJ/mol
# Density = 2.142565 g / cm^3
# Si number density = 21.474525 Si / 1000 Ang^3
#
#
#
# Elastic Constant Matrix: (Units=GPa)
#
#
# Indices 1 2 3 4 5 6 
#
# 1 71.1546 6.0151 4.2309 0.0000 0.0000 -2.8914
# 2 6.0151 71.1546 4.2309 0.0000 0.0000 2.8914
# 3 4.2309 4.2309 132.8219 0.0000 0.0000 0.0000
# 4 0.0000 0.0000 0.0000 27.9202 0.0000 0.0000
# 5 0.0000 0.0000 0.0000 0.0000 27.9202 0.0000
# 6 -2.8914 2.8914 0.0000 0.0000 0.0000 40.5489
#
#
#
# Elastic Compliance Matrix: (Units=1/GPa)
#
#
# Indices 1 2 3 4 5 6 
#
# 1 0.014227 -0.001223 -0.000414 0.000000 0.000000 0.001102
# 2 -0.001223 0.014227 -0.000414 0.000000 0.000000 -0.001102
# 3 -0.000414 -0.000414 0.007555 0.000000 0.000000 0.000000
# 4 0.000000 0.000000 0.000000 0.035816 0.000000 0.000000
# 5 0.000000 0.000000 0.000000 0.000000 0.035816 0.000000
# 6 0.001102 -0.001102 0.000000 0.000000 0.000000 0.024819
#
#
# Mechanical properties :
#
#
# Convention : Reuss Voigt Hill
#
# Bulk Modulus (GPa) = 31.34195 33.78721 32.56458
# Shear Modulus (GPa) = 33.96786 36.65479 35.31133
#
# Velocity S-wave (km/s) = 3.98147 4.13594 4.05944
# Velocity P-wave (km/s) = 5.98020 6.21094 6.09666
#
# Compressibility (1/GPa) = 0.03190612
#
# Stress axis : x y z
#
# Youngs Moduli (GPa) = 70.29054 70.29054 132.35796
#
# Poissons Ratio (x) = 0.08595 0.05483
# Poissons Ratio (y) = 0.08595 0.05483
# Poissons Ratio (z) = 0.02912 0.02912
#
# Static dielectric constant tensor:
#      x y z
#    x 1.875200 0.000000 0.000000 
#    y 0.000000 1.875200 0.000000 
#    z 0.000000 0.000000 1.763310 
# 
# From -- ./inp_files/6532.got.cif
#   From: 2010.05.17/outbox.cif.g08.bks.cpg/sg87_4_cif.got.tgz:6532.got - 2010.06.03 19:07:00.
