data_PCOD9545674
_publ_section_title
;
Structure prediction by ZEFSAII (Michael W. Deem and Ramdas Pophale) SiO2 
 PCOD9545674
Probable space group: I 4/M
;
_chemical_formula_sum "Si O2"
_cell_formula_units_Z 96
_cell_length_a 24.666087
_cell_length_b 24.666087
_cell_length_c 8.431354
_cell_angle_alpha 90.000000
_cell_angle_beta 90.000000
_cell_angle_gamma 90.000000
_cell_volume 5129.769393
_symmetry_space_group_name_H-M "I 4/M"
_symmetry_group_IT_number 87
_symmetry_cell_setting 'tetragonal'
loop_
_space_group_symop_operation_xyz
x,y,z
-y,x,z
-x,-y,z
y,-x,z
-x,-y,-z
y,-x,-z
x,y,-z
-y,x,-z
1/2+x,1/2+y,1/2+z
1/2-y,1/2+x,1/2+z
1/2-x,1/2-y,1/2+z
1/2+y,1/2-x,1/2+z
1/2-x,1/2-y,1/2-z
1/2+y,1/2-x,1/2-z
1/2+x,1/2+y,1/2-z
1/2-y,1/2+x,1/2-z
loop_
_atom_site_type_symbol
_atom_site_label
_atom_site_fract_x
_atom_site_fract_y
_atom_site_fract_z
Si Si1 0.498809 0.660450 0.816473
Si Si2 0.111917 0.884763 0.316357
Si Si3 0.298279 0.131766 0.806190
Si Si4 0.774319 0.510533 0.317471
Si Si5 0.306689 0.692103 0.681769
Si Si6 0.388478 0.213007 0.811238
O O1 0.557247 0.636800 0.785232
O O2 0.452340 0.616047 0.803236
O O3 0.486239 0.709712 0.702215
O O4 0.497942 0.680770 0.000000
O O5 0.125314 0.869323 0.500000
O O6 0.138039 0.841762 0.199508
O O7 0.250751 0.174042 0.751120
O O8 0.355471 0.158993 0.765101
O O9 0.293746 0.069226 0.749973
O O10 0.293013 0.130477 0.000000
O O11 0.791324 0.509066 0.500000
O O12 0.787097 0.450689 0.247532
O O13 0.290335 0.700355 0.500000
O O14 0.262391 0.651338 0.757449
O O15 0.390845 0.216628 0.000000
#
# Coordination Sequence:
#
# PCOD9545674 Si02
#       6
#    16  16  16  16  16  16
#     4  10  20  34  52  76 107 148 190 229 273 318
#     4  10  20  33  51  76 108 147 190 231 272 320
#     4   9  21  38  57  81 114 147 179 221 275 326
#     4  11  21  37  58  81 108 144 181 221 270 329
#     4  11  20  34  55  82 111 147 183 223 274 323
#     4  11  22  38  57  83 114 145 179 224 274 327
#
# _framework density 18.714290999999999
#
# number of rings (size 3 to 8) (size 9 to 14) (size 15 to 20)
#    0.000    1.667    3.333    2.000    0.000    0.333 
#    0.000    7.500    0.000    0.500    0.000    5.833 
#    0.000    0.000    0.000    0.000    0.000    0.000 
#
# Total GULP energy -267399.104438 kJ/mol
# GULP energy per Si atom -5570.814676 kJ/mol
# Density = 1.867170 g / cm^3
# Si number density = 18.714291 Si / 1000 Ang^3
#
#
#
# Elastic Constant Matrix: (Units=GPa)
#
#
# Indices 1 2 3 4 5 6 
#
# 1 111.9474 45.5196 17.9550 0.0000 0.0000 26.9517
# 2 45.5196 111.9474 17.9550 0.0000 0.0000 -26.9517
# 3 17.9550 17.9550 18.6427 0.0000 0.0000 0.0000
# 4 0.0000 0.0000 0.0000 17.0664 0.0000 0.0000
# 5 0.0000 0.0000 0.0000 0.0000 17.0664 0.0000
# 6 26.9517 -26.9517 0.0000 0.0000 0.0000 68.7452
#
#
#
# Elastic Compliance Matrix: (Units=1/GPa)
#
#
# Indices 1 2 3 4 5 6 
#
# 1 0.015108 -0.006970 -0.007838 0.000000 0.000000 -0.008656
# 2 -0.006970 0.015108 -0.007838 0.000000 0.000000 0.008656
# 3 -0.007838 -0.007838 0.068737 0.000000 0.000000 0.000000
# 4 0.000000 0.000000 0.000000 0.058595 0.000000 0.000000
# 5 0.000000 0.000000 0.000000 0.000000 0.058595 0.000000
# 6 -0.008656 0.008656 0.000000 0.000000 0.000000 0.021333
#
#
# Mechanical properties :
#
#
# Convention : Reuss Voigt Hill
#
# Bulk Modulus (GPa) = 18.63501 45.04406 31.83954
# Shear Modulus (GPa) = 16.63045 31.31613 23.97329
#
# Velocity S-wave (km/s) = 2.98426 4.09514 3.58301
# Velocity P-wave (km/s) = 4.67479 6.81775 5.84531
#
# Compressibility (1/GPa) = 0.05366242
#
# Stress axis : x y z
#
# Youngs Moduli (GPa) = 66.19129 66.19129 14.54812
#
# Poissons Ratio (x) = 0.46134 0.11402
# Poissons Ratio (y) = 0.46134 0.11402
# Poissons Ratio (z) = 0.51879 0.51879
#
# Static dielectric constant tensor:
#      x y z
#    x 1.653500 0.000000 0.000000 
#    y 0.000000 1.653500 0.000000 
#    z 0.000000 0.000000 1.695090 
# 
# From -- ./inp_files/1415.got.cif
#   From: 2010.05.17/outbox.cif.g08.bks.cpg/sg87_1_cif.got.tgz:1415.got - 2010.06.03 19:07:00.
