data_PCOD9545634
_publ_section_title
;
Structure prediction by ZEFSAII (Michael W. Deem and Ramdas Pophale) SiO2 
 PCOD9545634
Probable space group: I 4/M
;
_chemical_formula_sum "Si O2"
_cell_formula_units_Z 112
_cell_length_a 14.991859
_cell_length_b 14.991859
_cell_length_c 23.262981
_cell_angle_alpha 90.000000
_cell_angle_beta 90.000000
_cell_angle_gamma 90.000000
_cell_volume 5228.490749
_symmetry_space_group_name_H-M "I 4/M"
_symmetry_group_IT_number 87
_symmetry_cell_setting 'tetragonal'
loop_
_space_group_symop_operation_xyz
x,y,z
-y,x,z
-x,-y,z
y,-x,z
-x,-y,-z
y,-x,-z
x,y,-z
-y,x,-z
1/2+x,1/2+y,1/2+z
1/2-y,1/2+x,1/2+z
1/2-x,1/2-y,1/2+z
1/2+y,1/2-x,1/2+z
1/2-x,1/2-y,1/2-z
1/2+y,1/2-x,1/2-z
1/2+x,1/2+y,1/2-z
1/2-y,1/2+x,1/2-z
loop_
_atom_site_type_symbol
_atom_site_label
_atom_site_fract_x
_atom_site_fract_y
_atom_site_fract_z
Si Si1 0.799949 0.517684 0.359916
Si Si2 0.892288 0.281856 0.247101
Si Si3 0.768210 0.030487 0.565129
Si Si4 0.014140 0.855011 0.680118
Si Si5 0.929852 0.419187 0.562512
Si Si6 0.152035 0.233137 0.825917
Si Si7 0.306291 0.770947 0.432060
O O1 0.840018 0.565866 0.303929
O O2 0.865201 0.445849 0.387118
O O3 0.720462 0.453347 0.337328
O O4 0.781043 0.592337 0.408021
O O5 0.843388 0.203700 0.209844
O O6 0.820247 0.329515 0.287000
O O7 0.966976 0.235848 0.286361
O O8 0.801082 0.019232 0.500000
O O9 0.833009 0.991419 0.612719
O O10 0.744675 0.134624 0.574751
O O11 0.673689 0.979868 0.570030
O O12 0.094515 0.922569 0.693679
O O13 0.883531 0.416375 0.500000
O O14 0.000000 0.500000 0.560357
O O15 0.201600 0.237110 0.887711
O O16 0.305195 0.748523 0.500000
#
# Coordination Sequence:
#
# PCOD9545634 Si02
#       7
#    16  16  16  16  16  16  16
#     4  11  21  36  59  87 117 152 196 241 299 359
#     4  10  22  41  60  82 120 160 201 252 298 349
#     4  10  21  38  60  85 120 159 197 250 310 364
#     4  11  23  39  61  85 115 161 212 254 299 358
#     4  10  19  35  59  87 119 153 191 236 298 369
#     4  10  22  40  61  90 118 155 203 248 296 366
#     4  10  21  38  62  88 119 155 190 246 309 362
#
# _framework density 21.421097
#
# number of rings (size 3 to 8) (size 9 to 14) (size 15 to 20)
#    0.000    1.714    1.429    3.000    0.000    4.000 
#    2.571    4.286    0.000    3.857    0.000    4.000 
#    0.000    0.000    0.000    0.000    0.000    0.000 
#
# Total GULP energy -312751.220274 kJ/mol
# GULP energy per Si atom -5584.843219 kJ/mol
# Density = 2.137234 g / cm^3
# Si number density = 21.421097 Si / 1000 Ang^3
#
#
#
# Elastic Constant Matrix: (Units=GPa)
#
#
# Indices 1 2 3 4 5 6 
#
# 1 43.6971 6.7042 32.5143 0.0000 0.0000 -9.0965
# 2 6.7042 43.6971 32.5143 0.0000 0.0000 9.0965
# 3 32.5143 32.5143 144.0658 0.0000 0.0000 0.0000
# 4 0.0000 0.0000 0.0000 36.8450 0.0000 0.0000
# 5 0.0000 0.0000 0.0000 0.0000 36.8450 0.0000
# 6 -9.0965 9.0965 0.0000 0.0000 0.0000 12.3974
#
#
#
# Elastic Compliance Matrix: (Units=1/GPa)
#
#
# Indices 1 2 3 4 5 6 
#
# 1 0.035143 -0.007151 -0.006317 0.000000 0.000000 0.031034
# 2 -0.007151 0.035143 -0.006317 0.000000 0.000000 -0.031034
# 3 -0.006317 -0.006317 0.009793 0.000000 0.000000 0.000000
# 4 0.000000 0.000000 0.000000 0.027141 0.000000 0.000000
# 5 0.000000 0.000000 0.000000 0.000000 0.027141 0.000000
# 6 0.031034 -0.031034 0.000000 0.000000 0.000000 0.126204
#
#
# Mechanical properties :
#
#
# Convention : Reuss Voigt Hill
#
# Bulk Modulus (GPa) = 24.68748 41.65841 33.17294
# Shear Modulus (GPa) = 15.94189 27.86595 21.90392
#
# Velocity S-wave (km/s) = 2.73099 3.61066 3.20119
# Velocity P-wave (km/s) = 4.63619 6.07224 5.40215
#
# Compressibility (1/GPa) = 0.04050635
#
# Stress axis : x y z
#
# Youngs Moduli (GPa) = 28.45508 28.45508 102.11516
#
# Poissons Ratio (x) = 0.20349 0.64511
# Poissons Ratio (y) = 0.20349 0.64511
# Poissons Ratio (z) = 0.17976 0.17976
#
# Static dielectric constant tensor:
#      x y z
#    x 1.835000 0.000000 0.000000 
#    y 0.000000 1.835000 0.000000 
#    z 0.000000 0.000000 1.813290 
# 
# From -- ./inp_files/5881.got.cif
#   From: 2010.05.17/outbox.cif.g08.bks.cpg/sg87_3_cif.got.tgz:5881.got - 2010.06.03 19:07:00.
