data_PCOD9545114
_publ_section_title
;
Structure prediction by ZEFSAII (Michael W. Deem and Ramdas Pophale) SiO2 
 PCOD9545114
Probable space group: P 42/N
;
_chemical_formula_sum "Si O2"
_cell_formula_units_Z 38
_cell_length_a 8.235889
_cell_length_b 8.235889
_cell_length_c 24.692469
_cell_angle_alpha 90.000000
_cell_angle_beta 90.000000
_cell_angle_gamma 90.000000
_cell_volume 1674.886903
_symmetry_space_group_name_H-M "P 42/N"
_symmetry_group_IT_number 86
_space_group.IT_coordinate_system_code '2'
_symmetry_cell_setting 'tetragonal'
loop_
_space_group_symop_operation_xyz
x,y,z
-y,1/2+x,1/2+z
1/2-x,1/2-y,z
1/2+y,-x,1/2+z
-x,-y,-z
y,1/2-x,1/2-z
1/2+x,1/2+y,-z
1/2-y,x,1/2-z
loop_
_atom_site_type_symbol
_atom_site_label
_atom_site_fract_x
_atom_site_fract_y
_atom_site_fract_z
Si Si1 0.434842 0.297651 0.552749
Si Si2 0.438775 0.287066 0.673714
Si Si3 0.250000 0.250000 0.250000
Si Si4 0.750000 0.250000 0.749900
Si Si5 0.188798 0.571670 0.059377
Si Si6 0.157146 0.483604 0.171580
O O1 0.250000 0.250000 0.543764
O O2 0.480464 0.229667 0.612111
O O3 0.440840 0.493769 0.554306
O O4 0.530672 0.240608 0.499597
O O5 0.250000 0.250000 0.687198
O O6 0.584705 0.234901 0.713949
O O7 0.436622 0.481675 0.668830
O O8 0.127219 0.323783 0.206855
O O9 0.732870 0.401357 0.791219
O O10 0.250000 0.750000 0.074603
O O11 0.228358 0.462084 0.111776
#
# Coordination Sequence:
#
# PCOD9545114 Si02
#       6
#     8   8   2   4   8   8
#     4   9  21  42  62  93 125 165 216 269 333 398
#     4  10  24  43  67  96 136 175 226 286 338 414
#     4  12  24  44  60  92 136 172 228 272 330 440
#     4  12  24  40  66  96 126 180 224 268 352 410
#     4  10  21  40  65  89 128 163 211 272 333 402
#     4  11  24  42  62  94 129 175 221 276 342 408
#
# _framework density 22.688098
#
# number of rings (size 3 to 8) (size 9 to 14) (size 15 to 20)
#    0.000    1.684    3.158    0.000    5.895    0.842 
#    3.789    0.000    0.000    0.000    0.000    0.000 
#    0.000    0.000    0.000    0.000    0.000    0.000 
#
# Total GULP energy -211783.381474 kJ/mol
# GULP energy per Si atom -5573.246881 kJ/mol
# Density = 2.263646 g / cm^3
# Si number density = 22.688098 Si / 1000 Ang^3
#
#
#
# Elastic Constant Matrix: (Units=GPa)
#
#
# Indices 1 2 3 4 5 6 
#
# 1 30.9851 -0.0678 37.4308 0.0000 0.0000 3.0562
# 2 -0.0678 30.9851 37.4308 0.0000 0.0000 -3.0562
# 3 37.4308 37.4308 196.7332 0.0000 0.0000 0.0000
# 4 0.0000 0.0000 0.0000 13.6596 0.0000 0.0000
# 5 0.0000 0.0000 0.0000 0.0000 13.6596 0.0000
# 6 3.0562 -3.0562 0.0000 0.0000 0.0000 30.2218
#
#
#
# Elastic Compliance Matrix: (Units=1/GPa)
#
#
# Indices 1 2 3 4 5 6 
#
# 1 0.046415 0.013558 -0.011411 0.000000 0.000000 -0.003323
# 2 0.013558 0.046415 -0.011411 0.000000 0.000000 0.003323
# 3 -0.011411 -0.011411 0.009425 0.000000 0.000000 0.000000
# 4 0.000000 0.000000 0.000000 0.073209 0.000000 0.000000
# 5 0.000000 0.000000 0.000000 0.000000 0.073209 0.000000
# 6 -0.003323 0.003323 0.000000 0.000000 0.000000 0.033761
#
#
# Mechanical properties :
#
#
# Convention : Reuss Voigt Hill
#
# Bulk Modulus (GPa) = 11.94322 45.36565 28.65443
# Shear Modulus (GPa) = 15.20359 23.76883 19.48621
#
# Velocity S-wave (km/s) = 2.59146 3.24023 2.93383
# Velocity P-wave (km/s) = 3.77223 5.83417 4.91260
#
# Compressibility (1/GPa) = 0.08372952
#
# Stress axis : x y z
#
# Youngs Moduli (GPa) = 21.54460 21.54460 106.10022
#
# Poissons Ratio (x) = -0.29211 1.21067
# Poissons Ratio (y) = -0.29211 1.21067
# Poissons Ratio (z) = 0.24584 0.24584
#
# Static dielectric constant tensor:
#      x y z
#    x 1.945000 0.000000 0.000000 
#    y 0.000000 1.945000 0.000000 
#    z 0.000000 0.000000 1.911120 
# 
# From -- ./inp_files/4532.got.cif
#   From: 2010.05.17/outbox.cif.g08.bks.cpg/sg86_3_cif.got.tgz:4532.got - 2010.06.03 19:03:11.
