data_PCOD9545997
_publ_section_title
;
Structure prediction by ZEFSAII (Michael W. Deem and Ramdas Pophale) SiO2 
 PCOD9545997
Probable space group: I 4/M
;
_chemical_formula_sum "Si O2"
_cell_formula_units_Z 112
_cell_length_a 14.620747
_cell_length_b 14.620747
_cell_length_c 27.812850
_cell_angle_alpha 90.000000
_cell_angle_beta 90.000000
_cell_angle_gamma 90.000000
_cell_volume 5945.448447
_symmetry_space_group_name_H-M "I 4/M"
_symmetry_group_IT_number 87
_symmetry_cell_setting 'tetragonal'
loop_
_space_group_symop_operation_xyz
x,y,z
-y,x,z
-x,-y,z
y,-x,z
-x,-y,-z
y,-x,-z
x,y,-z
-y,x,-z
1/2+x,1/2+y,1/2+z
1/2-y,1/2+x,1/2+z
1/2-x,1/2-y,1/2+z
1/2+y,1/2-x,1/2+z
1/2-x,1/2-y,1/2-z
1/2+y,1/2-x,1/2-z
1/2+x,1/2+y,1/2-z
1/2-y,1/2+x,1/2-z
loop_
_atom_site_type_symbol
_atom_site_label
_atom_site_fract_x
_atom_site_fract_y
_atom_site_fract_z
Si Si1 0.827270 0.817320 0.899864
Si Si2 0.959434 0.600688 0.946734
Si Si3 0.484456 0.652264 0.841159
Si Si4 0.759234 0.506363 0.637675
Si Si5 0.742189 0.880865 0.583881
Si Si6 0.121163 0.094454 0.500000
Si Si7 0.397613 0.617225 0.500000
Si Si8 0.999510 0.154811 0.229054
O O1 0.931901 0.812417 0.882525
O O2 0.781800 0.718206 0.894354
O O3 0.834913 0.852065 0.954247
O O4 0.771099 0.891117 0.871195
O O5 0.988935 0.655729 0.898554
O O6 0.850028 0.593963 0.944070
O O7 0.000000 0.500000 0.945043
O O8 0.983527 0.641706 0.000000
O O9 0.403425 0.577881 0.849773
O O10 0.457394 0.733118 0.876791
O O11 0.490696 0.679378 0.785312
O O12 0.743858 0.494271 0.694963
O O13 0.825414 0.872442 0.546879
O O14 0.015970 0.123466 0.500000
O O15 0.375806 0.508077 0.500000
O O16 0.087757 0.088473 0.220723
#
# Coordination Sequence:
#
# PCOD9545997 Si02
#       8
#    16  16  16  16  16   8   8  16
#     4  11  23  33  53  85 121 158 193 238 290 351
#     4  10  24  44  60  78 114 169 211 236 277 351
#     4   9  19  37  64  90 116 149 192 251 314 363
#     4  11  21  35  59  86 121 150 195 246 293 354
#     4  11  22  39  58  84 118 153 199 246 289 355
#     4  11  23  38  61  90 115 139 184 261 329 355
#     4  11  21  32  50  80 119 161 191 233 301 358
#     4   9  17  33  60  93 122 151 181 231 311 372
#
# _framework density 18.837938000000001
#
# number of rings (size 3 to 8) (size 9 to 14) (size 15 to 20)
#    0.000    1.714    3.571    2.143    4.000    3.714 
#    0.000    0.714    6.286    0.000    0.000    0.000 
#    0.000    0.000    0.000    0.000    0.000    0.000 
#
# Total GULP energy -312017.006729 kJ/mol
# GULP energy per Si atom -5571.732263 kJ/mol
# Density = 1.879506 g / cm^3
# Si number density = 18.837938 Si / 1000 Ang^3
#
#
#
# Elastic Constant Matrix: (Units=GPa)
#
#
# Indices 1 2 3 4 5 6 
#
# 1 42.1943 13.9500 11.2543 0.0000 0.0000 8.9747
# 2 13.9500 42.1943 11.2543 0.0000 0.0000 -8.9747
# 3 11.2543 11.2543 91.0192 0.0000 0.0000 0.0000
# 4 0.0000 0.0000 0.0000 329.8362 0.0000 0.0000
# 5 0.0000 0.0000 0.0000 0.0000 329.8362 0.0000
# 6 8.9747 -8.9747 0.0000 0.0000 0.0000 23.1903
#
#
#
# Elastic Compliance Matrix: (Units=1/GPa)
#
#
# Indices 1 2 3 4 5 6 
#
# 1 0.032847 -0.014106 -0.002317 0.000000 0.000000 -0.018171
# 2 -0.014106 0.032847 -0.002317 0.000000 0.000000 0.018171
# 3 -0.002317 -0.002317 0.011560 0.000000 0.000000 0.000000
# 4 0.000000 0.000000 0.000000 0.003032 0.000000 0.000000
# 5 0.000000 0.000000 0.000000 0.000000 0.003032 0.000000
# 6 -0.018171 0.018171 0.000000 0.000000 0.000000 0.057186
#
#
# Mechanical properties :
#
#
# Convention : Reuss Voigt Hill
#
# Bulk Modulus (GPa) = 25.14369 27.59169 26.36769
# Shear Modulus (GPa) = 26.14506 145.83581 85.99043
#
# Velocity S-wave (km/s) = 3.72949 8.80818 6.76362
# Velocity P-wave (km/s) = 5.64994 10.86849 8.66158
#
# Compressibility (1/GPa) = 0.03977141
#
# Stress axis : x y z
#
# Youngs Moduli (GPa) = 30.44462 30.44462 86.50720
#
# Poissons Ratio (x) = 0.42946 0.20045
# Poissons Ratio (y) = 0.42946 0.20045
# Poissons Ratio (z) = 0.07055 0.07055
#
# Static dielectric constant tensor:
#      x y z
#    x 1.649170 0.000000 0.000000 
#    y 0.000000 1.649170 0.000000 
#    z 0.000000 0.000000 1.693890 
# 
# From -- ./inp_files/6324.got.cif
#   From: 2010.05.17/outbox.cif.g08.bks.cpg/sg87_4_cif.got.tgz:6324.got - 2010.06.03 19:07:00.
