data_PCOD9545826
_publ_section_title
;
Structure prediction by ZEFSAII (Michael W. Deem and Ramdas Pophale) SiO2 
 PCOD9545826
Probable space group: I 4/M
;
_chemical_formula_sum "Si O2"
_cell_formula_units_Z 120
_cell_length_a 28.676672
_cell_length_b 28.676672
_cell_length_c 8.088177
_cell_angle_alpha 90.000000
_cell_angle_beta 90.000000
_cell_angle_gamma 90.000000
_cell_volume 6651.324626
_symmetry_space_group_name_H-M "I 4/M"
_symmetry_group_IT_number 87
_symmetry_cell_setting 'tetragonal'
loop_
_space_group_symop_operation_xyz
x,y,z
-y,x,z
-x,-y,z
y,-x,z
-x,-y,-z
y,-x,-z
x,y,-z
-y,x,-z
1/2+x,1/2+y,1/2+z
1/2-y,1/2+x,1/2+z
1/2-x,1/2-y,1/2+z
1/2+y,1/2-x,1/2+z
1/2-x,1/2-y,1/2-z
1/2+y,1/2-x,1/2-z
1/2+x,1/2+y,1/2-z
1/2-y,1/2+x,1/2-z
loop_
_atom_site_type_symbol
_atom_site_label
_atom_site_fract_x
_atom_site_fract_y
_atom_site_fract_z
Si Si1 0.177280 0.811764 0.695369
Si Si2 0.293119 0.154348 0.301516
Si Si3 0.465128 0.429401 0.000000
Si Si4 0.256211 0.537012 0.692576
Si Si5 0.731616 0.136585 0.304762
Si Si6 0.977022 0.864877 0.199138
Si Si7 0.082023 0.843034 0.186651
Si Si8 0.940602 0.257370 0.308895
O O1 0.183690 0.806712 0.500000
O O2 0.169465 0.758895 0.757678
O O3 0.223669 0.835172 0.764694
O O4 0.131399 0.843495 0.721419
O O5 0.295502 0.160727 0.500000
O O6 0.332692 0.185969 0.224066
O O7 0.294933 0.098878 0.267716
O O8 0.520531 0.440596 0.000000
O O9 0.454735 0.400009 0.832212
O O10 0.254649 0.525422 0.500000
O O11 0.232222 0.586015 0.724576
O O12 0.311604 0.538814 0.736262
O O13 0.231824 0.494597 0.788106
O O14 0.738543 0.129742 0.500000
O O15 0.033047 0.866510 0.233284
O O16 0.970158 0.873726 0.000000
O O17 0.068439 0.788292 0.199379
O O18 0.092135 0.857157 0.000000
O O19 0.931730 0.243086 0.500000
#
# Coordination Sequence:
#
# PCOD9545826 Si02
#       8
#    16  16   8  16  16  16  16  16
#     4   9  19  32  46  69 102 142 180 211 248 300
#     4   9  18  33  50  70 101 140 176 210 250 302
#     4  11  26  42  58  78  96 128 170 216 284 345
#     4  10  21  36  54  78 104 132 168 215 270 312
#     4  11  22  32  47  74 107 140 172 210 256 306
#     4   9  21  39  59  80 102 130 169 221 277 334
#     4   9  17  29  49  76  97 124 167 210 254 306
#     4   9  17  31  53  74  96 130 171 211 249 296
#
# _framework density 18.041519000000001
#
# number of rings (size 3 to 8) (size 9 to 14) (size 15 to 20)
#    0.000    2.467    0.000    3.600    5.600    5.333 
#    0.000    3.333    0.000    0.000    0.000    0.000 
#    0.000    0.533    0.000    5.600    0.000    2.400 
#
# Total GULP energy -334543.276993 kJ/mol
# GULP energy per Si atom -5575.721283 kJ/mol
# Density = 1.800046 g / cm^3
# Si number density = 18.041519 Si / 1000 Ang^3
#
#
#
# Elastic Constant Matrix: (Units=GPa)
#
#
# Indices 1 2 3 4 5 6 
#
# 1 73.8976 34.3481 11.6468 0.0000 0.0000 3.5419
# 2 34.3481 73.8976 11.6468 0.0000 0.0000 -3.5419
# 3 11.6468 11.6468 32.7575 0.0000 0.0000 0.0000
# 4 0.0000 0.0000 0.0000 9.8377 0.0000 0.0000
# 5 0.0000 0.0000 0.0000 0.0000 9.8377 0.0000
# 6 3.5419 -3.5419 0.0000 0.0000 0.0000 21.6012
#
#
#
# Elastic Compliance Matrix: (Units=1/GPa)
#
#
# Indices 1 2 3 4 5 6 
#
# 1 0.018027 -0.008023 -0.003557 0.000000 0.000000 -0.004271
# 2 -0.008023 0.018027 -0.003557 0.000000 0.000000 0.004271
# 3 -0.003557 -0.003557 0.033057 0.000000 0.000000 0.000000
# 4 0.000000 0.000000 0.000000 0.101650 0.000000 0.000000
# 5 0.000000 0.000000 0.000000 0.000000 0.101650 0.000000
# 6 -0.004271 0.004271 0.000000 0.000000 0.000000 0.047694
#
#
# Mechanical properties :
#
#
# Convention : Reuss Voigt Hill
#
# Bulk Modulus (GPa) = 25.74874 32.87064 29.30969
# Shear Modulus (GPa) = 13.76186 16.44939 15.10562
#
# Velocity S-wave (km/s) = 2.76486 3.02280 2.89670
# Velocity P-wave (km/s) = 4.94929 5.51743 5.24107
#
# Compressibility (1/GPa) = 0.03883685
#
# Stress axis : x y z
#
# Youngs Moduli (GPa) = 55.47321 55.47321 30.25119
#
# Poissons Ratio (x) = 0.44507 0.10760
# Poissons Ratio (y) = 0.44507 0.10760
# Poissons Ratio (z) = 0.19730 0.19730
#
# Static dielectric constant tensor:
#      x y z
#    x 1.625920 0.000000 0.000000 
#    y 0.000000 1.625920 0.000000 
#    z 0.000000 0.000000 1.640930 
# 
# From -- ./inp_files/1658.got.cif
#   From: 2010.05.17/outbox.cif.g08.bks.cpg/sg87_1_cif.got.tgz:1658.got - 2010.06.03 19:07:00.
