data_PCOD9545367
_publ_section_title
;
Structure prediction by ZEFSAII (Michael W. Deem and Ramdas Pophale) SiO2 
 PCOD9545367
Probable space group: P 42/N
;
_chemical_formula_sum "Si O2"
_cell_formula_units_Z 58
_cell_length_a 16.928866
_cell_length_b 16.928866
_cell_length_c 9.122256
_cell_angle_alpha 90.000000
_cell_angle_beta 90.000000
_cell_angle_gamma 90.000000
_cell_volume 2614.315456
_symmetry_space_group_name_H-M "P 42/N"
_symmetry_group_IT_number 86
_space_group.IT_coordinate_system_code '2'
_symmetry_cell_setting 'tetragonal'
loop_
_space_group_symop_operation_xyz
x,y,z
-y,1/2+x,1/2+z
1/2-x,1/2-y,z
1/2+y,-x,1/2+z
-x,-y,-z
y,1/2-x,1/2-z
1/2+x,1/2+y,-z
1/2-y,x,1/2-z
loop_
_atom_site_type_symbol
_atom_site_label
_atom_site_fract_x
_atom_site_fract_y
_atom_site_fract_z
Si Si1 0.861755 0.127353 0.726880
Si Si2 0.613339 0.488089 0.501002
Si Si3 0.503313 0.784514 0.456961
Si Si4 0.750000 0.750000 0.750000
Si Si5 0.379740 0.023145 0.118173
Si Si6 0.504824 0.722461 0.142408
Si Si7 0.344291 0.752166 0.522511
Si Si8 0.142783 0.381718 0.412231
O O1 0.885785 0.041609 0.670002
O O2 0.778534 0.138502 0.809389
O O3 0.861421 0.174466 0.573459
O O4 0.930641 0.165434 0.824821
O O5 0.588340 0.579455 0.511840
O O6 0.550175 0.439791 0.403920
O O7 0.700410 0.475967 0.442639
O O8 0.503857 0.707406 0.561151
O O9 0.532478 0.754973 0.299749
O O10 0.410606 0.809294 0.445928
O O11 0.560890 0.847058 0.527854
O O12 0.689120 0.697755 0.847735
O O13 0.371511 0.057234 0.279950
O O14 0.572265 0.683377 0.045819
O O15 0.250000 0.750000 0.513695
#
# Coordination Sequence:
#
# PCOD9545367 Si02
#       8
#     8   8   8   2   8   8   8   8
#     4  11  24  43  68 106 141 189 235 304 355 449
#     4  11  24  44  73  98 149 190 239 297 376 433
#     4  11  26  48  68 108 151 181 249 308 364 449
#     4  12  24  44  70 112 148 200 246 300 372 452
#     4  11  24  46  73 100 139 193 237 301 359 436
#     4  11  27  43  72 110 142 191 238 305 376 430
#     4  11  23  42  69  98 147 186 238 299 368 432
#     4  12  26  44  78 106 149 195 252 304 370 450
#
# _framework density 22.185541000000001
#
# number of rings (size 3 to 8) (size 9 to 14) (size 15 to 20)
#    0.000    0.828    4.138    2.897    3.862    3.310 
#    0.000    2.069    0.000    0.000    0.000    0.000 
#    0.000    0.000    0.000    0.000    0.000    0.000 
#
# Total GULP energy -323560.315593 kJ/mol
# GULP energy per Si atom -5578.626131 kJ/mol
# Density = 2.213505 g / cm^3
# Si number density = 22.185541 Si / 1000 Ang^3
#
#
#
# Elastic Constant Matrix: (Units=GPa)
#
#
# Indices 1 2 3 4 5 6 
#
# 1 87.3016 49.8161 49.0813 0.0000 0.0000 3.7918
# 2 49.8161 87.3016 49.0813 0.0000 0.0000 -3.7918
# 3 49.0813 49.0813 113.9216 0.0000 0.0000 0.0000
# 4 0.0000 0.0000 0.0000 43.0622 0.0000 0.0000
# 5 0.0000 0.0000 0.0000 0.0000 43.0622 0.0000
# 6 3.7918 -3.7918 0.0000 0.0000 0.0000 30.7900
#
#
#
# Elastic Compliance Matrix: (Units=1/GPa)
#
#
# Indices 1 2 3 4 5 6 
#
# 1 0.018952 -0.008406 -0.004543 0.000000 0.000000 -0.003369
# 2 -0.008406 0.018952 -0.004543 0.000000 0.000000 0.003369
# 3 -0.004543 -0.004543 0.012693 0.000000 0.000000 0.000000
# 4 0.000000 0.000000 0.000000 0.023222 0.000000 0.000000
# 5 0.000000 0.000000 0.000000 0.000000 0.023222 0.000000
# 6 -0.003369 0.003369 0.000000 0.000000 0.000000 0.033308
#
#
# Mechanical properties :
#
#
# Convention : Reuss Voigt Hill
#
# Bulk Modulus (GPa) = 64.05949 64.94245 64.50097
# Shear Modulus (GPa) = 29.31869 32.75262 31.03565
#
# Velocity S-wave (km/s) = 3.63922 3.84644 3.74426
# Velocity P-wave (km/s) = 6.82610 7.00448 6.91587
#
# Compressibility (1/GPa) = 0.01561049
#
# Stress axis : x y z
#
# Youngs Moduli (GPa) = 52.76450 52.76450 78.78435
#
# Poissons Ratio (x) = 0.44356 0.35795
# Poissons Ratio (y) = 0.44356 0.35795
# Poissons Ratio (z) = 0.23973 0.23973
#
# Static dielectric constant tensor:
#      x y z
#    x 1.876110 0.000000 0.000000 
#    y 0.000000 1.876110 0.000000 
#    z 0.000000 0.000000 1.818840 
# 
# From -- ./inp_files/1470.got.cif
#   From: 2010.05.17/outbox.cif.g08.bks.cpg/sg86_1_cif.got.tgz:1470.got - 2010.06.03 19:03:11.
