data_PCOD9545520
_publ_section_title
;
Structure prediction by ZEFSAII (Michael W. Deem and Ramdas Pophale) SiO2 
 PCOD9545520
Probable space group: I 4/M
;
_chemical_formula_sum "Si O2"
_cell_formula_units_Z 72
_cell_length_a 19.382021
_cell_length_b 19.382021
_cell_length_c 8.765228
_cell_angle_alpha 90.000000
_cell_angle_beta 90.000000
_cell_angle_gamma 90.000000
_cell_volume 3292.769550
_symmetry_space_group_name_H-M "I 4/M"
_symmetry_group_IT_number 87
_symmetry_cell_setting 'tetragonal'
loop_
_space_group_symop_operation_xyz
x,y,z
-y,x,z
-x,-y,z
y,-x,z
-x,-y,-z
y,-x,-z
x,y,-z
-y,x,-z
1/2+x,1/2+y,1/2+z
1/2-y,1/2+x,1/2+z
1/2-x,1/2-y,1/2+z
1/2+y,1/2-x,1/2+z
1/2-x,1/2-y,1/2-z
1/2+y,1/2-x,1/2-z
1/2+x,1/2+y,1/2-z
1/2-y,1/2+x,1/2-z
loop_
_atom_site_type_symbol
_atom_site_label
_atom_site_fract_x
_atom_site_fract_y
_atom_site_fract_z
Si Si1 0.396673 0.804304 0.331339
Si Si2 0.725506 0.383078 0.000000
Si Si3 0.078638 0.833210 0.500000
Si Si4 0.678874 0.856710 0.500000
Si Si5 0.233071 0.211386 0.000000
Si Si6 0.790175 0.020641 0.247776
Si Si7 0.606237 0.453225 0.500000
O O1 0.391947 0.840094 0.500000
O O2 0.381466 0.843625 0.171673
O O3 0.339357 0.742140 0.354314
O O4 0.470085 0.766009 0.325465
O O5 0.642331 0.383983 0.000000
O O6 0.748658 0.305579 0.000000
O O7 0.748573 0.424692 0.852940
O O8 0.110051 0.755806 0.500000
O O9 0.029972 0.835778 0.353798
O O10 0.678729 0.773035 0.500000
O O11 0.843495 0.059495 0.140765
O O12 0.587746 0.535038 0.500000
#
# Coordination Sequence:
#
# PCOD9545520 Si02
#       7
#    16   8   8   8   8  16   8
#     4   9  18  30  50  69  98 127 158 193 244 306
#     4  10  19  32  52  68  92 126 161 205 238 287
#     4   8  17  29  47  67  88 123 166 200 233 286
#     4   9  15  28  47  72  94 130 154 186 244 302
#     4   9  18  31  46  73 101 116 157 205 241 288
#     4  10  18  33  47  65  93 130 165 195 253 294
#     4  11  21  30  42  62  91 126 174 223 244 262
#
# _framework density 21.866091999999998
#
# number of rings (size 3 to 8) (size 9 to 14) (size 15 to 20)
#    0.667    1.889    1.111    2.667    0.000    0.000 
#    0.000    1.111    0.000    5.333    0.000    0.000 
#    0.000    2.667    0.000    0.000    0.000    0.000 
#
# Total GULP energy -200484.336410 kJ/mol
# GULP energy per Si atom -5569.009345 kJ/mol
# Density = 2.181632 g / cm^3
# Si number density = 21.866092 Si / 1000 Ang^3
#
#
#
# Elastic Constant Matrix: (Units=GPa)
#
#
# Indices 1 2 3 4 5 6 
#
# 1 35.8701 7.1987 13.4461 0.0000 0.0000 -9.5612
# 2 7.1987 35.8701 13.4461 0.0000 0.0000 9.5612
# 3 13.4461 13.4461 155.0553 0.0000 0.0000 0.0000
# 4 0.0000 0.0000 0.0000 -73.7974 0.0000 0.0000
# 5 0.0000 0.0000 0.0000 0.0000 -73.7974 0.0000
# 6 -9.5612 9.5612 0.0000 0.0000 0.0000 16.3704
#
#
#
# Elastic Compliance Matrix: (Units=1/GPa)
#
#
# Indices 1 2 3 4 5 6 
#
# 1 0.040841 -0.016293 -0.002129 0.000000 0.000000 0.033369
# 2 -0.016293 0.040841 -0.002129 0.000000 0.000000 -0.033369
# 3 -0.002129 -0.002129 0.006819 0.000000 0.000000 0.000000
# 4 0.000000 0.000000 0.000000 -0.013551 0.000000 0.000000
# 5 0.000000 0.000000 0.000000 0.000000 -0.013551 0.000000
# 6 0.033369 -0.033369 0.000000 0.000000 0.000000 0.100065
#
#
# Mechanical properties :
#
#
# Convention : Reuss Voigt Hill
#
# Bulk Modulus (GPa) = 21.09739 32.77526 26.93633
# Shear Modulus (GPa) = 22.89748 -13.39790 4.74979
#
# Velocity S-wave (km/s) = 3.23951 -2.47801 1.47544
# Velocity P-wave (km/s) = 4.86436 2.61423 3.90488
#
# Compressibility (1/GPa) = 0.04739922
#
# Stress axis : x y z
#
# Youngs Moduli (GPa) = 24.48528 24.48528 146.65960
#
# Poissons Ratio (x) = 0.39894 0.31220
# Poissons Ratio (y) = 0.39894 0.31220
# Poissons Ratio (z) = 0.05212 0.05212
#
# Static dielectric constant tensor:
#      x y z
#    x 1.777150 0.000000 0.000000 
#    y 0.000000 1.777150 0.000000 
#    z 0.000000 0.000000 2.012550 
# 
# From -- ./inp_files/1249.got.cif
#   From: 2010.05.17/outbox.cif.g08.bks.cpg/sg87_1_cif.got.tgz:1249.got - 2010.06.03 19:07:00.
