data_PCOD9545641
_publ_section_title
;
Structure prediction by ZEFSAII (Michael W. Deem and Ramdas Pophale) SiO2 
 PCOD9545641
Probable space group: I 4/M
;
_chemical_formula_sum "Si O2"
_cell_formula_units_Z 80
_cell_length_a 16.624354
_cell_length_b 16.624354
_cell_length_c 13.149722
_cell_angle_alpha 90.000000
_cell_angle_beta 90.000000
_cell_angle_gamma 90.000000
_cell_volume 3634.177438
_symmetry_space_group_name_H-M "I 4/M"
_symmetry_group_IT_number 87
_symmetry_cell_setting 'tetragonal'
loop_
_space_group_symop_operation_xyz
x,y,z
-y,x,z
-x,-y,z
y,-x,z
-x,-y,-z
y,-x,-z
x,y,-z
-y,x,-z
1/2+x,1/2+y,1/2+z
1/2-y,1/2+x,1/2+z
1/2-x,1/2-y,1/2+z
1/2+y,1/2-x,1/2+z
1/2-x,1/2-y,1/2-z
1/2+y,1/2-x,1/2-z
1/2+x,1/2+y,1/2-z
1/2-y,1/2+x,1/2-z
loop_
_atom_site_type_symbol
_atom_site_label
_atom_site_fract_x
_atom_site_fract_y
_atom_site_fract_z
Si Si1 0.238251 0.379537 0.807001
Si Si2 0.716638 0.293388 0.382333
Si Si3 0.064575 0.572106 0.883387
Si Si4 0.671719 0.074019 0.194150
Si Si5 0.016956 0.870642 0.378208
O O1 0.254372 0.348077 0.692734
O O2 0.260170 0.298639 0.871456
O O3 0.146097 0.388908 0.841246
O O4 0.288534 0.458223 0.827043
O O5 0.694156 0.300179 0.500000
O O6 0.745643 0.380255 0.335198
O O7 0.008882 0.650469 0.859588
O O8 0.000000 0.500000 0.864744
O O9 0.141055 0.568443 0.809784
O O10 0.088816 0.571170 0.000000
O O11 0.017553 0.861798 0.500000
O O12 0.933830 0.912576 0.350200
#
# Coordination Sequence:
#
# PCOD9545641 Si02
#       5
#    16  16  16  16  16
#     4   9  20  34  56  81 105 141 181 225 272 335
#     4   9  19  36  54  77 110 139 174 232 279 315
#     4  11  21  35  53  75 114 154 186 230 270 320
#     4  10  19  36  51  77 107 147 188 225 266 327
#     4   9  18  34  55  81 111 139 174 226 281 328
#
# _framework density 22.013235999999999
#
# number of rings (size 3 to 8) (size 9 to 14) (size 15 to 20)
#    1.200    1.200    2.000    1.800    0.000    2.400 
#    0.000    0.000    0.000    1.200    0.000    1.400 
#    0.000    0.000    0.000    0.000    0.000    0.000 
#
# Total GULP energy -222784.917433 kJ/mol
# GULP energy per Si atom -5569.622936 kJ/mol
# Density = 2.196313 g / cm^3
# Si number density = 22.013236 Si / 1000 Ang^3
#
#
#
# Elastic Constant Matrix: (Units=GPa)
#
#
# Indices 1 2 3 4 5 6 
#
# 1 68.9192 19.1299 9.8376 0.0000 0.0000 7.6889
# 2 19.1299 68.9192 9.8376 0.0000 0.0000 -7.6889
# 3 9.8376 9.8376 96.9659 0.0000 0.0000 0.0000
# 4 0.0000 0.0000 0.0000 11.6128 0.0000 0.0000
# 5 0.0000 0.0000 0.0000 0.0000 11.6128 0.0000
# 6 7.6889 -7.6889 0.0000 0.0000 0.0000 26.6799
#
#
#
# Elastic Compliance Matrix: (Units=1/GPa)
#
#
# Indices 1 2 3 4 5 6 
#
# 1 0.016834 -0.005213 -0.001179 0.000000 0.000000 -0.006354
# 2 -0.005213 0.016834 -0.001179 0.000000 0.000000 0.006354
# 3 -0.001179 -0.001179 0.010552 0.000000 0.000000 0.000000
# 4 0.000000 0.000000 0.000000 0.086112 0.000000 0.000000
# 5 0.000000 0.000000 0.000000 0.000000 0.086112 0.000000
# 6 -0.006354 0.006354 0.000000 0.000000 0.000000 0.041144
#
#
# Mechanical properties :
#
#
# Convention : Reuss Voigt Hill
#
# Bulk Modulus (GPa) = 34.39059 34.71273 34.55166
# Shear Modulus (GPa) = 17.70396 23.04769 20.37582
#
# Velocity S-wave (km/s) = 2.83899 3.23924 3.04570
# Velocity P-wave (km/s) = 5.13840 5.45834 5.30078
#
# Compressibility (1/GPa) = 0.02907772
#
# Stress axis : x y z
#
# Youngs Moduli (GPa) = 59.40384 59.40384 94.76762
#
# Poissons Ratio (x) = 0.30968 0.11173
# Poissons Ratio (y) = 0.30968 0.11173
# Poissons Ratio (z) = 0.07004 0.07004
#
# Static dielectric constant tensor:
#      x y z
#    x 1.870610 0.000000 0.000000 
#    y 0.000000 1.870610 0.000000 
#    z 0.000000 0.000000 1.804520 
# 
# From -- ./inp_files/3533.got.cif
#   From: 2010.05.17/outbox.cif.g08.bks.cpg/sg87_2_cif.got.tgz:3533.got - 2010.06.03 19:07:00.
