data_PCOD9545772
_publ_section_title
;
Structure prediction by ZEFSAII (Michael W. Deem and Ramdas Pophale) SiO2 
 PCOD9545772
Probable space group: I 4/M
;
_chemical_formula_sum "Si O2"
_cell_formula_units_Z 112
_cell_length_a 15.267763
_cell_length_b 15.267763
_cell_length_c 26.012056
_cell_angle_alpha 90.000000
_cell_angle_beta 90.000000
_cell_angle_gamma 90.000000
_cell_volume 6063.529572
_symmetry_space_group_name_H-M "I 4/M"
_symmetry_group_IT_number 87
_symmetry_cell_setting 'tetragonal'
loop_
_space_group_symop_operation_xyz
x,y,z
-y,x,z
-x,-y,z
y,-x,z
-x,-y,-z
y,-x,-z
x,y,-z
-y,x,-z
1/2+x,1/2+y,1/2+z
1/2-y,1/2+x,1/2+z
1/2-x,1/2-y,1/2+z
1/2+y,1/2-x,1/2+z
1/2-x,1/2-y,1/2-z
1/2+y,1/2-x,1/2-z
1/2+x,1/2+y,1/2-z
1/2-y,1/2+x,1/2-z
loop_
_atom_site_type_symbol
_atom_site_label
_atom_site_fract_x
_atom_site_fract_y
_atom_site_fract_z
Si Si1 0.145808 0.357598 0.810110
Si Si2 0.130467 0.068901 0.556471
Si Si3 0.609769 0.585444 0.562404
Si Si4 0.022503 0.599314 0.874515
Si Si5 0.819696 0.805192 0.637813
Si Si6 0.794332 0.651978 0.439114
Si Si7 0.685394 0.062716 0.298856
O O1 0.228849 0.303801 0.830969
O O2 0.103514 0.322267 0.757676
O O3 0.178336 0.457563 0.799645
O O4 0.066541 0.361527 0.851238
O O5 0.170807 0.089403 0.500000
O O6 0.177235 0.102855 0.607512
O O7 0.034635 0.113620 0.557825
O O8 0.515307 0.618887 0.579566
O O9 0.608186 0.584490 0.500000
O O10 0.693477 0.639944 0.577238
O O11 0.066424 0.653780 0.920131
O O12 0.098913 0.594012 0.830931
O O13 0.000000 0.500000 0.890105
O O14 0.826155 0.736406 0.591039
O O15 0.897793 0.772616 0.674721
O O16 0.801042 0.661839 0.500000
#
# Coordination Sequence:
#
# PCOD9545772 Si02
#       7
#    16  16  16  16  16  16  16
#     4  11  20  36  60  80 107 145 188 235 282 348
#     4   9  18  35  57  78 108 151 187 217 264 333
#     4   8  15  29  49  68  90 131 180 215 255 314
#     4   9  20  35  56  81 103 146 195 226 277 342
#     4  11  22  33  52  88 113 137 184 235 285 331
#     4  10  21  35  51  76 117 149 176 230 281 327
#     4  10  20  37  58  78 109 144 182 233 290 342
#
# _framework density 18.47109
#
# number of rings (size 3 to 8) (size 9 to 14) (size 15 to 20)
#    0.000    2.286    1.429    2.571    2.000    0.286 
#    0.000    0.714    0.000    0.857    0.000    0.000 
#    0.000    0.000    0.000    0.000    0.000    0.000 
#
# Total GULP energy -312114.999292 kJ/mol
# GULP energy per Si atom -5573.482130 kJ/mol
# Density = 1.842905 g / cm^3
# Si number density = 18.471090 Si / 1000 Ang^3
#
#
#
# Elastic Constant Matrix: (Units=GPa)
#
#
# Indices 1 2 3 4 5 6 
#
# 1 32.2851 -0.0441 21.2005 0.0000 0.0000 -2.8828
# 2 -0.0441 32.2851 21.2005 0.0000 0.0000 2.8828
# 3 21.2005 21.2005 77.2102 0.0000 0.0000 0.0000
# 4 0.0000 0.0000 0.0000 24.3251 0.0000 0.0000
# 5 0.0000 0.0000 0.0000 0.0000 24.3251 0.0000
# 6 -2.8828 2.8828 0.0000 0.0000 0.0000 27.2945
#
#
#
# Elastic Compliance Matrix: (Units=1/GPa)
#
#
# Indices 1 2 3 4 5 6 
#
# 1 0.040036 0.008511 -0.013330 0.000000 0.000000 0.003330
# 2 0.008511 0.040036 -0.013330 0.000000 0.000000 -0.003330
# 3 -0.013330 -0.013330 0.020272 0.000000 0.000000 0.000000
# 4 0.000000 0.000000 0.000000 0.041110 0.000000 0.000000
# 5 0.000000 0.000000 0.000000 0.000000 0.041110 0.000000
# 6 0.003330 -0.003330 0.000000 0.000000 0.000000 0.037341
#
#
# Mechanical properties :
#
#
# Convention : Reuss Voigt Hill
#
# Bulk Modulus (GPa) = 15.61384 25.16603 20.38994
# Shear Modulus (GPa) = 18.01460 21.81718 19.91589
#
# Velocity S-wave (km/s) = 3.12634 3.44052 3.28719
# Velocity P-wave (km/s) = 4.63719 5.42559 5.04681
#
# Compressibility (1/GPa) = 0.06404573
#
# Stress axis : x y z
#
# Youngs Moduli (GPa) = 24.97731 24.97731 49.32893
#
# Poissons Ratio (x) = -0.21258 0.65756
# Poissons Ratio (y) = -0.21258 0.65756
# Poissons Ratio (z) = 0.33295 0.33295
#
# Static dielectric constant tensor:
#      x y z
#    x 1.643620 0.000000 0.000000 
#    y 0.000000 1.643620 0.000000 
#    z 0.000000 0.000000 1.636260 
# 
# From -- ./inp_files/5890.got.cif
#   From: 2010.05.17/outbox.cif.g08.bks.cpg/sg87_3_cif.got.tgz:5890.got - 2010.06.03 19:07:00.
