data_PCOD9545835
_publ_section_title
;
Structure prediction by ZEFSAII (Michael W. Deem and Ramdas Pophale) SiO2 
 PCOD9545835
Probable space group: I 4/M
;
_chemical_formula_sum "Si O2"
_cell_formula_units_Z 72
_cell_length_a 10.053634
_cell_length_b 10.053634
_cell_length_c 28.273060
_cell_angle_alpha 90.000000
_cell_angle_beta 90.000000
_cell_angle_gamma 90.000000
_cell_volume 2857.715276
_symmetry_space_group_name_H-M "I 4/M"
_symmetry_group_IT_number 87
_symmetry_cell_setting 'tetragonal'
loop_
_space_group_symop_operation_xyz
x,y,z
-y,x,z
-x,-y,z
y,-x,z
-x,-y,-z
y,-x,-z
x,y,-z
-y,x,-z
1/2+x,1/2+y,1/2+z
1/2-y,1/2+x,1/2+z
1/2-x,1/2-y,1/2+z
1/2+y,1/2-x,1/2+z
1/2-x,1/2-y,1/2-z
1/2+y,1/2-x,1/2-z
1/2+x,1/2+y,1/2-z
1/2-y,1/2+x,1/2-z
loop_
_atom_site_type_symbol
_atom_site_label
_atom_site_fract_x
_atom_site_fract_y
_atom_site_fract_z
Si Si1 0.728938 0.950681 0.204835
Si Si2 0.049200 0.706668 0.305210
Si Si3 0.045240 0.780492 0.500000
Si Si4 0.315296 0.396931 0.397532
Si Si5 0.842738 0.482807 0.904046
O O1 0.789905 0.931854 0.257120
O O2 0.664654 0.096197 0.197478
O O3 0.595070 0.860810 0.202708
O O4 0.813195 0.910803 0.159605
O O5 0.038556 0.745227 0.360207
O O6 0.051918 0.693820 0.452724
O O7 0.149424 0.900271 0.500000
O O8 0.449145 0.324781 0.413894
O O9 0.176136 0.330446 0.410029
O O10 0.000000 0.500000 0.891668
#
# Coordination Sequence:
#
# PCOD9545835 Si02
#       5
#    16  16   8  16  16
#     4   8  13  27  50  81 127 160 198 248 290 343
#     4   8  13  27  55  87 114 156 212 250 279 356
#     4  11  29  50  68  93 124 154 202 281 335 372
#     4  10  21  36  57  93 137 168 202 259 315 373
#     4  11  21  41  70  93 118 167 219 255 318 394
#
# _framework density 25.194951
#
# number of rings (size 3 to 8) (size 9 to 14) (size 15 to 20)
#    0.000    2.556    4.444    1.667    3.111    0.000 
#    0.000   12.222    0.000    4.000    0.000    0.000 
#    0.000    0.000    0.000    0.000    0.000    0.000 
#
# Total GULP energy -201162.936833 kJ/mol
# GULP energy per Si atom -5587.859356 kJ/mol
# Density = 2.513761 g / cm^3
# Si number density = 25.194951 Si / 1000 Ang^3
#
#
#
# Elastic Constant Matrix: (Units=GPa)
#
#
# Indices 1 2 3 4 5 6 
#
# 1 57.8750 27.2387 17.1135 0.0000 0.0000 -4.0817
# 2 27.2387 57.8750 17.1135 0.0000 0.0000 4.0817
# 3 17.1135 17.1135 137.5299 0.0000 0.0000 0.0000
# 4 0.0000 0.0000 0.0000 12.8157 0.0000 0.0000
# 5 0.0000 0.0000 0.0000 0.0000 12.8157 0.0000
# 6 -4.0817 4.0817 0.0000 0.0000 0.0000 26.6065
#
#
#
# Elastic Compliance Matrix: (Units=1/GPa)
#
#
# Indices 1 2 3 4 5 6 
#
# 1 0.023200 -0.010832 -0.001539 0.000000 0.000000 0.005221
# 2 -0.010832 0.023200 -0.001539 0.000000 0.000000 -0.005221
# 3 -0.001539 -0.001539 0.007654 0.000000 0.000000 0.000000
# 4 0.000000 0.000000 0.000000 0.078029 0.000000 0.000000
# 5 0.000000 0.000000 0.000000 0.000000 0.078029 0.000000
# 6 0.005221 -0.005221 0.000000 0.000000 0.000000 0.039187
#
#
# Mechanical properties :
#
#
# Convention : Reuss Voigt Hill
#
# Bulk Modulus (GPa) = 38.11859 41.80126 39.95993
# Shear Modulus (GPa) = 17.49084 23.23520 20.36302
#
# Velocity S-wave (km/s) = 2.63766 3.04010 2.84600
# Velocity P-wave (km/s) = 4.94355 5.38053 5.16666
#
# Compressibility (1/GPa) = 0.02623392
#
# Stress axis : x y z
#
# Youngs Moduli (GPa) = 43.10347 43.10346 130.64795
#
# Poissons Ratio (x) = 0.46690 0.20107
# Poissons Ratio (y) = 0.46690 0.20107
# Poissons Ratio (z) = 0.06634 0.06634
#
# Static dielectric constant tensor:
#      x y z
#    x 2.012420 0.000000 0.000000 
#    y 0.000000 2.012420 0.000000 
#    z 0.000000 0.000000 2.010730 
# 
# From -- ./inp_files/6183.got.cif
#   From: 2010.05.17/outbox.cif.g08.bks.cpg/sg87_4_cif.got.tgz:6183.got - 2010.06.03 19:07:00.
