data_PCOD9545158
_publ_section_title
;
Structure prediction by ZEFSAII (Michael W. Deem and Ramdas Pophale) SiO2 
 PCOD9545158
Probable space group: P 42/N
;
_chemical_formula_sum "Si O2"
_cell_formula_units_Z 24
_cell_length_a 13.112235
_cell_length_b 13.112235
_cell_length_c 5.243011
_cell_angle_alpha 90.000000
_cell_angle_beta 90.000000
_cell_angle_gamma 90.000000
_cell_volume 901.434586
_symmetry_space_group_name_H-M "P 42/N"
_symmetry_group_IT_number 86
_space_group.IT_coordinate_system_code '2'
_symmetry_cell_setting 'tetragonal'
loop_
_space_group_symop_operation_xyz
x,y,z
-y,1/2+x,1/2+z
1/2-x,1/2-y,z
1/2+y,-x,1/2+z
-x,-y,-z
y,1/2-x,1/2-z
1/2+x,1/2+y,-z
1/2-y,x,1/2-z
loop_
_atom_site_type_symbol
_atom_site_label
_atom_site_fract_x
_atom_site_fract_y
_atom_site_fract_z
Si Si1 0.895254 0.068993 0.218150
Si Si2 0.353465 0.366208 0.642529
Si Si3 0.019573 0.718052 0.790194
O O1 0.972546 0.161189 0.238783
O O2 0.816641 0.079801 0.454368
O O3 0.933450 0.952026 0.261870
O O4 0.837527 0.066978 0.951055
O O5 0.382456 0.250418 0.688808
O O6 0.317986 0.405746 0.366750
#
# Coordination Sequence:
#
# PCOD9545158 Si02
#       3
#     8   8   8
#     4  10  22  39  62  93 122 161 204 258 308 362
#     4   9  22  42  63  88 124 170 211 250 306 371
#     4  10  22  39  62  93 122 161 204 258 308 362
#
# _framework density 26.624229
#
# number of rings (size 3 to 8) (size 9 to 14) (size 15 to 20)
#    2.000    0.333    0.000    2.000    0.000    8.000 
#    0.000    6.667    0.000    0.000    0.000    0.000 
#    0.000    0.000    0.000    0.000    0.000    0.000 
#
# Total GULP energy -134213.970122 kJ/mol
# GULP energy per Si atom -5592.248755 kJ/mol
# Density = 2.656363 g / cm^3
# Si number density = 26.624229 Si / 1000 Ang^3
#
#
#
# Elastic Constant Matrix: (Units=GPa)
#
#
# Indices 1 2 3 4 5 6 
#
# 1 129.2139 47.8391 36.5017 0.0000 0.0000 -17.6854
# 2 47.8391 129.2139 36.5017 0.0000 0.0000 17.6854
# 3 36.5017 36.5017 188.8281 0.0000 0.0000 0.0000
# 4 0.0000 0.0000 0.0000 25.1580 0.0000 0.0000
# 5 0.0000 0.0000 0.0000 0.0000 25.1580 0.0000
# 6 -17.6854 17.6854 0.0000 0.0000 0.0000 50.3518
#
#
#
# Elastic Compliance Matrix: (Units=1/GPa)
#
#
# Indices 1 2 3 4 5 6 
#
# 1 0.010320 -0.004183 -0.001186 0.000000 0.000000 0.005094
# 2 -0.004183 0.010320 -0.001186 0.000000 0.000000 -0.005094
# 3 -0.001186 -0.001186 0.005754 0.000000 0.000000 0.000000
# 4 0.000000 0.000000 0.000000 0.039749 0.000000 0.000000
# 5 0.000000 0.000000 0.000000 0.000000 0.039749 0.000000
# 6 0.005094 -0.005094 0.000000 0.000000 0.000000 0.023439
#
#
# Mechanical properties :
#
#
# Convention : Reuss Voigt Hill
#
# Bulk Modulus (GPa) = 75.28173 76.54896 75.91534
# Shear Modulus (GPa) = 34.04371 41.89444 37.96908
#
# Velocity S-wave (km/s) = 3.57973 3.97110 3.78048
# Velocity P-wave (km/s) = 6.73966 7.05976 6.90157
#
# Compressibility (1/GPa) = 0.01328344
#
# Stress axis : x y z
#
# Youngs Moduli (GPa) = 96.89824 96.89824 173.77753
#
# Poissons Ratio (x) = 0.40532 0.20616
# Poissons Ratio (y) = 0.40532 0.20616
# Poissons Ratio (z) = 0.11496 0.11496
#
# Static dielectric constant tensor:
#      x y z
#    x 2.059300 0.000000 0.000000 
#    y 0.000000 2.059300 0.000000 
#    z 0.000000 0.000000 2.117340 
# 
# From -- ./inp_files/115.got.cif
#   From: 2010.05.17/outbox.cif.g08.bks.cpg/sg86_1_cif.got.tgz:115.got - 2010.06.03 19:03:11.
