data_PCOD9545728
_publ_section_title
;
Structure prediction by ZEFSAII (Michael W. Deem and Ramdas Pophale) SiO2 
 PCOD9545728
Probable space group: I 4/M
;
_chemical_formula_sum "Si O2"
_cell_formula_units_Z 64
_cell_length_a 20.170136
_cell_length_b 20.170136
_cell_length_c 8.415940
_cell_angle_alpha 90.000000
_cell_angle_beta 90.000000
_cell_angle_gamma 90.000000
_cell_volume 3423.893785
_symmetry_space_group_name_H-M "I 4/M"
_symmetry_group_IT_number 87
_symmetry_cell_setting 'tetragonal'
loop_
_space_group_symop_operation_xyz
x,y,z
-y,x,z
-x,-y,z
y,-x,z
-x,-y,-z
y,-x,-z
x,y,-z
-y,x,-z
1/2+x,1/2+y,1/2+z
1/2-y,1/2+x,1/2+z
1/2-x,1/2-y,1/2+z
1/2+y,1/2-x,1/2+z
1/2-x,1/2-y,1/2-z
1/2+y,1/2-x,1/2-z
1/2+x,1/2+y,1/2-z
1/2-y,1/2+x,1/2-z
loop_
_atom_site_type_symbol
_atom_site_label
_atom_site_fract_x
_atom_site_fract_y
_atom_site_fract_z
Si Si1 0.758950 0.859232 0.189192
Si Si2 0.268184 0.007112 0.311667
Si Si3 0.647025 0.757294 0.192106
Si Si4 0.028865 0.591123 0.823393
O O1 0.688302 0.824095 0.237689
O O2 0.813148 0.803826 0.233560
O O3 0.776875 0.929165 0.271923
O O4 0.757179 0.868890 0.000000
O O5 0.280516 0.005882 0.500000
O O6 0.253959 0.930878 0.264759
O O7 0.333019 0.028733 0.216091
O O8 0.651193 0.753419 0.000000
O O9 0.953178 0.567525 0.802968
O O10 0.054449 0.577545 0.000000
#
# Coordination Sequence:
#
# PCOD9545728 Si02
#       4
#    16  16  16  16
#     4  10  20  35  56  81 109 140 179 225 269 317
#     4  11  21  34  54  78 106 140 178 219 265 320
#     4   9  20  37  55  77 107 143 180 219 266 321
#     4  11  21  33  48  70 103 140 177 214 258 311
#
# _framework density 18.692169
#
# number of rings (size 3 to 8) (size 9 to 14) (size 15 to 20)
#    0.000    1.750    0.000    6.000    0.000    5.000 
#    0.000    0.000    0.000    0.750    0.000    5.250 
#    0.000    0.000    0.000    0.000    0.000    0.000 
#
# Total GULP energy -178442.456687 kJ/mol
# GULP energy per Si atom -5576.326771 kJ/mol
# Density = 1.864962 g / cm^3
# Si number density = 18.692169 Si / 1000 Ang^3
#
#
#
# Elastic Constant Matrix: (Units=GPa)
#
#
# Indices 1 2 3 4 5 6 
#
# 1 105.0307 31.0737 18.8452 0.0000 0.0000 0.6862
# 2 31.0737 105.0307 18.8452 0.0000 0.0000 -0.6862
# 3 18.8452 18.8452 44.6492 0.0000 0.0000 0.0000
# 4 0.0000 0.0000 0.0000 27.6960 0.0000 0.0000
# 5 0.0000 0.0000 0.0000 0.0000 27.6960 0.0000
# 6 0.6862 -0.6862 0.0000 0.0000 0.0000 -5.4452
#
#
#
# Elastic Compliance Matrix: (Units=1/GPa)
#
#
# Indices 1 2 3 4 5 6 
#
# 1 0.010905 -0.002585 -0.003512 0.000000 0.000000 0.001700
# 2 -0.002585 0.010905 -0.003512 0.000000 0.000000 -0.001700
# 3 -0.003512 -0.003512 0.025361 0.000000 0.000000 0.000000
# 4 0.000000 0.000000 0.000000 0.036106 0.000000 0.000000
# 5 0.000000 0.000000 0.000000 0.000000 0.036106 0.000000
# 6 0.001700 -0.001700 0.000000 0.000000 0.000000 -0.183219
#
#
# Mechanical properties :
#
#
# Convention : Reuss Voigt Hill
#
# Bulk Modulus (GPa) = 35.77256 43.58209 39.67733
# Shear Modulus (GPa) = -141.63761 22.38579 -59.62591
#
# Velocity S-wave (km/s) = -8.71426 3.46439 -5.65404
# Velocity P-wave (km/s) = 9.05935 6.27447 4.62075
#
# Compressibility (1/GPa) = 0.02795439
#
# Stress axis : x y z
#
# Youngs Moduli (GPa) = 91.70297 91.70297 39.43056
#
# Poissons Ratio (x) = 0.23706 0.13846
# Poissons Ratio (y) = 0.23706 0.13846
# Poissons Ratio (z) = 0.32202 0.32202
#
# Static dielectric constant tensor:
#      x y z
#    x 1.710510 0.000000 0.000000 
#    y 0.000000 1.710510 0.000000 
#    z 0.000000 0.000000 1.668670 
# 
# From -- ./inp_files/965.got.cif
#   From: 2010.05.17/outbox.cif.g08.bks.cpg/sg87_1_cif.got.tgz:965.got - 2010.06.03 19:07:00.
