data_PCOD9545130
_publ_section_title
;
Structure prediction by ZEFSAII (Michael W. Deem and Ramdas Pophale) SiO2 
 PCOD9545130
Probable space group: P 42/N
;
_chemical_formula_sum "Si O2"
_cell_formula_units_Z 48
_cell_length_a 11.544180
_cell_length_b 11.544180
_cell_length_c 18.279779
_cell_angle_alpha 90.000000
_cell_angle_beta 90.000000
_cell_angle_gamma 90.000000
_cell_volume 2436.111267
_symmetry_space_group_name_H-M "P 42/N"
_symmetry_group_IT_number 86
_space_group.IT_coordinate_system_code '2'
_symmetry_cell_setting 'tetragonal'
loop_
_space_group_symop_operation_xyz
x,y,z
-y,1/2+x,1/2+z
1/2-x,1/2-y,z
1/2+y,-x,1/2+z
-x,-y,-z
y,1/2-x,1/2-z
1/2+x,1/2+y,-z
1/2-y,x,1/2-z
loop_
_atom_site_type_symbol
_atom_site_label
_atom_site_fract_x
_atom_site_fract_y
_atom_site_fract_z
Si Si1 0.378726 0.539173 0.530634
Si Si2 0.869503 0.812077 0.960004
Si Si3 0.122164 0.620491 0.639467
Si Si4 0.381033 0.631946 0.685554
Si Si5 0.545240 0.417951 0.150967
Si Si6 0.427335 0.800603 0.486902
O O1 0.500000 0.500000 0.500000
O O2 0.278858 0.448105 0.506757
O O3 0.400322 0.544989 0.618170
O O4 0.377701 0.671687 0.499292
O O5 0.750000 0.750000 0.941454
O O6 0.831670 0.936018 0.996824
O O7 0.944761 0.843781 0.888587
O O8 0.241130 0.627651 0.683220
O O9 0.066609 0.744616 0.659464
O O10 0.136728 0.628165 0.551851
O O11 0.046559 0.508978 0.654214
O O12 0.423989 0.612208 0.766683
O O13 0.651288 0.407153 0.094161
#
# Coordination Sequence:
#
# PCOD9545130 Si02
#       6
#     8   8   8   8   8   8
#     4  11  22  38  64  91 128 171 216 264 329 397
#     4  11  22  41  65  94 131 173 221 273 331 410
#     4   9  20  42  59  83 124 163 204 258 323 379
#     4  10  22  38  61  89 124 163 206 273 318 380
#     4  11  23  39  66  95 124 166 219 271 329 395
#     4  10  21  41  67  91 120 174 221 268 319 401
#
# _framework density 19.703533
#
# number of rings (size 3 to 8) (size 9 to 14) (size 15 to 20)
#    0.000    1.667    1.667    4.000    0.000    7.333 
#    0.000    0.000    3.667    0.000    0.000    0.000 
#    0.000    0.000    0.000    0.000    0.000    0.000 
#
# Total GULP energy -267281.409377 kJ/mol
# GULP energy per Si atom -5568.362695 kJ/mol
# Density = 1.965869 g / cm^3
# Si number density = 19.703533 Si / 1000 Ang^3
#
#
#
# Elastic Constant Matrix: (Units=GPa)
#
#
# Indices 1 2 3 4 5 6 
#
# 1 57.6835 37.8919 38.1847 0.0000 0.0000 2.5671
# 2 37.8919 57.6835 38.1847 0.0000 0.0000 -2.5671
# 3 38.1847 38.1847 163.5491 0.0000 0.0000 0.0000
# 4 0.0000 0.0000 0.0000 -137.3299 0.0000 0.0000
# 5 0.0000 0.0000 0.0000 0.0000 -137.3299 0.0000
# 6 2.5671 -2.5671 0.0000 0.0000 0.0000 38.3460
#
#
#
# Elastic Compliance Matrix: (Units=1/GPa)
#
#
# Indices 1 2 3 4 5 6 
#
# 1 0.032141 -0.019278 -0.003003 0.000000 0.000000 -0.003442
# 2 -0.019278 0.032141 -0.003003 0.000000 0.000000 0.003442
# 3 -0.003003 -0.003003 0.007517 0.000000 0.000000 0.000000
# 4 0.000000 0.000000 0.000000 -0.007282 0.000000 0.000000
# 5 0.000000 0.000000 0.000000 0.000000 -0.007282 0.000000
# 6 -0.003442 0.003442 0.000000 0.000000 0.000000 0.026539
#
#
# Mechanical properties :
#
#
# Convention : Reuss Voigt Hill
#
# Bulk Modulus (GPa) = 47.10447 56.38209 51.74328
# Shear Modulus (GPa) = 35.35564 -36.28576 -0.46506
#
# Velocity S-wave (km/s) = 4.24061 -4.29603 -0.48635
# Velocity P-wave (km/s) = 6.92355 2.01731 5.09927
#
# Compressibility (1/GPa) = 0.02122941
#
# Stress axis : x y z
#
# Youngs Moduli (GPa) = 31.11291 31.11291 133.03765
#
# Poissons Ratio (x) = 0.59981 0.39952
# Poissons Ratio (y) = 0.59981 0.39952
# Poissons Ratio (z) = 0.09343 0.09343
#
# Static dielectric constant tensor:
#      x y z
#    x 1.765130 0.000000 0.000000 
#    y 0.000000 1.765130 0.000000 
#    z 0.000000 0.000000 1.808640 
# 
# From -- ./inp_files/3580.got.cif
#   From: 2010.05.17/outbox.cif.g08.bks.cpg/sg86_2_cif.got.tgz:3580.got - 2010.06.03 19:03:11.
