data_PCOD9545948
_publ_section_title
;
Structure prediction by ZEFSAII (Michael W. Deem and Ramdas Pophale) SiO2 
 PCOD9545948
Probable space group: I 4/M
;
_chemical_formula_sum "Si O2"
_cell_formula_units_Z 84
_cell_length_a 11.978581
_cell_length_b 11.978581
_cell_length_c 27.918887
_cell_angle_alpha 90.000000
_cell_angle_beta 90.000000
_cell_angle_gamma 90.000000
_cell_volume 4005.980665
_symmetry_space_group_name_H-M "I 4/M"
_symmetry_group_IT_number 87
_symmetry_cell_setting 'tetragonal'
loop_
_space_group_symop_operation_xyz
x,y,z
-y,x,z
-x,-y,z
y,-x,z
-x,-y,-z
y,-x,-z
x,y,-z
-y,x,-z
1/2+x,1/2+y,1/2+z
1/2-y,1/2+x,1/2+z
1/2-x,1/2-y,1/2+z
1/2+y,1/2-x,1/2+z
1/2-x,1/2-y,1/2-z
1/2+y,1/2-x,1/2-z
1/2+x,1/2+y,1/2-z
1/2-y,1/2+x,1/2-z
loop_
_atom_site_type_symbol
_atom_site_label
_atom_site_fract_x
_atom_site_fract_y
_atom_site_fract_z
Si Si1 0.869048 0.690945 0.649725
Si Si2 0.494957 0.253312 0.706385
Si Si3 0.391172 0.773152 0.804847
Si Si4 0.462139 0.125598 0.944313
Si Si5 0.000000 0.000000 0.177918
Si Si6 0.436120 0.664012 0.942678
O O1 0.815436 0.587398 0.677608
O O2 0.805522 0.803195 0.667177
O O3 0.867322 0.656761 0.593752
O O4 0.999664 0.698951 0.663936
O O5 0.553598 0.280741 0.757379
O O6 0.384763 0.175695 0.711065
O O7 0.461453 0.367866 0.680962
O O8 0.570312 0.205167 0.935059
O O9 0.500000 0.000000 0.938335
O O10 0.428529 0.144605 0.000000
O O11 0.364161 0.561495 0.924594
O O12 0.428309 0.650415 0.000000
#
# Coordination Sequence:
#
# PCOD9545948 Si02
#       6
#    16  16  16  16   4  16
#     4  12  26  42  66 102 137 181 234 289 353 427
#     4  12  23  46  68  99 134 181 230 283 350 423
#     4  12  25  43  69  99 141 181 223 288 357 423
#     4  10  22  41  63  92 133 183 232 281 341 412
#     4  12  24  40  72  96 129 180 229 276 324 412
#     4   8  15  30  55  84 115 153 202 264 331 392
#
# _framework density 20.968648999999999
#
# number of rings (size 3 to 8) (size 9 to 14) (size 15 to 20)
#    0.000    1.143    3.810    4.000    2.667    0.381 
#    0.000    0.000    0.000    0.000    0.000    0.667 
#    0.000    0.000    0.000    0.000    0.000    0.000 
#
# Total GULP energy -233835.963078 kJ/mol
# GULP energy per Si atom -5567.522930 kJ/mol
# Density = 2.092092 g / cm^3
# Si number density = 20.968649 Si / 1000 Ang^3
#
#
#
# Elastic Constant Matrix: (Units=GPa)
#
#
# Indices 1 2 3 4 5 6 
#
# 1 109.4181 3.9324 4.4945 0.0000 0.0000 2.8753
# 2 3.9324 109.4181 4.4945 0.0000 0.0000 -2.8753
# 3 4.4945 4.4945 104.1419 0.0000 0.0000 0.0000
# 4 0.0000 0.0000 0.0000 18.0650 0.0000 0.0000
# 5 0.0000 0.0000 0.0000 0.0000 18.0650 0.0000
# 6 2.8753 -2.8753 0.0000 0.0000 0.0000 34.5502
#
#
#
# Elastic Compliance Matrix: (Units=1/GPa)
#
#
# Indices 1 2 3 4 5 6 
#
# 1 0.009188 -0.000335 -0.000382 0.000000 0.000000 -0.000793
# 2 -0.000335 0.009188 -0.000382 0.000000 0.000000 0.000793
# 3 -0.000382 -0.000382 0.009635 0.000000 0.000000 0.000000
# 4 0.000000 0.000000 0.000000 0.055356 0.000000 0.000000
# 5 0.000000 0.000000 0.000000 0.000000 0.055356 0.000000
# 6 -0.000793 0.000793 0.000000 0.000000 0.000000 0.029075
#
#
# Mechanical properties :
#
#
# Convention : Reuss Voigt Hill
#
# Bulk Modulus (GPa) = 38.74161 38.75787 38.74974
# Shear Modulus (GPa) = 27.99548 34.80650 31.40099
#
# Velocity S-wave (km/s) = 3.65788 4.07864 3.87398
# Velocity P-wave (km/s) = 6.02961 6.37999 6.20727
#
# Compressibility (1/GPa) = 0.02581204
#
# Stress axis : x y z
#
# Youngs Moduli (GPa) = 108.83962 108.83962 103.78547
#
# Poissons Ratio (x) = 0.03650 0.03965
# Poissons Ratio (y) = 0.03650 0.03965
# Poissons Ratio (z) = 0.04158 0.04158
#
# Static dielectric constant tensor:
#      x y z
#    x 1.773400 0.000000 0.000000 
#    y 0.000000 1.773400 0.000000 
#    z 0.000000 0.000000 1.861900 
# 
# From -- ./inp_files/6577.got.cif
#   From: 2010.05.17/outbox.cif.g08.bks.cpg/sg87_4_cif.got.tgz:6577.got - 2010.06.03 19:07:00.
