data_PCOD9545477
_publ_section_title
;
Structure prediction by ZEFSAII (Michael W. Deem and Ramdas Pophale) SiO2 
 PCOD9545477
Probable space group: P 42/N
;
_chemical_formula_sum "Si O2"
_cell_formula_units_Z 48
_cell_length_a 9.000000
_cell_length_b 9.000000
_cell_length_c 30.000000
_cell_angle_alpha 90.000000
_cell_angle_beta 90.000000
_cell_angle_gamma 90.000000
_cell_volume 2430.000000
_symmetry_space_group_name_H-M "P 42/N"
_symmetry_group_IT_number 86
_space_group.IT_coordinate_system_code '2'
_symmetry_cell_setting 'tetragonal'
loop_
_space_group_symop_operation_xyz
x,y,z
-y,1/2+x,1/2+z
1/2-x,1/2-y,z
1/2+y,-x,1/2+z
-x,-y,-z
y,1/2-x,1/2-z
1/2+x,1/2+y,-z
1/2-y,x,1/2-z
loop_
_atom_site_type_symbol
_atom_site_label
_atom_site_fract_x
_atom_site_fract_y
_atom_site_fract_z
Si Si1 0.571586 0.821365 0.501658
Si Si2 0.750000 0.250000 0.749788
Si Si3 0.250000 0.250000 0.250000
Si Si4 0.180122 0.415608 0.906968
Si Si5 0.009514 0.665718 0.319100
Si Si6 0.750000 0.750000 0.250000
Si Si7 0.679024 0.085607 0.910685
Si Si8 0.834540 0.009857 0.818915
O O1 0.750000 0.750000 0.503590
O O2 0.525398 0.753812 0.453242
O O3 0.500771 0.748303 0.546362
O O4 0.500000 0.000000 0.500000
O O5 0.647599 0.163525 0.714908
O O6 0.837403 0.148239 0.784703
O O7 0.380184 0.208370 0.284561
O O8 0.250000 0.250000 0.899960
O O9 0.224532 0.505252 0.861773
O O10 0.001194 0.409182 0.912655
O O11 0.879416 0.706212 0.284413
O O12 0.999198 0.500093 0.338156
O O13 0.750000 0.250000 0.912171
O O14 0.726536 0.022590 0.861700
#
# Coordination Sequence:
#
# PCOD9545477 Si02
#       8
#     8   4   2   8   8   2   8   8
#     4  11  25  51  80 111 150 190 244 308 381 452
#     4  12  26  42  64  98 138 180 238 292 356 420
#     4  12  28  44  68  90 148 184 244 300 368 426
#     4  11  25  45  73 104 140 184 241 298 364 441
#     4  12  25  43  66  99 136 182 240 293 354 433
#     4  12  24  36  72  90 132 180 232 288 348 414
#     4  12  26  45  75 107 145 191 244 302 375 446
#     4  12  26  44  67  99 140 191 236 298 361 439
#
# _framework density 19.753086
#
# number of rings (size 3 to 8) (size 9 to 14) (size 15 to 20)
#    0.000    0.333    5.000    4.500    5.833    0.000 
#    4.500    0.000    0.000    0.000    0.000    0.000 
#    0.000    0.000    0.000    0.000    0.000    0.000 
#
# Total GULP energy -267230.298010 kJ/mol
# GULP energy per Si atom -5567.297875 kJ/mol
# Density = 1.970813 g / cm^3
# Si number density = 19.753086 Si / 1000 Ang^3
#
#
#
# Elastic Constant Matrix: (Units=GPa)
#
#
# Indices 1 2 3 4 5 6 
#
# 1 107.7389 8.3527 45.8761 0.0000 0.0000 1.8337
# 2 8.3527 107.7389 45.8761 0.0000 0.0000 -1.8337
# 3 45.8761 45.8761 173.7114 0.0000 0.0000 0.0000
# 4 0.0000 0.0000 0.0000 39.7775 0.0000 0.0000
# 5 0.0000 0.0000 0.0000 0.0000 39.7775 0.0000
# 6 1.8337 -1.8337 0.0000 0.0000 0.0000 21.5371
#
#
#
# Elastic Compliance Matrix: (Units=1/GPa)
#
#
# Indices 1 2 3 4 5 6 
#
# 1 0.010490 0.000396 -0.002875 0.000000 0.000000 -0.000859
# 2 0.000396 0.010490 -0.002875 0.000000 0.000000 0.000859
# 3 -0.002875 -0.002875 0.007275 0.000000 0.000000 0.000000
# 4 0.000000 0.000000 0.000000 0.025140 0.000000 0.000000
# 5 0.000000 0.000000 0.000000 0.000000 0.025140 0.000000
# 6 -0.000859 0.000859 0.000000 0.000000 0.000000 0.046578
#
#
# Mechanical properties :
#
#
# Convention : Reuss Voigt Hill
#
# Bulk Modulus (GPa) = 56.98797 65.48879 61.23838
# Shear Modulus (GPa) = 35.29361 39.49069 37.39215
#
# Velocity S-wave (km/s) = 4.23157 4.47611 4.35556
# Velocity P-wave (km/s) = 7.26551 7.74208 7.50758
#
# Compressibility (1/GPa) = 0.01754756
#
# Stress axis : x y z
#
# Youngs Moduli (GPa) = 95.33086 95.33086 137.45347
#
# Poissons Ratio (x) = -0.03778 0.39517
# Poissons Ratio (y) = -0.03778 0.39517
# Poissons Ratio (z) = 0.27407 0.27407
#
# Static dielectric constant tensor:
#      x y z
#    x 1.811500 0.000000 0.000000 
#    y 0.000000 1.811500 0.000000 
#    z 0.000000 0.000000 1.627350 
# 
# From -- ./inp_files/5269.got.cif
#   From: 2010.05.17/outbox.ucp.g08.bks.cvg/sg86_3_cif.got.tgz:5269.got - 2010.06.11 10:35:13.
