data_PCOD9545349
_publ_section_title
;
Structure prediction by ZEFSAII (Michael W. Deem and Ramdas Pophale) SiO2 
 PCOD9545349
Probable space group: P 42/N
;
_chemical_formula_sum "Si O2"
_cell_formula_units_Z 40
_cell_length_a 10.883402
_cell_length_b 10.883402
_cell_length_c 14.230251
_cell_angle_alpha 90.000000
_cell_angle_beta 90.000000
_cell_angle_gamma 90.000000
_cell_volume 1685.551019
_symmetry_space_group_name_H-M "P 42/N"
_symmetry_group_IT_number 86
_space_group.IT_coordinate_system_code '2'
_symmetry_cell_setting 'tetragonal'
loop_
_space_group_symop_operation_xyz
x,y,z
-y,1/2+x,1/2+z
1/2-x,1/2-y,z
1/2+y,-x,1/2+z
-x,-y,-z
y,1/2-x,1/2-z
1/2+x,1/2+y,-z
1/2-y,x,1/2-z
loop_
_atom_site_type_symbol
_atom_site_label
_atom_site_fract_x
_atom_site_fract_y
_atom_site_fract_z
Si Si1 0.986424 0.772654 0.891389
Si Si2 0.093976 0.845616 0.261885
Si Si3 0.164674 0.866707 0.042881
Si Si4 0.442181 0.934008 0.247896
Si Si5 0.372458 0.034365 0.052535
O O1 0.082661 0.683719 0.833859
O O2 0.964950 0.880518 0.816459
O O3 0.882298 0.677790 0.922990
O O4 0.045209 0.840191 0.980595
O O5 0.134689 0.860258 0.153491
O O6 0.083501 0.702248 0.283252
O O7 0.964555 0.915778 0.266301
O O8 0.250000 0.750000 0.021341
O O9 0.244006 0.985903 0.011762
O O10 0.381237 0.955440 0.147700
O O11 0.500000 0.000000 0.000000
#
# Coordination Sequence:
#
# PCOD9545349 Si02
#       5
#     8   8   8   8   8
#     4  11  23  40  67  99 132 175 230 291 353 419
#     4  11  23  40  64  94 131 181 228 284 350 418
#     4  12  20  39  67  96 132 175 232 282 349 430
#     4  11  23  40  64  94 133 178 227 284 350 415
#     4  11  22  37  66 103 130 173 234 292 344 426
#
# _framework density 23.731110000000001
#
# number of rings (size 3 to 8) (size 9 to 14) (size 15 to 20)
#    0.000    0.800    6.000    1.800    2.800    1.200 
#    0.000    1.000    0.000    0.000    0.000    0.000 
#    0.000    0.000    0.000    0.000    0.000    0.000 
#
# Total GULP energy -223627.763393 kJ/mol
# GULP energy per Si atom -5590.694085 kJ/mol
# Density = 2.367710 g / cm^3
# Si number density = 23.731110 Si / 1000 Ang^3
#
#
#
# Elastic Constant Matrix: (Units=GPa)
#
#
# Indices 1 2 3 4 5 6 
#
# 1 81.1622 52.2593 8.9095 0.0000 0.0000 0.3637
# 2 52.2593 81.1622 8.9095 0.0000 0.0000 -0.3637
# 3 8.9095 8.9095 98.6230 0.0000 0.0000 0.0000
# 4 0.0000 0.0000 0.0000 26.1214 0.0000 0.0000
# 5 0.0000 0.0000 0.0000 0.0000 26.1214 0.0000
# 6 0.3637 -0.3637 0.0000 0.0000 0.0000 47.6073
#
#
#
# Elastic Compliance Matrix: (Units=1/GPa)
#
#
# Indices 1 2 3 4 5 6 
#
# 1 0.021096 -0.013509 -0.000685 0.000000 0.000000 -0.000264
# 2 -0.013509 0.021096 -0.000685 0.000000 0.000000 0.000264
# 3 -0.000685 -0.000685 0.010263 0.000000 0.000000 0.000000
# 4 0.000000 0.000000 0.000000 0.038283 0.000000 0.000000
# 5 0.000000 0.000000 0.000000 0.000000 0.038283 0.000000
# 6 -0.000264 0.000264 0.000000 0.000000 0.000000 0.021009
#
#
# Mechanical properties :
#
#
# Convention : Reuss Voigt Hill
#
# Bulk Modulus (GPa) = 44.06228 44.56712 44.31470
# Shear Modulus (GPa) = 26.68728 32.69463 29.69095
#
# Velocity S-wave (km/s) = 3.35710 3.71578 3.54098
# Velocity P-wave (km/s) = 5.79952 6.10165 5.95250
#
# Compressibility (1/GPa) = 0.02269515
#
# Stress axis : x y z
#
# Youngs Moduli (GPa) = 47.40256 47.40256 97.43308
#
# Poissons Ratio (x) = 0.64038 0.06678
# Poissons Ratio (y) = 0.64038 0.06678
# Poissons Ratio (z) = 0.03249 0.03249
#
# Static dielectric constant tensor:
#      x y z
#    x 1.944630 0.000000 0.000000 
#    y 0.000000 1.944630 0.000000 
#    z 0.000000 0.000000 1.902730 
# 
# From -- ./inp_files/2929.got.cif
#   From: 2010.05.17/outbox.cif.g08.bks.cpg/sg86_2_cif.got.tgz:2929.got - 2010.06.03 19:03:11.
