data_PCOD9545094
_publ_section_title
;
Structure prediction by ZEFSAII (Michael W. Deem and Ramdas Pophale) SiO2 
 PCOD9545094
Probable space group: P 42/N
;
_chemical_formula_sum "Si O2"
_cell_formula_units_Z 26
_cell_length_a 9.896577
_cell_length_b 9.896577
_cell_length_c 14.236148
_cell_angle_alpha 90.000000
_cell_angle_beta 90.000000
_cell_angle_gamma 90.000000
_cell_volume 1394.320172
_symmetry_space_group_name_H-M "P 42/N"
_symmetry_group_IT_number 86
_space_group.IT_coordinate_system_code '2'
_symmetry_cell_setting 'tetragonal'
loop_
_space_group_symop_operation_xyz
x,y,z
-y,1/2+x,1/2+z
1/2-x,1/2-y,z
1/2+y,-x,1/2+z
-x,-y,-z
y,1/2-x,1/2-z
1/2+x,1/2+y,-z
1/2-y,x,1/2-z
loop_
_atom_site_type_symbol
_atom_site_label
_atom_site_fract_x
_atom_site_fract_y
_atom_site_fract_z
Si Si1 0.250000 0.250000 0.750000
Si Si2 0.601686 0.187095 0.059271
Si Si3 0.603025 0.521547 0.363536
Si Si4 0.452527 0.323795 0.227112
O O1 0.372735 0.200277 0.814088
O O2 0.750000 0.250000 0.058236
O O3 0.509910 0.280009 0.126755
O O4 0.594404 0.036047 0.103215
O O5 0.542955 0.171723 0.954975
O O6 0.558211 0.407038 0.289289
O O7 0.410557 0.184773 0.279304
#
# Coordination Sequence:
#
# PCOD9545094 Si02
#       4
#     2   8   8   8
#     4  12  24  40  56  80 122 156 184 240 292 332
#     4  10  21  38  60  86 114 148 191 238 285 340
#     4  10  23  38  57  86 115 149 195 234 283 349
#     4   9  19  38  62  84 113 151 190 237 288 339
#
# _framework density 18.647081
#
# number of rings (size 3 to 8) (size 9 to 14) (size 15 to 20)
#    0.000    2.154    0.000    1.846    0.000   13.538 
#    0.000    4.615    0.000    0.000    0.000    0.000 
#    0.000    0.000    0.000    0.000    0.000    0.000 
#
# Total GULP energy -145225.537501 kJ/mol
# GULP energy per Si atom -5585.597596 kJ/mol
# Density = 1.860464 g / cm^3
# Si number density = 18.647081 Si / 1000 Ang^3
#
#
#
# Elastic Constant Matrix: (Units=GPa)
#
#
# Indices 1 2 3 4 5 6 
#
# 1 72.0955 52.5718 37.2499 0.0000 0.0000 8.3232
# 2 52.5718 72.0955 37.2499 0.0000 0.0000 -8.3232
# 3 37.2499 37.2499 62.0295 0.0000 0.0000 0.0000
# 4 0.0000 0.0000 0.0000 20.9430 0.0000 0.0000
# 5 0.0000 0.0000 0.0000 0.0000 20.9430 0.0000
# 6 8.3232 -8.3232 0.0000 0.0000 0.0000 41.2300
#
#
#
# Elastic Compliance Matrix: (Units=1/GPa)
#
#
# Indices 1 2 3 4 5 6 
#
# 1 0.037190 -0.024679 -0.007513 0.000000 0.000000 -0.012490
# 2 -0.024679 0.037190 -0.007513 0.000000 0.000000 0.012490
# 3 -0.007513 -0.007513 0.025145 0.000000 0.000000 0.000000
# 4 0.000000 0.000000 0.000000 0.047749 0.000000 0.000000
# 5 0.000000 0.000000 0.000000 0.000000 0.047749 0.000000
# 6 -0.012490 0.012490 0.000000 0.000000 0.000000 0.029297
#
#
# Mechanical properties :
#
#
# Convention : Reuss Voigt Hill
#
# Bulk Modulus (GPa) = 49.71529 51.15154 50.43342
# Shear Modulus (GPa) = 16.10647 21.89978 19.00312
#
# Velocity S-wave (km/s) = 2.94216 3.43072 3.19579
# Velocity P-wave (km/s) = 6.18553 6.57146 6.38141
#
# Compressibility (1/GPa) = 0.02011453
#
# Stress axis : x y z
#
# Youngs Moduli (GPa) = 26.88900 26.88900 39.76937
#
# Poissons Ratio (x) = 0.66359 0.29879
# Poissons Ratio (y) = 0.66359 0.29879
# Poissons Ratio (z) = 0.20202 0.20202
#
# Static dielectric constant tensor:
#      x y z
#    x 1.631730 0.000000 0.000000 
#    y 0.000000 1.631730 0.000000 
#    z 0.000000 0.000000 1.616000 
# 
# From -- ./inp_files/2637.got.cif
#   From: 2010.05.17/outbox.cif.g08.bks.cpg/sg86_2_cif.got.tgz:2637.got - 2010.06.03 19:03:11.
