data_PCOD9545355
_publ_section_title
;
Structure prediction by ZEFSAII (Michael W. Deem and Ramdas Pophale) SiO2 
 PCOD9545355
Probable space group: P 42/N
;
_chemical_formula_sum "Si O2"
_cell_formula_units_Z 50
_cell_length_a 13.815255
_cell_length_b 13.815255
_cell_length_c 11.793324
_cell_angle_alpha 90.000000
_cell_angle_beta 90.000000
_cell_angle_gamma 90.000000
_cell_volume 2250.888805
_symmetry_space_group_name_H-M "P 42/N"
_symmetry_group_IT_number 86
_space_group.IT_coordinate_system_code '2'
_symmetry_cell_setting 'tetragonal'
loop_
_space_group_symop_operation_xyz
x,y,z
-y,1/2+x,1/2+z
1/2-x,1/2-y,z
1/2+y,-x,1/2+z
-x,-y,-z
y,1/2-x,1/2-z
1/2+x,1/2+y,-z
1/2-y,x,1/2-z
loop_
_atom_site_type_symbol
_atom_site_label
_atom_site_fract_x
_atom_site_fract_y
_atom_site_fract_z
Si Si1 0.067029 0.553267 0.328968
Si Si2 0.246852 0.864947 0.205677
Si Si3 0.163674 0.369408 0.437213
Si Si4 0.762703 0.016000 0.015530
Si Si5 0.250000 0.250000 0.250000
Si Si6 0.886966 0.458878 0.204615
Si Si7 0.609276 0.728268 0.187709
O O1 0.156655 0.589226 0.255459
O O2 0.105187 0.467807 0.411644
O O3 0.029960 0.645159 0.401115
O O4 0.984738 0.509443 0.247069
O O5 0.250000 0.750000 0.213021
O O6 0.154701 0.899004 0.278348
O O7 0.234394 0.900412 0.077381
O O8 0.228838 0.340681 0.331026
O O9 0.222473 0.373507 0.554435
O O10 0.085291 0.283843 0.454014
O O11 0.661892 0.017428 0.083904
O O12 0.802988 0.499873 0.288893
O O13 0.647834 0.825603 0.245725
#
# Coordination Sequence:
#
# PCOD9545355 Si02
#       7
#     8   8   8   8   2   8   8
#     4  12  26  50  74 109 150 198 251 308 382 458
#     4  12  28  48  73 111 152 199 255 315 379 462
#     4  12  24  45  73 102 150 197 246 309 383 448
#     4  12  25  48  75 108 144 201 250 310 384 452
#     4  12  28  44  66 108 148 196 244 314 380 452
#     4  12  24  47  77 106 150 193 256 313 373 457
#     4  11  22  41  72 111 144 190 251 311 370 449
#
# _framework density 22.213446999999999
#
# number of rings (size 3 to 8) (size 9 to 14) (size 15 to 20)
#    0.000    0.160    6.400    3.360    2.240    0.640 
#    0.000    0.000    0.000    0.000    0.000    0.000 
#    0.000    0.000    0.000    0.000    0.000    0.000 
#
# Total GULP energy -279871.018756 kJ/mol
# GULP energy per Si atom -5597.420375 kJ/mol
# Density = 2.216289 g / cm^3
# Si number density = 22.213447 Si / 1000 Ang^3
#
#
#
# Elastic Constant Matrix: (Units=GPa)
#
#
# Indices 1 2 3 4 5 6 
#
# 1 83.3142 16.8013 35.0221 0.0000 0.0000 9.5236
# 2 16.8013 83.3142 35.0221 0.0000 0.0000 -9.5236
# 3 35.0221 35.0221 107.0154 0.0000 0.0000 0.0000
# 4 0.0000 0.0000 0.0000 28.0841 0.0000 0.0000
# 5 0.0000 0.0000 0.0000 0.0000 28.0841 0.0000
# 6 9.5236 -9.5236 0.0000 0.0000 0.0000 29.9737
#
#
#
# Elastic Compliance Matrix: (Units=1/GPa)
#
#
# Indices 1 2 3 4 5 6 
#
# 1 0.014747 -0.001793 -0.004240 0.000000 0.000000 -0.005255
# 2 -0.001793 0.014747 -0.004240 0.000000 0.000000 0.005255
# 3 -0.004240 -0.004240 0.012119 0.000000 0.000000 0.000000
# 4 0.000000 0.000000 0.000000 0.035607 0.000000 0.000000
# 5 0.000000 0.000000 0.000000 0.000000 0.035607 0.000000
# 6 -0.005255 0.005255 0.000000 0.000000 0.000000 0.036702
#
#
# Mechanical properties :
#
#
# Convention : Reuss Voigt Hill
#
# Bulk Modulus (GPa) = 47.46011 49.70386 48.58198
# Shear Modulus (GPa) = 28.23315 29.68162 28.95738
#
# Velocity S-wave (km/s) = 3.56897 3.65937 3.61445
# Velocity P-wave (km/s) = 6.19639 6.34656 6.27192
#
# Compressibility (1/GPa) = 0.02107033
#
# Stress axis : x y z
#
# Youngs Moduli (GPa) = 67.80995 67.80995 82.51277
#
# Poissons Ratio (x) = 0.12155 0.34982
# Poissons Ratio (y) = 0.12155 0.34982
# Poissons Ratio (z) = 0.28748 0.28748
#
# Static dielectric constant tensor:
#      x y z
#    x 1.830480 0.000000 0.000000 
#    y 0.000000 1.830480 0.000000 
#    z 0.000000 0.000000 1.808150 
# 
# From -- ./inp_files/2333.got.cif
#   From: 2010.05.17/outbox.cif.g08.bks.cpg/sg86_2_cif.got.tgz:2333.got - 2010.06.03 19:03:11.
