data_PCOD9545470
_publ_section_title
;
Structure prediction by ZEFSAII (Michael W. Deem and Ramdas Pophale) SiO2 
 PCOD9545470
Probable space group: P 42/N
;
_chemical_formula_sum "Si O2"
_cell_formula_units_Z 56
_cell_length_a 15.000000
_cell_length_b 15.000000
_cell_length_c 12.000000
_cell_angle_alpha 90.000000
_cell_angle_beta 90.000000
_cell_angle_gamma 90.000000
_cell_volume 2700.000000
_symmetry_space_group_name_H-M "P 42/N"
_symmetry_group_IT_number 86
_space_group.IT_coordinate_system_code '2'
_symmetry_cell_setting 'tetragonal'
loop_
_space_group_symop_operation_xyz
x,y,z
-y,1/2+x,1/2+z
1/2-x,1/2-y,z
1/2+y,-x,1/2+z
-x,-y,-z
y,1/2-x,1/2-z
1/2+x,1/2+y,-z
1/2-y,x,1/2-z
loop_
_atom_site_type_symbol
_atom_site_label
_atom_site_fract_x
_atom_site_fract_y
_atom_site_fract_z
Si Si1 0.826701 0.536724 0.411597
Si Si2 0.552659 0.727886 0.332790
Si Si3 0.476935 0.419723 0.345539
Si Si4 0.914717 0.027193 0.126992
Si Si5 0.786212 0.353018 0.504661
Si Si6 0.407821 0.605514 0.443648
Si Si7 0.330312 0.187043 0.030909
O O1 0.810222 0.574176 0.288188
O O2 0.798129 0.431667 0.411965
O O3 0.756771 0.590938 0.491917
O O4 0.934755 0.546546 0.435106
O O5 0.521076 0.829208 0.318385
O O6 0.465562 0.679677 0.382411
O O7 0.631248 0.706399 0.422360
O O8 0.514788 0.435112 0.219840
O O9 0.443028 0.514517 0.390571
O O10 0.559817 0.392501 0.426628
O O11 0.390431 0.358578 0.379652
O O12 0.871208 0.116638 0.065877
O O13 0.750000 0.250000 0.475911
O O14 0.697863 0.384680 0.571494
O O15 0.250000 0.250000 0.071570
#
# Coordination Sequence:
#
# PCOD9545470 Si02
#       7
#     8   8   8   8   8   8   8
#     4  12  24  42  68 104 141 175 230 299 355 410
#     4  11  22  39  68 106 133 173 234 292 350 413
#     4  10  22  43  70  97 137 182 221 291 358 417
#     4  12  24  43  68 103 139 181 237 292 344 420
#     4  12  26  46  64  95 139 190 235 289 344 422
#     4  10  20  43  65  93 134 177 228 281 353 420
#     4  11  23  40  73 104 141 180 229 289 355 417
#
# _framework density 20.740741
#
# number of rings (size 3 to 8) (size 9 to 14) (size 15 to 20)
#    0.000    0.857    5.714    2.143    2.000    0.000 
#    5.143    1.429    0.000    0.000    0.000    0.000 
#    0.000    0.000    0.000    0.000    0.000    0.000 
#
# Total GULP energy -311825.252783 kJ/mol
# GULP energy per Si atom -5568.308085 kJ/mol
# Density = 2.069353 g / cm^3
# Si number density = 20.740741 Si / 1000 Ang^3
#
#
#
# Elastic Constant Matrix: (Units=GPa)
#
#
# Indices 1 2 3 4 5 6 
#
# 1 150.5009 38.0134 15.8245 0.0000 0.0000 -0.1836
# 2 38.0134 150.5009 15.8245 0.0000 0.0000 0.1836
# 3 15.8245 15.8245 18.9929 0.0000 0.0000 0.0000
# 4 0.0000 0.0000 0.0000 29.8433 0.0000 0.0000
# 5 0.0000 0.0000 0.0000 0.0000 29.8433 0.0000
# 6 -0.1836 0.1836 0.0000 0.0000 0.0000 48.1127
#
#
#
# Elastic Compliance Matrix: (Units=1/GPa)
#
#
# Indices 1 2 3 4 5 6 
#
# 1 0.007529 -0.001361 -0.005138 0.000000 0.000000 0.000034
# 2 -0.001361 0.007529 -0.005138 0.000000 0.000000 -0.000034
# 3 -0.005138 -0.005138 0.061214 0.000000 0.000000 0.000000
# 4 0.000000 0.000000 0.000000 0.033508 0.000000 0.000000
# 5 0.000000 0.000000 0.000000 0.000000 0.033508 0.000000
# 6 0.000034 -0.000034 0.000000 0.000000 0.000000 0.020785
#
#
# Mechanical properties :
#
#
# Convention : Reuss Voigt Hill
#
# Bulk Modulus (GPa) = 18.86987 51.03550 34.95268
# Shear Modulus (GPa) = 24.38856 38.24867 31.31861
#
# Velocity S-wave (km/s) = 3.43283 4.29900 3.89009
# Velocity P-wave (km/s) = 4.98298 7.02151 6.08817
#
# Compressibility (1/GPa) = 0.05299453
#
# Stress axis : x y z
#
# Youngs Moduli (GPa) = 132.82583 132.82583 16.33617
#
# Poissons Ratio (x) = 0.18082 0.08394
# Poissons Ratio (y) = 0.18082 0.08394
# Poissons Ratio (z) = 0.68252 0.68252
#
# Static dielectric constant tensor:
#      x y z
#    x 1.796230 0.000000 0.000000 
#    y 0.000000 1.796230 0.000000 
#    z 0.000000 0.000000 1.766870 
# 
# From -- ./inp_files/2387.got.cif
#   From: 2010.05.17/outbox.ucp.g08.bks.cvg/sg86_2_cif.got.tgz:2387.got - 2010.06.11 10:35:13.
