data_PCOD9545546
_publ_section_title
;
Structure prediction by ZEFSAII (Michael W. Deem and Ramdas Pophale) SiO2 
 PCOD9545546
Probable space group: I 4/M
;
_chemical_formula_sum "Si O2"
_cell_formula_units_Z 112
_cell_length_a 26.100524
_cell_length_b 26.100524
_cell_length_c 10.416411
_cell_angle_alpha 90.000000
_cell_angle_beta 90.000000
_cell_angle_gamma 90.000000
_cell_volume 7096.048258
_symmetry_space_group_name_H-M "I 4/M"
_symmetry_group_IT_number 87
_symmetry_cell_setting 'tetragonal'
loop_
_space_group_symop_operation_xyz
x,y,z
-y,x,z
-x,-y,z
y,-x,z
-x,-y,-z
y,-x,-z
x,y,-z
-y,x,-z
1/2+x,1/2+y,1/2+z
1/2-y,1/2+x,1/2+z
1/2-x,1/2-y,1/2+z
1/2+y,1/2-x,1/2+z
1/2-x,1/2-y,1/2-z
1/2+y,1/2-x,1/2-z
1/2+x,1/2+y,1/2-z
1/2-y,1/2+x,1/2-z
loop_
_atom_site_type_symbol
_atom_site_label
_atom_site_fract_x
_atom_site_fract_y
_atom_site_fract_z
Si Si1 0.835723 0.238821 0.727961
Si Si2 0.104661 0.306304 0.150171
Si Si3 0.764208 0.318414 0.142479
Si Si4 0.069395 0.814270 0.152517
Si Si5 0.984064 0.293446 0.150889
Si Si6 0.905259 0.330972 0.643672
Si Si7 0.421625 0.474260 0.343681
O O1 0.806399 0.273965 0.832814
O O2 0.790774 0.208921 0.655804
O O3 0.876220 0.199643 0.786841
O O4 0.869299 0.280109 0.649804
O O5 0.139499 0.273223 0.246832
O O6 0.123119 0.365077 0.166377
O O7 0.044337 0.300566 0.174217
O O8 0.114652 0.292641 0.000000
O O9 0.770582 0.340006 0.000000
O O10 0.032264 0.765678 0.172354
O O11 0.045025 0.866808 0.202186
O O12 0.076614 0.819482 0.000000
O O13 0.947963 0.325352 0.246889
O O14 0.973813 0.305192 0.000000
O O15 0.926989 0.335293 0.500000
O O16 0.468297 0.437209 0.304732
O O17 0.420604 0.474617 0.500000
#
# Coordination Sequence:
#
# PCOD9545546 Si02
#       7
#    16  16  16  16  16  16  16
#     4   9  18  29  43  64  93 122 153 191 229 271
#     4   9  19  33  48  69  97 125 153 190 236 278
#     4  10  19  30  46  67  93 125 159 191 226 277
#     4   9  16  26  42  63  87 118 152 185 227 275
#     4   9  18  32  48  69  95 120 151 192 232 274
#     4   9  17  31  50  68  90 124 157 185 227 279
#     4   8  14  24  37  55  81 113 149 187 224 263
#
# _framework density 15.783433
#
# number of rings (size 3 to 8) (size 9 to 14) (size 15 to 20)
#    0.000    3.000    0.000    1.286    0.000    9.143 
#    0.000    2.857    0.000    0.429    0.000    3.000 
#    0.000    0.000    0.000   40.571    0.000   14.429 
#
# Total GULP energy -311751.315609 kJ/mol
# GULP energy per Si atom -5566.987779 kJ/mol
# Density = 1.574751 g / cm^3
# Si number density = 15.783433 Si / 1000 Ang^3
#
#
#
# Elastic Constant Matrix: (Units=GPa)
#
#
# Indices 1 2 3 4 5 6 
#
# 1 86.9103 38.9434 44.1388 0.0000 0.0000 10.3974
# 2 38.9434 86.9103 44.1388 0.0000 0.0000 -10.3974
# 3 44.1388 44.1388 76.2918 0.0000 0.0000 0.0000
# 4 0.0000 0.0000 0.0000 12.1361 0.0000 0.0000
# 5 0.0000 0.0000 0.0000 0.0000 12.1361 0.0000
# 6 10.3974 -10.3974 0.0000 0.0000 0.0000 11.6483
#
#
#
# Elastic Compliance Matrix: (Units=1/GPa)
#
#
# Indices 1 2 3 4 5 6 
#
# 1 0.023690 -0.010318 -0.007737 0.000000 0.000000 -0.030356
# 2 -0.010318 0.023690 -0.007737 0.000000 0.000000 0.030356
# 3 -0.007737 -0.007737 0.022060 0.000000 0.000000 0.000000
# 4 0.000000 0.000000 0.000000 0.082399 0.000000 0.000000
# 5 0.000000 0.000000 0.000000 0.000000 0.082399 0.000000
# 6 -0.030356 0.030356 0.000000 0.000000 0.000000 0.140041
#
#
# Mechanical properties :
#
#
# Convention : Reuss Voigt Hill
#
# Bulk Modulus (GPa) = 55.99742 56.06157 56.02950
# Shear Modulus (GPa) = 11.57908 15.37687 13.47797
#
# Velocity S-wave (km/s) = 2.71149 3.12467 2.92538
# Velocity P-wave (km/s) = 6.73487 6.97241 6.85467
#
# Compressibility (1/GPa) = 0.01785796
#
# Stress axis : x y z
#
# Youngs Moduli (GPa) = 42.21172 42.21172 45.33151
#
# Poissons Ratio (x) = 0.43553 0.35071
# Poissons Ratio (y) = 0.43553 0.35071
# Poissons Ratio (z) = 0.32658 0.32658
#
# Static dielectric constant tensor:
#      x y z
#    x 1.516970 0.000000 0.000000 
#    y 0.000000 1.516970 0.000000 
#    z 0.000000 0.000000 1.536250 
# 
# From -- ./inp_files/2919.got.cif
#   From: 2010.05.17/outbox.cif.g08.bks.cpg/sg87_2_cif.got.tgz:2919.got - 2010.06.03 19:07:00.
