data_PCOD9545358
_publ_section_title
;
Structure prediction by ZEFSAII (Michael W. Deem and Ramdas Pophale) SiO2 
 PCOD9545358
Probable space group: P 42/N
;
_chemical_formula_sum "Si O2"
_cell_formula_units_Z 32
_cell_length_a 8.889907
_cell_length_b 8.889907
_cell_length_c 18.947249
_cell_angle_alpha 90.000000
_cell_angle_beta 90.000000
_cell_angle_gamma 90.000000
_cell_volume 1497.409548
_symmetry_space_group_name_H-M "P 42/N"
_symmetry_group_IT_number 86
_space_group.IT_coordinate_system_code '2'
_symmetry_cell_setting 'tetragonal'
loop_
_space_group_symop_operation_xyz
x,y,z
-y,1/2+x,1/2+z
1/2-x,1/2-y,z
1/2+y,-x,1/2+z
-x,-y,-z
y,1/2-x,1/2-z
1/2+x,1/2+y,-z
1/2-y,x,1/2-z
loop_
_atom_site_type_symbol
_atom_site_label
_atom_site_fract_x
_atom_site_fract_y
_atom_site_fract_z
Si Si1 0.028960 0.295131 0.720136
Si Si2 0.678960 0.084897 0.073879
Si Si3 0.916863 0.816610 0.569192
Si Si4 0.701839 0.980185 0.775700
O O1 0.161380 0.418007 0.728284
O O2 0.009557 0.232436 0.641710
O O3 0.876052 0.373698 0.744586
O O4 0.750000 0.250000 0.078714
O O5 0.497886 0.091607 0.072803
O O6 0.727348 0.006820 0.000826
O O7 0.750000 0.750000 0.567121
O O8 0.992840 0.761797 0.641869
O O9 0.844934 0.920231 0.732866
#
# Coordination Sequence:
#
# PCOD9545358 Si02
#       4
#     8   8   8   8
#     4  11  25  43  68 100 137 181 234 291 351 412
#     4  11  26  47  68 103 140 184 234 292 352 418
#     4  11  24  46  71  97 144 182 229 289 351 422
#     4  11  22  43  69 102 135 184 233 285 350 420
#
# _framework density 21.370241
#
# number of rings (size 3 to 8) (size 9 to 14) (size 15 to 20)
#    0.000    1.000    5.000    1.500    3.500    1.000 
#    4.500    0.000    0.000    0.000    0.000    0.000 
#    0.000    0.000    0.000    0.000    0.000    0.000 
#
# Total GULP energy -179123.215827 kJ/mol
# GULP energy per Si atom -5597.600495 kJ/mol
# Density = 2.132160 g / cm^3
# Si number density = 21.370241 Si / 1000 Ang^3
#
#
#
# Elastic Constant Matrix: (Units=GPa)
#
#
# Indices 1 2 3 4 5 6 
#
# 1 54.5483 54.4454 48.9473 0.0000 0.0000 5.5857
# 2 54.4454 54.5483 48.9473 0.0000 0.0000 -5.5857
# 3 48.9473 48.9473 193.8446 0.0000 0.0000 0.0000
# 4 0.0000 0.0000 0.0000 25.2420 0.0000 0.0000
# 5 0.0000 0.0000 0.0000 0.0000 25.2420 0.0000
# 6 5.5857 -5.5857 0.0000 0.0000 0.0000 53.8210
#
#
#
# Elastic Compliance Matrix: (Units=1/GPa)
#
#
# Indices 1 2 3 4 5 6 
#
# 1 -0.467333 0.479199 -0.002996 0.000000 0.000000 0.098234
# 2 0.479199 -0.467333 -0.002996 0.000000 0.000000 -0.098234
# 3 -0.002996 -0.002996 0.006672 0.000000 0.000000 0.000000
# 4 0.000000 0.000000 0.000000 0.039617 0.000000 0.000000
# 5 0.000000 0.000000 0.000000 0.000000 0.039617 0.000000
# 6 0.098234 -0.098234 0.000000 0.000000 0.000000 -0.001810
#
#
# Mechanical properties :
#
#
# Convention : Reuss Voigt Hill
#
# Bulk Modulus (GPa) = 54.29212 67.51348 60.90280
# Shear Modulus (GPa) = -2.79198 30.90107 14.05454
#
# Velocity S-wave (km/s) = -1.14425 3.80674 2.56729
# Velocity P-wave (km/s) = 4.86979 7.14021 6.11136
#
# Compressibility (1/GPa) = 0.01841888
#
# Stress axis : x y z
#
# Youngs Moduli (GPa) = -2.13980 -2.13980 149.88167
#
# Poissons Ratio (x) = 1.02539 0.44908
# Poissons Ratio (y) = 1.02539 0.44908
# Poissons Ratio (z) = -0.00641 -0.00641
#
# Static dielectric constant tensor:
#      x y z
#    x 1.781480 0.000000 0.000000 
#    y 0.000000 1.781480 0.000000 
#    z 0.000000 0.000000 1.740560 
# 
# From -- ./inp_files/3821.got.cif
#   From: 2010.05.17/outbox.cif.g08.bks.cpg/sg86_2_cif.got.tgz:3821.got - 2010.06.03 19:03:11.
