data_PCOD9545752
_publ_section_title
;
Structure prediction by ZEFSAII (Michael W. Deem and Ramdas Pophale) SiO2 
 PCOD9545752
Probable space group: I 4/M
;
_chemical_formula_sum "Si O2"
_cell_formula_units_Z 48
_cell_length_a 10.859426
_cell_length_b 10.859426
_cell_length_c 21.080817
_cell_angle_alpha 90.000000
_cell_angle_beta 90.000000
_cell_angle_gamma 90.000000
_cell_volume 2486.000311
_symmetry_space_group_name_H-M "I 4/M"
_symmetry_group_IT_number 87
_symmetry_cell_setting 'tetragonal'
loop_
_space_group_symop_operation_xyz
x,y,z
-y,x,z
-x,-y,z
y,-x,z
-x,-y,-z
y,-x,-z
x,y,-z
-y,x,-z
1/2+x,1/2+y,1/2+z
1/2-y,1/2+x,1/2+z
1/2-x,1/2-y,1/2+z
1/2+y,1/2-x,1/2+z
1/2-x,1/2-y,1/2-z
1/2+y,1/2-x,1/2-z
1/2+x,1/2+y,1/2-z
1/2-y,1/2+x,1/2-z
loop_
_atom_site_type_symbol
_atom_site_label
_atom_site_fract_x
_atom_site_fract_y
_atom_site_fract_z
Si Si1 0.473521 0.856926 0.576086
Si Si2 0.786709 0.191206 0.143805
Si Si3 0.400858 0.669519 0.775412
O O1 0.473192 0.854715 0.500000
O O2 0.344941 0.800877 0.602031
O O3 0.578910 0.762406 0.601399
O O4 0.500000 0.000000 0.595675
O O5 0.670073 0.225837 0.187656
O O6 0.888366 0.173110 0.199324
O O7 0.336735 0.541843 0.794040
#
# Coordination Sequence:
#
# PCOD9545752 Si02
#       3
#    16  16  16
#     4  11  24  41  61  87 121 162 209 250 297 364
#     4  11  21  38  58  88 118 160 198 247 307 355
#     4  10  20  36  57  85 120 152 196 252 297 364
#
# _framework density 19.308122000000001
#
# number of rings (size 3 to 8) (size 9 to 14) (size 15 to 20)
#    0.000    1.333    3.333    3.000    0.000    0.667 
#    0.000    1.667    0.000    0.000    0.000   14.000 
#    0.000    0.000    0.000    0.000    0.000    0.000 
#
# Total GULP energy -133694.088588 kJ/mol
# GULP energy per Si atom -5570.587025 kJ/mol
# Density = 1.926418 g / cm^3
# Si number density = 19.308122 Si / 1000 Ang^3
#
#
#
# Elastic Constant Matrix: (Units=GPa)
#
#
# Indices 1 2 3 4 5 6 
#
# 1 -30.1223 77.6651 24.6463 0.0000 0.0000 -16.7692
# 2 77.6651 -30.1223 24.6463 0.0000 0.0000 16.7692
# 3 24.6463 24.6463 82.1814 0.0000 0.0000 0.0000
# 4 0.0000 0.0000 0.0000 22.5256 0.0000 0.0000
# 5 0.0000 0.0000 0.0000 0.0000 22.5256 0.0000
# 6 -16.7692 16.7692 0.0000 0.0000 0.0000 27.0178
#
#
#
# Elastic Compliance Matrix: (Units=1/GPa)
#
#
# Indices 1 2 3 4 5 6 
#
# 1 0.011375 0.019151 -0.009155 0.000000 0.000000 -0.004826
# 2 0.019151 0.011375 -0.009155 0.000000 0.000000 0.004826
# 3 -0.009155 -0.009155 0.017659 0.000000 0.000000 0.000000
# 4 0.000000 0.000000 0.000000 0.044394 0.000000 0.000000
# 5 0.000000 0.000000 0.000000 0.000000 0.044394 0.000000
# 6 -0.004826 0.004826 0.000000 0.000000 0.000000 0.031022
#
#
# Mechanical properties :
#
#
# Convention : Reuss Voigt Hill
#
# Bulk Modulus (GPa) = 23.75786 30.65026 27.20406
# Shear Modulus (GPa) = 28.97445 7.41239 18.19342
#
# Velocity S-wave (km/s) = 3.87801 1.96146 3.07297
# Velocity P-wave (km/s) = 5.69063 4.58678 5.16826
#
# Compressibility (1/GPa) = 0.04209133
#
# Stress axis : x y z
#
# Youngs Moduli (GPa) = 87.91441 87.91441 56.62791
#
# Poissons Ratio (x) = -1.68361 0.51840
# Poissons Ratio (y) = -1.68361 0.51840
# Poissons Ratio (z) = 0.80482 0.80482
#
# Static dielectric constant tensor:
#      x y z
#    x 1.693030 0.000000 0.000000 
#    y 0.000000 1.693030 0.000000 
#    z 0.000000 0.000000 1.658030 
# 
# From -- ./inp_files/4065.got.cif
#   From: 2010.05.17/outbox.cif.g08.bks.cpg/sg87_3_cif.got.tgz:4065.got - 2010.06.03 19:07:00.
