data_PCOD9545699
_publ_section_title
;
Structure prediction by ZEFSAII (Michael W. Deem and Ramdas Pophale) SiO2 
 PCOD9545699
Probable space group: I 4/M
;
_chemical_formula_sum "Si O2"
_cell_formula_units_Z 84
_cell_length_a 13.008663
_cell_length_b 13.008663
_cell_length_c 20.296925
_cell_angle_alpha 90.000000
_cell_angle_beta 90.000000
_cell_angle_gamma 90.000000
_cell_volume 3434.753487
_symmetry_space_group_name_H-M "I 4/M"
_symmetry_group_IT_number 87
_symmetry_cell_setting 'tetragonal'
loop_
_space_group_symop_operation_xyz
x,y,z
-y,x,z
-x,-y,z
y,-x,z
-x,-y,-z
y,-x,-z
x,y,-z
-y,x,-z
1/2+x,1/2+y,1/2+z
1/2-y,1/2+x,1/2+z
1/2-x,1/2-y,1/2+z
1/2+y,1/2-x,1/2+z
1/2-x,1/2-y,1/2-z
1/2+y,1/2-x,1/2-z
1/2+x,1/2+y,1/2-z
1/2-y,1/2+x,1/2-z
loop_
_atom_site_type_symbol
_atom_site_label
_atom_site_fract_x
_atom_site_fract_y
_atom_site_fract_z
Si Si1 0.500000 0.500000 0.324176
Si Si2 0.210177 0.378732 0.606153
Si Si3 0.903139 0.781850 0.862495
Si Si4 0.622474 0.115433 0.748019
Si Si5 0.614821 0.988044 0.426545
Si Si6 0.838455 0.959644 0.580056
O O1 0.441904 0.387431 0.329452
O O2 0.234678 0.499658 0.599367
O O3 0.309580 0.312634 0.590609
O O4 0.184176 0.362192 0.683667
O O5 0.106994 0.351708 0.569462
O O6 0.870472 0.704105 0.805343
O O7 0.505121 0.131483 0.770722
O O8 0.596858 0.945789 0.500000
O O9 0.720606 0.937702 0.400457
O O10 0.500000 0.000000 0.394508
O O11 0.839516 0.959659 0.500000
O O12 0.879915 0.072689 0.602147
#
# Coordination Sequence:
#
# PCOD9545699 Si02
#       6
#     4  16  16  16  16  16
#     4   8  16  32  52  72 105 144 177 228 268 336
#     4  10  20  34  54  77 107 142 181 225 275 331
#     4   9  18  33  54  77 103 142 186 221 278 337
#     4   9  18  31  52  81 107 135 174 225 278 337
#     4  10  22  36  52  80 113 146 188 236 279 329
#     4   8  15  32  57  77  99 137 182 226 278 334
#
# _framework density 24.455905999999999
#
# number of rings (size 3 to 8) (size 9 to 14) (size 15 to 20)
#    0.000    2.857    0.000    1.143    5.333    1.524 
#    0.000    2.857    0.000    0.000    0.000    4.000 
#    0.000    0.000    0.000    0.000    0.000    0.000 
#
# Total GULP energy -234094.645684 kJ/mol
# GULP energy per Si atom -5573.682040 kJ/mol
# Density = 2.440024 g / cm^3
# Si number density = 24.455906 Si / 1000 Ang^3
#
#
#
# Elastic Constant Matrix: (Units=GPa)
#
#
# Indices 1 2 3 4 5 6 
#
# 1 148.8387 14.1256 21.8029 0.0000 0.0000 -21.5650
# 2 14.1256 148.8387 21.8029 0.0000 0.0000 21.5650
# 3 21.8029 21.8029 37.2509 0.0000 0.0000 0.0000
# 4 0.0000 0.0000 0.0000 12.3831 0.0000 0.0000
# 5 0.0000 0.0000 0.0000 0.0000 12.3831 0.0000
# 6 -21.5650 21.5650 0.0000 0.0000 0.0000 39.8307
#
#
#
# Elastic Compliance Matrix: (Units=1/GPa)
#
#
# Indices 1 2 3 4 5 6 
#
# 1 0.008128 -0.000852 -0.004259 0.000000 0.000000 0.004862
# 2 -0.000852 0.008128 -0.004259 0.000000 0.000000 -0.004862
# 3 -0.004259 -0.004259 0.031830 0.000000 0.000000 0.000000
# 4 0.000000 0.000000 0.000000 0.080755 0.000000 0.000000
# 5 0.000000 0.000000 0.000000 0.000000 0.080755 0.000000
# 6 0.004862 -0.004862 0.000000 0.000000 0.000000 0.030371
#
#
# Mechanical properties :
#
#
# Convention : Reuss Voigt Hill
#
# Bulk Modulus (GPa) = 34.07446 50.04347 42.05896
# Shear Modulus (GPa) = 18.62287 31.39918 25.01102
#
# Velocity S-wave (km/s) = 2.76250 3.58706 3.20144
# Velocity P-wave (km/s) = 4.91309 6.13703 5.55885
#
# Compressibility (1/GPa) = 0.02934750
#
# Stress axis : x y z
#
# Youngs Moduli (GPa) = 123.03496 123.03496 31.41694
#
# Poissons Ratio (x) = 0.10482 0.13379
# Poissons Ratio (y) = 0.10482 0.13379
# Poissons Ratio (z) = 0.52395 0.52395
#
# Static dielectric constant tensor:
#      x y z
#    x 1.951060 0.000000 0.000000 
#    y 0.000000 1.951060 0.000000 
#    z 0.000000 0.000000 1.905960 
# 
# From -- ./inp_files/6564.got.cif
#   From: 2010.05.17/outbox.cif.g08.bks.cpg/sg87_4_cif.got.tgz:6564.got - 2010.06.03 19:07:00.
