data_PCOD9545963
_publ_section_title
;
Structure prediction by ZEFSAII (Michael W. Deem and Ramdas Pophale) SiO2 
 PCOD9545963
Probable space group: I 4/M
;
_chemical_formula_sum "Si O2"
_cell_formula_units_Z 88
_cell_length_a 17.941696
_cell_length_b 17.941696
_cell_length_c 13.774578
_cell_angle_alpha 90.000000
_cell_angle_beta 90.000000
_cell_angle_gamma 90.000000
_cell_volume 4434.098029
_symmetry_space_group_name_H-M "I 4/M"
_symmetry_group_IT_number 87
_symmetry_cell_setting 'tetragonal'
loop_
_space_group_symop_operation_xyz
x,y,z
-y,x,z
-x,-y,z
y,-x,z
-x,-y,-z
y,-x,-z
x,y,-z
-y,x,-z
1/2+x,1/2+y,1/2+z
1/2-y,1/2+x,1/2+z
1/2-x,1/2-y,1/2+z
1/2+y,1/2-x,1/2+z
1/2-x,1/2-y,1/2-z
1/2+y,1/2-x,1/2-z
1/2+x,1/2+y,1/2-z
1/2-y,1/2+x,1/2-z
loop_
_atom_site_type_symbol
_atom_site_label
_atom_site_fract_x
_atom_site_fract_y
_atom_site_fract_z
Si Si1 0.604335 0.441352 0.363803
Si Si2 0.782246 0.133455 0.000000
Si Si3 0.988095 0.619629 0.777757
Si Si4 0.994830 0.670493 0.000000
Si Si5 0.110938 0.952132 0.366956
Si Si6 0.704316 0.839087 0.000000
Si Si7 0.717294 0.068043 0.394679
O O1 0.597999 0.527448 0.393731
O O2 0.672500 0.398028 0.408246
O O3 0.609025 0.445168 0.248897
O O4 0.789664 0.221804 0.000000
O O5 0.706990 0.087029 0.000000
O O6 0.920772 0.561774 0.761995
O O7 0.969932 0.688024 0.704022
O O8 0.998321 0.632286 0.893339
O O9 0.071957 0.719229 0.000000
O O10 0.193299 0.927888 0.395525
O O11 0.037900 0.905053 0.396174
O O12 0.650681 0.817518 0.909310
O O13 0.694841 0.031105 0.500000
#
# Coordination Sequence:
#
# PCOD9545963 Si02
#       7
#    16   8  16   8  16   8  16
#     4   9  17  31  54  88 124 165 220 272 324 395
#     4  12  22  35  61  89 132 175 219 270 347 413
#     4  11  24  44  73  98 130 178 236 290 342 404
#     4  12  24  44  70 101 133 177 232 281 351 415
#     4   9  19  38  63  93 129 176 230 276 332 414
#     4  10  24  45  60  94 144 171 223 289 340 413
#     4  10  22  43  64  93 138 179 215 281 353 387
#
# _framework density 19.846201000000001
#
# number of rings (size 3 to 8) (size 9 to 14) (size 15 to 20)
#    0.545    1.273    1.818    3.818    1.273    3.636 
#    3.273    2.727    0.000    0.000    0.000    0.000 
#    0.000    0.000    0.000    0.000    0.000    0.000 
#
# Total GULP energy -244936.507015 kJ/mol
# GULP energy per Si atom -5566.738796 kJ/mol
# Density = 1.980103 g / cm^3
# Si number density = 19.846201 Si / 1000 Ang^3
#
#
#
# Elastic Constant Matrix: (Units=GPa)
#
#
# Indices 1 2 3 4 5 6 
#
# 1 73.2597 30.3861 29.2819 0.0000 0.0000 -4.2085
# 2 30.3861 73.2597 29.2819 0.0000 0.0000 4.2085
# 3 29.2819 29.2819 152.3066 0.0000 0.0000 0.0000
# 4 0.0000 0.0000 0.0000 10.8002 0.0000 0.0000
# 5 0.0000 0.0000 0.0000 0.0000 10.8002 0.0000
# 6 -4.2085 4.2085 0.0000 0.0000 0.0000 27.1293
#
#
#
# Elastic Compliance Matrix: (Units=1/GPa)
#
#
# Indices 1 2 3 4 5 6 
#
# 1 0.017441 -0.006616 -0.002081 0.000000 0.000000 0.003732
# 2 -0.006616 0.017441 -0.002081 0.000000 0.000000 -0.003732
# 3 -0.002081 -0.002081 0.007366 0.000000 0.000000 0.000000
# 4 0.000000 0.000000 0.000000 0.092591 0.000000 0.000000
# 5 0.000000 0.000000 0.000000 0.000000 0.092591 0.000000
# 6 0.003732 -0.003732 0.000000 0.000000 0.000000 0.038018
#
#
# Mechanical properties :
#
#
# Convention : Reuss Voigt Hill
#
# Bulk Modulus (GPa) = 48.33240 52.96953 50.65097
# Shear Modulus (GPa) = 17.01250 23.73765 20.37507
#
# Velocity S-wave (km/s) = 2.93100 3.46219 3.20761
# Velocity P-wave (km/s) = 5.98838 6.53684 6.26861
#
# Compressibility (1/GPa) = 0.02069006
#
# Stress axis : x y z
#
# Youngs Moduli (GPa) = 57.33755 57.33755 135.76123
#
# Poissons Ratio (x) = 0.37937 0.28252
# Poissons Ratio (y) = 0.37937 0.28252
# Poissons Ratio (z) = 0.11932 0.11932
#
# Static dielectric constant tensor:
#      x y z
#    x 1.699480 0.000000 0.000000 
#    y 0.000000 1.699480 0.000000 
#    z 0.000000 0.000000 1.765620 
# 
# From -- ./inp_files/3680.got.cif
#   From: 2010.05.17/outbox.cif.g08.bks.cpg/sg87_2_cif.got.tgz:3680.got - 2010.06.03 19:07:00.
