data_PCOD9545787
_publ_section_title
;
Structure prediction by ZEFSAII (Michael W. Deem and Ramdas Pophale) SiO2 
 PCOD9545787
Probable space group: I 4/M
;
_chemical_formula_sum "Si O2"
_cell_formula_units_Z 120
_cell_length_a 27.157626
_cell_length_b 27.157626
_cell_length_c 9.229111
_cell_angle_alpha 90.000000
_cell_angle_beta 90.000000
_cell_angle_gamma 90.000000
_cell_volume 6806.807609
_symmetry_space_group_name_H-M "I 4/M"
_symmetry_group_IT_number 87
_symmetry_cell_setting 'tetragonal'
loop_
_space_group_symop_operation_xyz
x,y,z
-y,x,z
-x,-y,z
y,-x,z
-x,-y,-z
y,-x,-z
x,y,-z
-y,x,-z
1/2+x,1/2+y,1/2+z
1/2-y,1/2+x,1/2+z
1/2-x,1/2-y,1/2+z
1/2+y,1/2-x,1/2+z
1/2-x,1/2-y,1/2-z
1/2+y,1/2-x,1/2-z
1/2+x,1/2+y,1/2-z
1/2-y,1/2+x,1/2-z
loop_
_atom_site_type_symbol
_atom_site_label
_atom_site_fract_x
_atom_site_fract_y
_atom_site_fract_z
Si Si1 0.987028 0.918643 0.000000
Si Si2 0.247640 0.036387 0.673081
Si Si3 0.810938 0.334694 0.173269
Si Si4 0.634653 0.699080 0.172406
Si Si5 0.611267 0.093932 0.172211
Si Si6 0.535528 0.675031 0.336497
Si Si7 0.004763 0.641208 0.671989
Si Si8 0.651983 0.260407 0.173773
O O1 0.980217 0.881528 0.864511
O O2 0.039352 0.945583 0.000000
O O3 0.240853 0.032194 0.500000
O O4 0.245923 0.094270 0.709078
O O5 0.205947 0.005489 0.753029
O O6 0.301518 0.014751 0.707439
O O7 0.756694 0.356019 0.203181
O O8 0.851604 0.369303 0.246788
O O9 0.817482 0.280633 0.240906
O O10 0.817538 0.333091 0.000000
O O11 0.587312 0.679699 0.256261
O O12 0.684739 0.670135 0.208696
O O13 0.626356 0.694142 0.000000
O O14 0.620190 0.039844 0.235257
O O15 0.555531 0.112138 0.196573
O O16 0.620476 0.095839 0.000000
O O17 0.540727 0.695624 0.500000
O O18 0.992943 0.638365 0.500000
O O19 0.657931 0.252924 0.000000
#
# Coordination Sequence:
#
# PCOD9545787 Si02
#       8
#     8  16  16  16  16  16  16  16
#     4   9  22  44  64  86 126 162 196 251 322 374
#     4  10  20  38  60  84 118 154 192 247 301 356
#     4  11  22  37  57  87 122 163 198 241 297 360
#     4  10  22  38  57  86 126 160 196 244 304 360
#     4  11  23  40  61  83 113 152 199 245 298 358
#     4  10  23  35  61  91 115 152 203 246 299 356
#     4  10  22  40  59  82 114 151 193 244 299 349
#     4  10  21  38  61  85 117 162 202 241 301 360
#
# _framework density 17.629408999999999
#
# number of rings (size 3 to 8) (size 9 to 14) (size 15 to 20)
#    0.400    1.400    1.333    2.400    1.867    7.200 
#    0.000    1.333    0.000    0.000    0.000    3.733 
#    0.000    0.000    0.000    0.000    0.000    0.000 
#
# Total GULP energy -335000.698476 kJ/mol
# GULP energy per Si atom -5583.344975 kJ/mol
# Density = 1.758928 g / cm^3
# Si number density = 17.629409 Si / 1000 Ang^3
#
#
#
# Elastic Constant Matrix: (Units=GPa)
#
#
# Indices 1 2 3 4 5 6 
#
# 1 92.7461 43.1734 41.7952 0.0000 0.0000 3.5161
# 2 43.1734 92.7461 41.7952 0.0000 0.0000 -3.5161
# 3 41.7952 41.7952 41.0861 0.0000 0.0000 0.0000
# 4 0.0000 0.0000 0.0000 27.6127 0.0000 0.0000
# 5 0.0000 0.0000 0.0000 0.0000 27.6127 0.0000
# 6 3.5161 -3.5161 0.0000 0.0000 0.0000 5.3374
#
#
#
# Elastic Compliance Matrix: (Units=1/GPa)
#
#
# Indices 1 2 3 4 5 6 
#
# 1 0.020952 -0.001300 -0.019991 0.000000 0.000000 -0.014659
# 2 -0.001300 0.020952 -0.019991 0.000000 0.000000 0.014659
# 3 -0.019991 -0.019991 0.065010 0.000000 0.000000 0.000000
# 4 0.000000 0.000000 0.000000 0.036215 0.000000 0.000000
# 5 0.000000 0.000000 0.000000 0.000000 0.036215 0.000000
# 6 -0.014659 0.014659 0.000000 0.000000 0.000000 0.206670
#
#
# Mechanical properties :
#
#
# Convention : Reuss Voigt Hill
#
# Bulk Modulus (GPa) = 41.06640 53.34509 47.20574
# Shear Modulus (GPa) = 10.48890 18.76686 14.62788
#
# Velocity S-wave (km/s) = 2.44184 3.26624 2.88365
# Velocity P-wave (km/s) = 5.59419 6.67452 6.15809
#
# Compressibility (1/GPa) = 0.02435081
#
# Stress axis : x y z
#
# Youngs Moduli (GPa) = 47.72900 47.72900 15.38217
#
# Poissons Ratio (x) = 0.06205 0.30750
# Poissons Ratio (y) = 0.06205 0.30750
# Poissons Ratio (z) = 0.95413 0.95413
#
# Static dielectric constant tensor:
#      x y z
#    x 1.579970 0.000000 0.000000 
#    y 0.000000 1.579970 0.000000 
#    z 0.000000 0.000000 1.584760 
# 
# From -- ./inp_files/1689.got.cif
#   From: 2010.05.17/outbox.cif.g08.bks.cpg/sg87_1_cif.got.tgz:1689.got - 2010.06.03 19:07:00.
