data_PCOD9545871
_publ_section_title
;
Structure prediction by ZEFSAII (Michael W. Deem and Ramdas Pophale) SiO2 
 PCOD9545871
Probable space group: I 4/M
;
_chemical_formula_sum "Si O2"
_cell_formula_units_Z 120
_cell_length_a 13.744859
_cell_length_b 13.744859
_cell_length_c 30.689169
_cell_angle_alpha 90.000000
_cell_angle_beta 90.000000
_cell_angle_gamma 90.000000
_cell_volume 5797.833067
_symmetry_space_group_name_H-M "I 4/M"
_symmetry_group_IT_number 87
_symmetry_cell_setting 'tetragonal'
loop_
_space_group_symop_operation_xyz
x,y,z
-y,x,z
-x,-y,z
y,-x,z
-x,-y,-z
y,-x,-z
x,y,-z
-y,x,-z
1/2+x,1/2+y,1/2+z
1/2-y,1/2+x,1/2+z
1/2-x,1/2-y,1/2+z
1/2+y,1/2-x,1/2+z
1/2-x,1/2-y,1/2-z
1/2+y,1/2-x,1/2-z
1/2+x,1/2+y,1/2-z
1/2-y,1/2+x,1/2-z
loop_
_atom_site_type_symbol
_atom_site_label
_atom_site_fract_x
_atom_site_fract_y
_atom_site_fract_z
Si Si1 0.935867 0.746905 0.411989
Si Si2 0.397773 0.631986 0.212303
Si Si3 0.498828 0.335993 0.000000
Si Si4 0.898228 0.129652 0.191379
Si Si5 0.269016 0.368228 0.125608
Si Si6 0.144603 0.279597 0.048882
Si Si7 0.051333 0.604402 0.049791
Si Si8 0.395805 0.626553 0.597137
O O1 0.865761 0.835183 0.400208
O O2 0.883811 0.643714 0.418940
O O3 0.990910 0.771643 0.456900
O O4 0.018408 0.743571 0.375980
O O5 0.369331 0.516836 0.208205
O O6 0.369887 0.667017 0.261054
O O7 0.349815 0.700312 0.175543
O O8 0.592261 0.405320 0.000000
O O9 0.864891 0.169716 0.144471
O O10 0.015734 0.130671 0.190826
O O11 0.189011 0.322510 0.093433
O O12 0.163742 0.164990 0.056140
O O13 0.033098 0.315563 0.050879
O O14 0.180345 0.307675 0.000000
O O15 0.000000 0.500000 0.058985
O O16 0.087307 0.600420 0.000000
O O17 0.370050 0.511527 0.596116
#
# Coordination Sequence:
#
# PCOD9545871 Si02
#       8
#    16  16   8  16  16  16  16  16
#     4  12  23  35  54  77 110 154 194 242 291 341
#     4   9  16  30  53  85 120 150 179 218 279 347
#     4  11  22  32  47  76 112 148 188 239 302 357
#     4   7  12  27  56  85 109 140 174 219 286 357
#     4  12  24  35  52  83 121 152 193 235 285 347
#     4  11  26  40  53  80 112 151 203 252 288 342
#     4  10  21  39  57  68  98 152 207 245 281 333
#     4   9  19  39  63  85 108 136 180 243 315 360
#
# _framework density 20.697386999999999
#
# number of rings (size 3 to 8) (size 9 to 14) (size 15 to 20)
#    0.000    1.933    4.667    1.600    3.733    0.800 
#    0.000    1.333    0.000    0.000    0.000    0.000 
#    0.000    0.000    0.000    0.000    0.000    0.000 
#
# Total GULP energy -334125.045464 kJ/mol
# GULP energy per Si atom -5568.750758 kJ/mol
# Density = 2.065028 g / cm^3
# Si number density = 20.697387 Si / 1000 Ang^3
#
#
#
# Elastic Constant Matrix: (Units=GPa)
#
#
# Indices 1 2 3 4 5 6 
#
# 1 53.5540 -7.9806 28.9175 0.0000 0.0000 -8.3079
# 2 -7.9806 53.5540 28.9175 0.0000 0.0000 8.3079
# 3 28.9175 28.9175 106.7758 0.0000 0.0000 0.0000
# 4 0.0000 0.0000 0.0000 21.9258 0.0000 0.0000
# 5 0.0000 0.0000 0.0000 0.0000 21.9258 0.0000
# 6 -8.3079 8.3079 0.0000 0.0000 0.0000 4.4932
#
#
#
# Elastic Compliance Matrix: (Units=1/GPa)
#
#
# Indices 1 2 3 4 5 6 
#
# 1 0.032944 0.000490 -0.009055 0.000000 0.000000 0.060007
# 2 0.000490 0.032944 -0.009055 0.000000 0.000000 -0.060007
# 3 -0.009055 -0.009055 0.014270 0.000000 0.000000 0.000000
# 4 0.000000 0.000000 0.000000 0.045608 0.000000 0.000000
# 5 0.000000 0.000000 0.000000 0.000000 0.045608 0.000000
# 6 0.060007 -0.060007 0.000000 0.000000 0.000000 0.444457
#
#
# Mechanical properties :
#
#
# Convention : Reuss Voigt Hill
#
# Bulk Modulus (GPa) = 22.26266 34.84360 28.55313
# Shear Modulus (GPa) = 7.50702 20.60427 14.05565
#
# Velocity S-wave (km/s) = 1.90654 3.15858 2.60879
# Velocity P-wave (km/s) = 3.95300 5.49304 4.78538
#
# Compressibility (1/GPa) = 0.04491825
#
# Stress axis : x y z
#
# Youngs Moduli (GPa) = 30.35478 30.35478 70.07804
#
# Poissons Ratio (x) = -0.01486 0.63453
# Poissons Ratio (y) = -0.01486 0.63453
# Poissons Ratio (z) = 0.27485 0.27485
#
# Static dielectric constant tensor:
#      x y z
#    x 1.774810 0.000000 0.000000 
#    y 0.000000 1.774810 0.000000 
#    z 0.000000 0.000000 1.762490 
# 
# From -- ./inp_files/6770.got.cif
#   From: 2010.05.17/outbox.cif.g08.bks.cpg/sg87_4_cif.got.tgz:6770.got - 2010.06.03 19:07:00.
