data_PCOD9545599
_publ_section_title
;
Structure prediction by ZEFSAII (Michael W. Deem and Ramdas Pophale) SiO2 
 PCOD9545599
Probable space group: I 4/M
;
_chemical_formula_sum "Si O2"
_cell_formula_units_Z 52
_cell_length_a 15.791854
_cell_length_b 15.791854
_cell_length_c 9.755838
_cell_angle_alpha 90.000000
_cell_angle_beta 90.000000
_cell_angle_gamma 90.000000
_cell_volume 2432.936760
_symmetry_space_group_name_H-M "I 4/M"
_symmetry_group_IT_number 87
_symmetry_cell_setting 'tetragonal'
loop_
_space_group_symop_operation_xyz
x,y,z
-y,x,z
-x,-y,z
y,-x,z
-x,-y,-z
y,-x,-z
x,y,-z
-y,x,-z
1/2+x,1/2+y,1/2+z
1/2-y,1/2+x,1/2+z
1/2-x,1/2-y,1/2+z
1/2+y,1/2-x,1/2+z
1/2-x,1/2-y,1/2-z
1/2+y,1/2-x,1/2-z
1/2+x,1/2+y,1/2-z
1/2-y,1/2+x,1/2-z
loop_
_atom_site_type_symbol
_atom_site_label
_atom_site_fract_x
_atom_site_fract_y
_atom_site_fract_z
Si Si1 0.520287 0.869602 0.000000
Si Si2 0.394067 0.229732 0.500000
Si Si3 0.205920 0.419727 0.500000
Si Si4 0.328903 0.687295 0.276507
Si Si5 0.000000 0.500000 0.250000
Si Si6 0.772721 0.892701 0.500000
O O1 0.621311 0.865402 0.000000
O O2 0.496797 0.921048 0.141551
O O3 0.480894 0.776672 0.000000
O O4 0.482057 0.181027 0.500000
O O5 0.387430 0.289374 0.366670
O O6 0.311265 0.169895 0.500000
O O7 0.261505 0.394674 0.370184
O O8 0.250000 0.750000 0.250000
O O9 0.372432 0.672563 0.132676
#
# Coordination Sequence:
#
# PCOD9545599 Si02
#       6
#     8   8   8  16   4   8
#     4  11  21  32  49  81 118 154 191 227 295 364
#     4   9  19  37  56  76 108 155 209 240 277 352
#     4  11  21  35  58  83 113 156 196 247 300 356
#     4   9  20  37  55  78 113 157 203 244 288 350
#     4  10  20  30  40  70 124 158 176 222 280 358
#     4  10  19  33  53  80 117 155 196 246 292 347
#
# _framework density 21.373345
#
# number of rings (size 3 to 8) (size 9 to 14) (size 15 to 20)
#    0.000    2.154    0.000    4.615    0.000    7.385 
#    0.000    1.538    0.000    7.385    0.000    0.000 
#    0.000   12.308    0.000    0.000    0.000    0.000 
#
# Total GULP energy -145157.782973 kJ/mol
# GULP energy per Si atom -5582.991653 kJ/mol
# Density = 2.132470 g / cm^3
# Si number density = 21.373345 Si / 1000 Ang^3
#
#
#
# Elastic Constant Matrix: (Units=GPa)
#
#
# Indices 1 2 3 4 5 6 
#
# 1 28.6971 7.6175 9.9275 0.0000 0.0000 11.0682
# 2 7.6175 28.6971 9.9275 0.0000 0.0000 -11.0682
# 3 9.9275 9.9275 156.5462 0.0000 0.0000 0.0000
# 4 0.0000 0.0000 0.0000 -10.5371 0.0000 0.0000
# 5 0.0000 0.0000 0.0000 0.0000 -10.5371 0.0000
# 6 11.0682 -11.0682 0.0000 0.0000 0.0000 26.6570
#
#
#
# Elastic Compliance Matrix: (Units=1/GPa)
#
#
# Indices 1 2 3 4 5 6 
#
# 1 0.056321 -0.027795 -0.001809 0.000000 0.000000 -0.034926
# 2 -0.027795 0.056321 -0.001809 0.000000 0.000000 0.034926
# 3 -0.001809 -0.001809 0.006617 0.000000 0.000000 0.000000
# 4 0.000000 0.000000 0.000000 -0.094903 0.000000 0.000000
# 5 0.000000 0.000000 0.000000 0.000000 -0.094903 0.000000
# 6 -0.034926 0.034926 0.000000 0.000000 0.000000 0.066517
#
#
# Mechanical properties :
#
#
# Convention : Reuss Voigt Hill
#
# Bulk Modulus (GPa) = 17.71991 29.87617 23.79804
# Shear Modulus (GPa) = 64.42649 13.54775 38.98712
#
# Velocity S-wave (km/s) = 5.49626 2.52039 4.27558
# Velocity P-wave (km/s) = 6.97044 4.74114 5.96094
#
# Compressibility (1/GPa) = 0.05643368
#
# Stress axis : x y z
#
# Youngs Moduli (GPa) = 17.75529 17.75529 151.11835
#
# Poissons Ratio (x) = 0.49351 0.27338
# Poissons Ratio (y) = 0.49351 0.27338
# Poissons Ratio (z) = 0.03212 0.03212
#
# Static dielectric constant tensor:
#      x y z
#    x 1.775110 0.000000 0.000000 
#    y 0.000000 1.775110 0.000000 
#    z 0.000000 0.000000 1.807590 
# 
# From -- ./inp_files/683.got.cif
#   From: 2010.05.17/outbox.cif.g08.bks.cpg/sg87_1_cif.got.tgz:683.got - 2010.06.03 19:07:00.
