data_PCOD9545230
_publ_section_title
;
Structure prediction by ZEFSAII (Michael W. Deem and Ramdas Pophale) SiO2 
 PCOD9545230
Probable space group: P 42/N
;
_chemical_formula_sum "Si O2"
_cell_formula_units_Z 44
_cell_length_a 13.766153
_cell_length_b 13.766153
_cell_length_c 9.149215
_cell_angle_alpha 90.000000
_cell_angle_beta 90.000000
_cell_angle_gamma 90.000000
_cell_volume 1733.839998
_symmetry_space_group_name_H-M "P 42/N"
_symmetry_group_IT_number 86
_space_group.IT_coordinate_system_code '2'
_symmetry_cell_setting 'tetragonal'
loop_
_space_group_symop_operation_xyz
x,y,z
-y,1/2+x,1/2+z
1/2-x,1/2-y,z
1/2+y,-x,1/2+z
-x,-y,-z
y,1/2-x,1/2-z
1/2+x,1/2+y,-z
1/2-y,x,1/2-z
loop_
_atom_site_type_symbol
_atom_site_label
_atom_site_fract_x
_atom_site_fract_y
_atom_site_fract_z
Si Si1 0.621799 0.313735 0.309725
Si Si2 0.688813 0.567160 0.124242
Si Si3 0.750000 0.750000 0.250000
Si Si4 0.916115 0.850847 0.586982
Si Si5 0.750000 0.750000 0.750000
Si Si6 0.616401 0.124340 0.492963
Si Si7 0.511681 0.208006 0.945833
O O1 0.510909 0.353940 0.313648
O O2 0.626976 0.202529 0.361847
O O3 0.660620 0.337846 0.148475
O O4 0.672652 0.377302 0.435126
O O5 0.684493 0.683091 0.145813
O O6 0.621901 0.499163 0.024616
O O7 0.680141 0.529320 0.288179
O O8 0.798619 0.550254 0.063022
O O9 0.843365 0.772602 0.654673
O O10 0.853815 0.947689 0.559145
O O11 0.676797 0.026373 0.463694
#
# Coordination Sequence:
#
# PCOD9545230 Si02
#       7
#     8   8   2   8   2   8   8
#     4  10  23  43  66  99 136 186 234 291 357 432
#     4  10  23  40  71 100 130 191 236 286 358 428
#     4  12  18  44  72  90 144 186 244 288 354 424
#     4  11  23  42  66  96 139 178 234 289 356 431
#     4  12  26  40  66  92 128 182 216 290 360 408
#     4  10  23  43  68 103 140 177 240 291 362 425
#     4  11  22  40  69  99 135 181 230 296 353 428
#
# _framework density 25.377195
#
# number of rings (size 3 to 8) (size 9 to 14) (size 15 to 20)
#    0.000    1.455    1.818    2.727    0.000    7.273 
#    0.000    4.545    0.000    0.000    0.000    0.000 
#    0.000    0.000    0.000    0.000    0.000    0.000 
#
# Total GULP energy -245795.770425 kJ/mol
# GULP energy per Si atom -5586.267510 kJ/mol
# Density = 2.531944 g / cm^3
# Si number density = 25.377195 Si / 1000 Ang^3
#
#
#
# Elastic Constant Matrix: (Units=GPa)
#
#
# Indices 1 2 3 4 5 6 
#
# 1 94.9420 25.5815 -0.9320 0.0000 0.0000 -1.0485
# 2 25.5815 94.9420 -0.9320 0.0000 0.0000 1.0485
# 3 -0.9320 -0.9320 57.8179 0.0000 0.0000 0.0000
# 4 0.0000 0.0000 0.0000 23.1940 0.0000 0.0000
# 5 0.0000 0.0000 0.0000 0.0000 23.1940 0.0000
# 6 -1.0485 1.0485 0.0000 0.0000 0.0000 56.3500
#
#
#
# Elastic Compliance Matrix: (Units=1/GPa)
#
#
# Indices 1 2 3 4 5 6 
#
# 1 0.011362 -0.003063 0.000134 0.000000 0.000000 0.000268
# 2 -0.003063 0.011362 0.000134 0.000000 0.000000 -0.000268
# 3 0.000134 0.000134 0.017300 0.000000 0.000000 0.000000
# 4 0.000000 0.000000 0.000000 0.043115 0.000000 0.000000
# 5 0.000000 0.000000 0.000000 0.000000 0.043115 0.000000
# 6 0.000268 -0.000268 0.000000 0.000000 0.000000 0.017756
#
#
# Mechanical properties :
#
#
# Convention : Reuss Voigt Hill
#
# Bulk Modulus (GPa) = 29.04147 32.79300 30.91724
# Shear Modulus (GPa) = 31.04061 35.47989 33.26025
#
# Velocity S-wave (km/s) = 3.50118 3.74318 3.62420
# Velocity P-wave (km/s) = 5.27381 5.62424 5.45184
#
# Compressibility (1/GPa) = 0.03443351
#
# Stress axis : x y z
#
# Youngs Moduli (GPa) = 88.00981 88.00981 57.80351
#
# Poissons Ratio (x) = 0.26959 -0.00773
# Poissons Ratio (y) = 0.26959 -0.00773
# Poissons Ratio (z) = -0.01177 -0.01177
#
# Static dielectric constant tensor:
#      x y z
#    x 2.074590 0.000000 0.000000 
#    y 0.000000 2.074590 0.000000 
#    z 0.000000 0.000000 1.979540 
# 
# From -- ./inp_files/2231.got.cif
#   From: 2010.05.17/outbox.cif.g08.bks.cpg/sg86_2_cif.got.tgz:2231.got - 2010.06.03 19:03:11.
