data_PCOD9545711
_publ_section_title
;
Structure prediction by ZEFSAII (Michael W. Deem and Ramdas Pophale) SiO2 
 PCOD9545711
Probable space group: I 4/M
;
_chemical_formula_sum "Si O2"
_cell_formula_units_Z 120
_cell_length_a 17.479923
_cell_length_b 17.479923
_cell_length_c 20.050707
_cell_angle_alpha 90.000000
_cell_angle_beta 90.000000
_cell_angle_gamma 90.000000
_cell_volume 6126.447569
_symmetry_space_group_name_H-M "I 4/M"
_symmetry_group_IT_number 87
_symmetry_cell_setting 'tetragonal'
loop_
_space_group_symop_operation_xyz
x,y,z
-y,x,z
-x,-y,z
y,-x,z
-x,-y,-z
y,-x,-z
x,y,-z
-y,x,-z
1/2+x,1/2+y,1/2+z
1/2-y,1/2+x,1/2+z
1/2-x,1/2-y,1/2+z
1/2+y,1/2-x,1/2+z
1/2-x,1/2-y,1/2-z
1/2+y,1/2-x,1/2-z
1/2+x,1/2+y,1/2-z
1/2-y,1/2+x,1/2-z
loop_
_atom_site_type_symbol
_atom_site_label
_atom_site_fract_x
_atom_site_fract_y
_atom_site_fract_z
Si Si1 0.949732 0.117405 0.000000
Si Si2 0.842955 0.384515 0.290158
Si Si3 0.359482 0.320522 0.672404
Si Si4 0.934184 0.659153 0.421774
Si Si5 0.275519 0.244298 0.922308
Si Si6 0.195929 0.394054 0.923106
Si Si7 0.697104 0.533394 0.634861
Si Si8 0.863117 0.551266 0.323430
O O1 0.935401 0.163959 0.066261
O O2 0.039022 0.095886 0.000000
O O3 0.752434 0.371674 0.278964
O O4 0.863753 0.359632 0.365183
O O5 0.873851 0.471197 0.286050
O O6 0.888108 0.340992 0.233272
O O7 0.290786 0.291317 0.623991
O O8 0.334386 0.406853 0.690137
O O9 0.445662 0.326917 0.643691
O O10 0.930366 0.636097 0.500000
O O11 0.859304 0.710838 0.407367
O O12 0.927013 0.587606 0.371253
O O13 0.014917 0.702583 0.412706
O O14 0.267983 0.336650 0.916296
O O15 0.259164 0.225923 0.000000
O O16 0.168003 0.383693 0.000000
O O17 0.788132 0.536324 0.632509
#
# Coordination Sequence:
#
# PCOD9545711 Si02
#       8
#     8  16  16  16  16  16  16  16
#     4  11  22  34  56  88 128 171 203 241 302 365
#     4  10  23  40  57  83 113 156 199 248 307 353
#     4  10  21  36  53  81 116 154 197 241 288 342
#     4  10  20  34  58  87 111 147 193 240 300 363
#     4   9  18  34  53  79 115 149 184 234 294 356
#     4   9  19  37  58  82 114 149 190 243 307 366
#     4  11  22  35  54  85 121 160 203 245 286 352
#     4  11  23  38  59  83 115 156 203 252 299 360
#
# _framework density 19.587206999999999
#
# number of rings (size 3 to 8) (size 9 to 14) (size 15 to 20)
#    0.000    1.933    2.667    0.800    2.800    3.200 
#    2.400    1.333    0.000    0.400    0.000    2.800 
#    0.000    0.000    0.000    0.000    0.000    0.000 
#
# Total GULP energy -334156.410277 kJ/mol
# GULP energy per Si atom -5569.273505 kJ/mol
# Density = 1.954263 g / cm^3
# Si number density = 19.587207 Si / 1000 Ang^3
#
#
#
# Elastic Constant Matrix: (Units=GPa)
#
#
# Indices 1 2 3 4 5 6 
#
# 1 95.9970 1.0182 6.8919 0.0000 0.0000 -0.3461
# 2 1.0182 95.9970 6.8919 0.0000 0.0000 0.3461
# 3 6.8919 6.8919 35.3396 0.0000 0.0000 0.0000
# 4 0.0000 0.0000 0.0000 18.0170 0.0000 0.0000
# 5 0.0000 0.0000 0.0000 0.0000 18.0170 0.0000
# 6 -0.3461 0.3461 0.0000 0.0000 0.0000 15.4075
#
#
#
# Elastic Compliance Matrix: (Units=1/GPa)
#
#
# Indices 1 2 3 4 5 6 
#
# 1 0.010566 0.000036 -0.002067 0.000000 0.000000 0.000237
# 2 0.000036 0.010566 -0.002067 0.000000 0.000000 -0.000237
# 3 -0.002067 -0.002067 0.029103 0.000000 0.000000 0.000000
# 4 0.000000 0.000000 0.000000 0.055503 0.000000 0.000000
# 5 0.000000 0.000000 0.000000 0.000000 0.055503 0.000000
# 6 0.000237 -0.000237 0.000000 0.000000 0.000000 0.064914
#
#
# Mechanical properties :
#
#
# Convention : Reuss Voigt Hill
#
# Bulk Modulus (GPa) = 23.78903 28.54861 26.16882
# Shear Modulus (GPa) = 20.13155 24.45708 22.29432
#
# Velocity S-wave (km/s) = 3.20940 3.53742 3.37739
# Velocity P-wave (km/s) = 5.08971 5.59386 5.34773
#
# Compressibility (1/GPa) = 0.04203618
#
# Stress axis : x y z
#
# Youngs Moduli (GPa) = 94.64411 94.64412 34.36046
#
# Poissons Ratio (x) = -0.00336 0.07104
# Poissons Ratio (y) = -0.00336 0.07104
# Poissons Ratio (z) = 0.19567 0.19567
#
# Static dielectric constant tensor:
#      x y z
#    x 1.728640 0.000000 0.000000 
#    y 0.000000 1.728640 0.000000 
#    z 0.000000 0.000000 1.699920 
# 
# From -- ./inp_files/5514.got.cif
#   From: 2010.05.17/outbox.cif.g08.bks.cpg/sg87_3_cif.got.tgz:5514.got - 2010.06.03 19:07:00.
