data_PCOD9545965
_publ_section_title
;
Structure prediction by ZEFSAII (Michael W. Deem and Ramdas Pophale) SiO2 
 PCOD9545965
Probable space group: I 4/M
;
_chemical_formula_sum "Si O2"
_cell_formula_units_Z 96
_cell_length_a 22.402746
_cell_length_b 22.402746
_cell_length_c 7.719324
_cell_angle_alpha 90.000000
_cell_angle_beta 90.000000
_cell_angle_gamma 90.000000
_cell_volume 3874.197706
_symmetry_space_group_name_H-M "I 4/M"
_symmetry_group_IT_number 87
_symmetry_cell_setting 'tetragonal'
loop_
_space_group_symop_operation_xyz
x,y,z
-y,x,z
-x,-y,z
y,-x,z
-x,-y,-z
y,-x,-z
x,y,-z
-y,x,-z
1/2+x,1/2+y,1/2+z
1/2-y,1/2+x,1/2+z
1/2-x,1/2-y,1/2+z
1/2+y,1/2-x,1/2+z
1/2-x,1/2-y,1/2-z
1/2+y,1/2-x,1/2-z
1/2+x,1/2+y,1/2-z
1/2-y,1/2+x,1/2-z
loop_
_atom_site_type_symbol
_atom_site_label
_atom_site_fract_x
_atom_site_fract_y
_atom_site_fract_z
Si Si1 0.565066 0.573891 0.500000
Si Si2 0.850507 0.902616 0.299986
Si Si3 0.058077 0.425531 0.800265
Si Si4 0.266060 0.647201 0.794787
Si Si5 0.816296 0.595927 0.312397
Si Si6 0.201616 0.320061 0.000000
Si Si7 0.243880 0.993643 0.707488
O O1 0.495444 0.580528 0.500000
O O2 0.593627 0.598805 0.673082
O O3 0.867255 0.912542 0.500000
O O4 0.829007 0.834024 0.288819
O O5 0.808262 0.958215 0.247115
O O6 0.075688 0.495604 0.796642
O O7 0.112751 0.393332 0.707286
O O8 0.053661 0.406244 0.000000
O O9 0.226973 0.682204 0.655590
O O10 0.264127 0.576066 0.748976
O O11 0.248474 0.654004 0.000000
O O12 0.795019 0.615772 0.500000
O O13 0.800704 0.525653 0.293443
O O14 0.788744 0.628115 0.149206
O O15 0.249756 0.994839 0.500000
#
# Coordination Sequence:
#
# PCOD9545965 Si02
#       7
#     8  16  16  16  16   8  16
#     4  11  23  36  59 102 145 182 225 272 338 421
#     4  10  22  43  70  99 140 179 228 284 340 404
#     4  11  22  39  59  90 126 166 211 267 340 422
#     4  10  23  42  72 103 132 182 229 277 341 416
#     4  12  26  42  64  92 126 170 223 285 347 404
#     4  12  25  46  63  97 131 173 223 286 339 401
#     4  10  22  43  69 101 135 173 233 283 341 412
#
# _framework density 24.779325
#
# number of rings (size 3 to 8) (size 9 to 14) (size 15 to 20)
#    0.000    1.250    1.667    4.000    4.667    2.000 
#    0.000    1.667    0.000    0.000    0.000    0.000 
#    0.000    0.000    0.000    0.000    0.000    0.000 
#
# Total GULP energy -267589.326548 kJ/mol
# GULP energy per Si atom -5574.777636 kJ/mol
# Density = 2.472293 g / cm^3
# Si number density = 24.779325 Si / 1000 Ang^3
#
#
#
# Elastic Constant Matrix: (Units=GPa)
#
#
# Indices 1 2 3 4 5 6 
#
# 1 109.9547 -35.3271 27.7038 0.0000 0.0000 -32.6360
# 2 -35.3271 109.9547 27.7038 0.0000 0.0000 32.6360
# 3 27.7038 27.7038 153.2776 0.0000 0.0000 0.0000
# 4 0.0000 0.0000 0.0000 35.6281 0.0000 0.0000
# 5 0.0000 0.0000 0.0000 0.0000 35.6281 0.0000
# 6 -32.6360 32.6360 0.0000 0.0000 0.0000 39.8645
#
#
#
# Elastic Compliance Matrix: (Units=1/GPa)
#
#
# Indices 1 2 3 4 5 6 
#
# 1 0.013182 0.002294 -0.002797 0.000000 0.000000 0.008914
# 2 0.002294 0.013182 -0.002797 0.000000 0.000000 -0.008914
# 3 -0.002797 -0.002797 0.007535 0.000000 0.000000 0.000000
# 4 0.000000 0.000000 0.000000 0.028068 0.000000 0.000000
# 5 0.000000 0.000000 0.000000 0.000000 0.028068 0.000000
# 6 0.008914 -0.008914 0.000000 0.000000 0.000000 0.039680
#
#
# Mechanical properties :
#
#
# Convention : Reuss Voigt Hill
#
# Bulk Modulus (GPa) = 36.63067 45.92757 41.27912
# Shear Modulus (GPa) = 34.38432 45.76457 40.07445
#
# Velocity S-wave (km/s) = 3.72912 4.30220 4.02587
# Velocity P-wave (km/s) = 5.77552 6.57674 6.18911
#
# Compressibility (1/GPa) = 0.02729953
#
# Stress axis : x y z
#
# Youngs Moduli (GPa) = 75.85934 75.85934 132.70872
#
# Poissons Ratio (x) = -0.17405 0.37123
# Poissons Ratio (y) = -0.17405 0.37123
# Poissons Ratio (z) = 0.21220 0.21220
#
# Static dielectric constant tensor:
#      x y z
#    x 2.008680 0.000000 0.000000 
#    y 0.000000 2.008680 0.000000 
#    z 0.000000 0.000000 2.250000 
# 
# From -- ./inp_files/1457.got.cif
#   From: 2010.05.17/outbox.cif.g08.bks.cpg/sg87_1_cif.got.tgz:1457.got - 2010.06.03 19:07:00.
