data_PCOD9545737
_publ_section_title
;
Structure prediction by ZEFSAII (Michael W. Deem and Ramdas Pophale) SiO2 
 PCOD9545737
Probable space group: I 4/M
;
_chemical_formula_sum "Si O2"
_cell_formula_units_Z 64
_cell_length_a 13.787415
_cell_length_b 13.787415
_cell_length_c 13.631617
_cell_angle_alpha 90.000000
_cell_angle_beta 90.000000
_cell_angle_gamma 90.000000
_cell_volume 2591.272413
_symmetry_space_group_name_H-M "I 4/M"
_symmetry_group_IT_number 87
_symmetry_cell_setting 'tetragonal'
loop_
_space_group_symop_operation_xyz
x,y,z
-y,x,z
-x,-y,z
y,-x,z
-x,-y,-z
y,-x,-z
x,y,-z
-y,x,-z
1/2+x,1/2+y,1/2+z
1/2-y,1/2+x,1/2+z
1/2-x,1/2-y,1/2+z
1/2+y,1/2-x,1/2+z
1/2-x,1/2-y,1/2-z
1/2+y,1/2-x,1/2-z
1/2+x,1/2+y,1/2-z
1/2-y,1/2+x,1/2-z
loop_
_atom_site_type_symbol
_atom_site_label
_atom_site_fract_x
_atom_site_fract_y
_atom_site_fract_z
Si Si1 0.540042 0.261565 0.615115
Si Si2 0.926953 0.678050 0.614650
Si Si3 0.836602 0.181528 0.711134
Si Si4 0.371582 0.123209 0.612391
O O1 0.539407 0.296714 0.500000
O O2 0.611756 0.168716 0.619367
O O3 0.586354 0.329775 0.699859
O O4 0.435082 0.215988 0.643753
O O5 0.945202 0.693298 0.500000
O O6 0.908453 0.782432 0.662731
O O7 0.016833 0.617041 0.658118
O O8 0.750000 0.250000 0.750000
O O9 0.869612 0.255605 0.625077
O O10 0.402852 0.117275 0.500000
#
# Coordination Sequence:
#
# PCOD9545737 Si02
#       4
#    16  16  16  16
#     4   9  19  34  53  83 120 157 198 247 303 362
#     4   9  18  35  55  83 120 155 198 249 309 373
#     4  10  21  33  54  85 119 157 200 255 308 369
#     4  10  20  35  58  84 115 156 201 254 310 365
#
# _framework density 24.698291000000001
#
# number of rings (size 3 to 8) (size 9 to 14) (size 15 to 20)
#    0.000    2.500    0.000    1.500    7.000    4.000 
#    0.000    0.000    0.000    0.750    0.000    3.500 
#    0.000    4.000    0.000    0.000    0.000    0.000 
#
# Total GULP energy -178219.870540 kJ/mol
# GULP energy per Si atom -5569.370954 kJ/mol
# Density = 2.464208 g / cm^3
# Si number density = 24.698291 Si / 1000 Ang^3
#
#
#
# Elastic Constant Matrix: (Units=GPa)
#
#
# Indices 1 2 3 4 5 6 
#
# 1 68.1269 30.6424 37.9885 0.0000 0.0000 6.8521
# 2 30.6424 68.1269 37.9885 0.0000 0.0000 -6.8521
# 3 37.9885 37.9885 109.6508 0.0000 0.0000 0.0000
# 4 0.0000 0.0000 0.0000 32.3924 0.0000 0.0000
# 5 0.0000 0.0000 0.0000 0.0000 32.3924 0.0000
# 6 6.8521 -6.8521 0.0000 0.0000 0.0000 25.1543
#
#
#
# Elastic Compliance Matrix: (Units=1/GPa)
#
#
# Indices 1 2 3 4 5 6 
#
# 1 0.021716 -0.007913 -0.004782 0.000000 0.000000 -0.008071
# 2 -0.007913 0.021716 -0.004782 0.000000 0.000000 0.008071
# 3 -0.004782 -0.004782 0.012433 0.000000 0.000000 0.000000
# 4 0.000000 0.000000 0.000000 0.030871 0.000000 0.000000
# 5 0.000000 0.000000 0.000000 0.000000 0.030871 0.000000
# 6 -0.008071 0.008071 0.000000 0.000000 0.000000 0.044152
#
#
# Mechanical properties :
#
#
# Convention : Reuss Voigt Hill
#
# Bulk Modulus (GPa) = 47.82103 51.01595 49.41849
# Shear Modulus (GPa) = 24.54787 27.27350 25.91069
#
# Velocity S-wave (km/s) = 3.15605 3.32666 3.24248
# Velocity P-wave (km/s) = 5.71708 5.95450 5.83700
#
# Compressibility (1/GPa) = 0.02091130
#
# Stress axis : x y z
#
# Youngs Moduli (GPa) = 46.04941 46.04941 80.42864
#
# Poissons Ratio (x) = 0.36437 0.38462
# Poissons Ratio (y) = 0.36437 0.38462
# Poissons Ratio (z) = 0.22021 0.22021
#
# Static dielectric constant tensor:
#      x y z
#    x 2.125880 0.000000 0.000000 
#    y 0.000000 2.125880 0.000000 
#    z 0.000000 0.000000 2.032710 
# 
# From -- ./inp_files/3343.got.cif
#   From: 2010.05.17/outbox.cif.g08.bks.cpg/sg87_2_cif.got.tgz:3343.got - 2010.06.03 19:07:00.
