data_PCOD9545298
_publ_section_title
;
Structure prediction by ZEFSAII (Michael W. Deem and Ramdas Pophale) SiO2 
 PCOD9545298
Probable space group: P 42/N
;
_chemical_formula_sum "Si O2"
_cell_formula_units_Z 48
_cell_length_a 9.025813
_cell_length_b 9.025813
_cell_length_c 29.454452
_cell_angle_alpha 90.000000
_cell_angle_beta 90.000000
_cell_angle_gamma 90.000000
_cell_volume 2399.515778
_symmetry_space_group_name_H-M "P 42/N"
_symmetry_group_IT_number 86
_space_group.IT_coordinate_system_code '2'
_symmetry_cell_setting 'tetragonal'
loop_
_space_group_symop_operation_xyz
x,y,z
-y,1/2+x,1/2+z
1/2-x,1/2-y,z
1/2+y,-x,1/2+z
-x,-y,-z
y,1/2-x,1/2-z
1/2+x,1/2+y,-z
1/2-y,x,1/2-z
loop_
_atom_site_type_symbol
_atom_site_label
_atom_site_fract_x
_atom_site_fract_y
_atom_site_fract_z
Si Si1 0.250000 0.250000 0.588988
Si Si2 0.420412 0.270986 0.382886
Si Si3 0.000842 0.958389 0.447522
Si Si4 0.004494 0.443387 0.637620
Si Si5 0.449707 0.323770 0.276270
Si Si6 0.250000 0.750000 0.906176
Si Si7 0.958966 0.643418 0.260133
O O1 0.143690 0.140970 0.561421
O O2 0.357485 0.147341 0.618421
O O3 0.250000 0.250000 0.397994
O O4 0.492298 0.398058 0.414219
O O5 0.416914 0.314827 0.329512
O O6 0.496910 0.109388 0.382092
O O7 0.142144 0.855671 0.435083
O O8 0.000000 0.000000 0.500000
O O9 0.855477 0.356003 0.623528
O O10 0.019869 0.434253 0.691559
O O11 0.428316 0.172426 0.248375
O O12 0.608566 0.396302 0.268829
O O13 0.816323 0.575006 0.234908
#
# Coordination Sequence:
#
# PCOD9545298 Si02
#       7
#     4   8   8   8   8   4   8
#     4  10  26  46  67 102 140 174 227 286 352 422
#     4  12  23  42  72 102 135 181 237 292 347 425
#     4  11  27  47  75 103 138 181 233 294 365 426
#     4  11  23  45  67 100 141 187 234 288 350 430
#     4  11  22  41  61  96 133 171 227 283 332 409
#     4  10  24  44  76  96 134 190 226 288 372 424
#     4  11  25  39  60  93 140 183 226 274 339 415
#
# _framework density 20.004035999999999
#
# number of rings (size 3 to 8) (size 9 to 14) (size 15 to 20)
#    0.000    1.000    5.000    1.000    8.167    2.667 
#    0.000    3.333    0.000    0.000    0.000    0.000 
#    0.000    0.000    0.000    0.000    0.000    0.000 
#
# Total GULP energy -268193.915123 kJ/mol
# GULP energy per Si atom -5587.373232 kJ/mol
# Density = 1.995851 g / cm^3
# Si number density = 20.004036 Si / 1000 Ang^3
#
#
#
# Elastic Constant Matrix: (Units=GPa)
#
#
# Indices 1 2 3 4 5 6 
#
# 1 118.6584 65.8286 55.5666 0.0000 0.0000 1.5514
# 2 65.8286 118.6584 55.5666 0.0000 0.0000 -1.5514
# 3 55.5666 55.5666 102.3631 0.0000 0.0000 0.0000
# 4 0.0000 0.0000 0.0000 -5.1972 0.0000 0.0000
# 5 0.0000 0.0000 0.0000 0.0000 -5.1972 0.0000
# 6 1.5514 -1.5514 0.0000 0.0000 0.0000 35.7006
#
#
#
# Elastic Compliance Matrix: (Units=1/GPa)
#
#
# Indices 1 2 3 4 5 6 
#
# 1 0.013516 -0.005461 -0.004372 0.000000 0.000000 -0.000825
# 2 -0.005461 0.013516 -0.004372 0.000000 0.000000 0.000825
# 3 -0.004372 -0.004372 0.014516 0.000000 0.000000 0.000000
# 4 0.000000 0.000000 0.000000 -0.192413 0.000000 0.000000
# 5 0.000000 0.000000 0.000000 0.000000 -0.192413 0.000000
# 6 -0.000825 0.000825 0.000000 0.000000 0.000000 0.028082
#
#
# Mechanical properties :
#
#
# Convention : Reuss Voigt Hill
#
# Bulk Modulus (GPa) = 76.12823 77.06703 76.59763
# Shear Modulus (GPa) = -17.70500 15.90913 -0.89793
#
# Velocity S-wave (km/s) = -2.97824 2.82316 -0.67071
# Velocity P-wave (km/s) = 5.12957 7.01686 6.14609
#
# Compressibility (1/GPa) = 0.01313573
#
# Stress axis : x y z
#
# Youngs Moduli (GPa) = 73.98839 73.98839 68.89039
#
# Poissons Ratio (x) = 0.40409 0.30120
# Poissons Ratio (y) = 0.40409 0.30120
# Poissons Ratio (z) = 0.32348 0.32348
#
# Static dielectric constant tensor:
#      x y z
#    x 1.923570 0.000000 0.000000 
#    y 0.000000 1.923570 0.000000 
#    z 0.000000 0.000000 1.695920 
# 
# From -- ./inp_files/5228.got.cif
#   From: 2010.05.17/outbox.cif.g08.bks.cpg/sg86_3_cif.got.tgz:5228.got - 2010.06.03 19:03:11.
