data_PCOD9545250
_publ_section_title
;
Structure prediction by ZEFSAII (Michael W. Deem and Ramdas Pophale) SiO2 
 PCOD9545250
Probable space group: P 42/N
;
_chemical_formula_sum "Si O2"
_cell_formula_units_Z 60
_cell_length_a 11.460792
_cell_length_b 11.460792
_cell_length_c 23.395195
_cell_angle_alpha 90.000000
_cell_angle_beta 90.000000
_cell_angle_gamma 90.000000
_cell_volume 3072.953091
_symmetry_space_group_name_H-M "P 42/N"
_symmetry_group_IT_number 86
_space_group.IT_coordinate_system_code '2'
_symmetry_cell_setting 'tetragonal'
loop_
_space_group_symop_operation_xyz
x,y,z
-y,1/2+x,1/2+z
1/2-x,1/2-y,z
1/2+y,-x,1/2+z
-x,-y,-z
y,1/2-x,1/2-z
1/2+x,1/2+y,-z
1/2-y,x,1/2-z
loop_
_atom_site_type_symbol
_atom_site_label
_atom_site_fract_x
_atom_site_fract_y
_atom_site_fract_z
Si Si1 0.309218 0.978379 0.043858
Si Si2 0.267385 0.442694 0.736772
Si Si3 0.990803 0.315781 0.891898
Si Si4 0.250000 0.250000 0.426058
Si Si5 0.469038 0.630503 0.416654
Si Si6 0.238879 0.502517 0.393650
Si Si7 0.875687 0.309286 0.665047
Si Si8 0.624040 0.059865 0.485578
O O1 0.384524 0.906416 0.091368
O O2 0.188286 0.910185 0.035509
O O3 0.282573 0.119738 0.047026
O O4 0.376136 0.959258 0.984354
O O5 0.371715 0.350616 0.748980
O O6 0.272823 0.496852 0.673197
O O7 0.281907 0.545496 0.781824
O O8 0.991623 0.207456 0.935889
O O9 0.101483 0.399606 0.900769
O O10 0.225595 0.365976 0.391853
O O11 0.373006 0.544161 0.388853
O O12 0.435457 0.755632 0.391478
O O13 0.154750 0.558062 0.346980
O O14 0.197652 0.549236 0.455884
O O15 0.750000 0.250000 0.670486
O O16 0.500000 0.000000 0.500000
#
# Coordination Sequence:
#
# PCOD9545250 Si02
#       8
#     8   8   8   4   8   8   8   8
#     4  12  24  39  63 100 141 177 224 279 351 428
#     4  11  26  48  70 101 134 180 247 300 348 416
#     4  12  25  42  70  97 139 181 233 299 349 414
#     4  12  24  38  62  95 138 177 220 274 346 428
#     4  11  21  42  68  94 129 178 233 273 349 414
#     4  11  22  42  64  94 137 180 224 281 344 434
#     4  10  23  43  73  94 130 185 227 286 352 420
#     4  12  25  39  60 104 144 183 218 280 357 425
#
# _framework density 19.525193000000002
#
# number of rings (size 3 to 8) (size 9 to 14) (size 15 to 20)
#    0.000    0.667    6.667    1.600    1.867    1.067 
#    0.000    0.000    0.000    0.800    0.000    0.000 
#    0.000    0.000    0.000    0.000    0.000    0.000 
#
# Total GULP energy -334535.100571 kJ/mol
# GULP energy per Si atom -5575.585010 kJ/mol
# Density = 1.948075 g / cm^3
# Si number density = 19.525193 Si / 1000 Ang^3
#
#
#
# Elastic Constant Matrix: (Units=GPa)
#
#
# Indices 1 2 3 4 5 6 
#
# 1 103.6609 21.0424 17.0124 0.0000 0.0000 -1.0935
# 2 21.0424 103.6609 17.0124 0.0000 0.0000 1.0935
# 3 17.0124 17.0124 77.6734 0.0000 0.0000 0.0000
# 4 0.0000 0.0000 0.0000 20.0644 0.0000 0.0000
# 5 0.0000 0.0000 0.0000 0.0000 20.0644 0.0000
# 6 -1.0935 1.0935 0.0000 0.0000 0.0000 19.6656
#
#
#
# Elastic Compliance Matrix: (Units=1/GPa)
#
#
# Indices 1 2 3 4 5 6 
#
# 1 0.010325 -0.001796 -0.001868 0.000000 0.000000 0.000674
# 2 -0.001796 0.010325 -0.001868 0.000000 0.000000 -0.000674
# 3 -0.001868 -0.001868 0.013693 0.000000 0.000000 0.000000
# 4 0.000000 0.000000 0.000000 0.049840 0.000000 0.000000
# 5 0.000000 0.000000 0.000000 0.000000 0.049840 0.000000
# 6 0.000674 -0.000674 0.000000 0.000000 0.000000 0.050925
#
#
# Mechanical properties :
#
#
# Convention : Reuss Voigt Hill
#
# Bulk Modulus (GPa) = 42.95878 43.90328 43.43103
# Shear Modulus (GPa) = 24.53727 27.28740 25.91233
#
# Velocity S-wave (km/s) = 3.54884 3.74244 3.64692
# Velocity P-wave (km/s) = 6.23232 6.41940 6.32655
#
# Compressibility (1/GPa) = 0.02327813
#
# Stress axis : x y z
#
# Youngs Moduli (GPa) = 96.85049 96.85049 73.03158
#
# Poissons Ratio (x) = 0.17399 0.13642
# Poissons Ratio (y) = 0.17399 0.13642
# Poissons Ratio (z) = 0.18092 0.18092
#
# Static dielectric constant tensor:
#      x y z
#    x 1.800330 0.000000 0.000000 
#    y 0.000000 1.800330 0.000000 
#    z 0.000000 0.000000 1.667460 
# 
# From -- ./inp_files/4272.got.cif
#   From: 2010.05.17/outbox.cif.g08.bks.cpg/sg86_3_cif.got.tgz:4272.got - 2010.06.03 19:03:11.
