data_PCOD9545878
_publ_section_title
;
Structure prediction by ZEFSAII (Michael W. Deem and Ramdas Pophale) SiO2 
 PCOD9545878
Probable space group: I 4/M
;
_chemical_formula_sum "Si O2"
_cell_formula_units_Z 64
_cell_length_a 13.232519
_cell_length_b 13.232519
_cell_length_c 13.002749
_cell_angle_alpha 90.000000
_cell_angle_beta 90.000000
_cell_angle_gamma 90.000000
_cell_volume 2276.775617
_symmetry_space_group_name_H-M "I 4/M"
_symmetry_group_IT_number 87
_symmetry_cell_setting 'tetragonal'
loop_
_space_group_symop_operation_xyz
x,y,z
-y,x,z
-x,-y,z
y,-x,z
-x,-y,-z
y,-x,-z
x,y,-z
-y,x,-z
1/2+x,1/2+y,1/2+z
1/2-y,1/2+x,1/2+z
1/2-x,1/2-y,1/2+z
1/2+y,1/2-x,1/2+z
1/2-x,1/2-y,1/2-z
1/2+y,1/2-x,1/2-z
1/2+x,1/2+y,1/2-z
1/2-y,1/2+x,1/2-z
loop_
_atom_site_type_symbol
_atom_site_label
_atom_site_fract_x
_atom_site_fract_y
_atom_site_fract_z
Si Si1 0.654464 0.450273 0.161579
Si Si2 0.508279 0.703164 0.608217
Si Si3 0.073150 0.598183 0.613562
Si Si4 0.833006 0.314084 0.190910
O O1 0.624056 0.563519 0.126368
O O2 0.650944 0.459986 0.286110
O O3 0.765445 0.402946 0.139974
O O4 0.528795 0.651841 0.500000
O O5 0.564784 0.810399 0.606484
O O6 0.392365 0.741127 0.615370
O O7 0.052416 0.644635 0.500000
O O8 0.082688 0.654250 0.723775
O O9 0.000000 0.500000 0.620704
O O10 0.750000 0.250000 0.250000
#
# Coordination Sequence:
#
# PCOD9545878 Si02
#       4
#    16  16  16  16
#     4  10  21  39  61  87 122 165 210 258 319 380
#     4  10  22  37  57  90 126 162 207 256 314 374
#     4   9  21  38  59  88 119 158 207 258 313 371
#     4  11  22  37  61  90 124 165 208 258 320 374
#
# _framework density 28.109929999999999
#
# number of rings (size 3 to 8) (size 9 to 14) (size 15 to 20)
#    0.000    2.000    2.500    0.000    7.000    2.000 
#    0.000    1.250    0.000    1.500    0.000    1.750 
#    0.000    0.000    0.000    0.000    0.000    0.000 
#
# Total GULP energy -178996.675551 kJ/mol
# GULP energy per Si atom -5593.646111 kJ/mol
# Density = 2.804595 g / cm^3
# Si number density = 28.109930 Si / 1000 Ang^3
#
#
#
# Elastic Constant Matrix: (Units=GPa)
#
#
# Indices 1 2 3 4 5 6 
#
# 1 117.1086 40.1701 30.8335 0.0000 0.0000 -3.1604
# 2 40.1701 117.1086 30.8335 0.0000 0.0000 3.1604
# 3 30.8335 30.8335 155.2779 0.0000 0.0000 0.0000
# 4 0.0000 0.0000 0.0000 -3.5299 0.0000 0.0000
# 5 0.0000 0.0000 0.0000 0.0000 -3.5299 0.0000
# 6 -3.1604 3.1604 0.0000 0.0000 0.0000 79.5973
#
#
#
# Elastic Compliance Matrix: (Units=1/GPa)
#
#
# Indices 1 2 3 4 5 6 
#
# 1 0.009967 -0.003072 -0.001369 0.000000 0.000000 0.000518
# 2 -0.003072 0.009967 -0.001369 0.000000 0.000000 -0.000518
# 3 -0.001369 -0.001369 0.006984 0.000000 0.000000 0.000000
# 4 0.000000 0.000000 0.000000 -0.283298 0.000000 0.000000
# 5 0.000000 0.000000 0.000000 0.000000 -0.283298 0.000000
# 6 0.000518 -0.000518 0.000000 0.000000 0.000000 0.012604
#
#
# Mechanical properties :
#
#
# Convention : Reuss Voigt Hill
#
# Bulk Modulus (GPa) = 65.37144 65.90769 65.63956
# Shear Modulus (GPa) = -9.79716 33.68472 11.94378
#
# Velocity S-wave (km/s) = -1.86892 3.46543 2.06354
# Velocity P-wave (km/s) = 4.31844 6.28567 5.39252
#
# Compressibility (1/GPa) = 0.01529720
#
# Stress axis : x y z
#
# Youngs Moduli (GPa) = 100.32659 100.32659 143.18856
#
# Poissons Ratio (x) = 0.30825 0.19604
# Poissons Ratio (y) = 0.30825 0.19604
# Poissons Ratio (z) = 0.13736 0.13736
#
# Static dielectric constant tensor:
#      x y z
#    x 2.248610 0.000000 0.000000 
#    y 0.000000 2.248610 0.000000 
#    z 0.000000 0.000000 2.183680 
# 
# From -- ./inp_files/3332.got.cif
#   From: 2010.05.17/outbox.cif.g08.bks.cpg/sg87_2_cif.got.tgz:3332.got - 2010.06.03 19:07:00.
