data_PCOD9545084
_publ_section_title
;
Structure prediction by ZEFSAII (Michael W. Deem and Ramdas Pophale) SiO2 
 PCOD9545084
Probable space group: P 42/N
;
_chemical_formula_sum "Si O2"
_cell_formula_units_Z 40
_cell_length_a 17.190856
_cell_length_b 17.190856
_cell_length_c 6.085566
_cell_angle_alpha 90.000000
_cell_angle_beta 90.000000
_cell_angle_gamma 90.000000
_cell_volume 1798.440118
_symmetry_space_group_name_H-M "P 42/N"
_symmetry_group_IT_number 86
_space_group.IT_coordinate_system_code '2'
_symmetry_cell_setting 'tetragonal'
loop_
_space_group_symop_operation_xyz
x,y,z
-y,1/2+x,1/2+z
1/2-x,1/2-y,z
1/2+y,-x,1/2+z
-x,-y,-z
y,1/2-x,1/2-z
1/2+x,1/2+y,-z
1/2-y,x,1/2-z
loop_
_atom_site_type_symbol
_atom_site_label
_atom_site_fract_x
_atom_site_fract_y
_atom_site_fract_z
Si Si1 0.909930 0.133557 0.859419
Si Si2 0.630944 0.914540 0.235979
Si Si3 0.779014 0.926074 0.957841
Si Si4 0.590641 0.211091 0.689899
Si Si5 0.505632 0.857002 0.924449
O O1 0.872462 0.203848 0.716326
O O2 0.002845 0.145318 0.853945
O O3 0.900257 0.048765 0.749993
O O4 0.862543 0.134726 0.087315
O O5 0.617290 0.849062 0.418518
O O6 0.699978 0.895176 0.065052
O O7 0.553630 0.913085 0.085244
O O8 0.799906 0.934178 0.701773
O O9 0.777212 0.016354 0.032565
O O10 0.554153 0.189811 0.923993
#
# Coordination Sequence:
#
# PCOD9545084 Si02
#       5
#     8   8   8   8   8
#     4  10  21  39  60  86 119 158 202 252 309 368
#     4  10  21  38  60  86 122 160 204 256 306 369
#     4   9  21  38  57  86 120 156 198 251 308 365
#     4   9  21  38  58  85 120 155 198 253 305 366
#     4  10  21  37  60  88 116 159 205 250 309 367
#
# _framework density 22.241495
#
# number of rings (size 3 to 8) (size 9 to 14) (size 15 to 20)
#    0.000    2.400    0.000    0.600    0.000   18.800 
#    0.000    3.000    0.000    0.000    0.000    0.000 
#    0.000    0.000    0.000    0.000    0.000    0.000 
#
# Total GULP energy -222921.058809 kJ/mol
# GULP energy per Si atom -5573.026470 kJ/mol
# Density = 2.219087 g / cm^3
# Si number density = 22.241495 Si / 1000 Ang^3
#
#
#
# Elastic Constant Matrix: (Units=GPa)
#
#
# Indices 1 2 3 4 5 6 
#
# 1 86.8401 39.8786 33.8773 0.0000 0.0000 -2.1299
# 2 39.8786 86.8401 33.8773 0.0000 0.0000 2.1299
# 3 33.8773 33.8773 74.3366 0.0000 0.0000 0.0000
# 4 0.0000 0.0000 0.0000 10.2843 0.0000 0.0000
# 5 0.0000 0.0000 0.0000 0.0000 10.2843 0.0000
# 6 -2.1299 2.1299 0.0000 0.0000 0.0000 2.3189
#
#
#
# Elastic Compliance Matrix: (Units=1/GPa)
#
#
# Indices 1 2 3 4 5 6 
#
# 1 0.016832 -0.006398 -0.004755 0.000000 0.000000 0.021336
# 2 -0.006398 0.016832 -0.004755 0.000000 0.000000 -0.021336
# 3 -0.004755 -0.004755 0.017786 0.000000 0.000000 0.000000
# 4 0.000000 0.000000 0.000000 0.097235 0.000000 0.000000
# 5 0.000000 0.000000 0.000000 0.000000 0.097235 0.000000
# 6 0.021336 -0.021336 0.000000 0.000000 0.000000 0.470432
#
#
# Mechanical properties :
#
#
# Convention : Reuss Voigt Hill
#
# Bulk Modulus (GPa) = 50.93192 51.47591 51.20392
# Shear Modulus (GPa) = 6.62504 13.93642 10.28073
#
# Velocity S-wave (km/s) = 1.72776 2.50590 2.15229
# Velocity P-wave (km/s) = 5.18936 5.61846 5.40816
#
# Compressibility (1/GPa) = 0.01963405
#
# Stress axis : x y z
#
# Youngs Moduli (GPa) = 59.41177 59.41177 56.22289
#
# Poissons Ratio (x) = 0.38010 0.26734
# Poissons Ratio (y) = 0.38010 0.26734
# Poissons Ratio (z) = 0.28251 0.28251
#
# Static dielectric constant tensor:
#      x y z
#    x 1.845160 0.000000 0.000000 
#    y 0.000000 1.845160 0.000000 
#    z 0.000000 0.000000 1.846030 
# 
# From -- ./inp_files/288.got.cif
#   From: 2010.05.17/outbox.cif.g08.bks.cpg/sg86_1_cif.got.tgz:288.got - 2010.06.03 19:03:11.
