data_PCOD9545903
_publ_section_title
;
Structure prediction by ZEFSAII (Michael W. Deem and Ramdas Pophale) SiO2 
 PCOD9545903
Probable space group: I 4/M
;
_chemical_formula_sum "Si O2"
_cell_formula_units_Z 96
_cell_length_a 14.762353
_cell_length_b 14.762353
_cell_length_c 18.645723
_cell_angle_alpha 90.000000
_cell_angle_beta 90.000000
_cell_angle_gamma 90.000000
_cell_volume 4063.407709
_symmetry_space_group_name_H-M "I 4/M"
_symmetry_group_IT_number 87
_symmetry_cell_setting 'tetragonal'
loop_
_space_group_symop_operation_xyz
x,y,z
-y,x,z
-x,-y,z
y,-x,z
-x,-y,-z
y,-x,-z
x,y,-z
-y,x,-z
1/2+x,1/2+y,1/2+z
1/2-y,1/2+x,1/2+z
1/2-x,1/2-y,1/2+z
1/2+y,1/2-x,1/2+z
1/2-x,1/2-y,1/2-z
1/2+y,1/2-x,1/2-z
1/2+x,1/2+y,1/2-z
1/2-y,1/2+x,1/2-z
loop_
_atom_site_type_symbol
_atom_site_label
_atom_site_fract_x
_atom_site_fract_y
_atom_site_fract_z
Si Si1 0.912854 0.880355 0.373749
Si Si2 0.553785 0.723336 0.269882
Si Si3 0.253852 0.756806 0.579666
Si Si4 0.675477 0.867838 0.793781
Si Si5 0.557628 0.744043 0.576203
Si Si6 0.930542 0.419285 0.922622
O O1 0.920376 0.851180 0.289478
O O2 0.841980 0.811657 0.408889
O O3 0.019124 0.878407 0.392694
O O4 0.634076 0.798329 0.263058
O O5 0.456940 0.776823 0.261420
O O6 0.548187 0.688256 0.351173
O O7 0.296801 0.763941 0.500000
O O8 0.321072 0.759182 0.647485
O O9 0.210983 0.657520 0.578386
O O10 0.588501 0.881221 0.846938
O O11 0.549241 0.694979 0.500000
O O12 0.486417 0.825480 0.577069
O O13 0.000000 0.500000 0.918377
O O14 0.882531 0.430818 0.000000
#
# Coordination Sequence:
#
# PCOD9545903 Si02
#       6
#    16  16  16  16  16  16
#     4  10  24  42  61  88 121 160 207 256 304 352
#     4  10  23  36  62  88 123 159 197 249 301 366
#     4  10  22  40  64  90 119 157 205 250 297 361
#     4  10  22  34  56  89 121 159 196 242 301 360
#     4   9  20  37  57  86 117 154 197 244 301 356
#     4   9  18  33  53  80 120 158 191 240 297 358
#
# _framework density 23.625489000000002
#
# number of rings (size 3 to 8) (size 9 to 14) (size 15 to 20)
#    0.000    2.333    0.000    0.500    9.333    4.000 
#    0.000    2.500    0.000    0.000    0.000    1.167 
#    0.000    0.000    0.000    0.000    0.000    0.000 
#
# Total GULP energy -267456.668073 kJ/mol
# GULP energy per Si atom -5572.013918 kJ/mol
# Density = 2.357172 g / cm^3
# Si number density = 23.625489 Si / 1000 Ang^3
#
#
#
# Elastic Constant Matrix: (Units=GPa)
#
#
# Indices 1 2 3 4 5 6 
#
# 1 63.2338 15.6786 5.2521 0.0000 0.0000 -7.7491
# 2 15.6786 63.2338 5.2521 0.0000 0.0000 7.7491
# 3 5.2521 5.2521 114.7450 0.0000 0.0000 0.0000
# 4 0.0000 0.0000 0.0000 78.3588 0.0000 0.0000
# 5 0.0000 0.0000 0.0000 0.0000 78.3588 0.0000
# 6 -7.7491 7.7491 0.0000 0.0000 0.0000 24.7529
#
#
#
# Elastic Compliance Matrix: (Units=1/GPa)
#
#
# Indices 1 2 3 4 5 6 
#
# 1 0.018084 -0.005334 -0.000584 0.000000 0.000000 0.007331
# 2 -0.005334 0.018084 -0.000584 0.000000 0.000000 -0.007331
# 3 -0.000584 -0.000584 0.008768 0.000000 0.000000 0.000000
# 4 0.000000 0.000000 0.000000 0.012762 0.000000 0.000000
# 5 0.000000 0.000000 0.000000 0.000000 0.012762 0.000000
# 6 0.007331 -0.007331 0.000000 0.000000 0.000000 0.044989
#
#
# Mechanical properties :
#
#
# Convention : Reuss Voigt Hill
#
# Bulk Modulus (GPa) = 31.31463 32.61981 31.96722
# Shear Modulus (GPa) = 35.94668 50.62941 43.28804
#
# Velocity S-wave (km/s) = 3.90490 4.63428 4.28513
# Velocity P-wave (km/s) = 5.79779 6.51708 6.16793
#
# Compressibility (1/GPa) = 0.03193395
#
# Stress axis : x y z
#
# Youngs Moduli (GPa) = 55.29862 55.29862 114.04589
#
# Poissons Ratio (x) = 0.29494 0.06656
# Poissons Ratio (y) = 0.29494 0.06656
# Poissons Ratio (z) = 0.03227 0.03227
#
# Static dielectric constant tensor:
#      x y z
#    x 1.896800 0.000000 0.000000 
#    y 0.000000 1.896800 0.000000 
#    z 0.000000 0.000000 2.000970 
# 
# From -- ./inp_files/5273.got.cif
#   From: 2010.05.17/outbox.cif.g08.bks.cpg/sg87_3_cif.got.tgz:5273.got - 2010.06.03 19:07:00.
