data_PCOD9545940
_publ_section_title
;
Structure prediction by ZEFSAII (Michael W. Deem and Ramdas Pophale) SiO2 
 PCOD9545940
Probable space group: I 4/M
;
_chemical_formula_sum "Si O2"
_cell_formula_units_Z 48
_cell_length_a 17.221912
_cell_length_b 17.221912
_cell_length_c 8.844856
_cell_angle_alpha 90.000000
_cell_angle_beta 90.000000
_cell_angle_gamma 90.000000
_cell_volume 2623.333458
_symmetry_space_group_name_H-M "I 4/M"
_symmetry_group_IT_number 87
_symmetry_cell_setting 'tetragonal'
loop_
_space_group_symop_operation_xyz
x,y,z
-y,x,z
-x,-y,z
y,-x,z
-x,-y,-z
y,-x,-z
x,y,-z
-y,x,-z
1/2+x,1/2+y,1/2+z
1/2-y,1/2+x,1/2+z
1/2-x,1/2-y,1/2+z
1/2+y,1/2-x,1/2+z
1/2-x,1/2-y,1/2-z
1/2+y,1/2-x,1/2-z
1/2+x,1/2+y,1/2-z
1/2-y,1/2+x,1/2-z
loop_
_atom_site_type_symbol
_atom_site_label
_atom_site_fract_x
_atom_site_fract_y
_atom_site_fract_z
Si Si1 0.571319 0.605355 0.681945
Si Si2 0.932761 0.598041 0.681742
Si Si3 0.835565 0.751623 0.680716
O O1 0.479885 0.604377 0.721708
O O2 0.576666 0.612949 0.500000
O O3 0.617561 0.674244 0.759194
O O4 0.937126 0.590937 0.500000
O O5 0.896840 0.519384 0.750560
O O6 0.882265 0.673214 0.721044
O O7 0.830075 0.754963 0.500000
O O8 0.750000 0.750000 0.750000
#
# Coordination Sequence:
#
# PCOD9545940 Si02
#       3
#    16  16  16
#     4   9  20  40  64  89 119 157 197 240 295 353
#     4  10  22  40  62  88 117 154 197 242 295 350
#     4  11  25  40  59  90 122 156 199 244 294 349
#
# _framework density 18.297332000000001
#
# number of rings (size 3 to 8) (size 9 to 14) (size 15 to 20)
#    0.000    2.000    0.000    4.000    4.667    6.667 
#    0.000    1.667    0.000    0.000    0.000    0.000 
#    0.000    0.000    0.000    0.000    0.000    0.000 
#
# Total GULP energy -134097.466306 kJ/mol
# GULP energy per Si atom -5587.394429 kJ/mol
# Density = 1.825569 g / cm^3
# Si number density = 18.297332 Si / 1000 Ang^3
#
#
#
# Elastic Constant Matrix: (Units=GPa)
#
#
# Indices 1 2 3 4 5 6 
#
# 1 177.1201 156.5113 75.4259 0.0000 0.0000 1.2408
# 2 156.5113 177.1201 75.4259 0.0000 0.0000 -1.2408
# 3 75.4259 75.4259 57.8101 0.0000 0.0000 0.0000
# 4 0.0000 0.0000 0.0000 34.8884 0.0000 0.0000
# 5 0.0000 0.0000 0.0000 0.0000 34.8884 0.0000
# 6 1.2408 -1.2408 0.0000 0.0000 0.0000 26.1030
#
#
#
# Elastic Compliance Matrix: (Units=1/GPa)
#
#
# Indices 1 2 3 4 5 6 
#
# 1 0.028056 -0.020747 -0.009537 0.000000 0.000000 -0.002320
# 2 -0.020747 0.028056 -0.009537 0.000000 0.000000 0.002320
# 3 -0.009537 -0.009537 0.042183 0.000000 0.000000 0.000000
# 4 0.000000 0.000000 0.000000 0.028663 0.000000 0.000000
# 5 0.000000 0.000000 0.000000 0.000000 0.028663 0.000000
# 6 -0.002320 0.002320 0.000000 0.000000 0.000000 0.038530
#
#
# Mechanical properties :
#
#
# Convention : Reuss Voigt Hill
#
# Bulk Modulus (GPa) = 53.60381 114.08631 83.84506
# Shear Modulus (GPa) = 17.85660 26.15510 22.00585
#
# Velocity S-wave (km/s) = 3.12735 3.78491 3.47173
# Velocity P-wave (km/s) = 6.51153 9.03257 7.87361
#
# Compressibility (1/GPa) = 0.01865539
#
# Stress axis : x y z
#
# Youngs Moduli (GPa) = 35.64322 35.64322 23.70619
#
# Poissons Ratio (x) = 0.73947 0.22608
# Poissons Ratio (y) = 0.73947 0.22608
# Poissons Ratio (z) = 0.33991 0.33991
#
# Static dielectric constant tensor:
#      x y z
#    x 1.604150 0.000000 0.000000 
#    y 0.000000 1.604150 0.000000 
#    z 0.000000 0.000000 1.613240 
# 
# From -- ./inp_files/565.got.cif
#   From: 2010.05.17/outbox.cif.g08.bks.cpg/sg87_1_cif.got.tgz:565.got - 2010.06.03 19:07:00.
