data_PCOD9545486
_publ_section_title
;
Structure prediction by ZEFSAII (Michael W. Deem and Ramdas Pophale) SiO2 
 PCOD9545486
Probable space group: I 4/M
;
_chemical_formula_sum "Si O2"
_cell_formula_units_Z 64
_cell_length_a 25.429205
_cell_length_b 25.429205
_cell_length_c 5.464942
_cell_angle_alpha 90.000000
_cell_angle_beta 90.000000
_cell_angle_gamma 90.000000
_cell_volume 3533.874506
_symmetry_space_group_name_H-M "I 4/M"
_symmetry_group_IT_number 87
_symmetry_cell_setting 'tetragonal'
loop_
_space_group_symop_operation_xyz
x,y,z
-y,x,z
-x,-y,z
y,-x,z
-x,-y,-z
y,-x,-z
x,y,-z
-y,x,-z
1/2+x,1/2+y,1/2+z
1/2-y,1/2+x,1/2+z
1/2-x,1/2-y,1/2+z
1/2+y,1/2-x,1/2+z
1/2-x,1/2-y,1/2-z
1/2+y,1/2-x,1/2-z
1/2+x,1/2+y,1/2-z
1/2-y,1/2+x,1/2-z
loop_
_atom_site_type_symbol
_atom_site_label
_atom_site_fract_x
_atom_site_fract_y
_atom_site_fract_z
Si Si1 0.844206 0.485186 0.500000
Si Si2 0.293443 0.561586 0.000000
Si Si3 0.726517 0.459207 0.500000
Si Si4 0.244035 0.666075 0.500000
Si Si5 0.217434 0.369539 0.000000
Si Si6 0.828817 0.597405 0.500000
Si Si7 0.427711 0.165179 0.000000
Si Si8 0.681152 0.697138 0.000000
O O1 0.780518 0.490932 0.500000
O O2 0.863923 0.544655 0.500000
O O3 0.855677 0.454578 0.248992
O O4 0.304795 0.532617 0.251584
O O5 0.228929 0.568305 0.000000
O O6 0.317902 0.619625 0.000000
O O7 0.744740 0.396919 0.500000
O O8 0.183183 0.681310 0.500000
O O9 0.269824 0.688138 0.749153
O O10 0.203742 0.400011 0.248629
O O11 0.277034 0.349319 0.000000
O O12 0.867718 0.647271 0.500000
#
# Coordination Sequence:
#
# PCOD9545486 Si02
#       8
#     8   8   8   8   8   8   8   8
#     4  10  20  34  51  65  81 107 137 178 230 270
#     4   8  14  25  42  61  80 109 139 163 196 234
#     4   8  14  25  41  58  76  98 137 177 201 230
#     4  10  17  28  44  63  85 117 147 167 198 238
#     4  12  21  30  42  67  98 116 135 166 204 267
#     4  12  23  34  50  69  86 110 141 178 233 281
#     4  10  19  35  51  65  83 104 140 184 217 261
#     4  10  18  27  41  63  93 123 140 157 195 246
#
# _framework density 18.110434999999999
#
# number of rings (size 3 to 8) (size 9 to 14) (size 15 to 20)
#    0.000    2.000    0.000    8.250    0.000    0.000 
#    0.000    0.000    0.000    2.250    0.000    0.000 
#    0.000    0.000    0.000    0.000    0.000    0.000 
#
# Total GULP energy -178468.216532 kJ/mol
# GULP energy per Si atom -5577.131767 kJ/mol
# Density = 1.806921 g / cm^3
# Si number density = 18.110435 Si / 1000 Ang^3
#
#
#
# Elastic Constant Matrix: (Units=GPa)
#
#
# Indices 1 2 3 4 5 6 
#
# 1 8.9388 9.7915 14.4193 0.0000 0.0000 -2.4275
# 2 9.7915 8.9388 14.4193 0.0000 0.0000 2.4275
# 3 14.4193 14.4193 198.2207 0.0000 0.0000 0.0000
# 4 0.0000 0.0000 0.0000 3.1502 0.0000 0.0000
# 5 0.0000 0.0000 0.0000 0.0000 3.1502 0.0000
# 6 -2.4275 2.4275 0.0000 0.0000 0.0000 3.4165
#
#
#
# Elastic Compliance Matrix: (Units=1/GPa)
#
#
# Indices 1 2 3 4 5 6 
#
# 1 -0.086158 0.146281 -0.004374 0.000000 0.000000 -0.165152
# 2 0.146281 -0.086158 -0.004374 0.000000 0.000000 0.165152
# 3 -0.004374 -0.004374 0.005681 0.000000 0.000000 0.000000
# 4 0.000000 0.000000 0.000000 0.317439 0.000000 0.000000
# 5 0.000000 0.000000 0.000000 0.000000 0.317439 0.000000
# 6 -0.165152 0.165152 0.000000 0.000000 0.000000 0.058013
#
#
# Mechanical properties :
#
#
# Convention : Reuss Voigt Hill
#
# Bulk Modulus (GPa) = 9.22227 32.59538 20.90883
# Shear Modulus (GPa) = 17.40132 13.77460 15.58796
#
# Velocity S-wave (km/s) = 3.10311 2.76087 2.93698
# Velocity P-wave (km/s) = 4.23584 5.31040 4.80327
#
# Compressibility (1/GPa) = 0.10843318
#
# Stress axis : x y z
#
# Youngs Moduli (GPa) = -11.60664 -11.60664 176.01989
#
# Poissons Ratio (x) = 1.69783 0.76983
# Poissons Ratio (y) = 1.69783 0.76983
# Poissons Ratio (z) = -0.05076 -0.05076
#
# Static dielectric constant tensor:
#      x y z
#    x 1.631030 0.000000 0.000000 
#    y 0.000000 1.631030 0.000000 
#    z 0.000000 0.000000 1.720800 
# 
# From -- ./inp_files/238.got.cif
#   From: 2010.05.17/outbox.cif.g08.bks.cpg/sg87_1_cif.got.tgz:238.got - 2010.06.03 19:07:00.
