data_PCOD9545310
_publ_section_title
;
Structure prediction by ZEFSAII (Michael W. Deem and Ramdas Pophale) SiO2 
 PCOD9545310
Probable space group: P 42/N
;
_chemical_formula_sum "Si O2"
_cell_formula_units_Z 46
_cell_length_a 11.044839
_cell_length_b 11.044839
_cell_length_c 17.766375
_cell_angle_alpha 90.000000
_cell_angle_beta 90.000000
_cell_angle_gamma 90.000000
_cell_volume 2167.292878
_symmetry_space_group_name_H-M "P 42/N"
_symmetry_group_IT_number 86
_space_group.IT_coordinate_system_code '2'
_symmetry_cell_setting 'tetragonal'
loop_
_space_group_symop_operation_xyz
x,y,z
-y,1/2+x,1/2+z
1/2-x,1/2-y,z
1/2+y,-x,1/2+z
-x,-y,-z
y,1/2-x,1/2-z
1/2+x,1/2+y,-z
1/2-y,x,1/2-z
loop_
_atom_site_type_symbol
_atom_site_label
_atom_site_fract_x
_atom_site_fract_y
_atom_site_fract_z
Si Si1 0.750000 0.750000 0.250000
Si Si2 0.553136 0.229850 0.384160
Si Si3 0.110839 0.921596 0.967134
Si Si4 0.554010 0.663428 0.842668
Si Si5 0.994220 0.230297 0.666585
Si Si6 0.552471 0.945353 0.819814
Si Si7 0.750000 0.250000 0.258379
O O1 0.739810 0.622962 0.204876
O O2 0.618036 0.182480 0.458873
O O3 0.426091 0.158659 0.373174
O O4 0.517641 0.369427 0.380935
O O5 0.639676 0.212107 0.312708
O O6 0.204567 0.993467 0.914287
O O7 0.046587 0.831433 0.908700
O O8 0.000000 0.000000 0.000000
O O9 0.581716 0.802291 0.824961
O O10 0.520082 0.597300 0.764198
O O11 0.870766 0.270994 0.709619
O O12 0.976970 0.086100 0.666407
#
# Coordination Sequence:
#
# PCOD9545310 Si02
#       7
#     2   8   8   8   8   8   4
#     4  12  28  44  76 104 156 188 246 300 376 448
#     4  11  24  41  67 108 138 187 232 302 363 434
#     4  10  25  46  65  98 147 187 228 292 375 426
#     4  11  21  41  70 102 138 178 233 306 357 413
#     4  12  25  46  71 104 142 198 240 304 364 441
#     4  12  22  41  75 105 134 178 259 295 349 432
#     4  12  24  44  78 106 144 188 258 298 354 434
#
# _framework density 21.224636
#
# number of rings (size 3 to 8) (size 9 to 14) (size 15 to 20)
#    0.000    0.696    3.478    4.696    2.435    2.783 
#    6.261    0.000    0.000    0.000    0.000    0.000 
#    0.000    0.000    0.000    0.000    0.000    0.000 
#
# Total GULP energy -256702.563378 kJ/mol
# GULP energy per Si atom -5580.490508 kJ/mol
# Density = 2.117633 g / cm^3
# Si number density = 21.224636 Si / 1000 Ang^3
#
#
#
# Elastic Constant Matrix: (Units=GPa)
#
#
# Indices 1 2 3 4 5 6 
#
# 1 118.8342 16.0102 49.3694 0.0000 0.0000 -4.3586
# 2 16.0102 118.8342 49.3694 0.0000 0.0000 4.3586
# 3 49.3694 49.3694 122.0600 0.0000 0.0000 0.0000
# 4 0.0000 0.0000 0.0000 8.5936 0.0000 0.0000
# 5 0.0000 0.0000 0.0000 0.0000 8.5936 0.0000
# 6 -4.3586 4.3586 0.0000 0.0000 0.0000 24.0944
#
#
#
# Elastic Compliance Matrix: (Units=1/GPa)
#
#
# Indices 1 2 3 4 5 6 
#
# 1 0.010207 0.000330 -0.004262 0.000000 0.000000 0.001787
# 2 0.000330 0.010207 -0.004262 0.000000 0.000000 -0.001787
# 3 -0.004262 -0.004262 0.011640 0.000000 0.000000 0.000000
# 4 0.000000 0.000000 0.000000 0.116365 0.000000 0.000000
# 5 0.000000 0.000000 0.000000 0.000000 0.116365 0.000000
# 6 0.001787 -0.001787 0.000000 0.000000 0.000000 0.042150
#
#
# Mechanical properties :
#
#
# Convention : Reuss Voigt Hill
#
# Bulk Modulus (GPa) = 63.83071 65.46960 64.65016
# Shear Modulus (GPa) = 15.21871 24.58829 19.90350
#
# Velocity S-wave (km/s) = 2.68065 3.40734 3.06560
# Velocity P-wave (km/s) = 6.30241 6.81124 6.56175
#
# Compressibility (1/GPa) = 0.01566644
#
# Stress axis : x y z
#
# Youngs Moduli (GPa) = 97.97490 97.97490 85.90963
#
# Poissons Ratio (x) = -0.03232 0.36612
# Poissons Ratio (y) = -0.03232 0.36612
# Poissons Ratio (z) = 0.41754 0.41754
#
# Static dielectric constant tensor:
#      x y z
#    x 1.807750 0.000000 0.000000 
#    y 0.000000 1.807750 0.000000 
#    z 0.000000 0.000000 1.772890 
# 
# From -- ./inp_files/3595.got.cif
#   From: 2010.05.17/outbox.cif.g08.bks.cpg/sg86_2_cif.got.tgz:3595.got - 2010.06.03 19:03:11.
