data_PCOD9545192
_publ_section_title
;
Structure prediction by ZEFSAII (Michael W. Deem and Ramdas Pophale) SiO2 
 PCOD9545192
Probable space group: P 42/N
;
_chemical_formula_sum "Si O2"
_cell_formula_units_Z 32
_cell_length_a 8.319452
_cell_length_b 8.319452
_cell_length_c 21.891674
_cell_angle_alpha 90.000000
_cell_angle_beta 90.000000
_cell_angle_gamma 90.000000
_cell_volume 1515.194597
_symmetry_space_group_name_H-M "P 42/N"
_symmetry_group_IT_number 86
_space_group.IT_coordinate_system_code '2'
_symmetry_cell_setting 'tetragonal'
loop_
_space_group_symop_operation_xyz
x,y,z
-y,1/2+x,1/2+z
1/2-x,1/2-y,z
1/2+y,-x,1/2+z
-x,-y,-z
y,1/2-x,1/2-z
1/2+x,1/2+y,-z
1/2-y,x,1/2-z
loop_
_atom_site_type_symbol
_atom_site_label
_atom_site_fract_x
_atom_site_fract_y
_atom_site_fract_z
Si Si1 0.250000 0.250000 0.145268
Si Si2 0.018508 0.542344 0.707606
Si Si3 0.938642 0.799380 0.326683
Si Si4 0.750000 0.250000 0.869533
Si Si5 0.485177 0.462597 0.428964
O O1 0.330229 0.383303 0.189148
O O2 0.386698 0.176184 0.100499
O O3 0.073246 0.504858 0.776693
O O4 0.970367 0.368695 0.681669
O O5 0.174725 0.612657 0.673179
O O6 0.750000 0.750000 0.317557
O O7 0.967760 0.878264 0.391613
O O8 0.827966 0.384863 0.911078
O O9 0.500000 0.500000 0.500000
#
# Coordination Sequence:
#
# PCOD9545192 Si02
#       5
#     4   8   8   4   8
#     4  10  28  45  68 106 144 187 228 316 362 413
#     4  11  22  44  71 105 137 176 237 295 372 415
#     4  12  22  42  74 103 129 188 238 286 350 438
#     4  10  22  42  68 100 148 176 230 310 342 426
#     4  11  26  44  68 101 144 193 241 287 354 428
#
# _framework density 21.119398
#
# number of rings (size 3 to 8) (size 9 to 14) (size 15 to 20)
#    0.000    1.000    5.000    0.000    1.750   10.000 
#    0.000    5.000    0.000    0.000    0.000    0.000 
#    0.000    0.000    0.000    0.000    0.000    0.000 
#
# Total GULP energy -178897.745045 kJ/mol
# GULP energy per Si atom -5590.554533 kJ/mol
# Density = 2.107133 g / cm^3
# Si number density = 21.119398 Si / 1000 Ang^3
#
#
#
# Elastic Constant Matrix: (Units=GPa)
#
#
# Indices 1 2 3 4 5 6 
#
# 1 82.5942 19.1340 53.1908 0.0000 0.0000 -2.5620
# 2 19.1340 82.5942 53.1908 0.0000 0.0000 2.5620
# 3 53.1908 53.1908 206.1791 0.0000 0.0000 0.0000
# 4 0.0000 0.0000 0.0000 21.6141 0.0000 0.0000
# 5 0.0000 0.0000 0.0000 0.0000 21.6141 0.0000
# 6 -2.5620 2.5620 0.0000 0.0000 0.0000 31.2965
#
#
#
# Elastic Compliance Matrix: (Units=1/GPa)
#
#
# Indices 1 2 3 4 5 6 
#
# 1 0.014662 -0.001200 -0.003473 0.000000 0.000000 0.001299
# 2 -0.001200 0.014662 -0.003473 0.000000 0.000000 -0.001299
# 3 -0.003473 -0.003473 0.006642 0.000000 0.000000 0.000000
# 4 0.000000 0.000000 0.000000 0.046266 0.000000 0.000000
# 5 0.000000 0.000000 0.000000 0.000000 0.046266 0.000000
# 6 0.001299 -0.001299 0.000000 0.000000 0.000000 0.032165
#
#
# Mechanical properties :
#
#
# Convention : Reuss Voigt Hill
#
# Bulk Modulus (GPa) = 50.82814 69.15542 59.99178
# Shear Modulus (GPa) = 27.24575 31.29506 29.27041
#
# Velocity S-wave (km/s) = 3.59567 3.85361 3.72687
# Velocity P-wave (km/s) = 6.43100 7.25372 6.85471
#
# Compressibility (1/GPa) = 0.01967414
#
# Stress axis : x y z
#
# Youngs Moduli (GPa) = 68.20187 68.20187 150.55508
#
# Poissons Ratio (x) = 0.08187 0.52287
# Poissons Ratio (y) = 0.08187 0.52287
# Poissons Ratio (z) = 0.23686 0.23686
#
# Static dielectric constant tensor:
#      x y z
#    x 1.816710 0.000000 0.000000 
#    y 0.000000 1.816710 0.000000 
#    z 0.000000 0.000000 1.715230 
# 
# From -- ./inp_files/3889.got.cif
#   From: 2010.05.17/outbox.cif.g08.bks.cpg/sg86_2_cif.got.tgz:3889.got - 2010.06.03 19:03:11.
