data_PCOD9545415
_publ_section_title
;
Structure prediction by ZEFSAII (Michael W. Deem and Ramdas Pophale) SiO2 
 PCOD9545415
Probable space group: P 42/N
;
_chemical_formula_sum "Si O2"
_cell_formula_units_Z 32
_cell_length_a 8.803178
_cell_length_b 8.803178
_cell_length_c 18.584821
_cell_angle_alpha 90.000000
_cell_angle_beta 90.000000
_cell_angle_gamma 90.000000
_cell_volume 1440.248227
_symmetry_space_group_name_H-M "P 42/N"
_symmetry_group_IT_number 86
_space_group.IT_coordinate_system_code '2'
_symmetry_cell_setting 'tetragonal'
loop_
_space_group_symop_operation_xyz
x,y,z
-y,1/2+x,1/2+z
1/2-x,1/2-y,z
1/2+y,-x,1/2+z
-x,-y,-z
y,1/2-x,1/2-z
1/2+x,1/2+y,-z
1/2-y,x,1/2-z
loop_
_atom_site_type_symbol
_atom_site_label
_atom_site_fract_x
_atom_site_fract_y
_atom_site_fract_z
Si Si1 0.784705 0.418149 0.795224
Si Si2 0.074680 0.288783 0.563688
Si Si3 0.410860 0.099966 0.407392
Si Si4 0.618852 0.458113 0.647537
O O1 0.750000 0.250000 0.825239
O O2 0.684854 0.544795 0.835030
O O3 0.731286 0.413872 0.712880
O O4 0.950831 0.480269 0.814502
O O5 0.250000 0.250000 0.580838
O O6 0.058078 0.297643 0.477306
O O7 0.021613 0.455350 0.588083
O O8 0.959780 0.173211 0.601708
O O9 0.235497 0.048903 0.404028
#
# Coordination Sequence:
#
# PCOD9545415 Si02
#       4
#     8   8   8   8
#     4  12  25  43  70 103 139 190 247 304 370 444
#     4  11  25  46  71 108 148 191 243 311 370 445
#     4  11  25  45  73 102 144 195 242 302 378 441
#     4  12  25  46  72 103 146 194 251 303 374 455
#
# _framework density 22.218394
#
# number of rings (size 3 to 8) (size 9 to 14) (size 15 to 20)
#    0.000    0.500    2.500    6.000    0.000    8.000 
#    0.000    0.000    0.000    0.000    0.000    0.000 
#    0.000    0.000    0.000    0.000    0.000    0.000 
#
# Total GULP energy -178881.811042 kJ/mol
# GULP energy per Si atom -5590.056595 kJ/mol
# Density = 2.216782 g / cm^3
# Si number density = 22.218394 Si / 1000 Ang^3
#
#
#
# Elastic Constant Matrix: (Units=GPa)
#
#
# Indices 1 2 3 4 5 6 
#
# 1 104.3956 38.0675 40.4250 0.0000 0.0000 5.9960
# 2 38.0675 104.3956 40.4250 0.0000 0.0000 -5.9960
# 3 40.4250 40.4250 123.3621 0.0000 0.0000 0.0000
# 4 0.0000 0.0000 0.0000 38.3264 0.0000 0.0000
# 5 0.0000 0.0000 0.0000 0.0000 38.3264 0.0000
# 6 5.9960 -5.9960 0.0000 0.0000 0.0000 46.5555
#
#
#
# Elastic Compliance Matrix: (Units=1/GPa)
#
#
# Indices 1 2 3 4 5 6 
#
# 1 0.012029 -0.003407 -0.002826 0.000000 0.000000 -0.001988
# 2 -0.003407 0.012029 -0.002826 0.000000 0.000000 0.001988
# 3 -0.002826 -0.002826 0.009958 0.000000 0.000000 0.000000
# 4 0.000000 0.000000 0.000000 0.026092 0.000000 0.000000
# 5 0.000000 0.000000 0.000000 0.000000 0.026092 0.000000
# 6 -0.001988 0.001988 0.000000 0.000000 0.000000 0.021992
#
#
# Mechanical properties :
#
#
# Convention : Reuss Voigt Hill
#
# Bulk Modulus (GPa) = 62.88783 63.33202 63.10993
# Shear Modulus (GPa) = 37.99144 38.85737 38.42440
#
# Velocity S-wave (km/s) = 4.13959 4.18650 4.16311
# Velocity P-wave (km/s) = 7.15640 7.20661 7.18155
#
# Compressibility (1/GPa) = 0.01590133
#
# Stress axis : x y z
#
# Youngs Moduli (GPa) = 83.12900 83.12900 100.42035
#
# Poissons Ratio (x) = 0.28318 0.28376
# Poissons Ratio (y) = 0.28318 0.28376
# Poissons Ratio (z) = 0.23490 0.23490
#
# Static dielectric constant tensor:
#      x y z
#    x 1.830250 0.000000 0.000000 
#    y 0.000000 1.830250 0.000000 
#    z 0.000000 0.000000 1.806970 
# 
# From -- ./inp_files/3845.got.cif
#   From: 2010.05.17/outbox.cif.g08.bks.cpg/sg86_2_cif.got.tgz:3845.got - 2010.06.03 19:03:11.
