data_PCOD9545256
_publ_section_title
;
Structure prediction by ZEFSAII (Michael W. Deem and Ramdas Pophale) SiO2 
 PCOD9545256
Probable space group: P 42/N
;
_chemical_formula_sum "Si O2"
_cell_formula_units_Z 34
_cell_length_a 10.265534
_cell_length_b 10.265534
_cell_length_c 13.157637
_cell_angle_alpha 90.000000
_cell_angle_beta 90.000000
_cell_angle_gamma 90.000000
_cell_volume 1386.567422
_symmetry_space_group_name_H-M "P 42/N"
_symmetry_group_IT_number 86
_space_group.IT_coordinate_system_code '2'
_symmetry_cell_setting 'tetragonal'
loop_
_space_group_symop_operation_xyz
x,y,z
-y,1/2+x,1/2+z
1/2-x,1/2-y,z
1/2+y,-x,1/2+z
-x,-y,-z
y,1/2-x,1/2-z
1/2+x,1/2+y,-z
1/2-y,x,1/2-z
loop_
_atom_site_type_symbol
_atom_site_label
_atom_site_fract_x
_atom_site_fract_y
_atom_site_fract_z
Si Si1 0.750000 0.750000 0.250000
Si Si2 0.048475 0.206437 0.930332
Si Si3 0.368966 0.844656 0.933634
Si Si4 0.810242 0.001658 0.962459
Si Si5 0.750581 0.965515 0.753737
O O1 0.771852 0.625002 0.325348
O O2 0.143495 0.143445 0.014013
O O3 0.934524 0.093939 0.933383
O O4 0.981212 0.330381 0.982563
O O5 0.250000 0.750000 0.965046
O O6 0.429246 0.792121 0.829407
O O7 0.281844 0.972801 0.938954
O O8 0.721267 0.021718 0.864316
O O9 0.874658 0.871360 0.771217
#
# Coordination Sequence:
#
# PCOD9545256 Si02
#       5
#     2   8   8   8   8
#     4  12  28  40  76  98 148 196 236 304 368 434
#     4  10  24  46  62 103 143 180 244 300 351 433
#     4  10  23  44  70  99 139 187 240 292 360 431
#     4  10  23  44  69  97 144 188 236 304 353 431
#     4  11  24  41  71 105 141 185 233 295 360 431
#
# _framework density 24.520983000000001
#
# number of rings (size 3 to 8) (size 9 to 14) (size 15 to 20)
#    0.000    1.647    2.353    0.000    6.588    5.647 
#    0.000    0.000    0.000    0.000    0.000    0.000 
#    0.000    0.000    0.000    0.000    0.000    0.000 
#
# Total GULP energy -189442.810938 kJ/mol
# GULP energy per Si atom -5571.847381 kJ/mol
# Density = 2.446517 g / cm^3
# Si number density = 24.520983 Si / 1000 Ang^3
#
#
#
# Elastic Constant Matrix: (Units=GPa)
#
#
# Indices 1 2 3 4 5 6 
#
# 1 73.5214 38.5632 21.2872 0.0000 0.0000 -4.6326
# 2 38.5632 73.5214 21.2872 0.0000 0.0000 4.6326
# 3 21.2872 21.2872 105.6392 0.0000 0.0000 0.0000
# 4 0.0000 0.0000 0.0000 29.0095 0.0000 0.0000
# 5 0.0000 0.0000 0.0000 0.0000 29.0095 0.0000
# 6 -4.6326 4.6326 0.0000 0.0000 0.0000 34.7934
#
#
#
# Elastic Compliance Matrix: (Units=1/GPa)
#
#
# Indices 1 2 3 4 5 6 
#
# 1 0.019657 -0.009995 -0.001947 0.000000 0.000000 0.003948
# 2 -0.009995 0.019657 -0.001947 0.000000 0.000000 -0.003948
# 3 -0.001947 -0.001947 0.010251 0.000000 0.000000 0.000000
# 4 0.000000 0.000000 0.000000 0.034471 0.000000 0.000000
# 5 0.000000 0.000000 0.000000 0.000000 0.034471 0.000000
# 6 0.003948 -0.003948 0.000000 0.000000 0.000000 0.029792
#
#
# Mechanical properties :
#
#
# Convention : Reuss Voigt Hill
#
# Bulk Modulus (GPa) = 45.90084 46.10633 46.00359
# Shear Modulus (GPa) = 27.27180 29.99878 28.63529
#
# Velocity S-wave (km/s) = 3.33856 3.50150 3.42100
# Velocity P-wave (km/s) = 5.79836 5.93219 5.86566
#
# Compressibility (1/GPa) = 0.02178609
#
# Stress axis : x y z
#
# Youngs Moduli (GPa) = 50.87330 50.87330 97.55344
#
# Poissons Ratio (x) = 0.50850 0.18992
# Poissons Ratio (y) = 0.50850 0.18992
# Poissons Ratio (z) = 0.09904 0.09904
#
# Static dielectric constant tensor:
#      x y z
#    x 2.151010 0.000000 0.000000 
#    y 0.000000 2.151010 0.000000 
#    z 0.000000 0.000000 1.980030 
# 
# From -- ./inp_files/2053.got.cif
#   From: 2010.05.17/outbox.cif.g08.bks.cpg/sg86_2_cif.got.tgz:2053.got - 2010.06.03 19:03:11.
