data_PCOD9545596
_publ_section_title
;
Structure prediction by ZEFSAII (Michael W. Deem and Ramdas Pophale) SiO2 
 PCOD9545596
Probable space group: I 4/M
;
_chemical_formula_sum "Si O2"
_cell_formula_units_Z 128
_cell_length_a 19.232682
_cell_length_b 19.232682
_cell_length_c 18.638412
_cell_angle_alpha 90.000000
_cell_angle_beta 90.000000
_cell_angle_gamma 90.000000
_cell_volume 6894.275106
_symmetry_space_group_name_H-M "I 4/M"
_symmetry_group_IT_number 87
_symmetry_cell_setting 'tetragonal'
loop_
_space_group_symop_operation_xyz
x,y,z
-y,x,z
-x,-y,z
y,-x,z
-x,-y,-z
y,-x,-z
x,y,-z
-y,x,-z
1/2+x,1/2+y,1/2+z
1/2-y,1/2+x,1/2+z
1/2-x,1/2-y,1/2+z
1/2+y,1/2-x,1/2+z
1/2-x,1/2-y,1/2-z
1/2+y,1/2-x,1/2-z
1/2+x,1/2+y,1/2-z
1/2-y,1/2+x,1/2-z
loop_
_atom_site_type_symbol
_atom_site_label
_atom_site_fract_x
_atom_site_fract_y
_atom_site_fract_z
Si Si1 0.265594 0.412370 0.228368
Si Si2 0.741106 0.731365 0.417092
Si Si3 0.365147 0.335587 0.684043
Si Si4 0.560700 0.947652 0.366632
Si Si5 0.662639 0.794684 0.786820
Si Si6 0.535315 0.611899 0.579610
Si Si7 0.206511 0.392060 0.920657
Si Si8 0.349581 0.980484 0.754552
O O1 0.338816 0.399352 0.266498
O O2 0.220661 0.343818 0.250679
O O3 0.257922 0.416441 0.142555
O O4 0.221663 0.477128 0.255951
O O5 0.757896 0.716537 0.500000
O O6 0.687569 0.676550 0.382672
O O7 0.807185 0.729245 0.363300
O O8 0.705944 0.807954 0.414567
O O9 0.355216 0.269316 0.735153
O O10 0.439230 0.343141 0.646398
O O11 0.629481 0.925500 0.410888
O O12 0.527179 0.877722 0.334913
O O13 0.500000 0.000000 0.394139
O O14 0.594536 0.980157 0.294593
O O15 0.592212 0.838204 0.786119
O O16 0.456938 0.583992 0.583463
O O17 0.544991 0.643804 0.500000
O O18 0.232052 0.409545 0.000000
#
# Coordination Sequence:
#
# PCOD9545596 Si02
#       8
#    16  16  16  16  16  16  16  16
#     4  10  19  33  51  77 103 135 179 223 265 312
#     4  10  19  34  53  74 104 141 173 219 276 317
#     4  11  19  32  55  81 103 128 182 228 259 308
#     4  11  18  32  52  77 102 145 182 212 261 327
#     4  11  19  33  51  79 104 133 179 230 268 311
#     4   9  20  38  54  74 110 144 164 197 263 334
#     4  10  19  33  50  72 103 140 177 215 267 318
#     4  11  18  31  52  76 103 138 177 222 268 314
#
# _framework density 18.566130000000001
#
# number of rings (size 3 to 8) (size 9 to 14) (size 15 to 20)
#    0.000    1.625    6.250    1.500    1.750    0.250 
#    0.000    2.500    0.000    6.000    0.000    0.000 
#    0.000    0.000    0.000    3.000    0.000    0.000 
#
# Total GULP energy -356602.912864 kJ/mol
# GULP energy per Si atom -5571.920513 kJ/mol
# Density = 1.852387 g / cm^3
# Si number density = 18.566130 Si / 1000 Ang^3
#
#
#
# Elastic Constant Matrix: (Units=GPa)
#
#
# Indices 1 2 3 4 5 6 
#
# 1 42.4053 7.9320 21.5725 0.0000 0.0000 2.1981
# 2 7.9320 42.4053 21.5725 0.0000 0.0000 -2.1981
# 3 21.5725 21.5725 122.7023 0.0000 0.0000 0.0000
# 4 0.0000 0.0000 0.0000 21.4158 0.0000 0.0000
# 5 0.0000 0.0000 0.0000 0.0000 21.4158 0.0000
# 6 2.1981 -2.1981 0.0000 0.0000 0.0000 30.9386
#
#
#
# Elastic Compliance Matrix: (Units=1/GPa)
#
#
# Indices 1 2 3 4 5 6 
#
# 1 0.026332 -0.002941 -0.004112 0.000000 0.000000 -0.002080
# 2 -0.002941 0.026332 -0.004112 0.000000 0.000000 0.002080
# 3 -0.004112 -0.004112 0.009596 0.000000 0.000000 0.000000
# 4 0.000000 0.000000 0.000000 0.046695 0.000000 0.000000
# 5 0.000000 0.000000 0.000000 0.000000 0.046695 0.000000
# 6 -0.002080 0.002080 0.000000 0.000000 0.000000 0.032618
#
#
# Mechanical properties :
#
#
# Convention : Reuss Voigt Hill
#
# Bulk Modulus (GPa) = 25.04517 34.40742 29.72630
# Shear Modulus (GPa) = 22.33062 25.18308 23.75685
#
# Velocity S-wave (km/s) = 3.47185 3.68693 3.58100
# Velocity P-wave (km/s) = 5.43973 6.05782 5.75707
#
# Compressibility (1/GPa) = 0.03992786
#
# Stress axis : x y z
#
# Youngs Moduli (GPa) = 37.97665 37.97665 104.21221
#
# Poissons Ratio (x) = 0.11170 0.42856
# Poissons Ratio (y) = 0.11170 0.42856
# Poissons Ratio (z) = 0.15617 0.15617
#
# Static dielectric constant tensor:
#      x y z
#    x 1.699750 0.000000 0.000000 
#    y 0.000000 1.699750 0.000000 
#    z 0.000000 0.000000 1.653080 
# 
# From -- ./inp_files/4736.got.cif
#   From: 2010.05.17/outbox.cif.g08.bks.cpg/sg87_3_cif.got.tgz:4736.got - 2010.06.03 19:07:00.
