data_PCOD9545681
_publ_section_title
;
Structure prediction by ZEFSAII (Michael W. Deem and Ramdas Pophale) SiO2 
 PCOD9545681
Probable space group: I 4/M
;
_chemical_formula_sum "Si O2"
_cell_formula_units_Z 64
_cell_length_a 16.760979
_cell_length_b 16.760979
_cell_length_c 8.423443
_cell_angle_alpha 90.000000
_cell_angle_beta 90.000000
_cell_angle_gamma 90.000000
_cell_volume 2366.401355
_symmetry_space_group_name_H-M "I 4/M"
_symmetry_group_IT_number 87
_symmetry_cell_setting 'tetragonal'
loop_
_space_group_symop_operation_xyz
x,y,z
-y,x,z
-x,-y,z
y,-x,z
-x,-y,-z
y,-x,-z
x,y,-z
-y,x,-z
1/2+x,1/2+y,1/2+z
1/2-y,1/2+x,1/2+z
1/2-x,1/2-y,1/2+z
1/2+y,1/2-x,1/2+z
1/2-x,1/2-y,1/2-z
1/2+y,1/2-x,1/2-z
1/2+x,1/2+y,1/2-z
1/2-y,1/2+x,1/2-z
loop_
_atom_site_type_symbol
_atom_site_label
_atom_site_fract_x
_atom_site_fract_y
_atom_site_fract_z
Si Si1 0.698940 0.044997 0.324707
Si Si2 0.542223 0.351063 0.828035
Si Si3 0.009532 0.737917 0.000000
Si Si4 0.790565 0.671982 0.182107
Si Si5 0.891426 0.113308 0.000000
O O1 0.672237 0.016343 0.500000
O O2 0.685720 0.000608 0.157346
O O3 0.664699 0.131893 0.291714
O O4 0.796533 0.038561 0.329074
O O5 0.605945 0.278056 0.827264
O O6 0.563648 0.400195 0.669598
O O7 0.549510 0.390575 0.000000
O O8 0.938772 0.809279 0.000000
O O9 0.092702 0.789042 0.000000
O O10 0.750000 0.750000 0.250000
O O11 0.817784 0.683792 0.000000
#
# Coordination Sequence:
#
# PCOD9545681 Si02
#       5
#    16  16   8  16   8
#     4  10  20  36  53  74 107 142 172 214 270 318
#     4   9  21  36  51  74 107 142 171 210 269 325
#     4  10  20  35  50  76  99 139 175 217 260 322
#     4  11  21  33  53  84 109 134 179 226 265 318
#     4  10  20  33  54  70 103 135 177 213 264 312
#
# _framework density 27.045283999999999
#
# number of rings (size 3 to 8) (size 9 to 14) (size 15 to 20)
#    0.000    2.000    1.250    2.250    3.500    3.250 
#    0.000    0.000    0.000    0.750    0.000   12.250 
#    0.000    0.000    0.000    0.000    0.000    0.000 
#
# Total GULP energy -178221.794281 kJ/mol
# GULP energy per Si atom -5569.431071 kJ/mol
# Density = 2.698373 g / cm^3
# Si number density = 27.045284 Si / 1000 Ang^3
#
#
#
# Elastic Constant Matrix: (Units=GPa)
#
#
# Indices 1 2 3 4 5 6 
#
# 1 115.7653 67.6437 22.1614 0.0000 0.0000 -0.8108
# 2 67.6437 115.7653 22.1614 0.0000 0.0000 0.8108
# 3 22.1614 22.1614 307.7496 0.0000 0.0000 0.0000
# 4 0.0000 0.0000 0.0000 15.3705 0.0000 0.0000
# 5 0.0000 0.0000 0.0000 0.0000 15.3705 0.0000
# 6 -0.8108 0.8108 0.0000 0.0000 0.0000 53.0694
#
#
#
# Elastic Compliance Matrix: (Units=1/GPa)
#
#
# Indices 1 2 3 4 5 6 
#
# 1 0.013170 -0.007621 -0.000400 0.000000 0.000000 0.000318
# 2 -0.007621 0.013170 -0.000400 0.000000 0.000000 -0.000318
# 3 -0.000400 -0.000400 0.003307 0.000000 0.000000 0.000000
# 4 0.000000 0.000000 0.000000 0.065060 0.000000 0.000000
# 5 0.000000 0.000000 0.000000 0.000000 0.065060 0.000000
# 6 0.000318 -0.000318 0.000000 0.000000 0.000000 0.018853
#
#
# Mechanical properties :
#
#
# Convention : Reuss Voigt Hill
#
# Bulk Modulus (GPa) = 78.08631 84.80145 81.44388
# Shear Modulus (GPa) = 25.03389 45.24966 35.14177
#
# Velocity S-wave (km/s) = 3.04572 4.09480 3.60859
# Velocity P-wave (km/s) = 6.42679 7.33348 6.89505
#
# Compressibility (1/GPa) = 0.01280634
#
# Stress axis : x y z
#
# Youngs Moduli (GPa) = 75.92950 75.92950 302.39404
#
# Poissons Ratio (x) = 0.57868 0.12083
# Poissons Ratio (y) = 0.57868 0.12083
# Poissons Ratio (z) = 0.03034 0.03034
#
# Static dielectric constant tensor:
#      x y z
#    x 2.133330 0.000000 0.000000 
#    y 0.000000 2.133330 0.000000 
#    z 0.000000 0.000000 2.257110 
# 
# From -- ./inp_files/978.got.cif
#   From: 2010.05.17/outbox.cif.g08.bks.cpg/sg87_1_cif.got.tgz:978.got - 2010.06.03 19:07:00.
