data_PCOD9545334
_publ_section_title
;
Structure prediction by ZEFSAII (Michael W. Deem and Ramdas Pophale) SiO2 
 PCOD9545334
Probable space group: P 42/N
;
_chemical_formula_sum "Si O2"
_cell_formula_units_Z 44
_cell_length_a 10.749572
_cell_length_b 10.749572
_cell_length_c 18.037060
_cell_angle_alpha 90.000000
_cell_angle_beta 90.000000
_cell_angle_gamma 90.000000
_cell_volume 2084.241773
_symmetry_space_group_name_H-M "P 42/N"
_symmetry_group_IT_number 86
_space_group.IT_coordinate_system_code '2'
_symmetry_cell_setting 'tetragonal'
loop_
_space_group_symop_operation_xyz
x,y,z
-y,1/2+x,1/2+z
1/2-x,1/2-y,z
1/2+y,-x,1/2+z
-x,-y,-z
y,1/2-x,1/2-z
1/2+x,1/2+y,-z
1/2-y,x,1/2-z
loop_
_atom_site_type_symbol
_atom_site_label
_atom_site_fract_x
_atom_site_fract_y
_atom_site_fract_z
Si Si1 0.250000 0.750000 0.236875
Si Si2 0.806164 0.063764 0.993373
Si Si3 0.367997 0.316156 0.084235
Si Si4 0.140449 0.972302 0.522844
Si Si5 0.328569 0.970887 0.634693
Si Si6 0.068387 0.594376 0.342123
O O1 0.150551 0.821599 0.185921
O O2 0.158974 0.662902 0.285369
O O3 0.678222 0.134713 0.976403
O O4 0.919374 0.113532 0.942745
O O5 0.807778 0.918424 0.971288
O O6 0.835060 0.078502 0.079452
O O7 0.250000 0.250000 0.119511
O O8 0.455438 0.381554 0.143806
O O9 0.456285 0.222511 0.038538
O O10 0.193288 0.012594 0.603884
O O11 0.000000 0.000000 0.500000
O O12 0.420317 0.072805 0.670142
#
# Coordination Sequence:
#
# PCOD9545334 Si02
#       6
#     4   8   8   8   8   8
#     4  12  26  46  70  94 146 206 234 276 368 438
#     4  11  20  40  73  92 128 177 226 292 348 406
#     4  11  21  38  62 103 132 162 226 302 347 400
#     4  12  21  35  68 104 131 168 219 286 361 410
#     4  11  23  46  68  99 138 179 232 294 352 416
#     4  11  24  45  69  96 134 183 236 284 343 432
#
# _framework density 21.110796000000001
#
# number of rings (size 3 to 8) (size 9 to 14) (size 15 to 20)
#    0.000    0.727    7.273    2.182    0.000    0.000 
#   13.091    0.000    0.000    0.000    0.000    0.000 
#    0.000    0.000    0.000    0.000    0.000    0.000 
#
# Total GULP energy -245391.454734 kJ/mol
# GULP energy per Si atom -5577.078517 kJ/mol
# Density = 2.106275 g / cm^3
# Si number density = 21.110796 Si / 1000 Ang^3
#
#
#
# Elastic Constant Matrix: (Units=GPa)
#
#
# Indices 1 2 3 4 5 6 
#
# 1 93.8711 43.4857 20.4035 0.0000 0.0000 -0.4344
# 2 43.4857 93.8711 20.4035 0.0000 0.0000 0.4344
# 3 20.4035 20.4035 66.1497 0.0000 0.0000 0.0000
# 4 0.0000 0.0000 0.0000 18.4155 0.0000 0.0000
# 5 0.0000 0.0000 0.0000 0.0000 18.4155 0.0000
# 6 -0.4344 0.4344 0.0000 0.0000 0.0000 51.8760
#
#
#
# Elastic Compliance Matrix: (Units=1/GPa)
#
#
# Indices 1 2 3 4 5 6 
#
# 1 0.013932 -0.005918 -0.002472 0.000000 0.000000 0.000166
# 2 -0.005918 0.013932 -0.002472 0.000000 0.000000 -0.000166
# 3 -0.002472 -0.002472 0.016642 0.000000 0.000000 0.000000
# 4 0.000000 0.000000 0.000000 0.054302 0.000000 0.000000
# 5 0.000000 0.000000 0.000000 0.000000 0.054302 0.000000
# 6 0.000166 -0.000166 0.000000 0.000000 0.000000 0.019280
#
#
# Mechanical properties :
#
#
# Convention : Reuss Voigt Hill
#
# Bulk Modulus (GPa) = 43.89178 46.94194 45.41686
# Shear Modulus (GPa) = 24.78823 29.04801 26.91812
#
# Velocity S-wave (km/s) = 3.43037 3.71344 3.57471
# Velocity P-wave (km/s) = 6.04369 6.37734 6.21276
#
# Compressibility (1/GPa) = 0.02278331
#
# Stress axis : x y z
#
# Youngs Moduli (GPa) = 71.77562 71.77562 60.08805
#
# Poissons Ratio (x) = 0.42474 0.14854
# Poissons Ratio (y) = 0.42474 0.14854
# Poissons Ratio (z) = 0.17744 0.17744
#
# Static dielectric constant tensor:
#      x y z
#    x 1.886030 0.000000 0.000000 
#    y 0.000000 1.886030 0.000000 
#    z 0.000000 0.000000 1.743670 
# 
# From -- ./inp_files/3461.got.cif
#   From: 2010.05.17/outbox.cif.g08.bks.cpg/sg86_2_cif.got.tgz:3461.got - 2010.06.03 19:03:11.
