data_PCOD9545227
_publ_section_title
;
Structure prediction by ZEFSAII (Michael W. Deem and Ramdas Pophale) SiO2 
 PCOD9545227
Probable space group: P 42/N
;
_chemical_formula_sum "Si O2"
_cell_formula_units_Z 56
_cell_length_a 14.918267
_cell_length_b 14.918267
_cell_length_c 11.642882
_cell_angle_alpha 90.000000
_cell_angle_beta 90.000000
_cell_angle_gamma 90.000000
_cell_volume 2591.177998
_symmetry_space_group_name_H-M "P 42/N"
_symmetry_group_IT_number 86
_space_group.IT_coordinate_system_code '2'
_symmetry_cell_setting 'tetragonal'
loop_
_space_group_symop_operation_xyz
x,y,z
-y,1/2+x,1/2+z
1/2-x,1/2-y,z
1/2+y,-x,1/2+z
-x,-y,-z
y,1/2-x,1/2-z
1/2+x,1/2+y,-z
1/2-y,x,1/2-z
loop_
_atom_site_type_symbol
_atom_site_label
_atom_site_fract_x
_atom_site_fract_y
_atom_site_fract_z
Si Si1 0.259407 0.095035 0.503654
Si Si2 0.849029 0.227926 0.363618
Si Si3 0.753029 0.882509 0.955078
Si Si4 0.030758 0.527273 0.870729
Si Si5 0.706949 0.523245 0.727681
Si Si6 0.729892 0.065551 0.086122
Si Si7 0.976081 0.339505 0.811372
O O1 0.185055 0.171959 0.478553
O O2 0.347584 0.155490 0.514340
O O3 0.262701 0.035603 0.388956
O O4 0.227121 0.034978 0.609729
O O5 0.750000 0.250000 0.318903
O O6 0.928431 0.269884 0.287708
O O7 0.859513 0.260122 0.495497
O O8 0.859773 0.120479 0.367808
O O9 0.770817 0.900522 0.821042
O O10 0.727284 0.975873 0.010404
O O11 0.970293 0.603121 0.811611
O O12 0.128078 0.573039 0.871898
O O13 0.027848 0.433705 0.803244
O O14 0.000000 0.500000 0.000000
O O15 0.795096 0.048415 0.191224
#
# Coordination Sequence:
#
# PCOD9545227 Si02
#       7
#     8   8   8   8   8   8   8
#     4  11  22  40  66 101 137 177 220 283 352 412
#     4  11  26  48  67  98 137 183 233 288 336 404
#     4  10  23  40  63 100 142 172 222 286 346 409
#     4  12  22  45  71  99 135 181 229 276 345 416
#     4  11  23  41  71  99 131 179 233 281 339 414
#     4  11  24  44  66 100 134 174 230 276 342 410
#     4  12  26  41  73  98 133 185 226 283 347 410
#
# _framework density 21.611792000000001
#
# number of rings (size 3 to 8) (size 9 to 14) (size 15 to 20)
#    0.000    0.857    4.286    1.714    6.000    4.000 
#    0.000    2.857    0.000    0.000    0.000    0.000 
#    0.000    0.000    0.000    0.000    0.000    0.000 
#
# Total GULP energy -313053.317638 kJ/mol
# GULP energy per Si atom -5590.237815 kJ/mol
# Density = 2.156260 g / cm^3
# Si number density = 21.611792 Si / 1000 Ang^3
#
#
#
# Elastic Constant Matrix: (Units=GPa)
#
#
# Indices 1 2 3 4 5 6 
#
# 1 69.3484 -7.7700 15.6442 0.0000 0.0000 -2.7618
# 2 -7.7700 69.3484 15.6442 0.0000 0.0000 2.7618
# 3 15.6442 15.6442 87.1090 0.0000 0.0000 0.0000
# 4 0.0000 0.0000 0.0000 27.1984 0.0000 0.0000
# 5 0.0000 0.0000 0.0000 0.0000 27.1984 0.0000
# 6 -2.7618 2.7618 0.0000 0.0000 0.0000 31.1685
#
#
#
# Elastic Compliance Matrix: (Units=1/GPa)
#
#
# Indices 1 2 3 4 5 6 
#
# 1 0.015460 0.002410 -0.003209 0.000000 0.000000 0.001156
# 2 0.002410 0.015460 -0.003209 0.000000 0.000000 -0.001156
# 3 -0.003209 -0.003209 0.012633 0.000000 0.000000 0.000000
# 4 0.000000 0.000000 0.000000 0.036767 0.000000 0.000000
# 5 0.000000 0.000000 0.000000 0.000000 0.036767 0.000000
# 6 0.001156 -0.001156 0.000000 0.000000 0.000000 0.032289
#
#
# Mechanical properties :
#
#
# Convention : Reuss Voigt Hill
#
# Bulk Modulus (GPa) = 28.14090 30.31588 29.22839
# Shear Modulus (GPa) = 29.54430 30.59889 30.07160
#
# Velocity S-wave (km/s) = 3.70137 3.76685 3.73425
# Velocity P-wave (km/s) = 5.59609 5.74254 5.66979
#
# Compressibility (1/GPa) = 0.03553546
#
# Stress axis : x y z
#
# Youngs Moduli (GPa) = 64.68294 64.68294 79.16004
#
# Poissons Ratio (x) = -0.15589 0.25405
# Poissons Ratio (y) = -0.15589 0.25405
# Poissons Ratio (z) = 0.20759 0.20759
#
# Static dielectric constant tensor:
#      x y z
#    x 1.811400 0.000000 0.000000 
#    y 0.000000 1.811400 0.000000 
#    z 0.000000 0.000000 1.805760 
# 
# From -- ./inp_files/2373.got.cif
#   From: 2010.05.17/outbox.cif.g08.bks.cpg/sg86_2_cif.got.tgz:2373.got - 2010.06.03 19:03:11.
