data_PCOD9545911
_publ_section_title
;
Structure prediction by ZEFSAII (Michael W. Deem and Ramdas Pophale) SiO2 
 PCOD9545911
Probable space group: I 4/M
;
_chemical_formula_sum "Si O2"
_cell_formula_units_Z 72
_cell_length_a 17.721026
_cell_length_b 17.721026
_cell_length_c 11.967049
_cell_angle_alpha 90.000000
_cell_angle_beta 90.000000
_cell_angle_gamma 90.000000
_cell_volume 3758.069390
_symmetry_space_group_name_H-M "I 4/M"
_symmetry_group_IT_number 87
_symmetry_cell_setting 'tetragonal'
loop_
_space_group_symop_operation_xyz
x,y,z
-y,x,z
-x,-y,z
y,-x,z
-x,-y,-z
y,-x,-z
x,y,-z
-y,x,-z
1/2+x,1/2+y,1/2+z
1/2-y,1/2+x,1/2+z
1/2-x,1/2-y,1/2+z
1/2+y,1/2-x,1/2+z
1/2-x,1/2-y,1/2-z
1/2+y,1/2-x,1/2-z
1/2+x,1/2+y,1/2-z
1/2-y,1/2+x,1/2-z
loop_
_atom_site_type_symbol
_atom_site_label
_atom_site_fract_x
_atom_site_fract_y
_atom_site_fract_z
Si Si1 0.107388 0.936737 0.500000
Si Si2 0.074180 0.781569 0.000000
Si Si3 0.683572 0.318141 0.126393
Si Si4 0.698377 0.103592 0.770375
Si Si5 0.928480 0.291358 0.242432
Si Si6 0.789878 0.098864 0.000000
O O1 0.149607 0.901951 0.605930
O O2 0.024883 0.900385 0.500000
O O3 0.079464 0.731820 0.112305
O O4 0.139468 0.844510 0.000000
O O5 0.989066 0.815358 0.000000
O O6 0.758683 0.334338 0.194434
O O7 0.620635 0.268576 0.186598
O O8 0.698013 0.289148 0.000000
O O9 0.611852 0.129393 0.768599
O O10 0.707836 0.017371 0.731145
O O11 0.738295 0.110095 0.890678
#
# Coordination Sequence:
#
# PCOD9545911 Si02
#       6
#     8   8  16  16  16   8
#     4   9  18  32  52  86 126 154 188 239 294 358
#     4  10  22  40  62  89 121 159 205 247 294 359
#     4  10  22  36  63  89 116 155 201 243 302 356
#     4  11  24  41  63  89 121 160 202 249 298 354
#     4  11  24  41  63  89 121 160 202 249 298 354
#     4  10  22  40  62  89 121 159 205 247 294 359
#
# _framework density 19.158773
#
# number of rings (size 3 to 8) (size 9 to 14) (size 15 to 20)
#    0.667    1.000    2.222    2.000    3.111    0.667 
#    0.000    0.000    0.000    4.000    0.000    0.000 
#    0.000    0.000    0.000    0.000    0.000    0.000 
#
# Total GULP energy -200789.745092 kJ/mol
# GULP energy per Si atom -5577.492919 kJ/mol
# Density = 1.911517 g / cm^3
# Si number density = 19.158773 Si / 1000 Ang^3
#
#
#
# Elastic Constant Matrix: (Units=GPa)
#
#
# Indices 1 2 3 4 5 6 
#
# 1 96.6434 44.7721 27.6340 0.0000 0.0000 -0.5940
# 2 44.7721 96.6434 27.6340 0.0000 0.0000 0.5940
# 3 27.6340 27.6340 91.7308 0.0000 0.0000 0.0000
# 4 0.0000 0.0000 0.0000 4.1886 0.0000 0.0000
# 5 0.0000 0.0000 0.0000 0.0000 4.1886 0.0000
# 6 -0.5940 0.5940 0.0000 0.0000 0.0000 31.6167
#
#
#
# Elastic Compliance Matrix: (Units=1/GPa)
#
#
# Indices 1 2 3 4 5 6 
#
# 1 0.013651 -0.005636 -0.002415 0.000000 0.000000 0.000362
# 2 -0.005636 0.013651 -0.002415 0.000000 0.000000 -0.000362
# 3 -0.002415 -0.002415 0.012356 0.000000 0.000000 0.000000
# 4 0.000000 0.000000 0.000000 0.238744 0.000000 0.000000
# 5 0.000000 0.000000 0.000000 0.000000 0.238744 0.000000
# 6 0.000362 -0.000362 0.000000 0.000000 0.000000 0.031643
#
#
# Mechanical properties :
#
#
# Convention : Reuss Voigt Hill
#
# Bulk Modulus (GPa) = 53.39562 53.89974 53.64768
# Shear Modulus (GPa) = 8.68114 20.33060 14.50587
#
# Velocity S-wave (km/s) = 2.13096 3.26108 2.75460
# Velocity P-wave (km/s) = 5.82968 6.50952 6.17896
#
# Compressibility (1/GPa) = 0.01872813
#
# Stress axis : x y z
#
# Youngs Moduli (GPa) = 73.25521 73.25521 80.93089
#
# Poissons Ratio (x) = 0.41286 0.19541
# Poissons Ratio (y) = 0.41286 0.19541
# Poissons Ratio (z) = 0.17688 0.17688
#
# Static dielectric constant tensor:
#      x y z
#    x 1.662460 0.000000 0.000000 
#    y 0.000000 1.662460 0.000000 
#    z 0.000000 0.000000 1.697100 
# 
# From -- ./inp_files/2507.got.cif
#   From: 2010.05.17/outbox.cif.g08.bks.cpg/sg87_2_cif.got.tgz:2507.got - 2010.06.03 19:07:00.
