data_PCOD9545735
_publ_section_title
;
Structure prediction by ZEFSAII (Michael W. Deem and Ramdas Pophale) SiO2 
 PCOD9545735
Probable space group: I 4/M
;
_chemical_formula_sum "Si O2"
_cell_formula_units_Z 64
_cell_length_a 16.042669
_cell_length_b 16.042669
_cell_length_c 10.447622
_cell_angle_alpha 90.000000
_cell_angle_beta 90.000000
_cell_angle_gamma 90.000000
_cell_volume 2688.875520
_symmetry_space_group_name_H-M "I 4/M"
_symmetry_group_IT_number 87
_symmetry_cell_setting 'tetragonal'
loop_
_space_group_symop_operation_xyz
x,y,z
-y,x,z
-x,-y,z
y,-x,z
-x,-y,-z
y,-x,-z
x,y,-z
-y,x,-z
1/2+x,1/2+y,1/2+z
1/2-y,1/2+x,1/2+z
1/2-x,1/2-y,1/2+z
1/2+y,1/2-x,1/2+z
1/2-x,1/2-y,1/2-z
1/2+y,1/2-x,1/2-z
1/2+x,1/2+y,1/2-z
1/2-y,1/2+x,1/2-z
loop_
_atom_site_type_symbol
_atom_site_label
_atom_site_fract_x
_atom_site_fract_y
_atom_site_fract_z
Si Si1 0.612548 0.712179 0.280721
Si Si2 0.261810 0.261848 0.500000
Si Si3 0.481620 0.362815 0.500000
Si Si4 0.306761 0.596118 0.000000
Si Si5 0.535242 0.884995 0.219294
Si Si6 0.063294 0.704608 0.500000
O O1 0.693364 0.704593 0.372092
O O2 0.535137 0.687035 0.370777
O O3 0.613655 0.662244 0.145971
O O4 0.595383 0.809194 0.252986
O O5 0.162489 0.270887 0.500000
O O6 0.276397 0.160963 0.500000
O O7 0.567437 0.409880 0.500000
O O8 0.284638 0.498397 0.000000
O O9 0.467902 0.916137 0.324939
O O10 0.469242 0.848161 0.118975
#
# Coordination Sequence:
#
# PCOD9545735 Si02
#       6
#    16   8   8   8  16   8
#     4  10  22  41  65  99 123 174 215 265 330 386
#     4  11  20  40  63  86 133 167 220 269 319 385
#     4  10  24  48  71  93 128 169 225 277 325 382
#     4  10  23  39  62  95 129 165 216 268 329 378
#     4  10  20  35  57  87 130 168 207 255 313 385
#     4  10  21  36  55  86 123 168 209 262 314 385
#
# _framework density 23.801773000000001
#
# number of rings (size 3 to 8) (size 9 to 14) (size 15 to 20)
#    0.000    1.875    2.500    0.750    0.000    8.000 
#   18.000    0.000    0.000    1.875    0.000    0.000 
#    0.000    0.000    0.000    0.000    0.000    0.000 
#
# Total GULP energy -178257.476107 kJ/mol
# GULP energy per Si atom -5570.546128 kJ/mol
# Density = 2.374760 g / cm^3
# Si number density = 23.801773 Si / 1000 Ang^3
#
#
#
# Elastic Constant Matrix: (Units=GPa)
#
#
# Indices 1 2 3 4 5 6 
#
# 1 51.4609 -4.0635 16.3005 0.0000 0.0000 -8.6480
# 2 -4.0635 51.4609 16.3005 0.0000 0.0000 8.6480
# 3 16.3005 16.3005 158.6389 0.0000 0.0000 0.0000
# 4 0.0000 0.0000 0.0000 -10.5603 0.0000 0.0000
# 5 0.0000 0.0000 0.0000 0.0000 -10.5603 0.0000
# 6 -8.6480 8.6480 0.0000 0.0000 0.0000 25.4743
#
#
#
# Elastic Compliance Matrix: (Units=1/GPa)
#
#
# Indices 1 2 3 4 5 6 
#
# 1 0.021421 0.001281 -0.002333 0.000000 0.000000 0.006837
# 2 0.001281 0.021421 -0.002333 0.000000 0.000000 -0.006837
# 3 -0.002333 -0.002333 0.006783 0.000000 0.000000 0.000000
# 4 0.000000 0.000000 0.000000 -0.094694 0.000000 0.000000
# 5 0.000000 0.000000 0.000000 0.000000 -0.094694 0.000000
# 6 0.006837 -0.006837 0.000000 0.000000 0.000000 0.043897
#
#
# Mechanical properties :
#
#
# Convention : Reuss Voigt Hill
#
# Bulk Modulus (GPa) = 23.33317 35.40397 29.36857
# Shear Modulus (GPa) = -66.83494 16.40561 -25.21466
#
# Velocity S-wave (km/s) = -5.30479 2.62822 -3.25831
# Velocity P-wave (km/s) = 5.26276 4.91089 1.33786
#
# Compressibility (1/GPa) = 0.04285744
#
# Stress axis : x y z
#
# Youngs Moduli (GPa) = 46.68255 46.68255 147.42712
#
# Poissons Ratio (x) = -0.05982 0.34391
# Poissons Ratio (y) = -0.05982 0.34391
# Poissons Ratio (z) = 0.10890 0.10890
#
# Static dielectric constant tensor:
#      x y z
#    x 1.935610 0.000000 0.000000 
#    y 0.000000 1.935610 0.000000 
#    z 0.000000 0.000000 2.005200 
# 
# From -- ./inp_files/2411.got.cif
#   From: 2010.05.17/outbox.cif.g08.bks.cpg/sg87_2_cif.got.tgz:2411.got - 2010.06.03 19:07:00.
