data_PCOD9545503
_publ_section_title
;
Structure prediction by ZEFSAII (Michael W. Deem and Ramdas Pophale) SiO2 
 PCOD9545503
Probable space group: I 4/M
;
_chemical_formula_sum "Si O2"
_cell_formula_units_Z 96
_cell_length_a 24.786763
_cell_length_b 24.786763
_cell_length_c 7.763933
_cell_angle_alpha 90.000000
_cell_angle_beta 90.000000
_cell_angle_gamma 90.000000
_cell_volume 4770.033262
_symmetry_space_group_name_H-M "I 4/M"
_symmetry_group_IT_number 87
_symmetry_cell_setting 'tetragonal'
loop_
_space_group_symop_operation_xyz
x,y,z
-y,x,z
-x,-y,z
y,-x,z
-x,-y,-z
y,-x,-z
x,y,-z
-y,x,-z
1/2+x,1/2+y,1/2+z
1/2-y,1/2+x,1/2+z
1/2-x,1/2-y,1/2+z
1/2+y,1/2-x,1/2+z
1/2-x,1/2-y,1/2-z
1/2+y,1/2-x,1/2-z
1/2+x,1/2+y,1/2-z
1/2-y,1/2+x,1/2-z
loop_
_atom_site_type_symbol
_atom_site_label
_atom_site_fract_x
_atom_site_fract_y
_atom_site_fract_z
Si Si1 0.048099 0.772529 0.706920
Si Si2 0.850690 0.551960 0.792320
Si Si3 0.931577 0.643410 0.206967
Si Si4 0.450296 0.430294 0.210116
Si Si5 0.855086 0.859153 0.707392
Si Si6 0.766032 0.074202 0.795365
O O1 0.052358 0.772706 0.500000
O O2 0.054475 0.711166 0.771698
O O3 0.098875 0.808976 0.769433
O O4 0.985332 0.788980 0.740497
O O5 0.888360 0.600176 0.727761
O O6 0.872758 0.492931 0.747045
O O7 0.848337 0.555529 0.000000
O O8 0.923841 0.704528 0.273614
O O9 0.925969 0.645530 0.000000
O O10 0.511767 0.427480 0.263674
O O11 0.410428 0.385743 0.273641
O O12 0.450347 0.429017 0.000000
O O13 0.852435 0.861680 0.500000
O O14 0.870389 0.797460 0.748588
O O15 0.764155 0.071857 0.000000
#
# Coordination Sequence:
#
# PCOD9545503 Si02
#       6
#    16  16  16  16  16  16
#     4   9  18  33  53  74  96 128 170 212 249 287
#     4   9  18  34  55  77 102 131 164 202 243 293
#     4   9  19  35  53  75 104 134 161 196 247 300
#     4   8  13  21  35  57  83 109 141 189 245 286
#     4  10  18  29  47  69  93 125 169 212 245 284
#     4  10  20  33  49  70 100 135 166 201 250 303
#
# _framework density 20.125644999999999
#
# number of rings (size 3 to 8) (size 9 to 14) (size 15 to 20)
#    0.000    2.833    0.000    2.000    0.000    5.000 
#    0.000    2.500    0.000    0.000    0.000    3.500 
#    0.000    0.000    0.000    0.000    0.000    0.000 
#
# Total GULP energy -267222.605638 kJ/mol
# GULP energy per Si atom -5567.137617 kJ/mol
# Density = 2.007984 g / cm^3
# Si number density = 20.125645 Si / 1000 Ang^3
#
#
#
# Elastic Constant Matrix: (Units=GPa)
#
#
# Indices 1 2 3 4 5 6 
#
# 1 57.2257 113.0233 3.3179 0.0000 0.0000 -1.5638
# 2 113.0233 57.2257 3.3179 0.0000 0.0000 1.5638
# 3 3.3179 3.3179 29.8163 0.0000 0.0000 0.0000
# 4 0.0000 0.0000 0.0000 15.3957 0.0000 0.0000
# 5 0.0000 0.0000 0.0000 0.0000 15.3957 0.0000
# 6 -1.5638 1.5638 0.0000 0.0000 0.0000 39.9680
#
#
#
# Elastic Compliance Matrix: (Units=1/GPa)
#
#
# Indices 1 2 3 4 5 6 
#
# 1 -0.005992 0.011891 -0.000656 0.000000 0.000000 -0.000700
# 2 0.011891 -0.005992 -0.000656 0.000000 0.000000 0.000700
# 3 -0.000656 -0.000656 0.033685 0.000000 0.000000 0.000000
# 4 0.000000 0.000000 0.000000 0.064953 0.000000 0.000000
# 5 0.000000 0.000000 0.000000 0.000000 0.064953 0.000000
# 6 -0.000700 0.000700 0.000000 0.000000 0.000000 0.024965
#
#
# Mechanical properties :
#
#
# Convention : Reuss Voigt Hill
#
# Bulk Modulus (GPa) = 23.33310 42.62065 32.97688
# Shear Modulus (GPa) = 29.46324 15.79245 22.62784
#
# Velocity S-wave (km/s) = 3.83033 2.80428 3.35674
# Velocity P-wave (km/s) = 5.58398 5.63103 5.60755
#
# Compressibility (1/GPa) = 0.04285757
#
# Stress axis : x y z
#
# Youngs Moduli (GPa) = -166.89799 -166.89799 29.68701
#
# Poissons Ratio (x) = 1.98459 0.01949
# Poissons Ratio (y) = 1.98459 0.01949
# Poissons Ratio (z) = -0.10956 -0.10956
#
# Static dielectric constant tensor:
#      x y z
#    x 1.745570 0.000000 0.000000 
#    y 0.000000 1.745570 0.000000 
#    z 0.000000 0.000000 1.757180 
# 
# From -- ./inp_files/1318.got.cif
#   From: 2010.05.17/outbox.cif.g08.bks.cpg/sg87_1_cif.got.tgz:1318.got - 2010.06.03 19:07:00.
