data_PCOD9545707
_publ_section_title
;
Structure prediction by ZEFSAII (Michael W. Deem and Ramdas Pophale) SiO2 
 PCOD9545707
Probable space group: I 4/M
;
_chemical_formula_sum "Si O2"
_cell_formula_units_Z 112
_cell_length_a 14.695806
_cell_length_b 14.695806
_cell_length_c 26.126285
_cell_angle_alpha 90.000000
_cell_angle_beta 90.000000
_cell_angle_gamma 90.000000
_cell_volume 5642.407920
_symmetry_space_group_name_H-M "I 4/M"
_symmetry_group_IT_number 87
_symmetry_cell_setting 'tetragonal'
loop_
_space_group_symop_operation_xyz
x,y,z
-y,x,z
-x,-y,z
y,-x,z
-x,-y,-z
y,-x,-z
x,y,-z
-y,x,-z
1/2+x,1/2+y,1/2+z
1/2-y,1/2+x,1/2+z
1/2-x,1/2-y,1/2+z
1/2+y,1/2-x,1/2+z
1/2-x,1/2-y,1/2-z
1/2+y,1/2-x,1/2-z
1/2+x,1/2+y,1/2-z
1/2-y,1/2+x,1/2-z
loop_
_atom_site_type_symbol
_atom_site_label
_atom_site_fract_x
_atom_site_fract_y
_atom_site_fract_z
Si Si1 0.924722 0.417374 0.442434
Si Si2 0.494230 0.848515 0.241166
Si Si3 0.132598 0.060464 0.088236
Si Si4 0.051518 0.143394 0.444071
Si Si5 0.543010 0.804683 0.874054
Si Si6 0.029745 0.852144 0.210865
Si Si7 0.822639 0.582367 0.441733
O O1 0.924475 0.381266 0.500000
O O2 0.834187 0.474163 0.432354
O O3 0.000000 0.500000 0.439820
O O4 0.952617 0.341035 0.402984
O O5 0.579374 0.909525 0.262788
O O6 0.527607 0.817976 0.185171
O O7 0.468187 0.753268 0.269827
O O8 0.147392 0.048392 0.149588
O O9 0.218760 0.106098 0.063329
O O10 0.043141 0.114609 0.072994
O O11 0.067835 0.188515 0.500000
O O12 0.066590 0.206183 0.395549
O O13 0.947187 0.111137 0.442771
O O14 0.621442 0.867380 0.898088
O O15 0.930689 0.895768 0.226417
O O16 0.855374 0.599634 0.500000
#
# Coordination Sequence:
#
# PCOD9545707 Si02
#       7
#    16  16  16  16  16  16  16
#     4   8  16  30  52  78 104 141 179 217 272 335
#     4  11  26  39  58  91 123 159 204 263 316 361
#     4   9  19  37  60  83 113 156 193 234 293 349
#     4   9  19  38  62  88 121 156 190 235 292 356
#     4  11  21  36  59  82 115 153 192 237 295 347
#     4   9  20  42  67  87 115 158 206 255 309 367
#     4  10  20  34  57  85 115 150 188 233 280 343
#
# _framework density 19.849679999999999
#
# number of rings (size 3 to 8) (size 9 to 14) (size 15 to 20)
#    0.000    2.429    0.000    4.286    8.000    2.286 
#    2.571    2.143    0.000    0.000    0.000    0.000 
#    0.000    0.000    0.000    0.000    0.000    0.000 
#
# Total GULP energy -311762.894209 kJ/mol
# GULP energy per Si atom -5567.194539 kJ/mol
# Density = 1.980450 g / cm^3
# Si number density = 19.849680 Si / 1000 Ang^3
#
#
#
# Elastic Constant Matrix: (Units=GPa)
#
#
# Indices 1 2 3 4 5 6 
#
# 1 67.7538 0.8944 3.9974 0.0000 0.0000 -0.4476
# 2 0.8944 67.7538 3.9974 0.0000 0.0000 0.4476
# 3 3.9974 3.9974 49.1480 0.0000 0.0000 0.0000
# 4 0.0000 0.0000 0.0000 30.2026 0.0000 0.0000
# 5 0.0000 0.0000 0.0000 0.0000 30.2026 0.0000
# 6 -0.4476 0.4476 0.0000 0.0000 0.0000 2.3283
#
#
#
# Elastic Compliance Matrix: (Units=1/GPa)
#
#
# Indices 1 2 3 4 5 6 
#
# 1 0.014851 -0.000145 -0.001196 0.000000 0.000000 0.002882
# 2 -0.000145 0.014851 -0.001196 0.000000 0.000000 -0.002882
# 3 -0.001196 -0.001196 0.020541 0.000000 0.000000 0.000000
# 4 0.000000 0.000000 0.000000 0.033110 0.000000 0.000000
# 5 0.000000 0.000000 0.000000 0.000000 0.033110 0.000000
# 6 0.002882 -0.002882 0.000000 0.000000 0.000000 0.430605
#
#
# Mechanical properties :
#
#
# Convention : Reuss Voigt Hill
#
# Bulk Modulus (GPa) = 22.13883 22.49264 22.31573
# Shear Modulus (GPa) = 8.81528 24.26445 16.53987
#
# Velocity S-wave (km/s) = 2.10966 3.50009 2.88975
# Velocity P-wave (km/s) = 4.13663 5.26215 4.73297
#
# Compressibility (1/GPa) = 0.04516950
#
# Stress axis : x y z
#
# Youngs Moduli (GPa) = 67.33627 67.33627 48.68244
#
# Poissons Ratio (x) = 0.00973 0.05823
# Poissons Ratio (y) = 0.00973 0.05823
# Poissons Ratio (z) = 0.08054 0.08054
#
# Static dielectric constant tensor:
#      x y z
#    x 1.747750 0.000000 0.000000 
#    y 0.000000 1.747750 0.000000 
#    z 0.000000 0.000000 1.697550 
# 
# From -- ./inp_files/6292.got.cif
#   From: 2010.05.17/outbox.cif.g08.bks.cpg/sg87_4_cif.got.tgz:6292.got - 2010.06.03 19:07:00.
