data_PCOD9545033
_publ_section_title
;
Structure prediction by ZEFSAII (Michael W. Deem and Ramdas Pophale) SiO2 
 PCOD9545033
Probable space group: P 42/N
;
_chemical_formula_sum "Si O2"
_cell_formula_units_Z 60
_cell_length_a 11.539268
_cell_length_b 11.539268
_cell_length_c 20.046902
_cell_angle_alpha 90.000000
_cell_angle_beta 90.000000
_cell_angle_gamma 90.000000
_cell_volume 2669.339342
_symmetry_space_group_name_H-M "P 42/N"
_symmetry_group_IT_number 86
_space_group.IT_coordinate_system_code '2'
_symmetry_cell_setting 'tetragonal'
loop_
_space_group_symop_operation_xyz
x,y,z
-y,1/2+x,1/2+z
1/2-x,1/2-y,z
1/2+y,-x,1/2+z
-x,-y,-z
y,1/2-x,1/2-z
1/2+x,1/2+y,-z
1/2-y,x,1/2-z
loop_
_atom_site_type_symbol
_atom_site_label
_atom_site_fract_x
_atom_site_fract_y
_atom_site_fract_z
Si Si1 0.412600 0.999058 0.161534
Si Si2 0.977719 0.035653 0.076788
Si Si3 0.876297 0.027288 0.468696
Si Si4 0.250000 0.750000 0.040246
Si Si5 0.388547 0.228578 0.071642
Si Si6 0.623680 0.795311 0.358633
Si Si7 0.903973 0.335872 0.340338
Si Si8 0.368046 0.012543 0.754366
O O1 0.413934 0.119900 0.120542
O O2 0.453654 0.899174 0.109260
O O3 0.280721 0.968992 0.179737
O O4 0.498705 0.000366 0.223210
O O5 0.017450 0.169572 0.083953
O O6 0.856940 0.969139 0.092385
O O7 0.062963 0.985193 0.133069
O O8 0.000000 0.000000 0.000000
O O9 0.820179 0.147719 0.495428
O O10 0.802290 0.920324 0.494916
O O11 0.000000 0.000000 0.500000
O O12 0.311413 0.664007 0.091557
O O13 0.250000 0.250000 0.077572
O O14 0.750000 0.750000 0.381654
O O15 0.550829 0.697156 0.320667
O O16 0.652262 0.888711 0.300449
O O17 0.831176 0.391898 0.280377
#
# Coordination Sequence:
#
# PCOD9545033 Si02
#       8
#     8   8   8   4   8   8   8   8
#     4  10  23  44  65 100 138 184 234 284 359 438
#     4  11  25  43  70 105 139 183 246 292 368 441
#     4   9  21  40  68  97 133 184 226 280 358 421
#     4  10  20  40  66  90 140 166 230 286 348 436
#     4  11  22  45  67  96 146 182 237 294 352 443
#     4  11  24  47  72 105 145 182 244 312 369 438
#     4  10  23  41  65  99 132 183 227 287 352 427
#     4  11  23  42  71 100 138 182 243 295 363 429
#
# _framework density 22.477473
#
# number of rings (size 3 to 8) (size 9 to 14) (size 15 to 20)
#    0.000    1.600    2.667    0.800    3.733    4.800 
#    9.600    0.667    0.000    0.000    0.000    0.000 
#    0.000    0.000    0.000    0.000    0.000    0.000 
#
# Total GULP energy -334480.094847 kJ/mol
# GULP energy per Si atom -5574.668247 kJ/mol
# Density = 2.242631 g / cm^3
# Si number density = 22.477473 Si / 1000 Ang^3
#
#
#
# Elastic Constant Matrix: (Units=GPa)
#
#
# Indices 1 2 3 4 5 6 
#
# 1 113.1808 70.7104 36.2375 0.0000 0.0000 -0.4589
# 2 70.7104 113.1808 36.2375 0.0000 0.0000 0.4589
# 3 36.2375 36.2375 64.4242 0.0000 0.0000 0.0000
# 4 0.0000 0.0000 0.0000 48.3649 0.0000 0.0000
# 5 0.0000 0.0000 0.0000 0.0000 48.3649 0.0000
# 6 -0.4589 0.4589 0.0000 0.0000 0.0000 40.2129
#
#
#
# Elastic Compliance Matrix: (Units=1/GPa)
#
#
# Indices 1 2 3 4 5 6 
#
# 1 0.015269 -0.008282 -0.003930 0.000000 0.000000 0.000269
# 2 -0.008282 0.015269 -0.003930 0.000000 0.000000 -0.000269
# 3 -0.003930 -0.003930 0.019943 0.000000 0.000000 0.000000
# 4 0.000000 0.000000 0.000000 0.020676 0.000000 0.000000
# 5 0.000000 0.000000 0.000000 0.000000 0.020676 0.000000
# 6 0.000269 -0.000269 0.000000 0.000000 0.000000 0.024874
#
#
# Mechanical properties :
#
#
# Convention : Reuss Voigt Hill
#
# Bulk Modulus (GPa) = 54.95414 64.12851 59.54133
# Shear Modulus (GPa) = 32.24594 37.22855 34.73725
#
# Velocity S-wave (km/s) = 3.79171 4.07413 3.93545
# Velocity P-wave (km/s) = 6.60840 7.12204 6.87002
#
# Compressibility (1/GPa) = 0.01819699
#
# Stress axis : x y z
#
# Youngs Moduli (GPa) = 65.49107 65.49107 50.14235
#
# Poissons Ratio (x) = 0.54242 0.19706
# Poissons Ratio (y) = 0.54242 0.19706
# Poissons Ratio (z) = 0.25738 0.25738
#
# Static dielectric constant tensor:
#      x y z
#    x 1.887110 0.000000 0.000000 
#    y 0.000000 1.887110 0.000000 
#    z 0.000000 0.000000 1.840880 
# 
# From -- ./inp_files/4255.got.cif
#   From: 2010.05.17/outbox.cif.g08.bks.cpg/sg86_3_cif.got.tgz:4255.got - 2010.06.03 19:03:11.
