data_PCOD9545597
_publ_section_title
;
Structure prediction by ZEFSAII (Michael W. Deem and Ramdas Pophale) SiO2 
 PCOD9545597
Probable space group: I 4/M
;
_chemical_formula_sum "Si O2"
_cell_formula_units_Z 120
_cell_length_a 25.305103
_cell_length_b 25.305103
_cell_length_c 7.758163
_cell_angle_alpha 90.000000
_cell_angle_beta 90.000000
_cell_angle_gamma 90.000000
_cell_volume 4967.926006
_symmetry_space_group_name_H-M "I 4/M"
_symmetry_group_IT_number 87
_symmetry_cell_setting 'tetragonal'
loop_
_space_group_symop_operation_xyz
x,y,z
-y,x,z
-x,-y,z
y,-x,z
-x,-y,-z
y,-x,-z
x,y,-z
-y,x,-z
1/2+x,1/2+y,1/2+z
1/2-y,1/2+x,1/2+z
1/2-x,1/2-y,1/2+z
1/2+y,1/2-x,1/2+z
1/2-x,1/2-y,1/2-z
1/2+y,1/2-x,1/2-z
1/2+x,1/2+y,1/2-z
1/2-y,1/2+x,1/2-z
loop_
_atom_site_type_symbol
_atom_site_label
_atom_site_fract_x
_atom_site_fract_y
_atom_site_fract_z
Si Si1 0.238680 0.878449 0.203836
Si Si2 0.463585 0.821012 0.710407
Si Si3 0.670175 0.282106 0.709352
Si Si4 0.448852 0.699678 0.709042
Si Si5 0.980950 0.580511 0.802823
Si Si6 0.336749 0.155042 0.207812
Si Si7 0.644913 0.449535 0.813194
Si Si8 0.551589 0.572255 0.500000
O O1 0.215438 0.821951 0.266135
O O2 0.301031 0.877996 0.234051
O O3 0.201494 0.921293 0.291217
O O4 0.229453 0.883820 0.000000
O O5 0.464850 0.822670 0.500000
O O6 0.466434 0.759570 0.757352
O O7 0.508877 0.861079 0.769456
O O8 0.405557 0.841806 0.765438
O O9 0.671225 0.280327 0.500000
O O10 0.612510 0.304328 0.758132
O O11 0.672938 0.221796 0.769660
O O12 0.452457 0.695944 0.500000
O O13 0.488716 0.658117 0.788714
O O14 0.039678 0.554393 0.801754
O O15 0.961929 0.582326 0.000000
O O16 0.336537 0.154402 0.000000
O O17 0.605476 0.431017 0.665143
O O18 0.622436 0.438913 0.000000
O O19 0.487756 0.570202 0.500000
#
# Coordination Sequence:
#
# PCOD9545597 Si02
#       8
#    16  16  16  16  16  16  16   8
#     4  11  21  35  55  86 126 169 207 253 315 377
#     4   8  17  33  56  80 112 160 206 252 318 377
#     4   8  17  32  59  84 113 164 208 245 306 371
#     4   9  17  37  62  85 118 162 206 252 306 381
#     4  10  19  33  50  73  99 136 191 251 308 368
#     4   9  17  34  54  83 118 156 206 256 303 372
#     4  12  26  43  68 104 134 169 219 269 326 393
#     4  11  28  54  80 102 134 174 214 273 340 400
#
# _framework density 24.154948999999998
#
# number of rings (size 3 to 8) (size 9 to 14) (size 15 to 20)
#    0.000    2.333    1.333    3.200    1.867    1.600 
#    0.000   10.000    0.000    0.000    0.000    0.000 
#    0.000    0.000    0.000    0.000    0.000    0.000 
#
# Total GULP energy -335670.424323 kJ/mol
# GULP energy per Si atom -5594.507072 kJ/mol
# Density = 2.409997 g / cm^3
# Si number density = 24.154949 Si / 1000 Ang^3
#
#
#
# Elastic Constant Matrix: (Units=GPa)
#
#
# Indices 1 2 3 4 5 6 
#
# 1 51.8176 47.0084 8.6698 0.0000 0.0000 -19.7253
# 2 47.0084 51.8176 8.6698 0.0000 0.0000 19.7253
# 3 8.6698 8.6698 87.7432 0.0000 0.0000 0.0000
# 4 0.0000 0.0000 0.0000 3.0673 0.0000 0.0000
# 5 0.0000 0.0000 0.0000 0.0000 3.0673 0.0000
# 6 -19.7253 19.7253 0.0000 0.0000 0.0000 31.0125
#
#
#
# Elastic Compliance Matrix: (Units=1/GPa)
#
#
# Indices 1 2 3 4 5 6 
#
# 1 -0.019502 0.029800 -0.001017 0.000000 0.000000 -0.031358
# 2 0.029800 -0.019502 -0.001017 0.000000 0.000000 0.031358
# 3 -0.001017 -0.001017 0.011598 0.000000 0.000000 0.000000
# 4 0.000000 0.000000 0.000000 0.326023 0.000000 0.000000
# 5 0.000000 0.000000 0.000000 0.000000 0.326023 0.000000
# 6 -0.031358 0.031358 0.000000 0.000000 0.000000 -0.007645
#
#
# Mechanical properties :
#
#
# Convention : Reuss Voigt Hill
#
# Bulk Modulus (GPa) = 35.55841 35.56381 35.56111
# Shear Modulus (GPa) = 8.75906 15.89810 12.32858
#
# Velocity S-wave (km/s) = 1.90632 2.56827 2.26164
# Velocity P-wave (km/s) = 4.42700 4.85282 4.64479
#
# Compressibility (1/GPa) = 0.02812274
#
# Stress axis : x y z
#
# Youngs Moduli (GPa) = -51.27548 -51.27548 86.22204
#
# Poissons Ratio (x) = 1.52800 0.08773
# Poissons Ratio (y) = 1.52800 0.08773
# Poissons Ratio (z) = -0.05217 -0.05217
#
# Static dielectric constant tensor:
#      x y z
#    x 1.920940 0.000000 0.000000 
#    y 0.000000 1.920940 0.000000 
#    z 0.000000 0.000000 1.873300 
# 
# From -- ./inp_files/1668.got.cif
#   From: 2010.05.17/outbox.cif.g08.bks.cpg/sg87_1_cif.got.tgz:1668.got - 2010.06.03 19:07:00.
