data_PCOD9545474
_publ_section_title
;
Structure prediction by ZEFSAII (Michael W. Deem and Ramdas Pophale) SiO2 
 PCOD9545474
Probable space group: P 42/N
;
_chemical_formula_sum "Si O2"
_cell_formula_units_Z 48
_cell_length_a 9.000000
_cell_length_b 9.000000
_cell_length_c 30.000000
_cell_angle_alpha 90.000000
_cell_angle_beta 90.000000
_cell_angle_gamma 90.000000
_cell_volume 2430.000000
_symmetry_space_group_name_H-M "P 42/N"
_symmetry_group_IT_number 86
_space_group.IT_coordinate_system_code '2'
_symmetry_cell_setting 'tetragonal'
loop_
_space_group_symop_operation_xyz
x,y,z
-y,1/2+x,1/2+z
1/2-x,1/2-y,z
1/2+y,-x,1/2+z
-x,-y,-z
y,1/2-x,1/2-z
1/2+x,1/2+y,-z
1/2-y,x,1/2-z
loop_
_atom_site_type_symbol
_atom_site_label
_atom_site_fract_x
_atom_site_fract_y
_atom_site_fract_z
Si Si1 0.750000 0.750000 0.508513
Si Si2 0.096524 0.941053 0.129453
Si Si3 0.515431 0.734667 0.761250
Si Si4 0.748044 0.428016 0.457958
Si Si5 0.250000 0.750000 0.698750
Si Si6 0.941386 0.869687 0.584677
Si Si7 0.731289 0.076802 0.639860
O O1 0.768067 0.585695 0.484833
O O2 0.884854 0.777086 0.542347
O O3 0.254359 0.025766 0.124363
O O4 0.970371 0.059497 0.138598
O O5 0.073560 0.867239 0.081517
O O6 0.123786 0.817271 0.166663
O O7 0.600881 0.867913 0.736551
O O8 0.377131 0.690324 0.731164
O O9 0.466949 0.783769 0.810435
O O10 0.750000 0.250000 0.476089
O O11 0.590222 0.444937 0.433032
O O12 0.820393 0.984295 0.602748
O O13 0.750000 0.250000 0.632340
#
# Coordination Sequence:
#
# PCOD9545474 Si02
#       7
#     4   8   8   8   4   8   8
#     4  12  24  42  70  96 139 173 236 276 352 412
#     4  11  22  44  67  93 131 180 218 274 344 401
#     4  11  24  38  66  99 130 171 220 275 329 400
#     4  10  25  43  66  98 132 181 226 281 348 407
#     4  12  20  42  68  94 132 172 220 276 334 410
#     4  11  23  45  65  95 131 174 223 284 328 413
#     4  12  25  41  65 100 135 172 226 275 337 405
#
# _framework density 19.753086
#
# number of rings (size 3 to 8) (size 9 to 14) (size 15 to 20)
#    0.000    0.833    6.667    1.500    4.667    3.333 
#    0.000    0.000    0.000    2.500    0.000    0.000 
#    0.000    0.000    0.000    0.000    0.000    0.000 
#
# Total GULP energy -267599.032195 kJ/mol
# GULP energy per Si atom -5574.979837 kJ/mol
# Density = 1.970813 g / cm^3
# Si number density = 19.753086 Si / 1000 Ang^3
#
#
#
# Elastic Constant Matrix: (Units=GPa)
#
#
# Indices 1 2 3 4 5 6 
#
# 1 114.6281 50.9148 40.2135 0.0000 0.0000 -2.2826
# 2 50.9148 114.6281 40.2135 0.0000 0.0000 2.2826
# 3 40.2135 40.2135 74.8978 0.0000 0.0000 0.0000
# 4 0.0000 0.0000 0.0000 42.6695 0.0000 0.0000
# 5 0.0000 0.0000 0.0000 0.0000 42.6695 0.0000
# 6 -2.2826 2.2826 0.0000 0.0000 0.0000 21.7990
#
#
#
# Elastic Compliance Matrix: (Units=1/GPa)
#
#
# Indices 1 2 3 4 5 6 
#
# 1 0.011993 -0.003821 -0.004388 0.000000 0.000000 0.001656
# 2 -0.003821 0.011993 -0.004388 0.000000 0.000000 -0.001656
# 3 -0.004388 -0.004388 0.018063 0.000000 0.000000 0.000000
# 4 0.000000 0.000000 0.000000 0.023436 0.000000 0.000000
# 5 0.000000 0.000000 0.000000 0.000000 0.023436 0.000000
# 6 0.001656 -0.001656 0.000000 0.000000 0.000000 0.046220
#
#
# Mechanical properties :
#
#
# Convention : Reuss Voigt Hill
#
# Bulk Modulus (GPa) = 59.32340 62.98194 61.15267
# Shear Modulus (GPa) = 30.12877 32.94843 31.53860
#
# Velocity S-wave (km/s) = 3.90971 4.08856 4.00013
# Velocity P-wave (km/s) = 7.10484 7.36494 7.23606
#
# Compressibility (1/GPa) = 0.01685675
#
# Stress axis : x y z
#
# Youngs Moduli (GPa) = 83.38017 83.38017 55.36056
#
# Poissons Ratio (x) = 0.31857 0.24292
# Poissons Ratio (y) = 0.31857 0.24292
# Poissons Ratio (z) = 0.36587 0.36587
#
# Static dielectric constant tensor:
#      x y z
#    x 1.741590 0.000000 0.000000 
#    y 0.000000 1.741590 0.000000 
#    z 0.000000 0.000000 1.709740 
# 
# From -- ./inp_files/5256.got.cif
#   From: 2010.05.17/outbox.ucp.g08.bks.cvg/sg86_3_cif.got.tgz:5256.got - 2010.06.11 10:35:13.
