data_PCOD9545069
_publ_section_title
;
Structure prediction by ZEFSAII (Michael W. Deem and Ramdas Pophale) SiO2 
 PCOD9545069
Probable space group: P 42/N
;
_chemical_formula_sum "Si O2"
_cell_formula_units_Z 48
_cell_length_a 21.926249
_cell_length_b 21.926249
_cell_length_c 5.197018
_cell_angle_alpha 90.000000
_cell_angle_beta 90.000000
_cell_angle_gamma 90.000000
_cell_volume 2498.520428
_symmetry_space_group_name_H-M "P 42/N"
_symmetry_group_IT_number 86
_space_group.IT_coordinate_system_code '2'
_symmetry_cell_setting 'tetragonal'
loop_
_space_group_symop_operation_xyz
x,y,z
-y,1/2+x,1/2+z
1/2-x,1/2-y,z
1/2+y,-x,1/2+z
-x,-y,-z
y,1/2-x,1/2-z
1/2+x,1/2+y,-z
1/2-y,x,1/2-z
loop_
_atom_site_type_symbol
_atom_site_label
_atom_site_fract_x
_atom_site_fract_y
_atom_site_fract_z
Si Si1 0.625403 0.352671 0.773015
Si Si2 0.740276 0.986778 0.783007
Si Si3 0.733265 0.397219 0.067331
Si Si4 0.340875 0.527452 0.537370
Si Si5 0.462946 0.476126 0.749340
Si Si6 0.980632 0.834257 0.210035
O O1 0.671158 0.362756 0.006142
O O2 0.644629 0.289393 0.642198
O O3 0.632315 0.414142 0.609764
O O4 0.553900 0.343852 0.814226
O O5 0.696486 0.963295 0.558518
O O6 0.742161 0.060445 0.833661
O O7 0.809347 0.980950 0.667727
O O8 0.710007 0.964072 0.049806
O O9 0.712642 0.445969 0.283094
O O10 0.394520 0.501584 0.715127
O O11 0.500000 0.500000 0.500000
O O12 0.457822 0.403001 0.752256
O O13 0.500000 0.500000 0.000000
#
# Coordination Sequence:
#
# PCOD9545069 Si02
#       6
#     8   8   8   8   8   8
#     4  10  21  35  57  73 113 151 205 242 297 337
#     4  10  21  39  60  79 110 161 192 237 288 359
#     4  10  22  36  58  77 107 157 206 248 291 342
#     4  11  22  39  61  84 116 157 197 245 302 355
#     4  12  25  37  59  95 125 151 193 255 307 371
#     4  11  21  39  60  82 116 154 194 236 304 357
#
# _framework density 19.211369999999999
#
# number of rings (size 3 to 8) (size 9 to 14) (size 15 to 20)
#    0.000    1.333    5.000    2.000    9.333    0.000 
#    0.000    2.500    0.000    0.000    0.000    0.000 
#    0.000    4.000    0.000    0.000    0.000    0.000 
#
# Total GULP energy -267344.878205 kJ/mol
# GULP energy per Si atom -5569.684963 kJ/mol
# Density = 1.916764 g / cm^3
# Si number density = 19.211370 Si / 1000 Ang^3
#
#
#
# Elastic Constant Matrix: (Units=GPa)
#
#
# Indices 1 2 3 4 5 6 
#
# 1 49.3407 2.7652 8.8591 0.0000 0.0000 7.3462
# 2 2.7652 49.3407 8.8591 0.0000 0.0000 -7.3462
# 3 8.8591 8.8591 110.3438 0.0000 0.0000 0.0000
# 4 0.0000 0.0000 0.0000 22.8210 0.0000 0.0000
# 5 0.0000 0.0000 0.0000 0.0000 22.8210 0.0000
# 6 7.3462 -7.3462 0.0000 0.0000 0.0000 16.6374
#
#
#
# Elastic Compliance Matrix: (Units=1/GPa)
#
#
# Indices 1 2 3 4 5 6 
#
# 1 0.022338 -0.002607 -0.001584 0.000000 0.000000 -0.011014
# 2 -0.002607 0.022338 -0.001584 0.000000 0.000000 0.011014
# 3 -0.001584 -0.001584 0.009317 0.000000 0.000000 0.000000
# 4 0.000000 0.000000 0.000000 0.043819 0.000000 0.000000
# 5 0.000000 0.000000 0.000000 0.000000 0.043819 0.000000
# 6 -0.011014 0.011014 0.000000 0.000000 0.000000 0.069832
#
#
# Mechanical properties :
#
#
# Convention : Reuss Voigt Hill
#
# Bulk Modulus (GPa) = 23.56197 27.77692 25.66944
# Shear Modulus (GPa) = 21.08272 25.02535 23.05403
#
# Velocity S-wave (km/s) = 3.31631 3.61312 3.46789
# Velocity P-wave (km/s) = 5.19183 5.64766 5.42454
#
# Compressibility (1/GPa) = 0.04244127
#
# Stress axis : x y z
#
# Youngs Moduli (GPa) = 44.76741 44.76741 107.33128
#
# Poissons Ratio (x) = 0.11672 0.17002
# Poissons Ratio (y) = 0.11672 0.17002
# Poissons Ratio (z) = 0.07092 0.07092
#
# Static dielectric constant tensor:
#      x y z
#    x 1.702130 0.000000 0.000000 
#    y 0.000000 1.702130 0.000000 
#    z 0.000000 0.000000 1.786350 
# 
# From -- ./inp_files/405.got.cif
#   From: 2010.05.17/outbox.cif.g08.bks.cpg/sg86_1_cif.got.tgz:405.got - 2010.06.03 19:03:11.
