data_PCOD9545074
_publ_section_title
;
Structure prediction by ZEFSAII (Michael W. Deem and Ramdas Pophale) SiO2 
 PCOD9545074
Probable space group: P 42/N
;
_chemical_formula_sum "Si O2"
_cell_formula_units_Z 48
_cell_length_a 7.052224
_cell_length_b 7.052224
_cell_length_c 31.665392
_cell_angle_alpha 90.000000
_cell_angle_beta 90.000000
_cell_angle_gamma 90.000000
_cell_volume 1574.842279
_symmetry_space_group_name_H-M "P 42/N"
_symmetry_group_IT_number 86
_space_group.IT_coordinate_system_code '2'
_symmetry_cell_setting 'tetragonal'
loop_
_space_group_symop_operation_xyz
x,y,z
-y,1/2+x,1/2+z
1/2-x,1/2-y,z
1/2+y,-x,1/2+z
-x,-y,-z
y,1/2-x,1/2-z
1/2+x,1/2+y,-z
1/2-y,x,1/2-z
loop_
_atom_site_type_symbol
_atom_site_label
_atom_site_fract_x
_atom_site_fract_y
_atom_site_fract_z
Si Si1 0.724572 0.030017 0.998877
Si Si2 0.975518 0.259199 0.315770
Si Si3 0.219418 0.521137 0.090406
Si Si4 0.469847 0.278373 0.592549
Si Si5 0.976515 0.741051 0.314486
Si Si6 0.003541 0.492148 0.248424
O O1 0.750000 0.250000 0.994199
O O2 0.804567 0.987346 0.045258
O O3 0.799578 0.947483 0.954370
O O4 0.500000 0.000000 0.000000
O O5 0.750000 0.250000 0.319834
O O6 0.050273 0.277617 0.363524
O O7 0.010016 0.500040 0.302209
O O8 0.008394 0.245748 0.261983
O O9 0.250000 0.750000 0.091539
O O10 0.997261 0.481291 0.088233
O O11 0.250000 0.250000 0.600076
O O12 0.554593 0.221507 0.637704
O O13 0.750000 0.750000 0.316330
O O14 0.010156 0.754263 0.260141
O O15 0.017261 0.998410 0.306365
#
# Coordination Sequence:
#
# PCOD9545074 Si02
#       6
#     8   8   8   8   8   8
#     4   9  19  41  64  88 124 166 205 259 323 390
#     4  11  22  36  60  85 116 156 204 243 304 366
#     4   9  19  36  60  83 116 161 197 240 316 382
#     4  10  21  35  62  92 118 150 207 270 308 367
#     4  11  19  34  58  86 118 151 208 258 301 350
#     4  12  21  37  57  84 119 160 196 256 299 362
#
# _framework density 30.479243
#
# number of rings (size 3 to 8) (size 9 to 14) (size 15 to 20)
#    0.000    1.667    5.000    0.000    7.000    0.333 
#    3.000    7.500    3.667    0.000    0.000    0.000 
#    0.000    0.000    0.000    0.000    0.000    0.000 
#
# Total GULP energy -267608.569943 kJ/mol
# GULP energy per Si atom -5575.178540 kJ/mol
# Density = 3.040987 g / cm^3
# Si number density = 30.479243 Si / 1000 Ang^3
#
#
#
# Elastic Constant Matrix: (Units=GPa)
#
#
# Indices 1 2 3 4 5 6 
#
# 1 217.9980 12.1015 98.0078 0.0000 0.0000 -0.1775
# 2 12.1015 217.9980 98.0078 0.0000 0.0000 0.1775
# 3 98.0078 98.0078 480.3890 0.0000 0.0000 0.0000
# 4 0.0000 0.0000 0.0000 65.3645 0.0000 0.0000
# 5 0.0000 0.0000 0.0000 0.0000 65.3645 0.0000
# 6 -0.1775 0.1775 0.0000 0.0000 0.0000 45.1640
#
#
#
# Elastic Compliance Matrix: (Units=1/GPa)
#
#
# Indices 1 2 3 4 5 6 
#
# 1 0.005058 0.000202 -0.001073 0.000000 0.000000 0.000019
# 2 0.000202 0.005058 -0.001073 0.000000 0.000000 -0.000019
# 3 -0.001073 -0.001073 0.002520 0.000000 0.000000 0.000000
# 4 0.000000 0.000000 0.000000 0.015299 0.000000 0.000000
# 5 0.000000 0.000000 0.000000 0.000000 0.015299 0.000000
# 6 0.000019 -0.000019 0.000000 0.000000 0.000000 0.022142
#
#
# Mechanical properties :
#
#
# Convention : Reuss Voigt Hill
#
# Bulk Modulus (GPa) = 114.32264 148.06881 131.19573
# Shear Modulus (GPa) = 69.27041 82.39647 75.83344
#
# Velocity S-wave (km/s) = 4.77246 5.20503 4.99343
# Velocity P-wave (km/s) = 8.24368 9.20917 8.73977
#
# Compressibility (1/GPa) = 0.00874717
#
# Stress axis : x y z
#
# Youngs Moduli (GPa) = 197.68731 197.68731 396.89878
#
# Poissons Ratio (x) = -0.03986 0.42594
# Poissons Ratio (y) = -0.03986 0.42594
# Poissons Ratio (z) = 0.21215 0.21215
#
# Static dielectric constant tensor:
#      x y z
#    x 2.993540 0.000000 0.000000 
#    y 0.000000 2.993540 0.000000 
#    z 0.000000 0.000000 2.377500 
# 
# From -- ./inp_files/5130.got.cif
#   From: 2010.05.17/outbox.cif.g08.bks.cpg/sg86_3_cif.got.tgz:5130.got - 2010.06.03 19:03:11.
