data_PCOD9545781
_publ_section_title
;
Structure prediction by ZEFSAII (Michael W. Deem and Ramdas Pophale) SiO2 
 PCOD9545781
Probable space group: I 4/M
;
_chemical_formula_sum "Si O2"
_cell_formula_units_Z 116
_cell_length_a 17.168903
_cell_length_b 17.168903
_cell_length_c 18.957252
_cell_angle_alpha 90.000000
_cell_angle_beta 90.000000
_cell_angle_gamma 90.000000
_cell_volume 5588.052494
_symmetry_space_group_name_H-M "I 4/M"
_symmetry_group_IT_number 87
_symmetry_cell_setting 'tetragonal'
loop_
_space_group_symop_operation_xyz
x,y,z
-y,x,z
-x,-y,z
y,-x,z
-x,-y,-z
y,-x,-z
x,y,-z
-y,x,-z
1/2+x,1/2+y,1/2+z
1/2-y,1/2+x,1/2+z
1/2-x,1/2-y,1/2+z
1/2+y,1/2-x,1/2+z
1/2-x,1/2-y,1/2-z
1/2+y,1/2-x,1/2-z
1/2+x,1/2+y,1/2-z
1/2-y,1/2+x,1/2-z
loop_
_atom_site_type_symbol
_atom_site_label
_atom_site_fract_x
_atom_site_fract_y
_atom_site_fract_z
Si Si1 0.268366 0.197825 0.421342
Si Si2 0.113492 0.301478 0.582179
Si Si3 0.027913 0.831954 0.823379
Si Si4 0.295864 0.968893 0.283526
Si Si5 0.623367 0.656986 0.419773
Si Si6 0.485414 0.906483 0.419634
Si Si7 0.500000 0.500000 0.726990
Si Si8 0.373785 0.118172 0.318045
O O1 0.261284 0.162303 0.500000
O O2 0.192605 0.251751 0.409354
O O3 0.339957 0.258205 0.422490
O O4 0.295408 0.138195 0.361289
O O5 0.090141 0.294961 0.500000
O O6 0.115524 0.395413 0.596267
O O7 0.052542 0.268230 0.638374
O O8 0.959548 0.841716 0.881404
O O9 0.007537 0.766084 0.767988
O O10 0.104338 0.821295 0.870846
O O11 0.037157 0.912185 0.780801
O O12 0.366113 0.030019 0.291574
O O13 0.324911 0.889525 0.246915
O O14 0.617957 0.626709 0.500000
O O15 0.500768 0.879872 0.500000
O O16 0.550109 0.873320 0.367250
O O17 0.500000 0.000000 0.418466
#
# Coordination Sequence:
#
# PCOD9545781 Si02
#       8
#    16  16  16  16  16  16   4  16
#     4  10  23  40  61  89 126 169 214 267 324 397
#     4  10  23  43  64  91 123 170 224 274 336 401
#     4  10  21  39  60  95 124 166 212 258 323 384
#     4  12  26  39  64  92 132 172 215 276 336 397
#     4  10  20  37  61  89 125 165 208 256 312 387
#     4  10  20  39  67  93 125 169 219 272 323 395
#     4   8  20  40  65  80 125 160 216 258 296 392
#     4  12  25  40  59  96 130 171 216 268 337 407
#
# _framework density 20.758575
#
# number of rings (size 3 to 8) (size 9 to 14) (size 15 to 20)
#    0.000    1.517    2.759    1.655    3.862    3.310 
#    0.000    2.069    0.000    0.000    0.000    0.483 
#    0.000    0.000    0.000    0.000    0.000    0.000 
#
# Total GULP energy -323222.865066 kJ/mol
# GULP energy per Si atom -5572.808018 kJ/mol
# Density = 2.071133 g / cm^3
# Si number density = 20.758575 Si / 1000 Ang^3
#
#
#
# Elastic Constant Matrix: (Units=GPa)
#
#
# Indices 1 2 3 4 5 6 
#
# 1 72.3914 -15.3488 38.1947 0.0000 0.0000 -10.8101
# 2 -15.3488 72.3914 38.1947 0.0000 0.0000 10.8101
# 3 38.1947 38.1947 114.0978 0.0000 0.0000 0.0000
# 4 0.0000 0.0000 0.0000 29.6566 0.0000 0.0000
# 5 0.0000 0.0000 0.0000 0.0000 29.6566 0.0000
# 6 -10.8101 10.8101 0.0000 0.0000 0.0000 29.4609
#
#
#
# Elastic Compliance Matrix: (Units=1/GPa)
#
#
# Indices 1 2 3 4 5 6 
#
# 1 0.022153 0.009623 -0.010637 0.000000 0.000000 0.004598
# 2 0.009623 0.022153 -0.010637 0.000000 0.000000 -0.004598
# 3 -0.010637 -0.010637 0.015886 0.000000 0.000000 0.000000
# 4 0.000000 0.000000 0.000000 0.033719 0.000000 0.000000
# 5 0.000000 0.000000 0.000000 0.000000 0.033719 0.000000
# 6 0.004598 -0.004598 0.000000 0.000000 0.000000 0.037317
#
#
# Mechanical properties :
#
#
# Convention : Reuss Voigt Hill
#
# Bulk Modulus (GPa) = 27.10837 42.32907 34.71872
# Shear Modulus (GPa) = 24.93189 30.94416 27.93802
#
# Velocity S-wave (km/s) = 3.46936 3.86511 3.67257
# Velocity P-wave (km/s) = 5.39776 6.35249 5.89449
#
# Compressibility (1/GPa) = 0.03688897
#
# Stress axis : x y z
#
# Youngs Moduli (GPa) = 45.14099 45.14099 62.94876
#
# Poissons Ratio (x) = -0.43437 0.66958
# Poissons Ratio (y) = -0.43437 0.66958
# Poissons Ratio (z) = 0.48016 0.48016
#
# Static dielectric constant tensor:
#      x y z
#    x 1.742380 0.000000 0.000000 
#    y 0.000000 1.742380 0.000000 
#    z 0.000000 0.000000 1.784700 
# 
# From -- ./inp_files/4614.got.cif
#   From: 2010.05.17/outbox.cif.g08.bks.cpg/sg87_3_cif.got.tgz:4614.got - 2010.06.03 19:07:00.
