data_PCOD9545881
_publ_section_title
;
Structure prediction by ZEFSAII (Michael W. Deem and Ramdas Pophale) SiO2 
 PCOD9545881
Probable space group: I 4/M
;
_chemical_formula_sum "Si O2"
_cell_formula_units_Z 120
_cell_length_a 25.389392
_cell_length_b 25.389392
_cell_length_c 8.255508
_cell_angle_alpha 90.000000
_cell_angle_beta 90.000000
_cell_angle_gamma 90.000000
_cell_volume 5321.675689
_symmetry_space_group_name_H-M "I 4/M"
_symmetry_group_IT_number 87
_symmetry_cell_setting 'tetragonal'
loop_
_space_group_symop_operation_xyz
x,y,z
-y,x,z
-x,-y,z
y,-x,z
-x,-y,-z
y,-x,-z
x,y,-z
-y,x,-z
1/2+x,1/2+y,1/2+z
1/2-y,1/2+x,1/2+z
1/2-x,1/2-y,1/2+z
1/2+y,1/2-x,1/2+z
1/2-x,1/2-y,1/2-z
1/2+y,1/2-x,1/2-z
1/2+x,1/2+y,1/2-z
1/2-y,1/2+x,1/2-z
loop_
_atom_site_type_symbol
_atom_site_label
_atom_site_fract_x
_atom_site_fract_y
_atom_site_fract_z
Si Si1 0.236677 0.432584 0.691175
Si Si2 0.209743 0.961128 0.692164
Si Si3 0.767360 0.351997 0.809928
Si Si4 0.551093 0.428676 0.000000
Si Si5 0.889947 0.089676 0.822597
Si Si6 0.572716 0.034256 0.812508
Si Si7 0.380874 0.861636 0.190036
Si Si8 0.798066 0.831927 0.816708
O O1 0.248410 0.435316 0.500000
O O2 0.260427 0.484815 0.769911
O O3 0.175013 0.422738 0.718944
O O4 0.262953 0.378558 0.756972
O O5 0.198850 0.957267 0.500000
O O6 0.244595 0.909745 0.736745
O O7 0.154595 0.954261 0.785897
O O8 0.821798 0.342316 0.720069
O O9 0.722467 0.308977 0.773589
O O10 0.778407 0.352985 0.000000
O O11 0.570527 0.488766 0.000000
O O12 0.572384 0.405547 0.167898
O O13 0.858629 0.144479 0.828276
O O14 0.914623 0.080709 0.000000
O O15 0.517103 0.065226 0.795548
O O16 0.615234 0.077185 0.758694
O O17 0.581018 0.019104 0.000000
O O18 0.393228 0.860001 0.000000
O O19 0.778831 0.820806 0.000000
#
# Coordination Sequence:
#
# PCOD9545881 Si02
#       8
#    16  16  16   8  16  16  16  16
#     4  11  24  40  62  94 125 160 210 260 313 370
#     4  10  21  39  63  95 127 160 209 263 317 379
#     4  10  22  40  64  89 120 166 207 249 312 378
#     4  11  26  42  58  90 130 170 216 266 325 393
#     4  10  21  40  66  92 123 166 215 265 326 386
#     4  10  22  40  64  91 121 160 206 248 301 362
#     4  11  25  42  60  91 128 165 204 254 310 364
#     4   9  21  40  62  90 121 159 209 259 310 377
#
# _framework density 22.549289000000002
#
# number of rings (size 3 to 8) (size 9 to 14) (size 15 to 20)
#    0.000    1.800    0.667    2.400    4.667    5.867 
#    0.000    0.667    0.000    0.000    0.000    0.000 
#    0.000    0.000    0.000    0.000    0.000    0.000 
#
# Total GULP energy -335397.034920 kJ/mol
# GULP energy per Si atom -5589.950582 kJ/mol
# Density = 2.249797 g / cm^3
# Si number density = 22.549289 Si / 1000 Ang^3
#
#
#
# Elastic Constant Matrix: (Units=GPa)
#
#
# Indices 1 2 3 4 5 6 
#
# 1 60.5573 14.2598 8.5429 0.0000 0.0000 -4.6589
# 2 14.2598 60.5573 8.5429 0.0000 0.0000 4.6589
# 3 8.5429 8.5429 65.7370 0.0000 0.0000 0.0000
# 4 0.0000 0.0000 0.0000 21.8740 0.0000 0.0000
# 5 0.0000 0.0000 0.0000 0.0000 21.8740 0.0000
# 6 -4.6589 4.6589 0.0000 0.0000 0.0000 27.3878
#
#
#
# Elastic Compliance Matrix: (Units=1/GPa)
#
#
# Indices 1 2 3 4 5 6 
#
# 1 0.018070 -0.004295 -0.001790 0.000000 0.000000 0.003805
# 2 -0.004295 0.018070 -0.001790 0.000000 0.000000 -0.003805
# 3 -0.001790 -0.001790 0.015677 0.000000 0.000000 0.000000
# 4 0.000000 0.000000 0.000000 0.045716 0.000000 0.000000
# 5 0.000000 0.000000 0.000000 0.000000 0.045716 0.000000
# 6 0.003805 -0.003805 0.000000 0.000000 0.000000 0.037807
#
#
# Mechanical properties :
#
#
# Convention : Reuss Voigt Hill
#
# Bulk Modulus (GPa) = 27.72662 27.72699 27.72680
# Shear Modulus (GPa) = 23.94293 24.59423 24.26858
#
# Velocity S-wave (km/s) = 3.26207 3.30614 3.28418
# Velocity P-wave (km/s) = 5.14887 5.18623 5.16758
#
# Compressibility (1/GPa) = 0.03606643
#
# Stress axis : x y z
#
# Youngs Moduli (GPa) = 55.34054 55.34054 63.78606
#
# Poissons Ratio (x) = 0.23770 0.11418
# Poissons Ratio (y) = 0.23770 0.11418
# Poissons Ratio (z) = 0.09907 0.09907
#
# Static dielectric constant tensor:
#      x y z
#    x 1.839830 0.000000 0.000000 
#    y 0.000000 1.839830 0.000000 
#    z 0.000000 0.000000 1.825040 
# 
# From -- ./inp_files/1698.got.cif
#   From: 2010.05.17/outbox.cif.g08.bks.cpg/sg87_1_cif.got.tgz:1698.got - 2010.06.03 19:07:00.
