data_PCOD9545012
_publ_section_title
;
Structure prediction by ZEFSAII (Michael W. Deem and Ramdas Pophale) SiO2 
 PCOD9545012
Probable space group: P 42/N
;
_chemical_formula_sum "Si O2"
_cell_formula_units_Z 46
_cell_length_a 12.510954
_cell_length_b 12.510954
_cell_length_c 11.178701
_cell_angle_alpha 90.000000
_cell_angle_beta 90.000000
_cell_angle_gamma 90.000000
_cell_volume 1749.734660
_symmetry_space_group_name_H-M "P 42/N"
_symmetry_group_IT_number 86
_space_group.IT_coordinate_system_code '2'
_symmetry_cell_setting 'tetragonal'
loop_
_space_group_symop_operation_xyz
x,y,z
-y,1/2+x,1/2+z
1/2-x,1/2-y,z
1/2+y,-x,1/2+z
-x,-y,-z
y,1/2-x,1/2-z
1/2+x,1/2+y,-z
1/2-y,x,1/2-z
loop_
_atom_site_type_symbol
_atom_site_label
_atom_site_fract_x
_atom_site_fract_y
_atom_site_fract_z
Si Si1 0.200481 0.978056 0.610973
Si Si2 0.198967 0.468542 0.237925
Si Si3 0.510782 0.080401 0.138542
Si Si4 0.471828 0.753528 0.375627
Si Si5 0.750000 0.250000 0.491172
Si Si6 0.750000 0.750000 0.750000
Si Si7 0.899899 0.580029 0.503516
O O1 0.185295 0.992499 0.752321
O O2 0.226226 0.852387 0.589376
O O3 0.128138 0.005007 0.494374
O O4 0.309073 0.045260 0.588156
O O5 0.089740 0.497847 0.168679
O O6 0.315789 0.518288 0.267978
O O7 0.217205 0.352877 0.177846
O O8 0.154614 0.440485 0.369067
O O9 0.626205 0.024867 0.143180
O O10 0.352157 0.773960 0.425925
O O11 0.551565 0.804948 0.471251
O O12 0.000000 0.500000 0.500000
#
# Coordination Sequence:
#
# PCOD9545012 Si02
#       7
#     8   8   8   8   4   2   8
#     4  10  21  39  60  95 133 171 234 286 352 424
#     4   9  18  38  65  92 125 168 232 285 339 428
#     4   9  20  37  66  99 127 179 233 293 349 424
#     4  11  22  38  62  96 131 177 223 284 361 422
#     4  10  20  38  64  92 124 180 222 282 346 420
#     4   8  16  36  64  92 110 164 228 280 332 398
#     4  11  21  38  62  89 131 183 225 278 362 439
#
# _framework density 26.289697
#
# number of rings (size 3 to 8) (size 9 to 14) (size 15 to 20)
#    0.000    2.087    1.739    1.565    0.000    0.000 
#    3.130    6.957    0.000   12.522    0.000    0.000 
#    0.000    0.000    0.000    0.000    0.000    0.174 
#
# Total GULP energy -257096.872695 kJ/mol
# GULP energy per Si atom -5589.062450 kJ/mol
# Density = 2.622986 g / cm^3
# Si number density = 26.289697 Si / 1000 Ang^3
#
#
#
# Elastic Constant Matrix: (Units=GPa)
#
#
# Indices 1 2 3 4 5 6 
#
# 1 111.9392 39.4136 27.8740 0.0000 0.0000 3.1876
# 2 39.4136 111.9392 27.8740 0.0000 0.0000 -3.1876
# 3 27.8740 27.8740 124.8592 0.0000 0.0000 0.0000
# 4 0.0000 0.0000 0.0000 36.9153 0.0000 0.0000
# 5 0.0000 0.0000 0.0000 0.0000 36.9153 0.0000
# 6 3.1876 -3.1876 0.0000 0.0000 0.0000 37.9064
#
#
#
# Elastic Compliance Matrix: (Units=1/GPa)
#
#
# Indices 1 2 3 4 5 6 
#
# 1 0.010545 -0.003346 -0.001607 0.000000 0.000000 -0.001168
# 2 -0.003346 0.010545 -0.001607 0.000000 0.000000 0.001168
# 3 -0.001607 -0.001607 0.008727 0.000000 0.000000 0.000000
# 4 0.000000 0.000000 0.000000 0.027089 0.000000 0.000000
# 5 0.000000 0.000000 0.000000 0.000000 0.027089 0.000000
# 6 -0.001168 0.001168 0.000000 0.000000 0.000000 0.026577
#
#
# Mechanical properties :
#
#
# Convention : Reuss Voigt Hill
#
# Bulk Modulus (GPa) = 59.89417 59.89563 59.89490
# Shear Modulus (GPa) = 38.68242 39.25245 38.96743
#
# Velocity S-wave (km/s) = 3.84003 3.86822 3.85415
# Velocity P-wave (km/s) = 6.51866 6.54089 6.52979
#
# Compressibility (1/GPa) = 0.01669612
#
# Stress axis : x y z
#
# Youngs Moduli (GPa) = 94.83191 94.83191 114.59231
#
# Poissons Ratio (x) = 0.31730 0.18417
# Poissons Ratio (y) = 0.31730 0.18417
# Poissons Ratio (z) = 0.15241 0.15241
#
# Static dielectric constant tensor:
#      x y z
#    x 2.250190 0.000000 0.000000 
#    y 0.000000 2.250190 0.000000 
#    z 0.000000 0.000000 2.063850 
# 
# From -- ./inp_files/1353.got.cif
#   From: 2010.05.17/outbox.cif.g08.bks.cpg/sg86_1_cif.got.tgz:1353.got - 2010.06.03 19:03:11.
