data_PCOD9545685
_publ_section_title
;
Structure prediction by ZEFSAII (Michael W. Deem and Ramdas Pophale) SiO2 
 PCOD9545685
Probable space group: I 4/M
;
_chemical_formula_sum "Si O2"
_cell_formula_units_Z 96
_cell_length_a 29.522557
_cell_length_b 29.522557
_cell_length_c 9.041835
_cell_angle_alpha 90.000000
_cell_angle_beta 90.000000
_cell_angle_gamma 90.000000
_cell_volume 7880.694953
_symmetry_space_group_name_H-M "I 4/M"
_symmetry_group_IT_number 87
_symmetry_cell_setting 'tetragonal'
loop_
_space_group_symop_operation_xyz
x,y,z
-y,x,z
-x,-y,z
y,-x,z
-x,-y,-z
y,-x,-z
x,y,-z
-y,x,-z
1/2+x,1/2+y,1/2+z
1/2-y,1/2+x,1/2+z
1/2-x,1/2-y,1/2+z
1/2+y,1/2-x,1/2+z
1/2-x,1/2-y,1/2-z
1/2+y,1/2-x,1/2-z
1/2+x,1/2+y,1/2-z
1/2-y,1/2+x,1/2-z
loop_
_atom_site_type_symbol
_atom_site_label
_atom_site_fract_x
_atom_site_fract_y
_atom_site_fract_z
Si Si1 0.886494 0.196594 0.168626
Si Si2 0.245360 0.678177 0.829981
Si Si3 0.188176 0.884340 0.830345
Si Si4 0.545756 0.379229 0.679425
Si Si5 0.618863 0.447003 0.822262
Si Si6 0.179065 0.741324 0.669227
O O1 0.848387 0.156844 0.168472
O O2 0.931631 0.169750 0.213736
O O3 0.866582 0.236432 0.267993
O O4 0.891109 0.212541 0.000000
O O5 0.266309 0.637446 0.734831
O O6 0.200389 0.700847 0.764096
O O7 0.283336 0.718268 0.826469
O O8 0.239511 0.664903 0.000000
O O9 0.165259 0.922445 0.729193
O O10 0.193245 0.899625 0.000000
O O11 0.545297 0.384129 0.500000
O O12 0.578555 0.416832 0.751619
O O13 0.496491 0.383064 0.750053
O O14 0.615341 0.448235 0.000000
O O15 0.173970 0.727398 0.500000
#
# Coordination Sequence:
#
# PCOD9545685 Si02
#       6
#    16  16  16  16  16  16
#     4   8  15  26  39  52  67  87 110 135 164 202
#     4   9  15  22  33  50  71  92 113 135 158 189
#     4   9  16  27  40  53  70  91 112 134 166 207
#     4  10  20  34  47  57  70  90 114 142 181 225
#     4  11  21  32  45  60  73  86 110 145 184 223
#     4   9  15  21  32  50  71  92 111 131 158 194
#
# _framework density 12.181668
#
# number of rings (size 3 to 8) (size 9 to 14) (size 15 to 20)
#    0.000    2.667    0.000    4.500    0.000    9.000 
#    0.000    1.667    0.000    0.000    0.000    0.000 
#    0.000    0.000    0.000    0.000    0.000    0.000 
#
# Total GULP energy -267245.834825 kJ/mol
# GULP energy per Si atom -5567.621559 kJ/mol
# Density = 1.215394 g / cm^3
# Si number density = 12.181668 Si / 1000 Ang^3
#
#
#
# Elastic Constant Matrix: (Units=GPa)
#
#
# Indices 1 2 3 4 5 6 
#
# 1 39.5872 40.4306 34.8672 0.0000 0.0000 -0.3480
# 2 40.4306 39.5872 34.8672 0.0000 0.0000 0.3480
# 3 34.8672 34.8672 91.3168 0.0000 0.0000 0.0000
# 4 0.0000 0.0000 0.0000 16.5763 0.0000 0.0000
# 5 0.0000 0.0000 0.0000 0.0000 16.5763 0.0000
# 6 -0.3480 0.3480 0.0000 0.0000 0.0000 12.9851
#
#
#
# Elastic Compliance Matrix: (Units=1/GPa)
#
#
# Indices 1 2 3 4 5 6 
#
# 1 -0.570667 0.589397 -0.007151 0.000000 0.000000 -0.031088
# 2 0.589397 -0.570667 -0.007151 0.000000 0.000000 0.031088
# 3 -0.007151 -0.007151 0.016412 0.000000 0.000000 0.000000
# 4 0.000000 0.000000 0.000000 0.060327 0.000000 0.000000
# 5 0.000000 0.000000 0.000000 0.000000 0.060327 0.000000
# 6 -0.031088 0.031088 0.000000 0.000000 0.000000 0.075345
#
#
# Mechanical properties :
#
#
# Convention : Reuss Voigt Hill
#
# Bulk Modulus (GPa) = 39.57963 43.42455 41.50209
# Shear Modulus (GPa) = -2.41466 13.24930 5.41732
#
# Velocity S-wave (km/s) = -1.40944 3.30152 2.11110
# Velocity P-wave (km/s) = 5.46928 7.08930 6.33132
#
# Compressibility (1/GPa) = 0.02526552
#
# Stress axis : x y z
#
# Youngs Moduli (GPa) = -1.75234 -1.75234 60.93058
#
# Poissons Ratio (x) = 1.03282 0.43574
# Poissons Ratio (y) = 1.03282 0.43574
# Poissons Ratio (z) = -0.01253 -0.01253
#
# Static dielectric constant tensor:
#      x y z
#    x 1.383840 0.000000 0.000000 
#    y 0.000000 1.383840 0.000000 
#    z 0.000000 0.000000 1.409240 
# 
# From -- ./inp_files/1547.got.cif
#   From: 2010.05.17/outbox.cif.g08.bks.cpg/sg87_1_cif.got.tgz:1547.got - 2010.06.03 19:07:00.
