data_PCOD9545657
_publ_section_title
;
Structure prediction by ZEFSAII (Michael W. Deem and Ramdas Pophale) SiO2 
 PCOD9545657
Probable space group: I 4/M
;
_chemical_formula_sum "Si O2"
_cell_formula_units_Z 116
_cell_length_a 18.225966
_cell_length_b 18.225966
_cell_length_c 16.819059
_cell_angle_alpha 90.000000
_cell_angle_beta 90.000000
_cell_angle_gamma 90.000000
_cell_volume 5587.053185
_symmetry_space_group_name_H-M "I 4/M"
_symmetry_group_IT_number 87
_symmetry_cell_setting 'tetragonal'
loop_
_space_group_symop_operation_xyz
x,y,z
-y,x,z
-x,-y,z
y,-x,z
-x,-y,-z
y,-x,-z
x,y,-z
-y,x,-z
1/2+x,1/2+y,1/2+z
1/2-y,1/2+x,1/2+z
1/2-x,1/2-y,1/2+z
1/2+y,1/2-x,1/2+z
1/2-x,1/2-y,1/2-z
1/2+y,1/2-x,1/2-z
1/2+x,1/2+y,1/2-z
1/2-y,1/2+x,1/2-z
loop_
_atom_site_type_symbol
_atom_site_label
_atom_site_fract_x
_atom_site_fract_y
_atom_site_fract_z
Si Si1 0.002686 0.270970 0.408442
Si Si2 0.679237 0.770619 0.594367
Si Si3 0.415060 0.902668 0.849080
Si Si4 0.797110 0.330614 0.094390
Si Si5 0.869168 0.100899 0.838483
Si Si6 0.000000 0.000000 0.894420
Si Si7 0.706881 0.526823 0.749553
Si Si8 0.360688 0.049210 0.175811
O O1 0.985839 0.254353 0.500000
O O2 0.089431 0.262072 0.393182
O O3 0.978846 0.355169 0.390330
O O4 0.963157 0.221124 0.342853
O O5 0.681831 0.785258 0.500000
O O6 0.644461 0.841663 0.635043
O O7 0.761050 0.749463 0.623879
O O8 0.628633 0.699941 0.611569
O O9 0.427730 0.904848 0.754446
O O10 0.402268 0.986665 0.873774
O O11 0.878013 0.336713 0.130520
O O12 0.804923 0.320023 0.000000
O O13 0.904602 0.169176 0.792581
O O14 0.843376 0.042145 0.772647
O O15 0.932305 0.060717 0.889325
O O16 0.786071 0.513607 0.710221
#
# Coordination Sequence:
#
# PCOD9545657 Si02
#       8
#    16  16  16  16  16   4  16  16
#     4  10  23  42  59  86 125 164 210 263 322 378
#     4  11  23  40  64  96 128 163 209 263 320 381
#     4  11  24  39  63  88 126 162 211 263 310 373
#     4  10  23  40  60  87 125 163 207 258 314 374
#     4  10  19  39  62  94 125 165 209 258 314 376
#     4   8  20  36  61  88 133 164 204 250 316 368
#     4  10  20  37  62  91 122 160 206 258 310 376
#     4  11  21  38  58  90 116 163 210 256 307 368
#
# _framework density 20.762287000000001
#
# number of rings (size 3 to 8) (size 9 to 14) (size 15 to 20)
#    0.000    1.655    2.759    2.069    0.000    5.793 
#    0.000    6.552    0.000    0.000    0.000    2.897 
#    0.000    0.000    0.000    0.000    0.000    0.000 
#
# Total GULP energy -323430.414100 kJ/mol
# GULP energy per Si atom -5576.386450 kJ/mol
# Density = 2.071503 g / cm^3
# Si number density = 20.762287 Si / 1000 Ang^3
#
#
#
# Elastic Constant Matrix: (Units=GPa)
#
#
# Indices 1 2 3 4 5 6 
#
# 1 84.8263 11.5415 15.8213 0.0000 0.0000 1.7075
# 2 11.5415 84.8263 15.8213 0.0000 0.0000 -1.7075
# 3 15.8213 15.8213 30.8694 0.0000 0.0000 0.0000
# 4 0.0000 0.0000 0.0000 11.7297 0.0000 0.0000
# 5 0.0000 0.0000 0.0000 0.0000 11.7297 0.0000
# 6 1.7075 -1.7075 0.0000 0.0000 0.0000 42.1605
#
#
#
# Elastic Compliance Matrix: (Units=1/GPa)
#
#
# Indices 1 2 3 4 5 6 
#
# 1 0.013074 -0.000597 -0.006395 0.000000 0.000000 -0.000554
# 2 -0.000597 0.013074 -0.006395 0.000000 0.000000 0.000554
# 3 -0.006395 -0.006395 0.038949 0.000000 0.000000 0.000000
# 4 0.000000 0.000000 0.000000 0.085254 0.000000 0.000000
# 5 0.000000 0.000000 0.000000 0.000000 0.085254 0.000000
# 6 -0.000554 0.000554 0.000000 0.000000 0.000000 0.023764
#
#
# Mechanical properties :
#
#
# Convention : Reuss Voigt Hill
#
# Bulk Modulus (GPa) = 26.09315 31.87668 28.98492
# Shear Modulus (GPa) = 16.72711 23.61316 20.17013
#
# Velocity S-wave (km/s) = 2.84147 3.37606 3.12024
# Velocity P-wave (km/s) = 4.83323 5.53024 5.19344
#
# Compressibility (1/GPa) = 0.03832423
#
# Stress axis : x y z
#
# Youngs Moduli (GPa) = 76.48841 76.48841 25.67451
#
# Poissons Ratio (x) = 0.04569 0.16418
# Poissons Ratio (y) = 0.04569 0.16418
# Poissons Ratio (z) = 0.48911 0.48911
#
# Static dielectric constant tensor:
#      x y z
#    x 1.758330 0.000000 0.000000 
#    y 0.000000 1.758330 0.000000 
#    z 0.000000 0.000000 1.733900 
# 
# From -- ./inp_files/4619.got.cif
#   From: 2010.05.17/outbox.cif.g08.bks.cpg/sg87_3_cif.got.tgz:4619.got - 2010.06.03 19:07:00.
