data_PCOD9545779
_publ_section_title
;
Structure prediction by ZEFSAII (Michael W. Deem and Ramdas Pophale) SiO2 
 PCOD9545779
Probable space group: I 4/M
;
_chemical_formula_sum "Si O2"
_cell_formula_units_Z 76
_cell_length_a 11.243210
_cell_length_b 11.243210
_cell_length_c 31.407407
_cell_angle_alpha 90.000000
_cell_angle_beta 90.000000
_cell_angle_gamma 90.000000
_cell_volume 3970.203130
_symmetry_space_group_name_H-M "I 4/M"
_symmetry_group_IT_number 87
_symmetry_cell_setting 'tetragonal'
loop_
_space_group_symop_operation_xyz
x,y,z
-y,x,z
-x,-y,z
y,-x,z
-x,-y,-z
y,-x,-z
x,y,-z
-y,x,-z
1/2+x,1/2+y,1/2+z
1/2-y,1/2+x,1/2+z
1/2-x,1/2-y,1/2+z
1/2+y,1/2-x,1/2+z
1/2-x,1/2-y,1/2-z
1/2+y,1/2-x,1/2-z
1/2+x,1/2+y,1/2-z
1/2-y,1/2+x,1/2-z
loop_
_atom_site_type_symbol
_atom_site_label
_atom_site_fract_x
_atom_site_fract_y
_atom_site_fract_z
Si Si1 0.463844 0.691525 0.384176
Si Si2 0.950641 0.807810 0.500000
Si Si3 0.500000 0.000000 0.250000
Si Si4 0.765507 0.616677 0.705628
Si Si5 0.083959 0.613746 0.953396
Si Si6 0.363934 0.635931 0.206304
O O1 0.365867 0.591085 0.393114
O O2 0.458086 0.723744 0.334414
O O3 0.437045 0.801636 0.414190
O O4 0.928006 0.720019 0.460122
O O5 0.082494 0.860470 0.500000
O O6 0.440105 0.888363 0.275456
O O7 0.667624 0.629795 0.743069
O O8 0.789836 0.751989 0.690333
O O9 0.000000 0.500000 0.949425
O O10 0.054998 0.671038 0.000000
O O11 0.338231 0.499513 0.194034
#
# Coordination Sequence:
#
# PCOD9545779 Si02
#       6
#    16   8   4  16  16  16
#     4  11  26  42  63  95 129 169 213 271 327 380
#     4   9  19  38  70 101 126 168 212 249 307 380
#     4  12  24  40  60  92 106 172 224 248 344 384
#     4  11  23  39  60  88 123 162 215 270 312 394
#     4   9  22  41  69  97 130 171 210 260 322 379
#     4  10  20  37  60  84 115 161 210 260 317 373
#
# _framework density 19.142598
#
# number of rings (size 3 to 8) (size 9 to 14) (size 15 to 20)
#    0.632    1.158    2.105    1.263    7.368    2.526 
#    0.000    1.053    0.000    2.526    0.000    0.000 
#    0.000    0.000    0.000    0.000    0.000    0.000 
#
# Total GULP energy -211790.141253 kJ/mol
# GULP energy per Si atom -5573.424770 kJ/mol
# Density = 1.909903 g / cm^3
# Si number density = 19.142598 Si / 1000 Ang^3
#
#
#
# Elastic Constant Matrix: (Units=GPa)
#
#
# Indices 1 2 3 4 5 6 
#
# 1 65.2332 23.5402 13.6598 0.0000 0.0000 6.2961
# 2 23.5402 65.2332 13.6598 0.0000 0.0000 -6.2961
# 3 13.6598 13.6598 40.7208 0.0000 0.0000 0.0000
# 4 0.0000 0.0000 0.0000 435.2573 0.0001 0.0000
# 5 0.0000 0.0000 0.0000 0.0001 435.2571 0.0000
# 6 6.2961 -6.2961 0.0000 0.0000 0.0000 6.0729
#
#
#
# Elastic Compliance Matrix: (Units=1/GPa)
#
#
# Indices 1 2 3 4 5 6 
#
# 1 0.023740 -0.011179 -0.004214 0.000000 0.000000 -0.036202
# 2 -0.011179 0.023740 -0.004214 0.000000 0.000000 0.036202
# 3 -0.004214 -0.004214 0.027384 0.000000 0.000000 0.000000
# 4 0.000000 0.000000 0.000000 0.002297 0.000000 0.000000
# 5 0.000000 0.000000 0.000000 0.000000 0.002297 0.000000
# 6 -0.036202 0.036202 0.000000 0.000000 0.000000 0.239731
#
#
# Mechanical properties :
#
#
# Convention : Reuss Voigt Hill
#
# Bulk Modulus (GPa) = 28.04862 30.32297 29.18580
# Shear Modulus (GPa) = 13.50304 183.33929 98.42117
#
# Velocity S-wave (km/s) = 2.65880 9.79712 7.17819
# Velocity P-wave (km/s) = 4.91019 11.99387 9.16414
#
# Compressibility (1/GPa) = 0.03565237
#
# Stress axis : x y z
#
# Youngs Moduli (GPa) = 42.12307 42.12307 36.51705
#
# Poissons Ratio (x) = 0.47088 0.15387
# Poissons Ratio (y) = 0.47088 0.15387
# Poissons Ratio (z) = 0.17749 0.17749
#
# Static dielectric constant tensor:
#      x y z
#    x 1.667100 0.000000 0.000000 
#    y 0.000000 1.667100 0.000000 
#    z 0.000000 0.000000 1.643920 
# 
# From -- ./inp_files/6543.got.cif
#   From: 2010.05.17/outbox.cif.g08.bks.cpg/sg87_4_cif.got.tgz:6543.got - 2010.06.03 19:07:00.
