data_PCOD9545829
_publ_section_title
;
Structure prediction by ZEFSAII (Michael W. Deem and Ramdas Pophale) SiO2 
 PCOD9545829
Probable space group: I 4/M
;
_chemical_formula_sum "Si O2"
_cell_formula_units_Z 112
_cell_length_a 15.254765
_cell_length_b 15.254765
_cell_length_c 26.117563
_cell_angle_alpha 90.000000
_cell_angle_beta 90.000000
_cell_angle_gamma 90.000000
_cell_volume 6077.762069
_symmetry_space_group_name_H-M "I 4/M"
_symmetry_group_IT_number 87
_symmetry_cell_setting 'tetragonal'
loop_
_space_group_symop_operation_xyz
x,y,z
-y,x,z
-x,-y,z
y,-x,z
-x,-y,-z
y,-x,-z
x,y,-z
-y,x,-z
1/2+x,1/2+y,1/2+z
1/2-y,1/2+x,1/2+z
1/2-x,1/2-y,1/2+z
1/2+y,1/2-x,1/2+z
1/2-x,1/2-y,1/2-z
1/2+y,1/2-x,1/2-z
1/2+x,1/2+y,1/2-z
1/2-y,1/2+x,1/2-z
loop_
_atom_site_type_symbol
_atom_site_label
_atom_site_fract_x
_atom_site_fract_y
_atom_site_fract_z
Si Si1 0.699813 0.275063 0.197326
Si Si2 0.235195 0.445030 0.500000
Si Si3 0.030019 0.730866 0.750729
Si Si4 0.537932 0.642091 0.670679
Si Si5 0.473882 0.907401 0.586198
Si Si6 0.144726 0.224853 0.000000
Si Si7 0.104539 0.352769 0.680646
Si Si8 0.373135 0.212230 0.610611
O O1 0.750000 0.250000 0.250000
O O2 0.598806 0.282049 0.214595
O O3 0.754983 0.355946 0.174990
O O4 0.706892 0.198977 0.154872
O O5 0.168964 0.444040 0.547989
O O6 0.283386 0.538993 0.500000
O O7 0.302621 0.365541 0.500000
O O8 0.086655 0.679564 0.793446
O O9 0.963054 0.796347 0.779155
O O10 0.976543 0.659630 0.718652
O O11 0.439898 0.603373 0.669937
O O12 0.566161 0.703802 0.624115
O O13 0.399440 0.920680 0.628413
O O14 0.562225 0.870050 0.612077
O O15 0.500000 0.000000 0.561669
O O16 0.164160 0.275534 0.053274
#
# Coordination Sequence:
#
# PCOD9545829 Si02
#       8
#    16   8  16  16  16   8  16  16
#     4  10  21  36  56  77 113 149 191 239 296 351
#     4  10  23  43  58  86 108 154 184 247 283 348
#     4  11  21  35  52  80 111 148 191 235 289 344
#     4  11  22  35  55  80 116 158 196 243 288 348
#     4  11  23  38  59  82 112 146 190 238 293 344
#     4  10  24  37  64  80 120 150 204 243 294 336
#     4  11  22  33  55  79 107 146 180 238 280 345
#     4  11  22  40  56  86 113 156 199 250 290 353
#
# _framework density 18.427834000000001
#
# number of rings (size 3 to 8) (size 9 to 14) (size 15 to 20)
#    0.000    1.286    1.429    6.214    6.000    0.143 
#    0.000    0.000    0.000    0.000    0.000    0.000 
#    0.000    0.000    0.000    0.000    0.000   77.286 
#
# Total GULP energy -312597.459957 kJ/mol
# GULP energy per Si atom -5582.097499 kJ/mol
# Density = 1.838589 g / cm^3
# Si number density = 18.427834 Si / 1000 Ang^3
#
#
#
# Elastic Constant Matrix: (Units=GPa)
#
#
# Indices 1 2 3 4 5 6 
#
# 1 58.1225 12.6824 25.1583 0.0000 0.0000 2.3368
# 2 12.6824 58.1225 25.1583 0.0000 0.0000 -2.3368
# 3 25.1583 25.1583 104.3005 0.0000 0.0000 0.0000
# 4 0.0000 0.0000 0.0000 17.8754 0.0000 0.0000
# 5 0.0000 0.0000 0.0000 0.0000 17.8754 0.0000
# 6 2.3368 -2.3368 0.0000 0.0000 0.0000 27.2391
#
#
#
# Elastic Compliance Matrix: (Units=1/GPa)
#
#
# Indices 1 2 3 4 5 6 
#
# 1 0.019624 -0.002579 -0.004111 0.000000 0.000000 -0.001905
# 2 -0.002579 0.019624 -0.004111 0.000000 0.000000 0.001905
# 3 -0.004111 -0.004111 0.011571 0.000000 0.000000 0.000000
# 4 0.000000 0.000000 0.000000 0.055943 0.000000 0.000000
# 5 0.000000 0.000000 0.000000 0.000000 0.055943 0.000000
# 6 -0.001905 0.001905 0.000000 0.000000 0.000000 0.037039
#
#
# Mechanical properties :
#
#
# Convention : Reuss Voigt Hill
#
# Bulk Modulus (GPa) = 34.22840 38.50483 36.36662
# Shear Modulus (GPa) = 21.63699 23.10106 22.36902
#
# Velocity S-wave (km/s) = 3.43030 3.54446 3.48785
# Velocity P-wave (km/s) = 5.85695 6.13932 5.99980
#
# Compressibility (1/GPa) = 0.02921551
#
# Stress axis : x y z
#
# Youngs Moduli (GPa) = 50.95805 50.95805 86.42201
#
# Poissons Ratio (x) = 0.13142 0.35532
# Poissons Ratio (y) = 0.13142 0.35532
# Poissons Ratio (z) = 0.20951 0.20951
#
# Static dielectric constant tensor:
#      x y z
#    x 1.647960 0.000000 0.000000 
#    y 0.000000 1.647960 0.000000 
#    z 0.000000 0.000000 1.662330 
# 
# From -- ./inp_files/6313.got.cif
#   From: 2010.05.17/outbox.cif.g08.bks.cpg/sg87_4_cif.got.tgz:6313.got - 2010.06.03 19:07:00.
