data_PCOD9545008
_publ_section_title
;
Structure prediction by ZEFSAII (Michael W. Deem and Ramdas Pophale) SiO2 
 PCOD9545008
Probable space group: P 42/N
;
_chemical_formula_sum "Si O2"
_cell_formula_units_Z 56
_cell_length_a 11.546112
_cell_length_b 11.546112
_cell_length_c 20.850710
_cell_angle_alpha 90.000000
_cell_angle_beta 90.000000
_cell_angle_gamma 90.000000
_cell_volume 2779.664495
_symmetry_space_group_name_H-M "P 42/N"
_symmetry_group_IT_number 86
_space_group.IT_coordinate_system_code '2'
_symmetry_cell_setting 'tetragonal'
loop_
_space_group_symop_operation_xyz
x,y,z
-y,1/2+x,1/2+z
1/2-x,1/2-y,z
1/2+y,-x,1/2+z
-x,-y,-z
y,1/2-x,1/2-z
1/2+x,1/2+y,-z
1/2-y,x,1/2-z
loop_
_atom_site_type_symbol
_atom_site_label
_atom_site_fract_x
_atom_site_fract_y
_atom_site_fract_z
Si Si1 0.501014 0.902004 0.080510
Si Si2 0.057967 0.412475 0.165999
Si Si3 0.628747 0.307081 0.888395
Si Si4 0.810151 0.985614 0.800112
Si Si5 0.107241 0.183409 0.100908
Si Si6 0.700554 0.949473 0.988994
Si Si7 0.912091 0.403334 0.525923
O O1 0.471716 0.786070 0.118511
O O2 0.602180 0.881829 0.028981
O O3 0.530093 0.002572 0.130672
O O4 0.380672 0.954582 0.048520
O O5 0.005879 0.347669 0.226995
O O6 0.172031 0.483390 0.188981
O O7 0.101656 0.320304 0.112887
O O8 0.750000 0.250000 0.871129
O O9 0.626372 0.421191 0.845590
O O10 0.625699 0.334337 0.964125
O O11 0.855208 0.865539 0.830107
O O12 0.976262 0.151204 0.080638
O O13 0.201708 0.124492 0.051679
O O14 0.784548 0.019889 0.037924
O O15 0.000000 0.500000 0.500000
#
# Coordination Sequence:
#
# PCOD9545008 Si02
#       7
#     8   8   8   8   8   8   8
#     4  11  24  39  61  92 128 170 209 259 321 392
#     4  12  24  39  63  99 126 159 220 273 322 381
#     4  12  21  41  62  88 127 173 209 250 326 400
#     4  12  23  39  64  89 123 167 214 264 325 373
#     4  11  22  37  63  97 129 161 207 271 327 379
#     4  10  21  40  60  94 130 166 208 258 325 383
#     4  10  20  38  61  92 128 161 207 260 313 382
#
# _framework density 20.146315000000001
#
# number of rings (size 3 to 8) (size 9 to 14) (size 15 to 20)
#    0.000    0.857    8.571    0.429    4.000    0.000 
#    0.000    2.857    0.000    0.000    0.000    0.000 
#    0.000    0.000    0.000    0.000    0.000    0.000 
#
# Total GULP energy -312033.885812 kJ/mol
# GULP energy per Si atom -5572.033675 kJ/mol
# Density = 2.010046 g / cm^3
# Si number density = 20.146315 Si / 1000 Ang^3
#
#
#
# Elastic Constant Matrix: (Units=GPa)
#
#
# Indices 1 2 3 4 5 6 
#
# 1 61.8986 0.7483 -0.3260 0.0000 0.0000 1.4273
# 2 0.7483 61.8986 -0.3260 0.0000 0.0000 -1.4273
# 3 -0.3260 -0.3260 50.5201 0.0000 0.0000 0.0000
# 4 0.0000 0.0000 0.0000 19.7578 0.0000 0.0000
# 5 0.0000 0.0000 0.0000 0.0000 19.7578 0.0000
# 6 1.4273 -1.4273 0.0000 0.0000 0.0000 24.5846
#
#
#
# Elastic Compliance Matrix: (Units=1/GPa)
#
#
# Indices 1 2 3 4 5 6 
#
# 1 0.016181 -0.000217 0.000103 0.000000 0.000000 -0.000952
# 2 -0.000217 0.016181 0.000103 0.000000 0.000000 0.000952
# 3 0.000103 0.000103 0.019795 0.000000 0.000000 0.000000
# 4 0.000000 0.000000 0.000000 0.050613 0.000000 0.000000
# 5 0.000000 0.000000 0.000000 0.000000 0.050613 0.000000
# 6 -0.000952 0.000952 0.000000 0.000000 0.000000 0.040786
#
#
# Mechanical properties :
#
#
# Convention : Reuss Voigt Hill
#
# Bulk Modulus (GPa) = 19.18110 19.38997 19.28554
# Shear Modulus (GPa) = 23.63296 24.43478 24.03387
#
# Velocity S-wave (km/s) = 3.42872 3.48640 3.45768
# Velocity P-wave (km/s) = 5.02159 5.08450 5.05314
#
# Compressibility (1/GPa) = 0.05213464
#
# Stress axis : x y z
#
# Youngs Moduli (GPa) = 61.80253 61.80253 50.51669
#
# Poissons Ratio (x) = 0.01341 -0.00520
# Poissons Ratio (y) = 0.01341 -0.00520
# Poissons Ratio (z) = -0.00637 -0.00637
#
# Static dielectric constant tensor:
#      x y z
#    x 1.761120 0.000000 0.000000 
#    y 0.000000 1.761120 0.000000 
#    z 0.000000 0.000000 1.452590 
# 
# From -- ./inp_files/4195.got.cif
#   From: 2010.05.17/outbox.cif.g08.bks.cpg/sg86_3_cif.got.tgz:4195.got - 2010.06.03 19:03:11.
