data_PCOD9545573
_publ_section_title
;
Structure prediction by ZEFSAII (Michael W. Deem and Ramdas Pophale) SiO2 
 PCOD9545573
Probable space group: I 4/M
;
_chemical_formula_sum "Si O2"
_cell_formula_units_Z 96
_cell_length_a 24.951299
_cell_length_b 24.951299
_cell_length_c 7.745774
_cell_angle_alpha 90.000000
_cell_angle_beta 90.000000
_cell_angle_gamma 90.000000
_cell_volume 4822.265774
_symmetry_space_group_name_H-M "I 4/M"
_symmetry_group_IT_number 87
_symmetry_cell_setting 'tetragonal'
loop_
_space_group_symop_operation_xyz
x,y,z
-y,x,z
-x,-y,z
y,-x,z
-x,-y,-z
y,-x,-z
x,y,-z
-y,x,-z
1/2+x,1/2+y,1/2+z
1/2-y,1/2+x,1/2+z
1/2-x,1/2-y,1/2+z
1/2+y,1/2-x,1/2+z
1/2-x,1/2-y,1/2-z
1/2+y,1/2-x,1/2-z
1/2+x,1/2+y,1/2-z
1/2-y,1/2+x,1/2-z
loop_
_atom_site_type_symbol
_atom_site_label
_atom_site_fract_x
_atom_site_fract_y
_atom_site_fract_z
Si Si1 0.438709 0.061183 0.201961
Si Si2 0.235745 0.862073 0.704083
Si Si3 0.856769 0.934922 0.709133
Si Si4 0.646494 0.444053 0.211339
Si Si5 0.651100 0.855597 0.787909
Si Si6 0.727978 0.655582 0.297942
O O1 0.497581 0.072150 0.279630
O O2 0.390361 0.098461 0.269915
O O3 0.444273 0.073078 0.000000
O O4 0.239442 0.871173 0.500000
O O5 0.195369 0.906990 0.774094
O O6 0.296024 0.865938 0.769965
O O7 0.206727 0.804505 0.725568
O O8 0.854718 0.934969 0.500000
O O9 0.912839 0.907560 0.759810
O O10 0.810306 0.895298 0.770375
O O11 0.850833 0.995274 0.771347
O O12 0.648140 0.444666 0.000000
O O13 0.713046 0.858723 0.729831
O O14 0.651407 0.857667 0.000000
O O15 0.733901 0.666747 0.500000
#
# Coordination Sequence:
#
# PCOD9545573 Si02
#       6
#    16  16  16  16  16  16
#     4  10  20  37  56  76 102 133 165 205 251 297
#     4   9  17  33  52  72  98 129 160 198 243 290
#     4   9  17  31  48  69  95 127 162 200 241 286
#     4   8  15  27  47  70  93 120 157 197 234 274
#     4   9  19  33  52  74  99 129 162 196 239 291
#     4  10  19  32  48  71 100 130 160 199 245 289
#
# _framework density 19.907654999999998
#
# number of rings (size 3 to 8) (size 9 to 14) (size 15 to 20)
#    0.000    2.833    0.000    3.000    0.000    1.667 
#    0.000   12.500    0.000    0.000    0.000    4.667 
#    0.000    0.000    0.000    0.000    0.000    0.000 
#
# Total GULP energy -267621.303650 kJ/mol
# GULP energy per Si atom -5575.443826 kJ/mol
# Density = 1.986234 g / cm^3
# Si number density = 19.907655 Si / 1000 Ang^3
#
#
#
# Elastic Constant Matrix: (Units=GPa)
#
#
# Indices 1 2 3 4 5 6 
#
# 1 115.7990 24.2952 -10.7409 0.0000 0.0000 1.0706
# 2 24.2952 115.7990 -10.7409 0.0000 0.0000 -1.0706
# 3 -10.7409 -10.7409 22.1750 0.0000 0.0000 0.0000
# 4 0.0000 0.0000 0.0000 15.5779 0.0000 0.0000
# 5 0.0000 0.0000 0.0000 0.0000 15.5779 0.0000
# 6 1.0706 -1.0706 0.0000 0.0000 0.0000 24.4618
#
#
#
# Elastic Compliance Matrix: (Units=1/GPa)
#
#
# Indices 1 2 3 4 5 6 
#
# 1 0.009325 -0.001614 0.003735 0.000000 0.000000 -0.000479
# 2 -0.001614 0.009325 0.003735 0.000000 0.000000 0.000479
# 3 0.003735 0.003735 0.048714 0.000000 0.000000 0.000000
# 4 0.000000 0.000000 0.000000 0.064194 0.000000 0.000000
# 5 0.000000 0.000000 0.000000 0.000000 0.064194 0.000000
# 6 -0.000479 0.000479 0.000000 0.000000 0.000000 0.040922
#
#
# Mechanical properties :
#
#
# Convention : Reuss Voigt Hill
#
# Bulk Modulus (GPa) = 12.64624 28.82218 20.73421
# Shear Modulus (GPa) = 19.89485 27.85416 23.87451
#
# Velocity S-wave (km/s) = 3.16469 3.74460 3.46679
# Velocity P-wave (km/s) = 4.44071 5.76242 5.14419
#
# Compressibility (1/GPa) = 0.07907488
#
# Stress axis : x y z
#
# Youngs Moduli (GPa) = 107.23591 107.23591 20.52802
#
# Poissons Ratio (x) = 0.17313 -0.07667
# Poissons Ratio (y) = 0.17313 -0.07667
# Poissons Ratio (z) = -0.40051 -0.40051
#
# Static dielectric constant tensor:
#      x y z
#    x 1.693160 0.000000 0.000000 
#    y 0.000000 1.693160 0.000000 
#    z 0.000000 0.000000 1.737810 
# 
# From -- ./inp_files/1368.got.cif
#   From: 2010.05.17/outbox.cif.g08.bks.cpg/sg87_1_cif.got.tgz:1368.got - 2010.06.03 19:07:00.
