data_PCOD9545784
_publ_section_title
;
Structure prediction by ZEFSAII (Michael W. Deem and Ramdas Pophale) SiO2 
 PCOD9545784
Probable space group: I 4/M
;
_chemical_formula_sum "Si O2"
_cell_formula_units_Z 88
_cell_length_a 15.111600
_cell_length_b 15.111600
_cell_length_c 20.034142
_cell_angle_alpha 90.000000
_cell_angle_beta 90.000000
_cell_angle_gamma 90.000000
_cell_volume 4575.005774
_symmetry_space_group_name_H-M "I 4/M"
_symmetry_group_IT_number 87
_symmetry_cell_setting 'tetragonal'
loop_
_space_group_symop_operation_xyz
x,y,z
-y,x,z
-x,-y,z
y,-x,z
-x,-y,-z
y,-x,-z
x,y,-z
-y,x,-z
1/2+x,1/2+y,1/2+z
1/2-y,1/2+x,1/2+z
1/2-x,1/2-y,1/2+z
1/2+y,1/2-x,1/2+z
1/2-x,1/2-y,1/2-z
1/2+y,1/2-x,1/2-z
1/2+x,1/2+y,1/2-z
1/2-y,1/2+x,1/2-z
loop_
_atom_site_type_symbol
_atom_site_label
_atom_site_fract_x
_atom_site_fract_y
_atom_site_fract_z
Si Si1 0.124305 0.219148 0.421499
Si Si2 0.956617 0.360021 0.756761
Si Si3 0.954112 0.143551 0.000000
Si Si4 0.295068 0.436154 0.153071
Si Si5 0.257979 0.115420 0.123318
Si Si6 0.408327 0.609913 0.287222
O O1 0.105669 0.219627 0.500000
O O2 0.188553 0.138024 0.402106
O O3 0.176891 0.308103 0.401627
O O4 0.032151 0.207799 0.381392
O O5 0.893078 0.444482 0.755783
O O6 0.929474 0.292245 0.698693
O O7 0.948787 0.313993 0.828703
O O8 0.930665 0.204590 0.936419
O O9 0.055039 0.107513 0.000000
O O10 0.371327 0.415162 0.208424
O O11 0.181759 0.149577 0.174380
O O12 0.380382 0.511710 0.306518
#
# Coordination Sequence:
#
# PCOD9545784 Si02
#       6
#    16  16   8  16  16  16
#     4  12  25  44  63  93 131 175 217 269 321 398
#     4  10  22  42  69  97 132 169 219 274 325 382
#     4  11  24  44  68 101 143 174 215 264 328 397
#     4  11  23  40  66  93 129 168 217 268 329 378
#     4  11  23  40  67  96 129 177 214 268 321 390
#     4  10  20  37  63  98 130 157 208 266 327 385
#
# _framework density 19.234947999999999
#
# number of rings (size 3 to 8) (size 9 to 14) (size 15 to 20)
#    0.000    1.182    4.545    1.636    0.000    9.091 
#    0.000    0.909    2.000    2.182    0.000    0.000 
#    0.000    0.000    0.000    0.000    0.000    0.000 
#
# Total GULP energy -245504.783631 kJ/mol
# GULP energy per Si atom -5579.654173 kJ/mol
# Density = 1.919117 g / cm^3
# Si number density = 19.234948 Si / 1000 Ang^3
#
#
#
# Elastic Constant Matrix: (Units=GPa)
#
#
# Indices 1 2 3 4 5 6 
#
# 1 67.8686 38.6549 43.4414 0.0000 0.0000 -2.3519
# 2 38.6549 67.8686 43.4414 0.0000 0.0000 2.3519
# 3 43.4414 43.4414 131.6586 0.0000 0.0000 0.0000
# 4 0.0000 0.0000 0.0000 27.3609 0.0000 0.0000
# 5 0.0000 0.0000 0.0000 0.0000 27.3609 0.0000
# 6 -2.3519 2.3519 0.0000 0.0000 0.0000 3.2801
#
#
#
# Elastic Compliance Matrix: (Units=1/GPa)
#
#
# Indices 1 2 3 4 5 6 
#
# 1 0.025771 -0.012927 -0.004238 0.000000 0.000000 0.027748
# 2 -0.012927 0.025771 -0.004238 0.000000 0.000000 -0.027748
# 3 -0.004238 -0.004238 0.010392 0.000000 0.000000 0.000000
# 4 0.000000 0.000000 0.000000 0.036549 0.000000 0.000000
# 5 0.000000 0.000000 0.000000 0.000000 0.036549 0.000000
# 6 0.027748 -0.027748 0.000000 0.000000 0.000000 0.344663
#
#
# Mechanical properties :
#
#
# Convention : Reuss Voigt Hill
#
# Bulk Modulus (GPa) = 52.27802 57.60790 54.94296
# Shear Modulus (GPa) = 9.45401 21.05757 15.25579
#
# Velocity S-wave (km/s) = 2.21939 3.31230 2.81931
# Velocity P-wave (km/s) = 5.81423 6.68155 6.26292
#
# Compressibility (1/GPa) = 0.01912850
#
# Stress axis : x y z
#
# Youngs Moduli (GPa) = 38.80295 38.80295 96.22682
#
# Poissons Ratio (x) = 0.50161 0.40781
# Poissons Ratio (y) = 0.50161 0.40781
# Poissons Ratio (z) = 0.16445 0.16445
#
# Static dielectric constant tensor:
#      x y z
#    x 1.663860 0.000000 0.000000 
#    y 0.000000 1.663860 0.000000 
#    z 0.000000 0.000000 1.695510 
# 
# From -- ./inp_files/5155.got.cif
#   From: 2010.05.17/outbox.cif.g08.bks.cpg/sg87_3_cif.got.tgz:5155.got - 2010.06.03 19:07:00.
