data_PCOD9545538
_publ_section_title
;
Structure prediction by ZEFSAII (Michael W. Deem and Ramdas Pophale) SiO2 
 PCOD9545538
Probable space group: I 4/M
;
_chemical_formula_sum "Si O2"
_cell_formula_units_Z 104
_cell_length_a 20.791196
_cell_length_b 20.791196
_cell_length_c 15.789484
_cell_angle_alpha 90.000000
_cell_angle_beta 90.000000
_cell_angle_gamma 90.000000
_cell_volume 6825.380740
_symmetry_space_group_name_H-M "I 4/M"
_symmetry_group_IT_number 87
_symmetry_cell_setting 'tetragonal'
loop_
_space_group_symop_operation_xyz
x,y,z
-y,x,z
-x,-y,z
y,-x,z
-x,-y,-z
y,-x,-z
x,y,-z
-y,x,-z
1/2+x,1/2+y,1/2+z
1/2-y,1/2+x,1/2+z
1/2-x,1/2-y,1/2+z
1/2+y,1/2-x,1/2+z
1/2-x,1/2-y,1/2-z
1/2+y,1/2-x,1/2-z
1/2+x,1/2+y,1/2-z
1/2-y,1/2+x,1/2-z
loop_
_atom_site_type_symbol
_atom_site_label
_atom_site_fract_x
_atom_site_fract_y
_atom_site_fract_z
Si Si1 0.638172 0.742782 0.000000
Si Si2 0.717603 0.995511 0.500000
Si Si3 0.644144 0.259711 0.000000
Si Si4 0.645516 0.059972 0.835986
Si Si5 0.875554 0.503863 0.161013
Si Si6 0.686310 0.782028 0.650143
Si Si7 0.929437 0.374045 0.904788
Si Si8 0.184107 0.709660 0.152913
O O1 0.665887 0.776885 0.914925
O O2 0.562260 0.745340 0.000000
O O3 0.669422 0.672971 0.000000
O O4 0.673525 0.992959 0.583472
O O5 0.759393 0.931760 0.500000
O O6 0.672308 0.222895 0.082702
O O7 0.574553 0.093197 0.830168
O O8 0.656025 0.022069 0.747535
O O9 0.700133 0.111552 0.858021
O O10 0.642603 0.003799 0.903864
O O11 0.922804 0.444414 0.137707
O O12 0.698805 0.799787 0.748551
O O13 0.718034 0.711290 0.635230
O O14 0.887658 0.317656 0.860959
O O15 0.904276 0.380320 0.000000
#
# Coordination Sequence:
#
# PCOD9545538 Si02
#       8
#     8   8   8  16  16  16  16  16
#     4  10  18  36  54  69  98 130 168 207 254 296
#     4  12  20  34  53  71  98 128 174 204 246 300
#     4  10  22  32  50  77  96 124 166 219 250 284
#     4  12  23  33  45  72 103 133 165 201 243 287
#     4  12  21  33  47  67 100 138 164 198 236 290
#     4  10  20  33  53  70  94 123 167 215 248 284
#     4  12  23  33  46  67  99 138 168 191 240 298
#     4  10  18  36  53  69  89 131 170 204 251 290
#
# _framework density 15.237245
#
# number of rings (size 3 to 8) (size 9 to 14) (size 15 to 20)
#    0.000    0.923    7.692    0.462    2.154    0.615 
#    0.000    0.000    0.000    0.231    0.000    0.000 
#    0.000    0.615    0.000    1.385    0.000    0.000 
#
# Total GULP energy -289540.630909 kJ/mol
# GULP energy per Si atom -5568.089056 kJ/mol
# Density = 1.520256 g / cm^3
# Si number density = 15.237245 Si / 1000 Ang^3
#
#
#
# Elastic Constant Matrix: (Units=GPa)
#
#
# Indices 1 2 3 4 5 6 
#
# 1 72.5850 45.3374 12.5241 0.0000 0.0000 -4.9950
# 2 45.3374 72.5850 12.5241 0.0000 0.0000 4.9950
# 3 12.5241 12.5241 89.5784 0.0000 0.0000 0.0000
# 4 0.0000 0.0000 0.0000 19.4801 0.0000 0.0000
# 5 0.0000 0.0000 0.0000 0.0000 19.4801 0.0000
# 6 -4.9950 4.9950 0.0000 0.0000 0.0000 25.3489
#
#
#
# Elastic Compliance Matrix: (Units=1/GPa)
#
#
# Indices 1 2 3 4 5 6 
#
# 1 0.024149 -0.015409 -0.001222 0.000000 0.000000 0.007795
# 2 -0.015409 0.024149 -0.001222 0.000000 0.000000 -0.007795
# 3 -0.001222 -0.001222 0.011505 0.000000 0.000000 0.000000
# 4 0.000000 0.000000 0.000000 0.051334 0.000000 0.000000
# 5 0.000000 0.000000 0.000000 0.000000 0.051334 0.000000
# 6 0.007795 -0.007795 0.000000 0.000000 0.000000 0.042521
#
#
# Mechanical properties :
#
#
# Convention : Reuss Voigt Hill
#
# Bulk Modulus (GPa) = 41.49919 41.72437 41.61178
# Shear Modulus (GPa) = 20.10196 23.81935 21.96066
#
# Velocity S-wave (km/s) = 3.63611 3.95806 3.80050
# Velocity P-wave (km/s) = 6.70245 6.95205 6.82839
#
# Compressibility (1/GPa) = 0.02409685
#
# Stress axis : x y z
#
# Youngs Moduli (GPa) = 41.40953 41.40953 86.91812
#
# Poissons Ratio (x) = 0.63809 0.10621
# Poissons Ratio (y) = 0.63809 0.10621
# Poissons Ratio (z) = 0.05060 0.05060
#
# Static dielectric constant tensor:
#      x y z
#    x 1.515200 0.000000 0.000000 
#    y 0.000000 1.515200 0.000000 
#    z 0.000000 0.000000 1.555110 
# 
# From -- ./inp_files/3854.got.cif
#   From: 2010.05.17/outbox.cif.g08.bks.cpg/sg87_2_cif.got.tgz:3854.got - 2010.06.03 19:07:00.
