data_PCOD9545311
_publ_section_title
;
Structure prediction by ZEFSAII (Michael W. Deem and Ramdas Pophale) SiO2 
 PCOD9545311
Probable space group: P 42/N
;
_chemical_formula_sum "Si O2"
_cell_formula_units_Z 48
_cell_length_a 8.775750
_cell_length_b 8.775750
_cell_length_c 28.654032
_cell_angle_alpha 90.000000
_cell_angle_beta 90.000000
_cell_angle_gamma 90.000000
_cell_volume 2206.755548
_symmetry_space_group_name_H-M "P 42/N"
_symmetry_group_IT_number 86
_space_group.IT_coordinate_system_code '2'
_symmetry_cell_setting 'tetragonal'
loop_
_space_group_symop_operation_xyz
x,y,z
-y,1/2+x,1/2+z
1/2-x,1/2-y,z
1/2+y,-x,1/2+z
-x,-y,-z
y,1/2-x,1/2-z
1/2+x,1/2+y,-z
1/2-y,x,1/2-z
loop_
_atom_site_type_symbol
_atom_site_label
_atom_site_fract_x
_atom_site_fract_y
_atom_site_fract_z
Si Si1 0.095704 0.550009 0.151403
Si Si2 0.924192 0.798259 0.102235
Si Si3 0.080335 0.296324 0.086024
Si Si4 0.548996 0.944417 0.658004
Si Si5 0.822907 0.424665 0.495603
Si Si6 0.058707 0.421592 0.753075
O O1 0.059099 0.467711 0.102256
O O2 0.274089 0.520170 0.158230
O O3 0.034251 0.716498 0.139413
O O4 0.006912 0.511142 0.198891
O O5 0.750000 0.750000 0.107948
O O6 0.948546 0.970536 0.118872
O O7 0.983949 0.771570 0.050340
O O8 0.250000 0.250000 0.069559
O O9 0.066658 0.216083 0.136527
O O10 0.971079 0.250392 0.044645
O O11 0.530789 0.014059 0.708693
O O12 0.750000 0.250000 0.487900
O O13 0.000000 0.500000 0.500000
O O14 0.237957 0.456606 0.747402
#
# Coordination Sequence:
#
# PCOD9545311 Si02
#       6
#     8   8   8   8   8   8
#     4  11  25  43  70 100 134 190 236 300 357 430
#     4  12  25  45  73 101 142 187 236 293 365 430
#     4  10  25  47  70 101 142 182 240 297 357 428
#     4  11  23  45  68  97 139 182 238 296 355 430
#     4  12  27  46  77 109 146 193 244 300 371 447
#     4  11  24  41  63  95 137 183 235 292 361 434
#
# _framework density 21.751387999999999
#
# number of rings (size 3 to 8) (size 9 to 14) (size 15 to 20)
#    0.000    0.833    3.333    3.000    7.000    2.000 
#    0.000    0.000    0.000    0.000    0.000    0.000 
#    0.000    0.000    0.000    0.000    0.000    0.000 
#
# Total GULP energy -267373.286362 kJ/mol
# GULP energy per Si atom -5570.276799 kJ/mol
# Density = 2.170188 g / cm^3
# Si number density = 21.751388 Si / 1000 Ang^3
#
#
#
# Elastic Constant Matrix: (Units=GPa)
#
#
# Indices 1 2 3 4 5 6 
#
# 1 41.0904 17.8237 10.2215 0.0000 0.0000 1.0499
# 2 17.8237 41.0904 10.2215 0.0000 0.0000 -1.0499
# 3 10.2215 10.2215 117.3045 0.0000 0.0000 0.0000
# 4 0.0000 0.0000 0.0000 -42.3716 0.0000 0.0000
# 5 0.0000 0.0000 0.0000 0.0000 -42.3716 0.0000
# 6 1.0499 -1.0499 0.0000 0.0000 0.0000 19.5572
#
#
#
# Elastic Compliance Matrix: (Units=1/GPa)
#
#
# Indices 1 2 3 4 5 6 
#
# 1 0.030346 -0.012843 -0.001525 0.000000 0.000000 -0.002318
# 2 -0.012843 0.030346 -0.001525 0.000000 0.000000 0.002318
# 3 -0.001525 -0.001525 0.008791 0.000000 0.000000 0.000000
# 4 0.000000 0.000000 0.000000 -0.023601 0.000000 0.000000
# 5 0.000000 0.000000 0.000000 0.000000 -0.023601 0.000000
# 6 -0.002318 0.002318 0.000000 0.000000 0.000000 0.051381
#
#
# Mechanical properties :
#
#
# Convention : Reuss Voigt Hill
#
# Bulk Modulus (GPa) = 26.52787 30.66871 28.59829
# Shear Modulus (GPa) = 42.36777 -2.28927 20.03925
#
# Velocity S-wave (km/s) = 4.41820 -1.02701 3.03856
# Velocity P-wave (km/s) = 6.18464 3.56706 5.04845
#
# Compressibility (1/GPa) = 0.03769620
#
# Stress axis : x y z
#
# Youngs Moduli (GPa) = 32.95316 32.95316 113.75766
#
# Poissons Ratio (x) = 0.42322 0.17350
# Poissons Ratio (y) = 0.42322 0.17350
# Poissons Ratio (z) = 0.05026 0.05026
#
# Static dielectric constant tensor:
#      x y z
#    x 1.784470 0.000000 0.000000 
#    y 0.000000 1.784470 0.000000 
#    z 0.000000 0.000000 1.725190 
# 
# From -- ./inp_files/5192.got.cif
#   From: 2010.05.17/outbox.cif.g08.bks.cpg/sg86_3_cif.got.tgz:5192.got - 2010.06.03 19:03:11.
