data_PCOD9545667
_publ_section_title
;
Structure prediction by ZEFSAII (Michael W. Deem and Ramdas Pophale) SiO2 
 PCOD9545667
Probable space group: I 4/M
;
_chemical_formula_sum "Si O2"
_cell_formula_units_Z 96
_cell_length_a 25.730998
_cell_length_b 25.730998
_cell_length_c 8.788635
_cell_angle_alpha 90.000000
_cell_angle_beta 90.000000
_cell_angle_gamma 90.000000
_cell_volume 5818.816883
_symmetry_space_group_name_H-M "I 4/M"
_symmetry_group_IT_number 87
_symmetry_cell_setting 'tetragonal'
loop_
_space_group_symop_operation_xyz
x,y,z
-y,x,z
-x,-y,z
y,-x,z
-x,-y,-z
y,-x,-z
x,y,-z
-y,x,-z
1/2+x,1/2+y,1/2+z
1/2-y,1/2+x,1/2+z
1/2-x,1/2-y,1/2+z
1/2+y,1/2-x,1/2+z
1/2-x,1/2-y,1/2-z
1/2+y,1/2-x,1/2-z
1/2+x,1/2+y,1/2-z
1/2-y,1/2+x,1/2-z
loop_
_atom_site_type_symbol
_atom_site_label
_atom_site_fract_x
_atom_site_fract_y
_atom_site_fract_z
Si Si1 0.558010 0.745996 0.325930
Si Si2 0.241727 0.056348 0.183072
Si Si3 0.372162 0.449342 0.176748
Si Si4 0.121279 0.947377 0.828958
Si Si5 0.754151 0.665556 0.181778
Si Si6 0.169995 0.248175 0.681694
O O1 0.567253 0.763686 0.500000
O O2 0.500515 0.765620 0.275347
O O3 0.551450 0.683550 0.329668
O O4 0.609926 0.754205 0.228855
O O5 0.185578 0.058365 0.262121
O O6 0.265854 0.110709 0.237451
O O7 0.236519 0.056077 0.000000
O O8 0.396750 0.496428 0.272385
O O9 0.405186 0.398670 0.211401
O O10 0.371364 0.462512 0.000000
O O11 0.103692 0.935249 0.000000
O O12 0.796549 0.707831 0.233433
O O13 0.698369 0.693004 0.222290
O O14 0.754770 0.658216 0.000000
O O15 0.175509 0.253907 0.500000
#
# Coordination Sequence:
#
# PCOD9545667 Si02
#       6
#    16  16  16  16  16  16
#     4   9  19  33  49  68  92 123 157 194 235 283
#     4  10  20  34  50  69  95 127 160 194 238 289
#     4  11  21  32  46  65  86 111 149 195 239 282
#     4  10  20  34  48  62  83 115 152 191 238 285
#     4  10  20  33  50  73 100 130 165 205 247 290
#     4  10  20  32  49  73 100 130 163 201 246 295
#
# _framework density 16.498199
#
# number of rings (size 3 to 8) (size 9 to 14) (size 15 to 20)
#    0.000    2.000    0.000    5.500    0.000    9.000 
#    0.000    1.667    0.000    0.000    0.000    0.000 
#    0.000    0.667    0.000    7.000    0.000    3.000 
#
# Total GULP energy -267492.396579 kJ/mol
# GULP energy per Si atom -5572.758262 kJ/mol
# Density = 1.646065 g / cm^3
# Si number density = 16.498199 Si / 1000 Ang^3
#
#
#
# Elastic Constant Matrix: (Units=GPa)
#
#
# Indices 1 2 3 4 5 6 
#
# 1 63.0471 7.7128 11.2128 0.0000 0.0000 -0.9768
# 2 7.7128 63.0471 11.2128 0.0000 0.0000 0.9768
# 3 11.2128 11.2128 42.0586 0.0000 0.0000 0.0000
# 4 0.0000 0.0000 0.0000 21.1324 0.0000 0.0000
# 5 0.0000 0.0000 0.0000 0.0000 21.1324 0.0000
# 6 -0.9768 0.9768 0.0000 0.0000 0.0000 12.4408
#
#
#
# Elastic Compliance Matrix: (Units=1/GPa)
#
#
# Indices 1 2 3 4 5 6 
#
# 1 0.016779 -0.001343 -0.004115 0.000000 0.000000 0.001423
# 2 -0.001343 0.016779 -0.004115 0.000000 0.000000 -0.001423
# 3 -0.004115 -0.004115 0.025971 0.000000 0.000000 0.000000
# 4 0.000000 0.000000 0.000000 0.047321 0.000000 0.000000
# 5 0.000000 0.000000 0.000000 0.000000 0.047321 0.000000
# 6 0.001423 -0.001423 0.000000 0.000000 0.000000 0.080604
#
#
# Mechanical properties :
#
#
# Convention : Reuss Voigt Hill
#
# Bulk Modulus (GPa) = 24.76332 25.38106 25.07219
# Shear Modulus (GPa) = 18.69977 20.14207 19.42092
#
# Velocity S-wave (km/s) = 3.37032 3.49788 3.43469
# Velocity P-wave (km/s) = 5.49433 5.63303 5.56412
#
# Compressibility (1/GPa) = 0.04038230
#
# Stress axis : x y z
#
# Youngs Moduli (GPa) = 59.59699 59.59699 38.50497
#
# Poissons Ratio (x) = 0.08003 0.15846
# Poissons Ratio (y) = 0.08003 0.15846
# Poissons Ratio (z) = 0.24526 0.24526
#
# Static dielectric constant tensor:
#      x y z
#    x 1.576140 0.000000 0.000000 
#    y 0.000000 1.576140 0.000000 
#    z 0.000000 0.000000 1.551540 
# 
# From -- ./inp_files/1395.got.cif
#   From: 2010.05.17/outbox.cif.g08.bks.cpg/sg87_1_cif.got.tgz:1395.got - 2010.06.03 19:07:00.
