data_PCOD9545014
_publ_section_title
;
Structure prediction by ZEFSAII (Michael W. Deem and Ramdas Pophale) SiO2 
 PCOD9545014
Probable space group: P 42/N
;
_chemical_formula_sum "Si O2"
_cell_formula_units_Z 40
_cell_length_a 8.627385
_cell_length_b 8.627385
_cell_length_c 27.380354
_cell_angle_alpha 90.000000
_cell_angle_beta 90.000000
_cell_angle_gamma 90.000000
_cell_volume 2037.968265
_symmetry_space_group_name_H-M "P 42/N"
_symmetry_group_IT_number 86
_space_group.IT_coordinate_system_code '2'
_symmetry_cell_setting 'tetragonal'
loop_
_space_group_symop_operation_xyz
x,y,z
-y,1/2+x,1/2+z
1/2-x,1/2-y,z
1/2+y,-x,1/2+z
-x,-y,-z
y,1/2-x,1/2-z
1/2+x,1/2+y,-z
1/2-y,x,1/2-z
loop_
_atom_site_type_symbol
_atom_site_label
_atom_site_fract_x
_atom_site_fract_y
_atom_site_fract_z
Si Si1 0.500238 0.465645 0.557114
Si Si2 0.565211 0.712510 0.635665
Si Si3 0.551207 0.590411 0.737545
Si Si4 0.750000 0.250000 0.109433
Si Si5 0.556140 0.505875 0.165043
Si Si6 0.250000 0.250000 0.894298
O O1 0.500000 0.500000 0.500000
O O2 0.516162 0.626733 0.586679
O O3 0.642316 0.358289 0.575772
O O4 0.349822 0.367895 0.573000
O O5 0.750000 0.750000 0.637410
O O6 0.521310 0.595846 0.680087
O O7 0.489456 0.878457 0.646538
O O8 0.542490 0.770094 0.754587
O O9 0.448901 0.497476 0.776122
O O10 0.638540 0.352377 0.143664
O O11 0.650335 0.641917 0.140774
#
# Coordination Sequence:
#
# PCOD9545014 Si02
#       6
#     8   8   8   4   8   4
#     4  11  25  42  65  90 130 173 225 274 335 389
#     4  11  19  37  68  99 119 161 234 271 304 383
#     4   9  14  30  60  96 115 147 207 264 299 368
#     4  10  20  40  62  92 128 182 202 270 336 392
#     4  10  20  38  66  92 135 163 211 267 329 400
#     4  10  26  44  57  98 136 168 213 270 356 402
#
# _framework density 19.627393000000001
#
# number of rings (size 3 to 8) (size 9 to 14) (size 15 to 20)
#    0.000    1.800    6.000    0.000    1.400    2.400 
#    0.000   13.000    0.000    0.000    0.000    0.000 
#    0.000    0.000    0.000    0.000    0.000    0.000 
#
# Total GULP energy -223390.244894 kJ/mol
# GULP energy per Si atom -5584.756122 kJ/mol
# Density = 1.958272 g / cm^3
# Si number density = 19.627393 Si / 1000 Ang^3
#
#
#
# Elastic Constant Matrix: (Units=GPa)
#
#
# Indices 1 2 3 4 5 6 
#
# 1 79.6464 36.2455 56.9165 0.0000 0.0000 3.9028
# 2 36.2455 79.6464 56.9165 0.0000 0.0000 -3.9028
# 3 56.9165 56.9165 186.0776 0.0000 0.0000 0.0000
# 4 0.0000 0.0000 0.0000 15.0008 0.0000 0.0000
# 5 0.0000 0.0000 0.0000 0.0000 15.0008 0.0000
# 6 3.9028 -3.9028 0.0000 0.0000 0.0000 7.5878
#
#
#
# Elastic Compliance Matrix: (Units=1/GPa)
#
#
# Indices 1 2 3 4 5 6 
#
# 1 0.018862 -0.006528 -0.003773 0.000000 0.000000 -0.013059
# 2 -0.006528 0.018862 -0.003773 0.000000 0.000000 0.013059
# 3 -0.003773 -0.003773 0.007682 0.000000 0.000000 0.000000
# 4 0.000000 0.000000 0.000000 0.066663 0.000000 0.000000
# 5 0.000000 0.000000 0.000000 0.000000 0.066663 0.000000
# 6 -0.013059 0.013059 0.000000 0.000000 0.000000 0.145225
#
#
# Mechanical properties :
#
#
# Convention : Reuss Voigt Hill
#
# Bulk Modulus (GPa) = 57.93781 71.72527 64.83154
# Shear Modulus (GPa) = 13.97204 20.53732 17.25468
#
# Velocity S-wave (km/s) = 2.67097 3.23826 2.96820
# Velocity P-wave (km/s) = 6.25260 7.11369 6.69700
#
# Compressibility (1/GPa) = 0.01725989
#
# Stress axis : x y z
#
# Youngs Moduli (GPa) = 53.01627 53.01627 130.17218
#
# Poissons Ratio (x) = 0.34607 0.49112
# Poissons Ratio (y) = 0.34607 0.49112
# Poissons Ratio (z) = 0.20002 0.20002
#
# Static dielectric constant tensor:
#      x y z
#    x 1.699420 0.000000 0.000000 
#    y 0.000000 1.699420 0.000000 
#    z 0.000000 0.000000 1.669340 
# 
# From -- ./inp_files/4534.got.cif
#   From: 2010.05.17/outbox.cif.g08.bks.cpg/sg86_3_cif.got.tgz:4534.got - 2010.06.03 19:03:11.
