data_PCOD9545885
_publ_section_title
;
Structure prediction by ZEFSAII (Michael W. Deem and Ramdas Pophale) SiO2 
 PCOD9545885
Probable space group: I 4/M
;
_chemical_formula_sum "Si O2"
_cell_formula_units_Z 108
_cell_length_a 14.266053
_cell_length_b 14.266053
_cell_length_c 25.446293
_cell_angle_alpha 90.000000
_cell_angle_beta 90.000000
_cell_angle_gamma 90.000000
_cell_volume 5178.836376
_symmetry_space_group_name_H-M "I 4/M"
_symmetry_group_IT_number 87
_symmetry_cell_setting 'tetragonal'
loop_
_space_group_symop_operation_xyz
x,y,z
-y,x,z
-x,-y,z
y,-x,z
-x,-y,-z
y,-x,-z
x,y,-z
-y,x,-z
1/2+x,1/2+y,1/2+z
1/2-y,1/2+x,1/2+z
1/2-x,1/2-y,1/2+z
1/2+y,1/2-x,1/2+z
1/2-x,1/2-y,1/2-z
1/2+y,1/2-x,1/2-z
1/2+x,1/2+y,1/2-z
1/2-y,1/2+x,1/2-z
loop_
_atom_site_type_symbol
_atom_site_label
_atom_site_fract_x
_atom_site_fract_y
_atom_site_fract_z
Si Si1 0.500000 0.500000 0.571435
Si Si2 0.804606 0.686165 0.442540
Si Si3 0.000000 0.500000 0.381420
Si Si4 0.456464 0.651588 0.142577
Si Si5 0.035855 0.846174 0.763024
Si Si6 0.468555 0.799595 0.645011
Si Si7 0.699366 0.406516 0.559332
Si Si8 0.013976 0.699006 0.440195
O O1 0.587394 0.422779 0.568916
O O2 0.807037 0.635840 0.500000
O O3 0.803150 0.622496 0.391381
O O4 0.701958 0.730244 0.441373
O O5 0.905295 0.734969 0.441518
O O6 0.092734 0.494417 0.346267
O O7 0.990132 0.407320 0.418079
O O8 0.389528 0.561730 0.137006
O O9 0.451613 0.685745 0.202933
O O10 0.436436 0.731943 0.100622
O O11 0.047110 0.763937 0.804501
O O12 0.107637 0.932809 0.771011
O O13 0.544452 0.753027 0.606420
O O14 0.716764 0.442476 0.500000
O O15 0.049646 0.700910 0.500000
#
# Coordination Sequence:
#
# PCOD9545885 Si02
#       8
#     4  16   8  16  16  16  16  16
#     4  12  21  28  44  84 128 160 188 244 313 358
#     4   9  19  33  49  79 118 152 192 245 290 336
#     4  10  25  42  55  80 120 162 206 258 286 316
#     4   9  20  41  66  94 124 145 177 247 319 360
#     4   9  19  36  62  94 123 150 183 233 299 367
#     4  11  20  34  54  77 112 162 206 232 280 347
#     4  11  20  29  47  79 120 156 193 245 304 356
#     4  10  21  40  64  84 112 157 205 245 293 356
#
# _framework density 20.854104
#
# number of rings (size 3 to 8) (size 9 to 14) (size 15 to 20)
#    0.000    2.074    1.481    3.111    0.000    3.556 
#    0.000    5.926    0.000    9.778    0.000    0.000 
#    0.000    0.000    0.000    0.000    0.000    0.000 
#
# Total GULP energy -300699.842885 kJ/mol
# GULP energy per Si atom -5568.515609 kJ/mol
# Density = 2.080664 g / cm^3
# Si number density = 20.854104 Si / 1000 Ang^3
#
#
#
# Elastic Constant Matrix: (Units=GPa)
#
#
# Indices 1 2 3 4 5 6 
#
# 1 81.1148 -18.0957 51.2473 0.0000 0.0000 -6.4317
# 2 -18.0957 81.1148 51.2473 0.0000 0.0000 6.4317
# 3 51.2473 51.2473 125.5071 0.0000 0.0000 0.0000
# 4 0.0000 0.0000 0.0000 97.7294 0.0000 0.0000
# 5 0.0000 0.0000 0.0000 0.0000 97.7294 0.0000
# 6 -6.4317 6.4317 0.0000 0.0000 0.0000 10.4579
#
#
#
# Elastic Compliance Matrix: (Units=1/GPa)
#
#
# Indices 1 2 3 4 5 6 
#
# 1 0.029097 0.018144 -0.019289 0.000000 0.000000 0.006736
# 2 0.018144 0.029097 -0.019289 0.000000 0.000000 -0.006736
# 3 -0.019289 -0.019289 0.023720 0.000000 0.000000 0.000000
# 4 0.000000 0.000000 0.000000 0.010232 0.000000 0.000000
# 5 0.000000 0.000000 0.000000 0.000000 0.010232 0.000000
# 6 0.006736 -0.006736 0.000000 0.000000 0.000000 0.103907
#
#
# Mechanical properties :
#
#
# Convention : Reuss Voigt Hill
#
# Bulk Modulus (GPa) = 24.36421 50.72605 37.54513
# Shear Modulus (GPa) = 19.16910 54.73921 36.95415
#
# Velocity S-wave (km/s) = 3.03512 5.12890 4.21412
# Velocity P-wave (km/s) = 4.89808 7.71046 6.45919
#
# Compressibility (1/GPa) = 0.04104380
#
# Stress axis : x y z
#
# Youngs Moduli (GPa) = 34.36817 34.36817 42.15824
#
# Poissons Ratio (x) = -0.62357 0.81320
# Poissons Ratio (y) = -0.62357 0.81320
# Poissons Ratio (z) = 0.66294 0.66294
#
# Static dielectric constant tensor:
#      x y z
#    x 1.792040 0.000000 0.000000 
#    y 0.000000 1.792040 0.000000 
#    z 0.000000 0.000000 1.717730 
# 
# From -- ./inp_files/5956.got.cif
#   From: 2010.05.17/outbox.cif.g08.bks.cpg/sg87_3_cif.got.tgz:5956.got - 2010.06.03 19:07:00.
