data_PCOD9545875
_publ_section_title
;
Structure prediction by ZEFSAII (Michael W. Deem and Ramdas Pophale) SiO2 
 PCOD9545875
Probable space group: I 4/M
;
_chemical_formula_sum "Si O2"
_cell_formula_units_Z 56
_cell_length_a 16.132880
_cell_length_b 16.132880
_cell_length_c 11.010394
_cell_angle_alpha 90.000000
_cell_angle_beta 90.000000
_cell_angle_gamma 90.000000
_cell_volume 2865.673233
_symmetry_space_group_name_H-M "I 4/M"
_symmetry_group_IT_number 87
_symmetry_cell_setting 'tetragonal'
loop_
_space_group_symop_operation_xyz
x,y,z
-y,x,z
-x,-y,z
y,-x,z
-x,-y,-z
y,-x,-z
x,y,-z
-y,x,-z
1/2+x,1/2+y,1/2+z
1/2-y,1/2+x,1/2+z
1/2-x,1/2-y,1/2+z
1/2+y,1/2-x,1/2+z
1/2-x,1/2-y,1/2-z
1/2+y,1/2-x,1/2-z
1/2+x,1/2+y,1/2-z
1/2-y,1/2+x,1/2-z
loop_
_atom_site_type_symbol
_atom_site_label
_atom_site_fract_x
_atom_site_fract_y
_atom_site_fract_z
Si Si1 0.820958 0.582321 0.869004
Si Si2 0.785336 0.195930 0.637371
Si Si3 0.773808 0.444672 0.295204
Si Si4 0.639322 0.481093 0.500000
O O1 0.728171 0.620689 0.867376
O O2 0.825361 0.521475 0.756631
O O3 0.882681 0.660249 0.856743
O O4 0.836246 0.542257 0.000000
O O5 0.751536 0.211277 0.500000
O O6 0.750000 0.250000 0.750000
O O7 0.766958 0.103524 0.680933
O O8 0.700689 0.470679 0.385497
O O9 0.590575 0.568693 0.500000
#
# Coordination Sequence:
#
# PCOD9545875 Si02
#       4
#    16  16  16   8
#     4  10  21  39  59  88 123 163 214 259 319 388
#     4   9  19  35  59  86 120 164 212 262 311 376
#     4  11  21  40  60  91 125 167 213 261 326 390
#     4  11  24  42  66  95 130 170 216 279 332 382
#
# _framework density 19.541657000000001
#
# number of rings (size 3 to 8) (size 9 to 14) (size 15 to 20)
#    0.000    1.857    1.429    2.571    2.000    0.571 
#   12.857    1.429    0.000    0.000    0.000   12.000 
#    0.000    0.000    0.000    0.000    0.000    0.000 
#
# Total GULP energy -155872.651098 kJ/mol
# GULP energy per Si atom -5566.880396 kJ/mol
# Density = 1.949718 g / cm^3
# Si number density = 19.541657 Si / 1000 Ang^3
#
#
#
# Elastic Constant Matrix: (Units=GPa)
#
#
# Indices 1 2 3 4 5 6 
#
# 1 69.1066 22.5976 38.8364 0.0000 0.0000 -8.0971
# 2 22.5976 69.1066 38.8364 0.0000 0.0000 8.0971
# 3 38.8364 38.8364 154.4526 0.0000 0.0000 0.0000
# 4 0.0000 0.0000 0.0000 24.4549 0.0000 0.0000
# 5 0.0000 0.0000 0.0000 0.0000 24.4549 0.0000
# 6 -8.0971 8.0971 0.0000 0.0000 0.0000 23.8622
#
#
#
# Elastic Compliance Matrix: (Units=1/GPa)
#
#
# Indices 1 2 3 4 5 6 
#
# 1 0.019119 -0.005263 -0.003484 0.000000 0.000000 0.008273
# 2 -0.005263 0.019119 -0.003484 0.000000 0.000000 -0.008273
# 3 -0.003484 -0.003484 0.008227 0.000000 0.000000 0.000000
# 4 0.000000 0.000000 0.000000 0.040892 0.000000 0.000000
# 5 0.000000 0.000000 0.000000 0.000000 0.040892 0.000000
# 6 0.008273 -0.008273 0.000000 0.000000 0.000000 0.047522
#
#
# Mechanical properties :
#
#
# Convention : Reuss Voigt Hill
#
# Bulk Modulus (GPa) = 45.45071 54.80073 50.12572
# Shear Modulus (GPa) = 24.08878 27.38073 25.73476
#
# Velocity S-wave (km/s) = 3.51478 3.74725 3.63287
# Velocity P-wave (km/s) = 6.30717 6.84298 6.58053
#
# Compressibility (1/GPa) = 0.02200186
#
# Stress axis : x y z
#
# Youngs Moduli (GPa) = 52.30473 52.30473 121.55836
#
# Poissons Ratio (x) = 0.27529 0.42350
# Poissons Ratio (y) = 0.27529 0.42350
# Poissons Ratio (z) = 0.18222 0.18222
#
# Static dielectric constant tensor:
#      x y z
#    x 1.717350 0.000000 0.000000 
#    y 0.000000 1.717350 0.000000 
#    z 0.000000 0.000000 1.737140 
# 
# From -- ./inp_files/746.got.cif
#   From: 2010.05.17/outbox.cif.g08.bks.cpg/sg87_1_cif.got.tgz:746.got - 2010.06.03 19:07:00.
