data_PCOD9545938
_publ_section_title
;
Structure prediction by ZEFSAII (Michael W. Deem and Ramdas Pophale) SiO2 
 PCOD9545938
Probable space group: I 4/M
;
_chemical_formula_sum "Si O2"
_cell_formula_units_Z 112
_cell_length_a 14.855574
_cell_length_b 14.855574
_cell_length_c 25.321911
_cell_angle_alpha 90.000000
_cell_angle_beta 90.000000
_cell_angle_gamma 90.000000
_cell_volume 5588.243892
_symmetry_space_group_name_H-M "I 4/M"
_symmetry_group_IT_number 87
_symmetry_cell_setting 'tetragonal'
loop_
_space_group_symop_operation_xyz
x,y,z
-y,x,z
-x,-y,z
y,-x,z
-x,-y,-z
y,-x,-z
x,y,-z
-y,x,-z
1/2+x,1/2+y,1/2+z
1/2-y,1/2+x,1/2+z
1/2-x,1/2-y,1/2+z
1/2+y,1/2-x,1/2+z
1/2-x,1/2-y,1/2-z
1/2+y,1/2-x,1/2-z
1/2+x,1/2+y,1/2-z
1/2-y,1/2+x,1/2-z
loop_
_atom_site_type_symbol
_atom_site_label
_atom_site_fract_x
_atom_site_fract_y
_atom_site_fract_z
Si Si1 0.810934 0.187211 0.096691
Si Si2 0.767074 0.612833 0.940028
Si Si3 0.936320 0.585563 0.125773
Si Si4 0.622034 0.585500 0.139092
Si Si5 0.251029 0.802142 0.695722
Si Si6 0.250277 0.504321 0.438097
Si Si7 0.868434 0.430744 0.741793
O O1 0.719556 0.213333 0.065514
O O2 0.801321 0.242682 0.151422
O O3 0.903696 0.215878 0.070373
O O4 0.805773 0.078596 0.095541
O O5 0.840417 0.564815 0.901758
O O6 0.666974 0.598517 0.918199
O O7 0.778550 0.583687 0.000000
O O8 0.917460 0.644021 0.178794
O O9 0.000000 0.500000 0.138474
O O10 0.987246 0.648939 0.083976
O O11 0.520827 0.620020 0.147030
O O12 0.680915 0.649809 0.176186
O O13 0.250000 0.750000 0.750000
O O14 0.301008 0.893451 0.713979
O O15 0.254702 0.527525 0.500000
O O16 0.881794 0.536727 0.748276
#
# Coordination Sequence:
#
# PCOD9545938 Si02
#       7
#    16  16  16  16  16  16  16
#     4  10  22  40  61  91 123 168 215 261 327 398
#     4  10  22  40  64  92 129 170 217 274 334 391
#     4  11  22  38  61  95 131 166 214 269 333 402
#     4  10  24  44  65  91 125 170 220 265 316 390
#     4  11  24  40  66  90 125 168 205 268 325 379
#     4  11  22  39  62  87 127 167 211 269 322 391
#     4  11  22  37  62  93 123 164 206 257 316 388
#
# _framework density 20.042075000000001
#
# number of rings (size 3 to 8) (size 9 to 14) (size 15 to 20)
#    0.000    1.429    1.429    6.000    4.000    3.143 
#    0.000    1.429    0.000    0.000    0.000    0.000 
#    0.000    0.000    0.000    0.000    0.000    0.000 
#
# Total GULP energy -312405.656894 kJ/mol
# GULP energy per Si atom -5578.672445 kJ/mol
# Density = 1.999646 g / cm^3
# Si number density = 20.042075 Si / 1000 Ang^3
#
#
#
# Elastic Constant Matrix: (Units=GPa)
#
#
# Indices 1 2 3 4 5 6 
#
# 1 63.6461 38.6196 25.3625 0.0000 0.0000 9.7686
# 2 38.6196 63.6461 25.3625 0.0000 0.0000 -9.7686
# 3 25.3625 25.3625 132.6861 0.0000 0.0000 0.0000
# 4 0.0000 0.0000 0.0000 25.7792 0.0000 0.0000
# 5 0.0000 0.0000 0.0000 0.0000 25.7792 0.0000
# 6 9.7686 -9.7686 0.0000 0.0000 0.0000 27.5848
#
#
#
# Elastic Compliance Matrix: (Units=1/GPa)
#
#
# Indices 1 2 3 4 5 6 
#
# 1 0.033014 -0.022211 -0.002065 0.000000 0.000000 -0.019557
# 2 -0.022211 0.033014 -0.002065 0.000000 0.000000 0.019557
# 3 -0.002065 -0.002065 0.008326 0.000000 0.000000 0.000000
# 4 0.000000 0.000000 0.000000 0.038791 0.000000 0.000000
# 5 0.000000 0.000000 0.000000 0.000000 0.038791 0.000000
# 6 -0.019557 0.019557 0.000000 0.000000 0.000000 0.050103
#
#
# Mechanical properties :
#
#
# Convention : Reuss Voigt Hill
#
# Bulk Modulus (GPa) = 46.14307 48.74083 47.44195
# Shear Modulus (GPa) = 19.08808 27.20423 23.14615
#
# Velocity S-wave (km/s) = 3.08945 3.68823 3.40204
# Velocity P-wave (km/s) = 5.98325 6.51992 6.25735
#
# Compressibility (1/GPa) = 0.02167173
#
# Stress axis : x y z
#
# Youngs Moduli (GPa) = 30.29051 30.29051 120.10598
#
# Poissons Ratio (x) = 0.67278 0.24801
# Poissons Ratio (y) = 0.67278 0.24801
# Poissons Ratio (z) = 0.06255 0.06255
#
# Static dielectric constant tensor:
#      x y z
#    x 1.783690 0.000000 0.000000 
#    y 0.000000 1.783690 0.000000 
#    z 0.000000 0.000000 1.726910 
# 
# From -- ./inp_files/5921.got.cif
#   From: 2010.05.17/outbox.cif.g08.bks.cpg/sg87_3_cif.got.tgz:5921.got - 2010.06.03 19:07:00.
