data_PCOD9545412
_publ_section_title
;
Structure prediction by ZEFSAII (Michael W. Deem and Ramdas Pophale) SiO2 
 PCOD9545412
Probable space group: P 42/N
;
_chemical_formula_sum "Si O2"
_cell_formula_units_Z 20
_cell_length_a 7.778446
_cell_length_b 7.778446
_cell_length_c 13.999950
_cell_angle_alpha 90.000000
_cell_angle_beta 90.000000
_cell_angle_gamma 90.000000
_cell_volume 847.056085
_symmetry_space_group_name_H-M "P 42/N"
_symmetry_group_IT_number 86
_space_group.IT_coordinate_system_code '2'
_symmetry_cell_setting 'tetragonal'
loop_
_space_group_symop_operation_xyz
x,y,z
-y,1/2+x,1/2+z
1/2-x,1/2-y,z
1/2+y,-x,1/2+z
-x,-y,-z
y,1/2-x,1/2-z
1/2+x,1/2+y,-z
1/2-y,x,1/2-z
loop_
_atom_site_type_symbol
_atom_site_label
_atom_site_fract_x
_atom_site_fract_y
_atom_site_fract_z
Si Si1 0.211486 0.063901 0.576068
Si Si2 0.250000 0.250000 0.750000
Si Si3 0.250000 0.250000 0.250000
Si Si4 0.568046 0.196121 0.116113
O O1 0.250000 0.250000 0.529896
O O2 0.298408 0.093381 0.679406
O O3 0.990286 0.951799 0.399035
O O4 0.269419 0.938693 0.492948
O O5 0.416326 0.260477 0.182717
O O6 0.750000 0.250000 0.158011
#
# Coordination Sequence:
#
# PCOD9545412 Si02
#       4
#     8   2   2   8
#     4   9  21  45  63 102 138 179 244 289 358 431
#     4   8  18  40  68  94 132 180 238 288 332 450
#     4  12  26  48  68 118 144 184 266 288 348 462
#     4  11  25  45  70 101 150 191 227 314 362 417
#
# _framework density 23.611187000000001
#
# number of rings (size 3 to 8) (size 9 to 14) (size 15 to 20)
#    1.200    0.800    2.000    0.000    5.600    1.600 
#   14.400    0.000    0.000    0.000    0.000    0.000 
#    0.000    0.000    0.000    0.000    0.000    0.000 
#
# Total GULP energy -111427.668315 kJ/mol
# GULP energy per Si atom -5571.383416 kJ/mol
# Density = 2.355745 g / cm^3
# Si number density = 23.611187 Si / 1000 Ang^3
#
#
#
# Elastic Constant Matrix: (Units=GPa)
#
#
# Indices 1 2 3 4 5 6 
#
# 1 92.1332 -6.5141 46.6968 0.0000 0.0000 5.5603
# 2 -6.5141 92.1332 46.6968 0.0000 0.0000 -5.5603
# 3 46.6968 46.6968 165.3555 0.0000 0.0000 0.0000
# 4 0.0000 0.0000 0.0000 13.5200 0.0000 0.0000
# 5 0.0000 0.0000 0.0000 0.0000 13.5200 0.0000
# 6 5.5603 -5.5603 0.0000 0.0000 0.0000 24.4307
#
#
#
# Elastic Compliance Matrix: (Units=1/GPa)
#
#
# Indices 1 2 3 4 5 6 
#
# 1 0.013642 0.003238 -0.004767 0.000000 0.000000 -0.002368
# 2 0.003238 0.013642 -0.004767 0.000000 0.000000 0.002368
# 3 -0.004767 -0.004767 0.008740 0.000000 0.000000 0.000000
# 4 0.000000 0.000000 0.000000 0.073964 0.000000 0.000000
# 5 0.000000 0.000000 0.000000 0.000000 0.073964 0.000000
# 6 -0.002368 0.002368 0.000000 0.000000 0.000000 0.042010
#
#
# Mechanical properties :
#
#
# Convention : Reuss Voigt Hill
#
# Bulk Modulus (GPa) = 42.67789 58.15343 50.41566
# Shear Modulus (GPa) = 20.29516 27.81030 24.05273
#
# Velocity S-wave (km/s) = 2.93500 3.43570 3.19517
# Velocity P-wave (km/s) = 5.44060 6.35781 5.91701
#
# Compressibility (1/GPa) = 0.02343133
#
# Stress axis : x y z
#
# Youngs Moduli (GPa) = 73.30503 73.30503 114.41844
#
# Poissons Ratio (x) = -0.23733 0.54540
# Poissons Ratio (y) = -0.23733 0.54540
# Poissons Ratio (z) = 0.34943 0.34943
#
# Static dielectric constant tensor:
#      x y z
#    x 1.967820 0.000000 0.000000 
#    y 0.000000 1.967820 0.000000 
#    z 0.000000 0.000000 1.937320 
# 
# From -- ./inp_files/1686.got.cif
#   From: 2010.05.17/outbox.cif.g08.bks.cpg/sg86_1_cif.got.tgz:1686.got - 2010.06.03 19:03:11.
