data_PCOD9545226
_publ_section_title
;
Structure prediction by ZEFSAII (Michael W. Deem and Ramdas Pophale) SiO2 
 PCOD9545226
Probable space group: P 42/N
;
_chemical_formula_sum "Si O2"
_cell_formula_units_Z 56
_cell_length_a 11.956104
_cell_length_b 11.956104
_cell_length_c 19.940952
_cell_angle_alpha 90.000000
_cell_angle_beta 90.000000
_cell_angle_gamma 90.000000
_cell_volume 2850.527639
_symmetry_space_group_name_H-M "P 42/N"
_symmetry_group_IT_number 86
_space_group.IT_coordinate_system_code '2'
_symmetry_cell_setting 'tetragonal'
loop_
_space_group_symop_operation_xyz
x,y,z
-y,1/2+x,1/2+z
1/2-x,1/2-y,z
1/2+y,-x,1/2+z
-x,-y,-z
y,1/2-x,1/2-z
1/2+x,1/2+y,-z
1/2-y,x,1/2-z
loop_
_atom_site_type_symbol
_atom_site_label
_atom_site_fract_x
_atom_site_fract_y
_atom_site_fract_z
Si Si1 0.202990 0.558084 0.365699
Si Si2 0.523750 0.835097 0.418131
Si Si3 0.887385 0.851843 0.223112
Si Si4 0.790194 0.621478 0.518286
Si Si5 0.421828 0.066992 0.948620
Si Si6 0.051806 0.558721 0.821838
Si Si7 0.168333 0.400780 0.246023
O O1 0.214748 0.452862 0.415599
O O2 0.327714 0.607791 0.351593
O O3 0.167373 0.507782 0.293537
O O4 0.101864 0.629047 0.397896
O O5 0.597481 0.858106 0.350173
O O6 0.591443 0.890674 0.479946
O O7 0.526626 0.706724 0.442727
O O8 0.887227 0.717473 0.229371
O O9 0.003925 0.894850 0.255367
O O10 0.750000 0.750000 0.530498
O O11 0.695433 0.575957 0.468217
O O12 0.459547 0.039452 0.874664
O O13 0.500000 0.000000 0.000000
O O14 0.924955 0.592472 0.809241
O O15 0.288895 0.372789 0.215651
#
# Coordination Sequence:
#
# PCOD9545226 Si02
#       7
#     8   8   8   8   8   8   8
#     4  11  22  38  62  92 126 164 203 260 324 386
#     4  11  23  40  61  92 126 165 213 264 323 383
#     4  11  22  39  64  91 121 165 215 268 316 376
#     4  10  23  39  63  88 117 164 218 260 305 376
#     4  11  22  41  61  89 120 165 215 265 316 384
#     4  11  21  38  60  92 123 159 207 258 323 382
#     4   9  20  34  58  87 122 161 203 247 305 377
#
# _framework density 19.645485000000001
#
# number of rings (size 3 to 8) (size 9 to 14) (size 15 to 20)
#    0.000    1.429    4.286    1.286    8.000    0.571 
#    0.000    0.000    0.000    0.000    0.000    0.000 
#    0.000    0.000    0.000    0.000    0.000    0.000 
#
# Total GULP energy -311810.485113 kJ/mol
# GULP energy per Si atom -5568.044377 kJ/mol
# Density = 1.960077 g / cm^3
# Si number density = 19.645485 Si / 1000 Ang^3
#
#
#
# Elastic Constant Matrix: (Units=GPa)
#
#
# Indices 1 2 3 4 5 6 
#
# 1 66.3862 20.7064 19.9203 0.0000 0.0000 -2.2228
# 2 20.7064 66.3862 19.9203 0.0000 0.0000 2.2228
# 3 19.9203 19.9203 56.4623 0.0000 0.0000 0.0000
# 4 0.0000 0.0000 0.0000 12.8454 0.0000 0.0000
# 5 0.0000 0.0000 0.0000 0.0000 12.8454 0.0000
# 6 -2.2228 2.2228 0.0000 0.0000 0.0000 24.7422
#
#
#
# Elastic Compliance Matrix: (Units=1/GPa)
#
#
# Indices 1 2 3 4 5 6 
#
# 1 0.017888 -0.004196 -0.004831 0.000000 0.000000 0.001984
# 2 -0.004196 0.017888 -0.004831 0.000000 0.000000 -0.001984
# 3 -0.004831 -0.004831 0.021119 0.000000 0.000000 0.000000
# 4 0.000000 0.000000 0.000000 0.077849 0.000000 0.000000
# 5 0.000000 0.000000 0.000000 0.000000 0.077849 0.000000
# 6 0.001984 -0.001984 0.000000 0.000000 0.000000 0.040773
#
#
# Mechanical properties :
#
#
# Convention : Reuss Voigt Hill
#
# Bulk Modulus (GPa) = 34.26917 34.48099 34.37508
# Shear Modulus (GPa) = 17.19346 18.66580 17.92963
#
# Velocity S-wave (km/s) = 2.96156 3.08576 3.02430
# Velocity P-wave (km/s) = 5.40149 5.50324 5.45260
#
# Compressibility (1/GPa) = 0.02918075
#
# Stress axis : x y z
#
# Youngs Moduli (GPa) = 55.90285 55.90285 47.34972
#
# Poissons Ratio (x) = 0.23459 0.22873
# Poissons Ratio (y) = 0.23459 0.22873
# Poissons Ratio (z) = 0.27004 0.27004
#
# Static dielectric constant tensor:
#      x y z
#    x 1.653490 0.000000 0.000000 
#    y 0.000000 1.653490 0.000000 
#    z 0.000000 0.000000 1.719930 
# 
# From -- ./inp_files/4196.got.cif
#   From: 2010.05.17/outbox.cif.g08.bks.cpg/sg86_3_cif.got.tgz:4196.got - 2010.06.03 19:03:11.
