data_PCOD9545347
_publ_section_title
;
Structure prediction by ZEFSAII (Michael W. Deem and Ramdas Pophale) SiO2 
 PCOD9545347
Probable space group: P 42/N
;
_chemical_formula_sum "Si O2"
_cell_formula_units_Z 60
_cell_length_a 11.508165
_cell_length_b 11.508165
_cell_length_c 20.642723
_cell_angle_alpha 90.000000
_cell_angle_beta 90.000000
_cell_angle_gamma 90.000000
_cell_volume 2733.878093
_symmetry_space_group_name_H-M "P 42/N"
_symmetry_group_IT_number 86
_space_group.IT_coordinate_system_code '2'
_symmetry_cell_setting 'tetragonal'
loop_
_space_group_symop_operation_xyz
x,y,z
-y,1/2+x,1/2+z
1/2-x,1/2-y,z
1/2+y,-x,1/2+z
-x,-y,-z
y,1/2-x,1/2-z
1/2+x,1/2+y,-z
1/2-y,x,1/2-z
loop_
_atom_site_type_symbol
_atom_site_label
_atom_site_fract_x
_atom_site_fract_y
_atom_site_fract_z
Si Si1 0.832436 0.845333 0.510850
Si Si2 0.431305 0.249904 0.769534
Si Si3 0.170437 0.417455 0.247780
Si Si4 0.015888 0.748196 0.094118
Si Si5 0.524476 0.974731 0.878391
Si Si6 0.948965 0.222406 0.569686
Si Si7 0.750000 0.250000 0.466703
Si Si8 0.857089 0.339929 0.685112
O O1 0.750000 0.750000 0.542236
O O2 0.906273 0.914788 0.563085
O O3 0.924422 0.783849 0.462317
O O4 0.754456 0.931565 0.467456
O O5 0.345292 0.138902 0.771706
O O6 0.457599 0.297987 0.841117
O O7 0.548382 0.208130 0.735974
O O8 0.299302 0.383636 0.222963
O O9 0.087015 0.446489 0.188056
O O10 0.175589 0.529240 0.294421
O O11 0.034825 0.611834 0.109835
O O12 0.142343 0.794861 0.075853
O O13 0.389616 0.941746 0.883603
O O14 0.854090 0.209463 0.513258
O O15 0.915482 0.331396 0.614048
O O16 0.750000 0.250000 0.685684
#
# Coordination Sequence:
#
# PCOD9545347 Si02
#       8
#     8   8   8   8   8   8   4   8
#     4  11  24  42  71 101 135 185 233 289 363 423
#     4  11  26  45  71 106 147 188 235 302 369 423
#     4  11  27  46  68 101 142 188 240 295 360 432
#     4  11  23  43  72 100 137 182 237 292 350 433
#     4  11  21  48  69  96 140 190 232 284 363 431
#     4  11  23  45  73  99 137 183 237 290 356 427
#     4  12  22  44  70 106 132 178 240 294 346 418
#     4  12  26  44  74 101 138 192 242 292 357 442
#
# _framework density 21.946845
#
# number of rings (size 3 to 8) (size 9 to 14) (size 15 to 20)
#    0.000    0.800    4.667    3.200    8.400    0.000 
#    0.000    0.667    0.000    0.000    0.000    0.000 
#    0.000    0.000    0.000    0.000    0.000    0.000 
#
# Total GULP energy -335704.791217 kJ/mol
# GULP energy per Si atom -5595.079854 kJ/mol
# Density = 2.189689 g / cm^3
# Si number density = 21.946845 Si / 1000 Ang^3
#
#
#
# Elastic Constant Matrix: (Units=GPa)
#
#
# Indices 1 2 3 4 5 6 
#
# 1 68.1070 36.0939 6.9808 0.0000 0.0000 3.9283
# 2 36.0939 68.1070 6.9808 0.0000 0.0000 -3.9283
# 3 6.9808 6.9808 63.9639 0.0000 0.0000 0.0000
# 4 0.0000 0.0000 0.0000 13.9120 0.0000 0.0000
# 5 0.0000 0.0000 0.0000 0.0000 13.9120 0.0000
# 6 3.9283 -3.9283 0.0000 0.0000 0.0000 30.3850
#
#
#
# Elastic Compliance Matrix: (Units=1/GPa)
#
#
# Indices 1 2 3 4 5 6 
#
# 1 0.021000 -0.011261 -0.001063 0.000000 0.000000 -0.004171
# 2 -0.011261 0.021000 -0.001063 0.000000 0.000000 0.004171
# 3 -0.001063 -0.001063 0.015866 0.000000 0.000000 0.000000
# 4 0.000000 0.000000 0.000000 0.071880 0.000000 0.000000
# 5 0.000000 0.000000 0.000000 0.000000 0.071880 0.000000
# 6 -0.004171 0.004171 0.000000 0.000000 0.000000 0.033989
#
#
# Mechanical properties :
#
#
# Convention : Reuss Voigt Hill
#
# Bulk Modulus (GPa) = 32.16186 33.36542 32.76364
# Shear Modulus (GPa) = 18.33156 21.64996 19.99076
#
# Velocity S-wave (km/s) = 2.89324 3.14422 3.02134
# Velocity P-wave (km/s) = 5.08403 5.33079 5.20887
#
# Compressibility (1/GPa) = 0.03109272
#
# Stress axis : x y z
#
# Youngs Moduli (GPa) = 47.61893 47.61893 63.02857
#
# Poissons Ratio (x) = 0.53623 0.06699
# Poissons Ratio (y) = 0.53623 0.06699
# Poissons Ratio (z) = 0.05061 0.05061
#
# Static dielectric constant tensor:
#      x y z
#    x 1.803620 0.000000 0.000000 
#    y 0.000000 1.803620 0.000000 
#    z 0.000000 0.000000 1.795820 
# 
# From -- ./inp_files/4268.got.cif
#   From: 2010.05.17/outbox.cif.g08.bks.cpg/sg86_3_cif.got.tgz:4268.got - 2010.06.03 19:03:11.
