data_PCOD9545000
_publ_section_title
;
Structure prediction by ZEFSAII (Michael W. Deem and Ramdas Pophale) SiO2 
 PCOD9545000
Probable space group: P 42/N
;
_chemical_formula_sum "Si O2"
_cell_formula_units_Z 24
_cell_length_a 10.144953
_cell_length_b 10.144953
_cell_length_c 9.285404
_cell_angle_alpha 90.000000
_cell_angle_beta 90.000000
_cell_angle_gamma 90.000000
_cell_volume 955.654442
_symmetry_space_group_name_H-M "P 42/N"
_symmetry_group_IT_number 86
_space_group.IT_coordinate_system_code '2'
_symmetry_cell_setting 'tetragonal'
loop_
_space_group_symop_operation_xyz
x,y,z
-y,1/2+x,1/2+z
1/2-x,1/2-y,z
1/2+y,-x,1/2+z
-x,-y,-z
y,1/2-x,1/2-z
1/2+x,1/2+y,-z
1/2-y,x,1/2-z
loop_
_atom_site_type_symbol
_atom_site_label
_atom_site_fract_x
_atom_site_fract_y
_atom_site_fract_z
Si Si1 0.100069 0.720072 0.889681
Si Si2 0.153923 0.372338 0.530506
Si Si3 0.472745 0.992581 0.267969
O O1 0.250000 0.750000 0.922888
O O2 0.063590 0.824710 0.760470
O O3 0.051528 0.574752 0.849301
O O4 0.006361 0.761309 0.021879
O O5 0.250000 0.250000 0.511630
O O6 0.055725 0.398792 0.396018
O O7 0.064995 0.377355 0.670845
#
# Coordination Sequence:
#
# PCOD9545000 Si02
#       3
#     8   8   8
#     4  10  20  37  59  91 121 161 207 255 307 370
#     4   9  19  38  60  88 123 162 209 254 307 373
#     4   9  20  37  60  90 120 159 216 249 305 383
#
# _framework density 25.113679999999999
#
# number of rings (size 3 to 8) (size 9 to 14) (size 15 to 20)
#    2.000    0.667    0.000    2.000    0.000    1.333 
#    6.000    1.667    0.000    0.000    0.000    0.000 
#    0.000    0.000    0.000    0.000    0.000    0.000 
#
# Total GULP energy -133790.681315 kJ/mol
# GULP energy per Si atom -5574.611721 kJ/mol
# Density = 2.505652 g / cm^3
# Si number density = 25.113680 Si / 1000 Ang^3
#
#
#
# Elastic Constant Matrix: (Units=GPa)
#
#
# Indices 1 2 3 4 5 6 
#
# 1 115.8473 48.6134 15.8418 0.0000 0.0000 -14.7662
# 2 48.6134 115.8473 15.8418 0.0000 0.0000 14.7662
# 3 15.8418 15.8418 27.1532 0.0000 0.0000 0.0000
# 4 0.0000 0.0000 0.0000 -10.6571 0.0000 0.0000
# 5 0.0000 0.0000 0.0000 0.0000 -10.6571 0.0000
# 6 -14.7662 14.7662 0.0000 0.0000 0.0000 32.5571
#
#
#
# Elastic Compliance Matrix: (Units=1/GPa)
#
#
# Indices 1 2 3 4 5 6 
#
# 1 0.012712 -0.005862 -0.003997 0.000000 0.000000 0.008424
# 2 -0.005862 0.012712 -0.003997 0.000000 0.000000 -0.008424
# 3 -0.003997 -0.003997 0.041492 0.000000 0.000000 0.000000
# 4 0.000000 0.000000 0.000000 -0.093834 0.000000 0.000000
# 5 0.000000 0.000000 0.000000 0.000000 -0.093834 0.000000
# 6 0.008424 -0.008424 0.000000 0.000000 0.000000 0.038357
#
#
# Mechanical properties :
#
#
# Convention : Reuss Voigt Hill
#
# Bulk Modulus (GPa) = 25.50650 46.60466 36.05558
# Shear Modulus (GPa) = -120.14360 14.15197 -52.99582
#
# Velocity S-wave (km/s) = -6.92414 2.37643 -4.59872
# Velocity P-wave (km/s) = 7.33120 5.11152 3.71611
#
# Compressibility (1/GPa) = 0.03920570
#
# Stress axis : x y z
#
# Youngs Moduli (GPa) = 78.66531 78.66531 24.10123
#
# Poissons Ratio (x) = 0.46111 0.09633
# Poissons Ratio (y) = 0.46111 0.09633
# Poissons Ratio (z) = 0.31440 0.31440
#
# Static dielectric constant tensor:
#      x y z
#    x 2.015960 0.000000 0.000000 
#    y 0.000000 2.015960 0.000000 
#    z 0.000000 0.000000 2.045130 
# 
# From -- ./inp_files/739.got.cif
#   From: 2010.05.17/outbox.cif.g08.bks.cpg/sg86_1_cif.got.tgz:739.got - 2010.06.03 19:03:11.
