data_PCOD9545437
_publ_section_title
;
Structure prediction by ZEFSAII (Michael W. Deem and Ramdas Pophale) SiO2 
 PCOD9545437
Probable space group: P 42/N
;
_chemical_formula_sum "Si O2"
_cell_formula_units_Z 40
_cell_length_a 9.566999
_cell_length_b 9.566999
_cell_length_c 21.925698
_cell_angle_alpha 90.000000
_cell_angle_beta 90.000000
_cell_angle_gamma 90.000000
_cell_volume 2006.803663
_symmetry_space_group_name_H-M "P 42/N"
_symmetry_group_IT_number 86
_space_group.IT_coordinate_system_code '2'
_symmetry_cell_setting 'tetragonal'
loop_
_space_group_symop_operation_xyz
x,y,z
-y,1/2+x,1/2+z
1/2-x,1/2-y,z
1/2+y,-x,1/2+z
-x,-y,-z
y,1/2-x,1/2-z
1/2+x,1/2+y,-z
1/2-y,x,1/2-z
loop_
_atom_site_type_symbol
_atom_site_label
_atom_site_fract_x
_atom_site_fract_y
_atom_site_fract_z
Si Si1 0.382535 0.650455 0.936544
Si Si2 0.481358 0.141758 0.843501
Si Si3 0.750000 0.750000 0.750000
Si Si4 0.250000 0.250000 0.750000
Si Si5 0.750000 0.250000 0.274542
Si Si6 0.673871 0.476850 0.675990
Si Si7 0.827516 0.610846 0.457406
O O1 0.250000 0.750000 0.949619
O O2 0.441847 0.704650 0.872068
O O3 0.351674 0.484812 0.935672
O O4 0.498045 0.667829 0.988948
O O5 0.366111 0.179784 0.792743
O O6 0.632208 0.178002 0.815625
O O7 0.449775 0.238118 0.901399
O O8 0.471828 0.976739 0.856270
O O9 0.696411 0.625508 0.707341
O O10 0.636536 0.179887 0.230002
O O11 0.750000 0.750000 0.479194
#
# Coordination Sequence:
#
# PCOD9545437 Si02
#       7
#     8   8   2   2   4   8   8
#     4  11  27  48  72 100 139 180 233 292 346 412
#     4  12  26  43  71 100 140 179 230 278 346 412
#     4  12  28  44  66 104 144 184 224 282 352 416
#     4  12  24  40  66 104 132 176 216 282 332 416
#     4  12  26  42  66 104 138 180 220 282 338 418
#     4  12  26  45  69 102 140 183 226 284 348 413
#     4  11  27  48  72 102 133 184 236 285 347 415
#
# _framework density 19.932193999999999
#
# number of rings (size 3 to 8) (size 9 to 14) (size 15 to 20)
#    0.000    0.400    6.000    1.200    8.400    3.200 
#    0.000    0.000    0.000    0.000    0.000    0.000 
#    0.000    0.000    0.000    0.000    0.000    0.000 
#
# Total GULP energy -223874.314936 kJ/mol
# GULP energy per Si atom -5596.857873 kJ/mol
# Density = 1.988683 g / cm^3
# Si number density = 19.932194 Si / 1000 Ang^3
#
#
#
# Elastic Constant Matrix: (Units=GPa)
#
#
# Indices 1 2 3 4 5 6 
#
# 1 127.8905 33.8519 10.6899 0.0000 0.0000 -4.4370
# 2 33.8519 127.8905 10.6899 0.0000 0.0000 4.4370
# 3 10.6899 10.6899 27.6250 0.0000 0.0000 0.0000
# 4 0.0000 0.0000 0.0000 -14.9343 0.0000 0.0000
# 5 0.0000 0.0000 0.0000 0.0000 -14.9343 0.0000
# 6 -4.4370 4.4370 0.0000 0.0000 0.0000 27.8758
#
#
#
# Elastic Compliance Matrix: (Units=1/GPa)
#
#
# Indices 1 2 3 4 5 6 
#
# 1 0.008656 -0.002140 -0.002521 0.000000 0.000000 0.001718
# 2 -0.002140 0.008656 -0.002521 0.000000 0.000000 -0.001718
# 3 -0.002521 -0.002521 0.038151 0.000000 0.000000 0.000000
# 4 0.000000 0.000000 0.000000 -0.066960 0.000000 0.000000
# 5 0.000000 0.000000 0.000000 0.000000 -0.066960 0.000000
# 6 0.001718 -0.001718 0.000000 0.000000 0.000000 0.036420
#
#
# Mechanical properties :
#
#
# Convention : Reuss Voigt Hill
#
# Bulk Modulus (GPa) = 24.33289 43.76328 34.04809
# Shear Modulus (GPa) = -357.86463 14.81305 -171.52579
#
# Velocity S-wave (km/s) = -13.41383 2.72908 -9.28663
# Velocity P-wave (km/s) = 15.08885 5.65104 9.89291
#
# Compressibility (1/GPa) = 0.04109663
#
# Stress axis : x y z
#
# Youngs Moduli (GPa) = 115.52647 115.52647 26.21197
#
# Poissons Ratio (x) = 0.24723 0.06609
# Poissons Ratio (y) = 0.24723 0.06609
# Poissons Ratio (z) = 0.29129 0.29129
#
# Static dielectric constant tensor:
#      x y z
#    x 1.700400 0.000000 0.000000 
#    y 0.000000 1.700400 0.000000 
#    z 0.000000 0.000000 1.654420 
# 
# From -- ./inp_files/4865.got.cif
#   From: 2010.05.17/outbox.cif.g08.bks.cpg/sg86_3_cif.got.tgz:4865.got - 2010.06.03 19:03:11.
