data_PCOD9545441
_publ_section_title
;
Structure prediction by ZEFSAII (Michael W. Deem and Ramdas Pophale) SiO2 
 PCOD9545441
Probable space group: P 42/N
;
_chemical_formula_sum "Si O2"
_cell_formula_units_Z 36
_cell_length_a 11.157786
_cell_length_b 11.157786
_cell_length_c 12.308717
_cell_angle_alpha 90.000000
_cell_angle_beta 90.000000
_cell_angle_gamma 90.000000
_cell_volume 1532.388351
_symmetry_space_group_name_H-M "P 42/N"
_symmetry_group_IT_number 86
_space_group.IT_coordinate_system_code '2'
_symmetry_cell_setting 'tetragonal'
loop_
_space_group_symop_operation_xyz
x,y,z
-y,1/2+x,1/2+z
1/2-x,1/2-y,z
1/2+y,-x,1/2+z
-x,-y,-z
y,1/2-x,1/2-z
1/2+x,1/2+y,-z
1/2-y,x,1/2-z
loop_
_atom_site_type_symbol
_atom_site_label
_atom_site_fract_x
_atom_site_fract_y
_atom_site_fract_z
Si Si1 0.750000 0.750000 0.250000
Si Si2 0.569015 0.711830 0.086599
Si Si3 0.523812 0.635862 0.463826
Si Si4 0.553287 0.861347 0.605262
Si Si5 0.184781 0.621248 0.743053
Si Si6 0.250000 0.250000 0.250000
O O1 0.657779 0.668623 0.182212
O O2 0.634842 0.832027 0.048729
O O3 0.449772 0.754776 0.147737
O O4 0.559895 0.612408 0.992961
O O5 0.500000 0.500000 0.500000
O O6 0.503339 0.739866 0.550918
O O7 0.446369 0.671264 0.358009
O O8 0.447750 0.893341 0.688487
O O9 0.669108 0.834609 0.677144
O O10 0.250000 0.750000 0.757123
#
# Coordination Sequence:
#
# PCOD9545441 Si02
#       6
#     2   8   8   8   8   2
#     4  12  18  44  76 102 120 196 254 300 352 450
#     4  12  22  47  76 104 144 197 263 304 369 469
#     4  12  25  46  73 106 153 200 252 314 381 461
#     4  12  25  47  75 112 148 200 252 318 379 460
#     4  12  29  47  74 114 161 196 249 321 398 460
#     4  12  22  48  76 110 148 188 270 316 372 442
#
# _framework density 23.492740000000001
#
# number of rings (size 3 to 8) (size 9 to 14) (size 15 to 20)
#    0.000    0.000    6.667    3.333    0.000    2.667 
#    0.000    0.000    0.000    0.000    0.000    0.000 
#    0.000    0.000    0.000    0.000    0.000    0.000 
#
# Total GULP energy -200879.124256 kJ/mol
# GULP energy per Si atom -5579.975674 kJ/mol
# Density = 2.343927 g / cm^3
# Si number density = 23.492740 Si / 1000 Ang^3
#
#
#
# Elastic Constant Matrix: (Units=GPa)
#
#
# Indices 1 2 3 4 5 6 
#
# 1 86.9054 3.8838 27.7218 0.0000 0.0000 -18.3635
# 2 3.8838 86.9054 27.7218 0.0000 0.0000 18.3635
# 3 27.7218 27.7218 99.5450 0.0000 0.0000 0.0000
# 4 0.0000 0.0000 0.0000 24.2409 0.0000 0.0000
# 5 0.0000 0.0000 0.0000 0.0000 24.2409 0.0000
# 6 -18.3635 18.3635 0.0000 0.0000 0.0000 41.4053
#
#
#
# Elastic Compliance Matrix: (Units=1/GPa)
#
#
# Indices 1 2 3 4 5 6 
#
# 1 0.014128 -0.000857 -0.003696 0.000000 0.000000 0.006646
# 2 -0.000857 0.014128 -0.003696 0.000000 0.000000 -0.006646
# 3 -0.003696 -0.003696 0.012104 0.000000 0.000000 0.000000
# 4 0.000000 0.000000 0.000000 0.041253 0.000000 0.000000
# 5 0.000000 0.000000 0.000000 0.000000 0.041253 0.000000
# 6 0.006646 -0.006646 0.000000 0.000000 0.000000 0.030047
#
#
# Mechanical properties :
#
#
# Convention : Reuss Voigt Hill
#
# Bulk Modulus (GPa) = 41.90477 43.55676 42.73077
# Shear Modulus (GPa) = 28.19052 32.24597 30.21825
#
# Velocity S-wave (km/s) = 3.46781 3.70887 3.59037
# Velocity P-wave (km/s) = 5.82326 6.07633 5.95114
#
# Compressibility (1/GPa) = 0.02386363
#
# Stress axis : x y z
#
# Youngs Moduli (GPa) = 70.77970 70.77970 82.61568
#
# Poissons Ratio (x) = 0.06064 0.30534
# Poissons Ratio (y) = 0.06064 0.30534
# Poissons Ratio (z) = 0.26160 0.26160
#
# Static dielectric constant tensor:
#      x y z
#    x 2.016510 0.000000 0.000000 
#    y 0.000000 2.016510 0.000000 
#    z 0.000000 0.000000 1.988010 
# 
# From -- ./inp_files/2095.got.cif
#   From: 2010.05.17/outbox.cif.g08.bks.cpg/sg86_2_cif.got.tgz:2095.got - 2010.06.03 19:03:11.
