data_PCOD9545923
_publ_section_title
;
Structure prediction by ZEFSAII (Michael W. Deem and Ramdas Pophale) SiO2 
 PCOD9545923
Probable space group: I 4/M
;
_chemical_formula_sum "Si O2"
_cell_formula_units_Z 96
_cell_length_a 16.468831
_cell_length_b 16.468831
_cell_length_c 17.402137
_cell_angle_alpha 90.000000
_cell_angle_beta 90.000000
_cell_angle_gamma 90.000000
_cell_volume 4719.849267
_symmetry_space_group_name_H-M "I 4/M"
_symmetry_group_IT_number 87
_symmetry_cell_setting 'tetragonal'
loop_
_space_group_symop_operation_xyz
x,y,z
-y,x,z
-x,-y,z
y,-x,z
-x,-y,-z
y,-x,-z
x,y,-z
-y,x,-z
1/2+x,1/2+y,1/2+z
1/2-y,1/2+x,1/2+z
1/2-x,1/2-y,1/2+z
1/2+y,1/2-x,1/2+z
1/2-x,1/2-y,1/2-z
1/2+y,1/2-x,1/2-z
1/2+x,1/2+y,1/2-z
1/2-y,1/2+x,1/2-z
loop_
_atom_site_type_symbol
_atom_site_label
_atom_site_fract_x
_atom_site_fract_y
_atom_site_fract_z
Si Si1 0.582090 0.919211 0.785144
Si Si2 0.793804 0.339904 0.317058
Si Si3 0.675294 0.641941 0.216178
Si Si4 0.620413 0.434154 0.084099
Si Si5 0.697216 0.998064 0.089135
Si Si6 0.034315 0.868061 0.155224
O O1 0.485254 0.907502 0.784680
O O2 0.621452 0.836881 0.757386
O O3 0.629531 0.954604 0.857688
O O4 0.703529 0.319637 0.288465
O O5 0.844370 0.258030 0.330809
O O6 0.796336 0.408637 0.381655
O O7 0.603516 0.662901 0.157692
O O8 0.660699 0.555659 0.257776
O O9 0.605718 0.530285 0.087336
O O10 0.656282 0.415026 0.000000
O O11 0.786426 0.959815 0.105419
O O12 0.677302 0.993082 0.000000
O O13 0.944520 0.905562 0.143352
#
# Coordination Sequence:
#
# PCOD9545923 Si02
#       6
#    16  16  16  16  16  16
#     4   9  19  39  64  88 116 160 207 260 323 389
#     4  10  22  38  60  87 120 160 213 266 312 379
#     4  11  20  36  61  88 117 164 217 260 314 381
#     4   9  19  34  54  86 123 157 197 256 318 370
#     4  11  23  41  62  92 131 166 208 270 326 373
#     4  11  22  38  61  95 130 173 223 256 306 390
#
# _framework density 20.339631000000001
#
# number of rings (size 3 to 8) (size 9 to 14) (size 15 to 20)
#    0.000    1.833    3.333    1.500    0.000    2.667 
#    0.000    8.333    0.000    0.000    0.000    0.000 
#    0.000    0.000    0.000    0.000    0.000    0.000 
#
# Total GULP energy -267492.605461 kJ/mol
# GULP energy per Si atom -5572.762614 kJ/mol
# Density = 2.029334 g / cm^3
# Si number density = 20.339631 Si / 1000 Ang^3
#
#
#
# Elastic Constant Matrix: (Units=GPa)
#
#
# Indices 1 2 3 4 5 6 
#
# 1 63.8961 10.5488 25.8035 0.0000 0.0000 5.0184
# 2 10.5488 63.8961 25.8035 0.0000 0.0000 -5.0184
# 3 25.8035 25.8035 106.1820 0.0000 0.0000 0.0000
# 4 0.0000 0.0000 0.0000 12.6468 0.0000 0.0000
# 5 0.0000 0.0000 0.0000 0.0000 12.6468 0.0000
# 6 5.0184 -5.0184 0.0000 0.0000 0.0000 32.9899
#
#
#
# Elastic Compliance Matrix: (Units=1/GPa)
#
#
# Indices 1 2 3 4 5 6 
#
# 1 0.017726 -0.001572 -0.003926 0.000000 0.000000 -0.002936
# 2 -0.001572 0.017726 -0.003926 0.000000 0.000000 0.002936
# 3 -0.003926 -0.003926 0.011326 0.000000 0.000000 0.000000
# 4 0.000000 0.000000 0.000000 0.079072 0.000000 0.000000
# 5 0.000000 0.000000 0.000000 0.000000 0.079072 0.000000
# 6 -0.002936 0.002936 0.000000 0.000000 0.000000 0.031205
#
#
# Mechanical properties :
#
#
# Convention : Reuss Voigt Hill
#
# Bulk Modulus (GPa) = 35.80200 39.80952 37.80576
# Shear Modulus (GPa) = 18.91917 23.11124 21.01521
#
# Velocity S-wave (km/s) = 3.05317 3.37451 3.21785
# Velocity P-wave (km/s) = 5.48356 5.89898 5.69506
#
# Compressibility (1/GPa) = 0.02793140
#
# Stress axis : x y z
#
# Youngs Moduli (GPa) = 56.41510 56.41510 88.29436
#
# Poissons Ratio (x) = 0.08866 0.34661
# Poissons Ratio (y) = 0.08866 0.34661
# Poissons Ratio (z) = 0.22147 0.22147
#
# Static dielectric constant tensor:
#      x y z
#    x 1.775130 0.000000 0.000000 
#    y 0.000000 1.775130 0.000000 
#    z 0.000000 0.000000 1.720950 
# 
# From -- ./inp_files/4400.got.cif
#   From: 2010.05.17/outbox.cif.g08.bks.cpg/sg87_3_cif.got.tgz:4400.got - 2010.06.03 19:07:00.
