data_PCOD9545128
_publ_section_title
;
Structure prediction by ZEFSAII (Michael W. Deem and Ramdas Pophale) SiO2 
 PCOD9545128
Probable space group: P 42/N
;
_chemical_formula_sum "Si O2"
_cell_formula_units_Z 40
_cell_length_a 11.479579
_cell_length_b 11.479579
_cell_length_c 13.383142
_cell_angle_alpha 90.000000
_cell_angle_beta 90.000000
_cell_angle_gamma 90.000000
_cell_volume 1763.640276
_symmetry_space_group_name_H-M "P 42/N"
_symmetry_group_IT_number 86
_space_group.IT_coordinate_system_code '2'
_symmetry_cell_setting 'tetragonal'
loop_
_space_group_symop_operation_xyz
x,y,z
-y,1/2+x,1/2+z
1/2-x,1/2-y,z
1/2+y,-x,1/2+z
-x,-y,-z
y,1/2-x,1/2-z
1/2+x,1/2+y,-z
1/2-y,x,1/2-z
loop_
_atom_site_type_symbol
_atom_site_label
_atom_site_fract_x
_atom_site_fract_y
_atom_site_fract_z
Si Si1 0.702223 0.895789 0.689541
Si Si2 0.003505 0.627821 0.952480
Si Si3 0.528051 0.100784 0.627680
Si Si4 0.866889 0.191101 0.712486
Si Si5 0.656314 0.083742 0.427290
O O1 0.883648 0.712419 0.713942
O O2 0.789428 0.899959 0.593375
O O3 0.619363 0.007095 0.674346
O O4 0.079741 0.609417 0.853285
O O5 0.000000 0.500000 0.000000
O O6 0.063990 0.715017 0.030688
O O7 0.532043 0.213737 0.696828
O O8 0.407214 0.036250 0.606960
O O9 0.578959 0.132484 0.518050
O O10 0.750000 0.250000 0.671065
O O11 0.844586 0.159645 0.826372
#
# Coordination Sequence:
#
# PCOD9545128 Si02
#       5
#     8   8   8   8   8
#     4  10  21  41  67 103 137 181 231 290 361 420
#     4  11  26  47  69 106 143 186 249 296 367 439
#     4  10  23  46  66 104 142 179 242 286 364 435
#     4  12  24  42  72 104 134 192 239 292 365 428
#     4  10  24  43  70  95 144 183 225 303 351 425
#
# _framework density 22.680361999999999
#
# number of rings (size 3 to 8) (size 9 to 14) (size 15 to 20)
#    0.000    1.400    4.000    1.200    8.400    0.000 
#   21.600    0.000    0.000    0.000    0.000    0.000 
#    0.000    0.000    0.000    0.000    0.000    0.000 
#
# Total GULP energy -223060.245432 kJ/mol
# GULP energy per Si atom -5576.506136 kJ/mol
# Density = 2.262874 g / cm^3
# Si number density = 22.680362 Si / 1000 Ang^3
#
#
#
# Elastic Constant Matrix: (Units=GPa)
#
#
# Indices 1 2 3 4 5 6 
#
# 1 81.6387 1.5020 33.7694 0.0000 0.0000 0.6568
# 2 1.5020 81.6387 33.7694 0.0000 0.0000 -0.6568
# 3 33.7694 33.7694 105.8987 0.0000 0.0000 0.0000
# 4 0.0000 0.0000 0.0000 33.4424 0.0000 0.0000
# 5 0.0000 0.0000 0.0000 0.0000 33.4424 0.0000
# 6 0.6568 -0.6568 0.0000 0.0000 0.0000 23.3078
#
#
#
# Elastic Compliance Matrix: (Units=1/GPa)
#
#
# Indices 1 2 3 4 5 6 
#
# 1 0.014359 0.001874 -0.005176 0.000000 0.000000 -0.000352
# 2 0.001874 0.014359 -0.005176 0.000000 0.000000 0.000352
# 3 -0.005176 -0.005176 0.012744 0.000000 0.000000 0.000000
# 4 0.000000 0.000000 0.000000 0.029902 0.000000 0.000000
# 5 0.000000 0.000000 0.000000 0.000000 0.029902 0.000000
# 6 -0.000352 0.000352 0.000000 0.000000 0.000000 0.042924
#
#
# Mechanical properties :
#
#
# Convention : Reuss Voigt Hill
#
# Bulk Modulus (GPa) = 40.80897 45.25086 43.02991
# Shear Modulus (GPa) = 29.53074 31.38088 30.45581
#
# Velocity S-wave (km/s) = 3.61229 3.72373 3.66844
# Velocity P-wave (km/s) = 5.95234 6.20348 6.07921
#
# Compressibility (1/GPa) = 0.02450441
#
# Stress axis : x y z
#
# Youngs Moduli (GPa) = 69.64448 69.64448 78.46629
#
# Poissons Ratio (x) = -0.13053 0.40617
# Poissons Ratio (y) = -0.13053 0.40617
# Poissons Ratio (z) = 0.36051 0.36051
#
# Static dielectric constant tensor:
#      x y z
#    x 1.939710 0.000000 0.000000 
#    y 0.000000 1.939710 0.000000 
#    z 0.000000 0.000000 1.829060 
# 
# From -- ./inp_files/2916.got.cif
#   From: 2010.05.17/outbox.cif.g08.bks.cpg/sg86_2_cif.got.tgz:2916.got - 2010.06.03 19:03:11.
