data_PCOD9545013
_publ_section_title
;
Structure prediction by ZEFSAII (Michael W. Deem and Ramdas Pophale) SiO2 
 PCOD9545013
Probable space group: P 42/N
;
_chemical_formula_sum "Si O2"
_cell_formula_units_Z 52
_cell_length_a 15.990961
_cell_length_b 15.990961
_cell_length_c 8.322802
_cell_angle_alpha 90.000000
_cell_angle_beta 90.000000
_cell_angle_gamma 90.000000
_cell_volume 2128.230638
_symmetry_space_group_name_H-M "P 42/N"
_symmetry_group_IT_number 86
_space_group.IT_coordinate_system_code '2'
_symmetry_cell_setting 'tetragonal'
loop_
_space_group_symop_operation_xyz
x,y,z
-y,1/2+x,1/2+z
1/2-x,1/2-y,z
1/2+y,-x,1/2+z
-x,-y,-z
y,1/2-x,1/2-z
1/2+x,1/2+y,-z
1/2-y,x,1/2-z
loop_
_atom_site_type_symbol
_atom_site_label
_atom_site_fract_x
_atom_site_fract_y
_atom_site_fract_z
Si Si1 0.750000 0.250000 0.214588
Si Si2 0.316447 0.157820 0.348984
Si Si3 0.879132 0.218389 0.967877
Si Si4 0.112102 0.583929 0.974085
Si Si5 0.784135 0.517721 0.236105
Si Si6 0.881996 0.671355 0.091896
Si Si7 0.943345 0.948039 0.694116
O O1 0.798671 0.315060 0.324346
O O2 0.821846 0.198134 0.121025
O O3 0.249271 0.146335 0.199723
O O4 0.257967 0.151629 0.507814
O O5 0.392593 0.092292 0.340001
O O6 0.885250 0.318852 0.991813
O O7 0.968621 0.189215 0.901101
O O8 0.083311 0.532318 0.130165
O O9 0.198278 0.544104 0.910958
O O10 0.047800 0.560172 0.827534
O O11 0.821968 0.606197 0.178603
O O12 0.691635 0.546054 0.280137
O O13 0.922412 0.621875 0.945383
#
# Coordination Sequence:
#
# PCOD9545013 Si02
#       7
#     4   8   8   8   8   8   8
#     4  10  24  40  70  98 128 178 234 286 352 420
#     4   9  19  37  61  89 128 175 224 266 330 414
#     4  11  21  43  66  98 132 176 231 285 348 418
#     4  10  20  38  64  93 131 170 221 279 347 396
#     4  11  23  39  66  96 135 177 224 285 344 422
#     4  10  22  38  62  94 129 178 218 274 347 404
#     4   9  19  37  62  89 125 169 215 271 332 403
#
# _framework density 24.433444000000001
#
# number of rings (size 3 to 8) (size 9 to 14) (size 15 to 20)
#    0.000    2.000    3.077    0.000    0.000    7.692 
#    0.000    0.769    6.769    0.000    0.000    0.000 
#    0.000    0.000    0.000    0.000    0.000    0.000 
#
# Total GULP energy -289498.353337 kJ/mol
# GULP energy per Si atom -5567.276026 kJ/mol
# Density = 2.437783 g / cm^3
# Si number density = 24.433444 Si / 1000 Ang^3
#
#
#
# Elastic Constant Matrix: (Units=GPa)
#
#
# Indices 1 2 3 4 5 6 
#
# 1 71.5769 15.5903 25.1154 0.0000 0.0000 -9.2345
# 2 15.5903 71.5769 25.1154 0.0000 0.0000 9.2345
# 3 25.1154 25.1154 69.2213 0.0000 0.0000 0.0000
# 4 0.0000 0.0000 0.0000 34.1045 0.0000 0.0000
# 5 0.0000 0.0000 0.0000 0.0000 34.1045 0.0000
# 6 -9.2345 9.2345 0.0000 0.0000 0.0000 34.7961
#
#
#
# Elastic Compliance Matrix: (Units=1/GPa)
#
#
# Indices 1 2 3 4 5 6 
#
# 1 0.017040 -0.002535 -0.005263 0.000000 0.000000 0.005195
# 2 -0.002535 0.017040 -0.005263 0.000000 0.000000 -0.005195
# 3 -0.005263 -0.005263 0.018265 0.000000 0.000000 0.000000
# 4 0.000000 0.000000 0.000000 0.029322 0.000000 0.000000
# 5 0.000000 0.000000 0.000000 0.000000 0.029322 0.000000
# 6 0.005195 -0.005195 0.000000 0.000000 0.000000 0.031496
#
#
# Mechanical properties :
#
#
# Convention : Reuss Voigt Hill
#
# Bulk Modulus (GPa) = 38.13286 38.22413 38.17850
# Shear Modulus (GPa) = 28.19320 30.37128 29.28224
#
# Velocity S-wave (km/s) = 3.40056 3.52947 3.46562
# Velocity P-wave (km/s) = 5.57307 5.68223 5.62792
#
# Compressibility (1/GPa) = 0.02622410
#
# Stress axis : x y z
#
# Youngs Moduli (GPa) = 58.68536 58.68536 54.74831
#
# Poissons Ratio (x) = 0.14877 0.28813
# Poissons Ratio (y) = 0.14877 0.28813
# Poissons Ratio (z) = 0.30885 0.30885
#
# Static dielectric constant tensor:
#      x y z
#    x 2.035350 0.000000 0.000000 
#    y 0.000000 2.035350 0.000000 
#    z 0.000000 0.000000 2.013350 
# 
# From -- ./inp_files/1402.got.cif
#   From: 2010.05.17/outbox.cif.g08.bks.cpg/sg86_1_cif.got.tgz:1402.got - 2010.06.03 19:03:11.
