data_PCOD9545841
_publ_section_title
;
Structure prediction by ZEFSAII (Michael W. Deem and Ramdas Pophale) SiO2 
 PCOD9545841
Probable space group: I 4/M
;
_chemical_formula_sum "Si O2"
_cell_formula_units_Z 96
_cell_length_a 23.709756
_cell_length_b 23.709756
_cell_length_c 9.359296
_cell_angle_alpha 90.000000
_cell_angle_beta 90.000000
_cell_angle_gamma 90.000000
_cell_volume 5261.351921
_symmetry_space_group_name_H-M "I 4/M"
_symmetry_group_IT_number 87
_symmetry_cell_setting 'tetragonal'
loop_
_space_group_symop_operation_xyz
x,y,z
-y,x,z
-x,-y,z
y,-x,z
-x,-y,-z
y,-x,-z
x,y,-z
-y,x,-z
1/2+x,1/2+y,1/2+z
1/2-y,1/2+x,1/2+z
1/2-x,1/2-y,1/2+z
1/2+y,1/2-x,1/2+z
1/2-x,1/2-y,1/2-z
1/2+y,1/2-x,1/2-z
1/2+x,1/2+y,1/2-z
1/2-y,1/2+x,1/2-z
loop_
_atom_site_type_symbol
_atom_site_label
_atom_site_fract_x
_atom_site_fract_y
_atom_site_fract_z
Si Si1 0.480883 0.839363 0.828572
Si Si2 0.788435 0.830912 0.329906
Si Si3 0.911939 0.629064 0.829194
Si Si4 0.000244 0.091562 0.326096
Si Si5 0.167996 0.271584 0.830345
Si Si6 0.538621 0.287985 0.825883
O O1 0.420950 0.868252 0.796902
O O2 0.529832 0.874461 0.753567
O O3 0.481581 0.773963 0.779693
O O4 0.488031 0.840013 0.000000
O O5 0.797686 0.828569 0.500000
O O6 0.828950 0.786973 0.252107
O O7 0.725282 0.807414 0.302140
O O8 0.794170 0.895589 0.284545
O O9 0.883112 0.688231 0.788715
O O10 0.920843 0.628688 0.000000
O O11 0.000710 0.092343 0.500000
O O12 0.995099 0.156326 0.278123
O O13 0.054925 0.054998 0.283241
O O14 0.166284 0.261646 0.000000
O O15 0.537480 0.287221 0.000000
#
# Coordination Sequence:
#
# PCOD9545841 Si02
#       6
#    16  16  16  16  16  16
#     4  10  21  37  56  76  99 131 172 218 262 312
#     4   9  16  28  49  75 100 129 165 204 246 297
#     4  10  21  38  55  73 104 138 167 211 270 316
#     4   8  14  24  39  64 100 136 165 198 243 291
#     4   9  17  31  49  70 101 136 161 196 256 310
#     4   9  16  29  49  72 101 133 168 211 255 295
#
# _framework density 18.246261000000001
#
# number of rings (size 3 to 8) (size 9 to 14) (size 15 to 20)
#    0.000    2.833    1.667    0.500    0.000    3.000 
#    0.000    5.833    0.000    0.000    0.000    0.000 
#    0.000    0.000    0.000    7.333    0.000    6.000 
#
# Total GULP energy -267487.290778 kJ/mol
# GULP energy per Si atom -5572.651891 kJ/mol
# Density = 1.820473 g / cm^3
# Si number density = 18.246261 Si / 1000 Ang^3
#
#
#
# Elastic Constant Matrix: (Units=GPa)
#
#
# Indices 1 2 3 4 5 6 
#
# 1 78.2809 27.3812 15.5076 0.0000 0.0000 10.7980
# 2 27.3812 78.2809 15.5076 0.0000 0.0000 -10.7980
# 3 15.5076 15.5076 -3.5027 0.0000 0.0000 0.0000
# 4 0.0000 0.0000 0.0000 21.1091 0.0000 0.0000
# 5 0.0000 0.0000 0.0000 0.0000 21.1091 0.0000
# 6 10.7980 -10.7980 0.0000 0.0000 0.0000 9.8939
#
#
#
# Elastic Compliance Matrix: (Units=1/GPa)
#
#
# Indices 1 2 3 4 5 6 
#
# 1 0.020353 -0.016237 0.018221 0.000000 0.000000 -0.039933
# 2 -0.016237 0.020353 0.018221 0.000000 0.000000 0.039933
# 3 0.018221 0.018221 -0.124151 0.000000 0.000000 0.000000
# 4 0.000000 0.000000 0.000000 0.047373 0.000000 0.000000
# 5 0.000000 0.000000 0.000000 0.000000 0.047373 0.000000
# 6 -0.039933 0.039933 0.000000 0.000000 0.000000 0.188237
#
#
# Mechanical properties :
#
#
# Convention : Reuss Voigt Hill
#
# Bulk Modulus (GPa) = -23.23677 29.98352 3.37337
# Shear Modulus (GPa) = 34.53500 16.73327 25.63413
#
# Velocity S-wave (km/s) = 4.35526 3.03162 3.75226
# Velocity P-wave (km/s) = 3.53953 5.35935 4.54153
#
# Compressibility (1/GPa) = -0.04303523
#
# Stress axis : x y z
#
# Youngs Moduli (GPa) = 49.13392 49.13392 -8.05469
#
# Poissons Ratio (x) = 0.79778 0.14677
# Poissons Ratio (y) = 0.79778 0.14677
# Poissons Ratio (z) = -0.89528 -0.89528
#
# Static dielectric constant tensor:
#      x y z
#    x 1.638350 0.000000 0.000000 
#    y 0.000000 1.638350 0.000000 
#    z 0.000000 0.000000 1.597200 
# 
# From -- ./inp_files/1419.got.cif
#   From: 2010.05.17/outbox.cif.g08.bks.cpg/sg87_1_cif.got.tgz:1419.got - 2010.06.03 19:07:00.
