data_PCOD9545202
_publ_section_title
;
Structure prediction by ZEFSAII (Michael W. Deem and Ramdas Pophale) SiO2 
 PCOD9545202
Probable space group: P 42/N
;
_chemical_formula_sum "Si O2"
_cell_formula_units_Z 32
_cell_length_a 8.625652
_cell_length_b 8.625652
_cell_length_c 18.998397
_cell_angle_alpha 90.000000
_cell_angle_beta 90.000000
_cell_angle_gamma 90.000000
_cell_volume 1413.516310
_symmetry_space_group_name_H-M "P 42/N"
_symmetry_group_IT_number 86
_space_group.IT_coordinate_system_code '2'
_symmetry_cell_setting 'tetragonal'
loop_
_space_group_symop_operation_xyz
x,y,z
-y,1/2+x,1/2+z
1/2-x,1/2-y,z
1/2+y,-x,1/2+z
-x,-y,-z
y,1/2-x,1/2-z
1/2+x,1/2+y,-z
1/2-y,x,1/2-z
loop_
_atom_site_type_symbol
_atom_site_label
_atom_site_fract_x
_atom_site_fract_y
_atom_site_fract_z
Si Si1 0.898783 0.638400 0.345066
Si Si2 0.784606 0.077503 0.445312
Si Si3 0.410432 0.899226 0.901992
Si Si4 0.446521 0.109820 0.240980
O O1 0.750000 0.750000 0.326778
O O2 0.838743 0.532331 0.408708
O O3 0.031560 0.745325 0.378667
O O4 0.961440 0.527397 0.281698
O O5 0.750000 0.250000 0.420776
O O6 0.791659 0.079343 0.529983
O O7 0.951131 0.015644 0.420393
O O8 0.473311 0.831995 0.830128
O O9 0.272344 0.062396 0.217866
#
# Coordination Sequence:
#
# PCOD9545202 Si02
#       4
#     8   8   8   8
#     4  10  24  44  72 104 138 191 241 299 355 430
#     4  10  22  43  67 102 137 184 233 300 353 420
#     4  10  24  43  67 105 137 183 241 289 361 427
#     4  11  26  47  70 104 144 189 237 301 361 425
#
# _framework density 22.638580000000001
#
# number of rings (size 3 to 8) (size 9 to 14) (size 15 to 20)
#    0.000    1.750    0.000    1.500   10.500    1.000 
#   22.500    0.000    0.000    0.000    0.000    0.000 
#    0.000    0.000    0.000    0.000    0.000    0.000 
#
# Total GULP energy -178752.046634 kJ/mol
# GULP energy per Si atom -5586.001457 kJ/mol
# Density = 2.258705 g / cm^3
# Si number density = 22.638580 Si / 1000 Ang^3
#
#
#
# Elastic Constant Matrix: (Units=GPa)
#
#
# Indices 1 2 3 4 5 6 
#
# 1 92.5705 34.3964 30.7332 0.0000 0.0000 2.8766
# 2 34.3964 92.5705 30.7332 0.0000 0.0000 -2.8766
# 3 30.7332 30.7332 92.6301 0.0000 0.0000 0.0000
# 4 0.0000 0.0000 0.0000 27.4867 0.0000 0.0000
# 5 0.0000 0.0000 0.0000 0.0000 27.4867 0.0000
# 6 2.8766 -2.8766 0.0000 0.0000 0.0000 28.6225
#
#
#
# Elastic Compliance Matrix: (Units=1/GPa)
#
#
# Indices 1 2 3 4 5 6 
#
# 1 0.013373 -0.003990 -0.003113 0.000000 0.000000 -0.001745
# 2 -0.003990 0.013373 -0.003113 0.000000 0.000000 0.001745
# 3 -0.003113 -0.003113 0.012861 0.000000 0.000000 0.000000
# 4 0.000000 0.000000 0.000000 0.036381 0.000000 0.000000
# 5 0.000000 0.000000 0.000000 0.000000 0.036381 0.000000
# 6 -0.001745 0.001745 0.000000 0.000000 0.000000 0.035288
#
#
# Mechanical properties :
#
#
# Convention : Reuss Voigt Hill
#
# Bulk Modulus (GPa) = 52.15107 52.16632 52.15870
# Shear Modulus (GPa) = 28.65633 28.84638 28.75135
#
# Velocity S-wave (km/s) = 3.56169 3.57348 3.56759
# Velocity P-wave (km/s) = 6.32460 6.33400 6.32930
#
# Compressibility (1/GPa) = 0.01917506
#
# Stress axis : x y z
#
# Youngs Moduli (GPa) = 74.77876 74.77876 77.75171
#
# Poissons Ratio (x) = 0.29834 0.24206
# Poissons Ratio (y) = 0.29834 0.24206
# Poissons Ratio (z) = 0.23280 0.23280
#
# Static dielectric constant tensor:
#      x y z
#    x 1.896580 0.000000 0.000000 
#    y 0.000000 1.896580 0.000000 
#    z 0.000000 0.000000 1.829860 
# 
# From -- ./inp_files/3860.got.cif
#   From: 2010.05.17/outbox.cif.g08.bks.cpg/sg86_2_cif.got.tgz:3860.got - 2010.06.03 19:03:11.
