data_PCOD9545440
_publ_section_title
;
Structure prediction by ZEFSAII (Michael W. Deem and Ramdas Pophale) SiO2 
 PCOD9545440
Probable space group: P 42/N
;
_chemical_formula_sum "Si O2"
_cell_formula_units_Z 48
_cell_length_a 12.007656
_cell_length_b 12.007656
_cell_length_c 17.191123
_cell_angle_alpha 90.000000
_cell_angle_beta 90.000000
_cell_angle_gamma 90.000000
_cell_volume 2478.681485
_symmetry_space_group_name_H-M "P 42/N"
_symmetry_group_IT_number 86
_space_group.IT_coordinate_system_code '2'
_symmetry_cell_setting 'tetragonal'
loop_
_space_group_symop_operation_xyz
x,y,z
-y,1/2+x,1/2+z
1/2-x,1/2-y,z
1/2+y,-x,1/2+z
-x,-y,-z
y,1/2-x,1/2-z
1/2+x,1/2+y,-z
1/2-y,x,1/2-z
loop_
_atom_site_type_symbol
_atom_site_label
_atom_site_fract_x
_atom_site_fract_y
_atom_site_fract_z
Si Si1 0.470987 0.408000 0.705519
Si Si2 0.951211 0.617925 0.475719
Si Si3 0.881411 0.765904 0.147786
Si Si4 0.152170 0.504683 0.258990
Si Si5 0.721213 0.369635 0.142295
Si Si6 0.802842 0.872908 0.863977
O O1 0.360387 0.423645 0.652867
O O2 0.428883 0.343378 0.783127
O O3 0.512657 0.530497 0.722802
O O4 0.568170 0.331227 0.672449
O O5 0.834574 0.601306 0.430722
O O6 0.928767 0.692684 0.551534
O O7 0.000000 0.500000 0.500000
O O8 0.040473 0.669813 0.416477
O O9 0.750000 0.750000 0.158815
O O10 0.156302 0.632501 0.288245
O O11 0.150541 0.428174 0.335419
O O12 0.241241 0.453460 0.198521
O O13 0.750000 0.250000 0.106295
O O14 0.750000 0.750000 0.865143
#
# Coordination Sequence:
#
# PCOD9545440 Si02
#       6
#     8   8   8   8   8   8
#     4  12  21  39  72 104 127 169 230 281 335 400
#     4  12  25  44  67  93 136 180 221 276 351 402
#     4  12  18  39  69 100 125 161 226 281 325 398
#     4  12  22  46  69  97 133 177 225 282 332 404
#     4  12  26  42  66 101 143 175 215 288 351 404
#     4  12  25  44  69  98 129 180 237 274 328 423
#
# _framework density 19.365134000000001
#
# number of rings (size 3 to 8) (size 9 to 14) (size 15 to 20)
#    0.000    0.000   10.000    1.500    0.000    0.000 
#    3.000    0.833    0.000    0.000    0.000    0.000 
#    0.000    0.000    0.000    0.000    0.000    0.000 
#
# Total GULP energy -268121.356065 kJ/mol
# GULP energy per Si atom -5585.861585 kJ/mol
# Density = 1.932106 g / cm^3
# Si number density = 19.365134 Si / 1000 Ang^3
#
#
#
# Elastic Constant Matrix: (Units=GPa)
#
#
# Indices 1 2 3 4 5 6 
#
# 1 82.6848 5.0378 10.4124 0.0000 0.0000 -0.8320
# 2 5.0378 82.6848 10.4124 0.0000 0.0000 0.8320
# 3 10.4124 10.4124 61.4948 0.0000 0.0000 0.0000
# 4 0.0000 0.0000 0.0000 15.3752 0.0000 0.0000
# 5 0.0000 0.0000 0.0000 0.0000 15.3752 0.0000
# 6 -0.8320 0.8320 0.0000 0.0000 0.0000 18.6857
#
#
#
# Elastic Compliance Matrix: (Units=1/GPa)
#
#
# Indices 1 2 3 4 5 6 
#
# 1 0.012384 -0.000507 -0.002011 0.000000 0.000000 0.000574
# 2 -0.000507 0.012384 -0.002011 0.000000 0.000000 -0.000574
# 3 -0.002011 -0.002011 0.016943 0.000000 0.000000 0.000000
# 4 0.000000 0.000000 0.000000 0.065040 0.000000 0.000000
# 5 0.000000 0.000000 0.000000 0.000000 0.065040 0.000000
# 6 0.000574 -0.000574 0.000000 0.000000 0.000000 0.053568
#
#
# Mechanical properties :
#
#
# Convention : Reuss Voigt Hill
#
# Bulk Modulus (GPa) = 30.62562 30.95439 30.79001
# Shear Modulus (GPa) = 20.38314 23.28733 21.83524
#
# Velocity S-wave (km/s) = 3.24785 3.47153 3.36155
# Velocity P-wave (km/s) = 5.46936 5.66462 5.56785
#
# Compressibility (1/GPa) = 0.03265240
#
# Stress axis : x y z
#
# Youngs Moduli (GPa) = 80.74910 80.74910 59.02293
#
# Poissons Ratio (x) = 0.04094 0.11870
# Poissons Ratio (y) = 0.04094 0.11870
# Poissons Ratio (z) = 0.16239 0.16239
#
# Static dielectric constant tensor:
#      x y z
#    x 1.729220 0.000000 0.000000 
#    y 0.000000 1.729220 0.000000 
#    z 0.000000 0.000000 1.692660 
# 
# From -- ./inp_files/3554.got.cif
#   From: 2010.05.17/outbox.cif.g08.bks.cpg/sg86_2_cif.got.tgz:3554.got - 2010.06.03 19:03:11.
