data_PCOD9545023
_publ_section_title
;
Structure prediction by ZEFSAII (Michael W. Deem and Ramdas Pophale) SiO2 
 PCOD9545023
Probable space group: P 42/N
;
_chemical_formula_sum "Si O2"
_cell_formula_units_Z 56
_cell_length_a 11.794759
_cell_length_b 11.794759
_cell_length_c 16.217492
_cell_angle_alpha 90.000000
_cell_angle_beta 90.000000
_cell_angle_gamma 90.000000
_cell_volume 2256.118129
_symmetry_space_group_name_H-M "P 42/N"
_symmetry_group_IT_number 86
_space_group.IT_coordinate_system_code '2'
_symmetry_cell_setting 'tetragonal'
loop_
_space_group_symop_operation_xyz
x,y,z
-y,1/2+x,1/2+z
1/2-x,1/2-y,z
1/2+y,-x,1/2+z
-x,-y,-z
y,1/2-x,1/2-z
1/2+x,1/2+y,-z
1/2-y,x,1/2-z
loop_
_atom_site_type_symbol
_atom_site_label
_atom_site_fract_x
_atom_site_fract_y
_atom_site_fract_z
Si Si1 0.331758 0.075013 0.457391
Si Si2 0.291216 0.873562 0.656089
Si Si3 0.380426 0.443237 0.347920
Si Si4 0.256090 0.377278 0.630585
Si Si5 0.845365 0.322414 0.529231
Si Si6 0.713795 0.533717 0.826310
Si Si7 0.887457 0.497408 0.057517
O O1 0.203682 0.074562 0.424010
O O2 0.331776 0.106424 0.553762
O O3 0.389365 0.166235 0.398924
O O4 0.379180 0.947212 0.439431
O O5 0.250000 0.750000 0.690289
O O6 0.281895 0.860108 0.556075
O O7 0.423901 0.863693 0.669831
O O8 0.249663 0.000688 0.678618
O O9 0.478247 0.348051 0.341989
O O10 0.306674 0.424623 0.266235
O O11 0.427543 0.568203 0.362615
O O12 0.250000 0.250000 0.666737
O O13 0.377919 0.371378 0.589022
O O14 0.750000 0.250000 0.577587
O O15 0.943132 0.227789 0.521281
O O16 0.000000 0.500000 0.000000
#
# Coordination Sequence:
#
# PCOD9545023 Si02
#       7
#     8   8   8   8   8   8   8
#     4  11  23  39  62  99 135 164 213 273 337 389
#     4  10  23  44  64  94 133 174 224 273 329 400
#     4  12  23  41  62  98 125 176 210 271 335 405
#     4  11  24  40  68 101 131 171 222 277 337 396
#     4  10  20  39  63  95 127 164 215 269 321 393
#     4  12  25  40  65  92 138 166 216 271 337 403
#     4  12  22  40  68  94 130 173 219 268 333 386
#
# _framework density 24.821394999999999
#
# number of rings (size 3 to 8) (size 9 to 14) (size 15 to 20)
#    0.000    0.857    4.286    4.714    4.000    1.143 
#    2.571    0.000    0.000    0.000    0.000    0.000 
#    0.000    0.000    0.000    0.000    0.000    0.000 
#
# Total GULP energy -312286.120889 kJ/mol
# GULP energy per Si atom -5576.537873 kJ/mol
# Density = 2.476490 g / cm^3
# Si number density = 24.821395 Si / 1000 Ang^3
#
#
#
# Elastic Constant Matrix: (Units=GPa)
#
#
# Indices 1 2 3 4 5 6 
#
# 1 148.5275 32.7467 12.2282 0.0000 0.0000 10.3343
# 2 32.7467 148.5275 12.2282 0.0000 0.0000 -10.3343
# 3 12.2282 12.2282 63.1945 0.0000 0.0000 0.0000
# 4 0.0000 0.0000 0.0000 -3.2254 0.0000 0.0000
# 5 0.0000 0.0000 0.0000 0.0000 -3.2254 0.0000
# 6 10.3343 -10.3343 0.0000 0.0000 0.0000 45.7469
#
#
#
# Elastic Compliance Matrix: (Units=1/GPa)
#
#
# Indices 1 2 3 4 5 6 
#
# 1 0.007332 -0.001668 -0.001096 0.000000 0.000000 -0.002033
# 2 -0.001668 0.007332 -0.001096 0.000000 0.000000 0.002033
# 3 -0.001096 -0.001096 0.016248 0.000000 0.000000 0.000000
# 4 0.000000 0.000000 0.000000 -0.310035 0.000000 0.000000
# 5 0.000000 0.000000 0.000000 0.000000 -0.310035 0.000000
# 6 -0.002033 0.002033 0.000000 0.000000 0.000000 0.022778
#
#
# Mechanical properties :
#
#
# Convention : Reuss Voigt Hill
#
# Bulk Modulus (GPa) = 43.11676 52.73952 47.92814
# Shear Modulus (GPa) = -9.07558 28.06230 9.49336
#
# Velocity S-wave (km/s) = -1.91423 3.36604 1.95780
# Velocity P-wave (km/s) = 3.53876 6.03330 4.94588
#
# Compressibility (1/GPa) = 0.02319284
#
# Stress axis : x y z
#
# Youngs Moduli (GPa) = 136.38536 136.38536 61.54475
#
# Poissons Ratio (x) = 0.22746 0.06746
# Poissons Ratio (y) = 0.22746 0.06746
# Poissons Ratio (z) = 0.14949 0.14949
#
# Static dielectric constant tensor:
#      x y z
#    x 2.019100 0.000000 0.000000 
#    y 0.000000 2.019100 0.000000 
#    z 0.000000 0.000000 2.125370 
# 
# From -- ./inp_files/4197.got.cif
#   From: 2010.05.17/outbox.cif.g08.bks.cpg/sg86_3_cif.got.tgz:4197.got - 2010.06.03 19:03:11.
