data_PCOD9545720
_publ_section_title
;
Structure prediction by ZEFSAII (Michael W. Deem and Ramdas Pophale) SiO2 
 PCOD9545720
Probable space group: I 4/M
;
_chemical_formula_sum "Si O2"
_cell_formula_units_Z 96
_cell_length_a 24.268602
_cell_length_b 24.268602
_cell_length_c 7.470612
_cell_angle_alpha 90.000000
_cell_angle_beta 90.000000
_cell_angle_gamma 90.000000
_cell_volume 4399.929318
_symmetry_space_group_name_H-M "I 4/M"
_symmetry_group_IT_number 87
_symmetry_cell_setting 'tetragonal'
loop_
_space_group_symop_operation_xyz
x,y,z
-y,x,z
-x,-y,z
y,-x,z
-x,-y,-z
y,-x,-z
x,y,-z
-y,x,-z
1/2+x,1/2+y,1/2+z
1/2-y,1/2+x,1/2+z
1/2-x,1/2-y,1/2+z
1/2+y,1/2-x,1/2+z
1/2-x,1/2-y,1/2-z
1/2+y,1/2-x,1/2-z
1/2+x,1/2+y,1/2-z
1/2-y,1/2+x,1/2-z
loop_
_atom_site_type_symbol
_atom_site_label
_atom_site_fract_x
_atom_site_fract_y
_atom_site_fract_z
Si Si1 0.690652 0.686060 0.285522
Si Si2 0.412717 0.002183 0.702437
Si Si3 0.088079 0.991732 0.781807
Si Si4 0.809231 0.069918 0.783772
Si Si5 0.680279 0.070435 0.287371
Si Si6 0.182418 0.691041 0.214026
O O1 0.691223 0.678352 0.500000
O O2 0.630116 0.669017 0.220720
O O3 0.691319 0.751676 0.247322
O O4 0.749151 0.662494 0.217192
O O5 0.404673 0.022406 0.500000
O O6 0.451761 0.947976 0.698894
O O7 0.355951 0.979969 0.783714
O O8 0.149480 0.977601 0.722217
O O9 0.047743 0.941738 0.726525
O O10 0.088397 0.993117 0.000000
O O11 0.745533 0.063152 0.734783
O O12 0.810669 0.071230 0.000000
O O13 0.669129 0.071251 0.500000
O O14 0.663757 0.131321 0.215905
O O15 0.173609 0.690546 0.000000
#
# Coordination Sequence:
#
# PCOD9545720 Si02
#       6
#    16  16  16  16  16  16
#     4   8  13  21  35  57  84 112 145 183 218 259
#     4  10  20  35  54  73  93 121 158 194 230 274
#     4   8  14  26  44  66  93 124 159 199 239 277
#     4   9  16  26  44  70  94 119 155 196 235 274
#     4   9  18  31  47  68  95 124 150 184 235 285
#     4   8  13  23  38  56  82 116 147 173 211 266
#
# _framework density 21.818532000000001
#
# number of rings (size 3 to 8) (size 9 to 14) (size 15 to 20)
#    0.000    3.333    0.000    1.500    0.000    1.333 
#    0.000    1.667    0.000    7.000    0.000   15.167 
#    0.000    0.000    0.000    0.000    0.000    0.000 
#
# Total GULP energy -267254.334109 kJ/mol
# GULP energy per Si atom -5567.798627 kJ/mol
# Density = 2.176887 g / cm^3
# Si number density = 21.818532 Si / 1000 Ang^3
#
#
#
# Elastic Constant Matrix: (Units=GPa)
#
#
# Indices 1 2 3 4 5 6 
#
# 1 49.4679 31.4217 -2.8985 0.0000 0.0000 0.2369
# 2 31.4217 49.4679 -2.8985 0.0000 0.0000 -0.2369
# 3 -2.8985 -2.8985 67.6159 0.0000 0.0000 0.0000
# 4 0.0000 0.0000 0.0000 13.7646 0.0000 0.0000
# 5 0.0000 0.0000 0.0000 0.0000 13.7646 0.0000
# 6 0.2369 -0.2369 0.0000 0.0000 0.0000 24.4001
#
#
#
# Elastic Compliance Matrix: (Units=1/GPa)
#
#
# Indices 1 2 3 4 5 6 
#
# 1 0.033914 -0.021514 0.000532 0.000000 0.000000 -0.000538
# 2 -0.021514 0.033914 0.000532 0.000000 0.000000 0.000538
# 3 0.000532 0.000532 0.014835 0.000000 0.000000 0.000000
# 4 0.000000 0.000000 0.000000 0.072650 0.000000 0.000000
# 5 0.000000 0.000000 0.000000 0.000000 0.072650 0.000000
# 6 -0.000538 0.000538 0.000000 0.000000 0.000000 0.040994
#
#
# Mechanical properties :
#
#
# Convention : Reuss Voigt Hill
#
# Bulk Modulus (GPa) = 23.94492 24.20015 24.07254
# Shear Modulus (GPa) = 15.44262 19.78098 17.61180
#
# Velocity S-wave (km/s) = 2.66329 3.01427 2.84420
# Velocity P-wave (km/s) = 4.52282 4.81976 4.67365
#
# Compressibility (1/GPa) = 0.04176251
#
# Stress axis : x y z
#
# Youngs Moduli (GPa) = 29.48624 29.48624 67.40821
#
# Poissons Ratio (x) = 0.63435 -0.03583
# Poissons Ratio (y) = 0.63435 -0.03583
# Poissons Ratio (z) = -0.01567 -0.01567
#
# Static dielectric constant tensor:
#      x y z
#    x 1.665150 0.000000 0.000000 
#    y 0.000000 1.665150 0.000000 
#    z 0.000000 0.000000 1.841170 
# 
# From -- ./inp_files/1433.got.cif
#   From: 2010.05.17/outbox.cif.g08.bks.cpg/sg87_1_cif.got.tgz:1433.got - 2010.06.03 19:07:00.
