data_PCOD9545030
_publ_section_title
;
Structure prediction by ZEFSAII (Michael W. Deem and Ramdas Pophale) SiO2 
 PCOD9545030
Probable space group: P 42/N
;
_chemical_formula_sum "Si O2"
_cell_formula_units_Z 30
_cell_length_a 10.544674
_cell_length_b 10.544674
_cell_length_c 12.520583
_cell_angle_alpha 90.000000
_cell_angle_beta 90.000000
_cell_angle_gamma 90.000000
_cell_volume 1392.165499
_symmetry_space_group_name_H-M "P 42/N"
_symmetry_group_IT_number 86
_space_group.IT_coordinate_system_code '2'
_symmetry_cell_setting 'tetragonal'
loop_
_space_group_symop_operation_xyz
x,y,z
-y,1/2+x,1/2+z
1/2-x,1/2-y,z
1/2+y,-x,1/2+z
-x,-y,-z
y,1/2-x,1/2-z
1/2+x,1/2+y,-z
1/2-y,x,1/2-z
loop_
_atom_site_type_symbol
_atom_site_label
_atom_site_fract_x
_atom_site_fract_y
_atom_site_fract_z
Si Si1 0.850680 0.491487 0.750992
Si Si2 0.847982 0.492431 0.996623
Si Si3 0.250000 0.750000 0.378618
Si Si4 0.250000 0.250000 0.250000
Si Si5 0.888979 0.875840 0.293527
O O1 0.797252 0.366773 0.694115
O O2 0.796839 0.618505 0.695036
O O3 0.003475 0.475191 0.761821
O O4 0.806931 0.504275 0.874636
O O5 0.798724 0.362078 0.046122
O O6 0.817175 0.592860 0.088578
O O7 0.000000 0.500000 0.000000
O O8 0.916789 0.756531 0.218161
#
# Coordination Sequence:
#
# PCOD9545030 Si02
#       5
#     8   8   4   2   8
#     4  11  24  44  68 100 145 187 234 294 369 417
#     4  10  22  41  69 104 139 184 245 302 345 445
#     4  12  22  46  74  98 140 202 236 290 382 428
#     4  12  28  44  68 104 150 184 228 320 352 428
#     4  10  20  39  69 101 134 183 238 291 354 427
#
# _framework density 21.549163
#
# number of rings (size 3 to 8) (size 9 to 14) (size 15 to 20)
#    0.000    1.333    2.667    4.000    0.000    2.133 
#    0.000    1.333    0.000    0.000    0.000    0.000 
#    0.000    0.000    0.000    0.000    0.000    0.000 
#
# Total GULP energy -167237.573924 kJ/mol
# GULP energy per Si atom -5574.585797 kJ/mol
# Density = 2.150012 g / cm^3
# Si number density = 21.549163 Si / 1000 Ang^3
#
#
#
# Elastic Constant Matrix: (Units=GPa)
#
#
# Indices 1 2 3 4 5 6 
#
# 1 133.8835 45.5140 34.5091 0.0000 0.0000 -9.7474
# 2 45.5140 133.8835 34.5091 0.0000 0.0000 9.7474
# 3 34.5091 34.5091 110.9676 0.0000 0.0000 0.0000
# 4 0.0000 0.0000 0.0000 6.5486 0.0000 0.0000
# 5 0.0000 0.0000 0.0000 0.0000 6.5486 0.0000
# 6 -9.7474 9.7474 0.0000 0.0000 0.0000 45.3498
#
#
#
# Elastic Compliance Matrix: (Units=1/GPa)
#
#
# Indices 1 2 3 4 5 6 
#
# 1 0.009106 -0.002774 -0.001969 0.000000 0.000000 0.002553
# 2 -0.002774 0.009106 -0.001969 0.000000 0.000000 -0.002553
# 3 -0.001969 -0.001969 0.010236 0.000000 0.000000 0.000000
# 4 0.000000 0.000000 0.000000 0.152705 0.000000 0.000000
# 5 0.000000 0.000000 0.000000 0.000000 0.152705 0.000000
# 6 0.002553 -0.002553 0.000000 0.000000 0.000000 0.023148
#
#
# Mechanical properties :
#
#
# Convention : Reuss Voigt Hill
#
# Bulk Modulus (GPa) = 66.56210 67.53322 67.04766
# Shear Modulus (GPa) = 13.31782 29.30289 21.31035
#
# Velocity S-wave (km/s) = 2.48870 3.69157 3.14812
# Velocity P-wave (km/s) = 6.26208 7.04112 6.66300
#
# Compressibility (1/GPa) = 0.01502357
#
# Stress axis : x y z
#
# Youngs Moduli (GPa) = 109.82274 109.82274 97.69114
#
# Poissons Ratio (x) = 0.30463 0.19236
# Poissons Ratio (y) = 0.30463 0.19236
# Poissons Ratio (z) = 0.21625 0.21625
#
# Static dielectric constant tensor:
#      x y z
#    x 1.789740 0.000000 0.000000 
#    y 0.000000 1.789740 0.000000 
#    z 0.000000 0.000000 1.928570 
# 
# From -- ./inp_files/1823.got.cif
#   From: 2010.05.17/outbox.cif.g08.bks.cpg/sg86_1_cif.got.tgz:1823.got - 2010.06.03 19:03:11.
