data_PCOD9545109
_publ_section_title
;
Structure prediction by ZEFSAII (Michael W. Deem and Ramdas Pophale) SiO2 
 PCOD9545109
Probable space group: P 42/N
;
_chemical_formula_sum "Si O2"
_cell_formula_units_Z 56
_cell_length_a 13.770256
_cell_length_b 13.770256
_cell_length_c 11.875895
_cell_angle_alpha 90.000000
_cell_angle_beta 90.000000
_cell_angle_gamma 90.000000
_cell_volume 2251.906620
_symmetry_space_group_name_H-M "P 42/N"
_symmetry_group_IT_number 86
_space_group.IT_coordinate_system_code '2'
_symmetry_cell_setting 'tetragonal'
loop_
_space_group_symop_operation_xyz
x,y,z
-y,1/2+x,1/2+z
1/2-x,1/2-y,z
1/2+y,-x,1/2+z
-x,-y,-z
y,1/2-x,1/2-z
1/2+x,1/2+y,-z
1/2-y,x,1/2-z
loop_
_atom_site_type_symbol
_atom_site_label
_atom_site_fract_x
_atom_site_fract_y
_atom_site_fract_z
Si Si1 0.353011 0.150076 0.485292
Si Si2 0.347878 0.576696 0.826277
Si Si3 0.553011 0.676275 0.439029
Si Si4 0.439102 0.836654 0.639167
Si Si5 0.254971 0.529450 0.385766
Si Si6 0.380407 0.631993 0.573831
Si Si7 0.957600 0.893568 0.198713
O O1 0.357061 0.266481 0.505668
O O2 0.464007 0.140858 0.433767
O O3 0.288649 0.076490 0.412837
O O4 0.337172 0.109874 0.611954
O O5 0.254731 0.521606 0.877539
O O6 0.386217 0.673150 0.884420
O O7 0.342576 0.597293 0.693877
O O8 0.437915 0.503959 0.835245
O O9 0.494759 0.623270 0.538594
O O10 0.574434 0.614974 0.328021
O O11 0.473411 0.798936 0.761034
O O12 0.376219 0.749826 0.584528
O O13 0.376913 0.931587 0.665964
O O14 0.329368 0.570433 0.477050
#
# Coordination Sequence:
#
# PCOD9545109 Si02
#       7
#     8   8   8   8   8   8   8
#     4  10  22  39  68  91 132 184 224 274 349 416
#     4  10  23  39  61  93 126 179 223 270 341 418
#     4  10  22  40  60  98 127 167 227 280 326 408
#     4  10  21  39  62  99 131 175 230 275 342 419
#     4  11  21  40  63  96 135 178 221 280 349 418
#     4  10  22  39  58  96 134 165 216 286 343 388
#     4  11  20  41  68  91 129 181 229 271 336 423
#
# _framework density 24.867816000000001
#
# number of rings (size 3 to 8) (size 9 to 14) (size 15 to 20)
#    0.000    1.714    2.857    1.286    4.000    1.143 
#    2.571    0.000    0.000   20.143    0.000    0.000 
#    0.000    0.000    0.000    0.000    0.000    0.000 
#
# Total GULP energy -312553.407226 kJ/mol
# GULP energy per Si atom -5581.310843 kJ/mol
# Density = 2.481122 g / cm^3
# Si number density = 24.867816 Si / 1000 Ang^3
#
#
#
# Elastic Constant Matrix: (Units=GPa)
#
#
# Indices 1 2 3 4 5 6 
#
# 1 68.0501 30.9042 12.2073 0.0000 0.0000 6.3968
# 2 30.9042 68.0501 12.2073 0.0000 0.0000 -6.3968
# 3 12.2073 12.2073 92.3542 0.0000 0.0000 0.0000
# 4 0.0000 0.0000 0.0000 32.6370 0.0000 0.0000
# 5 0.0000 0.0000 0.0000 0.0000 32.6370 0.0000
# 6 6.3968 -6.3968 0.0000 0.0000 0.0000 26.4101
#
#
#
# Elastic Compliance Matrix: (Units=1/GPa)
#
#
# Indices 1 2 3 4 5 6 
#
# 1 0.019909 -0.009462 -0.001381 0.000000 0.000000 -0.007114
# 2 -0.009462 0.019909 -0.001381 0.000000 0.000000 0.007114
# 3 -0.001381 -0.001381 0.011193 0.000000 0.000000 0.000000
# 4 0.000000 0.000000 0.000000 0.030640 0.000000 0.000000
# 5 0.000000 0.000000 0.000000 0.000000 0.030640 0.000000
# 6 -0.007114 0.007114 0.000000 0.000000 0.000000 0.041310
#
#
# Mechanical properties :
#
#
# Convention : Reuss Voigt Hill
#
# Bulk Modulus (GPa) = 37.64712 37.67688 37.66200
# Shear Modulus (GPa) = 26.75189 29.87921 28.31555
#
# Velocity S-wave (km/s) = 3.28344 3.47006 3.37804
# Velocity P-wave (km/s) = 5.43566 5.58917 5.51295
#
# Compressibility (1/GPa) = 0.02656245
#
# Stress axis : x y z
#
# Youngs Moduli (GPa) = 50.22934 50.22934 89.34232
#
# Poissons Ratio (x) = 0.47529 0.12336
# Poissons Ratio (y) = 0.47529 0.12336
# Poissons Ratio (z) = 0.06936 0.06936
#
# Static dielectric constant tensor:
#      x y z
#    x 2.012760 0.000000 0.000000 
#    y 0.000000 2.012760 0.000000 
#    z 0.000000 0.000000 1.983930 
# 
# From -- ./inp_files/2399.got.cif
#   From: 2010.05.17/outbox.cif.g08.bks.cpg/sg86_2_cif.got.tgz:2399.got - 2010.06.03 19:03:11.
