data_PCOD9545750
_publ_section_title
;
Structure prediction by ZEFSAII (Michael W. Deem and Ramdas Pophale) SiO2 
 PCOD9545750
Probable space group: I 4/M
;
_chemical_formula_sum "Si O2"
_cell_formula_units_Z 104
_cell_length_a 24.645163
_cell_length_b 24.645163
_cell_length_c 9.643270
_cell_angle_alpha 90.000000
_cell_angle_beta 90.000000
_cell_angle_gamma 90.000000
_cell_volume 5857.168477
_symmetry_space_group_name_H-M "I 4/M"
_symmetry_group_IT_number 87
_symmetry_cell_setting 'tetragonal'
loop_
_space_group_symop_operation_xyz
x,y,z
-y,x,z
-x,-y,z
y,-x,z
-x,-y,-z
y,-x,-z
x,y,-z
-y,x,-z
1/2+x,1/2+y,1/2+z
1/2-y,1/2+x,1/2+z
1/2-x,1/2-y,1/2+z
1/2+y,1/2-x,1/2+z
1/2-x,1/2-y,1/2-z
1/2+y,1/2-x,1/2-z
1/2+x,1/2+y,1/2-z
1/2-y,1/2+x,1/2-z
loop_
_atom_site_type_symbol
_atom_site_label
_atom_site_fract_x
_atom_site_fract_y
_atom_site_fract_z
Si Si1 0.858362 0.561473 0.337572
Si Si2 0.428667 0.245724 0.837969
Si Si3 0.858174 0.060945 0.781470
Si Si4 0.569318 0.860748 0.663205
Si Si5 0.753547 0.560479 0.841652
Si Si6 0.416218 0.534305 0.000000
Si Si7 0.936635 0.156958 0.147338
O O1 0.859914 0.577736 0.500000
O O2 0.863037 0.496147 0.333224
O O3 0.905015 0.589009 0.245671
O O4 0.802222 0.576731 0.260443
O O5 0.414366 0.298761 0.746903
O O6 0.413260 0.192359 0.751224
O O7 0.494616 0.246677 0.843908
O O8 0.410199 0.246449 0.000000
O O9 0.881632 0.048226 0.631475
O O10 0.900440 0.103001 0.846351
O O11 0.854895 0.001233 0.848652
O O12 0.585193 0.858877 0.500000
O O13 0.696282 0.576854 0.774746
O O14 0.760556 0.579200 0.000000
O O15 0.432187 0.471571 0.000000
O O16 0.925894 0.185271 0.000000
#
# Coordination Sequence:
#
# PCOD9545750 Si02
#       7
#    16  16  16  16  16   8  16
#     4  10  20  36  57  82 114 144 174 213 257 309
#     4   9  18  32  53  76 101 135 178 223 262 310
#     4  11  21  33  53  73 105 139 183 226 273 324
#     4  10  21  35  55  82 112 143 175 212 258 312
#     4   9  19  34  55  77 101 137 180 221 261 312
#     4  11  20  32  50  76 106 144 182 229 277 335
#     4  11  23  35  49  74 107 142 179 222 274 323
#
# _framework density 17.756019999999999
#
# number of rings (size 3 to 8) (size 9 to 14) (size 15 to 20)
#    0.000    1.923    2.308    1.846    2.154    6.769 
#    0.000    2.308    0.000    0.923    0.000    0.000 
#    0.000    0.000    0.000    0.000    0.000    0.000 
#
# Total GULP energy -289836.325676 kJ/mol
# GULP energy per Si atom -5573.775494 kJ/mol
# Density = 1.771561 g / cm^3
# Si number density = 17.756020 Si / 1000 Ang^3
#
#
#
# Elastic Constant Matrix: (Units=GPa)
#
#
# Indices 1 2 3 4 5 6 
#
# 1 52.6270 22.7202 36.9032 0.0000 0.0000 -0.3900
# 2 22.7202 52.6270 36.9032 0.0000 0.0000 0.3900
# 3 36.9032 36.9032 150.3816 0.0000 0.0000 0.0000
# 4 0.0000 0.0000 0.0000 -13.2344 0.0000 0.0000
# 5 0.0000 0.0000 0.0000 0.0000 -13.2344 0.0000
# 6 -0.3900 0.3900 0.0000 0.0000 0.0000 4.2326
#
#
#
# Elastic Compliance Matrix: (Units=1/GPa)
#
#
# Indices 1 2 3 4 5 6 
#
# 1 0.025495 -0.008023 -0.004288 0.000000 0.000000 0.003088
# 2 -0.008023 0.025495 -0.004288 0.000000 0.000000 -0.003088
# 3 -0.004288 -0.004288 0.008754 0.000000 0.000000 0.000000
# 4 0.000000 0.000000 0.000000 -0.075561 0.000000 0.000000
# 5 0.000000 0.000000 0.000000 0.000000 -0.075561 0.000000
# 6 0.003088 -0.003088 0.000000 0.000000 0.000000 0.236832
#
#
# Mechanical properties :
#
#
# Convention : Reuss Voigt Hill
#
# Bulk Modulus (GPa) = 37.66838 49.85432 43.76135
# Shear Modulus (GPa) = 26.66679 6.16002 16.41340
#
# Velocity S-wave (km/s) = 3.87957 1.86461 3.04367
# Velocity P-wave (km/s) = 6.42873 5.72487 6.08698
#
# Compressibility (1/GPa) = 0.02654746
#
# Stress axis : x y z
#
# Youngs Moduli (GPa) = 39.22374 39.22374 114.23293
#
# Poissons Ratio (x) = 0.31469 0.48978
# Poissons Ratio (y) = 0.31469 0.48978
# Poissons Ratio (z) = 0.16817 0.16817
#
# Static dielectric constant tensor:
#      x y z
#    x 1.614930 0.000000 0.000000 
#    y 0.000000 1.614930 0.000000 
#    z 0.000000 0.000000 1.607610 
# 
# From -- ./inp_files/1627.got.cif
#   From: 2010.05.17/outbox.cif.g08.bks.cpg/sg87_1_cif.got.tgz:1627.got - 2010.06.03 19:07:00.
