data_PCOD9545611
_publ_section_title
;
Structure prediction by ZEFSAII (Michael W. Deem and Ramdas Pophale) SiO2 
 PCOD9545611
Probable space group: I 4/M
;
_chemical_formula_sum "Si O2"
_cell_formula_units_Z 96
_cell_length_a 15.731703
_cell_length_b 15.731703
_cell_length_c 20.663264
_cell_angle_alpha 90.000000
_cell_angle_beta 90.000000
_cell_angle_gamma 90.000000
_cell_volume 5113.878458
_symmetry_space_group_name_H-M "I 4/M"
_symmetry_group_IT_number 87
_symmetry_cell_setting 'tetragonal'
loop_
_space_group_symop_operation_xyz
x,y,z
-y,x,z
-x,-y,z
y,-x,z
-x,-y,-z
y,-x,-z
x,y,-z
-y,x,-z
1/2+x,1/2+y,1/2+z
1/2-y,1/2+x,1/2+z
1/2-x,1/2-y,1/2+z
1/2+y,1/2-x,1/2+z
1/2-x,1/2-y,1/2-z
1/2+y,1/2-x,1/2-z
1/2+x,1/2+y,1/2-z
1/2-y,1/2+x,1/2-z
loop_
_atom_site_type_symbol
_atom_site_label
_atom_site_fract_x
_atom_site_fract_y
_atom_site_fract_z
Si Si1 0.136025 0.958279 0.751229
Si Si2 0.772351 0.160777 0.667414
Si Si3 0.402340 0.401783 0.422321
Si Si4 0.199942 0.513578 0.678926
Si Si5 0.134316 0.717895 0.922721
Si Si6 0.867601 0.319590 0.718200
O O1 0.179837 0.926839 0.684643
O O2 0.053915 0.897929 0.757368
O O3 0.207593 0.945922 0.805682
O O4 0.716321 0.167337 0.602970
O O5 0.839377 0.237864 0.676720
O O6 0.702048 0.173528 0.724079
O O7 0.499826 0.385958 0.404671
O O8 0.403826 0.395106 0.500000
O O9 0.317493 0.351510 0.403488
O O10 0.194022 0.450816 0.617709
O O11 0.137169 0.593307 0.678031
O O12 0.187232 0.455588 0.743042
O O13 0.122412 0.711114 0.000000
#
# Coordination Sequence:
#
# PCOD9545611 Si02
#       6
#    16  16  16  16  16  16
#     4  10  19  33  58  88 111 141 187 249 314 343
#     4   9  18  34  52  76 114 147 190 243 285 339
#     4   8  15  27  40  61 101 149 192 220 245 308
#     4  10  20  33  54  81 116 150 188 241 285 347
#     4  10  21  33  51  79 116 163 194 220 275 354
#     4   9  18  33  52  78 109 145 191 240 290 325
#
# _framework density 18.772445000000001
#
# number of rings (size 3 to 8) (size 9 to 14) (size 15 to 20)
#    0.000    2.667    1.667    0.500    4.667    0.333 
#    0.000    1.667    0.000    1.000    0.000   16.333 
#    0.000    0.000    0.000    0.000    0.000    0.000 
#
# Total GULP energy -267327.173458 kJ/mol
# GULP energy per Si atom -5569.316114 kJ/mol
# Density = 1.872972 g / cm^3
# Si number density = 18.772445 Si / 1000 Ang^3
#
#
#
# Elastic Constant Matrix: (Units=GPa)
#
#
# Indices 1 2 3 4 5 6 
#
# 1 57.6497 19.9551 36.0294 0.0000 0.0000 4.2481
# 2 19.9551 57.6497 36.0294 0.0000 0.0000 -4.2481
# 3 36.0294 36.0294 91.0951 0.0000 0.0000 0.0000
# 4 0.0000 0.0000 0.0000 22.3195 0.0000 0.0000
# 5 0.0000 0.0000 0.0000 0.0000 22.3195 0.0000
# 6 4.2481 -4.2481 0.0000 0.0000 0.0000 30.1740
#
#
#
# Elastic Compliance Matrix: (Units=1/GPa)
#
#
# Indices 1 2 3 4 5 6 
#
# 1 0.023882 -0.003517 -0.008055 0.000000 0.000000 -0.003857
# 2 -0.003517 0.023882 -0.008055 0.000000 0.000000 0.003857
# 3 -0.008055 -0.008055 0.017349 0.000000 0.000000 0.000000
# 4 0.000000 0.000000 0.000000 0.044804 0.000000 0.000000
# 5 0.000000 0.000000 0.000000 0.000000 0.044804 0.000000
# 6 -0.003857 0.003857 0.000000 0.000000 0.000000 0.034227
#
#
# Mechanical properties :
#
#
# Convention : Reuss Voigt Hill
#
# Bulk Modulus (GPa) = 38.66948 43.38026 41.02487
# Shear Modulus (GPa) = 21.11319 22.58798 21.85058
#
# Velocity S-wave (km/s) = 3.35728 3.47256 3.41540
# Velocity P-wave (km/s) = 5.97262 6.26393 6.12001
#
# Compressibility (1/GPa) = 0.02586019
#
# Stress axis : x y z
#
# Youngs Moduli (GPa) = 41.87331 41.87331 57.64065
#
# Poissons Ratio (x) = 0.14726 0.46427
# Poissons Ratio (y) = 0.14726 0.46427
# Poissons Ratio (z) = 0.33727 0.33727
#
# Static dielectric constant tensor:
#      x y z
#    x 1.704120 0.000000 0.000000 
#    y 0.000000 1.704120 0.000000 
#    z 0.000000 0.000000 1.685570 
# 
# From -- ./inp_files/5413.got.cif
#   From: 2010.05.17/outbox.cif.g08.bks.cpg/sg87_3_cif.got.tgz:5413.got - 2010.06.03 19:07:00.
