data_PCOD9545562
_publ_section_title
;
Structure prediction by ZEFSAII (Michael W. Deem and Ramdas Pophale) SiO2 
 PCOD9545562
Probable space group: I 4/M
;
_chemical_formula_sum "Si O2"
_cell_formula_units_Z 72
_cell_length_a 21.065745
_cell_length_b 21.065745
_cell_length_c 10.137265
_cell_angle_alpha 90.000000
_cell_angle_beta 90.000000
_cell_angle_gamma 90.000000
_cell_volume 4498.569611
_symmetry_space_group_name_H-M "I 4/M"
_symmetry_group_IT_number 87
_symmetry_cell_setting 'tetragonal'
loop_
_space_group_symop_operation_xyz
x,y,z
-y,x,z
-x,-y,z
y,-x,z
-x,-y,-z
y,-x,-z
x,y,-z
-y,x,-z
1/2+x,1/2+y,1/2+z
1/2-y,1/2+x,1/2+z
1/2-x,1/2-y,1/2+z
1/2+y,1/2-x,1/2+z
1/2-x,1/2-y,1/2-z
1/2+y,1/2-x,1/2-z
1/2+x,1/2+y,1/2-z
1/2-y,1/2+x,1/2-z
loop_
_atom_site_type_symbol
_atom_site_label
_atom_site_fract_x
_atom_site_fract_y
_atom_site_fract_z
Si Si1 0.130882 0.381513 0.500000
Si Si2 0.310663 0.704155 0.246031
Si Si3 0.263695 0.631110 0.000000
Si Si4 0.992412 0.690646 0.500000
Si Si5 0.936704 0.285736 0.227339
Si Si6 0.304081 0.486266 0.500000
Si Si7 0.648529 0.371652 0.500000
O O1 0.056100 0.249283 0.500000
O O2 0.157025 0.415644 0.630390
O O3 0.055840 0.369160 0.500000
O O4 0.250000 0.750000 0.250000
O O5 0.300036 0.656683 0.125739
O O6 0.373549 0.746701 0.234989
O O7 0.319112 0.661861 0.375272
O O8 0.190989 0.658410 0.000000
O O9 0.030577 0.693315 0.363210
O O10 0.978191 0.240235 0.130546
O O11 0.339011 0.553468 0.500000
O O12 0.351259 0.425612 0.500000
#
# Coordination Sequence:
#
# PCOD9545562 Si02
#       7
#     8  16   8   8  16   8   8
#     4   9  20  36  50  76 104 138 166 223 255 316
#     4  11  18  31  52  80 108 130 167 215 274 316
#     4  10  19  31  49  76 108 130 161 210 261 315
#     4  10  20  34  53  76 102 139 173 204 264 325
#     4  10  19  35  54  77 109 137 173 218 268 317
#     4   9  20  34  51  75 106 145 179 220 256 308
#     4  10  21  33  51  75 107 145 181 214 259 313
#
# _framework density 16.005088000000001
#
# number of rings (size 3 to 8) (size 9 to 14) (size 15 to 20)
#    0.667    1.333    2.222    3.333    0.000    0.222 
#    0.000    2.222    0.000    2.000    0.000    0.000 
#    0.000   16.000    0.000    0.000    0.000    0.000 
#
# Total GULP energy -200531.492112 kJ/mol
# GULP energy per Si atom -5570.319225 kJ/mol
# Density = 1.596866 g / cm^3
# Si number density = 16.005088 Si / 1000 Ang^3
#
#
#
# Elastic Constant Matrix: (Units=GPa)
#
#
# Indices 1 2 3 4 5 6 
#
# 1 95.3192 48.1918 75.1660 0.0000 0.0000 -5.3944
# 2 48.1918 95.3192 75.1660 0.0000 0.0000 5.3944
# 3 75.1660 75.1660 184.5063 0.0000 0.0000 0.0000
# 4 0.0000 0.0000 0.0000 24.8341 0.0000 0.0000
# 5 0.0000 0.0000 0.0000 0.0000 24.8341 0.0000
# 6 -5.3944 5.3944 0.0000 0.0000 0.0000 15.2410
#
#
#
# Elastic Compliance Matrix: (Units=1/GPa)
#
#
# Indices 1 2 3 4 5 6 
#
# 1 0.017623 -0.005467 -0.004952 0.000000 0.000000 0.008172
# 2 -0.005467 0.017623 -0.004952 0.000000 0.000000 -0.008172
# 3 -0.004952 -0.004952 0.009455 0.000000 0.000000 0.000000
# 4 0.000000 0.000000 0.000000 0.040267 0.000000 0.000000
# 5 0.000000 0.000000 0.000000 0.000000 0.040267 0.000000
# 6 0.008172 -0.008172 0.000000 0.000000 0.000000 0.071398
#
#
# Mechanical properties :
#
#
# Convention : Reuss Voigt Hill
#
# Bulk Modulus (GPa) = 71.64571 85.79914 78.72243
# Shear Modulus (GPa) = 21.54916 24.75655 23.15286
#
# Velocity S-wave (km/s) = 3.67331 3.93720 3.80754
# Velocity P-wave (km/s) = 7.92795 8.62511 8.28387
#
# Compressibility (1/GPa) = 0.01395757
#
# Stress axis : x y z
#
# Youngs Moduli (GPa) = 56.74488 56.74488 105.76778
#
# Poissons Ratio (x) = 0.31024 0.52376
# Poissons Ratio (y) = 0.31024 0.52376
# Poissons Ratio (z) = 0.28100 0.28100
#
# Static dielectric constant tensor:
#      x y z
#    x 1.528420 0.000000 0.000000 
#    y 0.000000 1.528420 0.000000 
#    z 0.000000 0.000000 1.507460 
# 
# From -- ./inp_files/2528.got.cif
#   From: 2010.05.17/outbox.cif.g08.bks.cpg/sg87_2_cif.got.tgz:2528.got - 2010.06.03 19:07:00.
