data_PCOD9545249
_publ_section_title
;
Structure prediction by ZEFSAII (Michael W. Deem and Ramdas Pophale) SiO2 
 PCOD9545249
Probable space group: P 42/N
;
_chemical_formula_sum "Si O2"
_cell_formula_units_Z 40
_cell_length_a 8.979749
_cell_length_b 8.979749
_cell_length_c 21.013834
_cell_angle_alpha 90.000000
_cell_angle_beta 90.000000
_cell_angle_gamma 90.000000
_cell_volume 1694.469251
_symmetry_space_group_name_H-M "P 42/N"
_symmetry_group_IT_number 86
_space_group.IT_coordinate_system_code '2'
_symmetry_cell_setting 'tetragonal'
loop_
_space_group_symop_operation_xyz
x,y,z
-y,1/2+x,1/2+z
1/2-x,1/2-y,z
1/2+y,-x,1/2+z
-x,-y,-z
y,1/2-x,1/2-z
1/2+x,1/2+y,-z
1/2-y,x,1/2-z
loop_
_atom_site_type_symbol
_atom_site_label
_atom_site_fract_x
_atom_site_fract_y
_atom_site_fract_z
Si Si1 0.313509 0.892674 0.887458
Si Si2 0.395936 0.656068 0.119811
Si Si3 0.201845 0.404165 0.397507
Si Si4 0.140692 0.088352 0.531098
Si Si5 0.269452 0.006269 0.754058
O O1 0.250000 0.750000 0.924672
O O2 0.475083 0.821884 0.871831
O O3 0.295438 0.039901 0.929275
O O4 0.237025 0.923219 0.819907
O O5 0.250000 0.750000 0.098886
O O6 0.412684 0.478684 0.105759
O O7 0.519396 0.755223 0.085076
O O8 0.408623 0.675625 0.195617
O O9 0.250000 0.250000 0.365988
O O10 0.249293 0.395278 0.471743
O O11 0.000000 0.000000 0.500000
O O12 0.125895 0.100191 0.732659
#
# Coordination Sequence:
#
# PCOD9545249 Si02
#       5
#     8   8   8   8   8
#     4  11  23  46  70 105 139 189 245 301 364 434
#     4  12  24  44  70 103 145 192 241 302 367 439
#     4  11  26  44  69 106 144 188 238 299 370 437
#     4  10  23  43  69 101 145 185 240 298 362 441
#     4  11  24  43  71 101 137 185 243 297 361 443
#
# _framework density 23.606209
#
# number of rings (size 3 to 8) (size 9 to 14) (size 15 to 20)
#    0.000    1.000    2.000    4.800    0.000    9.600 
#    0.000    0.000    0.000    0.000    0.000    0.000 
#    0.000    0.000    0.000    0.000    0.000    0.000 
#
# Total GULP energy -222842.433986 kJ/mol
# GULP energy per Si atom -5571.060850 kJ/mol
# Density = 2.355248 g / cm^3
# Si number density = 23.606209 Si / 1000 Ang^3
#
#
#
# Elastic Constant Matrix: (Units=GPa)
#
#
# Indices 1 2 3 4 5 6 
#
# 1 114.3358 34.8298 12.0475 0.0000 0.0000 -13.5292
# 2 34.8298 114.3358 12.0475 0.0000 0.0000 13.5292
# 3 12.0475 12.0475 102.0984 0.0000 0.0000 0.0000
# 4 0.0000 0.0000 0.0000 -47.0345 0.0000 0.0000
# 5 0.0000 0.0000 0.0000 0.0000 -47.0345 0.0000
# 6 -13.5292 13.5292 0.0000 0.0000 0.0000 39.4390
#
#
#
# Elastic Compliance Matrix: (Units=1/GPa)
#
#
# Indices 1 2 3 4 5 6 
#
# 1 0.010537 -0.003703 -0.000806 0.000000 0.000000 0.004885
# 2 -0.003703 0.010537 -0.000806 0.000000 0.000000 -0.004885
# 3 -0.000806 -0.000806 0.009985 0.000000 0.000000 0.000000
# 4 0.000000 0.000000 0.000000 -0.021261 0.000000 0.000000
# 5 0.000000 0.000000 0.000000 0.000000 -0.021261 0.000000
# 6 0.004885 -0.004885 0.000000 0.000000 0.000000 0.028707
#
#
# Mechanical properties :
#
#
# Convention : Reuss Voigt Hill
#
# Bulk Modulus (GPa) = 48.95359 49.84662 49.40011
# Shear Modulus (GPa) = 144.15400 7.19700 75.67550
#
# Velocity S-wave (km/s) = 7.82296 1.74797 5.66807
# Velocity P-wave (km/s) = 10.11834 5.02350 7.98801
#
# Compressibility (1/GPa) = 0.02042751
#
# Stress axis : x y z
#
# Youngs Moduli (GPa) = 94.90189 94.90189 100.15232
#
# Poissons Ratio (x) = 0.35142 0.08077
# Poissons Ratio (y) = 0.35142 0.08077
# Poissons Ratio (z) = 0.07653 0.07653
#
# Static dielectric constant tensor:
#      x y z
#    x 2.154860 0.000000 0.000000 
#    y 0.000000 2.154860 0.000000 
#    z 0.000000 0.000000 1.864100 
# 
# From -- ./inp_files/4453.got.cif
#   From: 2010.05.17/outbox.cif.g08.bks.cpg/sg86_3_cif.got.tgz:4453.got - 2010.06.03 19:03:11.
