data_PCOD9545405
_publ_section_title
;
Structure prediction by ZEFSAII (Michael W. Deem and Ramdas Pophale) SiO2 
 PCOD9545405
Probable space group: P 42/N
;
_chemical_formula_sum "Si O2"
_cell_formula_units_Z 36
_cell_length_a 11.879650
_cell_length_b 11.879650
_cell_length_c 11.182166
_cell_angle_alpha 90.000000
_cell_angle_beta 90.000000
_cell_angle_gamma 90.000000
_cell_volume 1578.095300
_symmetry_space_group_name_H-M "P 42/N"
_symmetry_group_IT_number 86
_space_group.IT_coordinate_system_code '2'
_symmetry_cell_setting 'tetragonal'
loop_
_space_group_symop_operation_xyz
x,y,z
-y,1/2+x,1/2+z
1/2-x,1/2-y,z
1/2+y,-x,1/2+z
-x,-y,-z
y,1/2-x,1/2-z
1/2+x,1/2+y,-z
1/2-y,x,1/2-z
loop_
_atom_site_type_symbol
_atom_site_label
_atom_site_fract_x
_atom_site_fract_y
_atom_site_fract_z
Si Si1 0.026654 0.468783 0.638139
Si Si2 0.028914 0.632565 0.991689
Si Si3 0.250000 0.750000 0.383019
Si Si4 0.634224 0.626889 0.724684
Si Si5 0.970085 0.264604 0.754865
O O1 0.134494 0.519890 0.708799
O O2 0.000000 0.500000 0.500000
O O3 0.925530 0.525694 0.713184
O O4 0.039996 0.333769 0.655166
O O5 0.152732 0.684530 0.958728
O O6 0.946163 0.672017 0.888068
O O7 0.000629 0.677685 0.121088
O O8 0.000000 0.500000 0.000000
O O9 0.153845 0.708423 0.293663
O O10 0.618608 0.756691 0.689984
#
# Coordination Sequence:
#
# PCOD9545405 Si02
#       5
#     8   8   4   8   8
#     4  12  27  47  72 109 154 199 262 327 409 492
#     4  12  25  45  73 109 150 197 264 328 399 487
#     4  12  24  44  74 110 148 204 256 334 406 492
#     4  11  24  46  73 103 146 198 252 318 394 482
#     4  12  25  45  72 108 148 199 256 325 398 487
#
# _framework density 22.812308999999999
#
# number of rings (size 3 to 8) (size 9 to 14) (size 15 to 20)
#    0.000    0.222    4.444    4.667    0.000    5.778 
#    0.000    0.000    0.000    0.000    0.000    0.000 
#    0.000    0.000    0.000    0.000    0.000    0.000 
#
# Total GULP energy -200638.342263 kJ/mol
# GULP energy per Si atom -5573.287285 kJ/mol
# Density = 2.276039 g / cm^3
# Si number density = 22.812309 Si / 1000 Ang^3
#
#
#
# Elastic Constant Matrix: (Units=GPa)
#
#
# Indices 1 2 3 4 5 6 
#
# 1 117.6029 38.3053 18.4250 0.0000 0.0000 -3.7855
# 2 38.3053 117.6029 18.4250 0.0000 0.0000 3.7855
# 3 18.4250 18.4250 105.2386 0.0000 0.0000 0.0000
# 4 0.0000 0.0000 0.0000 23.3051 0.0000 0.0000
# 5 0.0000 0.0000 0.0000 0.0000 23.3051 0.0000
# 6 -3.7855 3.7855 0.0000 0.0000 0.0000 30.5761
#
#
#
# Elastic Compliance Matrix: (Units=1/GPa)
#
#
# Indices 1 2 3 4 5 6 
#
# 1 0.009726 -0.003035 -0.001171 0.000000 0.000000 0.001580
# 2 -0.003035 0.009726 -0.001171 0.000000 0.000000 -0.001580
# 3 -0.001171 -0.001171 0.009912 0.000000 0.000000 0.000000
# 4 0.000000 0.000000 0.000000 0.042909 0.000000 0.000000
# 5 0.000000 0.000000 0.000000 0.000000 0.042909 0.000000
# 6 0.001580 -0.001580 0.000000 0.000000 0.000000 0.033096
#
#
# Mechanical properties :
#
#
# Convention : Reuss Voigt Hill
#
# Bulk Modulus (GPa) = 53.73893 54.52834 54.13364
# Shear Modulus (GPa) = 30.25926 33.12321 31.69124
#
# Velocity S-wave (km/s) = 3.64599 3.81463 3.73126
# Velocity P-wave (km/s) = 6.42903 6.58459 6.50727
#
# Compressibility (1/GPa) = 0.01860848
#
# Stress axis : x y z
#
# Youngs Moduli (GPa) = 102.81468 102.81468 100.88374
#
# Poissons Ratio (x) = 0.31208 0.11818
# Poissons Ratio (y) = 0.31208 0.11818
# Poissons Ratio (z) = 0.12044 0.12044
#
# Static dielectric constant tensor:
#      x y z
#    x 1.985410 0.000000 0.000000 
#    y 0.000000 1.985410 0.000000 
#    z 0.000000 0.000000 1.845710 
# 
# From -- ./inp_files/2054.got.cif
#   From: 2010.05.17/outbox.cif.g08.bks.cpg/sg86_2_cif.got.tgz:2054.got - 2010.06.03 19:03:11.
