data_PCOD9545988
_publ_section_title
;
Structure prediction by ZEFSAII (Michael W. Deem and Ramdas Pophale) SiO2 
 PCOD9545988
Probable space group: I 4/M
;
_chemical_formula_sum "Si O2"
_cell_formula_units_Z 112
_cell_length_a 15.150164
_cell_length_b 15.150164
_cell_length_c 23.173516
_cell_angle_alpha 90.000000
_cell_angle_beta 90.000000
_cell_angle_gamma 90.000000
_cell_volume 5318.958481
_symmetry_space_group_name_H-M "I 4/M"
_symmetry_group_IT_number 87
_symmetry_cell_setting 'tetragonal'
loop_
_space_group_symop_operation_xyz
x,y,z
-y,x,z
-x,-y,z
y,-x,z
-x,-y,-z
y,-x,-z
x,y,-z
-y,x,-z
1/2+x,1/2+y,1/2+z
1/2-y,1/2+x,1/2+z
1/2-x,1/2-y,1/2+z
1/2+y,1/2-x,1/2+z
1/2-x,1/2-y,1/2-z
1/2+y,1/2-x,1/2-z
1/2+x,1/2+y,1/2-z
1/2-y,1/2+x,1/2-z
loop_
_atom_site_type_symbol
_atom_site_label
_atom_site_fract_x
_atom_site_fract_y
_atom_site_fract_z
Si Si1 0.610588 0.317566 0.842843
Si Si2 0.585090 0.387525 0.720704
Si Si3 0.934192 0.738051 0.632164
Si Si4 0.325552 0.246716 0.665160
Si Si5 0.973885 0.139512 0.930594
Si Si6 0.139207 0.556182 0.254020
Si Si7 0.160584 0.724638 0.069042
O O1 0.574372 0.371647 0.788785
O O2 0.537428 0.259446 0.875142
O O3 0.667931 0.386804 0.878259
O O4 0.681963 0.251807 0.815539
O O5 0.618707 0.484239 0.702425
O O6 0.658231 0.323643 0.695332
O O7 0.928026 0.702377 0.698344
O O8 0.873695 0.673636 0.593971
O O9 0.410774 0.192819 0.689145
O O10 0.292203 0.269442 0.599854
O O11 0.935571 0.234582 0.915432
O O12 0.067419 0.099800 0.912779
O O13 0.977620 0.138448 0.000000
O O14 0.110745 0.452738 0.253702
O O15 0.171227 0.726070 0.000000
#
# Coordination Sequence:
#
# PCOD9545988 Si02
#       7
#    16  16  16  16  16  16  16
#     4  11  20  37  60  91 121 169 205 262 328 388
#     4  11  22  35  58  98 138 167 201 260 329 410
#     4  11  23  38  65  90 130 164 219 266 327 392
#     4  11  23  38  64  91 130 168 217 265 326 396
#     4   8  15  32  59  88 118 157 210 270 332 389
#     4  11  23  40  64  96 133 167 206 264 335 406
#     4  10  24  41  60  91 128 177 226 272 321 380
#
# _framework density 21.056754999999999
#
# number of rings (size 3 to 8) (size 9 to 14) (size 15 to 20)
#    0.000    1.571    4.286    0.857    2.000    2.571 
#    0.000    4.286    0.000    0.000    0.000    6.000 
#    0.000    0.000    0.000    0.000    0.000    0.000 
#
# Total GULP energy -311889.484443 kJ/mol
# GULP energy per Si atom -5569.455079 kJ/mol
# Density = 2.100883 g / cm^3
# Si number density = 21.056755 Si / 1000 Ang^3
#
#
#
# Elastic Constant Matrix: (Units=GPa)
#
#
# Indices 1 2 3 4 5 6 
#
# 1 79.0418 41.0748 17.2733 0.0000 0.0000 0.9988
# 2 41.0748 79.0418 17.2733 0.0000 0.0000 -0.9988
# 3 17.2733 17.2733 52.1015 0.0000 0.0000 0.0000
# 4 0.0000 0.0000 0.0000 23.0525 0.0000 0.0000
# 5 0.0000 0.0000 0.0000 0.0000 23.0525 0.0000
# 6 0.9988 -0.9988 0.0000 0.0000 0.0000 37.8211
#
#
#
# Elastic Compliance Matrix: (Units=1/GPa)
#
#
# Indices 1 2 3 4 5 6 
#
# 1 0.017789 -0.008586 -0.003051 0.000000 0.000000 -0.000697
# 2 -0.008586 0.017789 -0.003051 0.000000 0.000000 0.000697
# 3 -0.003051 -0.003051 0.021216 0.000000 0.000000 0.000000
# 4 0.000000 0.000000 0.000000 0.043379 0.000000 0.000000
# 5 0.000000 0.000000 0.000000 0.000000 0.043379 0.000000
# 6 -0.000697 0.000697 0.000000 0.000000 0.000000 0.026477
#
#
# Mechanical properties :
#
#
# Convention : Reuss Voigt Hill
#
# Bulk Modulus (GPa) = 36.47266 40.15864 38.31565
# Shear Modulus (GPa) = 23.97556 25.75615 24.86586
#
# Velocity S-wave (km/s) = 3.37800 3.50119 3.44015
# Velocity P-wave (km/s) = 5.70730 5.95462 5.83227
#
# Compressibility (1/GPa) = 0.02741780
#
# Stress axis : x y z
#
# Youngs Moduli (GPa) = 56.21439 56.21439 47.13351
#
# Poissons Ratio (x) = 0.48267 0.14380
# Poissons Ratio (y) = 0.48267 0.14380
# Poissons Ratio (z) = 0.17151 0.17151
#
# Static dielectric constant tensor:
#      x y z
#    x 1.810740 0.000000 0.000000 
#    y 0.000000 1.810740 0.000000 
#    z 0.000000 0.000000 1.785220 
# 
# From -- ./inp_files/6268.got.cif
#   From: 2010.05.17/outbox.cif.g08.bks.cpg/sg87_4_cif.got.tgz:6268.got - 2010.06.03 19:07:00.
