data_PCOD9545731
_publ_section_title
;
Structure prediction by ZEFSAII (Michael W. Deem and Ramdas Pophale) SiO2 
 PCOD9545731
Probable space group: I 4/M
;
_chemical_formula_sum "Si O2"
_cell_formula_units_Z 96
_cell_length_a 24.494078
_cell_length_b 24.494078
_cell_length_c 7.820911
_cell_angle_alpha 90.000000
_cell_angle_beta 90.000000
_cell_angle_gamma 90.000000
_cell_volume 4692.232646
_symmetry_space_group_name_H-M "I 4/M"
_symmetry_group_IT_number 87
_symmetry_cell_setting 'tetragonal'
loop_
_space_group_symop_operation_xyz
x,y,z
-y,x,z
-x,-y,z
y,-x,z
-x,-y,-z
y,-x,-z
x,y,-z
-y,x,-z
1/2+x,1/2+y,1/2+z
1/2-y,1/2+x,1/2+z
1/2-x,1/2-y,1/2+z
1/2+y,1/2-x,1/2+z
1/2-x,1/2-y,1/2-z
1/2+y,1/2-x,1/2-z
1/2+x,1/2+y,1/2-z
1/2-y,1/2+x,1/2-z
loop_
_atom_site_type_symbol
_atom_site_label
_atom_site_fract_x
_atom_site_fract_y
_atom_site_fract_z
Si Si1 0.343398 0.510071 0.309564
Si Si2 0.810825 0.806259 0.700448
Si Si3 0.870730 0.698373 0.708083
Si Si4 0.509516 0.774785 0.194640
Si Si5 0.113565 0.715742 0.704713
Si Si6 0.107618 0.095874 0.305276
O O1 0.328645 0.527958 0.500000
O O2 0.290477 0.517077 0.194341
O O3 0.361374 0.447726 0.306951
O O4 0.393715 0.545810 0.245250
O O5 0.797143 0.796456 0.500000
O O6 0.831698 0.748385 0.771741
O O7 0.761502 0.843427 0.773349
O O8 0.862778 0.846043 0.708213
O O9 0.872236 0.702757 0.500000
O O10 0.933470 0.702980 0.769731
O O11 0.841511 0.642710 0.761090
O O12 0.448774 0.782862 0.272635
O O13 0.506535 0.795812 0.000000
O O14 0.109159 0.726595 0.500000
O O15 0.112705 0.076863 0.500000
#
# Coordination Sequence:
#
# PCOD9545731 Si02
#       6
#    16  16  16  16  16  16
#     4  12  24  37  55  86 117 143 189 251 293 317
#     4   9  17  32  57  83 108 143 188 225 265 333
#     4  10  20  35  56  85 114 146 187 232 278 334
#     4  10  20  38  61  80 109 156 197 223 271 355
#     4  10  20  35  56  85 114 146 187 232 278 334
#     4  11  21  39  61  78 106 156 202 229 276 346
#
# _framework density 20.459343000000001
#
# number of rings (size 3 to 8) (size 9 to 14) (size 15 to 20)
#    0.000    1.667    3.333    2.500    0.000    1.667 
#    0.000    1.667    0.000    0.500    0.000    3.500 
#    0.000    0.000    0.000    0.000    0.000    0.000 
#
# Total GULP energy -267751.246390 kJ/mol
# GULP energy per Si atom -5578.150966 kJ/mol
# Density = 2.041278 g / cm^3
# Si number density = 20.459343 Si / 1000 Ang^3
#
#
#
# Elastic Constant Matrix: (Units=GPa)
#
#
# Indices 1 2 3 4 5 6 
#
# 1 82.4071 76.0211 -1.1170 0.0000 0.0000 7.3126
# 2 76.0211 82.4071 -1.1170 0.0000 0.0000 -7.3126
# 3 -1.1170 -1.1170 43.2699 0.0000 0.0000 0.0000
# 4 0.0000 0.0000 0.0000 14.7053 0.0000 0.0000
# 5 0.0000 0.0000 0.0000 0.0000 14.7053 0.0000
# 6 7.3126 -7.3126 0.0000 0.0000 0.0000 28.7665
#
#
#
# Elastic Compliance Matrix: (Units=1/GPa)
#
#
# Indices 1 2 3 4 5 6 
#
# 1 0.190549 -0.184235 0.000163 0.000000 0.000000 -0.095272
# 2 -0.184235 0.190549 0.000163 0.000000 0.000000 0.095272
# 3 0.000163 0.000163 0.023119 0.000000 0.000000 0.000000
# 4 0.000000 0.000000 0.000000 0.068003 0.000000 0.000000
# 5 0.000000 0.000000 0.000000 0.000000 0.068003 0.000000
# 6 -0.095272 0.095272 0.000000 0.000000 0.000000 0.083200
#
#
# Mechanical properties :
#
#
# Convention : Reuss Voigt Hill
#
# Bulk Modulus (GPa) = 27.47267 39.51757 33.49512
# Shear Modulus (GPa) = 4.98319 20.58855 12.78587
#
# Velocity S-wave (km/s) = 1.56235 3.17569 2.50259
# Velocity P-wave (km/s) = 4.08799 5.72746 4.97571
#
# Compressibility (1/GPa) = 0.03639981
#
# Stress axis : x y z
#
# Youngs Moduli (GPa) = 5.24799 5.24799 43.25412
#
# Poissons Ratio (x) = 0.96686 -0.00705
# Poissons Ratio (y) = 0.96686 -0.00705
# Poissons Ratio (z) = -0.00086 -0.00086
#
# Static dielectric constant tensor:
#      x y z
#    x 1.744210 0.000000 0.000000 
#    y 0.000000 1.744210 0.000000 
#    z 0.000000 0.000000 1.766060 
# 
# From -- ./inp_files/1333.got.cif
#   From: 2010.05.17/outbox.cif.g08.bks.cpg/sg87_1_cif.got.tgz:1333.got - 2010.06.03 19:07:00.
