data_PCOD9545769
_publ_section_title
;
Structure prediction by ZEFSAII (Michael W. Deem and Ramdas Pophale) SiO2 
 PCOD9545769
Probable space group: I 4/M
;
_chemical_formula_sum "Si O2"
_cell_formula_units_Z 96
_cell_length_a 24.620669
_cell_length_b 24.620669
_cell_length_c 8.070002
_cell_angle_alpha 90.000000
_cell_angle_beta 90.000000
_cell_angle_gamma 90.000000
_cell_volume 4891.852362
_symmetry_space_group_name_H-M "I 4/M"
_symmetry_group_IT_number 87
_symmetry_cell_setting 'tetragonal'
loop_
_space_group_symop_operation_xyz
x,y,z
-y,x,z
-x,-y,z
y,-x,z
-x,-y,-z
y,-x,-z
x,y,-z
-y,x,-z
1/2+x,1/2+y,1/2+z
1/2-y,1/2+x,1/2+z
1/2-x,1/2-y,1/2+z
1/2+y,1/2-x,1/2+z
1/2-x,1/2-y,1/2-z
1/2+y,1/2-x,1/2-z
1/2+x,1/2+y,1/2-z
1/2-y,1/2+x,1/2-z
loop_
_atom_site_type_symbol
_atom_site_label
_atom_site_fract_x
_atom_site_fract_y
_atom_site_fract_z
Si Si1 0.900829 0.605454 0.692247
Si Si2 0.384954 0.713190 0.302255
Si Si3 0.300446 0.629334 0.199947
Si Si4 0.309274 0.194688 0.193058
Si Si5 0.490217 0.275777 0.188410
Si Si6 0.499822 0.160518 0.309780
O O1 0.915645 0.594999 0.500000
O O2 0.863052 0.658094 0.697093
O O3 0.864412 0.555778 0.750040
O O4 0.953800 0.615486 0.797898
O O5 0.382663 0.717047 0.500000
O O6 0.356870 0.658082 0.241629
O O7 0.344782 0.761816 0.236518
O O8 0.448833 0.715779 0.258010
O O9 0.252414 0.670126 0.265012
O O10 0.297465 0.566940 0.263291
O O11 0.292994 0.626547 0.000000
O O12 0.294489 0.205057 0.000000
O O13 0.482627 0.210984 0.199693
O O14 0.492325 0.295190 0.000000
O O15 0.506717 0.179270 0.500000
#
# Coordination Sequence:
#
# PCOD9545769 Si02
#       6
#    16  16  16  16  16  16
#     4  10  20  37  55  75 111 152 193 242 291 338
#     4  11  22  37  59  88 121 150 186 237 285 335
#     4  10  21  38  59  84 115 152 192 229 278 343
#     4   9  17  34  56  81 116 152 184 229 284 337
#     4  11  22  38  61  84 114 155 191 230 282 345
#     4  11  22  36  56  81 110 148 199 248 286 335
#
# _framework density 19.624469000000001
#
# number of rings (size 3 to 8) (size 9 to 14) (size 15 to 20)
#    0.000    1.667    3.333    2.000    0.000    3.000 
#    0.000    2.500    0.000    0.500    0.000    3.500 
#    0.000    0.000    0.000    0.000    0.000    0.000 
#
# Total GULP energy -267568.467656 kJ/mol
# GULP energy per Si atom -5574.343076 kJ/mol
# Density = 1.957980 g / cm^3
# Si number density = 19.624469 Si / 1000 Ang^3
#
#
#
# Elastic Constant Matrix: (Units=GPa)
#
#
# Indices 1 2 3 4 5 6 
#
# 1 52.7154 106.7315 11.8411 0.0000 0.0000 -28.3004
# 2 106.7315 52.7154 11.8411 0.0000 0.0000 28.3004
# 3 11.8411 11.8411 15.0124 0.0000 0.0000 0.0000
# 4 0.0000 0.0000 0.0000 20.3390 0.0000 0.0000
# 5 0.0000 0.0000 0.0000 0.0000 20.3390 0.0000
# 6 -28.3004 28.3004 0.0000 0.0000 0.0000 17.1145
#
#
#
# Elastic Compliance Matrix: (Units=1/GPa)
#
#
# Indices 1 2 3 4 5 6 
#
# 1 0.000165 0.006939 -0.005603 0.000000 0.000000 -0.011202
# 2 0.006939 0.000165 -0.005603 0.000000 0.000000 0.011202
# 3 -0.005603 -0.005603 0.075451 0.000000 0.000000 0.000000
# 4 0.000000 0.000000 0.000000 0.049167 0.000000 0.000000
# 5 0.000000 0.000000 0.000000 0.000000 0.049167 0.000000
# 6 -0.011202 0.011202 0.000000 0.000000 0.000000 0.021382
#
#
# Mechanical properties :
#
#
# Convention : Reuss Voigt Hill
#
# Bulk Modulus (GPa) = 14.87082 42.36339 28.61711
# Shear Modulus (GPa) = 22.08044 10.89382 16.48713
#
# Velocity S-wave (km/s) = 3.35796 2.35864 2.90165
# Velocity P-wave (km/s) = 4.75696 5.38994 5.08331
#
# Compressibility (1/GPa) = 0.06724577
#
# Stress axis : x y z
#
# Youngs Moduli (GPa) = 6073.25683 6073.25683 13.25365
#
# Poissons Ratio (x) = -42.14387 0.07426
# Poissons Ratio (y) = -42.14387 0.07426
# Poissons Ratio (z) = 34.02991 34.02991
#
# Static dielectric constant tensor:
#      x y z
#    x 1.694830 0.000000 0.000000 
#    y 0.000000 1.694830 0.000000 
#    z 0.000000 0.000000 1.783170 
# 
# From -- ./inp_files/1437.got.cif
#   From: 2010.05.17/outbox.cif.g08.bks.cpg/sg87_1_cif.got.tgz:1437.got - 2010.06.03 19:07:00.
