data_PCOD9545571
_publ_section_title
;
Structure prediction by ZEFSAII (Michael W. Deem and Ramdas Pophale) SiO2 
 PCOD9545571
Probable space group: I 4/M
;
_chemical_formula_sum "Si O2"
_cell_formula_units_Z 120
_cell_length_a 18.538127
_cell_length_b 18.538127
_cell_length_c 20.084101
_cell_angle_alpha 90.000000
_cell_angle_beta 90.000000
_cell_angle_gamma 90.000000
_cell_volume 6902.145384
_symmetry_space_group_name_H-M "I 4/M"
_symmetry_group_IT_number 87
_symmetry_cell_setting 'tetragonal'
loop_
_space_group_symop_operation_xyz
x,y,z
-y,x,z
-x,-y,z
y,-x,z
-x,-y,-z
y,-x,-z
x,y,-z
-y,x,-z
1/2+x,1/2+y,1/2+z
1/2-y,1/2+x,1/2+z
1/2-x,1/2-y,1/2+z
1/2+y,1/2-x,1/2+z
1/2-x,1/2-y,1/2-z
1/2+y,1/2-x,1/2-z
1/2+x,1/2+y,1/2-z
1/2-y,1/2+x,1/2-z
loop_
_atom_site_type_symbol
_atom_site_label
_atom_site_fract_x
_atom_site_fract_y
_atom_site_fract_z
Si Si1 0.343899 0.833095 0.271608
Si Si2 0.540177 0.615020 0.500000
Si Si3 0.767888 0.258917 0.356474
Si Si4 0.131576 0.854745 0.578326
Si Si5 0.161314 0.984972 0.659878
Si Si6 0.788208 0.490266 0.267205
Si Si7 0.434098 0.408276 0.286875
Si Si8 0.208721 0.906114 0.876915
O O1 0.296686 0.793760 0.329975
O O2 0.311385 0.792123 0.206691
O O3 0.430469 0.822613 0.275193
O O4 0.328547 0.919078 0.262510
O O5 0.457506 0.588546 0.500000
O O6 0.559121 0.662783 0.435543
O O7 0.823627 0.214810 0.400605
O O8 0.741418 0.329631 0.395825
O O9 0.122004 0.861561 0.500000
O O10 0.176689 0.921264 0.608593
O O11 0.054189 0.853227 0.614876
O O12 0.222540 0.001286 0.714686
O O13 0.100334 0.949083 0.708666
O O14 0.761441 0.462121 0.339761
O O15 0.516290 0.404240 0.311803
O O16 0.386611 0.345162 0.315301
#
# Coordination Sequence:
#
# PCOD9545571 Si02
#       8
#    16   8  16  16  16  16  16  16
#     4  10  20  37  61  88 113 144 190 253 294 341
#     4  11  24  40  54  82 128 157 193 242 295 364
#     4  10  22  37  58  86 113 147 200 240 286 346
#     4  12  24  39  58  82 121 160 193 233 287 350
#     4  11  21  37  54  86 116 152 190 236 280 340
#     4  10  21  36  62  86 116 148 195 248 299 340
#     4  10  19  31  53  80 110 146 187 222 276 342
#     4  10  23  35  56  83 112 157 194 237 294 345
#
# _framework density 17.385898999999998
#
# number of rings (size 3 to 8) (size 9 to 14) (size 15 to 20)
#    0.000    1.533    4.000    1.200    8.400    1.600 
#    0.000    0.667    0.000    0.000    0.000    0.000 
#    0.000    5.333    0.000    0.000    0.000    0.000 
#
# Total GULP energy -334039.196732 kJ/mol
# GULP energy per Si atom -5567.319946 kJ/mol
# Density = 1.734633 g / cm^3
# Si number density = 17.385899 Si / 1000 Ang^3
#
#
#
# Elastic Constant Matrix: (Units=GPa)
#
#
# Indices 1 2 3 4 5 6 
#
# 1 68.7452 14.6612 20.1647 0.0000 0.0000 -1.5287
# 2 14.6612 68.7452 20.1647 0.0000 0.0000 1.5287
# 3 20.1647 20.1647 78.8137 0.0000 0.0000 0.0000
# 4 0.0000 0.0000 0.0000 16.1878 0.0000 0.0000
# 5 0.0000 0.0000 0.0000 0.0000 16.1878 0.0000
# 6 -1.5287 1.5287 0.0000 0.0000 0.0000 14.6860
#
#
#
# Elastic Compliance Matrix: (Units=1/GPa)
#
#
# Indices 1 2 3 4 5 6 
#
# 1 0.016141 -0.002459 -0.003501 0.000000 0.000000 0.001936
# 2 -0.002459 0.016141 -0.003501 0.000000 0.000000 -0.001936
# 3 -0.003501 -0.003501 0.014479 0.000000 0.000000 0.000000
# 4 0.000000 0.000000 0.000000 0.061775 0.000000 0.000000
# 5 0.000000 0.000000 0.000000 0.000000 0.061775 0.000000
# 6 0.001936 -0.001936 0.000000 0.000000 0.000000 0.068495
#
#
# Mechanical properties :
#
#
# Convention : Reuss Voigt Hill
#
# Bulk Modulus (GPa) = 35.91791 36.25391 36.08591
# Shear Modulus (GPa) = 18.72617 20.16654 19.44636
#
# Velocity S-wave (km/s) = 3.28547 3.40948 3.34805
# Velocity P-wave (km/s) = 5.92423 6.03300 5.97886
#
# Compressibility (1/GPa) = 0.02784126
#
# Stress axis : x y z
#
# Youngs Moduli (GPa) = 61.95527 61.95527 69.06356
#
# Poissons Ratio (x) = 0.15232 0.24176
# Poissons Ratio (y) = 0.15232 0.24176
# Poissons Ratio (z) = 0.21688 0.21688
#
# Static dielectric constant tensor:
#      x y z
#    x 1.616420 0.000000 0.000000 
#    y 0.000000 1.616420 0.000000 
#    z 0.000000 0.000000 1.608150 
# 
# From -- ./inp_files/5534.got.cif
#   From: 2010.05.17/outbox.cif.g08.bks.cpg/sg87_3_cif.got.tgz:5534.got - 2010.06.03 19:07:00.
