data_PCOD9545113
_publ_section_title
;
Structure prediction by ZEFSAII (Michael W. Deem and Ramdas Pophale) SiO2 
 PCOD9545113
Probable space group: P 42/N
;
_chemical_formula_sum "Si O2"
_cell_formula_units_Z 56
_cell_length_a 14.933467
_cell_length_b 14.933467
_cell_length_c 12.435534
_cell_angle_alpha 90.000000
_cell_angle_beta 90.000000
_cell_angle_gamma 90.000000
_cell_volume 2773.228996
_symmetry_space_group_name_H-M "P 42/N"
_symmetry_group_IT_number 86
_space_group.IT_coordinate_system_code '2'
_symmetry_cell_setting 'tetragonal'
loop_
_space_group_symop_operation_xyz
x,y,z
-y,1/2+x,1/2+z
1/2-x,1/2-y,z
1/2+y,-x,1/2+z
-x,-y,-z
y,1/2-x,1/2-z
1/2+x,1/2+y,-z
1/2-y,x,1/2-z
loop_
_atom_site_type_symbol
_atom_site_label
_atom_site_fract_x
_atom_site_fract_y
_atom_site_fract_z
Si Si1 0.480703 0.400926 0.053407
Si Si2 0.626873 0.957891 0.322515
Si Si3 0.708769 0.160128 0.066321
Si Si4 0.754762 0.433048 0.695722
Si Si5 0.202564 0.988725 0.793496
Si Si6 0.885474 0.417296 0.872599
Si Si7 0.915741 0.975817 0.737611
O O1 0.552558 0.341450 0.119779
O O2 0.412074 0.418258 0.151628
O O3 0.500000 0.500000 0.000000
O O4 0.462689 0.344317 0.946776
O O5 0.558383 0.875299 0.320572
O O6 0.711047 0.956307 0.244595
O O7 0.569469 0.043320 0.281462
O O8 0.750000 0.250000 0.010281
O O9 0.657973 0.206226 0.165379
O O10 0.770598 0.080716 0.112323
O O11 0.633851 0.113133 0.992465
O O12 0.789190 0.430700 0.816835
O O13 0.680435 0.509967 0.685758
O O14 0.162301 0.932976 0.693348
O O15 0.937369 0.509372 0.844262
#
# Coordination Sequence:
#
# PCOD9545113 Si02
#       7
#     8   8   8   8   8   8   8
#     4   9  20  37  63  91 121 170 218 257 332 401
#     4  10  21  40  64  85 129 173 213 266 313 396
#     4  12  25  36  62  96 129 160 208 273 334 387
#     4  11  21  39  63  94 124 163 212 270 329 383
#     4  11  23  43  60  95 127 169 219 262 321 390
#     4  10  24  40  60  92 128 163 206 268 331 386
#     4   9  20  39  62  89 126 162 209 263 327 396
#
# _framework density 20.193066999999999
#
# number of rings (size 3 to 8) (size 9 to 14) (size 15 to 20)
#    0.000    1.714    2.857    1.714    4.000    2.000 
#    2.571    0.000    0.000    6.857    0.000    0.000 
#    0.000    0.000    0.000    0.000    0.000    0.000 
#
# Total GULP energy -311818.281813 kJ/mol
# GULP energy per Si atom -5568.183604 kJ/mol
# Density = 2.014711 g / cm^3
# Si number density = 20.193067 Si / 1000 Ang^3
#
#
#
# Elastic Constant Matrix: (Units=GPa)
#
#
# Indices 1 2 3 4 5 6 
#
# 1 67.2361 20.4488 25.2339 0.0000 0.0000 2.0422
# 2 20.4488 67.2361 25.2339 0.0000 0.0000 -2.0422
# 3 25.2339 25.2339 47.3363 0.0000 0.0000 0.0000
# 4 0.0000 0.0000 0.0000 18.8599 0.0000 0.0000
# 5 0.0000 0.0000 0.0000 0.0000 18.8599 0.0000
# 6 2.0422 -2.0422 0.0000 0.0000 0.0000 31.3547
#
#
#
# Elastic Compliance Matrix: (Units=1/GPa)
#
#
# Indices 1 2 3 4 5 6 
#
# 1 0.018974 -0.002522 -0.008770 0.000000 0.000000 -0.001400
# 2 -0.002522 0.018974 -0.008770 0.000000 0.000000 0.001400
# 3 -0.008770 -0.008770 0.030476 0.000000 0.000000 0.000000
# 4 0.000000 0.000000 0.000000 0.053023 0.000000 0.000000
# 5 0.000000 0.000000 0.000000 0.000000 0.053023 0.000000
# 6 -0.001400 0.001400 0.000000 0.000000 0.000000 0.032075
#
#
# Mechanical properties :
#
#
# Convention : Reuss Voigt Hill
#
# Bulk Modulus (GPa) = 35.33666 35.96018 35.64842
# Shear Modulus (GPa) = 19.52345 21.20770 20.36557
#
# Velocity S-wave (km/s) = 3.11278 3.24427 3.17920
# Velocity P-wave (km/s) = 5.51875 5.64628 5.58288
#
# Compressibility (1/GPa) = 0.02829922
#
# Stress axis : x y z
#
# Youngs Moduli (GPa) = 52.70393 52.70393 32.81269
#
# Poissons Ratio (x) = 0.13290 0.28778
# Poissons Ratio (y) = 0.13290 0.28778
# Poissons Ratio (z) = 0.46223 0.46223
#
# Static dielectric constant tensor:
#      x y z
#    x 1.760640 0.000000 0.000000 
#    y 0.000000 1.760640 0.000000 
#    z 0.000000 0.000000 1.757520 
# 
# From -- ./inp_files/2386.got.cif
#   From: 2010.05.17/outbox.cif.g08.bks.cpg/sg86_2_cif.got.tgz:2386.got - 2010.06.03 19:03:11.
