data_PCOD9545672
_publ_section_title
;
Structure prediction by ZEFSAII (Michael W. Deem and Ramdas Pophale) SiO2 
 PCOD9545672
Probable space group: I 4/M
;
_chemical_formula_sum "Si O2"
_cell_formula_units_Z 64
_cell_length_a 20.655807
_cell_length_b 20.655807
_cell_length_c 7.578285
_cell_angle_alpha 90.000000
_cell_angle_beta 90.000000
_cell_angle_gamma 90.000000
_cell_volume 3233.368984
_symmetry_space_group_name_H-M "I 4/M"
_symmetry_group_IT_number 87
_symmetry_cell_setting 'tetragonal'
loop_
_space_group_symop_operation_xyz
x,y,z
-y,x,z
-x,-y,z
y,-x,z
-x,-y,-z
y,-x,-z
x,y,-z
-y,x,-z
1/2+x,1/2+y,1/2+z
1/2-y,1/2+x,1/2+z
1/2-x,1/2-y,1/2+z
1/2+y,1/2-x,1/2+z
1/2-x,1/2-y,1/2-z
1/2+y,1/2-x,1/2-z
1/2+x,1/2+y,1/2-z
1/2-y,1/2+x,1/2-z
loop_
_atom_site_type_symbol
_atom_site_label
_atom_site_fract_x
_atom_site_fract_y
_atom_site_fract_z
Si Si1 0.172061 0.436850 0.792969
Si Si2 0.322135 0.915417 0.204626
Si Si3 0.930127 0.179607 0.213567
Si Si4 0.422428 0.322999 0.283769
O O1 0.125834 0.380965 0.717880
O O2 0.164301 0.507928 0.711133
O O3 0.246974 0.417010 0.771610
O O4 0.157771 0.445268 0.000000
O O5 0.249793 0.906004 0.278639
O O6 0.318056 0.895292 0.000000
O O7 0.876750 0.128505 0.274652
O O8 0.003509 0.162788 0.269033
O O9 0.929473 0.179493 0.000000
O O10 0.421920 0.322073 0.500000
#
# Coordination Sequence:
#
# PCOD9545672 Si02
#       4
#    16  16  16  16
#     4  10  20  33  50  72  97 125 159 199 241 285
#     4   9  19  35  51  70  98 127 159 199 238 282
#     4   9  17  31  50  71  98 129 161 197 236 280
#     4   8  15  29  49  71  95 126 162 198 234 275
#
# _framework density 19.793596999999998
#
# number of rings (size 3 to 8) (size 9 to 14) (size 15 to 20)
#    0.000    3.000    0.000    2.250    0.000    4.000 
#    0.000   10.000    0.000    0.000    0.000    7.000 
#    0.000    0.000    0.000    0.000    0.000    0.000 
#
# Total GULP energy -178441.365725 kJ/mol
# GULP energy per Si atom -5576.292679 kJ/mol
# Density = 1.974855 g / cm^3
# Si number density = 19.793597 Si / 1000 Ang^3
#
#
#
# Elastic Constant Matrix: (Units=GPa)
#
#
# Indices 1 2 3 4 5 6 
#
# 1 128.7857 119.1702 -13.0226 0.0000 0.0000 -1.2990
# 2 119.1702 128.7857 -13.0226 0.0000 0.0000 1.2990
# 3 -13.0226 -13.0226 41.6020 0.0000 0.0000 0.0000
# 4 0.0000 0.0000 0.0000 14.0336 0.0000 0.0000
# 5 0.0000 0.0000 0.0000 0.0000 14.0336 0.0000
# 6 -1.2990 1.2990 0.0000 0.0000 0.0000 49.2035
#
#
#
# Elastic Compliance Matrix: (Units=1/GPa)
#
#
# Indices 1 2 3 4 5 6 
#
# 1 0.054458 -0.050288 0.001305 0.000000 0.000000 0.002765
# 2 -0.050288 0.054458 0.001305 0.000000 0.000000 -0.002765
# 3 0.001305 0.001305 0.024855 0.000000 0.000000 0.000000
# 4 0.000000 0.000000 0.000000 0.071258 0.000000 0.000000
# 5 0.000000 0.000000 0.000000 0.000000 0.071258 0.000000
# 6 0.002765 -0.002765 0.000000 0.000000 0.000000 0.020470
#
#
# Mechanical properties :
#
#
# Convention : Reuss Voigt Hill
#
# Bulk Modulus (GPa) = 26.03075 53.93596 39.98335
# Shear Modulus (GPa) = 12.34822 29.19069 20.76946
#
# Velocity S-wave (km/s) = 2.50041 3.84442 3.24281
# Velocity P-wave (km/s) = 4.63850 6.85671 5.85364
#
# Compressibility (1/GPa) = 0.03841610
#
# Stress axis : x y z
#
# Youngs Moduli (GPa) = 18.36265 18.36265 40.23413
#
# Poissons Ratio (x) = 0.92343 -0.05252
# Poissons Ratio (y) = 0.92343 -0.05252
# Poissons Ratio (z) = -0.02397 -0.02397
#
# Static dielectric constant tensor:
#      x y z
#    x 1.676880 0.000000 0.000000 
#    y 0.000000 1.676880 0.000000 
#    z 0.000000 0.000000 1.739350 
# 
# From -- ./inp_files/930.got.cif
#   From: 2010.05.17/outbox.cif.g08.bks.cpg/sg87_1_cif.got.tgz:930.got - 2010.06.03 19:07:00.
