data_PCOD9545167
_publ_section_title
;
Structure prediction by ZEFSAII (Michael W. Deem and Ramdas Pophale) SiO2 
 PCOD9545167
Probable space group: P 42/N
;
_chemical_formula_sum "Si O2"
_cell_formula_units_Z 40
_cell_length_a 11.267006
_cell_length_b 11.267006
_cell_length_c 14.996536
_cell_angle_alpha 90.000000
_cell_angle_beta 90.000000
_cell_angle_gamma 90.000000
_cell_volume 1903.741624
_symmetry_space_group_name_H-M "P 42/N"
_symmetry_group_IT_number 86
_space_group.IT_coordinate_system_code '2'
_symmetry_cell_setting 'tetragonal'
loop_
_space_group_symop_operation_xyz
x,y,z
-y,1/2+x,1/2+z
1/2-x,1/2-y,z
1/2+y,-x,1/2+z
-x,-y,-z
y,1/2-x,1/2-z
1/2+x,1/2+y,-z
1/2-y,x,1/2-z
loop_
_atom_site_type_symbol
_atom_site_label
_atom_site_fract_x
_atom_site_fract_y
_atom_site_fract_z
Si Si1 0.939715 0.331231 0.820498
Si Si2 0.282609 0.017665 0.279028
Si Si3 0.544183 0.383360 0.692177
Si Si4 0.438160 0.633122 0.504976
Si Si5 0.709224 0.626922 0.898798
O O1 0.848750 0.401279 0.756498
O O2 0.958861 0.205236 0.775259
O O3 0.888286 0.335827 0.921213
O O4 0.055677 0.415679 0.818528
O O5 0.146929 0.979593 0.293339
O O6 0.348010 0.075802 0.364123
O O7 0.278197 0.105517 0.194175
O O8 0.583772 0.330873 0.596718
O O9 0.500000 0.500000 0.500000
O O10 0.520893 0.738750 0.543069
O O11 0.750000 0.750000 0.941821
#
# Coordination Sequence:
#
# PCOD9545167 Si02
#       5
#     8   8   8   8   8
#     4  10  22  40  65  88 125 177 207 269 331 401
#     4  11  18  36  64  92 118 159 219 263 319 386
#     4  11  22  43  61  93 133 168 219 265 344 395
#     4   9  21  39  60  93 129 167 214 271 343 397
#     4  11  17  32  63  93 113 156 217 269 311 386
#
# _framework density 21.011254999999998
#
# number of rings (size 3 to 8) (size 9 to 14) (size 15 to 20)
#    0.000    1.600    4.000    3.000    0.000    0.400 
#   10.800    9.000    0.000    0.000    0.000    0.000 
#    0.000    0.000    0.000    0.000    0.000    0.000 
#
# Total GULP energy -222755.250008 kJ/mol
# GULP energy per Si atom -5568.881250 kJ/mol
# Density = 2.096343 g / cm^3
# Si number density = 21.011255 Si / 1000 Ang^3
#
#
#
# Elastic Constant Matrix: (Units=GPa)
#
#
# Indices 1 2 3 4 5 6 
#
# 1 68.1029 11.1354 31.8514 0.0000 0.0000 -4.4701
# 2 11.1354 68.1029 31.8514 0.0000 0.0000 4.4701
# 3 31.8514 31.8514 118.8008 0.0000 0.0000 0.0000
# 4 0.0000 0.0000 0.0000 17.6996 0.0000 0.0000
# 5 0.0000 0.0000 0.0000 0.0000 17.6996 0.0000
# 6 -4.4701 4.4701 0.0000 0.0000 0.0000 13.0475
#
#
#
# Elastic Compliance Matrix: (Units=1/GPa)
#
#
# Indices 1 2 3 4 5 6 
#
# 1 0.017320 -0.001232 -0.004313 0.000000 0.000000 0.006356
# 2 -0.001232 0.017320 -0.004313 0.000000 0.000000 -0.006356
# 3 -0.004313 -0.004313 0.010730 0.000000 0.000000 0.000000
# 4 0.000000 0.000000 0.000000 0.056499 0.000000 0.000000
# 5 0.000000 0.000000 0.000000 0.000000 0.056499 0.000000
# 6 0.006356 -0.006356 0.000000 0.000000 0.000000 0.080998
#
#
# Mechanical properties :
#
#
# Convention : Reuss Voigt Hill
#
# Bulk Modulus (GPa) = 38.98209 44.96475 41.97342
# Shear Modulus (GPa) = 18.68237 21.70055 20.19146
#
# Velocity S-wave (km/s) = 2.98511 3.21722 3.10334
# Velocity P-wave (km/s) = 5.52037 5.93695 5.73245
#
# Compressibility (1/GPa) = 0.02565280
#
# Stress axis : x y z
#
# Youngs Moduli (GPa) = 57.73826 57.73826 93.19423
#
# Poissons Ratio (x) = 0.07112 0.40197
# Poissons Ratio (y) = 0.07112 0.40197
# Poissons Ratio (z) = 0.24904 0.24904
#
# Static dielectric constant tensor:
#      x y z
#    x 1.819480 0.000000 0.000000 
#    y 0.000000 1.819480 0.000000 
#    z 0.000000 0.000000 1.822790 
# 
# From -- ./inp_files/2895.got.cif
#   From: 2010.05.17/outbox.cif.g08.bks.cpg/sg86_2_cif.got.tgz:2895.got - 2010.06.03 19:03:11.
