data_PCOD9545825
_publ_section_title
;
Structure prediction by ZEFSAII (Michael W. Deem and Ramdas Pophale) SiO2 
 PCOD9545825
Probable space group: I 4/M
;
_chemical_formula_sum "Si O2"
_cell_formula_units_Z 88
_cell_length_a 14.629261
_cell_length_b 14.629261
_cell_length_c 22.179830
_cell_angle_alpha 90.000000
_cell_angle_beta 90.000000
_cell_angle_gamma 90.000000
_cell_volume 4746.822470
_symmetry_space_group_name_H-M "I 4/M"
_symmetry_group_IT_number 87
_symmetry_cell_setting 'tetragonal'
loop_
_space_group_symop_operation_xyz
x,y,z
-y,x,z
-x,-y,z
y,-x,z
-x,-y,-z
y,-x,-z
x,y,-z
-y,x,-z
1/2+x,1/2+y,1/2+z
1/2-y,1/2+x,1/2+z
1/2-x,1/2-y,1/2+z
1/2+y,1/2-x,1/2+z
1/2-x,1/2-y,1/2-z
1/2+y,1/2-x,1/2-z
1/2+x,1/2+y,1/2-z
1/2-y,1/2+x,1/2-z
loop_
_atom_site_type_symbol
_atom_site_label
_atom_site_fract_x
_atom_site_fract_y
_atom_site_fract_z
Si Si1 0.764132 0.866276 0.880521
Si Si2 0.877151 0.906439 0.000000
Si Si3 0.489290 0.269699 0.068270
Si Si4 0.130014 0.082061 0.759761
Si Si5 0.335103 0.681369 0.864165
Si Si6 0.937437 0.416408 0.930366
O O1 0.825446 0.871482 0.940555
O O2 0.822005 0.894166 0.822532
O O3 0.726831 0.763853 0.870409
O O4 0.676625 0.932384 0.892275
O O5 0.982947 0.876562 0.000000
O O6 0.591867 0.272144 0.091936
O O7 0.423073 0.325600 0.112552
O O8 0.453192 0.166114 0.068106
O O9 0.482540 0.305196 0.000000
O O10 0.183014 0.125425 0.703203
O O11 0.027301 0.121451 0.756484
O O12 0.000000 0.500000 0.908153
O O13 0.964811 0.395592 0.000000
#
# Coordination Sequence:
#
# PCOD9545825 Si02
#       6
#    16   8  16  16  16  16
#     4  11  23  39  63  91 124 161 209 257 310 370
#     4  11  24  42  63  96 128 159 207 264 312 366
#     4  10  21  35  61  91 123 154 195 251 304 367
#     4  11  23  42  63  86 118 163 207 254 312 369
#     4  11  22  40  60  89 123 158 203 250 307 371
#     4   9  19  38  60  89 126 161 199 246 304 368
#
# _framework density 18.538716999999998
#
# number of rings (size 3 to 8) (size 9 to 14) (size 15 to 20)
#    0.000    1.545    2.727    2.182    2.545    4.727 
#    0.000    0.909    0.000    0.000    0.000    0.000 
#    0.000    0.000    0.000    0.000    0.000    0.000 
#
# Total GULP energy -245706.378795 kJ/mol
# GULP energy per Si atom -5584.235882 kJ/mol
# Density = 1.849652 g / cm^3
# Si number density = 18.538717 Si / 1000 Ang^3
#
#
#
# Elastic Constant Matrix: (Units=GPa)
#
#
# Indices 1 2 3 4 5 6 
#
# 1 65.4369 35.1773 46.1481 0.0000 0.0000 8.5957
# 2 35.1773 65.4369 46.1481 0.0000 0.0000 -8.5957
# 3 46.1481 46.1481 143.6409 0.0000 0.0000 0.0000
# 4 0.0000 0.0000 0.0000 28.7518 0.0000 0.0000
# 5 0.0000 0.0000 0.0000 0.0000 28.7518 0.0000
# 6 8.5957 -8.5957 0.0000 0.0000 0.0000 27.2903
#
#
#
# Elastic Compliance Matrix: (Units=1/GPa)
#
#
# Indices 1 2 3 4 5 6 
#
# 1 0.027171 -0.013079 -0.004527 0.000000 0.000000 -0.012678
# 2 -0.013079 0.027171 -0.004527 0.000000 0.000000 0.012678
# 3 -0.004527 -0.004527 0.009871 0.000000 0.000000 0.000000
# 4 0.000000 0.000000 0.000000 0.034780 0.000000 0.000000
# 5 0.000000 0.000000 0.000000 0.000000 0.034780 0.000000
# 6 -0.012678 0.012678 0.000000 0.000000 0.000000 0.044629
#
#
# Mechanical properties :
#
#
# Convention : Reuss Voigt Hill
#
# Bulk Modulus (GPa) = 50.13695 58.82907 54.48301
# Shear Modulus (GPa) = 21.80367 26.76153 24.28260
#
# Velocity S-wave (km/s) = 3.43317 3.80353 3.62309
# Velocity P-wave (km/s) = 6.54360 7.14780 6.85237
#
# Compressibility (1/GPa) = 0.01994537
#
# Stress axis : x y z
#
# Youngs Moduli (GPa) = 36.80390 36.80390 101.30801
#
# Poissons Ratio (x) = 0.48136 0.45866
# Poissons Ratio (y) = 0.48136 0.45866
# Poissons Ratio (z) = 0.16663 0.16663
#
# Static dielectric constant tensor:
#      x y z
#    x 1.640030 0.000000 0.000000 
#    y 0.000000 1.640030 0.000000 
#    z 0.000000 0.000000 1.621390 
# 
# From -- ./inp_files/5205.got.cif
#   From: 2010.05.17/outbox.cif.g08.bks.cpg/sg87_3_cif.got.tgz:5205.got - 2010.06.03 19:07:00.
