data_PCOD9545529
_publ_section_title
;
Structure prediction by ZEFSAII (Michael W. Deem and Ramdas Pophale) SiO2 
 PCOD9545529
Probable space group: I 4/M
;
_chemical_formula_sum "Si O2"
_cell_formula_units_Z 56
_cell_length_a 12.367896
_cell_length_b 12.367896
_cell_length_c 21.545430
_cell_angle_alpha 90.000000
_cell_angle_beta 90.000000
_cell_angle_gamma 90.000000
_cell_volume 3295.693500
_symmetry_space_group_name_H-M "I 4/M"
_symmetry_group_IT_number 87
_symmetry_cell_setting 'tetragonal'
loop_
_space_group_symop_operation_xyz
x,y,z
-y,x,z
-x,-y,z
y,-x,z
-x,-y,-z
y,-x,-z
x,y,-z
-y,x,-z
1/2+x,1/2+y,1/2+z
1/2-y,1/2+x,1/2+z
1/2-x,1/2-y,1/2+z
1/2+y,1/2-x,1/2+z
1/2-x,1/2-y,1/2-z
1/2+y,1/2-x,1/2-z
1/2+x,1/2+y,1/2-z
1/2-y,1/2+x,1/2-z
loop_
_atom_site_type_symbol
_atom_site_label
_atom_site_fract_x
_atom_site_fract_y
_atom_site_fract_z
Si Si1 0.350972 0.604699 0.000000
Si Si2 0.738510 0.119888 0.629073
Si Si3 0.888723 0.283968 0.689352
Si Si4 0.368707 0.016860 0.820216
O O1 0.355219 0.474120 0.000000
O O2 0.291518 0.639843 0.937281
O O3 0.804412 0.187539 0.680845
O O4 0.611860 0.149088 0.630885
O O5 0.743852 0.993826 0.648147
O O6 0.936005 0.314659 0.757331
O O7 0.831610 0.395290 0.667185
O O8 0.500000 0.000000 0.815386
#
# Coordination Sequence:
#
# PCOD9545529 Si02
#       4
#     8  16  16  16
#     4  11  22  38  51  77 117 144 181 228 271 319
#     4  11  21  34  58  78 108 149 180 216 274 326
#     4  11  19  34  55  83 110 144 174 227 276 322
#     4  10  18  34  53  81 111 138 174 225 272 319
#
# _framework density 16.991871
#
# number of rings (size 3 to 8) (size 9 to 14) (size 15 to 20)
#    0.000    1.286    8.571    0.857    0.000    0.571 
#    0.000    7.857    0.000    0.857    0.000    0.000 
#    0.000    2.286    0.000    0.000    0.000    0.000 
#
# Total GULP energy -155911.245202 kJ/mol
# GULP energy per Si atom -5568.258757 kJ/mol
# Density = 1.695320 g / cm^3
# Si number density = 16.991871 Si / 1000 Ang^3
#
#
#
# Elastic Constant Matrix: (Units=GPa)
#
#
# Indices 1 2 3 4 5 6 
#
# 1 70.4546 38.7640 17.7318 0.0000 0.0000 1.6459
# 2 38.7640 70.4546 17.7318 0.0000 0.0000 -1.6459
# 3 17.7318 17.7318 61.6278 0.0000 0.0000 0.0000
# 4 0.0000 0.0000 0.0000 23.3538 0.0000 0.0000
# 5 0.0000 0.0000 0.0000 0.0000 23.3538 0.0000
# 6 1.6459 -1.6459 0.0000 0.0000 0.0000 22.5713
#
#
#
# Elastic Compliance Matrix: (Units=1/GPa)
#
#
# Indices 1 2 3 4 5 6 
#
# 1 0.020948 -0.010848 -0.002906 0.000000 0.000000 -0.002319
# 2 -0.010848 0.020948 -0.002906 0.000000 0.000000 0.002319
# 3 -0.002906 -0.002906 0.017899 0.000000 0.000000 0.000000
# 4 0.000000 0.000000 0.000000 0.042819 0.000000 0.000000
# 5 0.000000 0.000000 0.000000 0.000000 0.042819 0.000000
# 6 -0.002319 0.002319 0.000000 0.000000 0.000000 0.044642
#
#
# Mechanical properties :
#
#
# Convention : Reuss Voigt Hill
#
# Bulk Modulus (GPa) = 37.77272 38.99913 38.38592
# Shear Modulus (GPa) = 21.53131 22.40975 21.97053
#
# Velocity S-wave (km/s) = 3.56357 3.63554 3.59974
# Velocity P-wave (km/s) = 6.26180 6.37372 6.31801
#
# Compressibility (1/GPa) = 0.02647413
#
# Stress axis : x y z
#
# Youngs Moduli (GPa) = 47.73788 47.73788 55.87022
#
# Poissons Ratio (x) = 0.51787 0.16235
# Poissons Ratio (y) = 0.51787 0.16235
# Poissons Ratio (z) = 0.13872 0.13872
#
# Static dielectric constant tensor:
#      x y z
#    x 1.598890 0.000000 0.000000 
#    y 0.000000 1.598890 0.000000 
#    z 0.000000 0.000000 1.577560 
# 
# From -- ./inp_files/4897.got.cif
#   From: 2010.05.17/outbox.cif.g08.bks.cpg/sg87_3_cif.got.tgz:4897.got - 2010.06.03 19:07:00.
