data_PCOD9545391
_publ_section_title
;
Structure prediction by ZEFSAII (Michael W. Deem and Ramdas Pophale) SiO2 
 PCOD9545391
Probable space group: P 42/N
;
_chemical_formula_sum "Si O2"
_cell_formula_units_Z 40
_cell_length_a 15.240243
_cell_length_b 15.240243
_cell_length_c 7.975922
_cell_angle_alpha 90.000000
_cell_angle_beta 90.000000
_cell_angle_gamma 90.000000
_cell_volume 1852.527577
_symmetry_space_group_name_H-M "P 42/N"
_symmetry_group_IT_number 86
_space_group.IT_coordinate_system_code '2'
_symmetry_cell_setting 'tetragonal'
loop_
_space_group_symop_operation_xyz
x,y,z
-y,1/2+x,1/2+z
1/2-x,1/2-y,z
1/2+y,-x,1/2+z
-x,-y,-z
y,1/2-x,1/2-z
1/2+x,1/2+y,-z
1/2-y,x,1/2-z
loop_
_atom_site_type_symbol
_atom_site_label
_atom_site_fract_x
_atom_site_fract_y
_atom_site_fract_z
Si Si1 0.041407 0.905260 0.454550
Si Si2 0.721706 0.486211 0.522197
Si Si3 0.776537 0.980114 0.890865
Si Si4 0.614361 0.790846 0.284037
Si Si5 0.084994 0.554315 0.566198
O O1 0.003547 0.823315 0.558423
O O2 0.025468 0.896382 0.256688
O O3 0.146840 0.911954 0.475056
O O4 0.000000 0.000000 0.500000
O O5 0.710000 0.541077 0.695171
O O6 0.702543 0.537153 0.350234
O O7 0.823257 0.458289 0.527971
O O8 0.843112 0.059872 0.928960
O O9 0.809203 0.908288 0.023614
O O10 0.692401 0.851033 0.223418
O O11 0.000000 0.500000 0.500000
#
# Coordination Sequence:
#
# PCOD9545391 Si02
#       5
#     8   8   8   8   8
#     4  11  24  42  68  98 135 180 226 281 336 403
#     4  11  25  42  65 100 134 174 227 278 336 406
#     4  11  25  42  65 100 134 174 227 278 336 406
#     4  11  24  42  66  95 132 178 226 281 344 407
#     4  11  24  42  68  98 135 180 226 281 336 403
#
# _framework density 21.592122
#
# number of rings (size 3 to 8) (size 9 to 14) (size 15 to 20)
#    0.000    1.000    2.000    3.600    5.600    5.600 
#    0.000    6.000    0.000    0.000    0.000    0.000 
#    0.000    0.000    0.000    0.000    0.000    0.000 
#
# Total GULP energy -223448.480052 kJ/mol
# GULP energy per Si atom -5586.212001 kJ/mol
# Density = 2.154298 g / cm^3
# Si number density = 21.592122 Si / 1000 Ang^3
#
#
#
# Elastic Constant Matrix: (Units=GPa)
#
#
# Indices 1 2 3 4 5 6 
#
# 1 71.7198 13.5407 -10.0227 0.0000 0.0000 7.8667
# 2 13.5407 71.7198 -10.0227 0.0000 0.0000 -7.8667
# 3 -10.0227 -10.0227 59.7508 0.0000 0.0000 0.0000
# 4 0.0000 0.0000 0.0000 24.6337 0.0000 0.0000
# 5 0.0000 0.0000 0.0000 0.0000 24.6337 0.0000
# 6 7.8667 -7.8667 0.0000 0.0000 0.0000 38.1478
#
#
#
# Elastic Compliance Matrix: (Units=1/GPa)
#
#
# Indices 1 2 3 4 5 6 
#
# 1 0.015207 -0.002997 0.002048 0.000000 0.000000 -0.003754
# 2 -0.002997 0.015207 0.002048 0.000000 0.000000 0.003754
# 3 0.002048 0.002048 0.017423 0.000000 0.000000 0.000000
# 4 0.000000 0.000000 0.000000 0.040595 0.000000 0.000000
# 5 0.000000 0.000000 0.000000 0.000000 0.040595 0.000000
# 6 -0.003754 0.003754 0.000000 0.000000 0.000000 0.027762
#
#
# Mechanical properties :
#
#
# Convention : Reuss Voigt Hill
#
# Bulk Modulus (GPa) = 19.98537 21.13123 20.55830
# Shear Modulus (GPa) = 29.19401 31.46271 30.32836
#
# Velocity S-wave (km/s) = 3.68104 3.82139 3.75187
# Velocity P-wave (km/s) = 5.22902 5.41096 5.32077
#
# Compressibility (1/GPa) = 0.05003660
#
# Stress axis : x y z
#
# Youngs Moduli (GPa) = 65.75975 65.75975 57.39441
#
# Poissons Ratio (x) = 0.19705 -0.11755
# Poissons Ratio (y) = 0.19705 -0.11755
# Poissons Ratio (z) = -0.13469 -0.13469
#
# Static dielectric constant tensor:
#      x y z
#    x 1.805790 0.000000 0.000000 
#    y 0.000000 1.805790 0.000000 
#    z 0.000000 0.000000 1.789880 
# 
# From -- ./inp_files/1126.got.cif
#   From: 2010.05.17/outbox.cif.g08.bks.cpg/sg86_1_cif.got.tgz:1126.got - 2010.06.03 19:03:11.
