data_PCOD9545807
_publ_section_title
;
Structure prediction by ZEFSAII (Michael W. Deem and Ramdas Pophale) SiO2 
 PCOD9545807
Probable space group: I 4/M
;
_chemical_formula_sum "Si O2"
_cell_formula_units_Z 80
_cell_length_a 11.983353
_cell_length_b 11.983353
_cell_length_c 21.759686
_cell_angle_alpha 90.000000
_cell_angle_beta 90.000000
_cell_angle_gamma 90.000000
_cell_volume 3124.707210
_symmetry_space_group_name_H-M "I 4/M"
_symmetry_group_IT_number 87
_symmetry_cell_setting 'tetragonal'
loop_
_space_group_symop_operation_xyz
x,y,z
-y,x,z
-x,-y,z
y,-x,z
-x,-y,-z
y,-x,-z
x,y,-z
-y,x,-z
1/2+x,1/2+y,1/2+z
1/2-y,1/2+x,1/2+z
1/2-x,1/2-y,1/2+z
1/2+y,1/2-x,1/2+z
1/2-x,1/2-y,1/2-z
1/2+y,1/2-x,1/2-z
1/2+x,1/2+y,1/2-z
1/2-y,1/2+x,1/2-z
loop_
_atom_site_type_symbol
_atom_site_label
_atom_site_fract_x
_atom_site_fract_y
_atom_site_fract_z
Si Si1 0.676578 0.008666 0.067314
Si Si2 0.809140 0.829750 0.113930
Si Si3 0.665555 0.906428 0.336528
Si Si4 0.012415 0.187600 0.432278
Si Si5 0.049613 0.825461 0.761667
O O1 0.788000 0.087204 0.073030
O O2 0.610237 0.048375 0.128329
O O3 0.713241 0.881275 0.072549
O O4 0.627254 0.031593 0.000000
O O5 0.782378 0.717091 0.151140
O O6 0.825987 0.925309 0.165658
O O7 0.727592 0.998214 0.377346
O O8 0.703476 0.931104 0.267291
O O9 0.012724 0.239741 0.500000
O O10 0.112233 0.100024 0.428579
O O11 0.926439 0.867438 0.742655
#
# Coordination Sequence:
#
# PCOD9545807 Si02
#       5
#    16  16  16  16  16
#     4  10  21  36  56  82 115 152 191 231 281 339
#     4  10  21  35  55  82 114 149 188 230 283 338
#     4  10  21  32  53  80 115 148 181 230 288 338
#     4   9  17  31  52  79 105 134 182 237 287 336
#     4  11  20  36  59  87 116 143 186 239 292 344
#
# _framework density 25.602399999999999
#
# number of rings (size 3 to 8) (size 9 to 14) (size 15 to 20)
#    1.200    0.800    2.000    3.600    0.000    2.000 
#    0.000    1.000    0.000    4.800    0.000   14.000 
#    0.000    0.000    0.000    0.000    0.000    0.000 
#
# Total GULP energy -222970.868694 kJ/mol
# GULP energy per Si atom -5574.271717 kJ/mol
# Density = 2.554413 g / cm^3
# Si number density = 25.602400 Si / 1000 Ang^3
#
#
#
# Elastic Constant Matrix: (Units=GPa)
#
#
# Indices 1 2 3 4 5 6 
#
# 1 67.9229 20.0642 12.7084 0.0000 0.0000 19.1519
# 2 20.0642 67.9229 12.7084 0.0000 0.0000 -19.1519
# 3 12.7084 12.7084 77.0931 0.0000 0.0000 0.0000
# 4 0.0000 0.0000 0.0000 16.6554 0.0000 0.0000
# 5 0.0000 0.0000 0.0000 0.0000 16.6554 0.0000
# 6 19.1519 -19.1519 0.0000 0.0000 0.0000 34.6444
#
#
#
# Elastic Compliance Matrix: (Units=1/GPa)
#
#
# Indices 1 2 3 4 5 6 
#
# 1 0.024705 -0.012771 -0.001967 0.000000 0.000000 -0.020717
# 2 -0.012771 0.024705 -0.001967 0.000000 0.000000 0.020717
# 3 -0.001967 -0.001967 0.013620 0.000000 0.000000 0.000000
# 4 0.000000 0.000000 0.000000 0.060041 0.000000 0.000000
# 5 0.000000 0.000000 0.000000 0.000000 0.060041 0.000000
# 6 -0.020717 0.020717 0.000000 0.000000 0.000000 0.051770
#
#
# Mechanical properties :
#
#
# Convention : Reuss Voigt Hill
#
# Bulk Modulus (GPa) = 33.76293 33.76675 33.76484
# Shear Modulus (GPa) = 17.97497 24.75491 21.36494
#
# Velocity S-wave (km/s) = 2.65256 3.11287 2.89189
# Velocity P-wave (km/s) = 4.75368 5.11248 4.93634
#
# Compressibility (1/GPa) = 0.02961828
#
# Stress axis : x y z
#
# Youngs Moduli (GPa) = 40.47805 40.47805 73.42206
#
# Poissons Ratio (x) = 0.51695 0.14443
# Poissons Ratio (y) = 0.51695 0.14443
# Poissons Ratio (z) = 0.07963 0.07963
#
# Static dielectric constant tensor:
#      x y z
#    x 2.049750 0.000000 0.000000 
#    y 0.000000 2.049750 0.000000 
#    z 0.000000 0.000000 2.028160 
# 
# From -- ./inp_files/5738.got.cif
#   From: 2010.05.17/outbox.cif.g08.bks.cpg/sg87_3_cif.got.tgz:5738.got - 2010.06.03 19:07:00.
