data_PCOD9545079
_publ_section_title
;
Structure prediction by ZEFSAII (Michael W. Deem and Ramdas Pophale) SiO2 
 PCOD9545079
Probable space group: P 42/N
;
_chemical_formula_sum "Si O2"
_cell_formula_units_Z 40
_cell_length_a 8.822250
_cell_length_b 8.822250
_cell_length_c 24.851794
_cell_angle_alpha 90.000000
_cell_angle_beta 90.000000
_cell_angle_gamma 90.000000
_cell_volume 1934.267193
_symmetry_space_group_name_H-M "P 42/N"
_symmetry_group_IT_number 86
_space_group.IT_coordinate_system_code '2'
_symmetry_cell_setting 'tetragonal'
loop_
_space_group_symop_operation_xyz
x,y,z
-y,1/2+x,1/2+z
1/2-x,1/2-y,z
1/2+y,-x,1/2+z
-x,-y,-z
y,1/2-x,1/2-z
1/2+x,1/2+y,-z
1/2-y,x,1/2-z
loop_
_atom_site_type_symbol
_atom_site_label
_atom_site_fract_x
_atom_site_fract_y
_atom_site_fract_z
Si Si1 0.046371 0.546549 0.419842
Si Si2 0.238470 0.569491 0.512785
Si Si3 0.899345 0.856711 0.408140
Si Si4 0.420556 0.943787 0.802608
Si Si5 0.432941 0.583998 0.800644
O O1 0.201581 0.515506 0.451857
O O2 0.026606 0.504053 0.357686
O O3 0.911910 0.471276 0.453014
O O4 0.024457 0.729389 0.421455
O O5 0.250000 0.750000 0.515376
O O6 0.364540 0.469738 0.542988
O O7 0.750000 0.750000 0.397695
O O8 0.955820 0.948115 0.355866
O O9 0.437190 0.764120 0.809226
O O10 0.241094 0.967897 0.792992
O O11 0.522748 0.985418 0.751869
#
# Coordination Sequence:
#
# PCOD9545079 Si02
#       5
#     8   8   8   8   8
#     4   9  21  41  58  88 126 159 202 255 307 364
#     4  10  21  36  63  88 122 157 207 255 297 370
#     4   9  20  39  62  91 122 159 211 252 304 371
#     4  10  23  39  64  91 121 162 205 254 309 367
#     4  10  23  41  63  90 122 163 204 258 310 369
#
# _framework density 20.679663999999999
#
# number of rings (size 3 to 8) (size 9 to 14) (size 15 to 20)
#    0.000    2.400    0.000    0.000   14.000    2.800 
#    0.000    0.000    8.800    0.000    0.000    0.000 
#    0.000    0.000    0.000    0.000    0.000    0.000 
#
# Total GULP energy -223068.404853 kJ/mol
# GULP energy per Si atom -5576.710121 kJ/mol
# Density = 2.063260 g / cm^3
# Si number density = 20.679664 Si / 1000 Ang^3
#
#
#
# Elastic Constant Matrix: (Units=GPa)
#
#
# Indices 1 2 3 4 5 6 
#
# 1 26.3669 1.4817 33.7407 0.0000 0.0000 -5.4494
# 2 1.4817 26.3669 33.7407 0.0000 0.0000 5.4494
# 3 33.7407 33.7407 136.9530 0.0000 0.0000 0.0000
# 4 0.0000 0.0000 0.0000 28.4734 0.0000 0.0000
# 5 0.0000 0.0000 0.0000 0.0000 28.4734 0.0000
# 6 -5.4494 5.4494 0.0000 0.0000 0.0000 25.5966
#
#
#
# Elastic Compliance Matrix: (Units=1/GPa)
#
#
# Indices 1 2 3 4 5 6 
#
# 1 0.066708 0.022391 -0.021951 0.000000 0.000000 0.009435
# 2 0.022391 0.066708 -0.021951 0.000000 0.000000 -0.009435
# 3 -0.021951 -0.021951 0.018118 0.000000 0.000000 0.000000
# 4 0.000000 0.000000 0.000000 0.035121 0.000000 0.000000
# 5 0.000000 0.000000 0.000000 0.000000 0.035121 0.000000
# 6 0.009435 -0.009435 0.000000 0.000000 0.000000 0.043085
#
#
# Mechanical properties :
#
#
# Convention : Reuss Voigt Hill
#
# Bulk Modulus (GPa) = 9.21557 36.40141 22.80849
# Shear Modulus (GPa) = 14.53268 24.55692 19.54480
#
# Velocity S-wave (km/s) = 2.65382 3.44974 3.07762
# Velocity P-wave (km/s) = 3.72242 5.78864 4.86645
#
# Compressibility (1/GPa) = 0.10851206
#
# Stress axis : x y z
#
# Youngs Moduli (GPa) = 14.99071 14.99071 55.19426
#
# Poissons Ratio (x) = -0.33566 1.21158
# Poissons Ratio (y) = -0.33566 1.21158
# Poissons Ratio (z) = 0.32906 0.32906
#
# Static dielectric constant tensor:
#      x y z
#    x 1.759070 0.000000 0.000000 
#    y 0.000000 1.759070 0.000000 
#    z 0.000000 0.000000 1.778260 
# 
# From -- ./inp_files/4503.got.cif
#   From: 2010.05.17/outbox.cif.g08.bks.cpg/sg86_3_cif.got.tgz:4503.got - 2010.06.03 19:03:11.
