data_PCOD9545568
_publ_section_title
;
Structure prediction by ZEFSAII (Michael W. Deem and Ramdas Pophale) SiO2 
 PCOD9545568
Probable space group: I 4/M
;
_chemical_formula_sum "Si O2"
_cell_formula_units_Z 96
_cell_length_a 23.746657
_cell_length_b 23.746657
_cell_length_c 7.855472
_cell_angle_alpha 90.000000
_cell_angle_beta 90.000000
_cell_angle_gamma 90.000000
_cell_volume 4429.729873
_symmetry_space_group_name_H-M "I 4/M"
_symmetry_group_IT_number 87
_symmetry_cell_setting 'tetragonal'
loop_
_space_group_symop_operation_xyz
x,y,z
-y,x,z
-x,-y,z
y,-x,z
-x,-y,-z
y,-x,-z
x,y,-z
-y,x,-z
1/2+x,1/2+y,1/2+z
1/2-y,1/2+x,1/2+z
1/2-x,1/2-y,1/2+z
1/2+y,1/2-x,1/2+z
1/2-x,1/2-y,1/2-z
1/2+y,1/2-x,1/2-z
1/2+x,1/2+y,1/2-z
1/2-y,1/2+x,1/2-z
loop_
_atom_site_type_symbol
_atom_site_label
_atom_site_fract_x
_atom_site_fract_y
_atom_site_fract_z
Si Si1 0.977082 0.831759 0.209856
Si Si2 0.664133 0.280762 0.801056
Si Si3 0.715873 0.167127 0.206530
Si Si4 0.490903 0.913313 0.190164
Si Si5 0.704427 0.038759 0.794606
Si Si6 0.122804 0.091002 0.805513
O O1 0.980035 0.766675 0.263975
O O2 0.920627 0.863642 0.267369
O O3 0.029733 0.868551 0.271355
O O4 0.977351 0.829839 0.000000
O O5 0.672587 0.216382 0.745638
O O6 0.724012 0.312343 0.776868
O O7 0.618959 0.315903 0.698576
O O8 0.649247 0.281933 0.000000
O O9 0.699455 0.104438 0.259096
O O10 0.721106 0.167674 0.000000
O O11 0.447212 0.949853 0.299877
O O12 0.502757 0.848804 0.235448
O O13 0.467811 0.916487 0.000000
O O14 0.703948 0.037923 0.000000
O O15 0.104354 0.082124 0.000000
#
# Coordination Sequence:
#
# PCOD9545568 Si02
#       6
#    16  16  16  16  16  16
#     4   9  19  34  58  83 110 146 190 238 289 339
#     4  10  19  31  51  80 108 143 184 226 277 338
#     4   9  18  33  54  78 112 148 180 223 280 336
#     4  11  23  41  63  88 117 155 193 235 278 332
#     4  10  19  36  58  85 117 152 189 237 289 339
#     4  10  19  36  56  79 109 148 189 236 288 340
#
# _framework density 21.671748999999998
#
# number of rings (size 3 to 8) (size 9 to 14) (size 15 to 20)
#    0.000    2.167    1.667    2.500    0.000    3.000 
#    0.000    6.667    0.000    0.000    0.000    1.167 
#    0.000    0.000    0.000    0.000    0.000    0.000 
#
# Total GULP energy -267928.136995 kJ/mol
# GULP energy per Si atom -5581.836187 kJ/mol
# Density = 2.162242 g / cm^3
# Si number density = 21.671749 Si / 1000 Ang^3
#
#
#
# Elastic Constant Matrix: (Units=GPa)
#
#
# Indices 1 2 3 4 5 6 
#
# 1 86.6824 27.7779 -0.1339 0.0000 0.0000 13.2420
# 2 27.7779 86.6824 -0.1339 0.0000 0.0000 -13.2420
# 3 -0.1339 -0.1339 28.9262 0.0000 0.0000 0.0000
# 4 0.0000 0.0000 0.0000 10.9386 0.0000 0.0000
# 5 0.0000 0.0000 0.0000 0.0000 10.9386 0.0000
# 6 13.2420 -13.2420 0.0000 0.0000 0.0000 10.1999
#
#
#
# Elastic Compliance Matrix: (Units=1/GPa)
#
#
# Indices 1 2 3 4 5 6 
#
# 1 0.024758 -0.016022 0.000040 0.000000 0.000000 -0.052942
# 2 -0.016022 0.024758 0.000040 0.000000 0.000000 0.052942
# 3 0.000040 0.000040 0.034571 0.000000 0.000000 0.000000
# 4 0.000000 0.000000 0.000000 0.091420 0.000000 0.000000
# 5 0.000000 0.000000 0.000000 0.000000 0.091420 0.000000
# 6 -0.052942 0.052942 0.000000 0.000000 0.000000 0.235503
#
#
# Mechanical properties :
#
#
# Convention : Reuss Voigt Hill
#
# Bulk Modulus (GPa) = 19.15474 28.59012 23.87243
# Shear Modulus (GPa) = 9.06267 18.06746 13.56507
#
# Velocity S-wave (km/s) = 2.04716 2.89050 2.50458
# Velocity P-wave (km/s) = 3.80074 4.93568 4.40491
#
# Compressibility (1/GPa) = 0.05220640
#
# Stress axis : x y z
#
# Youngs Moduli (GPa) = 40.39052 40.39052 28.92589
#
# Poissons Ratio (x) = 0.64712 -0.00117
# Poissons Ratio (y) = 0.64712 -0.00117
# Poissons Ratio (z) = -0.00163 -0.00163
#
# Static dielectric constant tensor:
#      x y z
#    x 1.787830 0.000000 0.000000 
#    y 0.000000 1.787830 0.000000 
#    z 0.000000 0.000000 1.794540 
# 
# From -- ./inp_files/1361.got.cif
#   From: 2010.05.17/outbox.cif.g08.bks.cpg/sg87_1_cif.got.tgz:1361.got - 2010.06.03 19:07:00.
