data_PCOD9545103
_publ_section_title
;
Structure prediction by ZEFSAII (Michael W. Deem and Ramdas Pophale) SiO2 
 PCOD9545103
Probable space group: P 42/N
;
_chemical_formula_sum "Si O2"
_cell_formula_units_Z 48
_cell_length_a 8.746583
_cell_length_b 8.746583
_cell_length_c 30.427757
_cell_angle_alpha 90.000000
_cell_angle_beta 90.000000
_cell_angle_gamma 90.000000
_cell_volume 2327.805997
_symmetry_space_group_name_H-M "P 42/N"
_symmetry_group_IT_number 86
_space_group.IT_coordinate_system_code '2'
_symmetry_cell_setting 'tetragonal'
loop_
_space_group_symop_operation_xyz
x,y,z
-y,1/2+x,1/2+z
1/2-x,1/2-y,z
1/2+y,-x,1/2+z
-x,-y,-z
y,1/2-x,1/2-z
1/2+x,1/2+y,-z
1/2-y,x,1/2-z
loop_
_atom_site_type_symbol
_atom_site_label
_atom_site_fract_x
_atom_site_fract_y
_atom_site_fract_z
Si Si1 0.585687 0.837710 0.649482
Si Si2 0.183478 0.918373 0.963563
Si Si3 0.417850 0.180927 0.448841
Si Si4 0.619324 0.877909 0.200760
Si Si5 0.202235 0.925281 0.868686
Si Si6 0.118154 0.849621 0.222885
O O1 0.750000 0.750000 0.654360
O O2 0.522612 0.790248 0.600923
O O3 0.481407 0.812554 0.692349
O O4 0.583397 0.023989 0.645746
O O5 0.250000 0.750000 0.963497
O O6 0.225918 0.995961 0.917293
O O7 0.000126 0.908580 0.958586
O O8 0.239818 0.993136 0.008602
O O9 0.250000 0.250000 0.449027
O O10 0.750000 0.750000 0.206638
O O11 0.470215 0.775505 0.192843
O O12 0.686576 0.984943 0.163415
O O13 0.594466 0.990439 0.242490
O O14 0.250000 0.750000 0.870472
O O15 0.250000 0.750000 0.246280
#
# Coordination Sequence:
#
# PCOD9545103 Si02
#       6
#     8   8   8   8   8   8
#     4  10  22  41  61  91 127 170 208 256 325 386
#     4   9  19  36  57  92 120 161 211 250 316 376
#     4   9  19  37  58  83 129 163 202 261 308 372
#     4  12  22  45  68  91 123 162 214 271 319 382
#     4  10  21  38  67  91 124 165 210 266 318 386
#     4  12  25  42  64  93 125 162 211 265 326 387
#
# _framework density 20.620274999999999
#
# number of rings (size 3 to 8) (size 9 to 14) (size 15 to 20)
#    0.000    1.667    3.333    0.500    2.333    2.000 
#    3.000    0.000    0.000    0.000    0.000    0.000 
#    0.000    0.000    0.000    0.000    0.000    0.000 
#
# Total GULP energy -267362.386047 kJ/mol
# GULP energy per Si atom -5570.049709 kJ/mol
# Density = 2.057334 g / cm^3
# Si number density = 20.620275 Si / 1000 Ang^3
#
#
#
# Elastic Constant Matrix: (Units=GPa)
#
#
# Indices 1 2 3 4 5 6 
#
# 1 42.2279 7.2730 33.9506 0.0000 0.0000 -6.3002
# 2 7.2730 42.2279 33.9506 0.0000 0.0000 6.3002
# 3 33.9506 33.9506 136.9023 0.0000 0.0000 0.0000
# 4 0.0000 0.0000 0.0000 29.8385 0.0000 0.0000
# 5 0.0000 0.0000 0.0000 0.0000 29.8385 0.0000
# 6 -6.3002 6.3002 0.0000 0.0000 0.0000 40.2256
#
#
#
# Elastic Compliance Matrix: (Units=1/GPa)
#
#
# Indices 1 2 3 4 5 6 
#
# 1 0.030468 0.000148 -0.007593 0.000000 0.000000 0.004749
# 2 0.000148 0.030468 -0.007593 0.000000 0.000000 -0.004749
# 3 -0.007593 -0.007593 0.011070 0.000000 0.000000 0.000000
# 4 0.000000 0.000000 0.000000 0.033514 0.000000 0.000000
# 5 0.000000 0.000000 0.000000 0.000000 0.033514 0.000000
# 6 0.004749 -0.004749 0.000000 0.000000 0.000000 0.026347
#
#
# Mechanical properties :
#
#
# Convention : Reuss Voigt Hill
#
# Bulk Modulus (GPa) = 23.84761 41.30071 32.57416
# Shear Modulus (GPa) = 23.87393 29.72613 26.80003
#
# Velocity S-wave (km/s) = 3.40632 3.80096 3.60904
# Velocity P-wave (km/s) = 5.20201 6.27182 5.76180
#
# Compressibility (1/GPa) = 0.04193292
#
# Stress axis : x y z
#
# Youngs Moduli (GPa) = 32.82095 32.82095 90.33173
#
# Poissons Ratio (x) = -0.00487 0.68586
# Poissons Ratio (y) = -0.00487 0.68586
# Poissons Ratio (z) = 0.24920 0.24920
#
# Static dielectric constant tensor:
#      x y z
#    x 1.816640 0.000000 0.000000 
#    y 0.000000 1.816640 0.000000 
#    z 0.000000 0.000000 1.832350 
# 
# From -- ./inp_files/5161.got.cif
#   From: 2010.05.17/outbox.cif.g08.bks.cpg/sg86_3_cif.got.tgz:5161.got - 2010.06.03 19:03:11.
