data_PCOD9545936
_publ_section_title
;
Structure prediction by ZEFSAII (Michael W. Deem and Ramdas Pophale) SiO2 
 PCOD9545936
Probable space group: I 4/M
;
_chemical_formula_sum "Si O2"
_cell_formula_units_Z 88
_cell_length_a 12.319579
_cell_length_b 12.319579
_cell_length_c 26.508646
_cell_angle_alpha 90.000000
_cell_angle_beta 90.000000
_cell_angle_gamma 90.000000
_cell_volume 4023.270929
_symmetry_space_group_name_H-M "I 4/M"
_symmetry_group_IT_number 87
_symmetry_cell_setting 'tetragonal'
loop_
_space_group_symop_operation_xyz
x,y,z
-y,x,z
-x,-y,z
y,-x,z
-x,-y,-z
y,-x,-z
x,y,-z
-y,x,-z
1/2+x,1/2+y,1/2+z
1/2-y,1/2+x,1/2+z
1/2-x,1/2-y,1/2+z
1/2+y,1/2-x,1/2+z
1/2-x,1/2-y,1/2-z
1/2+y,1/2-x,1/2-z
1/2+x,1/2+y,1/2-z
1/2-y,1/2+x,1/2-z
loop_
_atom_site_type_symbol
_atom_site_label
_atom_site_fract_x
_atom_site_fract_y
_atom_site_fract_z
Si Si1 0.361730 0.377826 0.889236
Si Si2 0.951119 0.823910 0.060265
Si Si3 0.476987 0.135281 0.215344
Si Si4 0.864414 0.673729 0.145736
Si Si5 0.632622 0.625266 0.000000
Si Si6 0.937583 0.830981 0.234269
O O1 0.490194 0.354276 0.884640
O O2 0.265920 0.327122 0.856965
O O3 0.327383 0.338575 0.945857
O O4 0.919056 0.720514 0.094641
O O5 0.073156 0.870368 0.070930
O O6 0.945059 0.801661 0.000000
O O7 0.381679 0.057511 0.235671
O O8 0.551040 0.111350 0.166722
O O9 0.430484 0.254967 0.216897
O O10 0.902208 0.758861 0.187478
O O11 0.504270 0.646345 0.000000
O O12 0.061511 0.868074 0.233878
#
# Coordination Sequence:
#
# PCOD9545936 Si02
#       6
#    16  16  16  16   8  16
#     4   9  19  34  53  84 123 165 208 250 298 359
#     4   9  19  38  63  92 129 171 213 254 298 354
#     4   9  21  40  58  84 118 155 196 249 319 378
#     4  11  21  33  61  94 120 157 205 261 309 364
#     4   7  12  28  50  70 106 157 198 234 280 336
#     4  10  22  40  61  84 115 155 205 261 311 370
#
# _framework density 21.872751000000001
#
# number of rings (size 3 to 8) (size 9 to 14) (size 15 to 20)
#    0.000    2.636    0.000    2.727    1.273    7.273 
#    0.000    7.273    0.000    0.000    0.000   12.727 
#    0.000    0.000    0.000    0.000    0.000    0.000 
#
# Total GULP energy -245018.387385 kJ/mol
# GULP energy per Si atom -5568.599713 kJ/mol
# Density = 2.182297 g / cm^3
# Si number density = 21.872751 Si / 1000 Ang^3
#
#
#
# Elastic Constant Matrix: (Units=GPa)
#
#
# Indices 1 2 3 4 5 6 
#
# 1 99.9092 38.9485 47.5270 0.0000 0.0000 8.7763
# 2 38.9485 99.9092 47.5270 0.0000 0.0000 -8.7763
# 3 47.5270 47.5270 96.9454 0.0000 0.0000 0.0000
# 4 0.0000 0.0000 0.0000 35.2265 0.0000 0.0000
# 5 0.0000 0.0000 0.0000 0.0000 35.2265 0.0000
# 6 8.7763 -8.7763 0.0000 0.0000 0.0000 -83.2339
#
#
#
# Elastic Compliance Matrix: (Units=1/GPa)
#
#
# Indices 1 2 3 4 5 6 
#
# 1 0.013380 -0.002541 -0.005314 0.000000 0.000000 0.001679
# 2 -0.002541 0.013380 -0.005314 0.000000 0.000000 -0.001679
# 3 -0.005314 -0.005314 0.015525 0.000000 0.000000 0.000000
# 4 0.000000 0.000000 0.000000 0.028388 0.000000 0.000000
# 5 0.000000 0.000000 0.000000 0.000000 0.028388 0.000000
# 6 0.001679 -0.001679 0.000000 0.000000 0.000000 -0.011660
#
#
# Mechanical properties :
#
#
# Convention : Reuss Voigt Hill
#
# Bulk Modulus (GPa) = 62.70298 62.75209 62.72754
# Shear Modulus (GPa) = 41.99806 8.29459 25.14632
#
# Velocity S-wave (km/s) = 4.38666 1.94947 3.39435
# Velocity P-wave (km/s) = 7.37472 5.81542 6.64099
#
# Compressibility (1/GPa) = 0.01594821
#
# Stress axis : x y z
#
# Youngs Moduli (GPa) = 74.73881 74.73881 64.41116
#
# Poissons Ratio (x) = 0.18989 0.34227
# Poissons Ratio (y) = 0.18989 0.34227
# Poissons Ratio (z) = 0.39715 0.39715
#
# Static dielectric constant tensor:
#      x y z
#    x 1.860180 0.000000 0.000000 
#    y 0.000000 1.860180 0.000000 
#    z 0.000000 0.000000 1.879480 
# 
# From -- ./inp_files/6603.got.cif
#   From: 2010.05.17/outbox.cif.g08.bks.cpg/sg87_4_cif.got.tgz:6603.got - 2010.06.03 19:07:00.
