data_PCOD9545996
_publ_section_title
;
Structure prediction by ZEFSAII (Michael W. Deem and Ramdas Pophale) SiO2 
 PCOD9545996
Probable space group: I 4/M
;
_chemical_formula_sum "Si O2"
_cell_formula_units_Z 88
_cell_length_a 11.708285
_cell_length_b 11.708285
_cell_length_c 30.855118
_cell_angle_alpha 90.000000
_cell_angle_beta 90.000000
_cell_angle_gamma 90.000000
_cell_volume 4229.741072
_symmetry_space_group_name_H-M "I 4/M"
_symmetry_group_IT_number 87
_symmetry_cell_setting 'tetragonal'
loop_
_space_group_symop_operation_xyz
x,y,z
-y,x,z
-x,-y,z
y,-x,z
-x,-y,-z
y,-x,-z
x,y,-z
-y,x,-z
1/2+x,1/2+y,1/2+z
1/2-y,1/2+x,1/2+z
1/2-x,1/2-y,1/2+z
1/2+y,1/2-x,1/2+z
1/2-x,1/2-y,1/2-z
1/2+y,1/2-x,1/2-z
1/2+x,1/2+y,1/2-z
1/2-y,1/2+x,1/2-z
loop_
_atom_site_type_symbol
_atom_site_label
_atom_site_fract_x
_atom_site_fract_y
_atom_site_fract_z
Si Si1 0.310500 0.776549 0.658184
Si Si2 0.144678 0.656096 0.928634
Si Si3 0.000000 0.500000 0.362843
Si Si4 0.554852 0.686604 0.783609
Si Si5 0.312700 0.938367 0.196236
Si Si6 0.189390 0.036750 0.000000
Si Si7 0.683697 0.438526 0.000000
O O1 0.297110 0.762261 0.606729
O O2 0.242652 0.889287 0.673760
O O3 0.439994 0.779634 0.675658
O O4 0.261426 0.666052 0.680605
O O5 0.075107 0.574084 0.896196
O O6 0.061230 0.729707 0.958931
O O7 0.236330 0.592132 0.958789
O O8 0.067943 0.578581 0.328454
O O9 0.426680 0.636015 0.779130
O O10 0.561148 0.786834 0.747299
O O11 0.086780 0.130040 0.000000
O O12 0.640168 0.569496 0.000000
#
# Coordination Sequence:
#
# PCOD9545996 Si02
#       7
#    16  16   8  16  16   8   8
#     4  11  26  41  70 102 133 186 228 286 341 414
#     4  10  25  44  68  99 136 179 216 283 345 412
#     4  10  26  41  67 104 134 180 228 279 341 412
#     4  11  25  46  67  95 138 189 238 285 348 403
#     4  11  24  44  65  99 138 179 236 280 343 403
#     4  10  24  45  72 106 136 173 226 280 348 430
#     4  10  24  43  68  98 128 173 222 276 340 416
#
# _framework density 20.805057000000001
#
# number of rings (size 3 to 8) (size 9 to 14) (size 15 to 20)
#    0.000    1.455    1.818    0.545   12.727    3.273 
#    0.000    1.818    0.000    0.000    0.000    0.000 
#    0.000    0.000    0.000    0.000    0.000    0.000 
#
# Total GULP energy -245199.468142 kJ/mol
# GULP energy per Si atom -5572.715185 kJ/mol
# Density = 2.075770 g / cm^3
# Si number density = 20.805057 Si / 1000 Ang^3
#
#
#
# Elastic Constant Matrix: (Units=GPa)
#
#
# Indices 1 2 3 4 5 6 
#
# 1 78.9187 26.5846 19.2963 0.0000 0.0000 -2.3325
# 2 26.5846 78.9187 19.2963 0.0000 0.0000 2.3325
# 3 19.2963 19.2963 121.1800 0.0000 0.0000 0.0000
# 4 0.0000 0.0000 0.0000 34.7067 0.0000 0.0000
# 5 0.0000 0.0000 0.0000 0.0000 34.7067 0.0000
# 6 -2.3325 2.3325 0.0000 0.0000 0.0000 37.6543
#
#
#
# Elastic Compliance Matrix: (Units=1/GPa)
#
#
# Indices 1 2 3 4 5 6 
#
# 1 0.014639 -0.004575 -0.001603 0.000000 0.000000 0.001190
# 2 -0.004575 0.014639 -0.001603 0.000000 0.000000 -0.001190
# 3 -0.001603 -0.001603 0.008763 0.000000 0.000000 0.000000
# 4 0.000000 0.000000 0.000000 0.028813 0.000000 0.000000
# 5 0.000000 0.000000 0.000000 0.000000 0.028813 0.000000
# 6 0.001190 -0.001190 0.000000 0.000000 0.000000 0.026705
#
#
# Mechanical properties :
#
#
# Convention : Reuss Voigt Hill
#
# Bulk Modulus (GPa) = 44.48160 45.48576 44.98368
# Shear Modulus (GPa) = 34.38179 35.66955 35.02567
#
# Velocity S-wave (km/s) = 4.06959 4.14510 4.10752
# Velocity P-wave (km/s) = 6.59611 6.69473 6.64561
#
# Compressibility (1/GPa) = 0.02248120
#
# Stress axis : x y z
#
# Youngs Moduli (GPa) = 68.30894 68.30894 114.12151
#
# Poissons Ratio (x) = 0.31250 0.18290
# Poissons Ratio (y) = 0.31250 0.18290
# Poissons Ratio (z) = 0.10948 0.10948
#
# Static dielectric constant tensor:
#      x y z
#    x 1.857660 0.000000 0.000000 
#    y 0.000000 1.857660 0.000000 
#    z 0.000000 0.000000 1.736590 
# 
# From -- ./inp_files/6613.got.cif
#   From: 2010.05.17/outbox.cif.g08.bks.cpg/sg87_4_cif.got.tgz:6613.got - 2010.06.03 19:07:00.
