data_PCOD9545027
_publ_section_title
;
Structure prediction by ZEFSAII (Michael W. Deem and Ramdas Pophale) SiO2 
 PCOD9545027
Probable space group: P 42/N
;
_chemical_formula_sum "Si O2"
_cell_formula_units_Z 58
_cell_length_a 16.377157
_cell_length_b 16.377157
_cell_length_c 9.312225
_cell_angle_alpha 90.000000
_cell_angle_beta 90.000000
_cell_angle_gamma 90.000000
_cell_volume 2497.643707
_symmetry_space_group_name_H-M "P 42/N"
_symmetry_group_IT_number 86
_space_group.IT_coordinate_system_code '2'
_symmetry_cell_setting 'tetragonal'
loop_
_space_group_symop_operation_xyz
x,y,z
-y,1/2+x,1/2+z
1/2-x,1/2-y,z
1/2+y,-x,1/2+z
-x,-y,-z
y,1/2-x,1/2-z
1/2+x,1/2+y,-z
1/2-y,x,1/2-z
loop_
_atom_site_type_symbol
_atom_site_label
_atom_site_fract_x
_atom_site_fract_y
_atom_site_fract_z
Si Si1 0.750000 0.750000 0.250000
Si Si2 0.340684 0.714411 0.508159
Si Si3 0.866544 0.141634 0.179259
Si Si4 0.705118 0.456634 0.602195
Si Si5 0.837592 0.882457 0.417270
Si Si6 0.858272 0.823063 0.706875
Si Si7 0.605640 0.523113 0.858776
Si Si8 0.570091 0.534232 0.174087
O O1 0.765313 0.829568 0.347735
O O2 0.250000 0.750000 0.494126
O O3 0.350915 0.695529 0.677437
O O4 0.383286 0.786133 0.414760
O O5 0.345793 0.624998 0.436872
O O6 0.927169 0.201175 0.091348
O O7 0.907657 0.057278 0.223334
O O8 0.687210 0.532574 0.495874
O O9 0.676338 0.483059 0.762195
O O10 0.876595 0.824948 0.539454
O O11 0.900939 0.904250 0.294012
O O12 0.855498 0.734666 0.774805
O O13 0.912514 0.890001 0.783950
O O14 0.526610 0.465165 0.852908
O O15 0.617802 0.544500 0.024365
#
# Coordination Sequence:
#
# PCOD9545027 Si02
#       8
#     2   8   8   8   8   8   8   8
#     4  12  28  48  74 100 136 180 234 296 356 424
#     4  10  20  39  66  99 140 178 234 280 335 424
#     4  11  22  40  68 100 140 183 228 281 350 420
#     4  10  22  44  68  99 136 188 231 283 347 413
#     4  11  26  46  71 103 136 181 236 297 355 415
#     4  10  23  44  72 102 134 182 237 293 351 422
#     4  10  25  44  68  99 141 187 228 287 354 414
#     4  11  25  45  66 104 143 180 229 290 354 418
#
# _framework density 23.221889000000001
#
# number of rings (size 3 to 8) (size 9 to 14) (size 15 to 20)
#    0.000    1.517    1.379    2.897    7.724    4.414 
#    2.483    0.000    0.000    0.000    0.000    0.000 
#    0.000    0.000    0.000    0.000    0.000    0.000 
#
# Total GULP energy -323828.402309 kJ/mol
# GULP energy per Si atom -5583.248316 kJ/mol
# Density = 2.316903 g / cm^3
# Si number density = 23.221889 Si / 1000 Ang^3
#
#
#
# Elastic Constant Matrix: (Units=GPa)
#
#
# Indices 1 2 3 4 5 6 
#
# 1 40.7737 14.5272 23.0225 0.0000 0.0000 -1.3915
# 2 14.5272 40.7737 23.0225 0.0000 0.0000 1.3915
# 3 23.0225 23.0225 140.6700 0.0000 0.0000 0.0000
# 4 0.0000 0.0000 0.0000 19.7131 0.0000 0.0000
# 5 0.0000 0.0000 0.0000 0.0000 19.7131 0.0000
# 6 -1.3915 1.3915 0.0000 0.0000 0.0000 27.9421
#
#
#
# Elastic Compliance Matrix: (Units=1/GPa)
#
#
# Indices 1 2 3 4 5 6 
#
# 1 0.029619 -0.008683 -0.003426 0.000000 0.000000 0.001907
# 2 -0.008683 0.029619 -0.003426 0.000000 0.000000 -0.001907
# 3 -0.003426 -0.003426 0.008230 0.000000 0.000000 0.000000
# 4 0.000000 0.000000 0.000000 0.050728 0.000000 0.000000
# 5 0.000000 0.000000 0.000000 0.000000 0.050728 0.000000
# 6 0.001907 -0.001907 0.000000 0.000000 0.000000 0.035978
#
#
# Mechanical properties :
#
#
# Convention : Reuss Voigt Hill
#
# Bulk Modulus (GPa) = 27.47529 38.15130 32.81330
# Shear Modulus (GPa) = 20.15258 24.24999 22.20128
#
# Velocity S-wave (km/s) = 2.94909 3.23503 3.09536
# Velocity P-wave (km/s) = 4.84288 5.51530 5.18999
#
# Compressibility (1/GPa) = 0.03639634
#
# Stress axis : x y z
#
# Youngs Moduli (GPa) = 33.76192 33.76192 121.50084
#
# Poissons Ratio (x) = 0.29317 0.41631
# Poissons Ratio (y) = 0.29317 0.41631
# Poissons Ratio (z) = 0.11568 0.11568
#
# Static dielectric constant tensor:
#      x y z
#    x 1.896010 0.000000 0.000000 
#    y 0.000000 1.896010 0.000000 
#    z 0.000000 0.000000 1.896270 
# 
# From -- ./inp_files/1478.got.cif
#   From: 2010.05.17/outbox.cif.g08.bks.cpg/sg86_1_cif.got.tgz:1478.got - 2010.06.03 19:03:11.
