data_PCOD9545341
_publ_section_title
;
Structure prediction by ZEFSAII (Michael W. Deem and Ramdas Pophale) SiO2 
 PCOD9545341
Probable space group: P 42/N
;
_chemical_formula_sum "Si O2"
_cell_formula_units_Z 52
_cell_length_a 16.278806
_cell_length_b 16.278806
_cell_length_c 9.854109
_cell_angle_alpha 90.000000
_cell_angle_beta 90.000000
_cell_angle_gamma 90.000000
_cell_volume 2611.334202
_symmetry_space_group_name_H-M "P 42/N"
_symmetry_group_IT_number 86
_space_group.IT_coordinate_system_code '2'
_symmetry_cell_setting 'tetragonal'
loop_
_space_group_symop_operation_xyz
x,y,z
-y,1/2+x,1/2+z
1/2-x,1/2-y,z
1/2+y,-x,1/2+z
-x,-y,-z
y,1/2-x,1/2-z
1/2+x,1/2+y,-z
1/2-y,x,1/2-z
loop_
_atom_site_type_symbol
_atom_site_label
_atom_site_fract_x
_atom_site_fract_y
_atom_site_fract_z
Si Si1 0.950163 0.182435 0.362360
Si Si2 0.250000 0.250000 0.750000
Si Si3 0.153259 0.966590 0.575707
Si Si4 0.482117 0.399709 0.631863
Si Si5 0.083412 0.203784 0.861934
Si Si6 0.098998 0.144470 0.155689
Si Si7 0.965318 0.349869 0.240738
Si Si8 0.250000 0.250000 0.250000
O O1 0.872861 0.120219 0.359814
O O2 0.928472 0.277533 0.334195
O O3 0.990195 0.158062 0.507381
O O4 0.020620 0.162673 0.251138
O O5 0.172167 0.244210 0.848734
O O6 0.178072 0.963558 0.417038
O O7 0.070379 0.021998 0.581952
O O8 0.227105 0.013543 0.646431
O O9 0.423200 0.352011 0.731189
O O10 0.561317 0.423196 0.722915
O O11 0.074908 0.151020 0.998567
O O12 0.171411 0.211436 0.173874
O O13 0.134009 0.056700 0.202837
#
# Coordination Sequence:
#
# PCOD9545341 Si02
#       8
#     8   2   8   8   8   8   8   2
#     4  11  22  40  67  90 123 173 216 262 326 386
#     4  12  26  40  60  94 142 180 188 278 358 412
#     4  11  21  43  65  91 132 175 210 271 335 394
#     4  11  24  42  61  94 132 171 207 272 336 392
#     4  12  26  39  60  96 135 165 215 265 337 398
#     4  12  22  36  63  94 126 168 212 266 318 403
#     4  11  22  41  67  93 124 169 231 261 325 400
#     4  12  22  32  60  98 130 152 208 270 310 388
#
# _framework density 19.913191999999999
#
# number of rings (size 3 to 8) (size 9 to 14) (size 15 to 20)
#    0.000    0.615    7.692    1.385    2.154    0.615 
#    2.769    0.769    0.000    3.692    0.000    0.000 
#    0.000    0.000    0.000    0.000    0.000    0.000 
#
# Total GULP energy -290151.174215 kJ/mol
# GULP energy per Si atom -5579.830273 kJ/mol
# Density = 1.986787 g / cm^3
# Si number density = 19.913192 Si / 1000 Ang^3
#
#
#
# Elastic Constant Matrix: (Units=GPa)
#
#
# Indices 1 2 3 4 5 6 
#
# 1 79.3728 14.0691 32.2376 0.0000 0.0000 -3.1878
# 2 14.0691 79.3728 32.2376 0.0000 0.0000 3.1878
# 3 32.2376 32.2376 79.5889 0.0000 0.0000 0.0000
# 4 0.0000 0.0000 0.0000 18.6342 0.0000 0.0000
# 5 0.0000 0.0000 0.0000 0.0000 18.6342 0.0000
# 6 -3.1878 3.1878 0.0000 0.0000 0.0000 21.1245
#
#
#
# Elastic Compliance Matrix: (Units=1/GPa)
#
#
# Indices 1 2 3 4 5 6 
#
# 1 0.015198 -0.000345 -0.006016 0.000000 0.000000 0.002345
# 2 -0.000345 0.015198 -0.006016 0.000000 0.000000 -0.002345
# 3 -0.006016 -0.006016 0.017438 0.000000 0.000000 0.000000
# 4 0.000000 0.000000 0.000000 0.053665 0.000000 0.000000
# 5 0.000000 0.000000 0.000000 0.000000 0.053665 0.000000
# 6 0.002345 -0.002345 0.000000 0.000000 0.000000 0.048046
#
#
# Mechanical properties :
#
#
# Convention : Reuss Voigt Hill
#
# Bulk Modulus (GPa) = 43.32855 43.93589 43.63222
# Shear Modulus (GPa) = 21.21731 22.33125 21.77428
#
# Velocity S-wave (km/s) = 3.26773 3.35241 3.31034
# Velocity P-wave (km/s) = 6.00361 6.09069 6.04731
#
# Compressibility (1/GPa) = 0.02307947
#
# Stress axis : x y z
#
# Youngs Moduli (GPa) = 65.80004 65.80004 57.34491
#
# Poissons Ratio (x) = 0.02267 0.34500
# Poissons Ratio (y) = 0.02267 0.34500
# Poissons Ratio (z) = 0.39587 0.39587
#
# Static dielectric constant tensor:
#      x y z
#    x 1.732390 0.000000 0.000000 
#    y 0.000000 1.732390 0.000000 
#    z 0.000000 0.000000 1.677820 
# 
# From -- ./inp_files/1449.got.cif
#   From: 2010.05.17/outbox.cif.g08.bks.cpg/sg86_1_cif.got.tgz:1449.got - 2010.06.03 19:03:11.
