data_PCOD9545830
_publ_section_title
;
Structure prediction by ZEFSAII (Michael W. Deem and Ramdas Pophale) SiO2 
 PCOD9545830
Probable space group: I 4/M
;
_chemical_formula_sum "Si O2"
_cell_formula_units_Z 96
_cell_length_a 24.471647
_cell_length_b 24.471647
_cell_length_c 7.589431
_cell_angle_alpha 90.000000
_cell_angle_beta 90.000000
_cell_angle_gamma 90.000000
_cell_volume 4545.018085
_symmetry_space_group_name_H-M "I 4/M"
_symmetry_group_IT_number 87
_symmetry_cell_setting 'tetragonal'
loop_
_space_group_symop_operation_xyz
x,y,z
-y,x,z
-x,-y,z
y,-x,z
-x,-y,-z
y,-x,-z
x,y,-z
-y,x,-z
1/2+x,1/2+y,1/2+z
1/2-y,1/2+x,1/2+z
1/2-x,1/2-y,1/2+z
1/2+y,1/2-x,1/2+z
1/2-x,1/2-y,1/2-z
1/2+y,1/2-x,1/2-z
1/2+x,1/2+y,1/2-z
1/2-y,1/2+x,1/2-z
loop_
_atom_site_type_symbol
_atom_site_label
_atom_site_fract_x
_atom_site_fract_y
_atom_site_fract_z
Si Si1 0.013303 0.087170 0.714853
Si Si2 0.209192 0.958143 0.283625
Si Si3 0.465546 0.920199 0.797796
Si Si4 0.042525 0.700593 0.296326
Si Si5 0.267068 0.161878 0.207422
Si Si6 0.234558 0.835133 0.712847
O O1 0.013305 0.087665 0.500000
O O2 0.023954 0.148696 0.774007
O O3 0.955569 0.060541 0.768943
O O4 0.208566 0.959108 0.500000
O O5 0.223006 0.896486 0.228599
O O6 0.255767 0.999932 0.221699
O O7 0.529768 0.934963 0.794599
O O8 0.457014 0.860290 0.718424
O O9 0.446035 0.920695 0.000000
O O10 0.025680 0.692376 0.500000
O O11 0.103159 0.724853 0.291562
O O12 0.207204 0.187364 0.234259
O O13 0.309313 0.208041 0.275373
O O14 0.276695 0.154951 0.000000
O O15 0.236400 0.835193 0.500000
#
# Coordination Sequence:
#
# PCOD9545830 Si02
#       6
#    16  16  16  16  16  16
#     4   8  14  24  41  71 105 131 161 208 263 310
#     4   9  18  31  51  78 105 139 178 224 273 317
#     4  10  21  37  58  81 109 145 184 230 279 333
#     4  10  22  36  55  83 111 142 185 229 272 327
#     4  10  21  36  56  80 110 147 182 225 277 328
#     4   9  19  36  58  80 106 142 183 227 275 325
#
# _framework density 21.122028
#
# number of rings (size 3 to 8) (size 9 to 14) (size 15 to 20)
#    0.000    2.667    0.000    2.000    4.667    2.000 
#    0.000    0.833    0.000    0.000    0.000    0.000 
#    0.000    1.333    0.000    0.000    0.000    0.000 
#
# Total GULP energy -267996.642416 kJ/mol
# GULP energy per Si atom -5583.263384 kJ/mol
# Density = 2.107395 g / cm^3
# Si number density = 21.122028 Si / 1000 Ang^3
#
#
#
# Elastic Constant Matrix: (Units=GPa)
#
#
# Indices 1 2 3 4 5 6 
#
# 1 118.6883 56.1581 -8.7170 0.0000 0.0000 0.7044
# 2 56.1581 118.6883 -8.7170 0.0000 0.0000 -0.7044
# 3 -8.7170 -8.7170 47.1379 0.0000 0.0000 0.0000
# 4 0.0000 0.0000 0.0000 4.1010 0.0000 0.0000
# 5 0.0000 0.0000 0.0000 0.0000 4.1010 0.0000
# 6 0.7044 -0.7044 0.0000 0.0000 0.0000 12.4643
#
#
#
# Elastic Compliance Matrix: (Units=1/GPa)
#
#
# Indices 1 2 3 4 5 6 
#
# 1 0.010920 -0.005093 0.001078 0.000000 0.000000 -0.000905
# 2 -0.005093 0.010920 0.001078 0.000000 0.000000 0.000905
# 3 0.001078 0.001078 0.021613 0.000000 0.000000 0.000000
# 4 0.000000 0.000000 0.000000 0.243841 0.000000 0.000000
# 5 0.000000 0.000000 0.000000 0.000000 0.243841 0.000000
# 6 -0.000905 0.000905 0.000000 0.000000 0.000000 0.080331
#
#
# Mechanical properties :
#
#
# Convention : Reuss Voigt Hill
#
# Bulk Modulus (GPa) = 26.61243 40.21806 33.41524
# Shear Modulus (GPa) = 7.93817 20.51930 14.22874
#
# Velocity S-wave (km/s) = 1.94072 3.12021 2.59828
# Velocity P-wave (km/s) = 4.20102 5.66243 4.98557
#
# Compressibility (1/GPa) = 0.03757643
#
# Stress axis : x y z
#
# Youngs Moduli (GPa) = 91.57758 91.57758 46.26870
#
# Poissons Ratio (x) = 0.46640 -0.04986
# Poissons Ratio (y) = 0.46640 -0.04986
# Poissons Ratio (z) = -0.09868 -0.09868
#
# Static dielectric constant tensor:
#      x y z
#    x 1.728230 0.000000 0.000000 
#    y 0.000000 1.728230 0.000000 
#    z 0.000000 0.000000 1.778810 
# 
# From -- ./inp_files/1375.got.cif
#   From: 2010.05.17/outbox.cif.g08.bks.cpg/sg87_1_cif.got.tgz:1375.got - 2010.06.03 19:07:00.
