data_PCOD9545270
_publ_section_title
;
Structure prediction by ZEFSAII (Michael W. Deem and Ramdas Pophale) SiO2 
 PCOD9545270
Probable space group: P 42/N
;
_chemical_formula_sum "Si O2"
_cell_formula_units_Z 24
_cell_length_a 11.989411
_cell_length_b 11.989411
_cell_length_c 7.221015
_cell_angle_alpha 90.000000
_cell_angle_beta 90.000000
_cell_angle_gamma 90.000000
_cell_volume 1037.991850
_symmetry_space_group_name_H-M "P 42/N"
_symmetry_group_IT_number 86
_space_group.IT_coordinate_system_code '2'
_symmetry_cell_setting 'tetragonal'
loop_
_space_group_symop_operation_xyz
x,y,z
-y,1/2+x,1/2+z
1/2-x,1/2-y,z
1/2+y,-x,1/2+z
-x,-y,-z
y,1/2-x,1/2-z
1/2+x,1/2+y,-z
1/2-y,x,1/2-z
loop_
_atom_site_type_symbol
_atom_site_label
_atom_site_fract_x
_atom_site_fract_y
_atom_site_fract_z
Si Si1 0.044679 0.122042 0.943272
Si Si2 0.247219 0.486265 0.917145
Si Si3 0.686483 0.130511 0.725748
O O1 0.037837 0.148989 0.725436
O O2 0.177009 0.116707 0.986248
O O3 0.961488 0.201274 0.062146
O O4 0.000000 0.000000 0.000000
O O5 0.329843 0.560007 0.790254
O O6 0.214855 0.565152 0.087543
O O7 0.750000 0.250000 0.711806
#
# Coordination Sequence:
#
# PCOD9545270 Si02
#       3
#     8   8   8
#     4  10  24  40  61  94 128 169 218 271 332 396
#     4  11  23  40  63  92 130 171 220 277 334 397
#     4  11  22  39  67  95 123 167 222 277 332 394
#
# _framework density 23.121569000000001
#
# number of rings (size 3 to 8) (size 9 to 14) (size 15 to 20)
#    0.000    1.333    0.000    7.000    0.000   10.000 
#    0.000    0.000    0.000    0.000    0.000    0.000 
#    0.000    0.000    0.000    0.000    0.000    0.000 
#
# Total GULP energy -133632.678602 kJ/mol
# GULP energy per Si atom -5568.028275 kJ/mol
# Density = 2.306894 g / cm^3
# Si number density = 23.121569 Si / 1000 Ang^3
#
#
#
# Elastic Constant Matrix: (Units=GPa)
#
#
# Indices 1 2 3 4 5 6 
#
# 1 81.6086 37.4164 45.8582 0.0000 0.0000 -4.3457
# 2 37.4164 81.6086 45.8582 0.0000 0.0000 4.3457
# 3 45.8582 45.8582 138.5369 0.0000 0.0000 0.0000
# 4 0.0000 0.0000 0.0000 39.3783 0.0000 0.0000
# 5 0.0000 0.0000 0.0000 0.0000 39.3783 0.0000
# 6 -4.3457 4.3457 0.0000 0.0000 0.0000 41.5875
#
#
#
# Elastic Compliance Matrix: (Units=1/GPa)
#
#
# Indices 1 2 3 4 5 6 
#
# 1 0.017191 -0.005912 -0.003733 0.000000 0.000000 0.002414
# 2 -0.005912 0.017191 -0.003733 0.000000 0.000000 -0.002414
# 3 -0.003733 -0.003733 0.009690 0.000000 0.000000 0.000000
# 4 0.000000 0.000000 0.000000 0.025395 0.000000 0.000000
# 5 0.000000 0.000000 0.000000 0.000000 0.025395 0.000000
# 6 0.002414 -0.002414 0.000000 0.000000 0.000000 0.024550
#
#
# Mechanical properties :
#
#
# Convention : Reuss Voigt Hill
#
# Bulk Modulus (GPa) = 57.75914 62.22440 59.99177
# Shear Modulus (GPa) = 32.90763 35.57691 34.24227
#
# Velocity S-wave (km/s) = 3.77668 3.92687 3.85251
# Velocity P-wave (km/s) = 6.63722 6.89425 6.76695
#
# Compressibility (1/GPa) = 0.01731328
#
# Stress axis : x y z
#
# Youngs Moduli (GPa) = 58.17059 58.17059 103.20021
#
# Poissons Ratio (x) = 0.34393 0.38528
# Poissons Ratio (y) = 0.34393 0.38528
# Poissons Ratio (z) = 0.21717 0.21717
#
# Static dielectric constant tensor:
#      x y z
#    x 1.910410 0.000000 0.000000 
#    y 0.000000 1.910410 0.000000 
#    z 0.000000 0.000000 1.888090 
# 
# From -- ./inp_files/128.got.cif
#   From: 2010.05.17/outbox.cif.g08.bks.cpg/sg86_1_cif.got.tgz:128.got - 2010.06.03 19:03:11.
