data_PCOD9545987
_publ_section_title
;
Structure prediction by ZEFSAII (Michael W. Deem and Ramdas Pophale) SiO2 
 PCOD9545987
Probable space group: I 4/M
;
_chemical_formula_sum "Si O2"
_cell_formula_units_Z 48
_cell_length_a 10.363766
_cell_length_b 10.363766
_cell_length_c 22.956530
_cell_angle_alpha 90.000000
_cell_angle_beta 90.000000
_cell_angle_gamma 90.000000
_cell_volume 2465.706841
_symmetry_space_group_name_H-M "I 4/M"
_symmetry_group_IT_number 87
_symmetry_cell_setting 'tetragonal'
loop_
_space_group_symop_operation_xyz
x,y,z
-y,x,z
-x,-y,z
y,-x,z
-x,-y,-z
y,-x,-z
x,y,-z
-y,x,-z
1/2+x,1/2+y,1/2+z
1/2-y,1/2+x,1/2+z
1/2-x,1/2-y,1/2+z
1/2+y,1/2-x,1/2+z
1/2-x,1/2-y,1/2-z
1/2+y,1/2-x,1/2-z
1/2+x,1/2+y,1/2-z
1/2-y,1/2+x,1/2-z
loop_
_atom_site_type_symbol
_atom_site_label
_atom_site_fract_x
_atom_site_fract_y
_atom_site_fract_z
Si Si1 0.517572 0.713266 0.000000
Si Si2 0.345504 0.138348 0.271355
Si Si3 0.416420 0.878031 0.099100
Si Si4 0.058615 0.209337 0.000000
O O1 0.385048 0.633473 0.000000
O O2 0.511795 0.795713 0.941679
O O3 0.250000 0.250000 0.250000
O O4 0.496149 0.173646 0.257719
O O5 0.318575 0.127417 0.340465
O O6 0.298879 0.916143 0.056370
O O7 0.500000 0.000000 0.117327
O O8 0.913400 0.153985 0.000000
#
# Coordination Sequence:
#
# PCOD9545987 Si02
#       4
#     8  16  16   8
#     4  10  24  39  63  97 126 168 213 264 318 385
#     4  11  26  47  70 100 133 177 226 277 335 401
#     4  11  24  41  69  88 133 164 216 262 335 375
#     4  10  24  39  63  97 126 168 213 264 318 385
#
# _framework density 19.467032
#
# number of rings (size 3 to 8) (size 9 to 14) (size 15 to 20)
#    0.000    1.333    3.333    2.000   18.667    0.667 
#    0.000    0.000    0.000    0.000    0.000    0.000 
#    0.000    0.000    0.000    0.000    0.000    0.000 
#
# Total GULP energy -134038.280286 kJ/mol
# GULP energy per Si atom -5584.928345 kJ/mol
# Density = 1.942272 g / cm^3
# Si number density = 19.467032 Si / 1000 Ang^3
#
#
#
# Elastic Constant Matrix: (Units=GPa)
#
#
# Indices 1 2 3 4 5 6 
#
# 1 64.9515 15.3022 1.7519 0.0000 0.0000 14.6213
# 2 15.3022 64.9515 1.7519 0.0000 0.0000 -14.6213
# 3 1.7519 1.7519 133.1473 0.0000 0.0000 0.0000
# 4 0.0000 0.0000 0.0000 0.3484 0.0000 0.0000
# 5 0.0000 0.0000 0.0000 0.0000 0.3484 0.0000
# 6 14.6213 -14.6213 0.0000 0.0000 0.0000 -11.3478
#
#
#
# Elastic Compliance Matrix: (Units=1/GPa)
#
#
# Indices 1 2 3 4 5 6 
#
# 1 0.011959 0.000508 -0.000164 0.000000 0.000000 0.014754
# 2 0.000508 0.011959 -0.000164 0.000000 0.000000 -0.014754
# 3 -0.000164 -0.000164 0.007515 0.000000 0.000000 0.000000
# 4 0.000000 0.000000 0.000000 2.870174 0.000001 0.000000
# 5 0.000000 0.000000 0.000000 0.000001 2.870173 0.000000
# 6 0.014754 -0.014754 0.000000 0.000000 0.000000 -0.050102
#
#
# Mechanical properties :
#
#
# Convention : Reuss Voigt Hill
#
# Bulk Modulus (GPa) = 31.45259 33.40695 32.42977
# Shear Modulus (GPa) = 0.87231 14.15276 7.51253
#
# Velocity S-wave (km/s) = 0.67013 2.69924 1.96659
# Velocity P-wave (km/s) = 4.09764 5.18773 4.67457
#
# Compressibility (1/GPa) = 0.03179389
#
# Stress axis : x y z
#
# Youngs Moduli (GPa) = 83.61628 83.61628 133.07086
#
# Poissons Ratio (x) = -0.04250 0.02183
# Poissons Ratio (y) = -0.04250 0.02183
# Poissons Ratio (z) = 0.01372 0.01372
#
# Static dielectric constant tensor:
#      x y z
#    x 1.683770 0.000000 0.000000 
#    y 0.000000 1.683770 0.000000 
#    z 0.000000 0.000000 1.825420 
# 
# From -- ./inp_files/4856.got.cif
#   From: 2010.05.17/outbox.cif.g08.bks.cpg/sg87_3_cif.got.tgz:4856.got - 2010.06.03 19:07:00.
