data_PCOD9545134
_publ_section_title
;
Structure prediction by ZEFSAII (Michael W. Deem and Ramdas Pophale) SiO2 
 PCOD9545134
Probable space group: P 42/N
;
_chemical_formula_sum "Si O2"
_cell_formula_units_Z 48
_cell_length_a 8.102577
_cell_length_b 8.102577
_cell_length_c 29.314097
_cell_angle_alpha 90.000000
_cell_angle_beta 90.000000
_cell_angle_gamma 90.000000
_cell_volume 1924.521886
_symmetry_space_group_name_H-M "P 42/N"
_symmetry_group_IT_number 86
_space_group.IT_coordinate_system_code '2'
_symmetry_cell_setting 'tetragonal'
loop_
_space_group_symop_operation_xyz
x,y,z
-y,1/2+x,1/2+z
1/2-x,1/2-y,z
1/2+y,-x,1/2+z
-x,-y,-z
y,1/2-x,1/2-z
1/2+x,1/2+y,-z
1/2-y,x,1/2-z
loop_
_atom_site_type_symbol
_atom_site_label
_atom_site_fract_x
_atom_site_fract_y
_atom_site_fract_z
Si Si1 0.268697 0.572806 0.978574
Si Si2 0.217044 0.556692 0.823221
Si Si3 0.004233 0.362486 0.256202
Si Si4 0.885197 0.609585 0.567168
Si Si5 0.611128 0.059665 0.349525
Si Si6 0.881092 0.903226 0.406906
O O1 0.250000 0.750000 0.001633
O O2 0.409732 0.617195 0.940796
O O3 0.113556 0.481804 0.954282
O O4 0.336601 0.461237 0.018665
O O5 0.250000 0.750000 0.822014
O O6 0.377316 0.440788 0.829921
O O7 0.118433 0.519869 0.869034
O O8 0.105613 0.530152 0.778555
O O9 0.181216 0.451062 0.263493
O O10 0.907086 0.337900 0.303356
O O11 0.750000 0.750000 0.572414
O O12 0.979058 0.621546 0.614584
O O13 0.770009 0.042581 0.382627
O O14 0.750000 0.750000 0.411350
#
# Coordination Sequence:
#
# PCOD9545134 Si02
#       6
#     8   8   8   8   8   8
#     4  11  24  47  76 106 145 196 241 299 368 450
#     4  11  22  42  70 101 133 189 246 293 358 448
#     4  11  26  45  70 103 152 190 242 305 379 442
#     4  11  26  45  74 106 149 189 244 304 371 436
#     4  11  25  46  70 104 147 191 247 310 369 436
#     4  10  21  42  72 103 140 185 241 301 358 437
#
# _framework density 24.941258999999999
#
# number of rings (size 3 to 8) (size 9 to 14) (size 15 to 20)
#    0.000    1.167    5.000    1.000    7.000    0.667 
#    0.000    0.833    0.000    0.000    0.000    0.000 
#    0.000    0.000    0.000    0.000    0.000    0.000 
#
# Total GULP energy -267753.917359 kJ/mol
# GULP energy per Si atom -5578.206612 kJ/mol
# Density = 2.488449 g / cm^3
# Si number density = 24.941259 Si / 1000 Ang^3
#
#
#
# Elastic Constant Matrix: (Units=GPa)
#
#
# Indices 1 2 3 4 5 6 
#
# 1 44.1486 47.0565 12.3687 0.0000 0.0000 -5.6160
# 2 47.0565 44.1486 12.3687 0.0000 0.0000 5.6160
# 3 12.3687 12.3687 115.2716 0.0000 0.0000 0.0000
# 4 0.0000 0.0000 0.0000 36.7057 0.0000 0.0000
# 5 0.0000 0.0000 0.0000 0.0000 36.7057 0.0000
# 6 -5.6160 5.6160 0.0000 0.0000 0.0000 30.2656
#
#
#
# Elastic Compliance Matrix: (Units=1/GPa)
#
#
# Indices 1 2 3 4 5 6 
#
# 1 -0.094513 0.105806 -0.001212 0.000000 0.000000 -0.037171
# 2 0.105806 -0.094513 -0.001212 0.000000 0.000000 0.037171
# 3 -0.001212 -0.001212 0.008935 0.000000 0.000000 0.000000
# 4 0.000000 0.000000 0.000000 0.027244 0.000000 0.000000
# 5 0.000000 0.000000 0.000000 0.000000 0.027244 0.000000
# 6 -0.037171 0.037171 0.000000 0.000000 0.000000 0.019246
#
#
# Mechanical properties :
#
#
# Convention : Reuss Voigt Hill
#
# Bulk Modulus (GPa) = 37.48946 38.57294 38.03120
# Shear Modulus (GPa) = -16.43494 29.52038 6.54272
#
# Velocity S-wave (km/s) = -2.56978 3.44408 1.62140
# Velocity P-wave (km/s) = 2.50174 5.59595 4.33436
#
# Compressibility (1/GPa) = 0.02667416
#
# Stress axis : x y z
#
# Youngs Moduli (GPa) = -10.58058 -10.58058 111.91682
#
# Poissons Ratio (x) = 1.11949 0.13561
# Poissons Ratio (y) = 1.11949 0.13561
# Poissons Ratio (z) = -0.01282 -0.01282
#
# Static dielectric constant tensor:
#      x y z
#    x 2.108500 0.000000 0.000000 
#    y 0.000000 2.108500 0.000000 
#    z 0.000000 0.000000 1.918540 
# 
# From -- ./inp_files/5179.got.cif
#   From: 2010.05.17/outbox.cif.g08.bks.cpg/sg86_3_cif.got.tgz:5179.got - 2010.06.03 19:03:11.
