data_PCOD9545689
_publ_section_title
;
Structure prediction by ZEFSAII (Michael W. Deem and Ramdas Pophale) SiO2 
 PCOD9545689
Probable space group: I 4/M
;
_chemical_formula_sum "Si O2"
_cell_formula_units_Z 64
_cell_length_a 18.379107
_cell_length_b 18.379107
_cell_length_c 7.391588
_cell_angle_alpha 90.000000
_cell_angle_beta 90.000000
_cell_angle_gamma 90.000000
_cell_volume 2496.816146
_symmetry_space_group_name_H-M "I 4/M"
_symmetry_group_IT_number 87
_symmetry_cell_setting 'tetragonal'
loop_
_space_group_symop_operation_xyz
x,y,z
-y,x,z
-x,-y,z
y,-x,z
-x,-y,-z
y,-x,-z
x,y,-z
-y,x,-z
1/2+x,1/2+y,1/2+z
1/2-y,1/2+x,1/2+z
1/2-x,1/2-y,1/2+z
1/2+y,1/2-x,1/2+z
1/2-x,1/2-y,1/2-z
1/2+y,1/2-x,1/2-z
1/2+x,1/2+y,1/2-z
1/2-y,1/2+x,1/2-z
loop_
_atom_site_type_symbol
_atom_site_label
_atom_site_fract_x
_atom_site_fract_y
_atom_site_fract_z
Si Si1 0.369181 0.222377 0.208734
Si Si2 0.482848 0.114828 0.794383
Si Si3 0.532143 0.387587 0.219918
Si Si4 0.141888 0.775322 0.280309
O O1 0.440737 0.184030 0.285699
O O2 0.303780 0.163603 0.213489
O O3 0.331106 0.294631 0.282681
O O4 0.387355 0.239210 0.000000
O O5 0.550890 0.077901 0.699236
O O6 0.506204 0.131627 0.000000
O O7 0.587141 0.452338 0.276309
O O8 0.565871 0.310988 0.275220
O O9 0.530958 0.387402 0.000000
O O10 0.144824 0.772232 0.500000
#
# Coordination Sequence:
#
# PCOD9545689 Si02
#       4
#    16  16  16  16
#     4   9  19  33  47  68  97 124 154 195 236 275
#     4  10  20  34  51  71  97 126 159 199 240 285
#     4   8  14  25  43  69  96 118 147 190 231 266
#     4   9  17  30  49  70  93 124 159 192 229 276
#
# _framework density 25.632643999999999
#
# number of rings (size 3 to 8) (size 9 to 14) (size 15 to 20)
#    0.000    3.000    0.000    2.250    0.000    4.000 
#    0.000    5.000    0.000    1.500    0.000    1.750 
#    0.000    0.000    0.000    0.000    0.000    0.000 
#
# Total GULP energy -178791.459780 kJ/mol
# GULP energy per Si atom -5587.233118 kJ/mol
# Density = 2.557430 g / cm^3
# Si number density = 25.632644 Si / 1000 Ang^3
#
#
#
# Elastic Constant Matrix: (Units=GPa)
#
#
# Indices 1 2 3 4 5 6 
#
# 1 45.9486 86.5870 -9.2462 0.0000 0.0000 -1.0902
# 2 86.5870 45.9486 -9.2462 0.0000 0.0000 1.0902
# 3 -9.2462 -9.2462 91.5464 0.0000 0.0000 0.0000
# 4 0.0000 0.0000 0.0000 3.4063 0.0000 0.0000
# 5 0.0000 0.0000 0.0000 0.0000 3.4063 0.0000
# 6 -1.0902 1.0902 0.0000 0.0000 0.0000 71.2836
#
#
#
# Elastic Compliance Matrix: (Units=1/GPa)
#
#
# Indices 1 2 3 4 5 6 
#
# 1 -0.008467 0.016120 0.000773 0.000000 0.000000 -0.000376
# 2 0.016120 -0.008467 0.000773 0.000000 0.000000 0.000376
# 3 0.000773 0.000773 0.011080 0.000000 0.000000 0.000000
# 4 0.000000 0.000000 0.000000 0.293577 0.000000 0.000000
# 5 0.000000 0.000000 0.000000 0.000000 0.293577 0.000000
# 6 -0.000376 0.000376 0.000000 0.000000 0.000000 0.014017
#
#
# Mechanical properties :
#
#
# Convention : Reuss Voigt Hill
#
# Bulk Modulus (GPa) = 33.92435 35.51476 34.71955
# Shear Modulus (GPa) = 8.77484 23.30915 16.04200
#
# Velocity S-wave (km/s) = 1.85223 3.01882 2.50440
# Velocity P-wave (km/s) = 4.22349 5.10259 4.68371
#
# Compressibility (1/GPa) = 0.02947735
#
# Stress axis : x y z
#
# Youngs Moduli (GPa) = -118.10478 -118.10478 90.25626
#
# Poissons Ratio (x) = 1.90386 -0.06976
# Poissons Ratio (y) = 1.90386 -0.06976
# Poissons Ratio (z) = 0.09129 0.09129
#
# Static dielectric constant tensor:
#      x y z
#    x 2.003020 0.000000 0.000000 
#    y 0.000000 2.003020 0.000000 
#    z 0.000000 0.000000 2.049630 
# 
# From -- ./inp_files/916.got.cif
#   From: 2010.05.17/outbox.cif.g08.bks.cpg/sg87_1_cif.got.tgz:916.got - 2010.06.03 19:07:00.
