data_PCOD9545225
_publ_section_title
;
Structure prediction by ZEFSAII (Michael W. Deem and Ramdas Pophale) SiO2 
 PCOD9545225
Probable space group: P 42/N
;
_chemical_formula_sum "Si O2"
_cell_formula_units_Z 32
_cell_length_a 7.566038
_cell_length_b 7.566038
_cell_length_c 20.924843
_cell_angle_alpha 90.000000
_cell_angle_beta 90.000000
_cell_angle_gamma 90.000000
_cell_volume 1197.841194
_symmetry_space_group_name_H-M "P 42/N"
_symmetry_group_IT_number 86
_space_group.IT_coordinate_system_code '2'
_symmetry_cell_setting 'tetragonal'
loop_
_space_group_symop_operation_xyz
x,y,z
-y,1/2+x,1/2+z
1/2-x,1/2-y,z
1/2+y,-x,1/2+z
-x,-y,-z
y,1/2-x,1/2-z
1/2+x,1/2+y,-z
1/2-y,x,1/2-z
loop_
_atom_site_type_symbol
_atom_site_label
_atom_site_fract_x
_atom_site_fract_y
_atom_site_fract_z
Si Si1 0.450694 0.552819 0.707704
Si Si2 0.255291 0.466287 0.540248
Si Si3 0.958206 0.082296 0.835400
Si Si4 0.936543 0.643892 0.907211
O O1 0.460842 0.547281 0.783419
O O2 0.269677 0.463732 0.687200
O O3 0.609226 0.481724 0.662950
O O4 0.435314 0.753346 0.683116
O O5 0.250000 0.250000 0.540523
O O6 0.101164 0.524203 0.588755
O O7 0.250446 0.523724 0.466167
O O8 0.440728 0.551139 0.565651
O O9 0.750000 0.750000 0.897879
#
# Coordination Sequence:
#
# PCOD9545225 Si02
#       4
#     8   8   8   8
#     4  10  23  39  63  94 134 179 236 300 370 449
#     4   9  19  39  66  98 137 189 244 307 376 460
#     4  10  23  39  62  97 133 179 238 301 371 447
#     4   9  19  37  65  95 136 190 236 299 388 461
#
# _framework density 26.714725000000001
#
# number of rings (size 3 to 8) (size 9 to 14) (size 15 to 20)
#    0.000    2.500    0.000    0.000   10.500    0.000 
#    0.000    5.000    0.000    6.000    0.000    0.000 
#    0.000    0.000    0.000    0.000    0.000    0.000 
#
# Total GULP energy -178159.491031 kJ/mol
# GULP energy per Si atom -5567.484095 kJ/mol
# Density = 2.665392 g / cm^3
# Si number density = 26.714725 Si / 1000 Ang^3
#
#
#
# Elastic Constant Matrix: (Units=GPa)
#
#
# Indices 1 2 3 4 5 6 
#
# 1 93.6687 51.8488 78.9445 0.0000 0.0000 17.8523
# 2 51.8488 93.6687 78.9445 0.0000 0.0000 -17.8523
# 3 78.9445 78.9445 142.8258 0.0000 0.0000 0.0000
# 4 0.0000 0.0000 0.0000 24.8441 0.0000 0.0000
# 5 0.0000 0.0000 0.0000 0.0000 24.8441 0.0000
# 6 17.8523 -17.8523 0.0000 0.0000 0.0000 29.2664
#
#
#
# Elastic Compliance Matrix: (Units=1/GPa)
#
#
# Indices 1 2 3 4 5 6 
#
# 1 0.033534 -0.016366 -0.009489 0.000000 0.000000 -0.030438
# 2 -0.016366 0.033534 -0.009489 0.000000 0.000000 0.030438
# 3 -0.009489 -0.009489 0.017492 0.000000 0.000000 0.000000
# 4 0.000000 0.000000 0.000000 0.040251 0.000000 0.000000
# 5 0.000000 0.000000 0.000000 0.000000 0.040251 0.000000
# 6 -0.030438 0.030438 0.000000 0.000000 0.000000 0.071303
#
#
# Mechanical properties :
#
#
# Convention : Reuss Voigt Hill
#
# Bulk Modulus (GPa) = 72.09554 83.29317 77.69435
# Shear Modulus (GPa) = 16.04224 23.81926 19.93075
#
# Velocity S-wave (km/s) = 2.45317 2.98923 2.73437
# Velocity P-wave (km/s) = 5.92198 6.56966 6.25421
#
# Compressibility (1/GPa) = 0.01387048
#
# Stress axis : x y z
#
# Youngs Moduli (GPa) = 29.82064 29.82064 57.16975
#
# Poissons Ratio (x) = 0.48803 0.54251
# Poissons Ratio (y) = 0.48803 0.54251
# Poissons Ratio (z) = 0.28298 0.28298
#
# Static dielectric constant tensor:
#      x y z
#    x 2.205830 0.000000 0.000000 
#    y 0.000000 2.205830 0.000000 
#    z 0.000000 0.000000 2.230680 
# 
# From -- ./inp_files/3855.got.cif
#   From: 2010.05.17/outbox.cif.g08.bks.cpg/sg86_2_cif.got.tgz:3855.got - 2010.06.03 19:03:11.
