data_PCOD9545697
_publ_section_title
;
Structure prediction by ZEFSAII (Michael W. Deem and Ramdas Pophale) SiO2 
 PCOD9545697
Probable space group: I 4/M
;
_chemical_formula_sum "Si O2"
_cell_formula_units_Z 96
_cell_length_a 18.622133
_cell_length_b 18.622133
_cell_length_c 15.729497
_cell_angle_alpha 90.000000
_cell_angle_beta 90.000000
_cell_angle_gamma 90.000000
_cell_volume 5454.735331
_symmetry_space_group_name_H-M "I 4/M"
_symmetry_group_IT_number 87
_symmetry_cell_setting 'tetragonal'
loop_
_space_group_symop_operation_xyz
x,y,z
-y,x,z
-x,-y,z
y,-x,z
-x,-y,-z
y,-x,-z
x,y,-z
-y,x,-z
1/2+x,1/2+y,1/2+z
1/2-y,1/2+x,1/2+z
1/2-x,1/2-y,1/2+z
1/2+y,1/2-x,1/2+z
1/2-x,1/2-y,1/2-z
1/2+y,1/2-x,1/2-z
1/2+x,1/2+y,1/2-z
1/2-y,1/2+x,1/2-z
loop_
_atom_site_type_symbol
_atom_site_label
_atom_site_fract_x
_atom_site_fract_y
_atom_site_fract_z
Si Si1 0.121161 0.827432 0.102003
Si Si2 0.966343 0.791836 0.898596
Si Si3 0.996501 0.371147 0.853566
Si Si4 0.163010 0.587715 0.094189
Si Si5 0.293816 0.180413 0.223146
Si Si6 0.860114 0.558266 0.165742
O O1 0.170982 0.893267 0.131048
O O2 0.140816 0.756909 0.154725
O O3 0.036699 0.840093 0.117569
O O4 0.130275 0.816189 0.000000
O O5 0.983286 0.712229 0.866050
O O6 0.959526 0.785107 0.000000
O O7 0.066828 0.415444 0.878014
O O8 0.922902 0.395437 0.898260
O O9 0.981761 0.380909 0.753499
O O10 0.196992 0.633724 0.170691
O O11 0.175924 0.503401 0.109924
O O12 0.186886 0.609380 0.000000
O O13 0.250000 0.250000 0.250000
O O14 0.314612 0.126818 0.300627
#
# Coordination Sequence:
#
# PCOD9545697 Si02
#       6
#    16  16  16  16  16  16
#     4  10  20  34  54  79 110 148 191 235 289 346
#     4  10  20  34  53  77 110 148 188 235 284 342
#     4  11  19  33  53  79 112 147 183 228 279 335
#     4  11  23  37  57  81 114 150 186 233 289 339
#     4  11  22  36  58  81 111 154 193 234 285 341
#     4  11  21  33  54  81 110 142 189 230 274 335
#
# _framework density 17.599388999999999
#
# number of rings (size 3 to 8) (size 9 to 14) (size 15 to 20)
#    0.000    1.333    6.667    2.500    0.000    2.333 
#    0.000    3.333    0.000    0.000    0.000    0.000 
#    0.000    0.000    0.000    3.000    0.000    0.000 
#
# Total GULP energy -267685.531360 kJ/mol
# GULP energy per Si atom -5576.781903 kJ/mol
# Density = 1.755933 g / cm^3
# Si number density = 17.599389 Si / 1000 Ang^3
#
#
#
# Elastic Constant Matrix: (Units=GPa)
#
#
# Indices 1 2 3 4 5 6 
#
# 1 77.2402 36.8479 9.8268 0.0000 0.0000 -1.9482
# 2 36.8479 77.2402 9.8268 0.0000 0.0000 1.9482
# 3 9.8268 9.8268 35.4412 0.0000 0.0000 0.0000
# 4 0.0000 0.0000 0.0000 18.0781 0.0000 0.0000
# 5 0.0000 0.0000 0.0000 0.0000 18.0781 0.0000
# 6 -1.9482 1.9482 0.0000 0.0000 0.0000 35.0340
#
#
#
# Elastic Compliance Matrix: (Units=1/GPa)
#
#
# Indices 1 2 3 4 5 6 
#
# 1 0.017048 -0.007843 -0.002552 0.000000 0.000000 0.001384
# 2 -0.007843 0.017048 -0.002552 0.000000 0.000000 -0.001384
# 3 -0.002552 -0.002552 0.029631 0.000000 0.000000 0.000000
# 4 0.000000 0.000000 0.000000 0.055316 0.000000 0.000000
# 5 0.000000 0.000000 0.000000 0.000000 0.055316 0.000000
# 6 0.001384 -0.001384 0.000000 0.000000 0.000000 0.028698
#
#
# Mechanical properties :
#
#
# Convention : Reuss Voigt Hill
#
# Bulk Modulus (GPa) = 26.43277 33.65830 30.04554
# Shear Modulus (GPa) = 20.69871 23.13270 21.91570
#
# Velocity S-wave (km/s) = 3.43316 3.62940 3.53264
# Velocity P-wave (km/s) = 5.54682 6.06050 5.80934
#
# Compressibility (1/GPa) = 0.03783182
#
# Stress axis : x y z
#
# Youngs Moduli (GPa) = 58.65873 58.65873 33.74832
#
# Poissons Ratio (x) = 0.46006 0.08613
# Poissons Ratio (y) = 0.46006 0.08613
# Poissons Ratio (z) = 0.14971 0.14971
#
# Static dielectric constant tensor:
#      x y z
#    x 1.631590 0.000000 0.000000 
#    y 0.000000 1.631590 0.000000 
#    z 0.000000 0.000000 1.606690 
# 
# From -- ./inp_files/4442.got.cif
#   From: 2010.05.17/outbox.cif.g08.bks.cpg/sg87_3_cif.got.tgz:4442.got - 2010.06.03 19:07:00.
