data_PCOD9545964
_publ_section_title
;
Structure prediction by ZEFSAII (Michael W. Deem and Ramdas Pophale) SiO2 
 PCOD9545964
Probable space group: I 4/M
;
_chemical_formula_sum "Si O2"
_cell_formula_units_Z 112
_cell_length_a 14.539733
_cell_length_b 14.539733
_cell_length_c 25.930928
_cell_angle_alpha 90.000000
_cell_angle_beta 90.000000
_cell_angle_gamma 90.000000
_cell_volume 5481.897643
_symmetry_space_group_name_H-M "I 4/M"
_symmetry_group_IT_number 87
_symmetry_cell_setting 'tetragonal'
loop_
_space_group_symop_operation_xyz
x,y,z
-y,x,z
-x,-y,z
y,-x,z
-x,-y,-z
y,-x,-z
x,y,-z
-y,x,-z
1/2+x,1/2+y,1/2+z
1/2-y,1/2+x,1/2+z
1/2-x,1/2-y,1/2+z
1/2+y,1/2-x,1/2+z
1/2-x,1/2-y,1/2-z
1/2+y,1/2-x,1/2-z
1/2+x,1/2+y,1/2-z
1/2-y,1/2+x,1/2-z
loop_
_atom_site_type_symbol
_atom_site_label
_atom_site_fract_x
_atom_site_fract_y
_atom_site_fract_z
Si Si1 0.736322 0.996802 0.136993
Si Si2 0.548434 0.859373 0.736375
Si Si3 0.169380 0.308986 0.401393
Si Si4 0.172179 0.217519 0.290178
Si Si5 0.057914 0.858879 0.227808
Si Si6 0.353414 0.227800 0.558818
Si Si7 0.606717 0.987822 0.438500
O O1 0.694060 0.917171 0.102398
O O2 0.795701 0.935662 0.177638
O O3 0.666601 0.046456 0.176510
O O4 0.774972 0.077254 0.100336
O O5 0.446019 0.888078 0.751899
O O6 0.583532 0.773535 0.769194
O O7 0.181742 0.253447 0.347792
O O8 0.248623 0.262752 0.436096
O O9 0.061820 0.319917 0.416315
O O10 0.250000 0.250000 0.250000
O O11 0.174754 0.107571 0.280229
O O12 0.953171 0.887439 0.223316
O O13 0.384861 0.243624 0.500000
O O14 0.362823 0.118073 0.569299
O O15 0.604072 0.004821 0.500000
O O16 0.500000 0.000000 0.419498
#
# Coordination Sequence:
#
# PCOD9545964 Si02
#       7
#    16  16  16  16  16  16  16
#     4  12  22  41  67  96 133 177 226 279 350 412
#     4  11  23  37  61  95 132 164 213 275 326 398
#     4  12  24  39  70 102 138 181 227 285 352 424
#     4  12  23  39  58  91 128 172 213 264 323 398
#     4  11  23  40  60  85 126 179 221 261 319 397
#     4  11  26  44  69 103 139 179 234 300 359 420
#     4  10  22  43  69 100 136 177 231 295 361 419
#
# _framework density 20.430882
#
# number of rings (size 3 to 8) (size 9 to 14) (size 15 to 20)
#    0.000    0.714    5.714    2.143    2.000    1.714 
#    0.000    0.000    0.000    0.429    0.000    5.000 
#    0.000    0.000    0.000    0.000    0.000    0.000 
#
# Total GULP energy -311926.046050 kJ/mol
# GULP energy per Si atom -5570.107965 kJ/mol
# Density = 2.038438 g / cm^3
# Si number density = 20.430882 Si / 1000 Ang^3
#
#
#
# Elastic Constant Matrix: (Units=GPa)
#
#
# Indices 1 2 3 4 5 6 
#
# 1 85.7693 9.2829 32.1504 0.0000 0.0000 -11.7013
# 2 9.2829 85.7693 32.1504 0.0000 0.0000 11.7013
# 3 32.1504 32.1504 96.3243 0.0000 0.0000 0.0000
# 4 0.0000 0.0000 0.0000 26.6384 0.0000 0.0000
# 5 0.0000 0.0000 0.0000 0.0000 26.6384 0.0000
# 6 -11.7013 11.7013 0.0000 0.0000 0.0000 38.6667
#
#
#
# Elastic Compliance Matrix: (Units=1/GPa)
#
#
# Indices 1 2 3 4 5 6 
#
# 1 0.013999 -0.000410 -0.004536 0.000000 0.000000 0.004360
# 2 -0.000410 0.013999 -0.004536 0.000000 0.000000 -0.004360
# 3 -0.004536 -0.004536 0.013409 0.000000 0.000000 0.000000
# 4 0.000000 0.000000 0.000000 0.037540 0.000000 0.000000
# 5 0.000000 0.000000 0.000000 0.000000 0.037540 0.000000
# 6 0.004360 -0.004360 0.000000 0.000000 0.000000 0.028501
#
#
# Mechanical properties :
#
#
# Convention : Reuss Voigt Hill
#
# Bulk Modulus (GPa) = 44.55422 46.11449 45.33435
# Shear Modulus (GPa) = 29.16636 31.34063 30.25350
#
# Velocity S-wave (km/s) = 3.78241 3.92086 3.85226
# Velocity P-wave (km/s) = 6.39767 6.56639 6.48258
#
# Compressibility (1/GPa) = 0.02244456
#
# Stress axis : x y z
#
# Youngs Moduli (GPa) = 71.43602 71.43602 74.57519
#
# Poissons Ratio (x) = 0.02927 0.33824
# Poissons Ratio (y) = 0.02927 0.33824
# Poissons Ratio (z) = 0.32400 0.32400
#
# Static dielectric constant tensor:
#      x y z
#    x 1.833980 0.000000 0.000000 
#    y 0.000000 1.833980 0.000000 
#    z 0.000000 0.000000 1.814040 
# 
# From -- ./inp_files/5882.got.cif
#   From: 2010.05.17/outbox.cif.g08.bks.cpg/sg87_3_cif.got.tgz:5882.got - 2010.06.03 19:07:00.
