data_PCOD9545837
_publ_section_title
;
Structure prediction by ZEFSAII (Michael W. Deem and Ramdas Pophale) SiO2 
 PCOD9545837
Probable space group: I 4/M
;
_chemical_formula_sum "Si O2"
_cell_formula_units_Z 80
_cell_length_a 11.304941
_cell_length_b 11.304941
_cell_length_c 31.176483
_cell_angle_alpha 90.000000
_cell_angle_beta 90.000000
_cell_angle_gamma 90.000000
_cell_volume 3984.407247
_symmetry_space_group_name_H-M "I 4/M"
_symmetry_group_IT_number 87
_symmetry_cell_setting 'tetragonal'
loop_
_space_group_symop_operation_xyz
x,y,z
-y,x,z
-x,-y,z
y,-x,z
-x,-y,-z
y,-x,-z
x,y,-z
-y,x,-z
1/2+x,1/2+y,1/2+z
1/2-y,1/2+x,1/2+z
1/2-x,1/2-y,1/2+z
1/2+y,1/2-x,1/2+z
1/2-x,1/2-y,1/2-z
1/2+y,1/2-x,1/2-z
1/2+x,1/2+y,1/2-z
1/2-y,1/2+x,1/2-z
loop_
_atom_site_type_symbol
_atom_site_label
_atom_site_fract_x
_atom_site_fract_y
_atom_site_fract_z
Si Si1 0.483941 0.865026 0.125422
Si Si2 0.406290 0.173816 0.244215
Si Si3 0.255821 0.777617 0.823499
Si Si4 0.758697 0.646398 0.594799
Si Si5 0.815792 0.404921 0.450118
O O1 0.385586 0.794979 0.153392
O O2 0.612914 0.816550 0.113644
O O3 0.430768 0.880430 0.077863
O O4 0.500000 0.000000 0.144028
O O5 0.545905 0.152815 0.245788
O O6 0.346738 0.226778 0.201128
O O7 0.369070 0.252267 0.284486
O O8 0.164354 0.811603 0.860976
O O9 0.761481 0.518482 0.573929
O O10 0.706010 0.731597 0.558959
O O11 0.834971 0.426140 0.500000
#
# Coordination Sequence:
#
# PCOD9545837 Si02
#       5
#    16  16  16  16  16
#     4   9  20  36  61  86 115 160 212 252 302 368
#     4  10  22  36  63  91 123 160 205 262 316 381
#     4  10  21  36  58  92 120 158 207 251 310 369
#     4  10  21  36  59  86 119 159 204 253 306 382
#     4  10  21  36  59  91 122 159 204 261 316 372
#
# _framework density 20.078268999999999
#
# number of rings (size 3 to 8) (size 9 to 14) (size 15 to 20)
#    0.000    2.200    0.000    1.800   11.200    4.800 
#    0.000    1.000    0.000   49.200    0.000    5.600 
#    0.000    0.000    0.000    0.000    0.000    0.000 
#
# Total GULP energy -222741.452676 kJ/mol
# GULP energy per Si atom -5568.536317 kJ/mol
# Density = 2.003257 g / cm^3
# Si number density = 20.078269 Si / 1000 Ang^3
#
#
#
# Elastic Constant Matrix: (Units=GPa)
#
#
# Indices 1 2 3 4 5 6 
#
# 1 57.1204 40.0508 40.3790 0.0000 0.0000 -5.7251
# 2 40.0508 57.1203 40.3790 0.0000 0.0000 5.7251
# 3 40.3790 40.3790 164.9469 0.0000 0.0000 0.0000
# 4 0.0000 0.0000 0.0000 11.9050 0.0000 0.0000
# 5 0.0000 0.0000 0.0000 0.0000 11.9050 0.0000
# 6 -5.7251 5.7251 0.0000 0.0000 0.0000 4.6191
#
#
#
# Elastic Compliance Matrix: (Units=1/GPa)
#
#
# Indices 1 2 3 4 5 6 
#
# 1 0.180215 -0.167296 -0.003163 0.000000 0.000000 0.430721
# 2 -0.167296 0.180215 -0.003163 0.000000 0.000000 -0.430721
# 3 -0.003163 -0.003163 0.007611 0.000000 0.000000 0.000000
# 4 0.000000 0.000000 0.000000 0.083999 0.000000 0.000000
# 5 0.000000 0.000000 0.000000 0.000000 0.083999 0.000000
# 6 0.430721 -0.430721 0.000000 0.000000 0.000000 1.284204
#
#
# Mechanical properties :
#
#
# Convention : Reuss Voigt Hill
#
# Bulk Modulus (GPa) = 48.07833 57.86723 52.97278
# Shear Modulus (GPa) = 2.29947 16.24439 9.27193
#
# Velocity S-wave (km/s) = 1.07132 2.84747 2.15126
# Velocity P-wave (km/s) = 5.05250 6.30033 5.71060
#
# Compressibility (1/GPa) = 0.02079939
#
# Stress axis : x y z
#
# Youngs Moduli (GPa) = 5.54892 5.54892 131.38833
#
# Poissons Ratio (x) = 0.92831 0.41554
# Poissons Ratio (y) = 0.92831 0.41555
# Poissons Ratio (z) = 0.01755 0.01755
#
# Static dielectric constant tensor:
#      x y z
#    x 1.808140 0.000000 0.000000 
#    y 0.000000 1.808140 0.000000 
#    z 0.000000 0.000000 1.729450 
# 
# From -- ./inp_files/6478.got.cif
#   From: 2010.05.17/outbox.cif.g08.bks.cpg/sg87_4_cif.got.tgz:6478.got - 2010.06.03 19:07:00.
