data_PCOD9545125
_publ_section_title
;
Structure prediction by ZEFSAII (Michael W. Deem and Ramdas Pophale) SiO2 
 PCOD9545125
Probable space group: P 42/N
;
_chemical_formula_sum "Si O2"
_cell_formula_units_Z 36
_cell_length_a 13.611156
_cell_length_b 13.611156
_cell_length_c 8.868680
_cell_angle_alpha 90.000000
_cell_angle_beta 90.000000
_cell_angle_gamma 90.000000
_cell_volume 1643.043297
_symmetry_space_group_name_H-M "P 42/N"
_symmetry_group_IT_number 86
_space_group.IT_coordinate_system_code '2'
_symmetry_cell_setting 'tetragonal'
loop_
_space_group_symop_operation_xyz
x,y,z
-y,1/2+x,1/2+z
1/2-x,1/2-y,z
1/2+y,-x,1/2+z
-x,-y,-z
y,1/2-x,1/2-z
1/2+x,1/2+y,-z
1/2-y,x,1/2-z
loop_
_atom_site_type_symbol
_atom_site_label
_atom_site_fract_x
_atom_site_fract_y
_atom_site_fract_z
Si Si1 0.056182 0.946150 0.865849
Si Si2 0.099065 0.450449 0.067924
Si Si3 0.322800 0.386747 0.692788
Si Si4 0.250000 0.750000 0.222843
Si Si5 0.391466 0.741106 0.469020
O O1 0.977016 0.903414 0.745615
O O2 0.141310 0.881463 0.946765
O O3 0.125429 0.020833 0.771568
O O4 0.000000 0.000000 0.000000
O O5 0.104454 0.344252 0.987162
O O6 0.194216 0.504065 0.996877
O O7 0.000000 0.500000 0.000000
O O8 0.374098 0.290872 0.767062
O O9 0.334247 0.701746 0.323928
O O10 0.293521 0.831335 0.114127
#
# Coordination Sequence:
#
# PCOD9545125 Si02
#       5
#     8   8   8   4   8
#     4  11  24  41  62  94 128 165 215 268 326 390
#     4  10  22  41  63  88 123 166 210 259 322 384
#     4  10  21  41  66  89 121 169 218 263 321 388
#     4  10  24  36  64  92 124 162 204 260 328 384
#     4  11  21  42  61  93 127 162 210 262 322 396
#
# _framework density 21.91056
#
# number of rings (size 3 to 8) (size 9 to 14) (size 15 to 20)
#    0.000    1.556    4.444    0.000    6.222    0.000 
#    8.000    0.000    0.000    2.667    0.000    0.000 
#    0.000    0.000    0.000    0.000    0.000    0.000 
#
# Total GULP energy -200588.597379 kJ/mol
# GULP energy per Si atom -5571.905483 kJ/mol
# Density = 2.186069 g / cm^3
# Si number density = 21.910560 Si / 1000 Ang^3
#
#
#
# Elastic Constant Matrix: (Units=GPa)
#
#
# Indices 1 2 3 4 5 6 
#
# 1 42.8362 -14.0692 18.1353 0.0000 0.0000 -6.3738
# 2 -14.0692 42.8362 18.1353 0.0000 0.0000 6.3738
# 3 18.1353 18.1353 136.5217 0.0000 0.0000 0.0000
# 4 0.0000 0.0000 0.0000 21.9539 0.0000 0.0000
# 5 0.0000 0.0000 0.0000 0.0000 21.9539 0.0000
# 6 -6.3738 6.3738 0.0000 0.0000 0.0000 20.1034
#
#
#
# Elastic Compliance Matrix: (Units=1/GPa)
#
#
# Indices 1 2 3 4 5 6 
#
# 1 0.030336 0.011420 -0.005547 0.000000 0.000000 0.005998
# 2 0.011420 0.030336 -0.005547 0.000000 0.000000 -0.005998
# 3 -0.005547 -0.005547 0.008798 0.000000 0.000000 0.000000
# 4 0.000000 0.000000 0.000000 0.045550 0.000000 0.000000
# 5 0.000000 0.000000 0.000000 0.000000 0.045550 0.000000
# 6 0.005998 -0.005998 0.000000 0.000000 0.000000 0.053546
#
#
# Mechanical properties :
#
#
# Convention : Reuss Voigt Hill
#
# Bulk Modulus (GPa) = 14.26068 29.62187 21.94128
# Shear Modulus (GPa) = 21.11141 26.13509 23.62325
#
# Velocity S-wave (km/s) = 3.10744 3.45745 3.28711
# Velocity P-wave (km/s) = 4.40427 5.43023 4.94394
#
# Compressibility (1/GPa) = 0.07012286
#
# Stress axis : x y z
#
# Youngs Moduli (GPa) = 32.96398 32.96398 113.65590
#
# Poissons Ratio (x) = -0.37643 0.63042
# Poissons Ratio (y) = -0.37643 0.63042
# Poissons Ratio (z) = 0.18284 0.18284
#
# Static dielectric constant tensor:
#      x y z
#    x 1.871040 0.000000 0.000000 
#    y 0.000000 1.871040 0.000000 
#    z 0.000000 0.000000 1.852300 
# 
# From -- ./inp_files/1039.got.cif
#   From: 2010.05.17/outbox.cif.g08.bks.cpg/sg86_1_cif.got.tgz:1039.got - 2010.06.03 19:03:11.
