data_PCOD9545884
_publ_section_title
;
Structure prediction by ZEFSAII (Michael W. Deem and Ramdas Pophale) SiO2 
 PCOD9545884
Probable space group: I 4/M
;
_chemical_formula_sum "Si O2"
_cell_formula_units_Z 96
_cell_length_a 24.397099
_cell_length_b 24.397099
_cell_length_c 8.600420
_cell_angle_alpha 90.000000
_cell_angle_beta 90.000000
_cell_angle_gamma 90.000000
_cell_volume 5119.128572
_symmetry_space_group_name_H-M "I 4/M"
_symmetry_group_IT_number 87
_symmetry_cell_setting 'tetragonal'
loop_
_space_group_symop_operation_xyz
x,y,z
-y,x,z
-x,-y,z
y,-x,z
-x,-y,-z
y,-x,-z
x,y,-z
-y,x,-z
1/2+x,1/2+y,1/2+z
1/2-y,1/2+x,1/2+z
1/2-x,1/2-y,1/2+z
1/2+y,1/2-x,1/2+z
1/2-x,1/2-y,1/2-z
1/2+y,1/2-x,1/2-z
1/2+x,1/2+y,1/2-z
1/2-y,1/2+x,1/2-z
loop_
_atom_site_type_symbol
_atom_site_label
_atom_site_fract_x
_atom_site_fract_y
_atom_site_fract_z
Si Si1 0.851463 0.054890 0.183953
Si Si2 0.141303 0.063431 0.315434
Si Si3 0.229292 0.547814 0.812383
Si Si4 0.460177 0.931492 0.824122
Si Si5 0.135686 0.635414 0.184938
Si Si6 0.769336 0.577931 0.186257
O O1 0.889737 0.099654 0.264629
O O2 0.788838 0.059285 0.242351
O O3 0.870457 0.993774 0.230095
O O4 0.853595 0.061944 0.000000
O O5 0.137781 0.053886 0.500000
O O6 0.204365 0.079507 0.281189
O O7 0.187144 0.596719 0.771550
O O8 0.213018 0.484961 0.767355
O O9 0.233622 0.546802 0.000000
O O10 0.509699 0.931996 0.702927
O O11 0.415112 0.888308 0.781019
O O12 0.480578 0.925086 0.000000
O O13 0.127610 0.699000 0.229148
O O14 0.128399 0.628864 0.000000
O O15 0.777324 0.582736 0.000000
#
# Coordination Sequence:
#
# PCOD9545884 Si02
#       6
#    16  16  16  16  16  16
#     4  11  22  37  61  92 119 142 180 232 276 321
#     4  10  21  40  63  85 116 155 185 215 271 341
#     4   9  20  38  56  77 110 153 192 228 280 342
#     4  11  21  33  48  68  98 133 175 228 286 339
#     4  11  21  33  53  79 107 143 189 234 277 330
#     4   9  19  36  57  79 108 148 192 235 277 328
#
# _framework density 18.753191999999999
#
# number of rings (size 3 to 8) (size 9 to 14) (size 15 to 20)
#    0.000    1.833    0.000    6.500    0.000    6.333 
#    0.000    2.500    0.000    0.000    0.000    0.000 
#    0.000    0.000    0.000    0.000    0.000    0.000 
#
# Total GULP energy -267822.009040 kJ/mol
# GULP energy per Si atom -5579.625188 kJ/mol
# Density = 1.871051 g / cm^3
# Si number density = 18.753192 Si / 1000 Ang^3
#
#
#
# Elastic Constant Matrix: (Units=GPa)
#
#
# Indices 1 2 3 4 5 6 
#
# 1 -206.3873 315.9654 7.9160 0.0000 0.0000 34.1525
# 2 315.9654 -206.3873 7.9160 0.0000 0.0000 -34.1525
# 3 7.9160 7.9160 28.6044 0.0000 0.0000 0.0000
# 4 0.0000 0.0000 0.0000 30.3978 0.0000 0.0000
# 5 0.0000 0.0000 0.0000 0.0000 30.3978 0.0000
# 6 34.1525 -34.1525 0.0000 0.0000 0.0000 34.7118
#
#
#
# Elastic Compliance Matrix: (Units=1/GPa)
#
#
# Indices 1 2 3 4 5 6 
#
# 1 0.003905 0.005601 -0.002631 0.000000 0.000000 0.001669
# 2 0.005601 0.003905 -0.002631 0.000000 0.000000 -0.001669
# 3 -0.002631 -0.002631 0.036416 0.000000 0.000000 0.000000
# 4 0.000000 0.000000 0.000000 0.032897 0.000000 0.000000
# 5 0.000000 0.000000 0.000000 0.000000 0.032897 0.000000
# 6 0.001669 -0.001669 0.000000 0.000000 0.000000 0.025525
#
#
# Mechanical properties :
#
#
# Convention : Reuss Voigt Hill
#
# Bulk Modulus (GPa) = 22.26928 31.04718 26.65823
# Shear Modulus (GPa) = 33.37040 -28.62970 2.37035
#
# Velocity S-wave (km/s) = 4.22293 -3.91149 1.12548
# Velocity P-wave (km/s) = 5.97313 1.95141 3.99188
#
# Compressibility (1/GPa) = 0.04490491
#
# Stress axis : x y z
#
# Youngs Moduli (GPa) = 256.08825 256.08825 27.46068
#
# Poissons Ratio (x) = -1.43437 0.07224
# Poissons Ratio (y) = -1.43437 0.07224
# Poissons Ratio (z) = 0.67369 0.67369
#
# Static dielectric constant tensor:
#      x y z
#    x 1.688540 0.000000 0.000000 
#    y 0.000000 1.688540 0.000000 
#    z 0.000000 0.000000 1.641830 
# 
# From -- ./inp_files/1450.got.cif
#   From: 2010.05.17/outbox.cif.g08.bks.cpg/sg87_1_cif.got.tgz:1450.got - 2010.06.03 19:07:00.
