data_PCOD9545740
_publ_section_title
;
Structure prediction by ZEFSAII (Michael W. Deem and Ramdas Pophale) SiO2 
 PCOD9545740
Probable space group: I 4/M
;
_chemical_formula_sum "Si O2"
_cell_formula_units_Z 96
_cell_length_a 15.052646
_cell_length_b 15.052646
_cell_length_c 19.343181
_cell_angle_alpha 90.000000
_cell_angle_beta 90.000000
_cell_angle_gamma 90.000000
_cell_volume 4382.819570
_symmetry_space_group_name_H-M "I 4/M"
_symmetry_group_IT_number 87
_symmetry_cell_setting 'tetragonal'
loop_
_space_group_symop_operation_xyz
x,y,z
-y,x,z
-x,-y,z
y,-x,z
-x,-y,-z
y,-x,-z
x,y,-z
-y,x,-z
1/2+x,1/2+y,1/2+z
1/2-y,1/2+x,1/2+z
1/2-x,1/2-y,1/2+z
1/2+y,1/2-x,1/2+z
1/2-x,1/2-y,1/2-z
1/2+y,1/2-x,1/2-z
1/2+x,1/2+y,1/2-z
1/2-y,1/2+x,1/2-z
loop_
_atom_site_type_symbol
_atom_site_label
_atom_site_fract_x
_atom_site_fract_y
_atom_site_fract_z
Si Si1 0.560367 0.637967 0.578528
Si Si2 0.293693 0.317836 0.828559
Si Si3 0.897788 0.482909 0.342468
Si Si4 0.852990 0.659642 0.421416
Si Si5 0.698169 0.938636 0.421518
Si Si6 0.892108 0.748029 0.786874
O O1 0.455740 0.613079 0.584280
O O2 0.575281 0.672790 0.500000
O O3 0.588194 0.701239 0.641614
O O4 0.300295 0.231747 0.877698
O O5 0.278883 0.403078 0.875679
O O6 0.200661 0.305763 0.788578
O O7 0.375956 0.314801 0.776106
O O8 0.857435 0.564277 0.385334
O O9 0.902115 0.394667 0.390329
O O10 0.829717 0.464622 0.279868
O O11 0.000000 0.500000 0.324886
O O12 0.820807 0.652579 0.500000
O O13 0.955365 0.691763 0.421811
O O14 0.707485 0.907070 0.500000
#
# Coordination Sequence:
#
# PCOD9545740 Si02
#       6
#    16  16  16  16  16  16
#     4   9  20  38  59  86 117 151 193 241 296 356
#     4  10  22  38  54  84 118 157 198 243 304 364
#     4   9  19  37  55  84 116 156 196 248 302 358
#     4  10  20  35  59  89 114 150 205 253 300 362
#     4   9  18  36  59  82 118 157 194 250 305 354
#     4  10  22  38  56  82 119 157 200 242 293 368
#
# _framework density 21.903708999999999
#
# number of rings (size 3 to 8) (size 9 to 14) (size 15 to 20)
#    0.000    2.500    0.000    1.500    2.333    7.333 
#    9.000    0.000    0.000    0.500    0.000    2.333 
#    0.000    0.000    0.000    0.000    0.000    0.000 
#
# Total GULP energy -268135.764007 kJ/mol
# GULP energy per Si atom -5586.161750 kJ/mol
# Density = 2.185386 g / cm^3
# Si number density = 21.903709 Si / 1000 Ang^3
#
#
#
# Elastic Constant Matrix: (Units=GPa)
#
#
# Indices 1 2 3 4 5 6 
#
# 1 53.2995 31.7127 37.7318 0.0000 0.0000 1.9087
# 2 31.7127 53.2995 37.7318 0.0000 0.0000 -1.9087
# 3 37.7318 37.7318 101.4843 0.0000 0.0000 0.0000
# 4 0.0000 0.0000 0.0000 27.6719 0.0000 0.0000
# 5 0.0000 0.0000 0.0000 0.0000 27.6719 0.0000
# 6 1.9087 -1.9087 0.0000 0.0000 0.0000 32.6186
#
#
#
# Elastic Compliance Matrix: (Units=1/GPa)
#
#
# Indices 1 2 3 4 5 6 
#
# 1 0.032183 -0.014626 -0.006528 0.000000 0.000000 -0.002739
# 2 -0.014626 0.032183 -0.006528 0.000000 0.000000 0.002739
# 3 -0.006528 -0.006528 0.014708 0.000000 0.000000 0.000000
# 4 0.000000 0.000000 0.000000 0.036138 0.000000 0.000000
# 5 0.000000 0.000000 0.000000 0.000000 0.036138 0.000000
# 6 -0.002739 0.002739 0.000000 0.000000 0.000000 0.030978
#
#
# Mechanical properties :
#
#
# Convention : Reuss Voigt Hill
#
# Bulk Modulus (GPa) = 42.17350 46.93734 44.55542
# Shear Modulus (GPa) = 20.35872 24.31960 22.33916
#
# Velocity S-wave (km/s) = 3.05202 3.33573 3.19702
# Velocity P-wave (km/s) = 5.63166 6.02591 5.83212
#
# Compressibility (1/GPa) = 0.02371157
#
# Stress axis : x y z
#
# Youngs Moduli (GPa) = 31.07198 31.07198 67.99047
#
# Poissons Ratio (x) = 0.45445 0.44384
# Poissons Ratio (y) = 0.45445 0.44384
# Poissons Ratio (z) = 0.20284 0.20284
#
# Static dielectric constant tensor:
#      x y z
#    x 1.811440 0.000000 0.000000 
#    y 0.000000 1.811440 0.000000 
#    z 0.000000 0.000000 1.839460 
# 
# From -- ./inp_files/5308.got.cif
#   From: 2010.05.17/outbox.cif.g08.bks.cpg/sg87_3_cif.got.tgz:5308.got - 2010.06.03 19:07:00.
