data_PCOD9545413
_publ_section_title
;
Structure prediction by ZEFSAII (Michael W. Deem and Ramdas Pophale) SiO2 
 PCOD9545413
Probable space group: P 42/N
;
_chemical_formula_sum "Si O2"
_cell_formula_units_Z 56
_cell_length_a 15.616176
_cell_length_b 15.616176
_cell_length_c 10.793032
_cell_angle_alpha 90.000000
_cell_angle_beta 90.000000
_cell_angle_gamma 90.000000
_cell_volume 2632.042240
_symmetry_space_group_name_H-M "P 42/N"
_symmetry_group_IT_number 86
_space_group.IT_coordinate_system_code '2'
_symmetry_cell_setting 'tetragonal'
loop_
_space_group_symop_operation_xyz
x,y,z
-y,1/2+x,1/2+z
1/2-x,1/2-y,z
1/2+y,-x,1/2+z
-x,-y,-z
y,1/2-x,1/2-z
1/2+x,1/2+y,-z
1/2-y,x,1/2-z
loop_
_atom_site_type_symbol
_atom_site_label
_atom_site_fract_x
_atom_site_fract_y
_atom_site_fract_z
Si Si1 0.316078 0.815661 0.320861
Si Si2 0.746232 0.046805 0.354599
Si Si3 0.540118 0.229606 0.323536
Si Si4 0.033841 0.138342 0.507992
Si Si5 0.466435 0.871245 0.926449
Si Si6 0.924597 0.429038 0.489218
Si Si7 0.880571 0.749505 0.281467
O O1 0.250000 0.750000 0.388425
O O2 0.383045 0.756249 0.250339
O O3 0.264043 0.866658 0.215296
O O4 0.370391 0.888578 0.394940
O O5 0.803601 0.067827 0.473345
O O6 0.649100 0.035215 0.398370
O O7 0.782672 0.960881 0.294860
O O8 0.490777 0.309644 0.383573
O O9 0.513092 0.180790 0.198261
O O10 0.539029 0.156730 0.427301
O O11 0.085900 0.200427 0.599152
O O12 0.948365 0.102498 0.576716
O O13 0.087323 0.054634 0.472882
O O14 0.000000 0.500000 0.500000
O O15 0.816065 0.672089 0.304105
#
# Coordination Sequence:
#
# PCOD9545413 Si02
#       7
#     8   8   8   8   8   8   8
#     4  12  27  46  72 107 145 187 240 304 370 440
#     4  12  24  45  72 102 142 185 240 294 363 432
#     4  12  26  44  72 105 143 188 240 298 369 432
#     4  11  25  47  73 101 146 191 237 299 372 439
#     4  11  25  46  73 102 144 193 238 298 369 443
#     4  12  30  45  72 106 145 187 242 300 364 440
#     4  11  25  45  70 102 138 187 245 295 353 434
#
# _framework density 21.276254999999999
#
# number of rings (size 3 to 8) (size 9 to 14) (size 15 to 20)
#    0.000    0.429    5.714    1.714   10.000    0.000 
#    0.000    0.000    0.000    0.000    0.000    0.000 
#    0.000    0.000    0.000    0.000    0.000    0.000 
#
# Total GULP energy -312738.665432 kJ/mol
# GULP energy per Si atom -5584.619026 kJ/mol
# Density = 2.122783 g / cm^3
# Si number density = 21.276255 Si / 1000 Ang^3
#
#
#
# Elastic Constant Matrix: (Units=GPa)
#
#
# Indices 1 2 3 4 5 6 
#
# 1 103.3922 40.7993 35.8915 0.0000 0.0000 4.2988
# 2 40.7993 103.3922 35.8915 0.0000 0.0000 -4.2988
# 3 35.8915 35.8915 75.3564 0.0000 0.0000 0.0000
# 4 0.0000 0.0000 0.0000 37.9483 0.0000 0.0000
# 5 0.0000 0.0000 0.0000 0.0000 37.9483 0.0000
# 6 4.2988 -4.2988 0.0000 0.0000 0.0000 39.5240
#
#
#
# Elastic Compliance Matrix: (Units=1/GPa)
#
#
# Indices 1 2 3 4 5 6 
#
# 1 0.012655 -0.003564 -0.004330 0.000000 0.000000 -0.001764
# 2 -0.003564 0.012655 -0.004330 0.000000 0.000000 0.001764
# 3 -0.004330 -0.004330 0.017395 0.000000 0.000000 0.000000
# 4 0.000000 0.000000 0.000000 0.026352 0.000000 0.000000
# 5 0.000000 0.000000 0.000000 0.000000 0.026352 0.000000
# 6 -0.001764 0.001764 0.000000 0.000000 0.000000 0.025685
#
#
# Mechanical properties :
#
#
# Convention : Reuss Voigt Hill
#
# Bulk Modulus (GPa) = 54.77368 56.36729 55.57049
# Shear Modulus (GPa) = 32.97613 34.38805 33.68209
#
# Velocity S-wave (km/s) = 3.94115 4.02464 3.98311
# Velocity P-wave (km/s) = 6.81984 6.93884 6.87960
#
# Compressibility (1/GPa) = 0.01825694
#
# Stress axis : x y z
#
# Youngs Moduli (GPa) = 79.02241 79.02241 57.48848
#
# Poissons Ratio (x) = 0.28163 0.24892
# Poissons Ratio (y) = 0.28163 0.24892
# Poissons Ratio (z) = 0.34215 0.34215
#
# Static dielectric constant tensor:
#      x y z
#    x 1.778480 0.000000 0.000000 
#    y 0.000000 1.778480 0.000000 
#    z 0.000000 0.000000 1.796280 
# 
# From -- ./inp_files/2392.got.cif
#   From: 2010.05.17/outbox.cif.g08.bks.cpg/sg86_2_cif.got.tgz:2392.got - 2010.06.03 19:03:11.
