data_PCOD9545307
_publ_section_title
;
Structure prediction by ZEFSAII (Michael W. Deem and Ramdas Pophale) SiO2 
 PCOD9545307
Probable space group: P 42/N
;
_chemical_formula_sum "Si O2"
_cell_formula_units_Z 48
_cell_length_a 16.816503
_cell_length_b 16.816503
_cell_length_c 8.883711
_cell_angle_alpha 90.000000
_cell_angle_beta 90.000000
_cell_angle_gamma 90.000000
_cell_volume 2512.267037
_symmetry_space_group_name_H-M "P 42/N"
_symmetry_group_IT_number 86
_space_group.IT_coordinate_system_code '2'
_symmetry_cell_setting 'tetragonal'
loop_
_space_group_symop_operation_xyz
x,y,z
-y,1/2+x,1/2+z
1/2-x,1/2-y,z
1/2+y,-x,1/2+z
-x,-y,-z
y,1/2-x,1/2-z
1/2+x,1/2+y,-z
1/2-y,x,1/2-z
loop_
_atom_site_type_symbol
_atom_site_label
_atom_site_fract_x
_atom_site_fract_y
_atom_site_fract_z
Si Si1 0.750000 0.250000 0.765986
Si Si2 0.819169 0.595527 0.391318
Si Si3 0.347055 0.652927 0.484279
Si Si4 0.904498 0.680851 0.608683
Si Si5 0.162050 0.034492 0.440843
Si Si6 0.465521 0.337968 0.559179
Si Si7 0.750000 0.750000 0.250000
Si Si8 0.750000 0.750000 0.750000
O O1 0.695021 0.304988 0.659113
O O2 0.694705 0.194706 0.872202
O O3 0.895173 0.604843 0.500007
O O4 0.741701 0.566774 0.479783
O O5 0.833536 0.546931 0.239104
O O6 0.799861 0.685412 0.339826
O O7 0.337790 0.558101 0.479820
O O8 0.441884 0.662158 0.479776
O O9 0.953078 0.666475 0.760912
O O10 0.814616 0.700182 0.660162
O O11 0.933274 0.758309 0.520218
O O12 0.087336 0.087331 0.500007
#
# Coordination Sequence:
#
# PCOD9545307 Si02
#       8
#     4   8   8   8   8   8   2   2
#     4  10  24  50  68  84 102 150 226 256 304 370
#     4  12  21  34  59  91 128 170 200 233 283 361
#     4  11  25  44  69  85 112 155 201 269 311 353
#     4  12  21  34  59  91 128 170 200 233 283 361
#     4  12  22  38  58  93 128 158 198 245 305 360
#     4  12  22  38  58  93 128 158 198 245 305 360
#     4  12  18  32  54  84 130 164 198 212 274 344
#     4  12  18  32  54  84 130 164 198 212 274 344
#
# _framework density 19.106249999999999
#
# number of rings (size 3 to 8) (size 9 to 14) (size 15 to 20)
#    0.000    0.333    6.667    3.000    0.000    0.000 
#    0.000    0.833    0.000    0.000    0.000    0.000 
#    0.000    0.000    0.000    0.000    0.000    0.000 
#
# Total GULP energy -268048.869317 kJ/mol
# GULP energy per Si atom -5584.351444 kJ/mol
# Density = 1.906276 g / cm^3
# Si number density = 19.106250 Si / 1000 Ang^3
#
#
#
# Elastic Constant Matrix: (Units=GPa)
#
#
# Indices 1 2 3 4 5 6 
#
# 1 249.8739 -64.2730 49.8875 0.0000 0.0000 0.2294
# 2 -64.2730 249.8739 49.8875 0.0000 0.0000 -0.2294
# 3 49.8875 49.8875 118.6408 0.0000 0.0000 0.0000
# 4 0.0000 0.0000 0.0000 12.2519 0.0000 0.0000
# 5 0.0000 0.0000 0.0000 0.0000 12.2519 0.0000
# 6 0.2294 -0.2294 0.0000 0.0000 0.0000 15.8582
#
#
#
# Elastic Compliance Matrix: (Units=1/GPa)
#
#
# Indices 1 2 3 4 5 6 
#
# 1 0.005072 0.001889 -0.002927 0.000000 0.000000 -0.000046
# 2 0.001889 0.005072 -0.002927 0.000000 0.000000 0.000046
# 3 -0.002927 -0.002927 0.010891 0.000000 0.000000 0.000000
# 4 0.000000 0.000000 0.000000 0.081620 0.000000 0.000000
# 5 0.000000 0.000000 0.000000 0.000000 0.081620 0.000000
# 6 -0.000046 0.000046 0.000000 0.000000 0.000000 0.063060
#
#
# Mechanical properties :
#
#
# Convention : Reuss Voigt Hill
#
# Bulk Modulus (GPa) = 76.30918 76.59920 76.45419
# Shear Modulus (GPa) = 19.25783 46.93150 33.09466
#
# Velocity S-wave (km/s) = 3.17824 4.96153 4.16641
# Velocity P-wave (km/s) = 7.31398 8.54404 7.95283
#
# Compressibility (1/GPa) = 0.01310458
#
# Stress axis : x y z
#
# Youngs Moduli (GPa) = 197.14462 197.14462 91.82233
#
# Poissons Ratio (x) = -0.37243 0.26879
# Poissons Ratio (y) = -0.37243 0.26879
# Poissons Ratio (z) = 0.57710 0.57710
#
# Static dielectric constant tensor:
#      x y z
#    x 1.709230 0.000000 0.000000 
#    y 0.000000 1.709230 0.000000 
#    z 0.000000 0.000000 1.728870 
# 
# From -- ./inp_files/1375.got.cif
#   From: 2010.05.17/outbox.cif.g08.bks.cpg/sg86_1_cif.got.tgz:1375.got - 2010.06.03 19:03:11.
