data_PCOD9545591
_publ_section_title
;
Structure prediction by ZEFSAII (Michael W. Deem and Ramdas Pophale) SiO2 
 PCOD9545591
Probable space group: I 4/M
;
_chemical_formula_sum "Si O2"
_cell_formula_units_Z 96
_cell_length_a 23.766872
_cell_length_b 23.766872
_cell_length_c 7.942362
_cell_angle_alpha 90.000000
_cell_angle_beta 90.000000
_cell_angle_gamma 90.000000
_cell_volume 4486.355994
_symmetry_space_group_name_H-M "I 4/M"
_symmetry_group_IT_number 87
_symmetry_cell_setting 'tetragonal'
loop_
_space_group_symop_operation_xyz
x,y,z
-y,x,z
-x,-y,z
y,-x,z
-x,-y,-z
y,-x,-z
x,y,-z
-y,x,-z
1/2+x,1/2+y,1/2+z
1/2-y,1/2+x,1/2+z
1/2-x,1/2-y,1/2+z
1/2+y,1/2-x,1/2+z
1/2-x,1/2-y,1/2-z
1/2+y,1/2-x,1/2-z
1/2+x,1/2+y,1/2-z
1/2-y,1/2+x,1/2-z
loop_
_atom_site_type_symbol
_atom_site_label
_atom_site_fract_x
_atom_site_fract_y
_atom_site_fract_z
Si Si1 0.078785 0.532111 0.308873
Si Si2 0.228794 0.890419 0.796345
Si Si3 0.637442 0.298395 0.705703
Si Si4 0.015169 0.792703 0.811280
Si Si5 0.654725 0.168683 0.299157
Si Si6 0.675224 0.965641 0.308593
O O1 0.077142 0.553005 0.500000
O O2 0.033252 0.558475 0.186829
O O3 0.138732 0.520917 0.227387
O O4 0.183369 0.843918 0.741720
O O5 0.290247 0.866469 0.749739
O O6 0.210166 0.952650 0.733107
O O7 0.228427 0.894485 0.000000
O O8 0.635221 0.298570 0.500000
O O9 0.574112 0.314511 0.766163
O O10 0.656504 0.234971 0.754928
O O11 0.031206 0.726771 0.817792
O O12 0.009985 0.816729 0.000000
O O13 0.649545 0.166864 0.500000
O O14 0.595895 0.147561 0.219819
O O15 0.695340 0.967367 0.500000
#
# Coordination Sequence:
#
# PCOD9545591 Si02
#       6
#    16  16  16  16  16  16
#     4  11  22  37  53  71  96 132 179 224 268 313
#     4  10  19  32  55  81 105 138 182 221 264 328
#     4   8  16  33  53  75 106 143 176 216 271 323
#     4   9  19  35  53  76 106 138 174 220 271 320
#     4  10  20  34  52  77 109 140 175 220 270 319
#     4  11  22  36  53  73 103 140 178 221 268 318
#
# _framework density 21.398212999999998
#
# number of rings (size 3 to 8) (size 9 to 14) (size 15 to 20)
#    0.000    2.167    0.000    5.500    2.333    0.667 
#    0.000    3.333    0.000    0.500    0.000    3.500 
#    0.000    0.000    0.000    7.500    0.000    8.333 
#
# Total GULP energy -267514.262969 kJ/mol
# GULP energy per Si atom -5573.213812 kJ/mol
# Density = 2.134951 g / cm^3
# Si number density = 21.398213 Si / 1000 Ang^3
#
#
#
# Elastic Constant Matrix: (Units=GPa)
#
#
# Indices 1 2 3 4 5 6 
#
# 1 100.4113 48.1614 10.4138 0.0000 0.0000 -10.9593
# 2 48.1614 100.4113 10.4138 0.0000 0.0000 10.9593
# 3 10.4138 10.4138 78.3095 0.0000 0.0000 0.0000
# 4 0.0000 0.0000 0.0000 16.1472 0.0000 0.0000
# 5 0.0000 0.0000 0.0000 0.0000 16.1472 0.0000
# 6 -10.9593 10.9593 0.0000 0.0000 0.0000 35.0339
#
#
#
# Elastic Compliance Matrix: (Units=1/GPa)
#
#
# Indices 1 2 3 4 5 6 
#
# 1 0.014444 -0.007586 -0.000912 0.000000 0.000000 0.006891
# 2 -0.007586 0.014444 -0.000912 0.000000 0.000000 -0.006891
# 3 -0.000912 -0.000912 0.013012 0.000000 0.000000 0.000000
# 4 0.000000 0.000000 0.000000 0.061930 0.000000 0.000000
# 5 0.000000 0.000000 0.000000 0.000000 0.061930 0.000000
# 6 0.006891 -0.006891 0.000000 0.000000 0.000000 0.032855
#
#
# Mechanical properties :
#
#
# Convention : Reuss Voigt Hill
#
# Bulk Modulus (GPa) = 43.32515 46.34556 44.83535
# Shear Modulus (GPa) = 22.20944 27.47519 24.84232
#
# Velocity S-wave (km/s) = 3.22516 3.58717 3.41097
# Velocity P-wave (km/s) = 5.84465 6.23400 6.04246
#
# Compressibility (1/GPa) = 0.02308128
#
# Stress axis : x y z
#
# Youngs Moduli (GPa) = 69.23232 69.23232 76.84960
#
# Poissons Ratio (x) = 0.52517 0.07009
# Poissons Ratio (y) = 0.52517 0.07009
# Poissons Ratio (z) = 0.06314 0.06314
#
# Static dielectric constant tensor:
#      x y z
#    x 1.863840 0.000000 0.000000 
#    y 0.000000 1.863840 0.000000 
#    z 0.000000 0.000000 1.778340 
# 
# From -- ./inp_files/1372.got.cif
#   From: 2010.05.17/outbox.cif.g08.bks.cpg/sg87_1_cif.got.tgz:1372.got - 2010.06.03 19:07:00.
