data_PCOD9545110
_publ_section_title
;
Structure prediction by ZEFSAII (Michael W. Deem and Ramdas Pophale) SiO2 
 PCOD9545110
Probable space group: P 42/N
;
_chemical_formula_sum "Si O2"
_cell_formula_units_Z 48
_cell_length_a 8.898351
_cell_length_b 8.898351
_cell_length_c 29.295807
_cell_angle_alpha 90.000000
_cell_angle_beta 90.000000
_cell_angle_gamma 90.000000
_cell_volume 2319.661056
_symmetry_space_group_name_H-M "P 42/N"
_symmetry_group_IT_number 86
_space_group.IT_coordinate_system_code '2'
_symmetry_cell_setting 'tetragonal'
loop_
_space_group_symop_operation_xyz
x,y,z
-y,1/2+x,1/2+z
1/2-x,1/2-y,z
1/2+y,-x,1/2+z
-x,-y,-z
y,1/2-x,1/2-z
1/2+x,1/2+y,-z
1/2-y,x,1/2-z
loop_
_atom_site_type_symbol
_atom_site_label
_atom_site_fract_x
_atom_site_fract_y
_atom_site_fract_z
Si Si1 0.899859 0.583528 0.065375
Si Si2 0.082092 0.822102 0.724370
Si Si3 0.881968 0.370130 0.592156
Si Si4 0.034795 0.047280 0.183345
Si Si5 0.430618 0.773176 0.146459
Si Si6 0.414659 0.206666 0.036601
O O1 0.736430 0.524862 0.081736
O O2 0.977710 0.689214 0.102049
O O3 0.009579 0.438583 0.060094
O O4 0.897571 0.662747 0.016276
O O5 0.250000 0.750000 0.726278
O O6 0.095225 0.943355 0.683966
O O7 0.962424 0.703878 0.703899
O O8 0.051749 0.883544 0.774119
O O9 0.750000 0.250000 0.600290
O O10 0.881692 0.483779 0.635335
O O11 0.840475 0.469889 0.547988
O O12 0.006116 0.873384 0.171293
O O13 0.250000 0.750000 0.135573
O O14 0.250000 0.250000 0.054369
#
# Coordination Sequence:
#
# PCOD9545110 Si02
#       6
#     8   8   8   8   8   8
#     4  10  23  43  63  95 131 171 224 285 337 404
#     4   9  21  40  59  92 124 165 214 268 329 401
#     4  10  23  42  62  95 131 169 222 286 336 396
#     4  10  21  39  63  88 128 168 211 271 333 398
#     4   9  22  39  63  91 125 170 216 273 336 405
#     4  10  24  40  65  93 128 176 220 274 345 406
#
# _framework density 20.692679999999999
#
# number of rings (size 3 to 8) (size 9 to 14) (size 15 to 20)
#    0.000    2.667    0.000    0.500    7.000    9.667 
#    0.000    3.333    0.000    0.000    0.000    0.000 
#    0.000    0.000    0.000    0.000    0.000    0.000 
#
# Total GULP energy -267316.610866 kJ/mol
# GULP energy per Si atom -5569.096060 kJ/mol
# Density = 2.064558 g / cm^3
# Si number density = 20.692680 Si / 1000 Ang^3
#
#
#
# Elastic Constant Matrix: (Units=GPa)
#
#
# Indices 1 2 3 4 5 6 
#
# 1 62.4806 56.0727 47.8789 0.0000 0.0000 -6.4247
# 2 56.0727 62.4806 47.8789 0.0000 0.0000 6.4247
# 3 47.8789 47.8789 105.5046 0.0000 0.0000 0.0000
# 4 0.0000 0.0000 0.0000 17.5691 0.0000 0.0000
# 5 0.0000 0.0000 0.0000 0.0000 17.5691 0.0000
# 6 -6.4247 6.4247 0.0000 0.0000 0.0000 31.4812
#
#
#
# Elastic Compliance Matrix: (Units=1/GPa)
#
#
# Indices 1 2 3 4 5 6 
#
# 1 0.138738 -0.125422 -0.006043 0.000000 0.000000 0.053910
# 2 -0.125422 0.138738 -0.006043 0.000000 0.000000 -0.053910
# 3 -0.006043 -0.006043 0.014963 0.000000 0.000000 0.000000
# 4 0.000000 0.000000 0.000000 0.056918 0.000000 0.000000
# 5 0.000000 0.000000 0.000000 0.000000 0.056918 0.000000
# 6 0.053910 -0.053910 0.000000 0.000000 0.000000 0.053769
#
#
# Mechanical properties :
#
#
# Convention : Reuss Voigt Hill
#
# Bulk Modulus (GPa) = 57.39456 59.34743 58.37099
# Shear Modulus (GPa) = 6.74884 18.56621 12.65752
#
# Velocity S-wave (km/s) = 1.80791 2.99864 2.47592
# Velocity P-wave (km/s) = 5.67053 6.38214 6.03683
#
# Compressibility (1/GPa) = 0.01742325
#
# Stress axis : x y z
#
# Youngs Moduli (GPa) = 7.20783 7.20783 66.83182
#
# Poissons Ratio (x) = 0.90402 0.40386
# Poissons Ratio (y) = 0.90402 0.40386
# Poissons Ratio (z) = 0.04356 0.04356
#
# Static dielectric constant tensor:
#      x y z
#    x 1.796350 0.000000 0.000000 
#    y 0.000000 1.796350 0.000000 
#    z 0.000000 0.000000 1.765720 
# 
# From -- ./inp_files/5178.got.cif
#   From: 2010.05.17/outbox.cif.g08.bks.cpg/sg86_3_cif.got.tgz:5178.got - 2010.06.03 19:03:11.
