data_PCOD9545345
_publ_section_title
;
Structure prediction by ZEFSAII (Michael W. Deem and Ramdas Pophale) SiO2 
 PCOD9545345
Probable space group: P 42/N
;
_chemical_formula_sum "Si O2"
_cell_formula_units_Z 64
_cell_length_a 11.162851
_cell_length_b 11.162851
_cell_length_c 22.783286
_cell_angle_alpha 90.000000
_cell_angle_beta 90.000000
_cell_angle_gamma 90.000000
_cell_volume 2839.008009
_symmetry_space_group_name_H-M "P 42/N"
_symmetry_group_IT_number 86
_space_group.IT_coordinate_system_code '2'
_symmetry_cell_setting 'tetragonal'
loop_
_space_group_symop_operation_xyz
x,y,z
-y,1/2+x,1/2+z
1/2-x,1/2-y,z
1/2+y,-x,1/2+z
-x,-y,-z
y,1/2-x,1/2-z
1/2+x,1/2+y,-z
1/2-y,x,1/2-z
loop_
_atom_site_type_symbol
_atom_site_label
_atom_site_fract_x
_atom_site_fract_y
_atom_site_fract_z
Si Si1 0.947495 0.777253 0.761894
Si Si2 0.260314 0.505862 0.608585
Si Si3 0.800133 0.939596 0.923538
Si Si4 0.607721 0.150602 0.316033
Si Si5 0.019976 0.477593 0.069085
Si Si6 0.722112 0.001696 0.603800
Si Si7 0.832349 0.593966 0.280113
Si Si8 0.655565 0.140293 0.500160
O O1 0.874009 0.650928 0.758359
O O2 0.990767 0.796734 0.827626
O O3 0.064401 0.762803 0.721384
O O4 0.230454 0.623909 0.648497
O O5 0.400494 0.485891 0.601424
O O6 0.199393 0.405307 0.649900
O O7 0.205981 0.537672 0.544730
O O8 0.871743 0.815843 0.922956
O O9 0.854719 0.010822 0.868018
O O10 0.658244 0.946312 0.917280
O O11 0.826267 0.024123 0.978543
O O12 0.603032 0.033405 0.274286
O O13 0.956950 0.357029 0.089690
O O14 0.000000 0.500000 0.000000
O O15 0.645167 0.093533 0.565999
O O16 0.707571 0.596678 0.244117
O O17 0.750000 0.250000 0.494531
#
# Coordination Sequence:
#
# PCOD9545345 Si02
#       8
#     8   8   8   8   8   8   8   8
#     4  11  23  42  65  98 140 181 233 299 356 424
#     4   9  21  39  69  98 130 189 227 285 361 418
#     4  11  22  43  67 100 140 187 236 287 368 439
#     4   9  21  40  68  95 131 185 234 278 359 434
#     4  12  23  41  67 105 137 177 240 295 355 433
#     4  12  25  39  72 100 139 186 238 300 362 423
#     4   9  20  41  67  96 135 178 233 289 349 421
#     4  11  21  45  71  98 140 185 235 294 358 430
#
# _framework density 22.543084
#
# number of rings (size 3 to 8) (size 9 to 14) (size 15 to 20)
#    0.750    0.750    3.750    1.500    3.500    0.000 
#    0.000    3.750    5.500    0.000    0.000    0.000 
#    0.000    0.000    0.000    0.000    0.000    0.000 
#
# Total GULP energy -356890.273138 kJ/mol
# GULP energy per Si atom -5576.410518 kJ/mol
# Density = 2.249178 g / cm^3
# Si number density = 22.543084 Si / 1000 Ang^3
#
#
#
# Elastic Constant Matrix: (Units=GPa)
#
#
# Indices 1 2 3 4 5 6 
#
# 1 40.6460 4.5845 26.1486 0.0000 0.0000 3.6143
# 2 4.5845 40.6460 26.1486 0.0000 0.0000 -3.6143
# 3 26.1486 26.1486 135.4443 0.0000 0.0000 0.0000
# 4 0.0000 0.0000 0.0000 21.0358 0.0000 0.0000
# 5 0.0000 0.0000 0.0000 0.0000 21.0358 0.0000
# 6 3.6143 -3.6143 0.0000 0.0000 0.0000 36.5289
#
#
#
# Elastic Compliance Matrix: (Units=1/GPa)
#
#
# Indices 1 2 3 4 5 6 
#
# 1 0.028377 0.000085 -0.005495 0.000000 0.000000 -0.002799
# 2 0.000085 0.028377 -0.005495 0.000000 0.000000 0.002799
# 3 -0.005495 -0.005495 0.009505 0.000000 0.000000 0.000000
# 4 0.000000 0.000000 0.000000 0.047538 0.000000 0.000000
# 5 0.000000 0.000000 0.000000 0.000000 0.047538 0.000000
# 6 -0.002799 0.002799 0.000000 0.000000 0.000000 0.027930
#
#
# Mechanical properties :
#
#
# Convention : Reuss Voigt Hill
#
# Bulk Modulus (GPa) = 22.49721 36.72217 29.60969
# Shear Modulus (GPa) = 22.13469 26.37706 24.25588
#
# Velocity S-wave (km/s) = 3.13690 3.42434 3.28377
# Velocity P-wave (km/s) = 4.80848 5.65332 5.24793
#
# Compressibility (1/GPa) = 0.04444995
#
# Stress axis : x y z
#
# Youngs Moduli (GPa) = 35.23985 35.23985 105.21041
#
# Poissons Ratio (x) = -0.00301 0.57812
# Poissons Ratio (y) = -0.00301 0.57812
# Poissons Ratio (z) = 0.19364 0.19364
#
# Static dielectric constant tensor:
#      x y z
#    x 0.224300 0.000000 0.000000 
#    y 0.000000 0.224300 0.000000 
#    z 0.000000 0.000000 1.827890 
# 
# From -- ./inp_files/4689.got.cif
#   From: 2010.05.17/outbox.cif.g08.bks.cpg/sg86_3_cif.got.tgz:4689.got - 2010.06.03 19:03:11.
