data_PCOD9545904
_publ_section_title
;
Structure prediction by ZEFSAII (Michael W. Deem and Ramdas Pophale) SiO2 
 PCOD9545904
Probable space group: I 4/M
;
_chemical_formula_sum "Si O2"
_cell_formula_units_Z 96
_cell_length_a 14.415365
_cell_length_b 14.415365
_cell_length_c 23.299148
_cell_angle_alpha 90.000000
_cell_angle_beta 90.000000
_cell_angle_gamma 90.000000
_cell_volume 4841.626982
_symmetry_space_group_name_H-M "I 4/M"
_symmetry_group_IT_number 87
_symmetry_cell_setting 'tetragonal'
loop_
_space_group_symop_operation_xyz
x,y,z
-y,x,z
-x,-y,z
y,-x,z
-x,-y,-z
y,-x,-z
x,y,-z
-y,x,-z
1/2+x,1/2+y,1/2+z
1/2-y,1/2+x,1/2+z
1/2-x,1/2-y,1/2+z
1/2+y,1/2-x,1/2+z
1/2-x,1/2-y,1/2-z
1/2+y,1/2-x,1/2-z
1/2+x,1/2+y,1/2-z
1/2-y,1/2+x,1/2-z
loop_
_atom_site_type_symbol
_atom_site_label
_atom_site_fract_x
_atom_site_fract_y
_atom_site_fract_z
Si Si1 0.895078 0.462962 0.435035
Si Si2 0.325741 0.068824 0.827047
Si Si3 0.893655 0.111310 0.568071
Si Si4 0.826508 0.802932 0.211830
Si Si5 0.714474 0.859243 0.633107
Si Si6 0.969643 0.712831 0.718713
O O1 0.860158 0.471311 0.500000
O O2 0.838868 0.522514 0.388317
O O3 0.896323 0.356315 0.414647
O O4 0.000000 0.500000 0.433020
O O5 0.222436 0.105515 0.811980
O O6 0.397427 0.153455 0.818695
O O7 0.346315 0.997532 0.775251
O O8 0.879335 0.125309 0.500000
O O9 0.838995 0.185815 0.605335
O O10 0.003548 0.126837 0.580119
O O11 0.750000 0.750000 0.250000
O O12 0.833818 0.731838 0.159013
O O13 0.916121 0.800897 0.252989
O O14 0.728131 0.937705 0.682024
#
# Coordination Sequence:
#
# PCOD9545904 Si02
#       6
#    16  16  16  16  16  16
#     4  11  23  37  55  84 115 150 194 240 288 345
#     4  11  21  38  56  82 116 149 188 230 288 343
#     4   9  21  39  55  76 112 155 191 223 265 329
#     4  10  22  35  52  88 115 146 184 230 287 353
#     4  12  21  34  60  86 113 147 187 234 290 345
#     4  11  20  34  59  83 112 149 178 228 293 348
#
# _framework density 19.828046000000001
#
# number of rings (size 3 to 8) (size 9 to 14) (size 15 to 20)
#    0.000    1.333    6.667    1.000    4.667    0.000 
#    0.000    1.667    0.000    0.500    0.000    0.000 
#    0.000    1.333    0.000    0.000    0.000    0.000 
#
# Total GULP energy -267797.277018 kJ/mol
# GULP energy per Si atom -5579.109938 kJ/mol
# Density = 1.978292 g / cm^3
# Si number density = 19.828046 Si / 1000 Ang^3
#
#
#
# Elastic Constant Matrix: (Units=GPa)
#
#
# Indices 1 2 3 4 5 6 
#
# 1 55.1301 10.6925 29.9738 0.0000 0.0000 2.0501
# 2 10.6925 55.1301 29.9738 0.0000 0.0000 -2.0501
# 3 29.9738 29.9738 127.9098 0.0000 0.0000 0.0000
# 4 0.0000 0.0000 0.0000 21.0332 0.0000 0.0000
# 5 0.0000 0.0000 0.0000 0.0000 21.0332 0.0000
# 6 2.0501 -2.0501 0.0000 0.0000 0.0000 24.3363
#
#
#
# Elastic Compliance Matrix: (Units=1/GPa)
#
#
# Indices 1 2 3 4 5 6 
#
# 1 0.020997 -0.001683 -0.004526 0.000000 0.000000 -0.001911
# 2 -0.001683 0.020997 -0.004526 0.000000 0.000000 0.001911
# 3 -0.004526 -0.004526 0.009939 0.000000 0.000000 0.000000
# 4 0.000000 0.000000 0.000000 0.047544 0.000000 0.000000
# 5 0.000000 0.000000 0.000000 0.000000 0.047544 0.000000
# 6 -0.001911 0.001911 0.000000 0.000000 0.000000 0.041413
#
#
# Mechanical properties :
#
#
# Convention : Reuss Voigt Hill
#
# Bulk Modulus (GPa) = 32.82578 42.16114 37.49346
# Shear Modulus (GPa) = 22.72127 24.44921 23.58524
#
# Velocity S-wave (km/s) = 3.38881 3.51531 3.45264
# Velocity P-wave (km/s) = 5.64829 6.14704 5.90293
#
# Compressibility (1/GPa) = 0.03046386
#
# Stress axis : x y z
#
# Youngs Moduli (GPa) = 47.62565 47.62565 100.61137
#
# Poissons Ratio (x) = 0.08014 0.45537
# Poissons Ratio (y) = 0.08014 0.45537
# Poissons Ratio (z) = 0.21556 0.21556
#
# Static dielectric constant tensor:
#      x y z
#    x 1.747100 0.000000 0.000000 
#    y 0.000000 1.747100 0.000000 
#    z 0.000000 0.000000 1.733330 
# 
# From -- ./inp_files/5264.got.cif
#   From: 2010.05.17/outbox.cif.g08.bks.cpg/sg87_3_cif.got.tgz:5264.got - 2010.06.03 19:07:00.
