data_PCOD9545870
_publ_section_title
;
Structure prediction by ZEFSAII (Michael W. Deem and Ramdas Pophale) SiO2 
 PCOD9545870
Probable space group: I 4/M
;
_chemical_formula_sum "Si O2"
_cell_formula_units_Z 96
_cell_length_a 24.238058
_cell_length_b 24.238058
_cell_length_c 8.953252
_cell_angle_alpha 90.000000
_cell_angle_beta 90.000000
_cell_angle_gamma 90.000000
_cell_volume 5259.887424
_symmetry_space_group_name_H-M "I 4/M"
_symmetry_group_IT_number 87
_symmetry_cell_setting 'tetragonal'
loop_
_space_group_symop_operation_xyz
x,y,z
-y,x,z
-x,-y,z
y,-x,z
-x,-y,-z
y,-x,-z
x,y,-z
-y,x,-z
1/2+x,1/2+y,1/2+z
1/2-y,1/2+x,1/2+z
1/2-x,1/2-y,1/2+z
1/2+y,1/2-x,1/2+z
1/2-x,1/2-y,1/2-z
1/2+y,1/2-x,1/2-z
1/2+x,1/2+y,1/2-z
1/2-y,1/2+x,1/2-z
loop_
_atom_site_type_symbol
_atom_site_label
_atom_site_fract_x
_atom_site_fract_y
_atom_site_fract_z
Si Si1 0.960137 0.290160 0.321052
Si Si2 0.045550 0.205586 0.822446
Si Si3 0.016519 0.089708 0.678355
Si Si4 0.735606 0.337873 0.822058
Si Si5 0.228717 0.332988 0.821215
Si Si6 0.082244 0.485654 0.821030
O O1 0.965547 0.281691 0.500000
O O2 0.896762 0.277621 0.280093
O O3 0.974022 0.353933 0.289458
O O4 0.001843 0.249921 0.238194
O O5 0.027498 0.145361 0.765783
O O6 0.105357 0.219631 0.755318
O O7 0.047781 0.207135 0.000000
O O8 0.018514 0.100445 0.500000
O O9 0.957255 0.062108 0.711089
O O10 0.691045 0.289616 0.789101
O O11 0.793630 0.314470 0.762091
O O12 0.737883 0.345455 0.000000
O O13 0.219784 0.327992 0.000000
O O14 0.060968 0.542732 0.749583
O O15 0.074391 0.486999 0.000000
#
# Coordination Sequence:
#
# PCOD9545870 Si02
#       6
#    16  16  16  16  16  16
#     4  10  23  41  61  88 119 156 202 245 296 355
#     4  12  26  39  58  90 126 159 199 249 296 347
#     4   9  20  41  67  90 116 156 201 245 299 361
#     4  10  21  39  63  89 119 159 201 243 298 359
#     4   9  20  40  64  89 118 155 198 248 299 354
#     4  10  21  38  61  87 118 154 195 242 292 352
#
# _framework density 18.251341
#
# number of rings (size 3 to 8) (size 9 to 14) (size 15 to 20)
#    0.000    2.000    0.000    3.500    4.667    3.333 
#    0.000    0.833    0.000    0.000    0.000    0.000 
#    0.000    0.000    0.000    0.000    0.000    0.000 
#
# Total GULP energy -268211.909760 kJ/mol
# GULP energy per Si atom -5587.748120 kJ/mol
# Density = 1.820980 g / cm^3
# Si number density = 18.251341 Si / 1000 Ang^3
#
#
#
# Elastic Constant Matrix: (Units=GPa)
#
#
# Indices 1 2 3 4 5 6 
#
# 1 158.1933 110.7397 91.3506 0.0000 0.0000 -1.2587
# 2 110.7397 158.1933 91.3506 0.0000 0.0000 1.2587
# 3 91.3506 91.3506 87.7645 0.0000 0.0000 0.0000
# 4 0.0000 0.0000 0.0000 24.1498 0.0000 0.0000
# 5 0.0000 0.0000 0.0000 0.0000 24.1498 0.0000
# 6 -1.2587 1.2587 0.0000 0.0000 0.0000 10.5272
#
#
#
# Elastic Compliance Matrix: (Units=1/GPa)
#
#
# Indices 1 2 3 4 5 6 
#
# 1 0.016952 -0.004256 -0.013214 0.000000 0.000000 0.002536
# 2 -0.004256 0.016952 -0.013214 0.000000 0.000000 -0.002536
# 3 -0.013214 -0.013214 0.038903 0.000000 0.000000 0.000000
# 4 0.000000 0.000000 0.000000 0.041408 0.000000 0.000000
# 5 0.000000 0.000000 0.000000 0.000000 0.041408 0.000000
# 6 0.002536 -0.002536 0.000000 0.000000 0.000000 0.095598
#
#
# Mechanical properties :
#
#
# Convention : Reuss Voigt Hill
#
# Bulk Modulus (GPa) = 87.43914 110.11473 98.77694
# Shear Modulus (GPa) = 15.80263 19.14605 17.47434
#
# Velocity S-wave (km/s) = 2.94570 3.24237 3.09759
# Velocity P-wave (km/s) = 7.71893 8.63022 8.18726
#
# Compressibility (1/GPa) = 0.01143653
#
# Stress axis : x y z
#
# Youngs Moduli (GPa) = 58.99103 58.99103 25.70494
#
# Poissons Ratio (x) = 0.25106 0.33968
# Poissons Ratio (y) = 0.25106 0.33968
# Poissons Ratio (z) = 0.77954 0.77954
#
# Static dielectric constant tensor:
#      x y z
#    x 1.601190 0.000000 0.000000 
#    y 0.000000 1.601190 0.000000 
#    z 0.000000 0.000000 1.607520 
# 
# From -- ./inp_files/1383.got.cif
#   From: 2010.05.17/outbox.cif.g08.bks.cpg/sg87_1_cif.got.tgz:1383.got - 2010.06.03 19:07:00.
