data_PCOD9545999
_publ_section_title
;
Structure prediction by ZEFSAII (Michael W. Deem and Ramdas Pophale) SiO2 
 PCOD9545999
Probable space group: I 4/M
;
_chemical_formula_sum "Si O2"
_cell_formula_units_Z 112
_cell_length_a 15.242934
_cell_length_b 15.242934
_cell_length_c 23.053674
_cell_angle_alpha 90.000000
_cell_angle_beta 90.000000
_cell_angle_gamma 90.000000
_cell_volume 5356.452844
_symmetry_space_group_name_H-M "I 4/M"
_symmetry_group_IT_number 87
_symmetry_cell_setting 'tetragonal'
loop_
_space_group_symop_operation_xyz
x,y,z
-y,x,z
-x,-y,z
y,-x,z
-x,-y,-z
y,-x,-z
x,y,-z
-y,x,-z
1/2+x,1/2+y,1/2+z
1/2-y,1/2+x,1/2+z
1/2-x,1/2-y,1/2+z
1/2+y,1/2-x,1/2+z
1/2-x,1/2-y,1/2-z
1/2+y,1/2-x,1/2-z
1/2+x,1/2+y,1/2-z
1/2-y,1/2+x,1/2-z
loop_
_atom_site_type_symbol
_atom_site_label
_atom_site_fract_x
_atom_site_fract_y
_atom_site_fract_z
Si Si1 0.923534 0.333944 0.724719
Si Si2 0.359760 0.515125 0.636596
Si Si3 0.861015 0.979171 0.276148
Si Si4 0.113954 0.763729 0.431115
Si Si5 0.088475 0.586867 0.156532
Si Si6 0.168717 0.584052 0.370580
Si Si7 0.249894 0.913513 0.569721
O O1 0.913749 0.338598 0.793557
O O2 0.837726 0.375410 0.694663
O O3 0.948101 0.235540 0.707391
O O4 0.002519 0.391907 0.697441
O O5 0.406392 0.425029 0.617391
O O6 0.358796 0.498207 0.706348
O O7 0.263183 0.542879 0.617257
O O8 0.903773 0.070916 0.295414
O O9 0.122109 0.758880 0.500000
O O10 0.139896 0.668209 0.407171
O O11 0.180700 0.839354 0.412392
O O12 0.012111 0.784555 0.419507
O O13 0.163841 0.595622 0.109123
O O14 0.995322 0.599479 0.125287
O O15 0.267467 0.906099 0.500000
#
# Coordination Sequence:
#
# PCOD9545999 Si02
#       7
#    16  16  16  16  16  16  16
#     4  12  23  39  60  95 138 178 223 266 327 412
#     4   9  19  38  60  85 117 165 219 261 315 384
#     4   9  19  38  58  82 123 173 220 268 320 381
#     4  10  24  46  71 100 132 170 226 283 337 402
#     4  12  24  40  64  95 138 180 219 271 333 393
#     4  12  24  38  65  95 131 173 218 271 331 395
#     4  10  24  47  73 100 132 175 228 285 337 398
#
# _framework density 20.90936
#
# number of rings (size 3 to 8) (size 9 to 14) (size 15 to 20)
#    0.000    1.429    4.286    1.286    2.000    2.000 
#    0.000    5.714    0.000    0.000    0.000    1.000 
#    0.000    0.000    0.000    0.000    0.000    0.000 
#
# Total GULP energy -312413.112882 kJ/mol
# GULP energy per Si atom -5578.805587 kJ/mol
# Density = 2.086177 g / cm^3
# Si number density = 20.909360 Si / 1000 Ang^3
#
#
#
# Elastic Constant Matrix: (Units=GPa)
#
#
# Indices 1 2 3 4 5 6 
#
# 1 131.0209 65.6700 22.0701 0.0000 0.0000 -7.4570
# 2 65.6700 131.0209 22.0701 0.0000 0.0000 7.4570
# 3 22.0701 22.0701 59.6578 0.0000 0.0000 0.0000
# 4 0.0000 0.0000 0.0000 23.9588 0.0000 0.0000
# 5 0.0000 0.0000 0.0000 0.0000 23.9588 0.0000
# 6 -7.4570 7.4570 0.0000 0.0000 0.0000 25.1988
#
#
#
# Elastic Compliance Matrix: (Units=1/GPa)
#
#
# Indices 1 2 3 4 5 6 
#
# 1 0.010977 -0.005433 -0.002051 0.000000 0.000000 0.004856
# 2 -0.005433 0.010977 -0.002051 0.000000 0.000000 -0.004856
# 3 -0.002051 -0.002051 0.018280 0.000000 0.000000 0.000000
# 4 0.000000 0.000000 0.000000 0.041738 0.000000 0.000000
# 5 0.000000 0.000000 0.000000 0.000000 0.041738 0.000000
# 6 0.004856 -0.004856 0.000000 0.000000 0.000000 0.042559
#
#
# Mechanical properties :
#
#
# Convention : Reuss Voigt Hill
#
# Bulk Modulus (GPa) = 47.24959 60.14667 53.69813
# Shear Modulus (GPa) = 25.98821 28.74923 27.36872
#
# Velocity S-wave (km/s) = 3.52930 3.71205 3.62183
# Velocity P-wave (km/s) = 6.26533 6.87025 6.57475
#
# Compressibility (1/GPa) = 0.02116421
#
# Stress axis : x y z
#
# Youngs Moduli (GPa) = 91.09669 91.09669 54.70491
#
# Poissons Ratio (x) = 0.49492 0.11221
# Poissons Ratio (y) = 0.49492 0.11221
# Poissons Ratio (z) = 0.18685 0.18685
#
# Static dielectric constant tensor:
#      x y z
#    x 1.773630 0.000000 0.000000 
#    y 0.000000 1.773630 0.000000 
#    z 0.000000 0.000000 1.782070 
# 
# From -- ./inp_files/5901.got.cif
#   From: 2010.05.17/outbox.cif.g08.bks.cpg/sg87_3_cif.got.tgz:5901.got - 2010.06.03 19:07:00.
