data_PCOD9545397
_publ_section_title
;
Structure prediction by ZEFSAII (Michael W. Deem and Ramdas Pophale) SiO2 
 PCOD9545397
Probable space group: P 42/N
;
_chemical_formula_sum "Si O2"
_cell_formula_units_Z 34
_cell_length_a 8.671383
_cell_length_b 8.671383
_cell_length_c 21.010467
_cell_angle_alpha 90.000000
_cell_angle_beta 90.000000
_cell_angle_gamma 90.000000
_cell_volume 1579.837590
_symmetry_space_group_name_H-M "P 42/N"
_symmetry_group_IT_number 86
_space_group.IT_coordinate_system_code '2'
_symmetry_cell_setting 'tetragonal'
loop_
_space_group_symop_operation_xyz
x,y,z
-y,1/2+x,1/2+z
1/2-x,1/2-y,z
1/2+y,-x,1/2+z
-x,-y,-z
y,1/2-x,1/2-z
1/2+x,1/2+y,-z
1/2-y,x,1/2-z
loop_
_atom_site_type_symbol
_atom_site_label
_atom_site_fract_x
_atom_site_fract_y
_atom_site_fract_z
Si Si1 0.557334 0.588413 0.062130
Si Si2 0.750000 0.750000 0.250000
Si Si3 0.500257 0.473279 0.803807
Si Si4 0.685033 0.415209 0.680196
Si Si5 0.956182 0.919967 0.433637
O O1 0.455424 0.547203 0.123250
O O2 0.734286 0.532330 0.067676
O O3 0.552644 0.772869 0.066600
O O4 0.500000 0.500000 0.000000
O O5 0.622773 0.839477 0.292859
O O6 0.599799 0.404161 0.747419
O O7 0.500692 0.657748 0.800253
O O8 0.750000 0.250000 0.657915
O O9 0.565573 0.474008 0.625683
O O10 0.000000 0.000000 0.500000
#
# Coordination Sequence:
#
# PCOD9545397 Si02
#       5
#     8   2   8   8   8
#     4  11  24  44  70 103 143 192 248 298 365 446
#     4  12  20  40  72 100 128 188 248 306 356 456
#     4  12  24  43  69 101 140 184 249 300 377 440
#     4  12  25  43  73 103 142 189 247 313 375 445
#     4  11  25  44  71 103 144 191 243 305 370 442
#
# _framework density 21.521197999999998
#
# number of rings (size 3 to 8) (size 9 to 14) (size 15 to 20)
#    0.000    0.471    4.706    4.235    0.000    2.353 
#    0.000    0.000    0.000    0.000    0.000    0.000 
#    0.000    0.000    0.000    0.000    0.000    0.000 
#
# Total GULP energy -189419.585573 kJ/mol
# GULP energy per Si atom -5571.164282 kJ/mol
# Density = 2.147222 g / cm^3
# Si number density = 21.521198 Si / 1000 Ang^3
#
#
#
# Elastic Constant Matrix: (Units=GPa)
#
#
# Indices 1 2 3 4 5 6 
#
# 1 84.2177 33.5160 51.3951 0.0000 0.0000 -3.8208
# 2 33.5160 84.2177 51.3951 0.0000 0.0000 3.8208
# 3 51.3951 51.3951 190.5440 0.0000 0.0000 0.0000
# 4 0.0000 0.0000 0.0000 25.9735 0.0000 0.0000
# 5 0.0000 0.0000 0.0000 0.0000 25.9735 0.0000
# 6 -3.8208 3.8208 0.0000 0.0000 0.0000 22.4724
#
#
#
# Elastic Compliance Matrix: (Units=1/GPa)
#
#
# Indices 1 2 3 4 5 6 
#
# 1 0.015676 -0.004566 -0.002997 0.000000 0.000000 0.003442
# 2 -0.004566 0.015676 -0.002997 0.000000 0.000000 -0.003442
# 3 -0.002997 -0.002997 0.006865 0.000000 0.000000 0.000000
# 4 0.000000 0.000000 0.000000 0.038501 0.000000 0.000000
# 5 0.000000 0.000000 0.000000 0.000000 0.038501 0.000000
# 6 0.003442 -0.003442 0.000000 0.000000 0.000000 0.045669
#
#
# Mechanical properties :
#
#
# Convention : Reuss Voigt Hill
#
# Bulk Modulus (GPa) = 58.48609 70.17686 64.33148
# Shear Modulus (GPa) = 26.63748 29.72878 28.18313
#
# Velocity S-wave (km/s) = 3.52196 3.72071 3.62270
# Velocity P-wave (km/s) = 6.61619 7.15104 6.88881
#
# Compressibility (1/GPa) = 0.01709808
#
# Stress axis : x y z
#
# Youngs Moduli (GPa) = 63.79172 63.79172 145.67235
#
# Poissons Ratio (x) = 0.29127 0.43654
# Poissons Ratio (y) = 0.29127 0.43654
# Poissons Ratio (z) = 0.19116 0.19116
#
# Static dielectric constant tensor:
#      x y z
#    x 1.893950 0.000000 0.000000 
#    y 0.000000 1.893950 0.000000 
#    z 0.000000 0.000000 1.833370 
# 
# From -- ./inp_files/3974.got.cif
#   From: 2010.05.17/outbox.cif.g08.bks.cpg/sg86_2_cif.got.tgz:3974.got - 2010.06.03 19:03:11.
