data_PCOD9545705
_publ_section_title
;
Structure prediction by ZEFSAII (Michael W. Deem and Ramdas Pophale) SiO2 
 PCOD9545705
Probable space group: I 4/M
;
_chemical_formula_sum "Si O2"
_cell_formula_units_Z 96
_cell_length_a 22.893981
_cell_length_b 22.893981
_cell_length_c 7.488632
_cell_angle_alpha 90.000000
_cell_angle_beta 90.000000
_cell_angle_gamma 90.000000
_cell_volume 3925.049386
_symmetry_space_group_name_H-M "I 4/M"
_symmetry_group_IT_number 87
_symmetry_cell_setting 'tetragonal'
loop_
_space_group_symop_operation_xyz
x,y,z
-y,x,z
-x,-y,z
y,-x,z
-x,-y,-z
y,-x,-z
x,y,-z
-y,x,-z
1/2+x,1/2+y,1/2+z
1/2-y,1/2+x,1/2+z
1/2-x,1/2-y,1/2+z
1/2+y,1/2-x,1/2+z
1/2-x,1/2-y,1/2-z
1/2+y,1/2-x,1/2-z
1/2+x,1/2+y,1/2-z
1/2-y,1/2+x,1/2-z
loop_
_atom_site_type_symbol
_atom_site_label
_atom_site_fract_x
_atom_site_fract_y
_atom_site_fract_z
Si Si1 0.981969 0.907851 0.714594
Si Si2 0.741874 0.395274 0.714621
Si Si3 0.805591 0.858437 0.217812
Si Si4 0.359878 0.827343 0.287098
Si Si5 0.460113 0.913216 0.706441
Si Si6 0.012045 0.787758 0.802055
O O1 0.979926 0.900747 0.500000
O O2 0.975211 0.847529 0.809767
O O3 0.934967 0.955816 0.764128
O O4 0.735963 0.400654 0.500000
O O5 0.688132 0.353976 0.781802
O O6 0.802322 0.363415 0.748229
O O7 0.749774 0.461688 0.788114
O O8 0.738795 0.845968 0.272897
O O9 0.808294 0.926495 0.277734
O O10 0.810073 0.857330 0.000000
O O11 0.367179 0.824022 0.500000
O O12 0.417911 0.861651 0.219639
O O13 0.471446 0.899322 0.500000
O O14 0.524388 0.925706 0.786047
O O15 0.025587 0.764454 0.000000
#
# Coordination Sequence:
#
# PCOD9545705 Si02
#       6
#    16  16  16  16  16  16
#     4   9  18  32  49  72 106 145 180 219 272 327
#     4  10  21  36  58  84 111 148 190 235 281 331
#     4   9  19  37  56  80 114 149 189 232 282 335
#     4  10  22  38  59  82 113 153 188 229 282 337
#     4  10  21  37  60  88 118 155 190 232 286 340
#     4  10  20  34  56  82 107 140 184 233 279 328
#
# _framework density 24.458290999999999
#
# number of rings (size 3 to 8) (size 9 to 14) (size 15 to 20)
#    0.000    2.333    0.000    3.000    2.333    4.000 
#    0.000    2.500    0.000    0.000    0.000    0.000 
#    0.000    0.000    0.000    0.000    0.000    0.000 
#
# Total GULP energy -267786.850774 kJ/mol
# GULP energy per Si atom -5578.892724 kJ/mol
# Density = 2.440262 g / cm^3
# Si number density = 24.458291 Si / 1000 Ang^3
#
#
#
# Elastic Constant Matrix: (Units=GPa)
#
#
# Indices 1 2 3 4 5 6 
#
# 1 76.6782 -1.7146 -2.1729 0.0000 0.0000 1.6808
# 2 -1.7146 76.6782 -2.1729 0.0000 0.0000 -1.6808
# 3 -2.1729 -2.1729 64.6085 0.0000 0.0000 0.0000
# 4 0.0000 0.0000 0.0000 8.3041 0.0000 0.0000
# 5 0.0000 0.0000 0.0000 0.0000 8.3041 0.0000
# 6 1.6808 -1.6808 0.0000 0.0000 0.0000 40.6820
#
#
#
# Elastic Compliance Matrix: (Units=1/GPa)
#
#
# Indices 1 2 3 4 5 6 
#
# 1 0.013072 0.000293 0.000450 0.000000 0.000000 -0.000528
# 2 0.000293 0.013072 0.000450 0.000000 0.000000 0.000528
# 3 0.000450 0.000450 0.015508 0.000000 0.000000 0.000000
# 4 0.000000 0.000000 0.000000 0.120423 0.000000 0.000000
# 5 0.000000 0.000000 0.000000 0.000000 0.120423 0.000000
# 6 -0.000528 0.000528 0.000000 0.000000 0.000000 0.024624
#
#
# Mechanical properties :
#
#
# Convention : Reuss Voigt Hill
#
# Bulk Modulus (GPa) = 22.70772 22.87157 22.78964
# Shear Modulus (GPa) = 15.65349 26.39306 21.02328
#
# Velocity S-wave (km/s) = 2.53258 3.28854 2.93500
# Velocity P-wave (km/s) = 4.22568 4.87759 4.56329
#
# Compressibility (1/GPa) = 0.04403789
#
# Stress axis : x y z
#
# Youngs Moduli (GPa) = 76.49712 76.49712 64.48257
#
# Poissons Ratio (x) = -0.02245 -0.02899
# Poissons Ratio (y) = -0.02245 -0.02899
# Poissons Ratio (z) = -0.03439 -0.03439
#
# Static dielectric constant tensor:
#      x y z
#    x 1.988360 0.000000 0.000000 
#    y 0.000000 1.988360 0.000000 
#    z 0.000000 0.000000 1.990830 
# 
# From -- ./inp_files/1316.got.cif
#   From: 2010.05.17/outbox.cif.g08.bks.cpg/sg87_1_cif.got.tgz:1316.got - 2010.06.03 19:07:00.
