data_PCOD9545847
_publ_section_title
;
Structure prediction by ZEFSAII (Michael W. Deem and Ramdas Pophale) SiO2 
 PCOD9545847
Probable space group: I 4/M
;
_chemical_formula_sum "Si O2"
_cell_formula_units_Z 96
_cell_length_a 24.163862
_cell_length_b 24.163862
_cell_length_c 8.329818
_cell_angle_alpha 90.000000
_cell_angle_beta 90.000000
_cell_angle_gamma 90.000000
_cell_volume 4863.715980
_symmetry_space_group_name_H-M "I 4/M"
_symmetry_group_IT_number 87
_symmetry_cell_setting 'tetragonal'
loop_
_space_group_symop_operation_xyz
x,y,z
-y,x,z
-x,-y,z
y,-x,z
-x,-y,-z
y,-x,-z
x,y,-z
-y,x,-z
1/2+x,1/2+y,1/2+z
1/2-y,1/2+x,1/2+z
1/2-x,1/2-y,1/2+z
1/2+y,1/2-x,1/2+z
1/2-x,1/2-y,1/2-z
1/2+y,1/2-x,1/2-z
1/2+x,1/2+y,1/2-z
1/2-y,1/2+x,1/2-z
loop_
_atom_site_type_symbol
_atom_site_label
_atom_site_fract_x
_atom_site_fract_y
_atom_site_fract_z
Si Si1 0.603335 0.628716 0.500000
Si Si2 0.198912 0.286223 0.683316
Si Si3 0.184200 0.881590 0.674954
Si Si4 0.117931 0.622637 0.807846
Si Si5 0.216490 0.009719 0.674474
Si Si6 0.151853 0.501408 0.813968
Si Si7 0.024694 0.838202 0.000000
O O1 0.631300 0.651630 0.337624
O O2 0.608226 0.562987 0.500000
O O3 0.539982 0.647887 0.500000
O O4 0.214759 0.298903 0.500000
O O5 0.250000 0.250000 0.750000
O O6 0.147246 0.243878 0.685221
O O7 0.173074 0.342968 0.756437
O O8 0.160382 0.864935 0.500000
O O9 0.191828 0.947645 0.672254
O O10 0.135363 0.561660 0.746948
O O11 0.053341 0.630736 0.773926
O O12 0.127800 0.622018 0.000000
O O13 0.203058 0.035505 0.500000
O O14 0.282012 0.002778 0.686009
O O15 0.194914 0.037397 0.836699
O O16 0.132839 0.498712 0.000000
#
# Coordination Sequence:
#
# PCOD9545847 Si02
#       7
#     8  16  16  16  16  16   8
#     4  10  22  37  58  88 118 149 202 241 290 367
#     4  10  21  37  57  83 115 151 187 239 309 359
#     4   9  18  37  60  80 111 159 193 236 297 353
#     4  10  22  40  60  83 118 158 194 242 300 354
#     4   9  18  37  62  81 112 156 205 245 289 359
#     4  10  21  39  59  84 115 154 201 244 297 356
#     4  10  22  37  58  92 116 156 201 242 305 354
#
# _framework density 19.737995999999999
#
# number of rings (size 3 to 8) (size 9 to 14) (size 15 to 20)
#    0.000    2.333    1.667    0.000    2.333    3.833 
#    0.000    5.000    0.000    0.000    0.000    4.667 
#    0.000    0.000    0.000    0.000    0.000    0.000 
#
# Total GULP energy -267293.866249 kJ/mol
# GULP energy per Si atom -5568.622214 kJ/mol
# Density = 1.969307 g / cm^3
# Si number density = 19.737996 Si / 1000 Ang^3
#
#
#
# Elastic Constant Matrix: (Units=GPa)
#
#
# Indices 1 2 3 4 5 6 
#
# 1 43.9810 54.7714 29.8505 0.0000 0.0000 18.0448
# 2 54.7714 43.9810 29.8505 0.0000 0.0000 -18.0448
# 3 29.8505 29.8505 105.0475 0.0000 0.0000 0.0000
# 4 0.0000 0.0000 0.0000 67.0344 0.0000 0.0000
# 5 0.0000 0.0000 0.0000 0.0000 67.0344 0.0000
# 6 18.0448 -18.0448 0.0000 0.0000 0.0000 -1.6667
#
#
#
# Elastic Compliance Matrix: (Units=1/GPa)
#
#
# Indices 1 2 3 4 5 6 
#
# 1 0.007429 0.004797 -0.003474 0.000000 0.000000 0.028496
# 2 0.004797 0.007429 -0.003474 0.000000 0.000000 -0.028496
# 3 -0.003474 -0.003474 0.011494 0.000000 0.000000 0.000000
# 4 0.000000 0.000000 0.000000 0.014918 0.000000 0.000000
# 5 0.000000 0.000000 0.000000 0.000000 0.014918 0.000000
# 6 0.028496 -0.028496 0.000000 0.000000 0.000000 0.017040
#
#
# Mechanical properties :
#
#
# Convention : Reuss Voigt Hill
#
# Bulk Modulus (GPa) = 45.35125 46.88380 46.11753
# Shear Modulus (GPa) = 58.90589 31.71621 45.31105
#
# Velocity S-wave (km/s) = 5.46888 4.01292 4.79647
# Velocity P-wave (km/s) = 7.93125 6.72874 7.35461
#
# Compressibility (1/GPa) = 0.02205011
#
# Stress axis : x y z
#
# Youngs Moduli (GPa) = 134.59997 134.59997 87.00138
#
# Poissons Ratio (x) = -0.64572 0.30228
# Poissons Ratio (y) = -0.64572 0.30228
# Poissons Ratio (z) = 0.46765 0.46765
#
# Static dielectric constant tensor:
#      x y z
#    x 1.684560 0.000000 0.000000 
#    y 0.000000 1.684560 0.000000 
#    z 0.000000 0.000000 1.758930 
# 
# From -- ./inp_files/1513.got.cif
#   From: 2010.05.17/outbox.cif.g08.bks.cpg/sg87_1_cif.got.tgz:1513.got - 2010.06.03 19:07:00.
