data_PCOD9545097
_publ_section_title
;
Structure prediction by ZEFSAII (Michael W. Deem and Ramdas Pophale) SiO2 
 PCOD9545097
Probable space group: P 42/N
;
_chemical_formula_sum "Si O2"
_cell_formula_units_Z 54
_cell_length_a 14.010350
_cell_length_b 14.010350
_cell_length_c 12.490542
_cell_angle_alpha 90.000000
_cell_angle_beta 90.000000
_cell_angle_gamma 90.000000
_cell_volume 2451.767329
_symmetry_space_group_name_H-M "P 42/N"
_symmetry_group_IT_number 86
_space_group.IT_coordinate_system_code '2'
_symmetry_cell_setting 'tetragonal'
loop_
_space_group_symop_operation_xyz
x,y,z
-y,1/2+x,1/2+z
1/2-x,1/2-y,z
1/2+y,-x,1/2+z
-x,-y,-z
y,1/2-x,1/2-z
1/2+x,1/2+y,-z
1/2-y,x,1/2-z
loop_
_atom_site_type_symbol
_atom_site_label
_atom_site_fract_x
_atom_site_fract_y
_atom_site_fract_z
Si Si1 0.581017 0.998101 0.588848
Si Si2 0.419376 0.778307 0.421832
Si Si3 0.750000 0.250000 0.947156
Si Si4 0.520400 0.472227 0.332219
Si Si5 0.740062 0.427539 0.323305
Si Si6 0.708187 0.879612 0.439134
Si Si7 0.854777 0.573440 0.018025
Si Si8 0.250000 0.250000 0.750000
O O1 0.613113 0.110490 0.582939
O O2 0.538584 0.986905 0.709056
O O3 0.500000 0.000000 0.500000
O O4 0.650029 0.913417 0.545463
O O5 0.336184 0.719153 0.478070
O O6 0.431588 0.746025 0.301437
O O7 0.517318 0.745782 0.478771
O O8 0.666101 0.285777 0.872412
O O9 0.625775 0.425852 0.339148
O O10 0.452729 0.413640 0.411790
O O11 0.537300 0.577272 0.383622
O O12 0.779613 0.518365 0.382746
O O13 0.813153 0.843956 0.474153
O O14 0.685722 0.813608 0.332442
#
# Coordination Sequence:
#
# PCOD9545097 Si02
#       8
#     8   8   4   8   8   8   8   2
#     4  11  26  44  63 102 136 177 227 299 354 407
#     4  11  23  38  66  94 135 175 228 280 343 418
#     4  12  20  38  58 102 134 170 216 280 354 414
#     4   9  21  41  66  93 135 176 227 275 353 429
#     4  10  21  38  60  95 133 172 219 283 340 414
#     4  11  25  44  67  97 133 178 241 292 350 416
#     4  10  21  42  69  97 131 189 232 279 350 436
#     4  12  28  44  76  98 136 192 256 300 346 444
#
# _framework density 22.024926000000001
#
# number of rings (size 3 to 8) (size 9 to 14) (size 15 to 20)
#    0.000    1.481    2.963    1.333   10.370    0.000 
#    2.667    0.000    0.000    0.000    0.000    0.000 
#    0.000    0.000    0.000    0.000    0.000    0.000 
#
# Total GULP energy -301083.393812 kJ/mol
# GULP energy per Si atom -5575.618404 kJ/mol
# Density = 2.197480 g / cm^3
# Si number density = 22.024926 Si / 1000 Ang^3
#
#
#
# Elastic Constant Matrix: (Units=GPa)
#
#
# Indices 1 2 3 4 5 6 
#
# 1 59.6625 15.1936 33.0329 0.0000 0.0000 -5.6128
# 2 15.1936 59.6625 33.0329 0.0000 0.0000 5.6128
# 3 33.0329 33.0329 140.1951 0.0000 0.0000 0.0000
# 4 0.0000 0.0000 0.0000 30.4813 0.0000 0.0000
# 5 0.0000 0.0000 0.0000 0.0000 30.4813 0.0000
# 6 -5.6128 5.6128 0.0000 0.0000 0.0000 38.1865
#
#
#
# Elastic Compliance Matrix: (Units=1/GPa)
#
#
# Indices 1 2 3 4 5 6 
#
# 1 0.020110 -0.003244 -0.003974 0.000000 0.000000 0.003433
# 2 -0.003244 0.020110 -0.003974 0.000000 0.000000 -0.003433
# 3 -0.003974 -0.003974 0.009006 0.000000 0.000000 0.000000
# 4 0.000000 0.000000 0.000000 0.032807 0.000000 0.000000
# 5 0.000000 0.000000 0.000000 0.000000 0.032807 0.000000
# 6 0.003433 -0.003433 0.000000 0.000000 0.000000 0.027196
#
#
# Mechanical properties :
#
#
# Convention : Reuss Voigt Hill
#
# Bulk Modulus (GPa) = 37.25490 46.89321 42.07406
# Shear Modulus (GPa) = 28.84040 31.71389 30.27714
#
# Velocity S-wave (km/s) = 3.62255 3.79873 3.71169
# Velocity P-wave (km/s) = 5.86931 6.37006 6.12480
#
# Compressibility (1/GPa) = 0.02684210
#
# Stress axis : x y z
#
# Youngs Moduli (GPa) = 49.72587 49.72587 111.04123
#
# Poissons Ratio (x) = 0.16131 0.44128
# Poissons Ratio (y) = 0.16131 0.44128
# Poissons Ratio (z) = 0.19761 0.19761
#
# Static dielectric constant tensor:
#      x y z
#    x 1.966760 0.000000 0.000000 
#    y 0.000000 1.966760 0.000000 
#    z 0.000000 0.000000 1.770800 
# 
# From -- ./inp_files/2409.got.cif
#   From: 2010.05.17/outbox.cif.g08.bks.cpg/sg86_2_cif.got.tgz:2409.got - 2010.06.03 19:03:11.
