data_PCOD9545068
_publ_section_title
;
Structure prediction by ZEFSAII (Michael W. Deem and Ramdas Pophale) SiO2 
 PCOD9545068
Probable space group: P 42/N
;
_chemical_formula_sum "Si O2"
_cell_formula_units_Z 48
_cell_length_a 8.552671
_cell_length_b 8.552671
_cell_length_c 31.362336
_cell_angle_alpha 90.000000
_cell_angle_beta 90.000000
_cell_angle_gamma 90.000000
_cell_volume 2294.097838
_symmetry_space_group_name_H-M "P 42/N"
_symmetry_group_IT_number 86
_space_group.IT_coordinate_system_code '2'
_symmetry_cell_setting 'tetragonal'
loop_
_space_group_symop_operation_xyz
x,y,z
-y,1/2+x,1/2+z
1/2-x,1/2-y,z
1/2+y,-x,1/2+z
-x,-y,-z
y,1/2-x,1/2-z
1/2+x,1/2+y,-z
1/2-y,x,1/2-z
loop_
_atom_site_type_symbol
_atom_site_label
_atom_site_fract_x
_atom_site_fract_y
_atom_site_fract_z
Si Si1 0.537041 0.402436 0.341250
Si Si2 0.908601 0.455454 0.333517
Si Si3 0.594967 0.641098 0.079732
Si Si4 0.048670 0.418474 0.246435
Si Si5 0.755154 0.436096 0.013559
Si Si6 0.561945 0.045487 0.936177
O O1 0.721875 0.433096 0.335754
O O2 0.514188 0.215287 0.339185
O O3 0.460431 0.492546 0.301991
O O4 0.483038 0.445677 0.388356
O O5 0.942541 0.560004 0.375176
O O6 0.958353 0.500332 0.285505
O O7 0.750000 0.750000 0.084842
O O8 0.622706 0.524897 0.040356
O O9 0.459698 0.766490 0.068796
O O10 0.231340 0.463938 0.250229
O O11 0.750000 0.250000 0.014878
O O12 0.912806 0.483746 0.038599
O O13 0.786774 0.489847 0.964883
#
# Coordination Sequence:
#
# PCOD9545068 Si02
#       6
#     8   8   8   8   8   8
#     4   9  18  35  57  78 107 144 182 218 271 337
#     4   9  18  34  56  81 103 147 182 213 275 336
#     4   9  19  37  56  77 114 146 180 233 278 330
#     4   9  18  34  56  80 112 138 177 233 279 323
#     4  10  21  35  56  81 108 147 184 233 279 322
#     4   9  20  38  55  78 113 147 184 229 276 334
#
# _framework density 20.923259000000002
#
# number of rings (size 3 to 8) (size 9 to 14) (size 15 to 20)
#    0.000    2.833    0.000    0.000    4.667    2.000 
#    9.000    0.000   18.333    0.000    0.000    0.000 
#    0.000    0.000    0.000    0.000    0.000    0.000 
#
# Total GULP energy -267531.693171 kJ/mol
# GULP energy per Si atom -5573.576941 kJ/mol
# Density = 2.087564 g / cm^3
# Si number density = 20.923259 Si / 1000 Ang^3
#
#
#
# Elastic Constant Matrix: (Units=GPa)
#
#
# Indices 1 2 3 4 5 6 
#
# 1 19.6545 4.7649 37.4904 0.0000 0.0000 -4.0944
# 2 4.7649 19.6545 37.4904 0.0000 0.0000 4.0944
# 3 37.4904 37.4904 221.3238 0.0000 0.0000 0.0000
# 4 0.0000 0.0000 0.0000 23.8285 0.0000 0.0000
# 5 0.0000 0.0000 0.0000 0.0000 23.8285 0.0000
# 6 -4.0944 4.0944 0.0000 0.0000 0.0000 18.4765
#
#
#
# Elastic Compliance Matrix: (Units=1/GPa)
#
#
# Indices 1 2 3 4 5 6 
#
# 1 0.080910 0.004428 -0.014455 0.000000 0.000000 0.016948
# 2 0.004428 0.080910 -0.014455 0.000000 0.000000 -0.016948
# 3 -0.014455 -0.014455 0.009416 0.000000 0.000000 0.000000
# 4 0.000000 0.000000 0.000000 0.041967 0.000000 0.000000
# 5 0.000000 0.000000 0.000000 0.000000 0.041967 0.000000
# 6 0.016948 -0.016948 0.000000 0.000000 0.000000 0.061634
#
#
# Mechanical properties :
#
#
# Convention : Reuss Voigt Hill
#
# Bulk Modulus (GPa) = 8.17873 46.68046 27.42959
# Shear Modulus (GPa) = 12.29939 25.28585 18.79262
#
# Velocity S-wave (km/s) = 2.42716 3.48013 3.00020
# Velocity P-wave (km/s) = 3.43106 6.20541 5.01395
#
# Compressibility (1/GPa) = 0.12226842
#
# Stress axis : x y z
#
# Youngs Moduli (GPa) = 12.35948 12.35948 106.20753
#
# Poissons Ratio (x) = -0.05472 1.53528
# Poissons Ratio (y) = -0.05472 1.53528
# Poissons Ratio (z) = 0.17866 0.17866
#
# Static dielectric constant tensor:
#      x y z
#    x 1.771120 0.000000 0.000000 
#    y 0.000000 1.771120 0.000000 
#    z 0.000000 0.000000 1.829140 
# 
# From -- ./inp_files/5206.got.cif
#   From: 2010.05.17/outbox.cif.g08.bks.cpg/sg86_3_cif.got.tgz:5206.got - 2010.06.03 19:03:11.
