data_PCOD9545450
_publ_section_title
;
Structure prediction by ZEFSAII (Michael W. Deem and Ramdas Pophale) SiO2 
 PCOD9545450
Probable space group: P 42/N
;
_chemical_formula_sum "Si O2"
_cell_formula_units_Z 34
_cell_length_a 11.073969
_cell_length_b 11.073969
_cell_length_c 9.752601
_cell_angle_alpha 90.000000
_cell_angle_beta 90.000000
_cell_angle_gamma 90.000000
_cell_volume 1195.988665
_symmetry_space_group_name_H-M "P 42/N"
_symmetry_group_IT_number 86
_space_group.IT_coordinate_system_code '2'
_symmetry_cell_setting 'tetragonal'
loop_
_space_group_symop_operation_xyz
x,y,z
-y,1/2+x,1/2+z
1/2-x,1/2-y,z
1/2+y,-x,1/2+z
-x,-y,-z
y,1/2-x,1/2-z
1/2+x,1/2+y,-z
1/2-y,x,1/2-z
loop_
_atom_site_type_symbol
_atom_site_label
_atom_site_fract_x
_atom_site_fract_y
_atom_site_fract_z
Si Si1 0.330388 0.649241 0.606970
Si Si2 0.750000 0.750000 0.750000
Si Si3 0.469329 0.446860 0.778235
Si Si4 0.451096 0.251929 0.557029
Si Si5 0.459379 0.193754 0.113531
O O1 0.250000 0.750000 0.678228
O O2 0.402210 0.561049 0.706800
O O3 0.421640 0.725945 0.514007
O O4 0.268928 0.558581 0.497467
O O5 0.707122 0.877046 0.685085
O O6 0.444677 0.318848 0.703574
O O7 0.390707 0.433686 0.917879
O O8 0.606098 0.473751 0.723433
O O9 0.368444 0.345545 0.468849
#
# Coordination Sequence:
#
# PCOD9545450 Si02
#       5
#     8   2   8   8   8
#     4   9  19  37  61  91 124 158 206 265 313 375
#     4  12  24  40  60  82 136 176 200 268 308 370
#     4   9  19  38  60  91 118 158 208 257 321 368
#     4   9  19  37  60  86 127 157 207 266 304 379
#     4   9  22  40  57  89 130 166 205 265 316 363
#
# _framework density 28.428363000000001
#
# number of rings (size 3 to 8) (size 9 to 14) (size 15 to 20)
#    0.000    2.824    0.000    2.824    3.294    5.176 
#   12.706    1.176    0.000    0.000    0.000    0.000 
#    0.000    0.000    0.000    0.000    0.000    0.000 
#
# Total GULP energy -189652.638204 kJ/mol
# GULP energy per Si atom -5578.018771 kJ/mol
# Density = 2.836366 g / cm^3
# Si number density = 28.428363 Si / 1000 Ang^3
#
#
#
# Elastic Constant Matrix: (Units=GPa)
#
#
# Indices 1 2 3 4 5 6 
#
# 1 85.3685 74.1730 32.3748 0.0000 0.0000 14.5442
# 2 74.1730 85.3685 32.3748 0.0000 0.0000 -14.5442
# 3 32.3748 32.3748 79.5461 0.0000 0.0000 0.0000
# 4 0.0000 0.0000 0.0000 44.9318 0.0000 0.0000
# 5 0.0000 0.0000 0.0000 0.0000 44.9318 0.0000
# 6 14.5442 -14.5442 0.0000 0.0000 0.0000 52.0129
#
#
#
# Elastic Compliance Matrix: (Units=1/GPa)
#
#
# Indices 1 2 3 4 5 6 
#
# 1 0.167065 -0.159557 -0.003056 0.000000 0.000000 -0.091333
# 2 -0.159557 0.167065 -0.003056 0.000000 0.000000 0.091333
# 3 -0.003056 -0.003056 0.015059 0.000000 0.000000 0.000000
# 4 0.000000 0.000000 0.000000 0.022256 0.000000 0.000000
# 5 0.000000 0.000000 0.000000 0.000000 0.022256 0.000000
# 6 -0.091333 0.091333 0.000000 0.000000 0.000000 0.070304
#
#
# Mechanical properties :
#
#
# Convention : Reuss Voigt Hill
#
# Bulk Modulus (GPa) = 56.01647 58.68091 57.34869
# Shear Modulus (GPa) = 6.23991 35.79933 21.01962
#
# Velocity S-wave (km/s) = 1.48315 3.55249 2.72212
# Velocity P-wave (km/s) = 4.76237 6.12482 5.48605
#
# Compressibility (1/GPa) = 0.01785189
#
# Stress axis : x y z
#
# Youngs Moduli (GPa) = 5.98568 5.98568 66.40690
#
# Poissons Ratio (x) = 0.95506 0.20292
# Poissons Ratio (y) = 0.95506 0.20292
# Poissons Ratio (z) = 0.01829 0.01829
#
# Static dielectric constant tensor:
#      x y z
#    x 2.199450 0.000000 0.000000 
#    y 0.000000 2.199450 0.000000 
#    z 0.000000 0.000000 3.203830 
# 
# From -- ./inp_files/1962.got.cif
#   From: 2010.05.17/outbox.cif.g08.bks.cpg/sg86_1_cif.got.tgz:1962.got - 2010.06.03 19:03:11.
