data_PCOD9545651
_publ_section_title
;
Structure prediction by ZEFSAII (Michael W. Deem and Ramdas Pophale) SiO2 
 PCOD9545651
Probable space group: I 4/M
;
_chemical_formula_sum "Si O2"
_cell_formula_units_Z 96
_cell_length_a 16.058013
_cell_length_b 16.058013
_cell_length_c 14.615540
_cell_angle_alpha 90.000000
_cell_angle_beta 90.000000
_cell_angle_gamma 90.000000
_cell_volume 3768.759951
_symmetry_space_group_name_H-M "I 4/M"
_symmetry_group_IT_number 87
_symmetry_cell_setting 'tetragonal'
loop_
_space_group_symop_operation_xyz
x,y,z
-y,x,z
-x,-y,z
y,-x,z
-x,-y,-z
y,-x,-z
x,y,-z
-y,x,-z
1/2+x,1/2+y,1/2+z
1/2-y,1/2+x,1/2+z
1/2-x,1/2-y,1/2+z
1/2+y,1/2-x,1/2+z
1/2-x,1/2-y,1/2-z
1/2+y,1/2-x,1/2-z
1/2+x,1/2+y,1/2-z
1/2-y,1/2+x,1/2-z
loop_
_atom_site_type_symbol
_atom_site_label
_atom_site_fract_x
_atom_site_fract_y
_atom_site_fract_z
Si Si1 0.602135 0.704224 0.749365
Si Si2 0.209125 0.014198 0.104544
Si Si3 0.011136 0.606756 0.811210
Si Si4 0.708665 0.277916 0.400477
Si Si5 0.610334 0.586857 0.100178
Si Si6 0.920425 0.675313 0.599471
O O1 0.537031 0.659878 0.680921
O O2 0.671789 0.746374 0.684177
O O3 0.646981 0.637550 0.815706
O O4 0.552195 0.769054 0.815050
O O5 0.302669 0.000834 0.144339
O O6 0.193772 0.111976 0.102208
O O7 0.200741 0.984150 0.000000
O O8 0.067333 0.577321 0.721441
O O9 0.076664 0.570605 0.886837
O O10 0.745605 0.298142 0.500000
O O11 0.697954 0.178422 0.396344
O O12 0.512318 0.611035 0.104484
O O13 0.642577 0.612508 0.000000
O O14 0.953204 0.700049 0.500000
#
# Coordination Sequence:
#
# PCOD9545651 Si02
#       6
#    16  16  16  16  16  16
#     4  12  19  33  58  84 107 142 191 228 264 327
#     4  10  21  37  57  82 115 147 183 229 282 332
#     4  10  19  37  60  79 103 142 188 225 272 331
#     4   9  20  36  54  77 109 148 181 221 279 331
#     4   9  19  35  54  79 111 145 180 222 275 326
#     4  10  21  37  56  80 112 145 178 224 286 335
#
# _framework density 25.472567000000002
#
# number of rings (size 3 to 8) (size 9 to 14) (size 15 to 20)
#    0.000    2.000    1.667    4.500    0.000    0.000 
#    0.000    6.667    0.000    0.000    0.000    7.000 
#    0.000    0.000    0.000    0.000    0.000    0.000 
#
# Total GULP energy -267336.128831 kJ/mol
# GULP energy per Si atom -5569.502684 kJ/mol
# Density = 2.541459 g / cm^3
# Si number density = 25.472567 Si / 1000 Ang^3
#
#
#
# Elastic Constant Matrix: (Units=GPa)
#
#
# Indices 1 2 3 4 5 6 
#
# 1 62.7263 -19.9740 13.0842 0.0000 0.0000 -3.4087
# 2 -19.9740 62.7263 13.0842 0.0000 0.0000 3.4087
# 3 13.0842 13.0842 202.3789 0.0000 0.0000 0.0000
# 4 0.0000 0.0000 0.0000 27.3548 0.0000 0.0000
# 5 0.0000 0.0000 0.0000 0.0000 27.3548 0.0000
# 6 -3.4087 3.4087 0.0000 0.0000 0.0000 24.4397
#
#
#
# Elastic Compliance Matrix: (Units=1/GPa)
#
#
# Indices 1 2 3 4 5 6 
#
# 1 0.018293 0.006061 -0.001575 0.000000 0.000000 0.001706
# 2 0.006061 0.018293 -0.001575 0.000000 0.000000 -0.001706
# 3 -0.001575 -0.001575 0.005145 0.000000 0.000000 0.000000
# 4 0.000000 0.000000 0.000000 0.036557 0.000000 0.000000
# 5 0.000000 0.000000 0.000000 0.000000 0.036557 0.000000
# 6 0.001706 -0.001706 0.000000 0.000000 0.000000 0.041393
#
#
# Mechanical properties :
#
#
# Convention : Reuss Voigt Hill
#
# Bulk Modulus (GPa) = 21.02815 37.80222 29.41519
# Shear Modulus (GPa) = 30.07226 37.27232 33.67229
#
# Velocity S-wave (km/s) = 3.43968 3.82937 3.63974
# Velocity P-wave (km/s) = 4.90391 5.86726 5.40708
#
# Compressibility (1/GPa) = 0.04755530
#
# Stress axis : x y z
#
# Youngs Moduli (GPa) = 54.66445 54.66445 194.37015
#
# Poissons Ratio (x) = -0.33132 0.30605
# Poissons Ratio (y) = -0.33132 0.30605
# Poissons Ratio (z) = 0.08607 0.08607
#
# Static dielectric constant tensor:
#      x y z
#    x 2.110400 0.000000 0.000000 
#    y 0.000000 2.110400 0.000000 
#    z 0.000000 0.000000 2.095680 
# 
# From -- ./inp_files/2718.got.cif
#   From: 2010.05.17/outbox.cif.g08.bks.cpg/sg87_2_cif.got.tgz:2718.got - 2010.06.03 19:07:00.
