data_PCOD9545675
_publ_section_title
;
Structure prediction by ZEFSAII (Michael W. Deem and Ramdas Pophale) SiO2 
 PCOD9545675
Probable space group: I 4/M
;
_chemical_formula_sum "Si O2"
_cell_formula_units_Z 72
_cell_length_a 20.294624
_cell_length_b 20.294624
_cell_length_c 10.171738
_cell_angle_alpha 90.000000
_cell_angle_beta 90.000000
_cell_angle_gamma 90.000000
_cell_volume 4189.451666
_symmetry_space_group_name_H-M "I 4/M"
_symmetry_group_IT_number 87
_symmetry_cell_setting 'tetragonal'
loop_
_space_group_symop_operation_xyz
x,y,z
-y,x,z
-x,-y,z
y,-x,z
-x,-y,-z
y,-x,-z
x,y,-z
-y,x,-z
1/2+x,1/2+y,1/2+z
1/2-y,1/2+x,1/2+z
1/2-x,1/2-y,1/2+z
1/2+y,1/2-x,1/2+z
1/2-x,1/2-y,1/2-z
1/2+y,1/2-x,1/2-z
1/2+x,1/2+y,1/2-z
1/2-y,1/2+x,1/2-z
loop_
_atom_site_type_symbol
_atom_site_label
_atom_site_fract_x
_atom_site_fract_y
_atom_site_fract_z
Si Si1 0.720545 0.459448 0.717488
Si Si2 0.134172 0.357601 0.500000
Si Si3 0.507048 0.829532 0.500000
Si Si4 0.873300 0.350164 0.500000
Si Si5 0.679495 0.783342 0.253001
Si Si6 0.732756 0.005172 0.500000
Si Si7 0.609892 0.482183 0.500000
O O1 0.782039 0.485015 0.627854
O O2 0.731517 0.380903 0.736740
O O3 0.656542 0.474208 0.628784
O O4 0.725624 0.489060 0.864506
O O5 0.135432 0.436500 0.500000
O O6 0.170482 0.328851 0.626444
O O7 0.063835 0.321249 0.500000
O O8 0.570251 0.877654 0.500000
O O9 0.830563 0.329208 0.375956
O O10 0.939914 0.310261 0.500000
O O11 0.750000 0.750000 0.250000
O O12 0.573259 0.552765 0.500000
#
# Coordination Sequence:
#
# PCOD9545675 Si02
#       7
#    16   8   8   8  16   8   8
#     4   9  20  36  54  79 111 139 176 226 269 314
#     4  10  20  33  52  74 107 143 176 218 262 315
#     4   9  18  34  52  76 106 147 188 217 252 307
#     4  10  20  33  52  76 107 139 177 219 258 319
#     4  10  20  34  52  78 106 136 177 221 266 316
#     4  10  20  35  52  81 114 141 171 215 272 319
#     4  10  22  41  62  81 102 137 184 225 266 326
#
# _framework density 17.186019000000002
#
# number of rings (size 3 to 8) (size 9 to 14) (size 15 to 20)
#    0.000    2.333    0.000    2.667    0.000    5.778 
#    0.000    1.111    0.000    9.333    0.000    0.000 
#    0.000    0.000    0.000    0.000    0.000    0.000 
#
# Total GULP energy -200735.994195 kJ/mol
# GULP energy per Si atom -5575.999839 kJ/mol
# Density = 1.714690 g / cm^3
# Si number density = 17.186019 Si / 1000 Ang^3
#
#
#
# Elastic Constant Matrix: (Units=GPa)
#
#
# Indices 1 2 3 4 5 6 
#
# 1 117.7196 60.3285 60.6299 0.0000 0.0000 -14.8257
# 2 60.3285 117.7196 60.6299 0.0000 0.0000 14.8257
# 3 60.6299 60.6299 176.4601 0.0000 0.0000 0.0000
# 4 0.0000 0.0000 0.0000 17.3250 0.0000 0.0000
# 5 0.0000 0.0000 0.0000 0.0000 17.3250 0.0000
# 6 -14.8257 14.8257 0.0000 0.0000 0.0000 17.0980
#
#
#
# Elastic Compliance Matrix: (Units=1/GPa)
#
#
# Indices 1 2 3 4 5 6 
#
# 1 0.019449 -0.012117 -0.002519 0.000000 0.000000 0.027370
# 2 -0.012117 0.019449 -0.002519 0.000000 0.000000 -0.027370
# 3 -0.002519 -0.002519 0.007398 0.000000 0.000000 0.000000
# 4 0.000000 0.000000 0.000000 0.057720 0.000000 0.000000
# 5 0.000000 0.000000 0.000000 0.000000 0.057720 0.000000
# 6 0.027370 -0.027370 0.000000 0.000000 0.000000 0.105952
#
#
# Mechanical properties :
#
#
# Convention : Reuss Voigt Hill
#
# Bulk Modulus (GPa) = 83.43395 86.11953 84.77674
# Shear Modulus (GPa) = 16.34023 25.70369 21.02196
#
# Velocity S-wave (km/s) = 3.08683 3.87152 3.50122
# Velocity P-wave (km/s) = 7.83311 8.37877 8.11053
#
# Compressibility (1/GPa) = 0.01198553
#
# Stress axis : x y z
#
# Youngs Moduli (GPa) = 51.41713 51.41713 135.16807
#
# Poissons Ratio (x) = 0.62300 0.34053
# Poissons Ratio (y) = 0.62300 0.34053
# Poissons Ratio (z) = 0.12953 0.12953
#
# Static dielectric constant tensor:
#      x y z
#    x 1.567820 0.000000 0.000000 
#    y 0.000000 1.567820 0.000000 
#    z 0.000000 0.000000 1.581720 
# 
# From -- ./inp_files/1146.got.cif
#   From: 2010.05.17/outbox.cif.g08.bks.cpg/sg87_1_cif.got.tgz:1146.got - 2010.06.03 19:07:00.
