data_PCOD9545684
_publ_section_title
;
Structure prediction by ZEFSAII (Michael W. Deem and Ramdas Pophale) SiO2 
 PCOD9545684
Probable space group: I 4/M
;
_chemical_formula_sum "Si O2"
_cell_formula_units_Z 96
_cell_length_a 13.884469
_cell_length_b 13.884469
_cell_length_c 19.983717
_cell_angle_alpha 90.000000
_cell_angle_beta 90.000000
_cell_angle_gamma 90.000000
_cell_volume 3852.430576
_symmetry_space_group_name_H-M "I 4/M"
_symmetry_group_IT_number 87
_symmetry_cell_setting 'tetragonal'
loop_
_space_group_symop_operation_xyz
x,y,z
-y,x,z
-x,-y,z
y,-x,z
-x,-y,-z
y,-x,-z
x,y,-z
-y,x,-z
1/2+x,1/2+y,1/2+z
1/2-y,1/2+x,1/2+z
1/2-x,1/2-y,1/2+z
1/2+y,1/2-x,1/2+z
1/2-x,1/2-y,1/2-z
1/2+y,1/2-x,1/2-z
1/2+x,1/2+y,1/2-z
1/2-y,1/2+x,1/2-z
loop_
_atom_site_type_symbol
_atom_site_label
_atom_site_fract_x
_atom_site_fract_y
_atom_site_fract_z
Si Si1 0.359008 0.419633 0.309246
Si Si2 0.287385 0.817623 0.921244
Si Si3 0.077671 0.870262 0.420767
Si Si4 0.453759 0.106400 0.171277
Si Si5 0.708559 0.952099 0.923005
Si Si6 0.358789 0.804024 0.789738
O O1 0.464525 0.374695 0.304976
O O2 0.301060 0.416937 0.380721
O O3 0.293770 0.381798 0.248512
O O4 0.356045 0.723456 0.918746
O O5 0.309220 0.932953 0.918216
O O6 0.267902 0.808219 0.839201
O O7 0.250400 0.811813 0.000000
O O8 0.064734 0.881103 0.500000
O O9 0.967702 0.871297 0.393484
O O10 0.545602 0.172783 0.167515
O O11 0.388276 0.139206 0.233817
O O12 0.500000 0.000000 0.178765
O O13 0.383192 0.101350 0.108387
O O14 0.719746 0.930447 0.000000
#
# Coordination Sequence:
#
# PCOD9545684 Si02
#       6
#    16  16  16  16  16  16
#     4  10  24  46  69  91 118 164 223 274 327 385
#     4  10  20  33  54  88 130 169 208 257 316 378
#     4   8  15  30  50  72 108 162 213 253 305 373
#     4  11  18  35  64  88 125 168 207 247 313 386
#     4  10  22  39  64  98 131 165 209 262 320 388
#     4  11  19  35  60  89 120 163 210 264 307 371
#
# _framework density 24.919335
#
# number of rings (size 3 to 8) (size 9 to 14) (size 15 to 20)
#    0.000    2.000    3.333    1.500    0.000    3.000 
#    0.000   13.333    0.000    2.000    0.000    0.000 
#    0.000    0.000    0.000    0.000    0.000    0.000 
#
# Total GULP energy -267391.257869 kJ/mol
# GULP energy per Si atom -5570.651206 kJ/mol
# Density = 2.486262 g / cm^3
# Si number density = 24.919335 Si / 1000 Ang^3
#
#
#
# Elastic Constant Matrix: (Units=GPa)
#
#
# Indices 1 2 3 4 5 6 
#
# 1 76.9651 34.3169 54.2781 0.0000 0.0000 19.2815
# 2 34.3169 76.9651 54.2781 0.0000 0.0000 -19.2815
# 3 54.2781 54.2781 159.7788 0.0000 0.0000 0.0000
# 4 0.0000 0.0000 0.0000 -2.2860 0.0000 0.0000
# 5 0.0000 0.0000 0.0000 0.0000 -2.2860 0.0000
# 6 19.2815 -19.2815 0.0000 0.0000 0.0000 22.1991
#
#
#
# Elastic Compliance Matrix: (Units=1/GPa)
#
#
# Indices 1 2 3 4 5 6 
#
# 1 0.061344 -0.047904 -0.004566 0.000000 0.000000 -0.094890
# 2 -0.047904 0.061344 -0.004566 0.000000 0.000000 0.094890
# 3 -0.004566 -0.004566 0.009361 0.000000 0.000000 0.000000
# 4 0.000000 0.000000 0.000000 -0.437445 0.000000 0.000000
# 5 0.000000 0.000000 0.000000 0.000000 -0.437445 0.000000
# 6 -0.094890 0.094890 0.000000 0.000000 0.000000 0.209884
#
#
# Mechanical properties :
#
#
# Convention : Reuss Voigt Hill
#
# Bulk Modulus (GPa) = 55.62359 66.60611 61.11485
# Shear Modulus (GPa) = -12.10964 14.91447 1.40242
#
# Velocity S-wave (km/s) = -2.20683 2.44910 0.75100
# Velocity P-wave (km/s) = 3.98453 5.89781 5.03292
#
# Compressibility (1/GPa) = 0.01797798
#
# Stress axis : x y z
#
# Youngs Moduli (GPa) = 16.30152 16.30152 106.83029
#
# Poissons Ratio (x) = 0.78091 0.48775
# Poissons Ratio (y) = 0.78091 0.48775
# Poissons Ratio (z) = 0.07443 0.07443
#
# Static dielectric constant tensor:
#      x y z
#    x 2.125110 0.000000 0.000000 
#    y 0.000000 2.125110 0.000000 
#    z 0.000000 0.000000 2.040880 
# 
# From -- ./inp_files/5312.got.cif
#   From: 2010.05.17/outbox.cif.g08.bks.cpg/sg87_3_cif.got.tgz:5312.got - 2010.06.03 19:07:00.
