data_PCOD9545289
_publ_section_title
;
Structure prediction by ZEFSAII (Michael W. Deem and Ramdas Pophale) SiO2 
 PCOD9545289
Probable space group: P 42/N
;
_chemical_formula_sum "Si O2"
_cell_formula_units_Z 40
_cell_length_a 17.565248
_cell_length_b 17.565248
_cell_length_c 4.944903
_cell_angle_alpha 90.000000
_cell_angle_beta 90.000000
_cell_angle_gamma 90.000000
_cell_volume 1525.690172
_symmetry_space_group_name_H-M "P 42/N"
_symmetry_group_IT_number 86
_space_group.IT_coordinate_system_code '2'
_symmetry_cell_setting 'tetragonal'
loop_
_space_group_symop_operation_xyz
x,y,z
-y,1/2+x,1/2+z
1/2-x,1/2-y,z
1/2+y,-x,1/2+z
-x,-y,-z
y,1/2-x,1/2-z
1/2+x,1/2+y,-z
1/2-y,x,1/2-z
loop_
_atom_site_type_symbol
_atom_site_label
_atom_site_fract_x
_atom_site_fract_y
_atom_site_fract_z
Si Si1 0.372043 0.884648 0.534839
Si Si2 0.800019 0.070741 0.423774
Si Si3 0.094030 0.472193 0.201681
Si Si4 0.072236 0.383696 0.698195
Si Si5 0.202983 0.357920 0.347885
O O1 0.289734 0.922146 0.549631
O O2 0.372320 0.815924 0.324852
O O3 0.403337 0.850887 0.817378
O O4 0.415204 0.948182 0.347499
O O5 0.823809 0.986068 0.321764
O O6 0.072437 0.457550 0.893887
O O7 0.052453 0.410684 0.394387
O O8 0.180566 0.439411 0.222648
O O9 0.159362 0.357234 0.636005
O O10 0.290720 0.338721 0.320856
#
# Coordination Sequence:
#
# PCOD9545289 Si02
#       5
#     8   8   8   8   8
#     4  12  28  48  78 111 150 201 258 326 399 472
#     4  12  28  49  78 111 150 200 257 327 401 467
#     4  10  24  43  73 105 150 190 250 302 378 457
#     4  10  24  44  73 105 151 190 251 306 376 461
#     4   9  22  42  68 108 150 202 255 310 370 453
#
# _framework density 26.217644
#
# number of rings (size 3 to 8) (size 9 to 14) (size 15 to 20)
#    1.200    0.200    0.000    3.600    2.800   12.000 
#    0.000    2.000    0.000    0.000    0.000    0.000 
#    0.000    0.000    0.000    0.000    0.000    0.000 
#
# Total GULP energy -223365.017015 kJ/mol
# GULP energy per Si atom -5584.125425 kJ/mol
# Density = 2.615797 g / cm^3
# Si number density = 26.217644 Si / 1000 Ang^3
#
#
#
# Elastic Constant Matrix: (Units=GPa)
#
#
# Indices 1 2 3 4 5 6 
#
# 1 81.2422 16.3150 36.8420 0.0000 0.0000 -9.1844
# 2 16.3150 81.2422 36.8420 0.0000 0.0000 9.1844
# 3 36.8420 36.8420 192.2833 0.0000 0.0000 0.0000
# 4 0.0000 0.0000 0.0000 32.3330 0.0000 0.0000
# 5 0.0000 0.0000 0.0000 0.0000 32.3330 0.0000
# 6 -9.1844 9.1844 0.0000 0.0000 0.0000 34.6685
#
#
#
# Elastic Compliance Matrix: (Units=1/GPa)
#
#
# Indices 1 2 3 4 5 6 
#
# 1 0.014317 -0.002332 -0.002296 0.000000 0.000000 0.004411
# 2 -0.002332 0.014317 -0.002296 0.000000 0.000000 -0.004411
# 3 -0.002296 -0.002296 0.006081 0.000000 0.000000 0.000000
# 4 0.000000 0.000000 0.000000 0.030928 0.000000 0.000000
# 5 0.000000 0.000000 0.000000 0.000000 0.030928 0.000000
# 6 0.004411 -0.004411 0.000000 0.000000 0.000000 0.031182
#
#
# Mechanical properties :
#
#
# Convention : Reuss Voigt Hill
#
# Bulk Modulus (GPa) = 47.92732 59.41840 53.67286
# Shear Modulus (GPa) = 33.65680 37.51815 35.58747
#
# Velocity S-wave (km/s) = 3.58683 3.78700 3.68827
# Velocity P-wave (km/s) = 5.95601 6.46796 6.21725
#
# Compressibility (1/GPa) = 0.02086493
#
# Stress axis : x y z
#
# Youngs Moduli (GPa) = 69.84569 69.84569 164.45689
#
# Poissons Ratio (x) = 0.16291 0.37765
# Poissons Ratio (y) = 0.16291 0.37765
# Poissons Ratio (z) = 0.16039 0.16039
#
# Static dielectric constant tensor:
#      x y z
#    x 2.132910 0.000000 0.000000 
#    y 0.000000 2.132910 0.000000 
#    z 0.000000 0.000000 2.021780 
# 
# From -- ./inp_files/371.got.cif
#   From: 2010.05.17/outbox.cif.g08.bks.cpg/sg86_1_cif.got.tgz:371.got - 2010.06.03 19:03:11.
