data_PCOD9545811
_publ_section_title
;
Structure prediction by ZEFSAII (Michael W. Deem and Ramdas Pophale) SiO2 
 PCOD9545811
Probable space group: I 4/M
;
_chemical_formula_sum "Si O2"
_cell_formula_units_Z 112
_cell_length_a 30.732318
_cell_length_b 30.732318
_cell_length_c 9.668175
_cell_angle_alpha 90.000000
_cell_angle_beta 90.000000
_cell_angle_gamma 90.000000
_cell_volume 9131.353157
_symmetry_space_group_name_H-M "I 4/M"
_symmetry_group_IT_number 87
_symmetry_cell_setting 'tetragonal'
loop_
_space_group_symop_operation_xyz
x,y,z
-y,x,z
-x,-y,z
y,-x,z
-x,-y,-z
y,-x,-z
x,y,-z
-y,x,-z
1/2+x,1/2+y,1/2+z
1/2-y,1/2+x,1/2+z
1/2-x,1/2-y,1/2+z
1/2+y,1/2-x,1/2+z
1/2-x,1/2-y,1/2-z
1/2+y,1/2-x,1/2-z
1/2+x,1/2+y,1/2-z
1/2-y,1/2+x,1/2-z
loop_
_atom_site_type_symbol
_atom_site_label
_atom_site_fract_x
_atom_site_fract_y
_atom_site_fract_z
Si Si1 0.780981 0.149681 0.843928
Si Si2 0.284324 0.779692 0.834851
Si Si3 0.519325 0.570248 0.500000
Si Si4 0.654524 0.400980 0.163071
Si Si5 0.158294 0.087557 0.836661
Si Si6 0.630651 0.495322 0.751408
Si Si7 0.651850 0.268510 0.657222
Si Si8 0.571111 0.514710 0.000000
O O1 0.733978 0.171347 0.816891
O O2 0.801421 0.117828 0.731623
O O3 0.813760 0.191200 0.844734
O O4 0.781996 0.131157 0.000000
O O5 0.250000 0.750000 0.750000
O O6 0.329997 0.766451 0.765670
O O7 0.283290 0.770338 0.000000
O O8 0.470436 0.551279 0.500000
O O9 0.523966 0.599622 0.633407
O O10 0.615127 0.376359 0.245028
O O11 0.653276 0.452986 0.184769
O O12 0.651315 0.391185 0.000000
O O13 0.157066 0.036037 0.809005
O O14 0.206104 0.107524 0.807982
O O15 0.148762 0.095375 0.000000
O O16 0.600294 0.517382 0.866015
O O17 0.650305 0.251217 0.500000
O O18 0.532822 0.549287 0.000000
#
# Coordination Sequence:
#
# PCOD9545811 Si02
#       8
#    16  16   8  16  16  16  16   8
#     4   8  16  28  42  57  78  98 116 138 166 212
#     4   9  15  24  38  60  80  97 113 132 164 204
#     4  11  22  34  48  60  64  82 122 158 194 244
#     4  11  22  32  44  59  74  93 119 151 191 231
#     4  10  21  34  46  57  72  95 122 150 185 230
#     4  12  23  33  45  58  72  92 119 154 197 238
#     4   8  15  27  41  58  76  94 114 139 170 210
#     4  11  22  36  46  54  72  88 108 156 210 244
#
# _framework density 12.265433
#
# number of rings (size 3 to 8) (size 9 to 14) (size 15 to 20)
#    0.000    2.143    1.429    5.143    3.000    6.857 
#    0.000    0.000    0.000    0.000    0.000    0.000 
#    0.000    0.000    0.000    0.000    0.000    0.000 
#
# Total GULP energy -311849.262330 kJ/mol
# GULP energy per Si atom -5568.736827 kJ/mol
# Density = 1.223752 g / cm^3
# Si number density = 12.265433 Si / 1000 Ang^3
#
#
#
# Elastic Constant Matrix: (Units=GPa)
#
#
# Indices 1 2 3 4 5 6 
#
# 1 42.0008 26.5424 28.8986 0.0000 0.0000 58.6482
# 2 26.5424 42.0008 28.8986 0.0000 0.0000 -58.6482
# 3 28.8986 28.8986 86.4181 0.0000 0.0000 0.0000
# 4 0.0000 0.0000 0.0000 16.8522 0.0000 0.0000
# 5 0.0000 0.0000 0.0000 0.0000 16.8522 0.0000
# 6 58.6482 -58.6482 0.0000 0.0000 0.0000 813.0150
#
#
#
# Elastic Compliance Matrix: (Units=1/GPa)
#
#
# Indices 1 2 3 4 5 6 
#
# 1 0.081618 -0.061299 -0.006795 0.000000 0.000000 -0.010310
# 2 -0.061299 0.081618 -0.006795 0.000000 0.000000 0.010310
# 3 -0.006795 -0.006795 0.016116 0.000000 0.000000 0.000000
# 4 0.000000 0.000000 0.000000 0.059339 0.000000 0.000000
# 5 0.000000 0.000000 0.000000 0.000000 0.059339 0.000000
# 6 -0.010310 0.010310 0.000000 0.000000 0.000000 0.002717
#
#
# Mechanical properties :
#
#
# Convention : Reuss Voigt Hill
#
# Bulk Modulus (GPa) = 33.81258 37.67764 35.74511
# Shear Modulus (GPa) = 10.86052 175.08256 92.97154
#
# Velocity S-wave (km/s) = 2.97889 11.96054 8.71574
# Velocity P-wave (km/s) = 6.28164 14.88371 11.42330
#
# Compressibility (1/GPa) = 0.02957479
#
# Stress axis : x y z
#
# Youngs Moduli (GPa) = 12.25222 12.25222 62.05020
#
# Poissons Ratio (x) = 0.75105 0.42161
# Poissons Ratio (y) = 0.75105 0.42161
# Poissons Ratio (z) = 0.08325 0.08325
#
# Static dielectric constant tensor:
#      x y z
#    x 1.408960 0.000000 0.000000 
#    y 0.000000 1.408960 0.000000 
#    z 0.000000 0.000000 1.420930 
# 
# From -- ./inp_files/1761.got.cif
#   From: 2010.05.17/outbox.cif.g08.bks.cpg/sg87_1_cif.got.tgz:1761.got - 2010.06.03 19:07:00.
