data_PCOD9545047
_publ_section_title
;
Structure prediction by ZEFSAII (Michael W. Deem and Ramdas Pophale) SiO2 
 PCOD9545047
Probable space group: P 42/N
;
_chemical_formula_sum "Si O2"
_cell_formula_units_Z 22
_cell_length_a 8.403749
_cell_length_b 8.403749
_cell_length_c 13.310181
_cell_angle_alpha 90.000000
_cell_angle_beta 90.000000
_cell_angle_gamma 90.000000
_cell_volume 940.004876
_symmetry_space_group_name_H-M "P 42/N"
_symmetry_group_IT_number 86
_space_group.IT_coordinate_system_code '2'
_symmetry_cell_setting 'tetragonal'
loop_
_space_group_symop_operation_xyz
x,y,z
-y,1/2+x,1/2+z
1/2-x,1/2-y,z
1/2+y,-x,1/2+z
-x,-y,-z
y,1/2-x,1/2-z
1/2+x,1/2+y,-z
1/2-y,x,1/2-z
loop_
_atom_site_type_symbol
_atom_site_label
_atom_site_fract_x
_atom_site_fract_y
_atom_site_fract_z
Si Si1 0.250000 0.750000 0.436445
Si Si2 0.580531 0.308268 0.374160
Si Si3 0.485378 0.974518 0.316965
Si Si4 0.750000 0.750000 0.250000
O O1 0.365904 0.652754 0.513082
O O2 0.358411 0.864952 0.372161
O O3 0.750000 0.250000 0.327411
O O4 0.505844 0.436000 0.300022
O O5 0.484547 0.143960 0.370994
O O6 0.653466 0.881124 0.314394
#
# Coordination Sequence:
#
# PCOD9545047 Si02
#       4
#     4   8   8   2
#     4  10  20  42  66  94 132 164 220 270 318 390
#     4  10  23  39  65  94 127 171 214 262 327 369
#     4  12  21  43  63  95 135 169 217 269 315 396
#     4  12  20  36  68  88 124 186 208 256 332 376
#
# _framework density 23.404136000000001
#
# number of rings (size 3 to 8) (size 9 to 14) (size 15 to 20)
#    1.091    0.000    5.455    1.091    0.000    0.727 
#    0.000   20.000    0.000    0.000    0.000    0.000 
#    0.000    0.000    0.000    0.000    0.000    0.000 
#
# Total GULP energy -122843.104889 kJ/mol
# GULP energy per Si atom -5583.777495 kJ/mol
# Density = 2.335087 g / cm^3
# Si number density = 23.404136 Si / 1000 Ang^3
#
#
#
# Elastic Constant Matrix: (Units=GPa)
#
#
# Indices 1 2 3 4 5 6 
#
# 1 50.2193 25.2398 10.3526 0.0000 0.0000 3.4555
# 2 25.2398 50.2193 10.3526 0.0000 0.0000 -3.4555
# 3 10.3526 10.3526 100.1871 0.0000 0.0000 0.0000
# 4 0.0000 0.0000 0.0000 10.0728 0.0000 0.0000
# 5 0.0000 0.0000 0.0000 0.0000 10.0728 0.0000
# 6 3.4555 -3.4555 0.0000 0.0000 0.0000 31.9673
#
#
#
# Elastic Compliance Matrix: (Units=1/GPa)
#
#
# Indices 1 2 3 4 5 6 
#
# 1 0.027453 -0.013814 -0.001409 0.000000 0.000000 -0.004461
# 2 -0.013814 0.027453 -0.001409 0.000000 0.000000 0.004461
# 3 -0.001409 -0.001409 0.010273 0.000000 0.000000 0.000000
# 4 0.000000 0.000000 0.000000 0.099277 0.000000 0.000000
# 5 0.000000 0.000000 0.000000 0.000000 0.099277 0.000000
# 6 -0.004461 0.004461 0.000000 0.000000 0.000000 0.032246
#
#
# Mechanical properties :
#
#
# Convention : Reuss Voigt Hill
#
# Bulk Modulus (GPa) = 31.33514 32.50175 31.91845
# Shear Modulus (GPa) = 14.71100 20.73464 17.72282
#
# Velocity S-wave (km/s) = 2.50984 2.97970 2.75481
# Velocity P-wave (km/s) = 4.67085 5.07499 4.87711
#
# Compressibility (1/GPa) = 0.03191305
#
# Stress axis : x y z
#
# Youngs Moduli (GPa) = 36.42595 36.42595 97.34645
#
# Poissons Ratio (x) = 0.50319 0.13720
# Poissons Ratio (y) = 0.50319 0.13720
# Poissons Ratio (z) = 0.05134 0.05134
#
# Static dielectric constant tensor:
#      x y z
#    x 1.925580 0.000000 0.000000 
#    y 0.000000 1.925580 0.000000 
#    z 0.000000 0.000000 1.877270 
# 
# From -- ./inp_files/1685.got.cif
#   From: 2010.05.17/outbox.cif.g08.bks.cpg/sg86_1_cif.got.tgz:1685.got - 2010.06.03 19:03:11.
