data_PCOD9545400
_publ_section_title
;
Structure prediction by ZEFSAII (Michael W. Deem and Ramdas Pophale) SiO2 
 PCOD9545400
Probable space group: P 42/N
;
_chemical_formula_sum "Si O2"
_cell_formula_units_Z 44
_cell_length_a 8.932421
_cell_length_b 8.932421
_cell_length_c 26.770963
_cell_angle_alpha 90.000000
_cell_angle_beta 90.000000
_cell_angle_gamma 90.000000
_cell_volume 2136.005476
_symmetry_space_group_name_H-M "P 42/N"
_symmetry_group_IT_number 86
_space_group.IT_coordinate_system_code '2'
_symmetry_cell_setting 'tetragonal'
loop_
_space_group_symop_operation_xyz
x,y,z
-y,1/2+x,1/2+z
1/2-x,1/2-y,z
1/2+y,-x,1/2+z
-x,-y,-z
y,1/2-x,1/2-z
1/2+x,1/2+y,-z
1/2-y,x,1/2-z
loop_
_atom_site_type_symbol
_atom_site_label
_atom_site_fract_x
_atom_site_fract_y
_atom_site_fract_z
Si Si1 0.750000 0.750000 0.100597
Si Si2 0.893250 0.044963 0.386078
Si Si3 0.727597 0.430743 0.620791
Si Si4 0.207957 0.012443 0.263961
Si Si5 0.885774 0.031660 0.043538
Si Si6 0.250000 0.750000 0.695983
Si Si7 0.750000 0.250000 0.470725
O O1 0.610710 0.816824 0.129807
O O2 0.684735 0.613417 0.068362
O O3 0.857802 0.157923 0.341222
O O4 0.804686 0.116564 0.433681
O O5 0.067252 0.001434 0.395880
O O6 0.750000 0.250000 0.619996
O O7 0.739247 0.479170 0.678146
O O8 0.863939 0.471237 0.583970
O O9 0.083069 0.139399 0.257784
O O10 0.165201 0.863817 0.233172
O O11 0.762451 0.117400 0.011010
O O12 0.000000 0.000000 0.000000
#
# Coordination Sequence:
#
# PCOD9545400 Si02
#       7
#     4   8   8   8   8   4   4
#     4  12  24  42  64 101 140 170 235 282 340 408
#     4  11  25  43  69  99 138 181 226 288 341 415
#     4  12  24  44  70  96 135 182 227 281 348 413
#     4  11  25  45  71  99 134 176 226 283 347 419
#     4  12  26  42  66 101 136 184 229 283 344 410
#     4  11  24  45  70 104 138 175 232 289 350 412
#     4  11  24  45  66  96 140 183 226 279 342 406
#
# _framework density 20.599198000000001
#
# number of rings (size 3 to 8) (size 9 to 14) (size 15 to 20)
#    0.000    0.545    7.273    0.000    5.091    1.455 
#    0.000    0.000    0.000    1.091    0.000    0.000 
#    0.000    0.000    0.000    0.000    0.000    0.000 
#
# Total GULP energy -245173.008296 kJ/mol
# GULP energy per Si atom -5572.113825 kJ/mol
# Density = 2.055231 g / cm^3
# Si number density = 20.599198 Si / 1000 Ang^3
#
#
#
# Elastic Constant Matrix: (Units=GPa)
#
#
# Indices 1 2 3 4 5 6 
#
# 1 87.6148 18.7044 23.9696 0.0000 0.0000 -5.4699
# 2 18.7044 87.6148 23.9696 0.0000 0.0000 5.4699
# 3 23.9696 23.9696 117.1569 0.0000 0.0000 0.0000
# 4 0.0000 0.0000 0.0000 -92.8772 0.0000 0.0000
# 5 0.0000 0.0000 0.0000 0.0000 -92.8772 0.0000
# 6 -5.4699 5.4699 0.0000 0.0000 0.0000 32.6301
#
#
#
# Elastic Compliance Matrix: (Units=1/GPa)
#
#
# Indices 1 2 3 4 5 6 
#
# 1 0.012635 -0.002273 -0.002120 0.000000 0.000000 0.002499
# 2 -0.002273 0.012635 -0.002120 0.000000 0.000000 -0.002499
# 3 -0.002120 -0.002120 0.009403 0.000000 0.000000 0.000000
# 4 0.000000 0.000000 0.000000 -0.010767 0.000000 0.000000
# 5 0.000000 0.000000 0.000000 0.000000 -0.010767 0.000000
# 6 0.002499 -0.002499 0.000000 0.000000 0.000000 0.031484
#
#
# Mechanical properties :
#
#
# Convention : Reuss Voigt Hill
#
# Bulk Modulus (GPa) = 46.19708 47.29709 46.74708
# Shear Modulus (GPa) = 77.08277 -15.57531 30.75373
#
# Velocity S-wave (km/s) = 6.12385 -2.75273 3.86807
# Velocity P-wave (km/s) = 8.51336 3.59265 6.53393
#
# Compressibility (1/GPa) = 0.02164639
#
# Stress axis : x y z
#
# Youngs Moduli (GPa) = 79.14572 79.14572 106.34903
#
# Poissons Ratio (x) = 0.17993 0.22545
# Poissons Ratio (y) = 0.17993 0.22545
# Poissons Ratio (z) = 0.16778 0.16778
#
# Static dielectric constant tensor:
#      x y z
#    x 1.675800 0.000000 0.000000 
#    y 0.000000 1.675800 0.000000 
#    z 0.000000 0.000000 1.699590 
# 
# From -- ./inp_files/5090.got.cif
#   From: 2010.05.17/outbox.cif.g08.bks.cpg/sg86_3_cif.got.tgz:5090.got - 2010.06.03 19:03:11.
