data_PCOD9545467
_publ_section_title
;
Structure prediction by ZEFSAII (Michael W. Deem and Ramdas Pophale) SiO2 
 PCOD9545467
Probable space group: P 42/N
;
_chemical_formula_sum "Si O2"
_cell_formula_units_Z 40
_cell_length_a 6.949588
_cell_length_b 6.949588
_cell_length_c 28.271317
_cell_angle_alpha 90.000000
_cell_angle_beta 90.000000
_cell_angle_gamma 90.000000
_cell_volume 1365.413390
_symmetry_space_group_name_H-M "P 42/N"
_symmetry_group_IT_number 86
_space_group.IT_coordinate_system_code '2'
_symmetry_cell_setting 'tetragonal'
loop_
_space_group_symop_operation_xyz
x,y,z
-y,1/2+x,1/2+z
1/2-x,1/2-y,z
1/2+y,-x,1/2+z
-x,-y,-z
y,1/2-x,1/2-z
1/2+x,1/2+y,-z
1/2-y,x,1/2-z
loop_
_atom_site_type_symbol
_atom_site_label
_atom_site_fract_x
_atom_site_fract_y
_atom_site_fract_z
Si Si1 0.786249 0.024789 0.938457
Si Si2 0.732350 0.525146 0.043926
Si Si3 0.726505 0.982353 0.144843
Si Si4 0.473703 0.822704 0.663684
Si Si5 0.018454 0.932803 0.258611
O O1 0.750000 0.250000 0.932483
O O2 0.736908 0.950097 0.886128
O O3 0.008233 0.969957 0.949992
O O4 0.696204 0.998235 0.990485
O O5 0.750000 0.750000 0.051131
O O6 0.829543 0.450854 0.092053
O O7 0.750000 0.750000 0.148639
O O8 0.577742 0.053841 0.184912
O O9 0.950852 0.024109 0.154328
O O10 0.250000 0.750000 0.663302
O O11 0.515711 0.829177 0.720419
O O12 0.003471 0.701010 0.248491
#
# Coordination Sequence:
#
# PCOD9545467 Si02
#       5
#     8   8   8   8   8
#     4   9  18  32  46  68  98 129 161 196 231 287
#     4   9  18  30  49  71  95 128 163 197 240 282
#     4   9  14  26  45  69  88 114 152 193 234 277
#     4   9  16  25  41  67  92 115 147 186 231 278
#     4   9  13  23  43  67  84 107 144 191 232 271
#
# _framework density 29.295155000000001
#
# number of rings (size 3 to 8) (size 9 to 14) (size 15 to 20)
#    0.000    3.000    4.000    0.000    0.000    0.800 
#    0.000    1.000    0.000    0.000   31.200    0.000 
#    0.000    0.000    0.000    0.000    0.000    0.000 
#
# Total GULP energy -222804.300733 kJ/mol
# GULP energy per Si atom -5570.107518 kJ/mol
# Density = 2.922848 g / cm^3
# Si number density = 29.295155 Si / 1000 Ang^3
#
#
#
# Elastic Constant Matrix: (Units=GPa)
#
#
# Indices 1 2 3 4 5 6 
#
# 1 111.9079 -4.0870 58.8174 0.0000 0.0000 2.8803
# 2 -4.0870 111.9079 58.8174 0.0000 0.0000 -2.8803
# 3 58.8174 58.8174 420.8749 0.0000 0.0000 0.0000
# 4 0.0000 0.0000 0.0000 23.3689 0.0000 0.0000
# 5 0.0000 0.0000 0.0000 0.0000 23.3689 0.0000
# 6 2.8803 -2.8803 0.0000 0.0000 0.0000 6.7762
#
#
#
# Elastic Compliance Matrix: (Units=1/GPa)
#
#
# Indices 1 2 3 4 5 6 
#
# 1 0.009875 0.001068 -0.001529 0.000000 0.000000 -0.003743
# 2 0.001068 0.009875 -0.001529 0.000000 0.000000 0.003743
# 3 -0.001529 -0.001529 0.002803 0.000000 0.000000 0.000000
# 4 0.000000 0.000000 0.000000 0.042792 0.000000 0.000000
# 5 0.000000 0.000000 0.000000 0.000000 0.042792 0.000000
# 6 -0.003743 0.003743 0.000000 0.000000 0.000000 0.150758
#
#
# Mechanical properties :
#
#
# Convention : Reuss Voigt Hill
#
# Bulk Modulus (GPa) = 53.84301 96.86516 75.35409
# Shear Modulus (GPa) = 18.58270 46.11231 32.34751
#
# Velocity S-wave (km/s) = 2.52132 3.97175 3.32654
# Velocity P-wave (km/s) = 5.18608 7.36003 6.36653
#
# Compressibility (1/GPa) = 0.01857251
#
# Stress axis : x y z
#
# Youngs Moduli (GPa) = 101.26516 101.26516 356.70380
#
# Poissons Ratio (x) = -0.10816 0.54551
# Poissons Ratio (y) = -0.10816 0.54551
# Poissons Ratio (z) = 0.15487 0.15487
#
# Static dielectric constant tensor:
#      x y z
#    x 2.199610 0.000000 0.000000 
#    y 0.000000 2.199610 0.000000 
#    z 0.000000 0.000000 2.420850 
# 
# From -- ./inp_files/4806.got.cif
#   From: 2010.05.17/outbox.cif.g08.bks.cpg/sg86_3_cif.got.tgz:4806.got - 2010.06.03 19:03:11.
