data_PCOD9545972
_publ_section_title
;
Structure prediction by ZEFSAII (Michael W. Deem and Ramdas Pophale) SiO2 
 PCOD9545972
Probable space group: I 4/M
;
_chemical_formula_sum "Si O2"
_cell_formula_units_Z 104
_cell_length_a 15.391652
_cell_length_b 15.391652
_cell_length_c 23.853869
_cell_angle_alpha 90.000000
_cell_angle_beta 90.000000
_cell_angle_gamma 90.000000
_cell_volume 5651.051966
_symmetry_space_group_name_H-M "I 4/M"
_symmetry_group_IT_number 87
_symmetry_cell_setting 'tetragonal'
loop_
_space_group_symop_operation_xyz
x,y,z
-y,x,z
-x,-y,z
y,-x,z
-x,-y,-z
y,-x,-z
x,y,-z
-y,x,-z
1/2+x,1/2+y,1/2+z
1/2-y,1/2+x,1/2+z
1/2-x,1/2-y,1/2+z
1/2+y,1/2-x,1/2+z
1/2-x,1/2-y,1/2-z
1/2+y,1/2-x,1/2-z
1/2+x,1/2+y,1/2-z
1/2-y,1/2+x,1/2-z
loop_
_atom_site_type_symbol
_atom_site_label
_atom_site_fract_x
_atom_site_fract_y
_atom_site_fract_z
Si Si1 0.741431 0.280413 0.685413
Si Si2 0.900683 0.241087 0.602786
Si Si3 0.411529 0.618445 0.000000
Si Si4 0.644618 0.515573 0.802841
Si Si5 0.395973 0.985446 0.563717
Si Si6 0.614537 0.134428 0.669653
Si Si7 0.041085 0.288191 0.226116
O O1 0.750000 0.250000 0.750000
O O2 0.823075 0.253628 0.647046
O O3 0.659008 0.228370 0.663106
O O4 0.742954 0.383948 0.690000
O O5 0.880443 0.172685 0.553880
O O6 0.976997 0.196298 0.639183
O O7 0.933006 0.333209 0.578337
O O8 0.382622 0.517774 0.000000
O O9 0.574425 0.592282 0.799869
O O10 0.714616 0.519238 0.753608
O O11 0.374353 0.958258 0.500000
O O12 0.376823 0.916655 0.612206
O O13 0.500000 0.000000 0.565727
O O14 0.662161 0.084334 0.720966
O O15 0.515646 0.147221 0.689107
#
# Coordination Sequence:
#
# PCOD9545972 Si02
#       7
#    16  16   8  16  16  16  16
#     4  10  23  38  57  89 119 154 198 249 298 351
#     4  12  22  40  60  85 121 161 202 250 297 360
#     4  11  26  40  61  92 124 164 209 241 291 372
#     4  11  21  34  57  88 124 159 193 243 307 370
#     4  11  25  42  59  86 120 159 206 252 300 357
#     4  11  23  37  61  86 117 156 200 246 297 360
#     4  11  21  37  58  86 119 153 203 246 304 356
#
# _framework density 18.403654
#
# number of rings (size 3 to 8) (size 9 to 14) (size 15 to 20)
#    0.000    1.000    2.308    6.462    4.308    1.231 
#    0.000    0.000    0.000    0.000    0.000    0.000 
#    0.000    0.000    0.000    8.615    0.000    0.000 
#
# Total GULP energy -290443.137067 kJ/mol
# GULP energy per Si atom -5585.444944 kJ/mol
# Density = 1.836177 g / cm^3
# Si number density = 18.403654 Si / 1000 Ang^3
#
#
#
# Elastic Constant Matrix: (Units=GPa)
#
#
# Indices 1 2 3 4 5 6 
#
# 1 58.2996 6.6324 34.6916 0.0000 0.0000 -5.6558
# 2 6.6324 58.2996 34.6916 0.0000 0.0000 5.6558
# 3 34.6916 34.6916 117.0291 0.0000 0.0000 0.0000
# 4 0.0000 0.0000 0.0000 25.9129 0.0000 0.0000
# 5 0.0000 0.0000 0.0000 0.0000 25.9129 0.0000
# 6 -5.6558 5.6558 0.0000 0.0000 0.0000 27.1768
#
#
#
# Elastic Compliance Matrix: (Units=1/GPa)
#
#
# Indices 1 2 3 4 5 6 
#
# 1 0.021410 0.001131 -0.006682 0.000000 0.000000 0.004220
# 2 0.001131 0.021410 -0.006682 0.000000 0.000000 -0.004220
# 3 -0.006682 -0.006682 0.012506 0.000000 0.000000 0.000000
# 4 0.000000 0.000000 0.000000 0.038591 0.000000 0.000000
# 5 0.000000 0.000000 0.000000 0.000000 0.038591 0.000000
# 6 0.004220 -0.004220 0.000000 0.000000 0.000000 0.038553
#
#
# Mechanical properties :
#
#
# Convention : Reuss Voigt Hill
#
# Bulk Modulus (GPa) = 32.40416 42.85104 37.62760
# Shear Modulus (GPa) = 24.29403 26.30803 25.30103
#
# Velocity S-wave (km/s) = 3.63721 3.78498 3.71183
# Velocity P-wave (km/s) = 5.94010 6.51429 6.23381
#
# Compressibility (1/GPa) = 0.03086023
#
# Stress axis : x y z
#
# Youngs Moduli (GPa) = 46.70804 46.70804 79.95945
#
# Poissons Ratio (x) = -0.05283 0.53428
# Poissons Ratio (y) = -0.05283 0.53428
# Poissons Ratio (z) = 0.31210 0.31210
#
# Static dielectric constant tensor:
#      x y z
#    x 1.665410 0.000000 0.000000 
#    y 0.000000 1.665410 0.000000 
#    z 0.000000 0.000000 1.621640 
# 
# From -- ./inp_files/5899.got.cif
#   From: 2010.05.17/outbox.cif.g08.bks.cpg/sg87_3_cif.got.tgz:5899.got - 2010.06.03 19:07:00.
