data_PCOD9545630
_publ_section_title
;
Structure prediction by ZEFSAII (Michael W. Deem and Ramdas Pophale) SiO2 
 PCOD9545630
Probable space group: I 4/M
;
_chemical_formula_sum "Si O2"
_cell_formula_units_Z 96
_cell_length_a 23.990023
_cell_length_b 23.990023
_cell_length_c 9.214905
_cell_angle_alpha 90.000000
_cell_angle_beta 90.000000
_cell_angle_gamma 90.000000
_cell_volume 5303.373216
_symmetry_space_group_name_H-M "I 4/M"
_symmetry_group_IT_number 87
_symmetry_cell_setting 'tetragonal'
loop_
_space_group_symop_operation_xyz
x,y,z
-y,x,z
-x,-y,z
y,-x,z
-x,-y,-z
y,-x,-z
x,y,-z
-y,x,-z
1/2+x,1/2+y,1/2+z
1/2-y,1/2+x,1/2+z
1/2-x,1/2-y,1/2+z
1/2+y,1/2-x,1/2+z
1/2-x,1/2-y,1/2-z
1/2+y,1/2-x,1/2-z
1/2+x,1/2+y,1/2-z
1/2-y,1/2+x,1/2-z
loop_
_atom_site_type_symbol
_atom_site_label
_atom_site_fract_x
_atom_site_fract_y
_atom_site_fract_z
Si Si1 0.898778 0.605422 0.664638
Si Si2 0.373183 0.702009 0.170925
Si Si3 0.284168 0.608982 0.171442
Si Si4 0.199127 0.310618 0.333635
Si Si5 0.510748 0.278560 0.330767
Si Si6 0.497182 0.148879 0.332955
O O1 0.918799 0.600300 0.500000
O O2 0.839295 0.634731 0.660040
O O3 0.891099 0.544493 0.730917
O O4 0.940349 0.643444 0.750429
O O5 0.341847 0.642832 0.183433
O O6 0.330490 0.748002 0.239970
O O7 0.433549 0.700283 0.249038
O O8 0.380426 0.714997 0.000000
O O9 0.237288 0.655368 0.218270
O O10 0.287527 0.550031 0.255519
O O11 0.272161 0.597816 0.000000
O O12 0.216112 0.295822 0.500000
O O13 0.509579 0.296720 0.500000
O O14 0.517387 0.211849 0.329004
O O15 0.488984 0.133520 0.500000
#
# Coordination Sequence:
#
# PCOD9545630 Si02
#       6
#    16  16  16  16  16  16
#     4  10  20  35  54  75 106 147 188 238 284 324
#     4  11  23  37  58  88 120 153 189 231 284 344
#     4  10  22  39  59  87 119 151 190 235 285 342
#     4  10  19  35  57  83 118 152 187 234 285 337
#     4  11  22  38  60  84 113 150 190 234 284 342
#     4  10  21  36  52  76 106 142 192 236 277 330
#
# _framework density 18.101686999999998
#
# number of rings (size 3 to 8) (size 9 to 14) (size 15 to 20)
#    0.000    1.667    3.333    1.500    0.000    4.333 
#    0.000    1.667    0.000    0.500    0.000    3.500 
#    0.000    0.000    0.000    0.000    0.000    0.000 
#
# Total GULP energy -267379.888223 kJ/mol
# GULP energy per Si atom -5570.414338 kJ/mol
# Density = 1.806049 g / cm^3
# Si number density = 18.101687 Si / 1000 Ang^3
#
#
#
# Elastic Constant Matrix: (Units=GPa)
#
#
# Indices 1 2 3 4 5 6 
#
# 1 80.2445 46.1626 49.7650 0.0000 0.0000 13.3650
# 2 46.1626 80.2445 49.7650 0.0000 0.0000 -13.3650
# 3 49.7650 49.7650 83.4158 0.0000 0.0000 0.0000
# 4 0.0000 0.0000 0.0000 19.9250 0.0000 0.0000
# 5 0.0000 0.0000 0.0000 0.0000 19.9250 0.0000
# 6 13.3650 -13.3650 0.0000 0.0000 0.0000 7.0696
#
#
#
# Elastic Compliance Matrix: (Units=1/GPa)
#
#
# Indices 1 2 3 4 5 6 
#
# 1 -0.022934 0.037853 -0.008901 0.000000 0.000000 0.114917
# 2 0.037853 -0.022934 -0.008901 0.000000 0.000000 -0.114917
# 3 -0.008901 -0.008901 0.022608 0.000000 0.000000 0.000000
# 4 0.000000 0.000000 0.000000 0.050188 0.000000 0.000000
# 5 0.000000 0.000000 0.000000 0.000000 0.050188 0.000000
# 6 0.114917 -0.114917 0.000000 0.000000 0.000000 -0.293050
#
#
# Mechanical properties :
#
#
# Convention : Reuss Voigt Hill
#
# Bulk Modulus (GPa) = 59.36840 59.47667 59.42254
# Shear Modulus (GPa) = -19.96627 15.93138 -2.01744
#
# Velocity S-wave (km/s) = -3.32476 2.96987 -1.05685
# Velocity P-wave (km/s) = 4.25790 6.68495 5.60438
#
# Compressibility (1/GPa) = 0.01684398
#
# Stress axis : x y z
#
# Youngs Moduli (GPa) = -43.60328 -43.60328 44.23203
#
# Poissons Ratio (x) = 1.65052 0.39369
# Poissons Ratio (y) = 1.65052 0.39369
# Poissons Ratio (z) = -0.38809 -0.38809
#
# Static dielectric constant tensor:
#      x y z
#    x 1.633550 0.000000 0.000000 
#    y 0.000000 1.633550 0.000000 
#    z 0.000000 0.000000 1.647200 
# 
# From -- ./inp_files/1438.got.cif
#   From: 2010.05.17/outbox.cif.g08.bks.cpg/sg87_1_cif.got.tgz:1438.got - 2010.06.03 19:07:00.
