data_PCOD9545387
_publ_section_title
;
Structure prediction by ZEFSAII (Michael W. Deem and Ramdas Pophale) SiO2 
 PCOD9545387
Probable space group: P 42/N
;
_chemical_formula_sum "Si O2"
_cell_formula_units_Z 50
_cell_length_a 16.698391
_cell_length_b 16.698391
_cell_length_c 6.469477
_cell_angle_alpha 90.000000
_cell_angle_beta 90.000000
_cell_angle_gamma 90.000000
_cell_volume 1803.924784
_symmetry_space_group_name_H-M "P 42/N"
_symmetry_group_IT_number 86
_space_group.IT_coordinate_system_code '2'
_symmetry_cell_setting 'tetragonal'
loop_
_space_group_symop_operation_xyz
x,y,z
-y,1/2+x,1/2+z
1/2-x,1/2-y,z
1/2+y,-x,1/2+z
-x,-y,-z
y,1/2-x,1/2-z
1/2+x,1/2+y,-z
1/2-y,x,1/2-z
loop_
_atom_site_type_symbol
_atom_site_label
_atom_site_fract_x
_atom_site_fract_y
_atom_site_fract_z
Si Si1 0.420926 0.067308 0.611200
Si Si2 0.681056 0.621896 0.479599
Si Si3 0.250000 0.250000 0.750000
Si Si4 0.369966 0.933773 0.938538
Si Si5 0.576518 0.136462 0.676722
Si Si6 0.840743 0.216082 0.858049
Si Si7 0.704365 0.953589 0.761713
O O1 0.409091 0.141569 0.771203
O O2 0.364494 0.049711 0.414736
O O3 0.491472 0.903658 0.465675
O O4 0.400949 0.994932 0.768848
O O5 0.755268 0.673949 0.397621
O O6 0.713168 0.558169 0.641766
O O7 0.622009 0.683158 0.593463
O O8 0.431714 0.920265 0.122223
O O9 0.298676 0.973162 0.077944
O O10 0.344475 0.850120 0.837187
O O11 0.588409 0.222630 0.790197
O O12 0.660848 0.136725 0.552456
O O13 0.750000 0.250000 0.869033
#
# Coordination Sequence:
#
# PCOD9545387 Si02
#       7
#     8   8   2   8   8   8   8
#     4  11  27  46  76 115 156 209 260 325 404 481
#     4  11  24  40  70 106 154 200 263 317 395 473
#     4  12  20  42  68 100 154 196 244 338 376 472
#     4  11  27  49  78 110 159 201 263 325 408 478
#     4  12  27  48  81 111 159 200 269 331 409 477
#     4  12  28  52  82 118 153 211 273 340 405 477
#     4  11  25  45  71 113 151 206 260 314 399 475
#
# _framework density 27.717341999999999
#
# number of rings (size 3 to 8) (size 9 to 14) (size 15 to 20)
#    0.000    0.640    1.600    4.800    6.720    5.760 
#    0.000    0.000    0.000    0.000    0.000    0.000 
#    0.000    0.000    0.000    0.000    0.000    0.000 
#
# Total GULP energy -279496.548735 kJ/mol
# GULP energy per Si atom -5589.930975 kJ/mol
# Density = 2.765426 g / cm^3
# Si number density = 27.717342 Si / 1000 Ang^3
#
#
#
# Elastic Constant Matrix: (Units=GPa)
#
#
# Indices 1 2 3 4 5 6 
#
# 1 92.7110 24.5606 38.7024 0.0000 0.0000 -2.5118
# 2 24.5606 92.7110 38.7024 0.0000 0.0000 2.5118
# 3 38.7024 38.7024 138.6854 0.0000 0.0000 0.0000
# 4 0.0000 0.0000 0.0000 57.9048 0.0000 0.0000
# 5 0.0000 0.0000 0.0000 0.0000 57.9048 0.0000
# 6 -2.5118 2.5118 0.0000 0.0000 0.0000 40.7255
#
#
#
# Elastic Compliance Matrix: (Units=1/GPa)
#
#
# Indices 1 2 3 4 5 6 
#
# 1 0.012596 -0.002144 -0.002917 0.000000 0.000000 0.000909
# 2 -0.002144 0.012596 -0.002917 0.000000 0.000000 -0.000909
# 3 -0.002917 -0.002917 0.008839 0.000000 0.000000 0.000000
# 4 0.000000 0.000000 0.000000 0.017270 0.000000 0.000000
# 5 0.000000 0.000000 0.000000 0.000000 0.017270 0.000000
# 6 0.000909 -0.000909 0.000000 0.000000 0.000000 0.024667
#
#
# Mechanical properties :
#
#
# Convention : Reuss Voigt Hill
#
# Bulk Modulus (GPa) = 55.32235 58.67094 56.99665
# Shear Modulus (GPa) = 43.39568 46.11647 44.75608
#
# Velocity S-wave (km/s) = 3.96112 4.08341 4.02273
# Velocity P-wave (km/s) = 6.39715 6.59135 6.49497
#
# Compressibility (1/GPa) = 0.01807588
#
# Stress axis : x y z
#
# Youngs Moduli (GPa) = 79.38721 79.38721 113.13997
#
# Poissons Ratio (x) = 0.17020 0.33002
# Poissons Ratio (y) = 0.17020 0.33002
# Poissons Ratio (z) = 0.23157 0.23157
#
# Static dielectric constant tensor:
#      x y z
#    x 2.288680 0.000000 0.000000 
#    y 0.000000 2.288680 0.000000 
#    z 0.000000 0.000000 2.058870 
# 
# From -- ./inp_files/438.got.cif
#   From: 2010.05.17/outbox.cif.g08.bks.cpg/sg86_1_cif.got.tgz:438.got - 2010.06.03 19:03:11.
