data_PCOD9545864
_publ_section_title
;
Structure prediction by ZEFSAII (Michael W. Deem and Ramdas Pophale) SiO2 
 PCOD9545864
Probable space group: I 4/M
;
_chemical_formula_sum "Si O2"
_cell_formula_units_Z 64
_cell_length_a 15.637758
_cell_length_b 15.637758
_cell_length_c 13.646264
_cell_angle_alpha 90.000000
_cell_angle_beta 90.000000
_cell_angle_gamma 90.000000
_cell_volume 3337.050238
_symmetry_space_group_name_H-M "I 4/M"
_symmetry_group_IT_number 87
_symmetry_cell_setting 'tetragonal'
loop_
_space_group_symop_operation_xyz
x,y,z
-y,x,z
-x,-y,z
y,-x,z
-x,-y,-z
y,-x,-z
x,y,-z
-y,x,-z
1/2+x,1/2+y,1/2+z
1/2-y,1/2+x,1/2+z
1/2-x,1/2-y,1/2+z
1/2+y,1/2-x,1/2+z
1/2-x,1/2-y,1/2-z
1/2+y,1/2-x,1/2-z
1/2+x,1/2+y,1/2-z
1/2-y,1/2+x,1/2-z
loop_
_atom_site_type_symbol
_atom_site_label
_atom_site_fract_x
_atom_site_fract_y
_atom_site_fract_z
Si Si1 0.095688 0.522290 0.112650
Si Si2 0.366572 0.775670 0.611571
Si Si3 0.189758 0.851725 0.614574
Si Si4 0.030820 0.765956 0.704306
O O1 0.107440 0.624221 0.114049
O O2 0.165825 0.477323 0.179060
O O3 0.000000 0.500000 0.139598
O O4 0.109910 0.494051 0.000000
O O5 0.376100 0.744434 0.500000
O O6 0.265380 0.783184 0.636322
O O7 0.425801 0.726915 0.688984
O O8 0.201807 0.876613 0.500000
O O9 0.097977 0.810482 0.631861
O O10 0.199416 0.935728 0.682386
#
# Coordination Sequence:
#
# PCOD9545864 Si02
#       4
#    16  16  16  16
#     4   9  19  33  53  82 110 142 185 233 277 332
#     4   9  20  36  52  78 117 147 188 235 272 329
#     4  10  21  38  58  86 114 143 187 243 284 332
#     4  11  21  35  60  80 114 153 184 224 295 333
#
# _framework density 19.178616000000002
#
# number of rings (size 3 to 8) (size 9 to 14) (size 15 to 20)
#    0.000    2.250    0.000    4.500    7.000    0.500 
#    0.000    2.500    0.000    0.000    0.000    1.750 
#    0.000    0.000    0.000    0.000    0.000    0.000 
#
# Total GULP energy -178525.676771 kJ/mol
# GULP energy per Si atom -5578.927399 kJ/mol
# Density = 1.913496 g / cm^3
# Si number density = 19.178616 Si / 1000 Ang^3
#
#
#
# Elastic Constant Matrix: (Units=GPa)
#
#
# Indices 1 2 3 4 5 6 
#
# 1 42.8406 20.8267 12.6097 0.0000 0.0000 6.8832
# 2 20.8267 42.8406 12.6097 0.0000 0.0000 -6.8832
# 3 12.6097 12.6097 108.5609 0.0000 0.0000 0.0000
# 4 0.0000 0.0000 0.0000 23.5440 0.0000 0.0000
# 5 0.0000 0.0000 0.0000 0.0000 23.5440 0.0000
# 6 6.8832 -6.8832 0.0000 0.0000 0.0000 20.3582
#
#
#
# Elastic Compliance Matrix: (Units=1/GPa)
#
#
# Indices 1 2 3 4 5 6 
#
# 1 0.037035 -0.020571 -0.001912 0.000000 0.000000 -0.019477
# 2 -0.020571 0.037035 -0.001912 0.000000 0.000000 0.019477
# 3 -0.001912 -0.001912 0.009656 0.000000 0.000000 0.000000
# 4 0.000000 0.000000 0.000000 0.042474 0.000000 0.000000
# 5 0.000000 0.000000 0.000000 0.000000 0.042474 0.000000
# 6 -0.019477 0.019477 0.000000 0.000000 0.000000 0.062290
#
#
# Mechanical properties :
#
#
# Convention : Reuss Voigt Hill
#
# Bulk Modulus (GPa) = 28.62496 31.81492 30.21994
# Shear Modulus (GPa) = 17.15863 23.36899 20.26381
#
# Velocity S-wave (km/s) = 2.99436 3.49448 3.25404
# Velocity P-wave (km/s) = 5.18775 5.73643 5.46897
#
# Compressibility (1/GPa) = 0.03493455
#
# Stress axis : x y z
#
# Youngs Moduli (GPa) = 27.00161 27.00161 103.56606
#
# Poissons Ratio (x) = 0.55544 0.19806
# Poissons Ratio (y) = 0.55544 0.19806
# Poissons Ratio (z) = 0.05164 0.05164
#
# Static dielectric constant tensor:
#      x y z
#    x 1.651320 0.000000 0.000000 
#    y 0.000000 1.651320 0.000000 
#    z 0.000000 0.000000 1.721400 
# 
# From -- ./inp_files/2351.got.cif
#   From: 2010.05.17/outbox.cif.g08.bks.cpg/sg87_2_cif.got.tgz:2351.got - 2010.06.03 19:07:00.
