data_PCOD9545460
_publ_section_title
;
Structure prediction by ZEFSAII (Michael W. Deem and Ramdas Pophale) SiO2 
 PCOD9545460
Probable space group: P 42/N
;
_chemical_formula_sum "Si O2"
_cell_formula_units_Z 18
_cell_length_a 12.484707
_cell_length_b 12.484707
_cell_length_c 4.942313
_cell_angle_alpha 90.000000
_cell_angle_beta 90.000000
_cell_angle_gamma 90.000000
_cell_volume 770.347992
_symmetry_space_group_name_H-M "P 42/N"
_symmetry_group_IT_number 86
_space_group.IT_coordinate_system_code '2'
_symmetry_cell_setting 'tetragonal'
loop_
_space_group_symop_operation_xyz
x,y,z
-y,1/2+x,1/2+z
1/2-x,1/2-y,z
1/2+y,-x,1/2+z
-x,-y,-z
y,1/2-x,1/2-z
1/2+x,1/2+y,-z
1/2-y,x,1/2-z
loop_
_atom_site_type_symbol
_atom_site_label
_atom_site_fract_x
_atom_site_fract_y
_atom_site_fract_z
Si Si1 0.008664 0.271953 0.623195
Si Si2 0.250000 0.250000 0.750000
Si Si3 0.054540 0.604395 0.880649
O O1 0.135327 0.245370 0.592756
O O2 0.976768 0.368612 0.425521
O O3 0.923678 0.178049 0.571291
O O4 0.989567 0.299969 0.936083
O O5 0.000000 0.500000 0.000000
#
# Coordination Sequence:
#
# PCOD9545460 Si02
#       3
#     8   2   8
#     4  12  28  47  76 106 146 194 242 301 364 439
#     4  12  28  46  80 110 144 194 252 298 372 434
#     4  12  27  47  74 108 148 187 245 302 365 429
#
# _framework density 23.366064999999999
#
# number of rings (size 3 to 8) (size 9 to 14) (size 15 to 20)
#    0.000    0.000    4.444    4.000    6.222    7.111 
#    0.000    0.000    0.000    0.000    0.000    0.000 
#    0.000    0.000    0.000    0.000    0.000    0.000 
#
# Total GULP energy -100610.854997 kJ/mol
# GULP energy per Si atom -5589.491944 kJ/mol
# Density = 2.331288 g / cm^3
# Si number density = 23.366065 Si / 1000 Ang^3
#
#
#
# Elastic Constant Matrix: (Units=GPa)
#
#
# Indices 1 2 3 4 5 6 
#
# 1 97.6891 20.0779 8.6640 0.0000 0.0000 -17.4615
# 2 20.0779 97.6891 8.6640 0.0000 0.0000 17.4615
# 3 8.6640 8.6640 75.7433 0.0000 0.0000 0.0000
# 4 0.0000 0.0000 0.0000 30.6782 0.0000 0.0000
# 5 0.0000 0.0000 0.0000 0.0000 30.6782 0.0000
# 6 -17.4615 17.4615 0.0000 0.0000 0.0000 35.5916
#
#
#
# Elastic Compliance Matrix: (Units=1/GPa)
#
#
# Indices 1 2 3 4 5 6 
#
# 1 0.012586 -0.003949 -0.000988 0.000000 0.000000 0.008112
# 2 -0.003949 0.012586 -0.000988 0.000000 0.000000 -0.008112
# 3 -0.000988 -0.000988 0.013428 0.000000 0.000000 0.000000
# 4 0.000000 0.000000 0.000000 0.032596 0.000000 0.000000
# 5 0.000000 0.000000 0.000000 0.000000 0.032596 0.000000
# 6 0.008112 -0.008112 0.000000 0.000000 0.000000 0.036056
#
#
# Mechanical properties :
#
#
# Convention : Reuss Voigt Hill
#
# Bulk Modulus (GPa) = 37.38287 38.43704 37.90996
# Shear Modulus (GPa) = 31.13010 34.97063 33.05037
#
# Velocity S-wave (km/s) = 3.65400 3.87284 3.76501
# Velocity P-wave (km/s) = 5.81685 6.04021 5.92959
#
# Compressibility (1/GPa) = 0.02675022
#
# Stress axis : x y z
#
# Youngs Moduli (GPa) = 79.45423 79.45423 74.46850
#
# Poissons Ratio (x) = 0.31378 0.07357
# Poissons Ratio (y) = 0.31378 0.07357
# Poissons Ratio (z) = 0.07849 0.07849
#
# Static dielectric constant tensor:
#      x y z
#    x 3.096980 0.000000 0.000000 
#    y 0.000000 3.096980 0.000000 
#    z 0.000000 0.000000 1.970960 
# 
# From -- ./inp_files/69.got.cif
#   From: 2010.05.17/outbox.cif.g08.bks.cpg/sg86_1_cif.got.tgz:69.got - 2010.06.03 19:03:11.
