data_PCOD9545394
_publ_section_title
;
Structure prediction by ZEFSAII (Michael W. Deem and Ramdas Pophale) SiO2 
 PCOD9545394
Probable space group: P 42/N
;
_chemical_formula_sum "Si O2"
_cell_formula_units_Z 28
_cell_length_a 7.402297
_cell_length_b 7.402297
_cell_length_c 18.515504
_cell_angle_alpha 90.000000
_cell_angle_beta 90.000000
_cell_angle_gamma 90.000000
_cell_volume 1014.538542
_symmetry_space_group_name_H-M "P 42/N"
_symmetry_group_IT_number 86
_space_group.IT_coordinate_system_code '2'
_symmetry_cell_setting 'tetragonal'
loop_
_space_group_symop_operation_xyz
x,y,z
-y,1/2+x,1/2+z
1/2-x,1/2-y,z
1/2+y,-x,1/2+z
-x,-y,-z
y,1/2-x,1/2-z
1/2+x,1/2+y,-z
1/2-y,x,1/2-z
loop_
_atom_site_type_symbol
_atom_site_label
_atom_site_fract_x
_atom_site_fract_y
_atom_site_fract_z
Si Si1 0.250000 0.250000 0.953859
Si Si2 0.633284 0.008380 0.727052
Si Si3 0.556533 0.186203 0.074375
Si Si4 0.542078 0.204877 0.859766
O O1 0.392926 0.336840 0.894772
O O2 0.403515 0.206604 0.014708
O O3 0.819524 0.971099 0.770834
O O4 0.697123 0.039061 0.646663
O O5 0.537687 0.162263 0.774052
O O6 0.750000 0.250000 0.043580
O O7 0.470668 0.017002 0.895706
O O8 0.750000 0.250000 0.878991
#
# Coordination Sequence:
#
# PCOD9545394 Si02
#       4
#     4   8   8   8
#     4  12  26  44  73 109 150 196 250 324 402 468
#     4   9  19  41  70  97 136 194 253 310 378 466
#     4  11  24  43  69 101 144 199 255 313 392 481
#     4  11  25  44  68 105 149 194 255 324 393 472
#
# _framework density 27.598754
#
# number of rings (size 3 to 8) (size 9 to 14) (size 15 to 20)
#    0.000    1.429    0.000    6.000    0.000    6.857 
#    0.000    8.571    0.000    0.000    0.000    0.000 
#    0.000    0.000    0.000    0.000    0.000    0.000 
#
# Total GULP energy -156261.756704 kJ/mol
# GULP energy per Si atom -5580.777025 kJ/mol
# Density = 2.753594 g / cm^3
# Si number density = 27.598754 Si / 1000 Ang^3
#
#
#
# Elastic Constant Matrix: (Units=GPa)
#
#
# Indices 1 2 3 4 5 6 
#
# 1 176.0216 77.1699 44.9405 0.0000 0.0000 -13.7189
# 2 77.1699 176.0216 44.9405 0.0000 0.0000 13.7189
# 3 44.9405 44.9405 204.9209 0.0000 0.0000 0.0000
# 4 0.0000 0.0000 0.0000 -200.8451 0.0000 0.0000
# 5 0.0000 0.0000 0.0000 0.0000 -200.8451 0.0000
# 6 -13.7189 13.7189 0.0000 0.0000 0.0000 30.4929
#
#
#
# Elastic Compliance Matrix: (Units=1/GPa)
#
#
# Indices 1 2 3 4 5 6 
#
# 1 0.007921 -0.003638 -0.000939 0.000000 0.000000 0.005201
# 2 -0.003638 0.007921 -0.000939 0.000000 0.000000 -0.005201
# 3 -0.000939 -0.000939 0.005292 0.000000 0.000000 0.000000
# 4 0.000000 0.000000 0.000000 -0.004979 0.000000 0.000000
# 5 0.000000 0.000000 0.000000 0.000000 -0.004979 0.000000
# 6 0.005201 -0.005201 0.000000 0.000000 0.000000 0.037474
#
#
# Mechanical properties :
#
#
# Convention : Reuss Voigt Hill
#
# Bulk Modulus (GPa) = 99.00220 99.00730 99.00475
# Shear Modulus (GPa) = 79.29990 -48.24524 15.52733
#
# Velocity S-wave (km/s) = 5.36615 -4.18556 2.37451
# Velocity P-wave (km/s) = 8.62229 3.54869 6.59307
#
# Compressibility (1/GPa) = 0.01010079
#
# Stress axis : x y z
#
# Youngs Moduli (GPa) = 126.24073 126.24073 188.96740
#
# Poissons Ratio (x) = 0.45931 0.17750
# Poissons Ratio (y) = 0.45931 0.17750
# Poissons Ratio (z) = 0.11858 0.11858
#
# Static dielectric constant tensor:
#      x y z
#    x 2.573110 0.000000 0.000000 
#    y 0.000000 2.573110 0.000000 
#    z 0.000000 0.000000 2.039220 
# 
# From -- ./inp_files/3297.got.cif
#   From: 2010.05.17/outbox.cif.g08.bks.cpg/sg86_2_cif.got.tgz:3297.got - 2010.06.03 19:03:11.
