data_PCOD9545565
_publ_section_title
;
Structure prediction by ZEFSAII (Michael W. Deem and Ramdas Pophale) SiO2 
 PCOD9545565
Probable space group: I 4/M
;
_chemical_formula_sum "Si O2"
_cell_formula_units_Z 96
_cell_length_a 16.862389
_cell_length_b 16.862389
_cell_length_c 18.720059
_cell_angle_alpha 90.000000
_cell_angle_beta 90.000000
_cell_angle_gamma 90.000000
_cell_volume 5322.864623
_symmetry_space_group_name_H-M "I 4/M"
_symmetry_group_IT_number 87
_symmetry_cell_setting 'tetragonal'
loop_
_space_group_symop_operation_xyz
x,y,z
-y,x,z
-x,-y,z
y,-x,z
-x,-y,-z
y,-x,-z
x,y,-z
-y,x,-z
1/2+x,1/2+y,1/2+z
1/2-y,1/2+x,1/2+z
1/2-x,1/2-y,1/2+z
1/2+y,1/2-x,1/2+z
1/2-x,1/2-y,1/2-z
1/2+y,1/2-x,1/2-z
1/2+x,1/2+y,1/2-z
1/2-y,1/2+x,1/2-z
loop_
_atom_site_type_symbol
_atom_site_label
_atom_site_fract_x
_atom_site_fract_y
_atom_site_fract_z
Si Si1 0.891552 0.317657 0.082392
Si Si2 0.132689 0.301504 0.709882
Si Si3 0.264415 0.518917 0.675767
Si Si4 0.846989 0.246278 0.674383
Si Si5 0.626479 0.537967 0.211706
Si Si6 0.773669 0.166997 0.919003
O O1 0.845699 0.377997 0.134882
O O2 0.836751 0.238372 0.083361
O O3 0.971858 0.291474 0.121544
O O4 0.901124 0.342003 0.000000
O O5 0.055876 0.282130 0.756467
O O6 0.181285 0.219911 0.696514
O O7 0.192543 0.352822 0.759553
O O8 0.333997 0.465101 0.709365
O O9 0.296178 0.595490 0.633230
O O10 0.926679 0.196614 0.662969
O O11 0.808492 0.295485 0.610058
O O12 0.550691 0.594379 0.201618
O O13 0.766896 0.138861 0.000000
#
# Coordination Sequence:
#
# PCOD9545565 Si02
#       6
#    16  16  16  16  16  16
#     4  10  19  31  50  79 107 134 177 223 271 319
#     4   9  17  30  50  72 100 142 189 232 259 298
#     4  11  18  30  51  78 112 139 178 217 265 329
#     4   9  16  31  49  71 103 142 198 234 252 302
#     4  11  20  29  47  81 117 147 175 215 272 330
#     4   9  19  33  53  78 109 149 187 230 273 312
#
# _framework density 18.035401
#
# number of rings (size 3 to 8) (size 9 to 14) (size 15 to 20)
#    0.000    2.167    3.333    2.500    0.000    0.000 
#    0.000    0.000    0.000    2.500    0.000    9.333 
#    0.000    0.000    0.000    0.000    0.000    0.000 
#
# Total GULP energy -267354.960858 kJ/mol
# GULP energy per Si atom -5569.895018 kJ/mol
# Density = 1.799435 g / cm^3
# Si number density = 18.035401 Si / 1000 Ang^3
#
#
#
# Elastic Constant Matrix: (Units=GPa)
#
#
# Indices 1 2 3 4 5 6 
#
# 1 46.3083 23.0563 14.1700 0.0000 0.0000 -5.5119
# 2 23.0563 46.3083 14.1700 0.0000 0.0000 5.5120
# 3 14.1700 14.1700 73.2558 0.0000 0.0000 0.0000
# 4 0.0000 0.0000 0.0000 20.6298 0.0000 0.0000
# 5 0.0000 0.0000 0.0000 0.0000 20.6298 0.0000
# 6 -5.5119 5.5120 0.0000 0.0000 0.0000 26.7515
#
#
#
# Elastic Compliance Matrix: (Units=1/GPa)
#
#
# Indices 1 2 3 4 5 6 
#
# 1 0.031658 -0.016005 -0.003028 0.000000 0.000000 0.009821
# 2 -0.016005 0.031658 -0.003028 0.000000 0.000000 -0.009821
# 3 -0.003028 -0.003028 0.014822 0.000000 0.000000 0.000000
# 4 0.000000 0.000000 0.000000 0.048474 0.000000 0.000000
# 5 0.000000 0.000000 0.000000 0.000000 0.048474 0.000000
# 6 0.009821 -0.009821 0.000000 0.000000 0.000000 0.041428
#
#
# Mechanical properties :
#
#
# Convention : Reuss Voigt Hill
#
# Bulk Modulus (GPa) = 29.39633 29.85168 29.62400
# Shear Modulus (GPa) = 18.38411 21.23396 19.80904
#
# Velocity S-wave (km/s) = 3.19617 3.43497 3.31772
# Velocity P-wave (km/s) = 5.47314 5.68504 5.58010
#
# Compressibility (1/GPa) = 0.03401786
#
# Stress axis : x y z
#
# Youngs Moduli (GPa) = 31.58733 31.58733 67.46641
#
# Poissons Ratio (x) = 0.50554 0.20428
# Poissons Ratio (y) = 0.50554 0.20428
# Poissons Ratio (z) = 0.09564 0.09564
#
# Static dielectric constant tensor:
#      x y z
#    x 1.648310 0.000000 0.000000 
#    y 0.000000 1.648310 0.000000 
#    z 0.000000 0.000000 1.624590 
# 
# From -- ./inp_files/4418.got.cif
#   From: 2010.05.17/outbox.cif.g08.bks.cpg/sg87_3_cif.got.tgz:4418.got - 2010.06.03 19:07:00.
