data_PCOD9545475
_publ_section_title
;
Structure prediction by ZEFSAII (Michael W. Deem and Ramdas Pophale) SiO2 
 PCOD9545475
Probable space group: P 42/N
;
_chemical_formula_sum "Si O2"
_cell_formula_units_Z 56
_cell_length_a 12.000000
_cell_length_b 12.000000
_cell_length_c 21.000000
_cell_angle_alpha 90.000000
_cell_angle_beta 90.000000
_cell_angle_gamma 90.000000
_cell_volume 3024.000000
_symmetry_space_group_name_H-M "P 42/N"
_symmetry_group_IT_number 86
_space_group.IT_coordinate_system_code '2'
_symmetry_cell_setting 'tetragonal'
loop_
_space_group_symop_operation_xyz
x,y,z
-y,1/2+x,1/2+z
1/2-x,1/2-y,z
1/2+y,-x,1/2+z
-x,-y,-z
y,1/2-x,1/2-z
1/2+x,1/2+y,-z
1/2-y,x,1/2-z
loop_
_atom_site_type_symbol
_atom_site_label
_atom_site_fract_x
_atom_site_fract_y
_atom_site_fract_z
Si Si1 0.490272 0.915244 0.082345
Si Si2 0.089391 0.398481 0.162909
Si Si3 0.629167 0.301054 0.876524
Si Si4 0.836148 0.981475 0.804797
Si Si5 0.096381 0.174296 0.082650
Si Si6 0.704154 0.954988 0.997992
Si Si7 0.846754 0.344639 0.524083
O O1 0.457629 0.800132 0.116506
O O2 0.602658 0.899836 0.039663
O O3 0.499360 0.015680 0.132867
O O4 0.377999 0.960089 0.043725
O O5 0.205687 0.463143 0.176892
O O6 0.110402 0.300605 0.110465
O O7 0.048990 0.351691 0.230881
O O8 0.750000 0.250000 0.863599
O O9 0.617345 0.397698 0.824602
O O10 0.635500 0.352078 0.947724
O O11 0.898874 0.897983 0.852805
O O12 0.969983 0.168335 0.053012
O O13 0.199793 0.123205 0.038218
O O14 0.782238 0.037392 0.039702
O O15 0.750000 0.250000 0.536317
#
# Coordination Sequence:
#
# PCOD9545475 Si02
#       7
#     8   8   8   8   8   8   8
#     4  11  23  41  65  92 133 172 220 266 336 405
#     4  12  24  41  61 100 133 167 220 276 327 397
#     4  11  20  41  64  89 122 176 219 256 324 411
#     4  12  24  39  65  92 129 174 218 267 331 388
#     4  12  24  37  65 100 135 166 215 277 341 391
#     4  11  22  38  64  99 131 172 212 269 341 398
#     4  11  21  40  62  94 135 165 212 272 327 399
#
# _framework density 18.518519000000001
#
# number of rings (size 3 to 8) (size 9 to 14) (size 15 to 20)
#    0.000    0.571    8.571    1.714    2.000    0.000 
#    0.000    5.000    0.000    0.000    0.000    0.000 
#    0.000    0.000    0.000    0.000    0.000    0.000 
#
# Total GULP energy -312107.434432 kJ/mol
# GULP energy per Si atom -5573.347043 kJ/mol
# Density = 1.847637 g / cm^3
# Si number density = 18.518519 Si / 1000 Ang^3
#
#
#
# Elastic Constant Matrix: (Units=GPa)
#
#
# Indices 1 2 3 4 5 6 
#
# 1 129.0664 45.4445 44.2324 0.0000 0.0000 -8.2169
# 2 45.4445 129.0664 44.2324 0.0000 0.0000 8.2169
# 3 44.2324 44.2324 80.1718 0.0000 0.0000 0.0000
# 4 0.0000 0.0000 0.0000 31.9494 0.0000 0.0000
# 5 0.0000 0.0000 0.0000 0.0000 31.9494 0.0000
# 6 -8.2169 8.2169 0.0000 0.0000 0.0000 28.8456
#
#
#
# Elastic Compliance Matrix: (Units=1/GPa)
#
#
# Indices 1 2 3 4 5 6 
#
# 1 0.010311 -0.002356 -0.004389 0.000000 0.000000 0.003609
# 2 -0.002356 0.010311 -0.004389 0.000000 0.000000 -0.003609
# 3 -0.004389 -0.004389 0.017316 0.000000 0.000000 0.000000
# 4 0.000000 0.000000 0.000000 0.031299 0.000000 0.000000
# 5 0.000000 0.000000 0.000000 0.000000 0.031299 0.000000
# 6 0.003609 -0.003609 0.000000 0.000000 0.000000 0.036723
#
#
# Mechanical properties :
#
#
# Convention : Reuss Voigt Hill
#
# Bulk Modulus (GPa) = 63.81414 67.34700 65.58057
# Shear Modulus (GPa) = 30.34834 32.17525 31.26180
#
# Velocity S-wave (km/s) = 4.05261 4.17281 4.11315
# Velocity P-wave (km/s) = 7.51217 7.72417 7.61891
#
# Compressibility (1/GPa) = 0.01567051
#
# Stress axis : x y z
#
# Youngs Moduli (GPa) = 96.97911 96.97911 57.74915
#
# Poissons Ratio (x) = 0.22851 0.25346
# Poissons Ratio (y) = 0.22851 0.25346
# Poissons Ratio (z) = 0.42565 0.42565
#
# Static dielectric constant tensor:
#      x y z
#    x 1.694760 0.000000 0.000000 
#    y 0.000000 1.694760 0.000000 
#    z 0.000000 0.000000 1.648510 
# 
# From -- ./inp_files/4194.got.cif
#   From: 2010.05.17/outbox.ucp.g08.bks.cvg/sg86_3_cif.got.tgz:4194.got - 2010.06.11 10:35:13.
