data_PCOD9545209
_publ_section_title
;
Structure prediction by ZEFSAII (Michael W. Deem and Ramdas Pophale) SiO2 
 PCOD9545209
Probable space group: P 42/N
;
_chemical_formula_sum "Si O2"
_cell_formula_units_Z 36
_cell_length_a 11.240151
_cell_length_b 11.240151
_cell_length_c 13.317286
_cell_angle_alpha 90.000000
_cell_angle_beta 90.000000
_cell_angle_gamma 90.000000
_cell_volume 1682.519157
_symmetry_space_group_name_H-M "P 42/N"
_symmetry_group_IT_number 86
_space_group.IT_coordinate_system_code '2'
_symmetry_cell_setting 'tetragonal'
loop_
_space_group_symop_operation_xyz
x,y,z
-y,1/2+x,1/2+z
1/2-x,1/2-y,z
1/2+y,-x,1/2+z
-x,-y,-z
y,1/2-x,1/2-z
1/2+x,1/2+y,-z
1/2-y,x,1/2-z
loop_
_atom_site_type_symbol
_atom_site_label
_atom_site_fract_x
_atom_site_fract_y
_atom_site_fract_z
Si Si1 0.750000 0.750000 0.049009
Si Si2 0.590183 0.572972 0.928309
Si Si3 0.454275 0.932565 0.252789
Si Si4 0.007515 0.181257 0.646837
Si Si5 0.298453 0.884740 0.060559
O O1 0.649441 0.684807 0.983425
O O2 0.807807 0.645149 0.113710
O O3 0.521135 0.612054 0.828526
O O4 0.694715 0.477881 0.911114
O O5 0.500000 0.500000 0.000000
O O6 0.579698 0.995775 0.229732
O O7 0.471043 0.808706 0.310298
O O8 0.395104 0.902752 0.146956
O O9 0.927348 0.156219 0.548863
O O10 0.250000 0.750000 0.057063
#
# Coordination Sequence:
#
# PCOD9545209 Si02
#       5
#     4   8   8   8   8
#     4  10  22  43  75  98 140 188 234 294 354 416
#     4  11  24  48  68 102 142 185 236 300 354 430
#     4  12  24  43  71 101 141 181 244 287 364 433
#     4  11  24  42  71 104 134 192 236 299 351 432
#     4  11  26  43  67 102 140 184 230 297 359 424
#
# _framework density 21.396488000000002
#
# number of rings (size 3 to 8) (size 9 to 14) (size 15 to 20)
#    0.000    0.889    4.444    3.333    3.111    6.222 
#    0.000    1.111    0.000    0.000    0.000    0.000 
#    0.000    0.000    0.000    0.000    0.000    0.000 
#
# Total GULP energy -201423.392472 kJ/mol
# GULP energy per Si atom -5595.094235 kJ/mol
# Density = 2.134779 g / cm^3
# Si number density = 21.396488 Si / 1000 Ang^3
#
#
#
# Elastic Constant Matrix: (Units=GPa)
#
#
# Indices 1 2 3 4 5 6 
#
# 1 53.6588 -1.5553 7.6830 0.0000 0.0000 -4.7021
# 2 -1.5553 53.6588 7.6830 0.0000 0.0000 4.7021
# 3 7.6830 7.6830 88.9770 0.0000 0.0000 0.0000
# 4 0.0000 0.0000 0.0000 4.3863 0.0000 0.0000
# 5 0.0000 0.0000 0.0000 0.0000 4.3863 0.0000
# 6 -4.7021 4.7021 0.0000 0.0000 0.0000 27.3727
#
#
#
# Elastic Compliance Matrix: (Units=1/GPa)
#
#
# Indices 1 2 3 4 5 6 
#
# 1 0.019176 0.000518 -0.001701 0.000000 0.000000 0.003205
# 2 0.000518 0.019176 -0.001701 0.000000 0.000000 -0.003205
# 3 -0.001701 -0.001701 0.011533 0.000000 0.000000 0.000000
# 4 0.000000 0.000000 0.000000 0.227981 0.000000 0.000000
# 5 0.000000 0.000000 0.000000 0.000000 0.227981 0.000000
# 6 0.003205 -0.003205 0.000000 0.000000 0.000000 0.037634
#
#
# Mechanical properties :
#
#
# Convention : Reuss Voigt Hill
#
# Bulk Modulus (GPa) = 22.66624 24.87958 23.77291
# Shear Modulus (GPa) = 8.86601 19.39465 14.13033
#
# Velocity S-wave (km/s) = 2.03781 3.01398 2.57262
# Velocity P-wave (km/s) = 4.01912 4.87496 4.46758
#
# Compressibility (1/GPa) = 0.04411847
#
# Stress axis : x y z
#
# Youngs Moduli (GPa) = 52.14950 52.14950 86.71114
#
# Poissons Ratio (x) = -0.02704 0.14746
# Poissons Ratio (y) = -0.02704 0.14746
# Poissons Ratio (z) = 0.08868 0.08868
#
# Static dielectric constant tensor:
#      x y z
#    x 1.715420 0.000000 0.000000 
#    y 0.000000 1.715420 0.000000 
#    z 0.000000 0.000000 1.769980 
# 
# From -- ./inp_files/2081.got.cif
#   From: 2010.05.17/outbox.cif.g08.bks.cpg/sg86_2_cif.got.tgz:2081.got - 2010.06.03 19:03:11.
