data_PCOD9545417
_publ_section_title
;
Structure prediction by ZEFSAII (Michael W. Deem and Ramdas Pophale) SiO2 
 PCOD9545417
Probable space group: P 42/N
;
_chemical_formula_sum "Si O2"
_cell_formula_units_Z 18
_cell_length_a 8.622287
_cell_length_b 8.622287
_cell_length_c 8.945340
_cell_angle_alpha 90.000000
_cell_angle_beta 90.000000
_cell_angle_gamma 90.000000
_cell_volume 665.030864
_symmetry_space_group_name_H-M "P 42/N"
_symmetry_group_IT_number 86
_space_group.IT_coordinate_system_code '2'
_symmetry_cell_setting 'tetragonal'
loop_
_space_group_symop_operation_xyz
x,y,z
-y,1/2+x,1/2+z
1/2-x,1/2-y,z
1/2+y,-x,1/2+z
-x,-y,-z
y,1/2-x,1/2-z
1/2+x,1/2+y,-z
1/2-y,x,1/2-z
loop_
_atom_site_type_symbol
_atom_site_label
_atom_site_fract_x
_atom_site_fract_y
_atom_site_fract_z
Si Si1 0.250000 0.250000 0.250000
Si Si2 0.978395 0.662731 0.236114
Si Si3 0.233738 0.568244 0.415939
O O1 0.294381 0.405392 0.344773
O O2 0.822330 0.575140 0.188035
O O3 0.056459 0.558111 0.361217
O O4 0.067015 0.705761 0.084536
O O5 0.250000 0.750000 0.361370
#
# Coordination Sequence:
#
# PCOD9545417 Si02
#       3
#     2   8   8
#     4  12  28  52  82 116 164 212 264 330 400 472
#     4  11  25  46  76 114 160 210 267 332 400 475
#     4  12  27  48  78 117 160 210 267 330 398 476
#
# _framework density 27.066413000000001
#
# number of rings (size 3 to 8) (size 9 to 14) (size 15 to 20)
#    0.000    0.444    0.000    8.000    0.000   14.222 
#    0.000    0.000    0.000    0.000    0.000    0.000 
#    0.000    0.000    0.000    0.000    0.000    0.000 
#
# Total GULP energy -100331.141422 kJ/mol
# GULP energy per Si atom -5573.952301 kJ/mol
# Density = 2.700481 g / cm^3
# Si number density = 27.066413 Si / 1000 Ang^3
#
#
#
# Elastic Constant Matrix: (Units=GPa)
#
#
# Indices 1 2 3 4 5 6 
#
# 1 119.2303 22.6099 74.4178 0.0000 0.0000 -6.8285
# 2 22.6099 119.2303 74.4178 0.0000 0.0000 6.8285
# 3 74.4178 74.4178 215.9680 0.0000 0.0000 0.0000
# 4 0.0000 0.0000 0.0000 32.3884 0.0000 0.0000
# 5 0.0000 0.0000 0.0000 0.0000 32.3884 0.0000
# 6 -6.8285 6.8285 0.0000 0.0000 0.0000 15.4092
#
#
#
# Elastic Compliance Matrix: (Units=1/GPa)
#
#
# Indices 1 2 3 4 5 6 
#
# 1 0.011042 0.000001 -0.003805 0.000000 0.000000 0.004893
# 2 0.000001 0.011042 -0.003805 0.000000 0.000000 -0.004893
# 3 -0.003805 -0.003805 0.007253 0.000000 0.000000 0.000000
# 4 0.000000 0.000000 0.000000 0.030875 0.000000 0.000000
# 5 0.000000 0.000000 0.000000 0.000000 0.030875 0.000000
# 6 0.004893 -0.004893 0.000000 0.000000 0.000000 0.069233
#
#
# Mechanical properties :
#
#
# Convention : Reuss Voigt Hill
#
# Bulk Modulus (GPa) = 70.83148 88.59108 79.71128
# Shear Modulus (GPa) = 27.73997 34.90275 31.32136
#
# Velocity S-wave (km/s) = 3.20486 3.59489 3.40546
# Velocity P-wave (km/s) = 6.31832 7.07340 6.70649
#
# Compressibility (1/GPa) = 0.01411802
#
# Stress axis : x y z
#
# Youngs Moduli (GPa) = 90.56150 90.56150 137.87986
#
# Poissons Ratio (x) = -0.00008 0.52466
# Poissons Ratio (y) = -0.00008 0.52466
# Poissons Ratio (z) = 0.34460 0.34460
#
# Static dielectric constant tensor:
#      x y z
#    x 2.336910 0.000000 0.000000 
#    y 0.000000 2.336910 0.000000 
#    z 0.000000 0.000000 1.980940 
# 
# From -- ./inp_files/594.got.cif
#   From: 2010.05.17/outbox.cif.g08.bks.cpg/sg86_1_cif.got.tgz:594.got - 2010.06.03 19:03:11.
