data_PCOD9545693
_publ_section_title
;
Structure prediction by ZEFSAII (Michael W. Deem and Ramdas Pophale) SiO2 
 PCOD9545693
Probable space group: I 4/M
;
_chemical_formula_sum "Si O2"
_cell_formula_units_Z 56
_cell_length_a 18.392608
_cell_length_b 18.392608
_cell_length_c 7.399564
_cell_angle_alpha 90.000000
_cell_angle_beta 90.000000
_cell_angle_gamma 90.000000
_cell_volume 2503.183921
_symmetry_space_group_name_H-M "I 4/M"
_symmetry_group_IT_number 87
_symmetry_cell_setting 'tetragonal'
loop_
_space_group_symop_operation_xyz
x,y,z
-y,x,z
-x,-y,z
y,-x,z
-x,-y,-z
y,-x,-z
x,y,-z
-y,x,-z
1/2+x,1/2+y,1/2+z
1/2-y,1/2+x,1/2+z
1/2-x,1/2-y,1/2+z
1/2+y,1/2-x,1/2+z
1/2-x,1/2-y,1/2-z
1/2+y,1/2-x,1/2-z
1/2+x,1/2+y,1/2-z
1/2-y,1/2+x,1/2-z
loop_
_atom_site_type_symbol
_atom_site_label
_atom_site_fract_x
_atom_site_fract_y
_atom_site_fract_z
Si Si1 0.178310 0.176500 0.791939
Si Si2 0.291696 0.060278 0.211584
Si Si3 0.816644 0.396980 0.280371
Si Si4 0.101328 0.935098 0.000000
O O1 0.231115 0.115912 0.709870
O O2 0.160624 0.255399 0.714434
O O3 0.204208 0.187929 0.000000
O O4 0.098498 0.141643 0.827004
O O5 0.366545 0.104939 0.227298
O O6 0.299873 0.978682 0.283518
O O7 0.272718 0.051238 0.000000
O O8 0.813120 0.396969 0.500000
O O9 0.020565 0.903136 0.000000
#
# Coordination Sequence:
#
# PCOD9545693 Si02
#       4
#    16  16  16   8
#     4   8  16  29  49  70 100 127 162 200 253 295
#     4  10  20  34  52  74 101 134 170 212 257 303
#     4  10  20  34  52  74 101 134 170 212 257 303
#     4   9  14  22  44  76 104 130 158 197 252 304
#
# _framework density 22.371507999999999
#
# number of rings (size 3 to 8) (size 9 to 14) (size 15 to 20)
#    0.857    1.857    0.000    2.571    0.000    1.714 
#    0.000    2.857    0.000    0.000    0.000    0.000 
#    0.000    0.000    0.000   27.429    0.000    0.000 
#
# Total GULP energy -156044.345972 kJ/mol
# GULP energy per Si atom -5573.012356 kJ/mol
# Density = 2.232059 g / cm^3
# Si number density = 22.371508 Si / 1000 Ang^3
#
#
#
# Elastic Constant Matrix: (Units=GPa)
#
#
# Indices 1 2 3 4 5 6 
#
# 1 100.7196 26.7158 5.2624 0.0000 0.0000 0.7124
# 2 26.7158 100.7196 5.2624 0.0000 0.0000 -0.7124
# 3 5.2624 5.2624 67.4540 0.0000 0.0000 0.0000
# 4 0.0000 0.0000 0.0000 12.3709 0.0000 0.0000
# 5 0.0000 0.0000 0.0000 0.0000 12.3709 0.0000
# 6 0.7124 -0.7124 0.0000 0.0000 0.0000 35.0836
#
#
#
# Elastic Compliance Matrix: (Units=1/GPa)
#
#
# Indices 1 2 3 4 5 6 
#
# 1 0.010708 -0.002810 -0.000616 0.000000 0.000000 -0.000275
# 2 -0.002810 0.010708 -0.000616 0.000000 0.000000 0.000275
# 3 -0.000616 -0.000616 0.014921 0.000000 0.000000 0.000000
# 4 0.000000 0.000000 0.000000 0.080835 0.000000 0.000000
# 5 0.000000 0.000000 0.000000 0.000000 0.080835 0.000000
# 6 -0.000275 0.000275 0.000000 0.000000 0.000000 0.028514
#
#
# Mechanical properties :
#
#
# Convention : Reuss Voigt Hill
#
# Bulk Modulus (GPa) = 35.39520 38.15272 36.77396
# Shear Modulus (GPa) = 20.48984 27.40859 23.94922
#
# Velocity S-wave (km/s) = 3.02965 3.50402 3.27543
# Velocity P-wave (km/s) = 5.30040 5.78464 5.54781
#
# Compressibility (1/GPa) = 0.02825242
#
# Stress axis : x y z
#
# Youngs Moduli (GPa) = 93.38768 93.38768 67.01935
#
# Poissons Ratio (x) = 0.26242 0.04129
# Poissons Ratio (y) = 0.26242 0.04129
# Poissons Ratio (z) = 0.05754 0.05754
#
# Static dielectric constant tensor:
#      x y z
#    x 1.837630 0.000000 0.000000 
#    y 0.000000 1.837630 0.000000 
#    z 0.000000 0.000000 1.895580 
# 
# From -- ./inp_files/720.got.cif
#   From: 2010.05.17/outbox.cif.g08.bks.cpg/sg87_1_cif.got.tgz:720.got - 2010.06.03 19:07:00.
