data_PCOD9545291
_publ_section_title
;
Structure prediction by ZEFSAII (Michael W. Deem and Ramdas Pophale) SiO2 
 PCOD9545291
Probable space group: P 42/N
;
_chemical_formula_sum "Si O2"
_cell_formula_units_Z 34
_cell_length_a 15.658120
_cell_length_b 15.658120
_cell_length_c 6.184379
_cell_angle_alpha 90.000000
_cell_angle_beta 90.000000
_cell_angle_gamma 90.000000
_cell_volume 1516.265770
_symmetry_space_group_name_H-M "P 42/N"
_symmetry_group_IT_number 86
_space_group.IT_coordinate_system_code '2'
_symmetry_cell_setting 'tetragonal'
loop_
_space_group_symop_operation_xyz
x,y,z
-y,1/2+x,1/2+z
1/2-x,1/2-y,z
1/2+y,-x,1/2+z
-x,-y,-z
y,1/2-x,1/2-z
1/2+x,1/2+y,-z
1/2-y,x,1/2-z
loop_
_atom_site_type_symbol
_atom_site_label
_atom_site_fract_x
_atom_site_fract_y
_atom_site_fract_z
Si Si1 0.115598 0.922654 0.910123
Si Si2 0.935074 0.519401 0.196648
Si Si3 0.250000 0.250000 0.750000
Si Si4 0.370360 0.227097 0.363964
Si Si5 0.039922 0.785204 0.577761
O O1 0.082315 0.849858 0.745007
O O2 0.100241 0.017172 0.805226
O O3 0.214543 0.902956 0.960244
O O4 0.053853 0.926561 0.119471
O O5 0.841830 0.516136 0.089063
O O6 0.000000 0.500000 0.000000
O O7 0.327463 0.219907 0.598308
O O8 0.319666 0.159279 0.221535
O O9 0.469497 0.223014 0.317525
#
# Coordination Sequence:
#
# PCOD9545291 Si02
#       5
#     8   8   2   8   8
#     4  10  24  44  66 100 134 179 226 283 337 403
#     4   9  22  43  66  99 128 174 227 273 344 402
#     4   8  18  36  52  90 132 176 210 272 348 390
#     4   9  21  36  57  95 133 170 216 274 339 402
#     4  11  24  41  69  95 136 180 224 284 335 415
#
# _framework density 22.42351
#
# number of rings (size 3 to 8) (size 9 to 14) (size 15 to 20)
#    0.000    2.588    0.000    0.000   13.176    5.647 
#    0.000    3.529    0.000    0.000    0.000    0.000 
#    0.000    0.000    0.000    0.000    0.000    0.000 
#
# Total GULP energy -189462.137869 kJ/mol
# GULP energy per Si atom -5572.415820 kJ/mol
# Density = 2.237247 g / cm^3
# Si number density = 22.423510 Si / 1000 Ang^3
#
#
#
# Elastic Constant Matrix: (Units=GPa)
#
#
# Indices 1 2 3 4 5 6 
#
# 1 92.7507 25.2271 43.5558 0.0000 0.0000 7.4676
# 2 25.2271 92.7507 43.5558 0.0000 0.0000 -7.4676
# 3 43.5558 43.5558 106.8264 0.0000 0.0000 0.0000
# 4 0.0000 0.0000 0.0000 23.0339 0.0000 0.0000
# 5 0.0000 0.0000 0.0000 0.0000 23.0339 0.0000
# 6 7.4676 -7.4676 0.0000 0.0000 0.0000 20.6841
#
#
#
# Elastic Compliance Matrix: (Units=1/GPa)
#
#
# Indices 1 2 3 4 5 6 
#
# 1 0.014111 -0.001984 -0.004945 0.000000 0.000000 -0.005811
# 2 -0.001984 0.014111 -0.004945 0.000000 0.000000 0.005811
# 3 -0.004945 -0.004945 0.013393 0.000000 0.000000 0.000000
# 4 0.000000 0.000000 0.000000 0.043414 0.000000 0.000000
# 5 0.000000 0.000000 0.000000 0.000000 0.043414 0.000000
# 6 -0.005811 0.005811 0.000000 0.000000 0.000000 0.052542
#
#
# Mechanical properties :
#
#
# Convention : Reuss Voigt Hill
#
# Bulk Modulus (GPa) = 55.96257 57.44499 56.70378
# Shear Modulus (GPa) = 23.73183 25.34968 24.54076
#
# Velocity S-wave (km/s) = 3.25675 3.36593 3.31179
# Velocity P-wave (km/s) = 6.25725 6.38591 6.32191
#
# Compressibility (1/GPa) = 0.01786909
#
# Stress axis : x y z
#
# Youngs Moduli (GPa) = 70.86687 70.86687 74.66601
#
# Poissons Ratio (x) = 0.14059 0.36919
# Poissons Ratio (y) = 0.14059 0.36919
# Poissons Ratio (z) = 0.35040 0.35040
#
# Static dielectric constant tensor:
#      x y z
#    x 1.900560 0.000000 0.000000 
#    y 0.000000 1.900560 0.000000 
#    z 0.000000 0.000000 1.889880 
# 
# From -- ./inp_files/270.got.cif
#   From: 2010.05.17/outbox.cif.g08.bks.cpg/sg86_1_cif.got.tgz:270.got - 2010.06.03 19:03:11.
