data_PCOD9545869
_publ_section_title
;
Structure prediction by ZEFSAII (Michael W. Deem and Ramdas Pophale) SiO2 
 PCOD9545869
Probable space group: I 4/M
;
_chemical_formula_sum "Si O2"
_cell_formula_units_Z 80
_cell_length_a 12.520880
_cell_length_b 12.520880
_cell_length_c 28.046521
_cell_angle_alpha 90.000000
_cell_angle_beta 90.000000
_cell_angle_gamma 90.000000
_cell_volume 4396.921418
_symmetry_space_group_name_H-M "I 4/M"
_symmetry_group_IT_number 87
_symmetry_cell_setting 'tetragonal'
loop_
_space_group_symop_operation_xyz
x,y,z
-y,x,z
-x,-y,z
y,-x,z
-x,-y,-z
y,-x,-z
x,y,-z
-y,x,-z
1/2+x,1/2+y,1/2+z
1/2-y,1/2+x,1/2+z
1/2-x,1/2-y,1/2+z
1/2+y,1/2-x,1/2+z
1/2-x,1/2-y,1/2-z
1/2+y,1/2-x,1/2-z
1/2+x,1/2+y,1/2-z
1/2-y,1/2+x,1/2-z
loop_
_atom_site_type_symbol
_atom_site_label
_atom_site_fract_x
_atom_site_fract_y
_atom_site_fract_z
Si Si1 0.341659 0.941965 0.232196
Si Si2 0.232205 0.620776 0.097418
Si Si3 0.994760 0.628636 0.875236
Si Si4 0.839771 0.080208 0.699408
Si Si5 0.299179 0.115751 0.444033
O O1 0.446449 0.870152 0.241162
O O2 0.325762 0.965952 0.176590
O O3 0.239056 0.892479 0.257461
O O4 0.282737 0.606966 0.149787
O O5 0.229043 0.504790 0.072516
O O6 0.305197 0.702378 0.068335
O O7 0.110805 0.660110 0.105188
O O8 0.901739 0.649678 0.912992
O O9 0.000000 0.500000 0.868043
O O10 0.953624 0.137175 0.701341
O O11 0.322557 0.116173 0.500000
#
# Coordination Sequence:
#
# PCOD9545869 Si02
#       5
#    16  16  16  16  16
#     4  11  19  34  58  86 112 149 196 230 276 346
#     4  11  21  39  60  86 119 155 195 243 298 350
#     4  10  21  38  60  87 118 151 200 248 288 346
#     4  11  23  37  54  84 125 157 184 232 294 358
#     4  11  24  39  60  87 116 155 200 246 300 349
#
# _framework density 18.19455
#
# number of rings (size 3 to 8) (size 9 to 14) (size 15 to 20)
#    0.000    1.200    6.000    1.800    0.000    7.200 
#    0.000    1.000    0.000    0.600    0.000    1.400 
#    0.000    0.000    0.000    0.000    0.000    0.000 
#
# Total GULP energy -223565.784672 kJ/mol
# GULP energy per Si atom -5589.144617 kJ/mol
# Density = 1.815314 g / cm^3
# Si number density = 18.194550 Si / 1000 Ang^3
#
#
#
# Elastic Constant Matrix: (Units=GPa)
#
#
# Indices 1 2 3 4 5 6 
#
# 1 68.3354 18.7607 30.2905 0.0000 0.0000 5.2537
# 2 18.7607 68.3354 30.2905 0.0000 0.0000 -5.2537
# 3 30.2905 30.2905 129.3117 0.0000 0.0000 0.0000
# 4 0.0000 0.0000 0.0000 6.8496 0.0000 0.0000
# 5 0.0000 0.0000 0.0000 0.0000 6.8496 0.0000
# 6 5.2537 -5.2537 0.0000 0.0000 0.0000 1.7310
#
#
#
# Elastic Compliance Matrix: (Units=1/GPa)
#
#
# Indices 1 2 3 4 5 6 
#
# 1 0.035132 -0.021415 -0.003213 0.000000 0.000000 -0.171623
# 2 -0.021415 0.035132 -0.003213 0.000000 0.000000 0.171623
# 3 -0.003213 -0.003213 0.009238 0.000000 0.000000 0.000000
# 4 0.000000 0.000000 0.000000 0.145995 0.000000 0.000000
# 5 0.000000 0.000000 0.000000 0.000000 0.145995 0.000000
# 6 -0.171623 0.171623 0.000000 0.000000 0.000000 1.619458
#
#
# Mechanical properties :
#
#
# Convention : Reuss Voigt Hill
#
# Bulk Modulus (GPa) = 41.98267 47.18512 44.58389
# Shear Modulus (GPa) = 2.43360 15.52875 8.98117
#
# Velocity S-wave (km/s) = 1.15778 2.92461 2.22416
# Velocity P-wave (km/s) = 4.99116 6.11510 5.58149
#
# Compressibility (1/GPa) = 0.02381935
#
# Stress axis : x y z
#
# Youngs Moduli (GPa) = 28.46424 28.46424 108.24270
#
# Poissons Ratio (x) = 0.60957 0.34778
# Poissons Ratio (y) = 0.60957 0.34778
# Poissons Ratio (z) = 0.09146 0.09146
#
# Static dielectric constant tensor:
#      x y z
#    x 1.626430 0.000000 0.000000 
#    y 0.000000 1.626430 0.000000 
#    z 0.000000 0.000000 1.594300 
# 
# From -- ./inp_files/6488.got.cif
#   From: 2010.05.17/outbox.cif.g08.bks.cpg/sg87_4_cif.got.tgz:6488.got - 2010.06.03 19:07:00.
