data_PCOD9545998
_publ_section_title
;
Structure prediction by ZEFSAII (Michael W. Deem and Ramdas Pophale) SiO2 
 PCOD9545998
Probable space group: I 4/M
;
_chemical_formula_sum "Si O2"
_cell_formula_units_Z 88
_cell_length_a 12.025703
_cell_length_b 12.025703
_cell_length_c 27.467997
_cell_angle_alpha 90.000000
_cell_angle_beta 90.000000
_cell_angle_gamma 90.000000
_cell_volume 3972.353953
_symmetry_space_group_name_H-M "I 4/M"
_symmetry_group_IT_number 87
_symmetry_cell_setting 'tetragonal'
loop_
_space_group_symop_operation_xyz
x,y,z
-y,x,z
-x,-y,z
y,-x,z
-x,-y,-z
y,-x,-z
x,y,-z
-y,x,-z
1/2+x,1/2+y,1/2+z
1/2-y,1/2+x,1/2+z
1/2-x,1/2-y,1/2+z
1/2+y,1/2-x,1/2+z
1/2-x,1/2-y,1/2-z
1/2+y,1/2-x,1/2-z
1/2+x,1/2+y,1/2-z
1/2-y,1/2+x,1/2-z
loop_
_atom_site_type_symbol
_atom_site_label
_atom_site_fract_x
_atom_site_fract_y
_atom_site_fract_z
Si Si1 0.167969 0.915191 0.500000
Si Si2 0.386544 0.910153 0.944648
Si Si3 0.831837 0.401268 0.088620
Si Si4 0.158369 0.402681 0.756260
Si Si5 0.777936 0.784172 0.828443
Si Si6 0.656430 0.411603 0.583855
O O1 0.241376 0.885607 0.546740
O O2 0.048035 0.856529 0.500000
O O3 0.464703 0.843731 0.907405
O O4 0.262305 0.865800 0.943486
O O5 0.379268 0.039736 0.928273
O O6 0.429023 0.902199 0.000000
O O7 0.797457 0.325594 0.133989
O O8 0.144177 0.535679 0.758879
O O9 0.198084 0.335442 0.804084
O O10 0.246419 0.367530 0.715046
O O11 0.885572 0.819615 0.859639
O O12 0.643179 0.540218 0.571914
#
# Coordination Sequence:
#
# PCOD9545998 Si02
#       6
#     8  16  16  16  16  16
#     4  11  26  43  62  96 137 186 231 286 349 410
#     4  11  23  42  68 103 138 188 244 292 337 409
#     4  11  23  42  70  99 136 186 238 288 346 415
#     4  10  24  44  72 103 136 176 237 299 365 448
#     4  11  24  42  69 104 137 182 228 296 369 425
#     4  11  24  41  64 100 143 188 228 285 360 423
#
# _framework density 22.153110999999999
#
# number of rings (size 3 to 8) (size 9 to 14) (size 15 to 20)
#    0.000    1.182    3.636    1.636    5.091    2.182 
#    0.000    0.909    0.000    4.909    0.000    0.000 
#    0.000    0.000    0.000    0.000    0.000    0.000 
#
# Total GULP energy -245732.393674 kJ/mol
# GULP energy per Si atom -5584.827129 kJ/mol
# Density = 2.210269 g / cm^3
# Si number density = 22.153111 Si / 1000 Ang^3
#
#
#
# Elastic Constant Matrix: (Units=GPa)
#
#
# Indices 1 2 3 4 5 6 
#
# 1 130.3443 26.6348 24.6830 0.0000 0.0000 6.8164
# 2 26.6348 130.3443 24.6830 0.0000 0.0000 -6.8164
# 3 24.6830 24.6830 29.9428 0.0000 0.0000 0.0000
# 4 0.0000 0.0000 0.0000 84.8030 0.0000 0.0000
# 5 0.0000 0.0000 0.0000 0.0000 84.8030 0.0000
# 6 6.8164 -6.8164 0.0000 0.0000 0.0000 3.4140
#
#
#
# Elastic Compliance Matrix: (Units=1/GPa)
#
#
# Indices 1 2 3 4 5 6 
#
# 1 0.010837 -0.002237 -0.007089 0.000000 0.000000 -0.026102
# 2 -0.002237 0.010837 -0.007089 0.000000 0.000000 0.026102
# 3 -0.007089 -0.007089 0.045084 0.000000 0.000000 0.000000
# 4 0.000000 0.000000 0.000000 0.011792 0.000000 0.000000
# 5 0.000000 0.000000 0.000000 0.000000 0.011792 0.000000
# 6 -0.026102 0.026102 0.000000 0.000000 0.000000 0.397137
#
#
# Mechanical properties :
#
#
# Convention : Reuss Voigt Hill
#
# Bulk Modulus (GPa) = 29.47438 49.18142 39.32790
# Shear Modulus (GPa) = 9.40525 48.91270 29.15898
#
# Velocity S-wave (km/s) = 2.06271 4.70397 3.63195
# Velocity P-wave (km/s) = 4.35968 7.19388 5.94806
#
# Compressibility (1/GPa) = 0.03392777
#
# Stress axis : x y z
#
# Youngs Moduli (GPa) = 92.28044 92.28044 22.18058
#
# Poissons Ratio (x) = 0.20643 0.15724
# Poissons Ratio (y) = 0.20643 0.15724
# Poissons Ratio (z) = 0.65417 0.65417
#
# Static dielectric constant tensor:
#      x y z
#    x 1.875880 0.000000 0.000000 
#    y 0.000000 1.875880 0.000000 
#    z 0.000000 0.000000 1.810640 
# 
# From -- ./inp_files/6596.got.cif
#   From: 2010.05.17/outbox.cif.g08.bks.cpg/sg87_4_cif.got.tgz:6596.got - 2010.06.03 19:07:00.
