data_PCOD9545882
_publ_section_title
;
Structure prediction by ZEFSAII (Michael W. Deem and Ramdas Pophale) SiO2 
 PCOD9545882
Probable space group: I 4/M
;
_chemical_formula_sum "Si O2"
_cell_formula_units_Z 80
_cell_length_a 13.553613
_cell_length_b 13.553613
_cell_length_c 19.873939
_cell_angle_alpha 90.000000
_cell_angle_beta 90.000000
_cell_angle_gamma 90.000000
_cell_volume 3650.851048
_symmetry_space_group_name_H-M "I 4/M"
_symmetry_group_IT_number 87
_symmetry_cell_setting 'tetragonal'
loop_
_space_group_symop_operation_xyz
x,y,z
-y,x,z
-x,-y,z
y,-x,z
-x,-y,-z
y,-x,-z
x,y,-z
-y,x,-z
1/2+x,1/2+y,1/2+z
1/2-y,1/2+x,1/2+z
1/2-x,1/2-y,1/2+z
1/2+y,1/2-x,1/2+z
1/2-x,1/2-y,1/2-z
1/2+y,1/2-x,1/2-z
1/2+x,1/2+y,1/2-z
1/2-y,1/2+x,1/2-z
loop_
_atom_site_type_symbol
_atom_site_label
_atom_site_fract_x
_atom_site_fract_y
_atom_site_fract_z
Si Si1 0.467217 0.218461 0.310226
Si Si2 0.116314 0.341351 0.667784
Si Si3 0.370366 0.598572 0.401061
Si Si4 0.432868 0.882717 0.921786
Si Si5 0.217736 0.773110 0.571452
O O1 0.584271 0.206566 0.317952
O O2 0.437002 0.178446 0.237822
O O3 0.419680 0.324838 0.325772
O O4 0.430797 0.143886 0.369055
O O5 0.161132 0.244900 0.634253
O O6 0.039211 0.385257 0.613220
O O7 0.368021 0.481221 0.419628
O O8 0.294616 0.679817 0.429322
O O9 0.390865 0.771516 0.924208
O O10 0.428717 0.917451 0.000000
O O11 0.231917 0.825807 0.500000
#
# Coordination Sequence:
#
# PCOD9545882 Si02
#       5
#    16  16  16  16  16
#     4  11  23  37  63  93 124 165 213 254 318 381
#     4  12  22  40  64  91 128 167 212 264 315 375
#     4  10  21  40  60  86 123 160 202 253 307 371
#     4  10  23  40  61  92 128 164 211 267 315 373
#     4  10  23  41  63  93 124 168 217 254 319 382
#
# _framework density 21.912699
#
# number of rings (size 3 to 8) (size 9 to 14) (size 15 to 20)
#    0.000    1.400    4.000    1.200    0.000    8.000 
#    0.000    1.000    0.000    0.600    0.000    2.800 
#    0.000    0.000    0.000    0.000    0.000    0.000 
#
# Total GULP energy -222715.361223 kJ/mol
# GULP energy per Si atom -5567.884031 kJ/mol
# Density = 2.186282 g / cm^3
# Si number density = 21.912699 Si / 1000 Ang^3
#
#
#
# Elastic Constant Matrix: (Units=GPa)
#
#
# Indices 1 2 3 4 5 6 
#
# 1 52.6702 7.0077 21.2273 0.0000 0.0000 8.6144
# 2 7.0077 52.6702 21.2273 0.0000 0.0000 -8.6144
# 3 21.2273 21.2273 159.0102 0.0000 0.0000 0.0000
# 4 0.0000 0.0000 0.0000 15.9126 0.0000 0.0000
# 5 0.0000 0.0000 0.0000 0.0000 15.9126 0.0000
# 6 8.6144 -8.6144 0.0000 0.0000 0.0000 34.8069
#
#
#
# Elastic Compliance Matrix: (Units=1/GPa)
#
#
# Indices 1 2 3 4 5 6 
#
# 1 0.021335 -0.002820 -0.002472 0.000000 0.000000 -0.005978
# 2 -0.002820 0.021335 -0.002472 0.000000 0.000000 0.005978
# 3 -0.002472 -0.002472 0.006949 0.000000 0.000000 0.000000
# 4 0.000000 0.000000 0.000000 0.062843 0.000000 0.000000
# 5 0.000000 0.000000 0.000000 0.000000 0.062843 0.000000
# 6 -0.005978 0.005978 0.000000 0.000000 0.000000 0.031689
#
#
# Mechanical properties :
#
#
# Convention : Reuss Voigt Hill
#
# Bulk Modulus (GPa) = 29.33240 40.36394 34.84817
# Shear Modulus (GPa) = 21.37792 27.65229 24.51511
#
# Velocity S-wave (km/s) = 3.12684 3.55622 3.34842
# Velocity P-wave (km/s) = 5.14308 5.94328 5.55760
#
# Compressibility (1/GPa) = 0.03409199
#
# Stress axis : x y z
#
# Youngs Moduli (GPa) = 46.87089 46.87089 143.90916
#
# Poissons Ratio (x) = 0.13219 0.35570
# Poissons Ratio (y) = 0.13219 0.35570
# Poissons Ratio (z) = 0.11585 0.11585
#
# Static dielectric constant tensor:
#      x y z
#    x 1.830370 0.000000 0.000000 
#    y 0.000000 1.830370 0.000000 
#    z 0.000000 0.000000 1.837980 
# 
# From -- ./inp_files/5060.got.cif
#   From: 2010.05.17/outbox.cif.g08.bks.cpg/sg87_3_cif.got.tgz:5060.got - 2010.06.03 19:07:00.
