data_PCOD9545383
_publ_section_title
;
Structure prediction by ZEFSAII (Michael W. Deem and Ramdas Pophale) SiO2 
 PCOD9545383
Probable space group: P 42/N
;
_chemical_formula_sum "Si O2"
_cell_formula_units_Z 18
_cell_length_a 5.407812
_cell_length_b 5.407812
_cell_length_c 25.155939
_cell_angle_alpha 90.000000
_cell_angle_beta 90.000000
_cell_angle_gamma 90.000000
_cell_volume 735.671113
_symmetry_space_group_name_H-M "P 42/N"
_symmetry_group_IT_number 86
_space_group.IT_coordinate_system_code '2'
_symmetry_cell_setting 'tetragonal'
loop_
_space_group_symop_operation_xyz
x,y,z
-y,1/2+x,1/2+z
1/2-x,1/2-y,z
1/2+y,-x,1/2+z
-x,-y,-z
y,1/2-x,1/2-z
1/2+x,1/2+y,-z
1/2-y,x,1/2-z
loop_
_atom_site_type_symbol
_atom_site_label
_atom_site_fract_x
_atom_site_fract_y
_atom_site_fract_z
Si Si1 0.596685 0.987803 0.326382
Si Si2 0.750000 0.750000 0.750000
Si Si3 0.999266 0.596318 0.560061
O O1 0.750000 0.250000 0.325939
O O2 0.367344 0.044120 0.288246
O O3 0.513060 0.929940 0.387187
O O4 0.750000 0.750000 0.309067
O O5 0.750000 0.750000 0.566598
O O6 0.250000 0.750000 0.562646
O O7 0.000000 0.500000 0.500000
#
# Coordination Sequence:
#
# PCOD9545383 Si02
#       3
#     8   2   8
#     4  11  28  50  79 116 159 213 274 336 412 492
#     4  12  28  52  80 112 168 212 288 336 426 488
#     4  11  23  46  75 117 158 208 262 333 407 487
#
# _framework density 24.467455000000001
#
# number of rings (size 3 to 8) (size 9 to 14) (size 15 to 20)
#    0.000    0.889    2.222    2.667    6.222    3.556 
#    0.000    0.000    0.000    0.000    0.000    0.000 
#    0.000    0.000    0.000    0.000    0.000    0.000 
#
# Total GULP energy -100754.492792 kJ/mol
# GULP energy per Si atom -5597.471822 kJ/mol
# Density = 2.441177 g / cm^3
# Si number density = 24.467455 Si / 1000 Ang^3
#
#
#
# Elastic Constant Matrix: (Units=GPa)
#
#
# Indices 1 2 3 4 5 6 
#
# 1 137.2807 54.1428 45.2417 0.0000 0.0000 3.5282
# 2 54.1428 137.2807 45.2417 0.0000 0.0000 -3.5282
# 3 45.2417 45.2417 243.2152 0.0000 0.0000 0.0000
# 4 0.0000 0.0000 0.0000 24.9231 0.0000 0.0000
# 5 0.0000 0.0000 0.0000 0.0000 24.9231 0.0000
# 6 3.5282 -3.5282 0.0000 0.0000 0.0000 63.4151
#
#
#
# Elastic Compliance Matrix: (Units=1/GPa)
#
#
# Indices 1 2 3 4 5 6 
#
# 1 0.008906 -0.003179 -0.001065 0.000000 0.000000 -0.000672
# 2 -0.003179 0.008906 -0.001065 0.000000 0.000000 0.000672
# 3 -0.001065 -0.001065 0.004508 0.000000 0.000000 0.000000
# 4 0.000000 0.000000 0.000000 0.040123 0.000000 0.000000
# 5 0.000000 0.000000 0.000000 0.000000 0.040123 0.000000
# 6 -0.000672 0.000672 0.000000 0.000000 0.000000 0.015844
#
#
# Mechanical properties :
#
#
# Convention : Reuss Voigt Hill
#
# Bulk Modulus (GPa) = 85.45899 89.66987 87.56443
# Shear Modulus (GPa) = 37.61334 47.52894 42.57114
#
# Velocity S-wave (km/s) = 3.92507 4.41220 4.17575
# Velocity P-wave (km/s) = 7.45285 7.91738 7.68863
#
# Compressibility (1/GPa) = 0.01170152
#
# Stress axis : x y z
#
# Youngs Moduli (GPa) = 112.27814 112.27814 221.83009
#
# Poissons Ratio (x) = 0.35691 0.23634
# Poissons Ratio (y) = 0.35691 0.23634
# Poissons Ratio (z) = 0.11962 0.11962
#
# Static dielectric constant tensor:
#      x y z
#    x 1.954320 0.000000 0.000000 
#    y 0.000000 1.954320 0.000000 
#    z 0.000000 0.000000 2.051510 
# 
# From -- ./inp_files/3715.got.cif
#   From: 2010.05.17/outbox.cif.g08.bks.cpg/sg86_2_cif.got.tgz:3715.got - 2010.06.03 19:03:11.
