data_PCOD9545809
_publ_section_title
;
Structure prediction by ZEFSAII (Michael W. Deem and Ramdas Pophale) SiO2 
 PCOD9545809
Probable space group: I 4/M
;
_chemical_formula_sum "Si O2"
_cell_formula_units_Z 96
_cell_length_a 24.689207
_cell_length_b 24.689207
_cell_length_c 7.799102
_cell_angle_alpha 90.000000
_cell_angle_beta 90.000000
_cell_angle_gamma 90.000000
_cell_volume 4753.996768
_symmetry_space_group_name_H-M "I 4/M"
_symmetry_group_IT_number 87
_symmetry_cell_setting 'tetragonal'
loop_
_space_group_symop_operation_xyz
x,y,z
-y,x,z
-x,-y,z
y,-x,z
-x,-y,-z
y,-x,-z
x,y,-z
-y,x,-z
1/2+x,1/2+y,1/2+z
1/2-y,1/2+x,1/2+z
1/2-x,1/2-y,1/2+z
1/2+y,1/2-x,1/2+z
1/2-x,1/2-y,1/2-z
1/2+y,1/2-x,1/2-z
1/2+x,1/2+y,1/2-z
1/2-y,1/2+x,1/2-z
loop_
_atom_site_type_symbol
_atom_site_label
_atom_site_fract_x
_atom_site_fract_y
_atom_site_fract_z
Si Si1 0.705931 0.544686 0.706484
Si Si2 0.484093 0.585923 0.709336
Si Si3 0.335163 0.236097 0.207254
Si Si4 0.205458 0.545064 0.792702
Si Si5 0.163604 0.764316 0.794613
Si Si6 0.517394 0.913826 0.203075
O O1 0.701882 0.548761 0.500000
O O2 0.646333 0.527977 0.770249
O O3 0.750256 0.499552 0.746739
O O4 0.724155 0.603647 0.772535
O O5 0.438651 0.542139 0.761746
O O6 0.484236 0.586599 0.500000
O O7 0.395290 0.222726 0.268858
O O8 0.290401 0.192697 0.270481
O O9 0.313162 0.295033 0.257905
O O10 0.335327 0.233923 0.000000
O O11 0.145864 0.528835 0.725970
O O12 0.202906 0.547556 0.000000
O O13 0.159641 0.758596 0.000000
O O14 0.458708 0.938339 0.246003
O O15 0.520065 0.909879 0.000000
#
# Coordination Sequence:
#
# PCOD9545809 Si02
#       6
#    16  16  16  16  16  16
#     4  10  21  33  55  84 108 138 179 227 269 315
#     4   8  15  29  49  75 107 138 169 213 268 317
#     4   9  19  37  56  75 107 148 179 216 271 322
#     4  10  23  38  54  79 112 147 181 219 269 327
#     4   9  19  35  56  82 107 136 179 227 271 316
#     4  10  21  38  60  83 110 144 182 225 273 326
#
# _framework density 20.193534
#
# number of rings (size 3 to 8) (size 9 to 14) (size 15 to 20)
#    0.000    2.667    0.000    1.500    4.667    2.667 
#    0.000    0.000    0.000    0.000    0.000    1.167 
#    0.000    0.000    0.000    0.000    0.000    0.000 
#
# Total GULP energy -267920.408690 kJ/mol
# GULP energy per Si atom -5581.675181 kJ/mol
# Density = 2.014757 g / cm^3
# Si number density = 20.193534 Si / 1000 Ang^3
#
#
#
# Elastic Constant Matrix: (Units=GPa)
#
#
# Indices 1 2 3 4 5 6 
#
# 1 203.9856 134.0443 1.3730 0.0000 0.0000 0.4326
# 2 134.0443 203.9856 1.3730 0.0000 0.0000 -0.4326
# 3 1.3730 1.3730 23.6422 0.0000 0.0000 0.0000
# 4 0.0000 0.0000 0.0000 14.1516 0.0000 0.0000
# 5 0.0000 0.0000 0.0000 0.0000 14.1516 0.0000
# 6 0.4326 -0.4326 0.0000 0.0000 0.0000 14.4100
#
#
#
# Elastic Compliance Matrix: (Units=1/GPa)
#
#
# Indices 1 2 3 4 5 6 
#
# 1 0.008631 -0.005672 -0.000172 0.000000 0.000000 -0.000429
# 2 -0.005672 0.008631 -0.000172 0.000000 0.000000 0.000429
# 3 -0.000172 -0.000172 0.042317 0.000000 0.000000 0.000000
# 4 0.000000 0.000000 0.000000 0.070663 0.000000 0.000000
# 5 0.000000 0.000000 0.000000 0.000000 0.070663 0.000000
# 6 -0.000429 0.000429 0.000000 0.000000 0.000000 0.069422
#
#
# Mechanical properties :
#
#
# Convention : Reuss Voigt Hill
#
# Bulk Modulus (GPa) = 21.03093 78.35490 49.69292
# Shear Modulus (GPa) = 16.76676 28.19751 22.48214
#
# Velocity S-wave (km/s) = 2.88462 3.74085 3.34028
# Velocity P-wave (km/s) = 4.64026 7.58583 6.28796
#
# Compressibility (1/GPa) = 0.04754901
#
# Stress axis : x y z
#
# Youngs Moduli (GPa) = 115.85652 115.85652 23.63109
#
# Poissons Ratio (x) = 0.65710 0.00406
# Poissons Ratio (y) = 0.65710 0.00406
# Poissons Ratio (z) = 0.01991 0.01991
#
# Static dielectric constant tensor:
#      x y z
#    x 1.701610 0.000000 0.000000 
#    y 0.000000 1.701610 0.000000 
#    z 0.000000 0.000000 1.740350 
# 
# From -- ./inp_files/1346.got.cif
#   From: 2010.05.17/outbox.cif.g08.bks.cpg/sg87_1_cif.got.tgz:1346.got - 2010.06.03 19:07:00.
