data_PCOD9545231
_publ_section_title
;
Structure prediction by ZEFSAII (Michael W. Deem and Ramdas Pophale) SiO2 
 PCOD9545231
Probable space group: P 42/N
;
_chemical_formula_sum "Si O2"
_cell_formula_units_Z 22
_cell_length_a 5.631780
_cell_length_b 5.631780
_cell_length_c 26.621190
_cell_angle_alpha 90.000000
_cell_angle_beta 90.000000
_cell_angle_gamma 90.000000
_cell_volume 844.342845
_symmetry_space_group_name_H-M "P 42/N"
_symmetry_group_IT_number 86
_space_group.IT_coordinate_system_code '2'
_symmetry_cell_setting 'tetragonal'
loop_
_space_group_symop_operation_xyz
x,y,z
-y,1/2+x,1/2+z
1/2-x,1/2-y,z
1/2+y,-x,1/2+z
-x,-y,-z
y,1/2-x,1/2-z
1/2+x,1/2+y,-z
1/2-y,x,1/2-z
loop_
_atom_site_type_symbol
_atom_site_label
_atom_site_fract_x
_atom_site_fract_y
_atom_site_fract_z
Si Si1 0.250000 0.250000 0.250000
Si Si2 0.622506 0.999346 0.314179
Si Si3 0.250000 0.250000 0.005831
Si Si4 0.472666 0.870490 0.420779
O O1 0.372574 0.051926 0.286165
O O2 0.750000 0.250000 0.303979
O O3 0.750000 0.750000 0.300043
O O4 0.615927 0.975923 0.374840
O O5 0.172090 0.434388 0.961117
O O6 0.420917 0.391097 0.042541
O O7 0.250000 0.750000 0.394427
#
# Coordination Sequence:
#
# PCOD9545231 Si02
#       4
#     2   8   4   8
#     4  12  34  56  88 116 172 224 296 370 468 532
#     4  12  32  55  86 125 171 221 294 370 451 534
#     4  10  23  40  72 113 165 216 278 331 428 514
#     4  11  24  44  73 113 162 217 278 346 425 521
#
# _framework density 26.055765000000001
#
# number of rings (size 3 to 8) (size 9 to 14) (size 15 to 20)
#    0.000    0.727    1.818    2.182   15.273    5.818 
#    0.000    0.000    0.000    0.000    0.000    0.000 
#    0.000    0.000    0.000    0.000    0.000    0.000 
#
# Total GULP energy -122533.708659 kJ/mol
# GULP energy per Si atom -5569.714030 kJ/mol
# Density = 2.599646 g / cm^3
# Si number density = 26.055765 Si / 1000 Ang^3
#
#
#
# Elastic Constant Matrix: (Units=GPa)
#
#
# Indices 1 2 3 4 5 6 
#
# 1 98.7143 48.5989 67.7392 0.0000 0.0000 0.6911
# 2 48.5989 98.7143 67.7392 0.0000 0.0000 -0.6911
# 3 67.7392 67.7392 231.4458 0.0000 0.0000 0.0000
# 4 0.0000 0.0000 0.0000 44.2700 0.0000 0.0000
# 5 0.0000 0.0000 0.0000 0.0000 44.2700 0.0000
# 6 0.6911 -0.6911 0.0000 0.0000 0.0000 47.4917
#
#
#
# Elastic Compliance Matrix: (Units=1/GPa)
#
#
# Indices 1 2 3 4 5 6 
#
# 1 0.014625 -0.005337 -0.002719 0.000000 0.000000 -0.000290
# 2 -0.005337 0.014625 -0.002719 0.000000 0.000000 0.000290
# 3 -0.002719 -0.002719 0.005912 0.000000 0.000000 0.000000
# 4 0.000000 0.000000 0.000000 0.022589 0.000000 0.000000
# 5 0.000000 0.000000 0.000000 0.000000 0.022589 0.000000
# 6 -0.000290 0.000290 0.000000 0.000000 0.000000 0.021065
#
#
# Mechanical properties :
#
#
# Convention : Reuss Voigt Hill
#
# Bulk Modulus (GPa) = 73.45018 88.55879 81.00449
# Shear Modulus (GPa) = 39.21872 43.52616 41.37244
#
# Velocity S-wave (km/s) = 3.88388 4.09161 3.98910
# Velocity P-wave (km/s) = 6.95439 7.50890 7.23696
#
# Compressibility (1/GPa) = 0.01361467
#
# Stress axis : x y z
#
# Youngs Moduli (GPa) = 68.37536 68.37536 169.14853
#
# Poissons Ratio (x) = 0.36490 0.45983
# Poissons Ratio (y) = 0.36490 0.45983
# Poissons Ratio (z) = 0.18588 0.18588
#
# Static dielectric constant tensor:
#      x y z
#    x 2.274080 0.000000 0.000000 
#    y 0.000000 2.274080 0.000000 
#    z 0.000000 0.000000 1.886740 
# 
# From -- ./inp_files/4970.got.cif
#   From: 2010.05.17/outbox.cif.g08.bks.cpg/sg86_3_cif.got.tgz:4970.got - 2010.06.03 19:03:11.
