data_PCOD9545858
_publ_section_title
;
Structure prediction by ZEFSAII (Michael W. Deem and Ramdas Pophale) SiO2 
 PCOD9545858
Probable space group: I 4/M
;
_chemical_formula_sum "Si O2"
_cell_formula_units_Z 72
_cell_length_a 21.201987
_cell_length_b 21.201987
_cell_length_c 7.726304
_cell_angle_alpha 90.000000
_cell_angle_beta 90.000000
_cell_angle_gamma 90.000000
_cell_volume 3473.161032
_symmetry_space_group_name_H-M "I 4/M"
_symmetry_group_IT_number 87
_symmetry_cell_setting 'tetragonal'
loop_
_space_group_symop_operation_xyz
x,y,z
-y,x,z
-x,-y,z
y,-x,z
-x,-y,-z
y,-x,-z
x,y,-z
-y,x,-z
1/2+x,1/2+y,1/2+z
1/2-y,1/2+x,1/2+z
1/2-x,1/2-y,1/2+z
1/2+y,1/2-x,1/2+z
1/2-x,1/2-y,1/2-z
1/2+y,1/2-x,1/2-z
1/2+x,1/2+y,1/2-z
1/2-y,1/2+x,1/2-z
loop_
_atom_site_type_symbol
_atom_site_label
_atom_site_fract_x
_atom_site_fract_y
_atom_site_fract_z
Si Si1 0.087844 0.664069 0.789999
Si Si2 0.603520 0.478438 0.000000
Si Si3 0.682609 0.055391 0.298003
Si Si4 0.774715 0.820045 0.207666
Si Si5 0.081675 0.177921 0.197798
O O1 0.127661 0.602480 0.739135
O O2 0.127666 0.725142 0.730350
O O3 0.017223 0.664242 0.721476
O O4 0.084446 0.665763 0.000000
O O5 0.572032 0.546703 0.000000
O O6 0.644596 0.465722 0.170768
O O7 0.694922 0.069850 0.500000
O O8 0.747516 0.068488 0.200165
O O9 0.750000 0.750000 0.250000
O O10 0.846537 0.830420 0.265148
O O11 0.776419 0.824052 0.000000
O O12 0.076332 0.154583 0.000000
#
# Coordination Sequence:
#
# PCOD9545858 Si02
#       5
#    16   8  16  16  16
#     4  10  23  41  62  91 131 174 225 278 334 403
#     4  11  28  50  70  98 138 181 225 273 333 407
#     4  11  23  41  64  94 133 178 224 278 336 402
#     4  10  21  37  62  94 127 165 211 276 337 389
#     4  11  24  42  70 102 135 173 225 282 338 399
#
# _framework density 20.730395999999999
#
# number of rings (size 3 to 8) (size 9 to 14) (size 15 to 20)
#    0.000    1.444    3.333    0.667    4.667    4.000 
#    0.000    3.333    0.000    0.000    0.000    0.000 
#    0.000    0.000    0.000    0.000    0.000    0.000 
#
# Total GULP energy -201344.248778 kJ/mol
# GULP energy per Si atom -5592.895799 kJ/mol
# Density = 2.068321 g / cm^3
# Si number density = 20.730396 Si / 1000 Ang^3
#
#
#
# Elastic Constant Matrix: (Units=GPa)
#
#
# Indices 1 2 3 4 5 6 
#
# 1 98.8950 34.5735 9.2841 0.0000 0.0000 -9.5200
# 2 34.5735 98.8950 9.2841 0.0000 0.0000 9.5200
# 3 9.2841 9.2841 66.4197 0.0000 0.0000 0.0000
# 4 0.0000 0.0000 0.0000 17.9059 0.0000 0.0000
# 5 0.0000 0.0000 0.0000 0.0000 17.9059 0.0000
# 6 -9.5200 9.5200 0.0000 0.0000 0.0000 23.0462
#
#
#
# Elastic Compliance Matrix: (Units=1/GPa)
#
#
# Indices 1 2 3 4 5 6 
#
# 1 0.012677 -0.005036 -0.001068 0.000000 0.000000 0.007317
# 2 -0.005036 0.012677 -0.001068 0.000000 0.000000 -0.007317
# 3 -0.001068 -0.001068 0.015354 0.000000 0.000000 0.000000
# 4 0.000000 0.000000 0.000000 0.055847 0.000000 0.000000
# 5 0.000000 0.000000 0.000000 0.000000 0.055847 0.000000
# 6 0.007317 -0.007317 0.000000 0.000000 0.000000 0.049436
#
#
# Mechanical properties :
#
#
# Convention : Reuss Voigt Hill
#
# Bulk Modulus (GPa) = 37.93034 41.16593 39.54814
# Shear Modulus (GPa) = 22.22506 25.84280 24.03393
#
# Velocity S-wave (km/s) = 3.27785 3.53457 3.40863
# Velocity P-wave (km/s) = 5.71510 6.04636 5.88306
#
# Compressibility (1/GPa) = 0.02636412
#
# Stress axis : x y z
#
# Youngs Moduli (GPa) = 78.88367 78.88367 65.12804
#
# Poissons Ratio (x) = 0.39725 0.06956
# Poissons Ratio (y) = 0.39725 0.06956
# Poissons Ratio (z) = 0.08425 0.08425
#
# Static dielectric constant tensor:
#      x y z
#    x 1.713900 0.000000 0.000000 
#    y 0.000000 1.713900 0.000000 
#    z 0.000000 0.000000 1.765600 
# 
# From -- ./inp_files/1037.got.cif
#   From: 2010.05.17/outbox.cif.g08.bks.cpg/sg87_1_cif.got.tgz:1037.got - 2010.06.03 19:07:00.
