data_PCOD9545280
_publ_section_title
;
Structure prediction by ZEFSAII (Michael W. Deem and Ramdas Pophale) SiO2 
 PCOD9545280
Probable space group: P 42/N
;
_chemical_formula_sum "Si O2"
_cell_formula_units_Z 24
_cell_length_a 8.563470
_cell_length_b 8.563470
_cell_length_c 14.665057
_cell_angle_alpha 90.000000
_cell_angle_beta 90.000000
_cell_angle_gamma 90.000000
_cell_volume 1075.432895
_symmetry_space_group_name_H-M "P 42/N"
_symmetry_group_IT_number 86
_space_group.IT_coordinate_system_code '2'
_symmetry_cell_setting 'tetragonal'
loop_
_space_group_symop_operation_xyz
x,y,z
-y,1/2+x,1/2+z
1/2-x,1/2-y,z
1/2+y,-x,1/2+z
-x,-y,-z
y,1/2-x,1/2-z
1/2+x,1/2+y,-z
1/2-y,x,1/2-z
loop_
_atom_site_type_symbol
_atom_site_label
_atom_site_fract_x
_atom_site_fract_y
_atom_site_fract_z
Si Si1 0.427169 0.034232 0.364729
Si Si2 0.346002 0.912737 0.167637
Si Si3 0.255374 0.064401 0.535135
O O1 0.455647 0.220085 0.357999
O O2 0.283583 0.001381 0.432662
O O3 0.412072 0.960618 0.265452
O O4 0.584000 0.972384 0.411587
O O5 0.250000 0.750000 0.176189
O O6 0.476130 0.879635 0.090990
O O7 0.250000 0.250000 0.534490
#
# Coordination Sequence:
#
# PCOD9545280 Si02
#       3
#     8   8   8
#     4  10  24  43  65  99 136 179 231 285 355 411
#     4  10  24  42  67 101 137 180 235 291 344 420
#     4  10  24  42  68  97 136 184 233 288 348 413
#
# _framework density 22.316596000000001
#
# number of rings (size 3 to 8) (size 9 to 14) (size 15 to 20)
#    0.000    2.000    0.000    0.000   14.000    8.000 
#    0.000    0.000    0.000    0.000    0.000    0.000 
#    0.000    0.000    0.000    0.000    0.000    0.000 
#
# Total GULP energy -134209.286698 kJ/mol
# GULP energy per Si atom -5592.053612 kJ/mol
# Density = 2.226580 g / cm^3
# Si number density = 22.316596 Si / 1000 Ang^3
#
#
#
# Elastic Constant Matrix: (Units=GPa)
#
#
# Indices 1 2 3 4 5 6 
#
# 1 63.3963 4.6316 41.9077 0.0000 0.0000 5.2495
# 2 4.6316 63.3963 41.9077 0.0000 0.0000 -5.2495
# 3 41.9077 41.9077 168.5030 0.0000 0.0000 0.0000
# 4 0.0000 0.0000 0.0000 27.9864 0.0000 0.0000
# 5 0.0000 0.0000 0.0000 0.0000 27.9864 0.0000
# 6 5.2495 -5.2495 0.0000 0.0000 0.0000 21.5257
#
#
#
# Elastic Compliance Matrix: (Units=1/GPa)
#
#
# Indices 1 2 3 4 5 6 
#
# 1 0.019493 0.001701 -0.005271 0.000000 0.000000 -0.004339
# 2 0.001701 0.019493 -0.005271 0.000000 0.000000 0.004339
# 3 -0.005271 -0.005271 0.008557 0.000000 0.000000 0.000000
# 4 0.000000 0.000000 0.000000 0.035732 0.000000 0.000000
# 5 0.000000 0.000000 0.000000 0.000000 0.035732 0.000000
# 6 -0.004339 0.004339 0.000000 0.000000 0.000000 0.048572
#
#
# Mechanical properties :
#
#
# Convention : Reuss Voigt Hill
#
# Bulk Modulus (GPa) = 33.48897 52.46551 42.97724
# Shear Modulus (GPa) = 25.61281 29.28961 27.45121
#
# Velocity S-wave (km/s) = 3.39145 3.62672 3.51106
# Velocity P-wave (km/s) = 5.51133 6.41078 5.97800
#
# Compressibility (1/GPa) = 0.02986058
#
# Stress axis : x y z
#
# Youngs Moduli (GPa) = 51.29971 51.29971 116.86951
#
# Poissons Ratio (x) = -0.08726 0.61604
# Poissons Ratio (y) = -0.08726 0.61604
# Poissons Ratio (z) = 0.27041 0.27041
#
# Static dielectric constant tensor:
#      x y z
#    x 1.837420 0.000000 0.000000 
#    y 0.000000 1.837420 0.000000 
#    z 0.000000 0.000000 1.819730 
# 
# From -- ./inp_files/2550.got.cif
#   From: 2010.05.17/outbox.cif.g08.bks.cpg/sg86_2_cif.got.tgz:2550.got - 2010.06.03 19:03:11.
