data_PCOD9545978
_publ_section_title
;
Structure prediction by ZEFSAII (Michael W. Deem and Ramdas Pophale) SiO2 
 PCOD9545978
Probable space group: I 4/M
;
_chemical_formula_sum "Si O2"
_cell_formula_units_Z 72
_cell_length_a 21.460968
_cell_length_b 21.460968
_cell_length_c 7.797367
_cell_angle_alpha 90.000000
_cell_angle_beta 90.000000
_cell_angle_gamma 90.000000
_cell_volume 3591.257861
_symmetry_space_group_name_H-M "I 4/M"
_symmetry_group_IT_number 87
_symmetry_cell_setting 'tetragonal'
loop_
_space_group_symop_operation_xyz
x,y,z
-y,x,z
-x,-y,z
y,-x,z
-x,-y,-z
y,-x,-z
x,y,-z
-y,x,-z
1/2+x,1/2+y,1/2+z
1/2-y,1/2+x,1/2+z
1/2-x,1/2-y,1/2+z
1/2+y,1/2-x,1/2+z
1/2-x,1/2-y,1/2-z
1/2+y,1/2-x,1/2-z
1/2+x,1/2+y,1/2-z
1/2-y,1/2+x,1/2-z
loop_
_atom_site_type_symbol
_atom_site_label
_atom_site_fract_x
_atom_site_fract_y
_atom_site_fract_z
Si Si1 0.162564 0.595588 0.295932
Si Si2 0.099335 0.031777 0.000000
Si Si3 0.317515 0.417490 0.197726
Si Si4 0.047600 0.675735 0.293899
Si Si5 0.681212 0.724544 0.293826
O O1 0.162711 0.606925 0.500000
O O2 0.099900 0.628044 0.227003
O O3 0.163880 0.522166 0.267388
O O4 0.224503 0.630882 0.231743
O O5 0.139225 0.046883 0.831433
O O6 0.038825 0.075837 0.000000
O O7 0.245812 0.430973 0.246728
O O8 0.328031 0.343443 0.214664
O O9 0.327139 0.436510 0.000000
O O10 0.046017 0.670906 0.500000
O O11 0.676437 0.717853 0.500000
O O12 0.750000 0.750000 0.250000
#
# Coordination Sequence:
#
# PCOD9545978 Si02
#       5
#    16   8  16  16  16
#     4  10  23  40  62  90 128 172 215 268 331 394
#     4  11  28  50  70  98 138 179 221 267 335 409
#     4  11  24  43  69 100 135 171 224 279 332 399
#     4  10  23  42  60  92 131 168 219 272 324 394
#     4  11  21  38  64  96 133 169 217 280 339 394
#
# _framework density 20.048686
#
# number of rings (size 3 to 8) (size 9 to 14) (size 15 to 20)
#    0.000    1.444    3.333    0.667    4.667    4.000 
#    0.000    3.333    0.000    0.000    0.000    0.000 
#    0.000    0.000    0.000    0.000    0.000    0.000 
#
# Total GULP energy -201279.866570 kJ/mol
# GULP energy per Si atom -5591.107405 kJ/mol
# Density = 2.000305 g / cm^3
# Si number density = 20.048686 Si / 1000 Ang^3
#
#
#
# Elastic Constant Matrix: (Units=GPa)
#
#
# Indices 1 2 3 4 5 6 
#
# 1 99.3543 66.1141 36.6064 0.0000 0.0000 26.6431
# 2 66.1141 99.3543 36.6064 0.0000 0.0000 -26.6431
# 3 36.6064 36.6064 67.0658 0.0000 0.0000 0.0000
# 4 0.0000 0.0000 0.0000 26.4898 0.0000 0.0000
# 5 0.0000 0.0000 0.0000 0.0000 26.4898 0.0000
# 6 26.6431 -26.6431 0.0000 0.0000 0.0000 0.9802
#
#
#
# Elastic Compliance Matrix: (Units=1/GPa)
#
#
# Indices 1 2 3 4 5 6 
#
# 1 0.003631 0.004337 -0.004349 0.000000 0.000000 0.019207
# 2 0.004337 0.003631 -0.004349 0.000000 0.000000 -0.019207
# 3 -0.004349 -0.004349 0.019658 0.000000 0.000000 0.000000
# 4 0.000000 0.000000 0.000000 0.037750 0.000000 0.000000
# 5 0.000000 0.000000 0.000000 0.000000 0.037750 0.000000
# 6 0.019207 -0.019207 0.000000 0.000000 0.000000 -0.023963
#
#
# Mechanical properties :
#
#
# Convention : Reuss Voigt Hill
#
# Bulk Modulus (GPa) = 54.95184 60.49201 57.72192
# Shear Modulus (GPa) = 53.62242 19.22178 36.42210
#
# Velocity S-wave (km/s) = 5.17727 3.09974 4.26688
# Velocity P-wave (km/s) = 7.95032 6.56119 7.28892
#
# Compressibility (1/GPa) = 0.01819775
#
# Stress axis : x y z
#
# Youngs Moduli (GPa) = 275.44186 275.44186 50.86903
#
# Poissons Ratio (x) = -1.19464 0.22123
# Poissons Ratio (y) = -1.19464 0.22123
# Poissons Ratio (z) = 1.19789 1.19789
#
# Static dielectric constant tensor:
#      x y z
#    x 1.687640 0.000000 0.000000 
#    y 0.000000 1.687640 0.000000 
#    z 0.000000 0.000000 1.668700 
# 
# From -- ./inp_files/1091.got.cif
#   From: 2010.05.17/outbox.cif.g08.bks.cpg/sg87_1_cif.got.tgz:1091.got - 2010.06.03 19:07:00.
