data_PCOD9545582
_publ_section_title
;
Structure prediction by ZEFSAII (Michael W. Deem and Ramdas Pophale) SiO2 
 PCOD9545582
Probable space group: I 4/M
;
_chemical_formula_sum "Si O2"
_cell_formula_units_Z 112
_cell_length_a 17.614700
_cell_length_b 17.614700
_cell_length_c 21.481184
_cell_angle_alpha 90.000000
_cell_angle_beta 90.000000
_cell_angle_gamma 90.000000
_cell_volume 6665.131422
_symmetry_space_group_name_H-M "I 4/M"
_symmetry_group_IT_number 87
_symmetry_cell_setting 'tetragonal'
loop_
_space_group_symop_operation_xyz
x,y,z
-y,x,z
-x,-y,z
y,-x,z
-x,-y,-z
y,-x,-z
x,y,-z
-y,x,-z
1/2+x,1/2+y,1/2+z
1/2-y,1/2+x,1/2+z
1/2-x,1/2-y,1/2+z
1/2+y,1/2-x,1/2+z
1/2-x,1/2-y,1/2-z
1/2+y,1/2-x,1/2-z
1/2+x,1/2+y,1/2-z
1/2-y,1/2+x,1/2-z
loop_
_atom_site_type_symbol
_atom_site_label
_atom_site_fract_x
_atom_site_fract_y
_atom_site_fract_z
Si Si1 0.780662 0.504794 0.072141
Si Si2 0.249298 0.299457 0.686739
Si Si3 0.966793 0.654273 0.802498
Si Si4 0.791657 0.941599 0.245535
Si Si5 0.148118 0.700681 0.643312
Si Si6 0.412807 0.117647 0.833508
Si Si7 0.624679 0.494597 0.144592
O O1 0.792046 0.594592 0.083843
O O2 0.844075 0.460807 0.112208
O O3 0.699594 0.486023 0.103515
O O4 0.782615 0.485331 0.000000
O O5 0.250000 0.250000 0.750000
O O6 0.306634 0.369832 0.699960
O O7 0.268466 0.233784 0.637421
O O8 0.166688 0.336296 0.675151
O O9 0.885652 0.653768 0.834203
O O10 0.956829 0.624459 0.731950
O O11 0.001845 0.737398 0.791781
O O12 0.029422 0.607118 0.840087
O O13 0.745436 0.899442 0.302282
O O14 0.851995 0.992273 0.282999
O O15 0.576313 0.570379 0.131755
#
# Coordination Sequence:
#
# PCOD9545582 Si02
#       7
#    16  16  16  16  16  16  16
#     4  11  25  40  52  73 102 147 194 225 260 307
#     4   9  17  29  51  77 105 130 165 214 273 316
#     4  11  17  31  51  79 101 125 168 216 280 332
#     4   9  18  28  49  80 106 134 160 208 273 326
#     4  10  19  32  51  77 100 135 173 225 263 313
#     4  11  20  33  50  78 106 132 172 222 276 323
#     4  10  22  36  53  77 107 144 180 219 263 309
#
# _framework density 16.80387
#
# number of rings (size 3 to 8) (size 9 to 14) (size 15 to 20)
#    0.000    1.857    7.143    0.000    8.000    2.571 
#    0.000    2.143    0.000    0.000    0.000    0.000 
#    0.000    0.000    0.000    0.000    0.000    1.429 
#
# Total GULP energy -311901.579161 kJ/mol
# GULP energy per Si atom -5569.671056 kJ/mol
# Density = 1.676562 g / cm^3
# Si number density = 16.803870 Si / 1000 Ang^3
#
#
#
# Elastic Constant Matrix: (Units=GPa)
#
#
# Indices 1 2 3 4 5 6 
#
# 1 54.1648 6.5695 15.8453 0.0000 0.0000 3.9000
# 2 6.5695 54.1648 15.8453 0.0000 0.0000 -3.9000
# 3 15.8453 15.8453 43.7803 0.0000 0.0000 0.0000
# 4 0.0000 0.0000 0.0000 10.4914 0.0000 0.0000
# 5 0.0000 0.0000 0.0000 0.0000 10.4914 0.0000
# 6 3.9000 -3.9000 0.0000 0.0000 0.0000 18.4888
#
#
#
# Elastic Compliance Matrix: (Units=1/GPa)
#
#
# Indices 1 2 3 4 5 6 
#
# 1 0.021031 -0.000732 -0.007347 0.000000 0.000000 -0.004591
# 2 -0.000732 0.021031 -0.007347 0.000000 0.000000 0.004591
# 3 -0.007347 -0.007347 0.028159 0.000000 0.000000 0.000000
# 4 0.000000 0.000000 0.000000 0.095316 0.000000 0.000000
# 5 0.000000 0.000000 0.000000 0.000000 0.095316 0.000000
# 6 -0.004591 0.004591 0.000000 0.000000 0.000000 0.056024
#
#
# Mechanical properties :
#
#
# Convention : Reuss Voigt Hill
#
# Bulk Modulus (GPa) = 25.40013 25.40335 25.40174
# Shear Modulus (GPa) = 13.85619 15.48432 14.67026
#
# Velocity S-wave (km/s) = 2.87467 3.03887 2.95791
# Velocity P-wave (km/s) = 5.11535 5.24055 5.17833
#
# Compressibility (1/GPa) = 0.03936987
#
# Stress axis : x y z
#
# Youngs Moduli (GPa) = 47.54964 47.54964 35.51243
#
# Poissons Ratio (x) = 0.03481 0.26089
# Poissons Ratio (y) = 0.03481 0.26089
# Poissons Ratio (z) = 0.34933 0.34933
#
# Static dielectric constant tensor:
#      x y z
#    x 1.614670 0.000000 0.000000 
#    y 0.000000 1.614670 0.000000 
#    z 0.000000 0.000000 1.554750 
# 
# From -- ./inp_files/5482.got.cif
#   From: 2010.05.17/outbox.cif.g08.bks.cpg/sg87_3_cif.got.tgz:5482.got - 2010.06.03 19:07:00.
