data_PCOD9545931
_publ_section_title
;
Structure prediction by ZEFSAII (Michael W. Deem and Ramdas Pophale) SiO2 
 PCOD9545931
Probable space group: I 4/M
;
_chemical_formula_sum "Si O2"
_cell_formula_units_Z 96
_cell_length_a 14.555367
_cell_length_b 14.555367
_cell_length_c 19.996329
_cell_angle_alpha 90.000000
_cell_angle_beta 90.000000
_cell_angle_gamma 90.000000
_cell_volume 4236.396437
_symmetry_space_group_name_H-M "I 4/M"
_symmetry_group_IT_number 87
_symmetry_cell_setting 'tetragonal'
loop_
_space_group_symop_operation_xyz
x,y,z
-y,x,z
-x,-y,z
y,-x,z
-x,-y,-z
y,-x,-z
x,y,-z
-y,x,-z
1/2+x,1/2+y,1/2+z
1/2-y,1/2+x,1/2+z
1/2-x,1/2-y,1/2+z
1/2+y,1/2-x,1/2+z
1/2-x,1/2-y,1/2-z
1/2+y,1/2-x,1/2-z
1/2+x,1/2+y,1/2-z
1/2-y,1/2+x,1/2-z
loop_
_atom_site_type_symbol
_atom_site_label
_atom_site_fract_x
_atom_site_fract_y
_atom_site_fract_z
Si Si1 0.085526 0.120466 0.080630
Si Si2 0.272018 0.077895 0.631279
Si Si3 0.767802 0.261483 0.922137
Si Si4 0.500636 0.652888 0.244739
Si Si5 0.417821 0.112408 0.143637
Si Si6 0.842530 0.439985 0.701416
O O1 0.158539 0.198794 0.096806
O O2 0.979443 0.123193 0.101874
O O3 0.081003 0.120773 0.000000
O O4 0.230697 0.158018 0.585948
O O5 0.196290 0.018732 0.671110
O O6 0.334789 0.137858 0.682562
O O7 0.343335 0.002464 0.602645
O O8 0.824871 0.331365 0.876241
O O9 0.792878 0.276808 0.000000
O O10 0.412065 0.588777 0.253789
O O11 0.520990 0.740484 0.290371
O O12 0.446109 0.123669 0.221624
O O13 0.390232 0.005576 0.145911
#
# Coordination Sequence:
#
# PCOD9545931 Si02
#       6
#    16  16  16  16  16  16
#     4   8  16  36  62  86 120 169 226 286 346 412
#     4  11  23  40  68  95 139 187 235 291 364 437
#     4  11  26  43  66 101 140 193 248 291 355 438
#     4  10  22  39  63 100 143 178 225 295 367 437
#     4  11  23  42  68 102 137 179 237 302 362 438
#     4  11  22  39  69 101 137 178 238 295 379 435
#
# _framework density 22.660768000000001
#
# number of rings (size 3 to 8) (size 9 to 14) (size 15 to 20)
#    0.000    1.667    3.333    3.000    4.667    2.000 
#    0.000    0.000    0.000    2.000    0.000    7.000 
#    0.000    0.000    0.000    0.000    0.000    0.000 
#
# Total GULP energy -267749.916589 kJ/mol
# GULP energy per Si atom -5578.123262 kJ/mol
# Density = 2.260919 g / cm^3
# Si number density = 22.660768 Si / 1000 Ang^3
#
#
#
# Elastic Constant Matrix: (Units=GPa)
#
#
# Indices 1 2 3 4 5 6 
#
# 1 84.7643 3.5705 13.5843 0.0000 0.0000 0.4912
# 2 3.5705 84.7643 13.5843 0.0000 0.0000 -0.4912
# 3 13.5843 13.5843 46.4197 0.0000 0.0000 0.0000
# 4 0.0000 0.0000 0.0000 21.5142 0.0000 0.0000
# 5 0.0000 0.0000 0.0000 0.0000 21.5142 0.0000
# 6 0.4912 -0.4912 0.0000 0.0000 0.0000 27.7883
#
#
#
# Elastic Compliance Matrix: (Units=1/GPa)
#
#
# Indices 1 2 3 4 5 6 
#
# 1 0.012380 0.000061 -0.003641 0.000000 0.000000 -0.000218
# 2 0.000061 0.012380 -0.003641 0.000000 0.000000 0.000218
# 3 -0.003641 -0.003641 0.023673 0.000000 0.000000 0.000000
# 4 0.000000 0.000000 0.000000 0.046481 0.000000 0.000000
# 5 0.000000 0.000000 0.000000 0.000000 0.046481 0.000000
# 6 -0.000218 0.000218 0.000000 0.000000 0.000000 0.035994
#
#
# Mechanical properties :
#
#
# Convention : Reuss Voigt Hill
#
# Bulk Modulus (GPa) = 29.41896 30.82519 30.12207
# Shear Modulus (GPa) = 24.61119 26.51061 25.56090
#
# Velocity S-wave (km/s) = 3.29913 3.42408 3.36219
# Velocity P-wave (km/s) = 5.24623 5.40970 5.32859
#
# Compressibility (1/GPa) = 0.03399169
#
# Stress axis : x y z
#
# Youngs Moduli (GPa) = 80.77831 80.77831 42.24169
#
# Poissons Ratio (x) = -0.00490 0.15378
# Poissons Ratio (y) = -0.00490 0.15378
# Poissons Ratio (z) = 0.29408 0.29408
#
# Static dielectric constant tensor:
#      x y z
#    x 1.888360 0.000000 0.000000 
#    y 0.000000 1.888360 0.000000 
#    z 0.000000 0.000000 1.853120 
# 
# From -- ./inp_files/5322.got.cif
#   From: 2010.05.17/outbox.cif.g08.bks.cpg/sg87_3_cif.got.tgz:5322.got - 2010.06.03 19:07:00.
