data_PCOD9545844
_publ_section_title
;
Structure prediction by ZEFSAII (Michael W. Deem and Ramdas Pophale) SiO2 
 PCOD9545844
Probable space group: I 4/M
;
_chemical_formula_sum "Si O2"
_cell_formula_units_Z 64
_cell_length_a 20.330860
_cell_length_b 20.330860
_cell_length_c 8.804435
_cell_angle_alpha 90.000000
_cell_angle_beta 90.000000
_cell_angle_gamma 90.000000
_cell_volume 3639.259221
_symmetry_space_group_name_H-M "I 4/M"
_symmetry_group_IT_number 87
_symmetry_cell_setting 'tetragonal'
loop_
_space_group_symop_operation_xyz
x,y,z
-y,x,z
-x,-y,z
y,-x,z
-x,-y,-z
y,-x,-z
x,y,-z
-y,x,-z
1/2+x,1/2+y,1/2+z
1/2-y,1/2+x,1/2+z
1/2-x,1/2-y,1/2+z
1/2+y,1/2-x,1/2+z
1/2-x,1/2-y,1/2-z
1/2+y,1/2-x,1/2-z
1/2+x,1/2+y,1/2-z
1/2-y,1/2+x,1/2-z
loop_
_atom_site_type_symbol
_atom_site_label
_atom_site_fract_x
_atom_site_fract_y
_atom_site_fract_z
Si Si1 0.681247 0.924621 0.180861
Si Si2 0.572513 0.323758 0.818683
Si Si3 0.173312 0.928198 0.818124
Si Si4 0.326774 0.923378 0.180871
O O1 0.749959 0.910412 0.264285
O O2 0.625418 0.874068 0.230364
O O3 0.661348 0.999868 0.218400
O O4 0.692699 0.922165 0.000000
O O5 0.500181 0.338700 0.751914
O O6 0.624658 0.375041 0.752212
O O7 0.571177 0.326960 0.000000
O O8 0.249707 0.910780 0.786682
O O9 0.165445 0.931460 0.000000
O O10 0.337004 0.914875 0.000000
#
# Coordination Sequence:
#
# PCOD9545844 Si02
#       4
#    16  16  16  16
#     4  10  21  37  57  81 111 147 184 225 276 328
#     4  11  22  37  58  84 112 143 183 228 273 324
#     4  10  21  39  59  81 112 147 183 225 275 327
#     4   9  20  37  56  80 109 143 184 227 271 325
#
# _framework density 17.585995
#
# number of rings (size 3 to 8) (size 9 to 14) (size 15 to 20)
#    0.000    2.000    0.000    5.250    0.000    8.000 
#    0.000    5.000    0.000    0.000    0.000    0.000 
#    0.000    0.000    0.000    0.000    0.000    0.000 
#
# Total GULP energy -178738.362361 kJ/mol
# GULP energy per Si atom -5585.573824 kJ/mol
# Density = 1.754597 g / cm^3
# Si number density = 17.585995 Si / 1000 Ang^3
#
#
#
# Elastic Constant Matrix: (Units=GPa)
#
#
# Indices 1 2 3 4 5 6 
#
# 1 121.4775 113.4734 84.7485 0.0000 0.0000 -0.0493
# 2 113.4734 121.4775 84.7485 0.0000 0.0000 0.0493
# 3 84.7485 84.7485 120.0256 0.0000 0.0000 0.0000
# 4 0.0000 0.0000 0.0000 35.3868 0.0000 0.0000
# 5 0.0000 0.0000 0.0000 0.0000 35.3868 0.0000
# 6 -0.0493 0.0493 0.0000 0.0000 0.0000 40.7313
#
#
#
# Elastic Compliance Matrix: (Units=1/GPa)
#
#
# Indices 1 2 3 4 5 6 
#
# 1 0.066807 -0.058131 -0.006125 0.000000 0.000000 0.000151
# 2 -0.058131 0.066807 -0.006125 0.000000 0.000000 -0.000151
# 3 -0.006125 -0.006125 0.016982 0.000000 0.000000 0.000000
# 4 0.000000 0.000000 0.000000 0.028259 0.000000 0.000000
# 5 0.000000 0.000000 0.000000 0.000000 0.028259 0.000000
# 6 0.000151 -0.000151 0.000000 0.000000 0.000000 0.024552
#
#
# Mechanical properties :
#
#
# Convention : Reuss Voigt Hill
#
# Bulk Modulus (GPa) = 101.72561 103.21349 102.46955
# Shear Modulus (GPa) = 13.30827 27.63498 20.47163
#
# Velocity S-wave (km/s) = 2.75390 3.96841 3.41557
# Velocity P-wave (km/s) = 8.25119 8.93397 8.59936
#
# Compressibility (1/GPa) = 0.00983037
#
# Stress axis : x y z
#
# Youngs Moduli (GPa) = 14.96858 14.96858 58.88670
#
# Poissons Ratio (x) = 0.87014 0.36071
# Poissons Ratio (y) = 0.87014 0.36071
# Poissons Ratio (z) = 0.09169 0.09169
#
# Static dielectric constant tensor:
#      x y z
#    x 1.572330 0.000000 0.000000 
#    y 0.000000 1.572330 0.000000 
#    z 0.000000 0.000000 1.584490 
# 
# From -- ./inp_files/928.got.cif
#   From: 2010.05.17/outbox.cif.g08.bks.cpg/sg87_1_cif.got.tgz:928.got - 2010.06.03 19:07:00.
