data_PCOD9545908
_publ_section_title
;
Structure prediction by ZEFSAII (Michael W. Deem and Ramdas Pophale) SiO2 
 PCOD9545908
Probable space group: I 4/M
;
_chemical_formula_sum "Si O2"
_cell_formula_units_Z 80
_cell_length_a 11.518511
_cell_length_b 11.518511
_cell_length_c 32.088409
_cell_angle_alpha 90.000000
_cell_angle_beta 90.000000
_cell_angle_gamma 90.000000
_cell_volume 4257.364822
_symmetry_space_group_name_H-M "I 4/M"
_symmetry_group_IT_number 87
_symmetry_cell_setting 'tetragonal'
loop_
_space_group_symop_operation_xyz
x,y,z
-y,x,z
-x,-y,z
y,-x,z
-x,-y,-z
y,-x,-z
x,y,-z
-y,x,-z
1/2+x,1/2+y,1/2+z
1/2-y,1/2+x,1/2+z
1/2-x,1/2-y,1/2+z
1/2+y,1/2-x,1/2+z
1/2-x,1/2-y,1/2-z
1/2+y,1/2-x,1/2-z
1/2+x,1/2+y,1/2-z
1/2-y,1/2+x,1/2-z
loop_
_atom_site_type_symbol
_atom_site_label
_atom_site_fract_x
_atom_site_fract_y
_atom_site_fract_z
Si Si1 0.806747 0.590988 0.181312
Si Si2 0.010637 0.367054 0.886171
Si Si3 0.313319 0.559078 0.452797
Si Si4 0.677771 0.798726 0.840070
Si Si5 0.090974 0.824447 0.234064
O O1 0.927915 0.628414 0.159757
O O2 0.800393 0.453591 0.176348
O O3 0.715590 0.666328 0.154752
O O4 0.766063 0.617936 0.228430
O O5 0.076606 0.283489 0.917719
O O6 0.000000 0.500000 0.900509
O O7 0.880722 0.321172 0.879849
O O8 0.361471 0.427299 0.448681
O O9 0.268003 0.573222 0.500000
O O10 0.765344 0.859845 0.807478
O O11 0.952283 0.849903 0.236493
#
# Coordination Sequence:
#
# PCOD9545908 Si02
#       5
#    16  16  16  16  16
#     4  11  22  37  54  73 106 141 180 230 274 323
#     4  10  22  36  53  83 113 144 180 218 271 328
#     4   9  18  35  61  87 111 141 175 217 269 326
#     4  11  23  37  54  78 104 145 186 232 278 327
#     4  11  23  39  56  75 101 140 192 238 281 320
#
# _framework density 18.790966999999998
#
# number of rings (size 3 to 8) (size 9 to 14) (size 15 to 20)
#    0.000    1.600    2.000    3.600    2.800    0.800 
#    0.000    2.000    0.000    0.000    0.000    0.000 
#    0.000    0.000    0.000   39.800    0.000    0.000 
#
# Total GULP energy -222958.914355 kJ/mol
# GULP energy per Si atom -5573.972859 kJ/mol
# Density = 1.874820 g / cm^3
# Si number density = 18.790967 Si / 1000 Ang^3
#
#
#
# Elastic Constant Matrix: (Units=GPa)
#
#
# Indices 1 2 3 4 5 6 
#
# 1 75.1933 21.8025 29.0000 0.0000 0.0000 10.5639
# 2 21.8025 75.1933 29.0000 0.0000 0.0000 -10.5639
# 3 29.0000 29.0000 53.1601 0.0000 0.0000 0.0000
# 4 0.0000 0.0000 0.0000 23.3339 0.0000 0.0000
# 5 0.0000 0.0000 0.0000 0.0000 23.3339 0.0000
# 6 10.5639 -10.5639 0.0000 0.0000 0.0000 33.2019
#
#
#
# Elastic Compliance Matrix: (Units=1/GPa)
#
#
# Indices 1 2 3 4 5 6 
#
# 1 0.018364 -0.003063 -0.008347 0.000000 0.000000 -0.006818
# 2 -0.003063 0.018364 -0.008347 0.000000 0.000000 0.006818
# 3 -0.008347 -0.008347 0.027918 0.000000 0.000000 0.000000
# 4 0.000000 0.000000 0.000000 0.042856 0.000000 0.000000
# 5 0.000000 0.000000 0.000000 0.000000 0.042856 0.000000
# 6 -0.006818 0.006818 0.000000 0.000000 0.000000 0.034457
#
#
# Mechanical properties :
#
#
# Convention : Reuss Voigt Hill
#
# Bulk Modulus (GPa) = 39.79005 40.35020 40.07013
# Shear Modulus (GPa) = 21.48614 24.22355 22.85484
#
# Velocity S-wave (km/s) = 3.38513 3.59431 3.49129
# Velocity P-wave (km/s) = 6.04151 6.22456 6.13372
#
# Compressibility (1/GPa) = 0.02513191
#
# Stress axis : x y z
#
# Youngs Moduli (GPa) = 54.45338 54.45338 35.81914
#
# Poissons Ratio (x) = 0.16681 0.29898
# Poissons Ratio (y) = 0.16681 0.29898
# Poissons Ratio (z) = 0.45452 0.45452
#
# Static dielectric constant tensor:
#      x y z
#    x 1.682990 0.000000 0.000000 
#    y 0.000000 1.682990 0.000000 
#    z 0.000000 0.000000 1.660840 
# 
# From -- ./inp_files/6475.got.cif
#   From: 2010.05.17/outbox.cif.g08.bks.cpg/sg87_4_cif.got.tgz:6475.got - 2010.06.03 19:07:00.
