data_PCOD9545363
_publ_section_title
;
Structure prediction by ZEFSAII (Michael W. Deem and Ramdas Pophale) SiO2 
 PCOD9545363
Probable space group: P 42/N
;
_chemical_formula_sum "Si O2"
_cell_formula_units_Z 56
_cell_length_a 14.000944
_cell_length_b 14.000944
_cell_length_c 12.758960
_cell_angle_alpha 90.000000
_cell_angle_beta 90.000000
_cell_angle_gamma 90.000000
_cell_volume 2501.093416
_symmetry_space_group_name_H-M "P 42/N"
_symmetry_group_IT_number 86
_space_group.IT_coordinate_system_code '2'
_symmetry_cell_setting 'tetragonal'
loop_
_space_group_symop_operation_xyz
x,y,z
-y,1/2+x,1/2+z
1/2-x,1/2-y,z
1/2+y,-x,1/2+z
-x,-y,-z
y,1/2-x,1/2-z
1/2+x,1/2+y,-z
1/2-y,x,1/2-z
loop_
_atom_site_type_symbol
_atom_site_label
_atom_site_fract_x
_atom_site_fract_y
_atom_site_fract_z
Si Si1 0.599844 0.936015 0.240904
Si Si2 0.630842 0.745320 0.100118
Si Si3 0.601963 0.041818 0.032843
Si Si4 0.933502 0.718569 0.502018
Si Si5 0.193664 0.103268 0.231378
Si Si6 0.272573 0.517518 0.422770
Si Si7 0.449720 0.939449 0.406399
O O1 0.624029 0.833998 0.183177
O O2 0.669528 0.937813 0.339921
O O3 0.495534 0.954236 0.290985
O O4 0.620313 0.012771 0.152860
O O5 0.714696 0.667459 0.062560
O O6 0.577594 0.775998 0.994750
O O7 0.593678 0.155625 0.025450
O O8 0.500000 0.000000 0.000000
O O9 0.680821 0.981219 0.972121
O O10 0.916847 0.666086 0.611936
O O11 0.012579 0.666164 0.433349
O O12 0.135930 0.195637 0.268589
O O13 0.187125 0.015713 0.310460
O O14 0.163484 0.549657 0.411792
O O15 0.500000 0.000000 0.500000
#
# Coordination Sequence:
#
# PCOD9545363 Si02
#       7
#     8   8   8   8   8   8   8
#     4  11  24  42  73 104 136 194 243 310 377 441
#     4  11  23  46  69 103 142 184 254 303 367 439
#     4  12  27  44  68 104 151 183 244 308 379 435
#     4  11  25  45  70 104 141 194 239 302 365 454
#     4  11  23  39  69 105 139 183 235 297 366 425
#     4  12  25  43  69 105 146 189 238 305 362 450
#     4  11  23  46  74 100 144 196 248 298 377 453
#
# _framework density 22.390205999999999
#
# number of rings (size 3 to 8) (size 9 to 14) (size 15 to 20)
#    0.000    0.714    5.714    2.571    6.000    2.571 
#    0.000    0.000    0.000    1.714    0.000    0.000 
#    0.000    0.000    0.000    0.000    0.000    0.000 
#
# Total GULP energy -312629.645193 kJ/mol
# GULP energy per Si atom -5582.672236 kJ/mol
# Density = 2.233925 g / cm^3
# Si number density = 22.390206 Si / 1000 Ang^3
#
#
#
# Elastic Constant Matrix: (Units=GPa)
#
#
# Indices 1 2 3 4 5 6 
#
# 1 107.0360 35.3194 6.7144 0.0000 0.0000 23.4533
# 2 35.3194 107.0360 6.7144 0.0000 0.0000 -23.4533
# 3 6.7144 6.7144 82.7409 0.0000 0.0000 0.0000
# 4 0.0000 0.0000 0.0000 35.0369 0.0000 0.0000
# 5 0.0000 0.0000 0.0000 0.0000 35.0369 0.0000
# 6 23.4533 -23.4533 0.0000 0.0000 0.0000 -70.6846
#
#
#
# Elastic Compliance Matrix: (Units=1/GPa)
#
#
# Indices 1 2 3 4 5 6 
#
# 1 0.009268 -0.002189 -0.000574 0.000000 0.000000 0.003802
# 2 -0.002189 0.009268 -0.000574 0.000000 0.000000 -0.003802
# 3 -0.000574 -0.000574 0.012179 0.000000 0.000000 0.000000
# 4 0.000000 0.000000 0.000000 0.028541 0.000000 0.000000
# 5 0.000000 0.000000 0.000000 0.000000 0.028541 0.000000
# 6 0.003802 -0.003802 0.000000 0.000000 0.000000 -0.011625
#
#
# Mechanical properties :
#
#
# Convention : Reuss Voigt Hill
#
# Bulk Modulus (GPa) = 41.59894 43.81216 42.70555
# Shear Modulus (GPa) = 55.02811 16.41550 35.72180
#
# Velocity S-wave (km/s) = 4.96288 2.71062 3.99861
# Velocity P-wave (km/s) = 7.17354 5.42279 6.35871
#
# Compressibility (1/GPa) = 0.02403907
#
# Stress axis : x y z
#
# Youngs Moduli (GPa) = 107.89698 107.89698 82.10748
#
# Poissons Ratio (x) = 0.23621 0.04717
# Poissons Ratio (y) = 0.23621 0.04717
# Poissons Ratio (z) = 0.06198 0.06198
#
# Static dielectric constant tensor:
#      x y z
#    x 1.923810 0.000000 0.000000 
#    y 0.000000 1.923810 0.000000 
#    z 0.000000 0.000000 1.844020 
# 
# From -- ./inp_files/2400.got.cif
#   From: 2010.05.17/outbox.cif.g08.bks.cpg/sg86_2_cif.got.tgz:2400.got - 2010.06.03 19:03:11.
