data_PCOD9545269
_publ_section_title
;
Structure prediction by ZEFSAII (Michael W. Deem and Ramdas Pophale) SiO2 
 PCOD9545269
Probable space group: P 42/N
;
_chemical_formula_sum "Si O2"
_cell_formula_units_Z 24
_cell_length_a 14.643584
_cell_length_b 14.643584
_cell_length_c 4.907972
_cell_angle_alpha 90.000000
_cell_angle_beta 90.000000
_cell_angle_gamma 90.000000
_cell_volume 1052.438779
_symmetry_space_group_name_H-M "P 42/N"
_symmetry_group_IT_number 86
_space_group.IT_coordinate_system_code '2'
_symmetry_cell_setting 'tetragonal'
loop_
_space_group_symop_operation_xyz
x,y,z
-y,1/2+x,1/2+z
1/2-x,1/2-y,z
1/2+y,-x,1/2+z
-x,-y,-z
y,1/2-x,1/2-z
1/2+x,1/2+y,-z
1/2-y,x,1/2-z
loop_
_atom_site_type_symbol
_atom_site_label
_atom_site_fract_x
_atom_site_fract_y
_atom_site_fract_z
Si Si1 0.939173 0.881786 0.957884
Si Si2 0.383407 0.944702 0.945363
Si Si3 0.293994 0.499321 0.741436
O O1 0.023868 0.916479 0.148068
O O2 0.941630 0.775035 0.048399
O O3 0.849724 0.932015 0.063042
O O4 0.968190 0.892635 0.646810
O O5 0.437766 0.861476 0.068315
O O6 0.274613 0.934846 0.910348
#
# Coordination Sequence:
#
# PCOD9545269 Si02
#       3
#     8   8   8
#     4  10  24  39  69  89 134 170 223 263 332 390
#     4  10  24  38  70  87 137 165 227 256 339 384
#     4  10  24  42  65  97 128 178 216 274 325 394
#
# _framework density 22.804175000000001
#
# number of rings (size 3 to 8) (size 9 to 14) (size 15 to 20)
#    2.000    0.000    0.000    2.000    9.333    0.667 
#    0.000    5.000    0.000    0.000    0.000    0.000 
#    0.000    0.000    0.000    0.000    0.000    0.000 
#
# Total GULP energy -134023.161635 kJ/mol
# GULP energy per Si atom -5584.298401 kJ/mol
# Density = 2.275227 g / cm^3
# Si number density = 22.804175 Si / 1000 Ang^3
#
#
#
# Elastic Constant Matrix: (Units=GPa)
#
#
# Indices 1 2 3 4 5 6 
#
# 1 120.3038 55.2424 21.9715 0.0000 0.0000 -2.7625
# 2 55.2424 120.3038 21.9715 0.0000 0.0000 2.7625
# 3 21.9715 21.9715 94.8061 0.0000 0.0000 0.0000
# 4 0.0000 0.0000 0.0000 32.1862 0.0000 0.0000
# 5 0.0000 0.0000 0.0000 0.0000 32.1862 0.0000
# 6 -2.7625 2.7625 0.0000 0.0000 0.0000 10.3984
#
#
#
# Elastic Compliance Matrix: (Units=1/GPa)
#
#
# Indices 1 2 3 4 5 6 
#
# 1 0.010886 -0.004839 -0.001401 0.000000 0.000000 0.004178
# 2 -0.004839 0.010886 -0.001401 0.000000 0.000000 -0.004178
# 3 -0.001401 -0.001401 0.011197 0.000000 0.000000 0.000000
# 4 0.000000 0.000000 0.000000 0.031069 0.000000 0.000000
# 5 0.000000 0.000000 0.000000 0.000000 0.031069 0.000000
# 6 0.004178 -0.004178 0.000000 0.000000 0.000000 0.098389
#
#
# Mechanical properties :
#
#
# Convention : Reuss Voigt Hill
#
# Bulk Modulus (GPa) = 56.54135 59.30938 57.92537
# Shear Modulus (GPa) = 23.29097 30.70271 26.99684
#
# Velocity S-wave (km/s) = 3.19932 3.67326 3.44445
# Velocity P-wave (km/s) = 6.20449 6.63740 6.42459
#
# Compressibility (1/GPa) = 0.01768617
#
# Stress axis : x y z
#
# Youngs Moduli (GPa) = 91.86028 91.86028 89.30610
#
# Poissons Ratio (x) = 0.44449 0.12516
# Poissons Ratio (y) = 0.44449 0.12516
# Poissons Ratio (z) = 0.12874 0.12874
#
# Static dielectric constant tensor:
#      x y z
#    x 1.885850 0.000000 0.000000 
#    y 0.000000 1.885850 0.000000 
#    z 0.000000 0.000000 1.852590 
# 
# From -- ./inp_files/105.got.cif
#   From: 2010.05.17/outbox.cif.g08.bks.cpg/sg86_1_cif.got.tgz:105.got - 2010.06.03 19:03:11.
