data_PCOD9545044
_publ_section_title
;
Structure prediction by ZEFSAII (Michael W. Deem and Ramdas Pophale) SiO2 
 PCOD9545044
Probable space group: P 42/N
;
_chemical_formula_sum "Si O2"
_cell_formula_units_Z 44
_cell_length_a 9.052499
_cell_length_b 9.052499
_cell_length_c 26.552041
_cell_angle_alpha 90.000000
_cell_angle_beta 90.000000
_cell_angle_gamma 90.000000
_cell_volume 2175.879703
_symmetry_space_group_name_H-M "P 42/N"
_symmetry_group_IT_number 86
_space_group.IT_coordinate_system_code '2'
_symmetry_cell_setting 'tetragonal'
loop_
_space_group_symop_operation_xyz
x,y,z
-y,1/2+x,1/2+z
1/2-x,1/2-y,z
1/2+y,-x,1/2+z
-x,-y,-z
y,1/2-x,1/2-z
1/2+x,1/2+y,-z
1/2-y,x,1/2-z
loop_
_atom_site_type_symbol
_atom_site_label
_atom_site_fract_x
_atom_site_fract_y
_atom_site_fract_z
Si Si1 0.990039 0.816225 0.754852
Si Si2 0.238404 0.574846 0.557036
Si Si3 0.955965 0.101965 0.350218
Si Si4 0.750000 0.750000 0.494710
Si Si5 0.144566 0.077652 0.084398
Si Si6 0.229419 0.913924 0.362309
O O1 0.923663 0.652413 0.745735
O O2 0.087640 0.863886 0.707020
O O3 0.067132 0.813780 0.808916
O O4 0.250000 0.750000 0.535431
O O5 0.332138 0.585994 0.608106
O O6 0.272635 0.413736 0.531063
O O7 0.070052 0.557604 0.573377
O O8 0.052752 0.241495 0.370003
O O9 0.061306 0.959965 0.352384
O O10 0.885619 0.729905 0.533285
O O11 0.031017 0.204277 0.098905
O O12 0.250000 0.750000 0.381389
#
# Coordination Sequence:
#
# PCOD9545044 Si02
#       6
#     8   8   8   4   8   8
#     4   9  17  34  64  89 124 163 205 250 319 386
#     4  10  26  42  66  92 122 172 214 268 337 384
#     4  10  20  42  63  91 124 166 210 263 323 391
#     4  12  24  44  68  87 133 170 224 270 330 386
#     4  11  22  44  62  90 125 167 213 268 320 388
#     4  11  22  35  63  98 125 163 212 264 320 394
#
# _framework density 20.221708
#
# number of rings (size 3 to 8) (size 9 to 14) (size 15 to 20)
#    0.000    1.636    3.636    0.545    2.545    5.818 
#    0.000    0.000    0.000    0.000    0.000    0.000 
#    0.000    0.000    0.000    0.000    0.000    0.000 
#
# Total GULP energy -245028.476862 kJ/mol
# GULP energy per Si atom -5568.829020 kJ/mol
# Density = 2.017568 g / cm^3
# Si number density = 20.221708 Si / 1000 Ang^3
#
#
#
# Elastic Constant Matrix: (Units=GPa)
#
#
# Indices 1 2 3 4 5 6 
#
# 1 77.3819 17.2264 32.7875 0.0000 0.0000 0.6027
# 2 17.2264 77.3819 32.7875 0.0000 0.0000 -0.6027
# 3 32.7875 32.7875 83.2069 0.0000 0.0000 0.0000
# 4 0.0000 0.0000 0.0000 14.6389 0.0000 0.0000
# 5 0.0000 0.0000 0.0000 0.0000 14.6389 0.0000
# 6 0.6027 -0.6027 0.0000 0.0000 0.0000 18.9495
#
#
#
# Elastic Compliance Matrix: (Units=1/GPa)
#
#
# Indices 1 2 3 4 5 6 
#
# 1 0.015588 -0.001046 -0.005730 0.000000 0.000000 -0.000529
# 2 -0.001046 0.015588 -0.005730 0.000000 0.000000 0.000529
# 3 -0.005730 -0.005730 0.016534 0.000000 0.000000 0.000000
# 4 0.000000 0.000000 0.000000 0.068311 0.000000 0.000000
# 5 0.000000 0.000000 0.000000 0.000000 0.068311 0.000000
# 6 -0.000529 0.000529 0.000000 0.000000 0.000000 0.052806
#
#
# Mechanical properties :
#
#
# Convention : Reuss Voigt Hill
#
# Bulk Modulus (GPa) = 44.05891 44.84151 44.45021
# Shear Modulus (GPa) = 18.53798 19.99005 19.26402
#
# Velocity S-wave (km/s) = 3.03105 3.14752 3.08984
# Velocity P-wave (km/s) = 5.83823 5.95250 5.89564
#
# Compressibility (1/GPa) = 0.02269688
#
# Stress axis : x y z
#
# Youngs Moduli (GPa) = 64.15248 64.15248 60.48118
#
# Poissons Ratio (x) = 0.06712 0.34656
# Poissons Ratio (y) = 0.06712 0.34656
# Poissons Ratio (z) = 0.36760 0.36760
#
# Static dielectric constant tensor:
#      x y z
#    x 1.749410 0.000000 0.000000 
#    y 0.000000 1.749410 0.000000 
#    z 0.000000 0.000000 1.718150 
# 
# From -- ./inp_files/5059.got.cif
#   From: 2010.05.17/outbox.cif.g08.bks.cpg/sg86_3_cif.got.tgz:5059.got - 2010.06.03 19:03:11.
