data_PCOD9545106
_publ_section_title
;
Structure prediction by ZEFSAII (Michael W. Deem and Ramdas Pophale) SiO2 
 PCOD9545106
Probable space group: P 42/N
;
_chemical_formula_sum "Si O2"
_cell_formula_units_Z 40
_cell_length_a 13.889207
_cell_length_b 13.889207
_cell_length_c 9.701178
_cell_angle_alpha 90.000000
_cell_angle_beta 90.000000
_cell_angle_gamma 90.000000
_cell_volume 1871.454938
_symmetry_space_group_name_H-M "P 42/N"
_symmetry_group_IT_number 86
_space_group.IT_coordinate_system_code '2'
_symmetry_cell_setting 'tetragonal'
loop_
_space_group_symop_operation_xyz
x,y,z
-y,1/2+x,1/2+z
1/2-x,1/2-y,z
1/2+y,-x,1/2+z
-x,-y,-z
y,1/2-x,1/2-z
1/2+x,1/2+y,-z
1/2-y,x,1/2-z
loop_
_atom_site_type_symbol
_atom_site_label
_atom_site_fract_x
_atom_site_fract_y
_atom_site_fract_z
Si Si1 0.620376 0.916056 0.620366
Si Si2 0.900924 0.399180 0.109630
Si Si3 0.408877 0.381352 0.447089
Si Si4 0.750000 0.750000 0.997322
Si Si5 0.250000 0.750000 0.984412
Si Si6 0.596843 0.400701 0.920532
O O1 0.638653 0.923150 0.783926
O O2 0.696595 0.835968 0.579907
O O3 0.514245 0.877237 0.575504
O O4 0.624600 0.016646 0.535874
O O5 0.895805 0.441305 0.264012
O O6 0.008672 0.369867 0.062301
O O7 0.876341 0.485461 0.008716
O O8 0.827261 0.311877 0.099843
O O9 0.342020 0.313622 0.543817
O O10 0.313642 0.671191 0.065152
#
# Coordination Sequence:
#
# PCOD9545106 Si02
#       6
#     8   8   8   4   4   8
#     4  10  21  39  62  87 119 157 195 238 289 347
#     4  10  23  41  60  86 120 156 195 241 293 347
#     4  10  21  39  62  87 119 157 195 238 289 347
#     4  12  21  36  65  94 117 152 201 242 285 348
#     4  12  22  36  64  90 114 152 200 246 290 344
#     4  10  23  41  60  86 120 156 195 241 293 347
#
# _framework density 21.373746000000001
#
# number of rings (size 3 to 8) (size 9 to 14) (size 15 to 20)
#    0.000    1.600    0.000    4.800    0.000    6.400 
#    0.000   11.000    0.000    0.000    0.000    0.000 
#    0.000    0.000    0.000    0.000    0.000    0.000 
#
# Total GULP energy -222700.957486 kJ/mol
# GULP energy per Si atom -5567.523937 kJ/mol
# Density = 2.132510 g / cm^3
# Si number density = 21.373746 Si / 1000 Ang^3
#
#
#
# Elastic Constant Matrix: (Units=GPa)
#
#
# Indices 1 2 3 4 5 6 
#
# 1 74.2350 35.5733 0.7317 0.0000 0.0000 0.5518
# 2 35.5733 74.2350 0.7317 0.0000 0.0000 -0.5518
# 3 0.7317 0.7317 -18.5403 0.0000 0.0000 0.0000
# 4 0.0000 0.0000 0.0000 -30.9529 0.0000 0.0000
# 5 0.0000 0.0000 0.0000 0.0000 -30.9529 0.0000
# 6 0.5518 -0.5518 0.0000 0.0000 0.0000 51.3446
#
#
#
# Elastic Compliance Matrix: (Units=1/GPa)
#
#
# Indices 1 2 3 4 5 6 
#
# 1 0.017488 -0.008386 0.000359 0.000000 0.000000 -0.000278
# 2 -0.008386 0.017488 0.000359 0.000000 0.000000 0.000278
# 3 0.000359 0.000359 -0.053908 0.000000 0.000000 0.000000
# 4 0.000000 0.000000 0.000000 -0.032307 0.000000 0.000000
# 5 0.000000 0.000000 0.000000 0.000000 -0.032307 0.000000
# 6 -0.000278 0.000278 0.000000 0.000000 0.000000 0.019482
#
#
# Mechanical properties :
#
#
# Convention : Reuss Voigt Hill
#
# Bulk Modulus (GPa) = -29.18235 22.66702 -3.25767
# Shear Modulus (GPa) = -83.12147 4.08063 -39.52042
#
# Velocity S-wave (km/s) = -6.24291 1.38323 -4.30468
# Velocity P-wave (km/s) = 8.10236 3.63032 5.12197
#
# Compressibility (1/GPa) = -0.03426729
#
# Stress axis : x y z
#
# Youngs Moduli (GPa) = 57.18317 57.18317 -18.55008
#
# Poissons Ratio (x) = 0.47952 0.00666
# Poissons Ratio (y) = 0.47952 0.00666
# Poissons Ratio (z) = -0.02054 -0.02054
#
# Static dielectric constant tensor:
#      x y z
#    x 1.818610 0.000000 0.000000 
#    y 0.000000 1.818610 0.000000 
#    z 0.000000 0.000000 1.754540 
# 
# From -- ./inp_files/1161.got.cif
#   From: 2010.05.17/outbox.cif.g08.bks.cpg/sg86_1_cif.got.tgz:1161.got - 2010.06.03 19:03:11.
