data_PCOD9545727
_publ_section_title
;
Structure prediction by ZEFSAII (Michael W. Deem and Ramdas Pophale) SiO2 
 PCOD9545727
Probable space group: I 4/M
;
_chemical_formula_sum "Si O2"
_cell_formula_units_Z 116
_cell_length_a 27.972972
_cell_length_b 27.972972
_cell_length_c 8.494220
_cell_angle_alpha 90.000000
_cell_angle_beta 90.000000
_cell_angle_gamma 90.000000
_cell_volume 6646.618106
_symmetry_space_group_name_H-M "I 4/M"
_symmetry_group_IT_number 87
_symmetry_cell_setting 'tetragonal'
loop_
_space_group_symop_operation_xyz
x,y,z
-y,x,z
-x,-y,z
y,-x,z
-x,-y,-z
y,-x,-z
x,y,-z
-y,x,-z
1/2+x,1/2+y,1/2+z
1/2-y,1/2+x,1/2+z
1/2-x,1/2-y,1/2+z
1/2+y,1/2-x,1/2+z
1/2-x,1/2-y,1/2-z
1/2+y,1/2-x,1/2-z
1/2+x,1/2+y,1/2-z
1/2-y,1/2+x,1/2-z
loop_
_atom_site_type_symbol
_atom_site_label
_atom_site_fract_x
_atom_site_fract_y
_atom_site_fract_z
Si Si1 0.000000 0.000000 0.706806
Si Si2 0.663131 0.414380 0.185626
Si Si3 0.239804 0.551269 0.310792
Si Si4 0.556709 0.131044 0.811319
Si Si5 0.560598 0.236264 0.311965
Si Si6 0.449822 0.131133 0.690389
Si Si7 0.996115 0.106329 0.183412
Si Si8 0.590898 0.333075 0.813824
O O1 0.058269 0.008035 0.715790
O O2 0.718322 0.418647 0.232403
O O3 0.634257 0.455215 0.279081
O O4 0.638519 0.363553 0.218489
O O5 0.657766 0.424425 0.000000
O O6 0.244070 0.555024 0.500000
O O7 0.246150 0.495139 0.268951
O O8 0.185532 0.563977 0.265181
O O9 0.571339 0.182846 0.745193
O O10 0.502593 0.121304 0.756107
O O11 0.592688 0.089374 0.758683
O O12 0.557696 0.133121 0.000000
O O13 0.563962 0.238251 0.500000
O O14 0.591843 0.278075 0.236729
O O15 0.453116 0.130254 0.500000
O O16 0.952161 0.141097 0.221425
O O17 0.995245 0.091537 0.000000
O O18 0.580681 0.336256 0.000000
#
# Coordination Sequence:
#
# PCOD9545727 Si02
#       8
#     4  16  16  16  16  16  16  16
#     4  12  25  36  49  70 101 144 189 222 273 352
#     4  11  23  35  49  74 103 133 175 229 280 327
#     4   9  18  34  55  76 102 139 181 224 266 319
#     4  10  20  35  58  86 117 152 182 219 264 310
#     4  10  20  35  56  80 106 140 182 228 272 326
#     4   9  20  37  56  84 119 151 185 218 259 317
#     4  12  22  35  50  68  96 136 180 223 271 330
#     4  11  23  36  50  73 102 135 177 228 281 328
#
# _framework density 17.452483999999998
#
# number of rings (size 3 to 8) (size 9 to 14) (size 15 to 20)
#    0.000    1.655    2.759    3.517    0.000    5.241 
#    0.000    2.759    0.000    0.828    0.000    0.000 
#    0.000    0.000    0.000    0.000    0.000    0.000 
#
# Total GULP energy -323392.943512 kJ/mol
# GULP energy per Si atom -5575.740405 kJ/mol
# Density = 1.741276 g / cm^3
# Si number density = 17.452484 Si / 1000 Ang^3
#
#
#
# Elastic Constant Matrix: (Units=GPa)
#
#
# Indices 1 2 3 4 5 6 
#
# 1 91.9489 58.1864 22.1754 0.0000 0.0000 -1.1377
# 2 58.1864 91.9489 22.1754 0.0000 0.0000 1.1377
# 3 22.1754 22.1754 30.4743 0.0000 0.0000 0.0000
# 4 0.0000 0.0000 0.0000 -4.3980 0.0000 0.0000
# 5 0.0000 0.0000 0.0000 0.0000 -4.3980 0.0000
# 6 -1.1377 1.1377 0.0000 0.0000 0.0000 21.9272
#
#
#
# Elastic Compliance Matrix: (Units=1/GPa)
#
#
# Indices 1 2 3 4 5 6 
#
# 1 0.019104 -0.010619 -0.006174 0.000000 0.000000 0.001542
# 2 -0.010619 0.019104 -0.006174 0.000000 0.000000 -0.001542
# 3 -0.006174 -0.006174 0.041800 0.000000 0.000000 0.000000
# 4 0.000000 0.000000 0.000000 -0.227378 0.000000 0.000000
# 5 0.000000 0.000000 0.000000 0.000000 -0.227378 0.000000
# 6 0.001542 -0.001542 0.000000 0.000000 0.000000 0.045765
#
#
# Mechanical properties :
#
#
# Convention : Reuss Voigt Hill
#
# Bulk Modulus (GPa) = 29.34880 46.60516 37.97698
# Shear Modulus (GPa) = -18.40321 10.08191 -4.16065
#
# Velocity S-wave (km/s) = -3.25079 2.40610 -1.54569
# Velocity P-wave (km/s) = 1.66214 5.87206 4.31531
#
# Compressibility (1/GPa) = 0.03407295
#
# Stress axis : x y z
#
# Youngs Moduli (GPa) = 52.34629 52.34629 23.92359
#
# Poissons Ratio (x) = 0.55587 0.14770
# Poissons Ratio (y) = 0.55587 0.14770
# Poissons Ratio (z) = 0.32318 0.32318
#
# Static dielectric constant tensor:
#      x y z
#    x 1.581160 0.000000 0.000000 
#    y 0.000000 1.581160 0.000000 
#    z 0.000000 0.000000 1.622480 
# 
# From -- ./inp_files/1731.got.cif
#   From: 2010.05.17/outbox.cif.g08.bks.cpg/sg87_1_cif.got.tgz:1731.got - 2010.06.03 19:07:00.
