data_PCOD9545308
_publ_section_title
;
Structure prediction by ZEFSAII (Michael W. Deem and Ramdas Pophale) SiO2 
 PCOD9545308
Probable space group: P 42/N
;
_chemical_formula_sum "Si O2"
_cell_formula_units_Z 54
_cell_length_a 16.094746
_cell_length_b 16.094746
_cell_length_c 9.048759
_cell_angle_alpha 90.000000
_cell_angle_beta 90.000000
_cell_angle_gamma 90.000000
_cell_volume 2343.998212
_symmetry_space_group_name_H-M "P 42/N"
_symmetry_group_IT_number 86
_space_group.IT_coordinate_system_code '2'
_symmetry_cell_setting 'tetragonal'
loop_
_space_group_symop_operation_xyz
x,y,z
-y,1/2+x,1/2+z
1/2-x,1/2-y,z
1/2+y,-x,1/2+z
-x,-y,-z
y,1/2-x,1/2-z
1/2+x,1/2+y,-z
1/2-y,x,1/2-z
loop_
_atom_site_type_symbol
_atom_site_label
_atom_site_fract_x
_atom_site_fract_y
_atom_site_fract_z
Si Si1 0.945492 0.426723 0.564348
Si Si2 0.815341 0.468433 0.823712
Si Si3 0.896054 0.842914 0.420206
Si Si4 0.588050 0.758789 0.907427
Si Si5 0.250000 0.250000 0.250000
Si Si6 0.351241 0.387195 0.898033
Si Si7 0.163993 0.674605 0.618145
Si Si8 0.250000 0.750000 0.366452
O O1 0.891485 0.444839 0.712086
O O2 0.892046 0.401414 0.421599
O O3 0.000000 0.500000 0.500000
O O4 0.013511 0.354526 0.588468
O O5 0.751808 0.520195 0.718130
O O6 0.760534 0.389244 0.874246
O O7 0.841812 0.527112 0.962771
O O8 0.829533 0.914928 0.469119
O O9 0.863473 0.746598 0.406127
O O10 0.903883 0.864747 0.247647
O O11 0.674476 0.788983 0.836456
O O12 0.605999 0.667914 0.974373
O O13 0.222045 0.678413 0.474796
O O14 0.218982 0.676061 0.763171
#
# Coordination Sequence:
#
# PCOD9545308 Si02
#       8
#     8   8   8   8   2   8   8   4
#     4  12  27  47  70 104 152 185 230 298 372 430
#     4  12  26  46  69 102 144 191 235 298 362 440
#     4  12  25  40  69 101 140 183 239 283 349 427
#     4  12  22  38  65  98 139 191 231 276 345 428
#     4  12  20  32  66 100 128 184 242 272 312 428
#     4  12  24  44  66 100 143 184 232 295 347 423
#     4  11  24  49  75 108 135 184 245 304 360 425
#     4  10  24  50  84 100 128 186 256 310 350 418
#
# _framework density 23.037559999999999
#
# number of rings (size 3 to 8) (size 9 to 14) (size 15 to 20)
#    0.000    0.296    8.889    0.000    2.074    1.778 
#    5.333    0.000    0.000    0.000    0.000    0.000 
#    0.000    0.000    0.000    0.000    0.000    0.000 
#
# Total GULP energy -301137.378141 kJ/mol
# GULP energy per Si atom -5576.618114 kJ/mol
# Density = 2.298513 g / cm^3
# Si number density = 23.037560 Si / 1000 Ang^3
#
#
#
# Elastic Constant Matrix: (Units=GPa)
#
#
# Indices 1 2 3 4 5 6 
#
# 1 54.3575 -1.9939 13.5506 0.0000 0.0000 -5.5628
# 2 -1.9939 54.3575 13.5506 0.0000 0.0000 5.5628
# 3 13.5506 13.5506 109.7093 0.0000 0.0000 0.0000
# 4 0.0000 0.0000 0.0000 27.7295 0.0000 0.0000
# 5 0.0000 0.0000 0.0000 0.0000 27.7295 0.0000
# 6 -5.5628 5.5628 0.0000 0.0000 0.0000 37.9101
#
#
#
# Elastic Compliance Matrix: (Units=1/GPa)
#
#
# Indices 1 2 3 4 5 6 
#
# 1 0.019338 0.001063 -0.002520 0.000000 0.000000 0.002682
# 2 0.001063 0.019338 -0.002520 0.000000 0.000000 -0.002682
# 3 -0.002520 -0.002520 0.009737 0.000000 0.000000 0.000000
# 4 0.000000 0.000000 0.000000 0.036063 0.000000 0.000000
# 5 0.000000 0.000000 0.000000 0.000000 0.036063 0.000000
# 6 0.002682 -0.002682 0.000000 0.000000 0.000000 0.027165
#
#
# Mechanical properties :
#
#
# Convention : Reuss Voigt Hill
#
# Bulk Modulus (GPa) = 24.71521 29.84873 27.28197
# Shear Modulus (GPa) = 29.56046 31.56162 30.56104
#
# Velocity S-wave (km/s) = 3.58598 3.70538 3.64617
# Velocity P-wave (km/s) = 5.28178 5.59384 5.44005
#
# Compressibility (1/GPa) = 0.04046092
#
# Stress axis : x y z
#
# Youngs Moduli (GPa) = 51.71079 51.71079 102.69612
#
# Poissons Ratio (x) = -0.05497 0.25878
# Poissons Ratio (y) = -0.05497 0.25878
# Poissons Ratio (z) = 0.13030 0.13030
#
# Static dielectric constant tensor:
#      x y z
#    x 1.994540 0.000000 0.000000 
#    y 0.000000 1.994540 0.000000 
#    z 0.000000 0.000000 1.898050 
# 
# From -- ./inp_files/1430.got.cif
#   From: 2010.05.17/outbox.cif.g08.bks.cpg/sg86_1_cif.got.tgz:1430.got - 2010.06.03 19:03:11.
