data_PCOD9545338
_publ_section_title
;
Structure prediction by ZEFSAII (Michael W. Deem and Ramdas Pophale) SiO2 
 PCOD9545338
Probable space group: P 42/N
;
_chemical_formula_sum "Si O2"
_cell_formula_units_Z 40
_cell_length_a 8.535277
_cell_length_b 8.535277
_cell_length_c 24.656964
_cell_angle_alpha 90.000000
_cell_angle_beta 90.000000
_cell_angle_gamma 90.000000
_cell_volume 1796.283337
_symmetry_space_group_name_H-M "P 42/N"
_symmetry_group_IT_number 86
_space_group.IT_coordinate_system_code '2'
_symmetry_cell_setting 'tetragonal'
loop_
_space_group_symop_operation_xyz
x,y,z
-y,1/2+x,1/2+z
1/2-x,1/2-y,z
1/2+y,-x,1/2+z
-x,-y,-z
y,1/2-x,1/2-z
1/2+x,1/2+y,-z
1/2-y,x,1/2-z
loop_
_atom_site_type_symbol
_atom_site_label
_atom_site_fract_x
_atom_site_fract_y
_atom_site_fract_z
Si Si1 0.928277 0.814761 0.616021
Si Si2 0.509707 0.789734 0.731600
Si Si3 0.565624 0.817231 0.501606
Si Si4 0.971473 0.788267 0.277007
Si Si5 0.573578 0.310037 0.609519
O O1 0.750000 0.750000 0.621437
O O2 0.016235 0.758379 0.669880
O O3 0.992749 0.748376 0.559500
O O4 0.927669 0.002277 0.614773
O O5 0.647453 0.919570 0.733992
O O6 0.365184 0.866424 0.761086
O O7 0.750000 0.750000 0.500894
O O8 0.493226 0.740128 0.448241
O O9 0.500000 0.000000 0.500000
O O10 0.921338 0.657794 0.234225
O O11 0.976856 0.740506 0.339532
O O12 0.750000 0.250000 0.613536
#
# Coordination Sequence:
#
# PCOD9545338 Si02
#       5
#     8   8   8   8   8
#     4  11  22  42  69 108 139 186 239 300 359 446
#     4  11  21  40  70 100 138 179 240 283 356 434
#     4  11  27  47  75 106 147 197 249 313 379 447
#     4  11  28  43  64 102 145 183 234 295 369 438
#     4  12  26  45  75 102 143 194 245 302 376 451
#
# _framework density 22.268198999999999
#
# number of rings (size 3 to 8) (size 9 to 14) (size 15 to 20)
#    0.000    0.800    4.000    3.000   11.200    0.000 
#    0.000    2.000    0.000    0.000    0.000    0.000 
#    0.000    0.000    0.000    0.000    0.000    0.000 
#
# Total GULP energy -223453.200198 kJ/mol
# GULP energy per Si atom -5586.330005 kJ/mol
# Density = 2.221752 g / cm^3
# Si number density = 22.268199 Si / 1000 Ang^3
#
#
#
# Elastic Constant Matrix: (Units=GPa)
#
#
# Indices 1 2 3 4 5 6 
#
# 1 71.8172 41.7261 33.8684 0.0000 0.0000 -16.4329
# 2 41.7261 71.8172 33.8684 0.0000 0.0000 16.4329
# 3 33.8684 33.8684 219.0449 0.0000 0.0000 0.0000
# 4 0.0000 0.0000 0.0000 25.7825 0.0000 0.0000
# 5 0.0000 0.0000 0.0000 0.0000 25.7825 0.0000
# 6 -16.4329 16.4329 0.0000 0.0000 0.0000 47.3396
#
#
#
# Elastic Compliance Matrix: (Units=1/GPa)
#
#
# Indices 1 2 3 4 5 6 
#
# 1 0.031614 -0.021912 -0.001500 0.000000 0.000000 0.018580
# 2 -0.021912 0.031614 -0.001500 0.000000 0.000000 -0.018580
# 3 -0.001500 -0.001500 0.005029 0.000000 0.000000 0.000000
# 4 0.000000 0.000000 0.000000 0.038786 0.000000 0.000000
# 5 0.000000 0.000000 0.000000 0.000000 0.038786 0.000000
# 6 0.018580 -0.018580 0.000000 0.000000 0.000000 0.034024
#
#
# Mechanical properties :
#
#
# Convention : Reuss Voigt Hill
#
# Bulk Modulus (GPa) = 54.25067 64.62278 59.43673
# Shear Modulus (GPa) = 21.20243 36.66201 28.93222
#
# Velocity S-wave (km/s) = 3.08902 4.06197 3.60844
# Velocity P-wave (km/s) = 6.09410 7.14721 6.64156
#
# Compressibility (1/GPa) = 0.01843295
#
# Stress axis : x y z
#
# Youngs Moduli (GPa) = 31.63137 31.63137 198.83989
#
# Poissons Ratio (x) = 0.69311 0.29829
# Poissons Ratio (y) = 0.69311 0.29829
# Poissons Ratio (z) = 0.04745 0.04745
#
# Static dielectric constant tensor:
#      x y z
#    x 1.888610 0.000000 0.000000 
#    y 0.000000 1.888610 0.000000 
#    z 0.000000 0.000000 1.775070 
# 
# From -- ./inp_files/4494.got.cif
#   From: 2010.05.17/outbox.cif.g08.bks.cpg/sg86_3_cif.got.tgz:4494.got - 2010.06.03 19:03:11.
