data_PCOD9545823
_publ_section_title
;
Structure prediction by ZEFSAII (Michael W. Deem and Ramdas Pophale) SiO2 
 PCOD9545823
Probable space group: I 4/M
;
_chemical_formula_sum "Si O2"
_cell_formula_units_Z 72
_cell_length_a 15.607413
_cell_length_b 15.607413
_cell_length_c 16.421628
_cell_angle_alpha 90.000000
_cell_angle_beta 90.000000
_cell_angle_gamma 90.000000
_cell_volume 4000.166379
_symmetry_space_group_name_H-M "I 4/M"
_symmetry_group_IT_number 87
_symmetry_cell_setting 'tetragonal'
loop_
_space_group_symop_operation_xyz
x,y,z
-y,x,z
-x,-y,z
y,-x,z
-x,-y,-z
y,-x,-z
x,y,-z
-y,x,-z
1/2+x,1/2+y,1/2+z
1/2-y,1/2+x,1/2+z
1/2-x,1/2-y,1/2+z
1/2+y,1/2-x,1/2+z
1/2-x,1/2-y,1/2-z
1/2+y,1/2-x,1/2-z
1/2+x,1/2+y,1/2-z
1/2-y,1/2+x,1/2-z
loop_
_atom_site_type_symbol
_atom_site_label
_atom_site_fract_x
_atom_site_fract_y
_atom_site_fract_z
Si Si1 0.913618 0.888103 0.097789
Si Si2 0.263692 0.798431 0.164687
Si Si3 0.535555 0.638717 0.000000
Si Si4 0.588965 0.889287 0.753377
Si Si5 0.372573 0.223801 0.088379
O O1 0.858411 0.816719 0.142816
O O2 0.014982 0.883621 0.117219
O O3 0.905146 0.877152 0.000000
O O4 0.250000 0.750000 0.250000
O O5 0.345793 0.857628 0.180345
O O6 0.266241 0.720761 0.101078
O O7 0.441269 0.600489 0.000000
O O8 0.558465 0.700146 0.076264
O O9 0.487927 0.885470 0.736388
O O10 0.607681 0.837337 0.836459
O O11 0.372212 0.178225 0.000000
#
# Coordination Sequence:
#
# PCOD9545823 Si02
#       5
#    16  16   8  16  16
#     4   9  19  36  59  88 119 151 192 249 303 361
#     4  10  21  35  56  84 119 156 193 241 299 346
#     4   9  20  38  64  91 119 150 201 260 306 347
#     4  10  23  41  59  84 124 164 200 246 302 356
#     4   9  21  38  63  89 119 154 203 250 296 362
#
# _framework density 17.999251000000001
#
# number of rings (size 3 to 8) (size 9 to 14) (size 15 to 20)
#    0.667    1.889    0.000    1.333    9.333    0.000 
#    0.000    4.444    0.000   10.667    0.000    0.000 
#    0.000    0.000    0.000    0.000    0.000    0.000 
#
# Total GULP energy -200451.853776 kJ/mol
# GULP energy per Si atom -5568.107049 kJ/mol
# Density = 1.795828 g / cm^3
# Si number density = 17.999251 Si / 1000 Ang^3
#
#
#
# Elastic Constant Matrix: (Units=GPa)
#
#
# Indices 1 2 3 4 5 6 
#
# 1 71.9145 40.6469 23.8191 0.0000 0.0000 -0.4463
# 2 40.6469 71.9145 23.8191 0.0000 0.0000 0.4463
# 3 23.8191 23.8191 61.7195 0.0000 0.0000 0.0000
# 4 0.0000 0.0000 0.0000 32.6589 0.0000 0.0000
# 5 0.0000 0.0000 0.0000 0.0000 32.6589 0.0000
# 6 -0.4463 0.4463 0.0000 0.0000 0.0000 32.2476
#
#
#
# Elastic Compliance Matrix: (Units=1/GPa)
#
#
# Indices 1 2 3 4 5 6 
#
# 1 0.021306 -0.010688 -0.004098 0.000000 0.000000 0.000443
# 2 -0.010688 0.021306 -0.004098 0.000000 0.000000 -0.000443
# 3 -0.004098 -0.004098 0.019365 0.000000 0.000000 0.000000
# 4 0.000000 0.000000 0.000000 0.030620 0.000000 0.000000
# 5 0.000000 0.000000 0.000000 0.000000 0.030620 0.000000
# 6 0.000443 -0.000443 0.000000 0.000000 0.000000 0.031022
#
#
# Mechanical properties :
#
#
# Convention : Reuss Voigt Hill
#
# Bulk Modulus (GPa) = 41.30452 42.45766 41.88109
# Shear Modulus (GPa) = 24.99031 27.33064 26.16048
#
# Velocity S-wave (km/s) = 3.73018 3.90093 3.81651
# Velocity P-wave (km/s) = 6.44593 6.62793 6.53757
#
# Compressibility (1/GPa) = 0.02421043
#
# Stress axis : x y z
#
# Youngs Moduli (GPa) = 46.93408 46.93408 51.63882
#
# Poissons Ratio (x) = 0.50164 0.21161
# Poissons Ratio (y) = 0.50164 0.21161
# Poissons Ratio (z) = 0.19233 0.19233
#
# Static dielectric constant tensor:
#      x y z
#    x 1.615470 0.000000 0.000000 
#    y 0.000000 1.615470 0.000000 
#    z 0.000000 0.000000 1.609390 
# 
# From -- ./inp_files/4238.got.cif
#   From: 2010.05.17/outbox.cif.g08.bks.cpg/sg87_3_cif.got.tgz:4238.got - 2010.06.03 19:07:00.
