data_PCOD9545037
_publ_section_title
;
Structure prediction by ZEFSAII (Michael W. Deem and Ramdas Pophale) SiO2 
 PCOD9545037
Probable space group: P 42/N
;
_chemical_formula_sum "Si O2"
_cell_formula_units_Z 60
_cell_length_a 11.194633
_cell_length_b 11.194633
_cell_length_c 20.045584
_cell_angle_alpha 90.000000
_cell_angle_beta 90.000000
_cell_angle_gamma 90.000000
_cell_volume 2512.108738
_symmetry_space_group_name_H-M "P 42/N"
_symmetry_group_IT_number 86
_space_group.IT_coordinate_system_code '2'
_symmetry_cell_setting 'tetragonal'
loop_
_space_group_symop_operation_xyz
x,y,z
-y,1/2+x,1/2+z
1/2-x,1/2-y,z
1/2+y,-x,1/2+z
-x,-y,-z
y,1/2-x,1/2-z
1/2+x,1/2+y,-z
1/2-y,x,1/2-z
loop_
_atom_site_type_symbol
_atom_site_label
_atom_site_fract_x
_atom_site_fract_y
_atom_site_fract_z
Si Si1 0.435056 0.851122 0.188785
Si Si2 0.036662 0.045286 0.902318
Si Si3 0.334085 0.144083 0.878521
Si Si4 0.052082 0.125895 0.763509
Si Si5 0.303164 0.996444 0.465089
Si Si6 0.629228 0.055761 0.017015
Si Si7 0.750000 0.750000 0.895053
Si Si8 0.015667 0.737574 0.621648
O O1 0.520309 0.836861 0.122992
O O2 0.307170 0.891073 0.166648
O O3 0.493704 0.960029 0.231823
O O4 0.452182 0.727474 0.228167
O O5 0.319375 0.023409 0.921416
O O6 0.900815 0.040727 0.877135
O O7 0.033174 0.127558 0.967322
O O8 0.062887 0.908808 0.921272
O O9 0.250000 0.250000 0.904889
O O10 0.100893 0.099173 0.837662
O O11 0.325813 0.131975 0.798015
O O12 0.193947 0.903926 0.470367
O O13 0.260398 0.124539 0.435646
O O14 0.500000 0.000000 0.000000
O O15 0.715087 0.034574 0.953971
O O16 0.759436 0.622257 0.858875
#
# Coordination Sequence:
#
# PCOD9545037 Si02
#       8
#     8   8   8   8   8   8   4   8
#     4  10  21  40  65  96 135 170 237 280 348 431
#     4  10  24  45  67  94 144 185 235 290 357 433
#     4  10  23  38  62 104 140 177 229 300 354 419
#     4  10  22  42  62  97 131 181 222 289 343 427
#     4  10  22  42  66 106 133 180 235 293 354 428
#     4  12  21  39  67 105 144 175 233 294 352 422
#     4  10  20  40  68 101 133 168 232 278 344 418
#     4  11  23  42  68  99 135 187 225 286 353 427
#
# _framework density 23.884315999999998
#
# number of rings (size 3 to 8) (size 9 to 14) (size 15 to 20)
#    0.800    0.800    2.667    1.600    0.933    2.133 
#   13.200    0.000    0.000    0.800    0.000    0.000 
#    0.000    0.000    0.000    0.000    0.000    0.000 
#
# Total GULP energy -334731.219982 kJ/mol
# GULP energy per Si atom -5578.853666 kJ/mol
# Density = 2.382995 g / cm^3
# Si number density = 23.884316 Si / 1000 Ang^3
#
#
#
# Elastic Constant Matrix: (Units=GPa)
#
#
# Indices 1 2 3 4 5 6 
#
# 1 104.0884 46.2354 28.2385 0.0000 0.0000 11.4316
# 2 46.2354 104.0884 28.2385 0.0000 0.0000 -11.4316
# 3 28.2385 28.2385 76.7425 0.0000 0.0000 0.0000
# 4 0.0000 0.0000 0.0000 36.0082 0.0000 0.0000
# 5 0.0000 0.0000 0.0000 0.0000 36.0082 0.0000
# 6 11.4316 -11.4316 0.0000 0.0000 0.0000 45.7890
#
#
#
# Elastic Compliance Matrix: (Units=1/GPa)
#
#
# Indices 1 2 3 4 5 6 
#
# 1 0.013448 -0.005729 -0.002840 0.000000 0.000000 -0.004788
# 2 -0.005729 0.013448 -0.002840 0.000000 0.000000 0.004788
# 3 -0.002840 -0.002840 0.015121 0.000000 0.000000 0.000000
# 4 0.000000 0.000000 0.000000 0.027771 0.000000 0.000000
# 5 0.000000 0.000000 0.000000 0.000000 0.027771 0.000000
# 6 -0.004788 0.004788 0.000000 0.000000 0.000000 0.024230
#
#
# Mechanical properties :
#
#
# Convention : Reuss Voigt Hill
#
# Bulk Modulus (GPa) = 52.08879 54.48266 53.28572
# Shear Modulus (GPa) = 33.11048 35.70822 34.40935
#
# Velocity S-wave (km/s) = 3.72732 3.87078 3.79973
# Velocity P-wave (km/s) = 6.35453 6.54506 6.45050
#
# Compressibility (1/GPa) = 0.01919799
#
# Stress axis : x y z
#
# Youngs Moduli (GPa) = 74.35840 74.35840 66.13330
#
# Poissons Ratio (x) = 0.42599 0.18785
# Poissons Ratio (y) = 0.42599 0.18785
# Poissons Ratio (z) = 0.21121 0.21121
#
# Static dielectric constant tensor:
#      x y z
#    x 2.019560 0.000000 0.000000 
#    y 0.000000 2.019560 0.000000 
#    z 0.000000 0.000000 1.949260 
# 
# From -- ./inp_files/4267.got.cif
#   From: 2010.05.17/outbox.cif.g08.bks.cpg/sg86_3_cif.got.tgz:4267.got - 2010.06.03 19:03:11.
