data_PCOD9545648
_publ_section_title
;
Structure prediction by ZEFSAII (Michael W. Deem and Ramdas Pophale) SiO2 
 PCOD9545648
Probable space group: I 4/M
;
_chemical_formula_sum "Si O2"
_cell_formula_units_Z 120
_cell_length_a 27.613874
_cell_length_b 27.613874
_cell_length_c 7.507391
_cell_angle_alpha 90.000000
_cell_angle_beta 90.000000
_cell_angle_gamma 90.000000
_cell_volume 5724.581110
_symmetry_space_group_name_H-M "I 4/M"
_symmetry_group_IT_number 87
_symmetry_cell_setting 'tetragonal'
loop_
_space_group_symop_operation_xyz
x,y,z
-y,x,z
-x,-y,z
y,-x,z
-x,-y,-z
y,-x,-z
x,y,-z
-y,x,-z
1/2+x,1/2+y,1/2+z
1/2-y,1/2+x,1/2+z
1/2-x,1/2-y,1/2+z
1/2+y,1/2-x,1/2+z
1/2-x,1/2-y,1/2-z
1/2+y,1/2-x,1/2-z
1/2+x,1/2+y,1/2-z
1/2-y,1/2+x,1/2-z
loop_
_atom_site_type_symbol
_atom_site_label
_atom_site_fract_x
_atom_site_fract_y
_atom_site_fract_z
Si Si1 0.981358 0.920793 0.000000
Si Si2 0.246135 0.034798 0.716962
Si Si3 0.813418 0.342558 0.208400
Si Si4 0.642841 0.704159 0.216732
Si Si5 0.603265 0.085147 0.202405
Si Si6 0.538360 0.660483 0.215482
Si Si7 0.016028 0.646398 0.706045
Si Si8 0.646293 0.262466 0.215610
O O1 0.973409 0.887263 0.173054
O O2 0.034809 0.943750 0.000000
O O3 0.245876 0.033754 0.500000
O O4 0.238821 0.090329 0.773327
O O5 0.202613 0.999489 0.768300
O O6 0.299072 0.017280 0.779685
O O7 0.759686 0.353475 0.277709
O O8 0.854914 0.374448 0.297219
O O9 0.826423 0.286164 0.226590
O O10 0.814486 0.355803 0.000000
O O11 0.592156 0.679289 0.261873
O O12 0.689320 0.673673 0.276980
O O13 0.644842 0.705589 0.000000
O O14 0.623763 0.036895 0.289765
O O15 0.556055 0.110379 0.285711
O O16 0.591832 0.070502 0.000000
O O17 0.535893 0.653298 0.000000
O O18 0.031500 0.651840 0.500000
O O19 0.646244 0.262477 0.000000
#
# Coordination Sequence:
#
# PCOD9545648 Si02
#       8
#     8  16  16  16  16  16  16  16
#     4  11  28  50  68 100 142 168 214 287 336 394
#     4   9  18  37  64  89 119 161 210 259 309 377
#     4  11  21  37  57  88 128 167 204 249 313 379
#     4   9  20  37  61  90 126 166 209 257 312 382
#     4  11  23  39  60  84 113 155 202 250 307 365
#     4  10  22  44  72  98 128 177 223 265 335 396
#     4  10  21  40  61  83 117 156 198 254 310 359
#     4  10  19  36  60  89 124 163 209 257 309 375
#
# _framework density 20.962232
#
# number of rings (size 3 to 8) (size 9 to 14) (size 15 to 20)
#    0.000    1.933    1.333    2.000    1.867    4.000 
#    8.400    2.000    0.000    0.000    0.000    0.000 
#    0.000    0.000    0.000    0.000    0.000    0.000 
#
# Total GULP energy -335321.721319 kJ/mol
# GULP energy per Si atom -5588.695355 kJ/mol
# Density = 2.091452 g / cm^3
# Si number density = 20.962232 Si / 1000 Ang^3
#
#
#
# Elastic Constant Matrix: (Units=GPa)
#
#
# Indices 1 2 3 4 5 6 
#
# 1 153.4922 79.3982 25.6120 0.0000 0.0000 1.9431
# 2 79.3982 153.4922 25.6120 0.0000 0.0000 -1.9431
# 3 25.6120 25.6120 64.8077 0.0000 0.0000 0.0000
# 4 0.0000 0.0000 0.0000 38.2505 0.0000 0.0000
# 5 0.0000 0.0000 0.0000 0.0000 38.2505 0.0000
# 6 1.9431 -1.9431 0.0000 0.0000 0.0000 9.1753
#
#
#
# Elastic Compliance Matrix: (Units=1/GPa)
#
#
# Indices 1 2 3 4 5 6 
#
# 1 0.009175 -0.004473 -0.001858 0.000000 0.000000 -0.002890
# 2 -0.004473 0.009175 -0.001858 0.000000 0.000000 0.002890
# 3 -0.001858 -0.001858 0.016899 0.000000 0.000000 0.000000
# 4 0.000000 0.000000 0.000000 0.026143 0.000000 0.000000
# 5 0.000000 0.000000 0.000000 0.000000 0.026143 0.000000
# 6 -0.002890 0.002890 0.000000 0.000000 0.000000 0.110213
#
#
# Mechanical properties :
#
#
# Convention : Reuss Voigt Hill
#
# Bulk Modulus (GPa) = 52.99263 70.33738 61.66501
# Shear Modulus (GPa) = 22.68409 33.21324 27.94866
#
# Velocity S-wave (km/s) = 3.29316 3.98481 3.65538
# Velocity P-wave (km/s) = 6.30831 7.40262 6.87727
#
# Compressibility (1/GPa) = 0.01887055
#
# Stress axis : x y z
#
# Youngs Moduli (GPa) = 108.98823 108.98823 59.17440
#
# Poissons Ratio (x) = 0.48747 0.10997
# Poissons Ratio (y) = 0.48747 0.10997
# Poissons Ratio (z) = 0.20255 0.20255
#
# Static dielectric constant tensor:
#      x y z
#    x 1.712170 0.000000 0.000000 
#    y 0.000000 1.712170 0.000000 
#    z 0.000000 0.000000 1.815880 
# 
# From -- ./inp_files/1690.got.cif
#   From: 2010.05.17/outbox.cif.g08.bks.cpg/sg87_1_cif.got.tgz:1690.got - 2010.06.03 19:07:00.
