data_PCOD9545579
_publ_section_title
;
Structure prediction by ZEFSAII (Michael W. Deem and Ramdas Pophale) SiO2 
 PCOD9545579
Probable space group: I 4/M
;
_chemical_formula_sum "Si O2"
_cell_formula_units_Z 96
_cell_length_a 24.379355
_cell_length_b 24.379355
_cell_length_c 8.137083
_cell_angle_alpha 90.000000
_cell_angle_beta 90.000000
_cell_angle_gamma 90.000000
_cell_volume 4836.299287
_symmetry_space_group_name_H-M "I 4/M"
_symmetry_group_IT_number 87
_symmetry_cell_setting 'tetragonal'
loop_
_space_group_symop_operation_xyz
x,y,z
-y,x,z
-x,-y,z
y,-x,z
-x,-y,-z
y,-x,-z
x,y,-z
-y,x,-z
1/2+x,1/2+y,1/2+z
1/2-y,1/2+x,1/2+z
1/2-x,1/2-y,1/2+z
1/2+y,1/2-x,1/2+z
1/2-x,1/2-y,1/2-z
1/2+y,1/2-x,1/2-z
1/2+x,1/2+y,1/2-z
1/2-y,1/2+x,1/2-z
loop_
_atom_site_type_symbol
_atom_site_label
_atom_site_fract_x
_atom_site_fract_y
_atom_site_fract_z
Si Si1 0.688538 0.683765 0.306713
Si Si2 0.495498 0.085119 0.808023
Si Si3 0.010741 0.086689 0.802631
Si Si4 0.809772 0.069820 0.693374
Si Si5 0.684939 0.072930 0.299268
Si Si6 0.189324 0.693634 0.800073
O O1 0.684180 0.673253 0.500000
O O2 0.630860 0.666884 0.229453
O O3 0.691986 0.749148 0.272216
O O4 0.748408 0.662537 0.248517
O O5 0.443645 0.044045 0.790841
O O6 0.474216 0.143557 0.745382
O O7 0.511060 0.088424 0.000000
O O8 0.024579 0.148214 0.755366
O O9 0.954100 0.059400 0.744268
O O10 0.009874 0.084290 0.000000
O O11 0.805071 0.064322 0.500000
O O12 0.747540 0.066259 0.760263
O O13 0.684995 0.071578 0.500000
O O14 0.664802 0.134537 0.254115
O O15 0.194125 0.695229 0.000000
#
# Coordination Sequence:
#
# PCOD9545579 Si02
#       6
#    16  16  16  16  16  16
#     4   9  15  24  42  67  96 130 166 201 240 290
#     4  10  19  34  54  73  95 125 164 205 245 290
#     4   9  19  37  58  77  99 129 165 204 246 293
#     4  10  19  32  51  75 103 133 166 203 246 295
#     4   8  16  31  50  71  99 132 161 198 247 294
#     4   8  14  26  43  64  92 128 167 202 242 294
#
# _framework density 19.849888
#
# number of rings (size 3 to 8) (size 9 to 14) (size 15 to 20)
#    0.000    3.000    0.000    3.500    0.000    1.333 
#    0.000   10.833    0.000    6.000    0.000    0.000 
#    0.000    0.000    0.000    0.000    0.000    0.000 
#
# Total GULP energy -267234.429912 kJ/mol
# GULP energy per Si atom -5567.383956 kJ/mol
# Density = 1.980471 g / cm^3
# Si number density = 19.849888 Si / 1000 Ang^3
#
#
#
# Elastic Constant Matrix: (Units=GPa)
#
#
# Indices 1 2 3 4 5 6 
#
# 1 40.7620 25.3393 -0.1887 0.0000 0.0000 -0.5129
# 2 25.3393 40.7620 -0.1887 0.0000 0.0000 0.5129
# 3 -0.1887 -0.1887 15.2985 0.0000 0.0000 0.0000
# 4 0.0000 0.0000 0.0000 15.7965 0.0000 0.0000
# 5 0.0000 0.0000 0.0000 0.0000 15.7965 0.0000
# 6 -0.5129 0.5129 0.0000 0.0000 0.0000 23.0703
#
#
#
# Elastic Compliance Matrix: (Units=1/GPa)
#
#
# Indices 1 2 3 4 5 6 
#
# 1 0.040032 -0.024903 0.000187 0.000000 0.000000 0.001444
# 2 -0.024903 0.040032 0.000187 0.000000 0.000000 -0.001444
# 3 0.000187 0.000187 0.065371 0.000000 0.000000 0.000000
# 4 0.000000 0.000000 0.000000 0.063305 0.000000 0.000000
# 5 0.000000 0.000000 0.000000 0.000000 0.063305 0.000000
# 6 0.001444 -0.001444 0.000000 0.000000 0.000000 0.043410
#
#
# Mechanical properties :
#
#
# Convention : Reuss Voigt Hill
#
# Bulk Modulus (GPa) = 10.37606 16.30515 13.34061
# Shear Modulus (GPa) = 12.60586 15.72336 14.16461
#
# Velocity S-wave (km/s) = 2.52277 2.81750 2.67420
# Velocity P-wave (km/s) = 3.70465 4.33780 4.03367
#
# Compressibility (1/GPa) = 0.09637566
#
# Stress axis : x y z
#
# Youngs Moduli (GPa) = 24.97973 24.97973 15.29740
#
# Poissons Ratio (x) = 0.62207 -0.00285
# Poissons Ratio (y) = 0.62207 -0.00285
# Poissons Ratio (z) = -0.00466 -0.00466
#
# Static dielectric constant tensor:
#      x y z
#    x 1.738150 0.000000 0.000000 
#    y 0.000000 1.738150 0.000000 
#    z 0.000000 0.000000 1.698020 
# 
# From -- ./inp_files/1432.got.cif
#   From: 2010.05.17/outbox.cif.g08.bks.cpg/sg87_1_cif.got.tgz:1432.got - 2010.06.03 19:07:00.
