data_PCOD9545540
_publ_section_title
;
Structure prediction by ZEFSAII (Michael W. Deem and Ramdas Pophale) SiO2 
 PCOD9545540
Probable space group: I 4/M
;
_chemical_formula_sum "Si O2"
_cell_formula_units_Z 96
_cell_length_a 20.258318
_cell_length_b 20.258318
_cell_length_c 14.277945
_cell_angle_alpha 90.000000
_cell_angle_beta 90.000000
_cell_angle_gamma 90.000000
_cell_volume 5859.660749
_symmetry_space_group_name_H-M "I 4/M"
_symmetry_group_IT_number 87
_symmetry_cell_setting 'tetragonal'
loop_
_space_group_symop_operation_xyz
x,y,z
-y,x,z
-x,-y,z
y,-x,z
-x,-y,-z
y,-x,-z
x,y,-z
-y,x,-z
1/2+x,1/2+y,1/2+z
1/2-y,1/2+x,1/2+z
1/2-x,1/2-y,1/2+z
1/2+y,1/2-x,1/2+z
1/2-x,1/2-y,1/2-z
1/2+y,1/2-x,1/2-z
1/2+x,1/2+y,1/2-z
1/2-y,1/2+x,1/2-z
loop_
_atom_site_type_symbol
_atom_site_label
_atom_site_fract_x
_atom_site_fract_y
_atom_site_fract_z
Si Si1 0.962687 0.894863 0.391769
Si Si2 0.323489 0.562453 0.296180
Si Si3 0.921398 0.422899 0.741692
Si Si4 0.329744 0.417891 0.612565
Si Si5 0.431986 0.189721 0.605444
Si Si6 0.182424 0.408288 0.395069
O O1 0.955095 0.873338 0.500000
O O2 0.943900 0.841916 0.313048
O O3 0.038626 0.918885 0.379026
O O4 0.372894 0.613754 0.344400
O O5 0.333892 0.490584 0.342903
O O6 0.249364 0.583384 0.323928
O O7 0.912193 0.500038 0.768321
O O8 0.879883 0.409911 0.648011
O O9 0.893961 0.374495 0.821363
O O10 0.335299 0.422909 0.500000
O O11 0.256690 0.388770 0.633062
O O12 0.407706 0.202695 0.500000
O O13 0.511688 0.186084 0.600333
O O14 0.168057 0.384033 0.500000
#
# Coordination Sequence:
#
# PCOD9545540 Si02
#       6
#    16  16  16  16  16  16
#     4   9  17  30  46  66  92 128 175 218 247 269
#     4  11  18  30  47  69  98 135 169 203 238 282
#     4   9  17  31  53  75  92 118 162 205 245 305
#     4  10  19  29  45  70 101 133 167 202 242 282
#     4   9  18  31  47  71 104 130 152 193 260 307
#     4   8  16  31  48  69  97 127 155 195 247 296
#
# _framework density 16.383201
#
# number of rings (size 3 to 8) (size 9 to 14) (size 15 to 20)
#    0.000    2.667    1.667    3.000    0.000    1.000 
#    0.000    5.833    0.000    7.000    0.000    0.000 
#    0.000    0.000    0.000    0.000    0.000    0.000 
#
# Total GULP energy -267248.015828 kJ/mol
# GULP energy per Si atom -5567.666996 kJ/mol
# Density = 1.634591 g / cm^3
# Si number density = 16.383201 Si / 1000 Ang^3
#
#
#
# Elastic Constant Matrix: (Units=GPa)
#
#
# Indices 1 2 3 4 5 6 
#
# 1 49.4716 26.7518 43.7297 0.0000 0.0000 -2.2294
# 2 26.7518 49.4716 43.7297 0.0000 0.0000 2.2294
# 3 43.7297 43.7297 128.4010 0.0000 0.0000 0.0000
# 4 0.0000 0.0000 0.0000 23.5386 0.0000 0.0000
# 5 0.0000 0.0000 0.0000 0.0000 23.5386 0.0000
# 6 -2.2294 2.2294 0.0000 0.0000 0.0000 7.3448
#
#
#
# Elastic Compliance Matrix: (Units=1/GPa)
#
#
# Indices 1 2 3 4 5 6 
#
# 1 0.034168 -0.012634 -0.007334 0.000000 0.000000 0.014206
# 2 -0.012634 0.034168 -0.007334 0.000000 0.000000 -0.014206
# 3 -0.007334 -0.007334 0.012784 0.000000 0.000000 0.000000
# 4 0.000000 0.000000 0.000000 0.042483 0.000000 0.000000
# 5 0.000000 0.000000 0.000000 0.000000 0.042483 0.000000
# 6 0.014206 -0.014206 0.000000 0.000000 0.000000 0.144775
#
#
# Mechanical properties :
#
#
# Convention : Reuss Voigt Hill
#
# Bulk Modulus (GPa) = 37.71243 50.64074 44.17658
# Shear Modulus (GPa) = 13.35808 18.42661 15.89235
#
# Velocity S-wave (km/s) = 2.85854 3.35733 3.11792
# Velocity P-wave (km/s) = 5.82786 6.78278 6.32337
#
# Compressibility (1/GPa) = 0.02651646
#
# Stress axis : x y z
#
# Youngs Moduli (GPa) = 29.26675 29.26675 78.22505
#
# Poissons Ratio (x) = 0.36976 0.57370
# Poissons Ratio (y) = 0.36976 0.57370
# Poissons Ratio (z) = 0.21464 0.21464
#
# Static dielectric constant tensor:
#      x y z
#    x 1.547130 0.000000 0.000000 
#    y 0.000000 1.547130 0.000000 
#    z 0.000000 0.000000 1.555840 
# 
# From -- ./inp_files/2735.got.cif
#   From: 2010.05.17/outbox.cif.g08.bks.cpg/sg87_2_cif.got.tgz:2735.got - 2010.06.03 19:07:00.
