data_PCOD9545279
_publ_section_title
;
Structure prediction by ZEFSAII (Michael W. Deem and Ramdas Pophale) SiO2 
 PCOD9545279
Probable space group: P 42/N
;
_chemical_formula_sum "Si O2"
_cell_formula_units_Z 24
_cell_length_a 8.955871
_cell_length_b 8.955871
_cell_length_c 12.082769
_cell_angle_alpha 90.000000
_cell_angle_beta 90.000000
_cell_angle_gamma 90.000000
_cell_volume 969.130209
_symmetry_space_group_name_H-M "P 42/N"
_symmetry_group_IT_number 86
_space_group.IT_coordinate_system_code '2'
_symmetry_cell_setting 'tetragonal'
loop_
_space_group_symop_operation_xyz
x,y,z
-y,1/2+x,1/2+z
1/2-x,1/2-y,z
1/2+y,-x,1/2+z
-x,-y,-z
y,1/2-x,1/2-z
1/2+x,1/2+y,-z
1/2-y,x,1/2-z
loop_
_atom_site_type_symbol
_atom_site_label
_atom_site_fract_x
_atom_site_fract_y
_atom_site_fract_z
Si Si1 0.993871 0.024715 0.830832
Si Si2 0.655046 0.034738 0.884786
Si Si3 0.250889 0.040485 0.493575
O O1 0.817237 0.064411 0.834342
O O2 0.037875 0.972583 0.709395
O O3 0.079241 0.156412 0.894823
O O4 0.004003 0.876696 0.905997
O O5 0.603334 0.151157 0.976042
O O6 0.651260 0.870963 0.940632
#
# Coordination Sequence:
#
# PCOD9545279 Si02
#       3
#     8   8   8
#     4  11  22  45  71 102 136 187 224 287 349 417
#     4  11  22  45  71 102 136 187 224 287 349 417
#     4  10  24  42  66 102 134 176 236 278 338 410
#
# _framework density 24.764472000000001
#
# number of rings (size 3 to 8) (size 9 to 14) (size 15 to 20)
#    0.000    1.333    3.333    2.000    0.000    0.000 
#   36.000    0.000    0.000    0.000    0.000    0.000 
#    0.000    0.000    0.000    0.000    0.000    0.000 
#
# Total GULP energy -134320.097332 kJ/mol
# GULP energy per Si atom -5596.670722 kJ/mol
# Density = 2.470811 g / cm^3
# Si number density = 24.764472 Si / 1000 Ang^3
#
#
#
# Elastic Constant Matrix: (Units=GPa)
#
#
# Indices 1 2 3 4 5 6 
#
# 1 59.7361 5.9568 20.0950 0.0000 0.0000 6.6011
# 2 5.9568 59.7361 20.0950 0.0000 0.0000 -6.6011
# 3 20.0950 20.0950 84.1303 0.0000 0.0000 0.0000
# 4 0.0000 0.0000 0.0000 33.3459 0.0000 0.0000
# 5 0.0000 0.0000 0.0000 0.0000 33.3459 0.0000
# 6 6.6011 -6.6011 0.0000 0.0000 0.0000 45.3031
#
#
#
# Elastic Compliance Matrix: (Units=1/GPa)
#
#
# Indices 1 2 3 4 5 6 
#
# 1 0.018556 -0.000728 -0.004258 0.000000 0.000000 -0.002810
# 2 -0.000728 0.018556 -0.004258 0.000000 0.000000 0.002810
# 3 -0.004258 -0.004258 0.013921 0.000000 0.000000 0.000000
# 4 0.000000 0.000000 0.000000 0.029989 0.000000 0.000000
# 5 0.000000 0.000000 0.000000 0.000000 0.029989 0.000000
# 6 -0.002810 0.002810 0.000000 0.000000 0.000000 0.022892
#
#
# Mechanical properties :
#
#
# Convention : Reuss Voigt Hill
#
# Bulk Modulus (GPa) = 30.72890 32.87735 31.80313
# Shear Modulus (GPa) = 30.62988 32.89602 31.76295
#
# Velocity S-wave (km/s) = 3.52070 3.64862 3.58523
# Velocity P-wave (km/s) = 5.38168 5.57267 5.47801
#
# Compressibility (1/GPa) = 0.03254265
#
# Stress axis : x y z
#
# Youngs Moduli (GPa) = 53.89124 53.89124 71.83637
#
# Poissons Ratio (x) = 0.03926 0.30589
# Poissons Ratio (y) = 0.03926 0.30589
# Poissons Ratio (z) = 0.22948 0.22948
#
# Static dielectric constant tensor:
#      x y z
#    x 1.995070 0.000000 0.000000 
#    y 0.000000 1.995070 0.000000 
#    z 0.000000 0.000000 1.936650 
# 
# From -- ./inp_files/2610.got.cif
#   From: 2010.05.17/outbox.cif.g08.bks.cpg/sg86_2_cif.got.tgz:2610.got - 2010.06.03 19:03:11.
