data_PCOD9545984
_publ_section_title
;
Structure prediction by ZEFSAII (Michael W. Deem and Ramdas Pophale) SiO2 
 PCOD9545984
Probable space group: I 4/M
;
_chemical_formula_sum "Si O2"
_cell_formula_units_Z 72
_cell_length_a 17.748919
_cell_length_b 17.748919
_cell_length_c 11.840958
_cell_angle_alpha 90.000000
_cell_angle_beta 90.000000
_cell_angle_gamma 90.000000
_cell_volume 3730.187441
_symmetry_space_group_name_H-M "I 4/M"
_symmetry_group_IT_number 87
_symmetry_cell_setting 'tetragonal'
loop_
_space_group_symop_operation_xyz
x,y,z
-y,x,z
-x,-y,z
y,-x,z
-x,-y,-z
y,-x,-z
x,y,-z
-y,x,-z
1/2+x,1/2+y,1/2+z
1/2-y,1/2+x,1/2+z
1/2-x,1/2-y,1/2+z
1/2+y,1/2-x,1/2+z
1/2-x,1/2-y,1/2-z
1/2+y,1/2-x,1/2-z
1/2+x,1/2+y,1/2-z
1/2-y,1/2+x,1/2-z
loop_
_atom_site_type_symbol
_atom_site_label
_atom_site_fract_x
_atom_site_fract_y
_atom_site_fract_z
Si Si1 0.415466 0.652740 0.000000
Si Si2 0.601368 0.567491 0.749378
Si Si3 0.033753 0.617775 0.730128
Si Si4 0.198326 0.513266 0.000000
Si Si5 0.751593 0.616397 0.629540
Si Si6 0.687729 0.757382 0.000000
O O1 0.425205 0.607139 0.115234
O O2 0.475029 0.720089 0.000000
O O3 0.331589 0.687273 0.000000
O O4 0.520658 0.601298 0.716515
O O5 0.673513 0.606138 0.694120
O O6 0.087209 0.544748 0.718027
O O7 0.012754 0.653681 0.610336
O O8 0.073936 0.681473 0.805383
O O9 0.211486 0.602555 0.000000
O O10 0.745794 0.586752 0.500000
O O11 0.772602 0.703879 0.607846
#
# Coordination Sequence:
#
# PCOD9545984 Si02
#       6
#     8  16  16   8  16   8
#     4  12  24  41  67  99 127 169 218 281 339 386
#     4  11  24  43  69  97 131 174 225 280 333 394
#     4  11  23  39  66  96 136 178 222 278 332 400
#     4  12  22  42  66  99 128 177 219 275 336 392
#     4  10  23  45  63  96 134 176 217 275 333 393
#     4  10  24  45  66  96 142 163 221 281 323 400
#
# _framework density 19.301978999999999
#
# number of rings (size 3 to 8) (size 9 to 14) (size 15 to 20)
#    0.667    0.444    4.444    2.000    1.556    3.556 
#    4.000    1.111    0.000    0.000    0.000    0.000 
#    0.000    0.000    0.000    0.000    0.000    0.000 
#
# Total GULP energy -201048.218377 kJ/mol
# GULP energy per Si atom -5584.672733 kJ/mol
# Density = 1.925805 g / cm^3
# Si number density = 19.301979 Si / 1000 Ang^3
#
#
#
# Elastic Constant Matrix: (Units=GPa)
#
#
# Indices 1 2 3 4 5 6 
#
# 1 87.7098 22.6002 7.2428 0.0000 0.0000 4.8851
# 2 22.6002 87.7098 7.2428 0.0000 0.0000 -4.8851
# 3 7.2428 7.2428 47.5406 0.0000 0.0000 0.0000
# 4 0.0000 0.0000 0.0000 -11.2358 0.0000 0.0000
# 5 0.0000 0.0000 0.0000 0.0000 -11.2358 0.0000
# 6 4.8851 -4.8851 0.0000 0.0000 0.0000 25.7707
#
#
#
# Elastic Compliance Matrix: (Units=1/GPa)
#
#
# Indices 1 2 3 4 5 6 
#
# 1 0.012529 -0.003279 -0.001409 0.000000 0.000000 -0.002997
# 2 -0.003279 0.012529 -0.001409 0.000000 0.000000 0.002997
# 3 -0.001409 -0.001409 0.021464 0.000000 0.000000 0.000000
# 4 0.000000 0.000000 0.000000 -0.089002 0.000000 0.000000
# 5 0.000000 0.000000 0.000000 0.000000 -0.089002 0.000000
# 6 -0.002997 0.002997 0.000000 0.000000 0.000000 0.039940
#
#
# Mechanical properties :
#
#
# Convention : Reuss Voigt Hill
#
# Bulk Modulus (GPa) = 29.13097 33.01463 31.07280
# Shear Modulus (GPa) = -73.63486 13.05146 -30.29170
#
# Velocity S-wave (km/s) = -6.18318 2.60315 -3.96581
# Velocity P-wave (km/s) = 5.98754 5.11631 2.19932
#
# Compressibility (1/GPa) = 0.03432772
#
# Stress axis : x y z
#
# Youngs Moduli (GPa) = 79.81223 79.81223 46.58950
#
# Poissons Ratio (x) = 0.26170 0.06566
# Poissons Ratio (y) = 0.26170 0.06566
# Poissons Ratio (z) = 0.11248 0.11248
#
# Static dielectric constant tensor:
#      x y z
#    x 1.658380 0.000000 0.000000 
#    y 0.000000 1.658380 0.000000 
#    z 0.000000 0.000000 1.660370 
# 
# From -- ./inp_files/2489.got.cif
#   From: 2010.05.17/outbox.cif.g08.bks.cpg/sg87_2_cif.got.tgz:2489.got - 2010.06.03 19:07:00.
