data_PCOD9545763
_publ_section_title
;
Structure prediction by ZEFSAII (Michael W. Deem and Ramdas Pophale) SiO2 
 PCOD9545763
Probable space group: I 4/M
;
_chemical_formula_sum "Si O2"
_cell_formula_units_Z 96
_cell_length_a 22.794817
_cell_length_b 22.794817
_cell_length_c 7.647659
_cell_angle_alpha 90.000000
_cell_angle_beta 90.000000
_cell_angle_gamma 90.000000
_cell_volume 3973.751776
_symmetry_space_group_name_H-M "I 4/M"
_symmetry_group_IT_number 87
_symmetry_cell_setting 'tetragonal'
loop_
_space_group_symop_operation_xyz
x,y,z
-y,x,z
-x,-y,z
y,-x,z
-x,-y,-z
y,-x,-z
x,y,-z
-y,x,-z
1/2+x,1/2+y,1/2+z
1/2-y,1/2+x,1/2+z
1/2-x,1/2-y,1/2+z
1/2+y,1/2-x,1/2+z
1/2-x,1/2-y,1/2-z
1/2+y,1/2-x,1/2-z
1/2+x,1/2+y,1/2-z
1/2-y,1/2+x,1/2-z
loop_
_atom_site_type_symbol
_atom_site_label
_atom_site_fract_x
_atom_site_fract_y
_atom_site_fract_z
Si Si1 0.896493 0.258713 0.715850
Si Si2 0.697149 0.146002 0.201087
Si Si3 0.331039 0.643690 0.794895
Si Si4 0.084649 0.955867 0.286832
Si Si5 0.411365 0.026037 0.799300
Si Si6 0.707556 0.015144 0.304912
O O1 0.899900 0.259918 0.500000
O O2 0.856401 0.314713 0.773469
O O3 0.863071 0.200849 0.776729
O O4 0.964381 0.252726 0.775771
O O5 0.761853 0.154055 0.277711
O O6 0.690996 0.075592 0.213639
O O7 0.701137 0.163328 0.000000
O O8 0.359194 0.582619 0.727141
O O9 0.344319 0.642980 0.000000
O O10 0.085976 0.958282 0.500000
O O11 0.024012 0.922731 0.233921
O O12 0.460261 0.063522 0.704090
O O13 0.352165 0.022512 0.693210
O O14 0.403649 0.045171 0.000000
O O15 0.727811 0.030896 0.500000
#
# Coordination Sequence:
#
# PCOD9545763 Si02
#       6
#    16  16  16  16  16  16
#     4   9  21  39  60  85 116 153 198 252 301 349
#     4  11  23  40  58  84 123 160 193 241 307 369
#     4  10  20  36  62  88 114 153 201 246 291 352
#     4   8  15  28  52  88 122 149 186 243 301 348
#     4  11  21  35  55  82 116 155 198 244 297 355
#     4  11  22  38  61  87 113 149 200 254 305 358
#
# _framework density 24.158529999999999
#
# number of rings (size 3 to 8) (size 9 to 14) (size 15 to 20)
#    0.000    2.000    0.000    5.000    2.333    1.333 
#    0.000    5.000    0.000    0.000    0.000    1.167 
#    0.000    0.000    0.000    0.000    0.000    0.000 
#
# Total GULP energy -267840.187573 kJ/mol
# GULP energy per Si atom -5580.003908 kJ/mol
# Density = 2.410354 g / cm^3
# Si number density = 24.158530 Si / 1000 Ang^3
#
#
#
# Elastic Constant Matrix: (Units=GPa)
#
#
# Indices 1 2 3 4 5 6 
#
# 1 50.8622 -0.8398 -3.2199 0.0000 0.0000 1.6514
# 2 -0.8398 50.8622 -3.2199 0.0000 0.0000 -1.6514
# 3 -3.2199 -3.2199 62.4547 0.0000 0.0000 0.0000
# 4 0.0000 0.0000 0.0000 4.8993 0.0000 0.0000
# 5 0.0000 0.0000 0.0000 0.0000 4.8993 0.0000
# 6 1.6514 -1.6514 0.0000 0.0000 0.0000 41.2855
#
#
#
# Elastic Compliance Matrix: (Units=1/GPa)
#
#
# Indices 1 2 3 4 5 6 
#
# 1 0.019758 0.000367 0.001038 0.000000 0.000000 -0.000776
# 2 0.000367 0.019758 0.001038 0.000000 0.000000 0.000776
# 3 0.001038 0.001038 0.016119 0.000000 0.000000 0.000000
# 4 0.000000 0.000000 0.000000 0.204111 0.000000 0.000000
# 5 0.000000 0.000000 0.000000 0.000000 0.204111 0.000000
# 6 -0.000776 0.000776 0.000000 0.000000 0.000000 0.024284
#
#
# Mechanical properties :
#
#
# Convention : Reuss Voigt Hill
#
# Bulk Modulus (GPa) = 16.52403 16.62444 16.57424
# Shear Modulus (GPa) = 9.93187 21.64739 15.78963
#
# Velocity S-wave (km/s) = 2.02979 2.99667 2.55930
# Velocity P-wave (km/s) = 3.51398 4.34392 3.95081
#
# Compressibility (1/GPa) = 0.06051794
#
# Stress axis : x y z
#
# Youngs Moduli (GPa) = 50.61271 50.61271 62.04018
#
# Poissons Ratio (x) = -0.01856 -0.06437
# Poissons Ratio (y) = -0.01856 -0.06437
# Poissons Ratio (z) = -0.05251 -0.05251
#
# Static dielectric constant tensor:
#      x y z
#    x 1.977070 0.000000 0.000000 
#    y 0.000000 1.977070 0.000000 
#    z 0.000000 0.000000 1.983490 
# 
# From -- ./inp_files/1446.got.cif
#   From: 2010.05.17/outbox.cif.g08.bks.cpg/sg87_1_cif.got.tgz:1446.got - 2010.06.03 19:07:00.
