data_PCOD9545872
_publ_section_title
;
Structure prediction by ZEFSAII (Michael W. Deem and Ramdas Pophale) SiO2 
 PCOD9545872
Probable space group: I 4/M
;
_chemical_formula_sum "Si O2"
_cell_formula_units_Z 96
_cell_length_a 19.191421
_cell_length_b 19.191421
_cell_length_c 12.357411
_cell_angle_alpha 90.000000
_cell_angle_beta 90.000000
_cell_angle_gamma 90.000000
_cell_volume 4551.365954
_symmetry_space_group_name_H-M "I 4/M"
_symmetry_group_IT_number 87
_symmetry_cell_setting 'tetragonal'
loop_
_space_group_symop_operation_xyz
x,y,z
-y,x,z
-x,-y,z
y,-x,z
-x,-y,-z
y,-x,-z
x,y,-z
-y,x,-z
1/2+x,1/2+y,1/2+z
1/2-y,1/2+x,1/2+z
1/2-x,1/2-y,1/2+z
1/2+y,1/2-x,1/2+z
1/2-x,1/2-y,1/2-z
1/2+y,1/2-x,1/2-z
1/2+x,1/2+y,1/2-z
1/2-y,1/2+x,1/2-z
loop_
_atom_site_type_symbol
_atom_site_label
_atom_site_fract_x
_atom_site_fract_y
_atom_site_fract_z
Si Si1 0.031389 0.677249 0.702392
Si Si2 0.173331 0.226889 0.788869
Si Si3 0.406944 0.734892 0.383285
Si Si4 0.113449 0.006197 0.818787
Si Si5 0.853839 0.417676 0.621540
Si Si6 0.190411 0.949381 0.624806
O O1 0.086999 0.713439 0.783167
O O2 0.074290 0.624492 0.630224
O O3 0.975964 0.644866 0.785549
O O4 0.992014 0.737362 0.636143
O O5 0.250000 0.250000 0.750000
O O6 0.187386 0.160465 0.864490
O O7 0.133165 0.289120 0.849326
O O8 0.122856 0.202073 0.690527
O O9 0.402411 0.769145 0.500000
O O10 0.475840 0.686199 0.375301
O O11 0.062214 0.069779 0.845464
O O12 0.134390 0.994843 0.692935
O O13 0.844461 0.445172 0.500000
O O14 0.172252 0.938666 0.500000
#
# Coordination Sequence:
#
# PCOD9545872 Si02
#       6
#    16  16  16  16  16  16
#     4  10  23  43  62  95 127 155 217 261 308 389
#     4  11  22  42  63  97 127 159 217 265 306 385
#     4  11  22  40  63  89 126 166 206 265 319 363
#     4  10  21  39  58  86 126 163 216 256 297 382
#     4  11  23  43  69  93 127 169 202 258 325 372
#     4  10  22  40  63  89 129 170 206 263 318 363
#
# _framework density 21.092569000000001
#
# number of rings (size 3 to 8) (size 9 to 14) (size 15 to 20)
#    0.000    1.500    3.333    1.500    0.000    3.000 
#    0.000    5.000    0.000    0.000    0.000    0.000 
#    0.000    0.000    0.000    0.000    0.000    0.000 
#
# Total GULP energy -268012.914226 kJ/mol
# GULP energy per Si atom -5583.602380 kJ/mol
# Density = 2.104456 g / cm^3
# Si number density = 21.092569 Si / 1000 Ang^3
#
#
#
# Elastic Constant Matrix: (Units=GPa)
#
#
# Indices 1 2 3 4 5 6 
#
# 1 64.9881 13.8410 -0.7677 0.0000 0.0000 -2.1666
# 2 13.8410 64.9881 -0.7677 0.0000 0.0000 2.1666
# 3 -0.7677 -0.7677 92.2705 0.0000 0.0000 0.0000
# 4 0.0000 0.0000 0.0000 9.7883 0.0000 0.0000
# 5 0.0000 0.0000 0.0000 0.0000 9.7883 0.0000
# 6 -2.1666 2.1666 0.0000 0.0000 0.0000 36.7168
#
#
#
# Elastic Compliance Matrix: (Units=1/GPa)
#
#
# Indices 1 2 3 4 5 6 
#
# 1 0.016169 -0.003481 0.000106 0.000000 0.000000 0.001159
# 2 -0.003481 0.016169 0.000106 0.000000 0.000000 -0.001159
# 3 0.000106 0.000106 0.010839 0.000000 0.000000 0.000000
# 4 0.000000 0.000000 0.000000 0.102162 0.000000 0.000000
# 5 0.000000 0.000000 0.000000 0.000000 0.102162 0.000000
# 6 0.001159 -0.001159 0.000000 0.000000 0.000000 0.027372
#
#
# Mechanical properties :
#
#
# Convention : Reuss Voigt Hill
#
# Bulk Modulus (GPa) = 27.29467 27.42863 27.36165
# Shear Modulus (GPa) = 17.02846 25.25477 21.14161
#
# Velocity S-wave (km/s) = 2.84442 3.46400 3.16939
# Velocity P-wave (km/s) = 4.87403 5.38806 5.13748
#
# Compressibility (1/GPa) = 0.03663719
#
# Stress axis : x y z
#
# Youngs Moduli (GPa) = 61.84787 61.84787 92.25550
#
# Poissons Ratio (x) = 0.21529 -0.00974
# Poissons Ratio (y) = 0.21529 -0.00974
# Poissons Ratio (z) = -0.00653 -0.00653
#
# Static dielectric constant tensor:
#      x y z
#    x 1.771660 0.000000 0.000000 
#    y 0.000000 1.771660 0.000000 
#    z 0.000000 0.000000 1.731050 
# 
# From -- ./inp_files/2771.got.cif
#   From: 2010.05.17/outbox.cif.g08.bks.cpg/sg87_2_cif.got.tgz:2771.got - 2010.06.03 19:07:00.
