data_PCOD9545645
_publ_section_title
;
Structure prediction by ZEFSAII (Michael W. Deem and Ramdas Pophale) SiO2 
 PCOD9545645
Probable space group: I 4/M
;
_chemical_formula_sum "Si O2"
_cell_formula_units_Z 64
_cell_length_a 21.902553
_cell_length_b 21.902553
_cell_length_c 7.702681
_cell_angle_alpha 90.000000
_cell_angle_beta 90.000000
_cell_angle_gamma 90.000000
_cell_volume 3695.144209
_symmetry_space_group_name_H-M "I 4/M"
_symmetry_group_IT_number 87
_symmetry_cell_setting 'tetragonal'
loop_
_space_group_symop_operation_xyz
x,y,z
-y,x,z
-x,-y,z
y,-x,z
-x,-y,-z
y,-x,-z
x,y,-z
-y,x,-z
1/2+x,1/2+y,1/2+z
1/2-y,1/2+x,1/2+z
1/2-x,1/2-y,1/2+z
1/2+y,1/2-x,1/2+z
1/2-x,1/2-y,1/2-z
1/2+y,1/2-x,1/2-z
1/2+x,1/2+y,1/2-z
1/2-y,1/2+x,1/2-z
loop_
_atom_site_type_symbol
_atom_site_label
_atom_site_fract_x
_atom_site_fract_y
_atom_site_fract_z
Si Si1 0.713257 0.311198 0.202843
Si Si2 0.515963 0.905665 0.197941
Si Si3 0.514172 0.684530 0.500000
Si Si4 0.272258 0.941819 0.294922
Si Si5 0.875780 0.145344 0.000000
O O1 0.750000 0.250000 0.250000
O O2 0.757174 0.370132 0.226695
O O3 0.657045 0.323694 0.332845
O O4 0.695042 0.309024 0.000000
O O5 0.457860 0.932442 0.296819
O O6 0.541992 0.841221 0.257436
O O7 0.495501 0.898277 0.000000
O O8 0.522127 0.726557 0.670469
O O9 0.447958 0.654621 0.500000
O O10 0.573341 0.640538 0.500000
O O11 0.264100 0.955710 0.500000
#
# Coordination Sequence:
#
# PCOD9545645 Si02
#       5
#    16  16   8  16   8
#     4  10  19  36  58  84 118 146 186 234 284 338
#     4  10  20  33  49  72 105 145 187 221 263 316
#     4  10  22  39  62  79 116 140 188 232 286 338
#     4   9  21  37  54  79 112 146 182 231 279 330
#     4  10  22  39  58  90 110 156 184 235 286 336
#
# _framework density 17.320029000000002
#
# number of rings (size 3 to 8) (size 9 to 14) (size 15 to 20)
#    0.000    2.250    1.250    1.500    3.500    3.250 
#    0.000    2.500    0.000    0.000    0.000    7.000 
#    0.000    0.000    0.000    0.000    0.000    0.000 
#
# Total GULP energy -178447.426770 kJ/mol
# GULP energy per Si atom -5576.482087 kJ/mol
# Density = 1.728061 g / cm^3
# Si number density = 17.320029 Si / 1000 Ang^3
#
#
#
# Elastic Constant Matrix: (Units=GPa)
#
#
# Indices 1 2 3 4 5 6 
#
# 1 132.7491 71.8584 57.4036 0.0000 0.0000 19.4006
# 2 71.8584 132.7491 57.4036 0.0000 0.0000 -19.4006
# 3 57.4036 57.4036 90.2770 0.0000 0.0000 0.0000
# 4 0.0000 0.0000 0.0000 10.7077 0.0000 0.0000
# 5 0.0000 0.0000 0.0000 0.0000 10.7077 0.0000
# 6 19.4006 -19.4006 0.0000 0.0000 0.0000 17.6995
#
#
#
# Elastic Compliance Matrix: (Units=1/GPa)
#
#
# Indices 1 2 3 4 5 6 
#
# 1 0.031032 -0.023434 -0.004832 0.000000 0.000000 -0.059701
# 2 -0.023434 0.031032 -0.004832 0.000000 0.000000 0.059701
# 3 -0.004832 -0.004832 0.017221 0.000000 0.000000 0.000000
# 4 0.000000 0.000000 0.000000 0.093391 0.000000 0.000000
# 5 0.000000 0.000000 0.000000 0.000000 0.093391 0.000000
# 6 -0.059701 0.059701 0.000000 0.000000 0.000000 0.187376
#
#
# Mechanical properties :
#
#
# Convention : Reuss Voigt Hill
#
# Bulk Modulus (GPa) = 76.38204 81.01181 78.69692
# Shear Modulus (GPa) = 9.54198 19.09695 14.31947
#
# Velocity S-wave (km/s) = 2.34972 3.32413 2.87846
# Velocity P-wave (km/s) = 7.18037 7.84909 7.52216
#
# Compressibility (1/GPa) = 0.01309208
#
# Stress axis : x y z
#
# Youngs Moduli (GPa) = 32.22470 32.22470 58.06722
#
# Poissons Ratio (x) = 0.75514 0.28055
# Poissons Ratio (y) = 0.75514 0.28055
# Poissons Ratio (z) = 0.15570 0.15570
#
# Static dielectric constant tensor:
#      x y z
#    x 1.565680 0.000000 0.000000 
#    y 0.000000 1.565680 0.000000 
#    z 0.000000 0.000000 1.603900 
# 
# From -- ./inp_files/980.got.cif
#   From: 2010.05.17/outbox.cif.g08.bks.cpg/sg87_1_cif.got.tgz:980.got - 2010.06.03 19:07:00.
