data_PCOD9545553
_publ_section_title
;
Structure prediction by ZEFSAII (Michael W. Deem and Ramdas Pophale) SiO2 
 PCOD9545553
Probable space group: I 4/M
;
_chemical_formula_sum "Si O2"
_cell_formula_units_Z 112
_cell_length_a 16.912643
_cell_length_b 16.912643
_cell_length_c 22.296864
_cell_angle_alpha 90.000000
_cell_angle_beta 90.000000
_cell_angle_gamma 90.000000
_cell_volume 6377.739086
_symmetry_space_group_name_H-M "I 4/M"
_symmetry_group_IT_number 87
_symmetry_cell_setting 'tetragonal'
loop_
_space_group_symop_operation_xyz
x,y,z
-y,x,z
-x,-y,z
y,-x,z
-x,-y,-z
y,-x,-z
x,y,-z
-y,x,-z
1/2+x,1/2+y,1/2+z
1/2-y,1/2+x,1/2+z
1/2-x,1/2-y,1/2+z
1/2+y,1/2-x,1/2+z
1/2-x,1/2-y,1/2-z
1/2+y,1/2-x,1/2-z
1/2+x,1/2+y,1/2-z
1/2-y,1/2+x,1/2-z
loop_
_atom_site_type_symbol
_atom_site_label
_atom_site_fract_x
_atom_site_fract_y
_atom_site_fract_z
Si Si1 0.779783 0.206480 0.933387
Si Si2 0.581713 0.162380 0.432948
Si Si3 0.987163 0.127982 0.190380
Si Si4 0.658528 0.098024 0.320693
Si Si5 0.711990 0.276491 0.185900
Si Si6 0.695287 0.477397 0.567426
Si Si7 0.058092 0.718441 0.261643
O O1 0.851979 0.268241 0.931743
O O2 0.732900 0.223661 0.872165
O O3 0.808826 0.116828 0.930518
O O4 0.741305 0.216541 0.000000
O O5 0.578207 0.128976 0.500000
O O6 0.609795 0.102095 0.382546
O O7 0.502912 0.213297 0.420912
O O8 0.978416 0.214050 0.218926
O O9 0.068899 0.084134 0.206940
O O10 0.987301 0.141197 0.119002
O O11 0.744554 0.140385 0.327144
O O12 0.608295 0.154255 0.275970
O O13 0.673663 0.011372 0.295915
O O14 0.750000 0.250000 0.250000
O O15 0.619110 0.266793 0.196549
O O16 0.675651 0.504746 0.500000
#
# Coordination Sequence:
#
# PCOD9545553 Si02
#       7
#    16  16  16  16  16  16  16
#     4   9  18  32  52  76 105 141 182 223 263 320
#     4   9  17  32  51  75 104 138 180 217 261 317
#     4  11  23  34  50  77 113 148 179 224 272 323
#     4  10  21  36  55  79 102 140 173 220 276 319
#     4   9  20  34  56  79 102 138 182 222 269 325
#     4  10  19  30  50  76 109 148 182 218 259 317
#     4  11  22  36  54  78 105 137 180 227 270 329
#
# _framework density 17.561081000000001
#
# number of rings (size 3 to 8) (size 9 to 14) (size 15 to 20)
#    0.000    2.143    1.429    1.714    8.000    2.000 
#    0.000    1.429    0.000    0.000    0.000    4.000 
#    0.000    0.000    0.000   17.429    0.000    0.000 
#
# Total GULP energy -312077.078027 kJ/mol
# GULP energy per Si atom -5572.804965 kJ/mol
# Density = 1.752111 g / cm^3
# Si number density = 17.561081 Si / 1000 Ang^3
#
#
#
# Elastic Constant Matrix: (Units=GPa)
#
#
# Indices 1 2 3 4 5 6 
#
# 1 75.3656 19.5888 32.2172 0.0000 0.0000 10.1347
# 2 19.5888 75.3656 32.2172 0.0000 0.0000 -10.1347
# 3 32.2172 32.2172 92.3167 0.0000 0.0000 0.0000
# 4 0.0000 0.0000 0.0000 24.0910 0.0000 0.0000
# 5 0.0000 0.0000 0.0000 0.0000 24.0910 0.0000
# 6 10.1347 -10.1347 0.0000 0.0000 0.0000 16.4016
#
#
#
# Elastic Compliance Matrix: (Units=1/GPa)
#
#
# Indices 1 2 3 4 5 6 
#
# 1 0.018460 -0.004661 -0.004816 0.000000 0.000000 -0.014286
# 2 -0.004661 0.018460 -0.004816 0.000000 0.000000 0.014286
# 3 -0.004816 -0.004816 0.014194 0.000000 0.000000 0.000000
# 4 0.000000 0.000000 0.000000 0.041509 0.000000 0.000000
# 5 0.000000 0.000000 0.000000 0.000000 0.041509 0.000000
# 6 -0.014286 0.014286 0.000000 0.000000 0.000000 0.078625
#
#
# Mechanical properties :
#
#
# Convention : Reuss Voigt Hill
#
# Bulk Modulus (GPa) = 44.38713 45.67717 45.03215
# Shear Modulus (GPa) = 20.09238 23.51834 21.80536
#
# Velocity S-wave (km/s) = 3.38619 3.66352 3.52758
# Velocity P-wave (km/s) = 6.37331 6.63039 6.50312
#
# Compressibility (1/GPa) = 0.02252905
#
# Stress axis : x y z
#
# Youngs Moduli (GPa) = 54.17190 54.17190 70.45469
#
# Poissons Ratio (x) = 0.25247 0.33929
# Poissons Ratio (y) = 0.25247 0.33929
# Poissons Ratio (z) = 0.26088 0.26088
#
# Static dielectric constant tensor:
#      x y z
#    x 1.611950 0.000000 0.000000 
#    y 0.000000 1.611950 0.000000 
#    z 0.000000 0.000000 1.649980 
# 
# From -- ./inp_files/5889.got.cif
#   From: 2010.05.17/outbox.cif.g08.bks.cpg/sg87_3_cif.got.tgz:5889.got - 2010.06.03 19:07:00.
