data_PCOD9545491
_publ_section_title
;
Structure prediction by ZEFSAII (Michael W. Deem and Ramdas Pophale) SiO2 
 PCOD9545491
Probable space group: I 4/M
;
_chemical_formula_sum "Si O2"
_cell_formula_units_Z 96
_cell_length_a 15.379670
_cell_length_b 15.379670
_cell_length_c 22.101813
_cell_angle_alpha 90.000000
_cell_angle_beta 90.000000
_cell_angle_gamma 90.000000
_cell_volume 5227.835746
_symmetry_space_group_name_H-M "I 4/M"
_symmetry_group_IT_number 87
_symmetry_cell_setting 'tetragonal'
loop_
_space_group_symop_operation_xyz
x,y,z
-y,x,z
-x,-y,z
y,-x,z
-x,-y,-z
y,-x,-z
x,y,-z
-y,x,-z
1/2+x,1/2+y,1/2+z
1/2-y,1/2+x,1/2+z
1/2-x,1/2-y,1/2+z
1/2+y,1/2-x,1/2+z
1/2-x,1/2-y,1/2-z
1/2+y,1/2-x,1/2-z
1/2+x,1/2+y,1/2-z
1/2-y,1/2+x,1/2-z
loop_
_atom_site_type_symbol
_atom_site_label
_atom_site_fract_x
_atom_site_fract_y
_atom_site_fract_z
Si Si1 0.872579 0.376029 0.809230
Si Si2 0.374099 0.570281 0.278896
Si Si3 0.684841 0.374191 0.144296
Si Si4 0.693417 0.060033 0.180383
Si Si5 0.281857 0.456452 0.068181
Si Si6 0.910917 0.532746 0.898797
O O1 0.784769 0.346185 0.843595
O O2 0.848459 0.397275 0.740344
O O3 0.900029 0.466431 0.841785
O O4 0.955285 0.312970 0.811599
O O5 0.387035 0.467301 0.288076
O O6 0.348435 0.593766 0.209824
O O7 0.291933 0.593752 0.320561
O O8 0.623214 0.303430 0.113187
O O9 0.681051 0.457199 0.099844
O O10 0.630807 0.079908 0.124817
O O11 0.178609 0.471849 0.066083
O O12 0.314762 0.442293 0.000000
O O13 0.000000 0.500000 0.928759
#
# Coordination Sequence:
#
# PCOD9545491 Si02
#       6
#    16  16  16  16  16  16
#     4   9  17  28  48  74 104 128 161 198 242 299
#     4  10  20  33  47  68 104 136 163 200 244 291
#     4  10  20  34  48  71  98 132 174 212 243 283
#     4  10  17  29  50  74  99 133 160 195 247 305
#     4  11  22  36  52  70  96 135 178 214 248 285
#     4   9  19  33  51  76 101 125 161 211 251 298
#
# _framework density 18.363237999999999
#
# number of rings (size 3 to 8) (size 9 to 14) (size 15 to 20)
#    0.000    2.167    3.333    0.500    0.000    2.000 
#    0.000    4.167    0.000    0.000    0.000    0.000 
#    0.000    0.000    0.000    3.500    0.000    0.000 
#
# Total GULP energy -267581.876980 kJ/mol
# GULP energy per Si atom -5574.622437 kJ/mol
# Density = 1.832144 g / cm^3
# Si number density = 18.363238 Si / 1000 Ang^3
#
#
#
# Elastic Constant Matrix: (Units=GPa)
#
#
# Indices 1 2 3 4 5 6 
#
# 1 65.3086 -2.1142 6.4296 0.0000 0.0000 4.5917
# 2 -2.1142 65.3086 6.4296 0.0000 0.0000 -4.5917
# 3 6.4296 6.4296 39.5125 0.0000 0.0000 0.0000
# 4 0.0000 0.0000 0.0000 -1.0406 0.0000 0.0000
# 5 0.0000 0.0000 0.0000 0.0000 -1.0406 0.0000
# 6 4.5917 -4.5917 0.0000 0.0000 0.0000 11.6583
#
#
#
# Elastic Compliance Matrix: (Units=1/GPa)
#
#
# Indices 1 2 3 4 5 6 
#
# 1 0.016019 0.000347 -0.002663 0.000000 0.000000 -0.006173
# 2 0.000347 0.016019 -0.002663 0.000000 0.000000 0.006173
# 3 -0.002663 -0.002663 0.026175 0.000000 0.000000 0.000000
# 4 0.000000 0.000000 0.000000 -0.960955 0.000000 0.000000
# 5 0.000000 0.000000 0.000000 0.000000 -0.960954 0.000000
# 6 -0.006173 0.006173 0.000000 0.000000 0.000000 0.090638
#
#
# Mechanical properties :
#
#
# Convention : Reuss Voigt Hill
#
# Bulk Modulus (GPa) = 20.72333 21.29106 21.00719
# Shear Modulus (GPa) = -2.86203 12.54105 4.83951
#
# Velocity S-wave (km/s) = -1.24978 2.61615 1.62516
# Velocity P-wave (km/s) = 3.03762 4.55469 3.87120
#
# Compressibility (1/GPa) = 0.04825480
#
# Stress axis : x y z
#
# Youngs Moduli (GPa) = 62.42456 62.42456 38.20422
#
# Poissons Ratio (x) = -0.02165 0.10174
# Poissons Ratio (y) = -0.02165 0.10174
# Poissons Ratio (z) = 0.16625 0.16625
#
# Static dielectric constant tensor:
#      x y z
#    x 1.654300 0.000000 0.000000 
#    y 0.000000 1.654300 0.000000 
#    z 0.000000 0.000000 1.596730 
# 
# From -- ./inp_files/5319.got.cif
#   From: 2010.05.17/outbox.cif.g08.bks.cpg/sg87_3_cif.got.tgz:5319.got - 2010.06.03 19:07:00.
