data_PCOD9545761
_publ_section_title
;
Structure prediction by ZEFSAII (Michael W. Deem and Ramdas Pophale) SiO2 
 PCOD9545761
Probable space group: I 4/M
;
_chemical_formula_sum "Si O2"
_cell_formula_units_Z 96
_cell_length_a 13.735902
_cell_length_b 13.735902
_cell_length_c 19.854512
_cell_angle_alpha 90.000000
_cell_angle_beta 90.000000
_cell_angle_gamma 90.000000
_cell_volume 3746.050126
_symmetry_space_group_name_H-M "I 4/M"
_symmetry_group_IT_number 87
_symmetry_cell_setting 'tetragonal'
loop_
_space_group_symop_operation_xyz
x,y,z
-y,x,z
-x,-y,z
y,-x,z
-x,-y,-z
y,-x,-z
x,y,-z
-y,x,-z
1/2+x,1/2+y,1/2+z
1/2-y,1/2+x,1/2+z
1/2-x,1/2-y,1/2+z
1/2+y,1/2-x,1/2+z
1/2-x,1/2-y,1/2-z
1/2+y,1/2-x,1/2-z
1/2+x,1/2+y,1/2-z
1/2-y,1/2+x,1/2-z
loop_
_atom_site_type_symbol
_atom_site_label
_atom_site_fract_x
_atom_site_fract_y
_atom_site_fract_z
Si Si1 0.410318 0.285123 0.575758
Si Si2 0.413852 0.622237 0.702577
Si Si3 0.169933 0.661259 0.203420
Si Si4 0.721774 0.843279 0.659187
Si Si5 0.338593 0.473777 0.076060
Si Si6 0.102055 0.441021 0.575274
O O1 0.404305 0.320459 0.500000
O O2 0.410869 0.376016 0.626829
O O3 0.316771 0.221878 0.597896
O O4 0.493961 0.201477 0.579945
O O5 0.373722 0.522108 0.733698
O O6 0.380853 0.732514 0.702904
O O7 0.156287 0.637855 0.282835
O O8 0.281666 0.687727 0.188914
O O9 0.124117 0.604222 0.142060
O O10 0.759147 0.943986 0.630678
O O11 0.423674 0.392580 0.081918
O O12 0.298161 0.467044 0.000000
O O13 0.106571 0.394467 0.500000
O O14 0.000000 0.500000 0.576656
#
# Coordination Sequence:
#
# PCOD9545761 Si02
#       6
#    16  16  16  16  16  16
#     4  10  21  39  60  89 126 162 212 272 320 388
#     4  10  20  36  61  93 129 170 207 258 333 399
#     4  10  22  41  60  89 131 170 218 274 323 394
#     4  10  22  39  60  89 125 167 214 263 328 395
#     4   9  19  37  61  93 127 159 208 272 327 382
#     4  10  22  43  66  89 123 171 224 277 326 381
#
# _framework density 25.626994
#
# number of rings (size 3 to 8) (size 9 to 14) (size 15 to 20)
#    0.000    2.167    1.667    1.000    0.000    6.667 
#    6.000    5.833    0.000    0.000    0.000    0.000 
#    0.000    0.000    0.000    0.000    0.000    0.000 
#
# Total GULP energy -267660.030388 kJ/mol
# GULP energy per Si atom -5576.250633 kJ/mol
# Density = 2.556867 g / cm^3
# Si number density = 25.626994 Si / 1000 Ang^3
#
#
#
# Elastic Constant Matrix: (Units=GPa)
#
#
# Indices 1 2 3 4 5 6 
#
# 1 66.8766 41.1206 19.7303 0.0000 0.0000 11.9826
# 2 41.1206 66.8766 19.7303 0.0000 0.0000 -11.9826
# 3 19.7303 19.7303 100.8622 0.0000 0.0000 0.0000
# 4 0.0000 0.0000 0.0000 13.8492 0.0000 0.0000
# 5 0.0000 0.0000 0.0000 0.0000 13.8492 0.0000
# 6 11.9826 -11.9826 0.0000 0.0000 0.0000 31.8857
#
#
#
# Elastic Compliance Matrix: (Units=1/GPa)
#
#
# Indices 1 2 3 4 5 6 
#
# 1 0.034837 -0.024865 -0.001951 0.000000 0.000000 -0.022436
# 2 -0.024865 0.034837 -0.001951 0.000000 0.000000 0.022436
# 3 -0.001951 -0.001951 0.010678 0.000000 0.000000 0.000000
# 4 0.000000 0.000000 0.000000 0.072206 0.000000 0.000000
# 5 0.000000 0.000000 0.000000 0.000000 0.072206 0.000000
# 6 -0.022436 0.022436 0.000000 0.000000 0.000000 0.048225
#
#
# Mechanical properties :
#
#
# Convention : Reuss Voigt Hill
#
# Bulk Modulus (GPa) = 43.82256 43.97530 43.89893
# Shear Modulus (GPa) = 14.78732 22.18578 18.48655
#
# Velocity S-wave (km/s) = 2.40473 2.94550 2.68875
# Velocity P-wave (km/s) = 4.98474 5.36330 5.17748
#
# Compressibility (1/GPa) = 0.02281930
#
# Stress axis : x y z
#
# Youngs Moduli (GPa) = 28.70515 28.70515 93.65305
#
# Poissons Ratio (x) = 0.71374 0.18269
# Poissons Ratio (y) = 0.71374 0.18269
# Poissons Ratio (z) = 0.05600 0.05600
#
# Static dielectric constant tensor:
#      x y z
#    x 2.125340 0.000000 0.000000 
#    y 0.000000 2.125340 0.000000 
#    z 0.000000 0.000000 2.176350 
# 
# From -- ./inp_files/5268.got.cif
#   From: 2010.05.17/outbox.cif.g08.bks.cpg/sg87_3_cif.got.tgz:5268.got - 2010.06.03 19:07:00.
