data_PCOD9545093
_publ_section_title
;
Structure prediction by ZEFSAII (Michael W. Deem and Ramdas Pophale) SiO2 
 PCOD9545093
Probable space group: P 42/N
;
_chemical_formula_sum "Si O2"
_cell_formula_units_Z 28
_cell_length_a 7.719148
_cell_length_b 7.719148
_cell_length_c 18.854275
_cell_angle_alpha 90.000000
_cell_angle_beta 90.000000
_cell_angle_gamma 90.000000
_cell_volume 1123.436611
_symmetry_space_group_name_H-M "P 42/N"
_symmetry_group_IT_number 86
_space_group.IT_coordinate_system_code '2'
_symmetry_cell_setting 'tetragonal'
loop_
_space_group_symop_operation_xyz
x,y,z
-y,1/2+x,1/2+z
1/2-x,1/2-y,z
1/2+y,-x,1/2+z
-x,-y,-z
y,1/2-x,1/2-z
1/2+x,1/2+y,-z
1/2-y,x,1/2-z
loop_
_atom_site_type_symbol
_atom_site_label
_atom_site_fract_x
_atom_site_fract_y
_atom_site_fract_z
Si Si1 0.473074 0.869680 0.126982
Si Si2 0.750000 0.750000 0.466586
Si Si3 0.497245 0.389441 0.232443
Si Si4 0.124513 0.020037 0.088560
O O1 0.651294 0.885643 0.084741
O O2 0.331295 0.015907 0.108626
O O3 0.414958 0.683321 0.097024
O O4 0.473806 0.867956 0.212661
O O5 0.633662 0.870888 0.517976
O O6 0.479623 0.186898 0.249991
O O7 0.503298 0.402669 0.148013
#
# Coordination Sequence:
#
# PCOD9545093 Si02
#       4
#     8   4   8   8
#     4  10  22  37  58  90 123 162 215 260 307 376
#     4  12  22  38  62  92 132 168 202 262 326 376
#     4   9  18  37  62  84 114 163 213 260 314 372
#     4  10  21  38  59  87 125 166 209 257 316 377
#
# _framework density 24.923524
#
# number of rings (size 3 to 8) (size 9 to 14) (size 15 to 20)
#    0.000    2.000    0.000    5.143    0.000    2.286 
#    0.000    0.000    0.000    3.429    0.000    0.000 
#    0.000    0.000    0.000    0.000    0.000    0.000 
#
# Total GULP energy -156089.068877 kJ/mol
# GULP energy per Si atom -5574.609603 kJ/mol
# Density = 2.486680 g / cm^3
# Si number density = 24.923524 Si / 1000 Ang^3
#
#
#
# Elastic Constant Matrix: (Units=GPa)
#
#
# Indices 1 2 3 4 5 6 
#
# 1 64.1510 21.6023 75.6273 0.0000 0.0000 -5.5193
# 2 21.6023 64.1510 75.6273 0.0000 0.0000 5.5193
# 3 75.6273 75.6273 164.1498 0.0000 0.0000 0.0000
# 4 0.0000 0.0000 0.0000 87.7748 0.0000 0.0000
# 5 0.0000 0.0000 0.0000 0.0000 87.7748 0.0000
# 6 -5.5193 5.5193 0.0000 0.0000 0.0000 22.6332
#
#
#
# Elastic Compliance Matrix: (Units=1/GPa)
#
#
# Indices 1 2 3 4 5 6 
#
# 1 0.043664 0.018575 -0.028675 0.000000 0.000000 0.006118
# 2 0.018575 0.043664 -0.028675 0.000000 0.000000 -0.006118
# 3 -0.028675 -0.028675 0.032514 0.000000 0.000000 0.000000
# 4 0.000000 0.000000 0.000000 0.011393 0.000000 0.000000
# 5 0.000000 0.000000 0.000000 0.000000 0.011393 0.000000
# 6 0.006118 -0.006118 0.000000 0.000000 0.000000 0.047167
#
#
# Mechanical properties :
#
#
# Convention : Reuss Voigt Hill
#
# Bulk Modulus (GPa) = 23.64464 70.90729 47.27596
# Shear Modulus (GPa) = 17.76556 47.60954 32.68755
#
# Velocity S-wave (km/s) = 2.67273 4.37535 3.62541
# Velocity P-wave (km/s) = 4.36258 7.35096 6.04437
#
# Compressibility (1/GPa) = 0.04229289
#
# Stress axis : x y z
#
# Youngs Moduli (GPa) = 22.90194 22.90194 30.75579
#
# Poissons Ratio (x) = -0.42539 0.88192
# Poissons Ratio (y) = -0.42539 0.88192
# Poissons Ratio (z) = 0.65671 0.65671
#
# Static dielectric constant tensor:
#      x y z
#    x 2.087440 0.000000 0.000000 
#    y 0.000000 2.087440 0.000000 
#    z 0.000000 0.000000 2.070580 
# 
# From -- ./inp_files/3292.got.cif
#   From: 2010.05.17/outbox.cif.g08.bks.cpg/sg86_2_cif.got.tgz:3292.got - 2010.06.03 19:03:11.
