data_PCOD9545554
_publ_section_title
;
Structure prediction by ZEFSAII (Michael W. Deem and Ramdas Pophale) SiO2 
 PCOD9545554
Probable space group: I 4/M
;
_chemical_formula_sum "Si O2"
_cell_formula_units_Z 96
_cell_length_a 24.415956
_cell_length_b 24.415956
_cell_length_c 7.506567
_cell_angle_alpha 90.000000
_cell_angle_beta 90.000000
_cell_angle_gamma 90.000000
_cell_volume 4474.956650
_symmetry_space_group_name_H-M "I 4/M"
_symmetry_group_IT_number 87
_symmetry_cell_setting 'tetragonal'
loop_
_space_group_symop_operation_xyz
x,y,z
-y,x,z
-x,-y,z
y,-x,z
-x,-y,-z
y,-x,-z
x,y,-z
-y,x,-z
1/2+x,1/2+y,1/2+z
1/2-y,1/2+x,1/2+z
1/2-x,1/2-y,1/2+z
1/2+y,1/2-x,1/2+z
1/2-x,1/2-y,1/2-z
1/2+y,1/2-x,1/2-z
1/2+x,1/2+y,1/2-z
1/2-y,1/2+x,1/2-z
loop_
_atom_site_type_symbol
_atom_site_label
_atom_site_fract_x
_atom_site_fract_y
_atom_site_fract_z
Si Si1 0.171979 0.725114 0.703849
Si Si2 0.848133 0.452115 0.284621
Si Si3 0.074160 0.048371 0.282388
Si Si4 0.355112 0.075780 0.208641
Si Si5 0.370582 0.247057 0.716108
Si Si6 0.135795 0.840847 0.707481
O O1 0.188078 0.736764 0.500000
O O2 0.119424 0.685271 0.702926
O O3 0.220415 0.687116 0.780267
O O4 0.153238 0.782281 0.788465
O O5 0.848061 0.452844 0.500000
O O6 0.900039 0.415972 0.228389
O O7 0.849877 0.514344 0.221470
O O8 0.794128 0.418639 0.227135
O O9 0.074910 0.049355 0.500000
O O10 0.124626 0.085169 0.217955
O O11 0.015288 0.073562 0.228939
O O12 0.340858 0.075547 0.000000
O O13 0.369600 0.247104 0.500000
O O14 0.376195 0.308747 0.780585
O O15 0.122461 0.830331 0.500000
#
# Coordination Sequence:
#
# PCOD9545554 Si02
#       6
#    16  16  16  16  16  16
#     4   9  19  34  49  70 104 134 157 201 257 294
#     4   9  20  37  52  72 104 134 164 209 257 293
#     4   8  15  29  47  68  97 127 153 191 243 289
#     4  10  20  34  54  76  98 132 174 207 243 300
#     4   9  18  33  49  66  98 137 160 191 249 299
#     4  10  19  30  50  78  98 122 167 210 241 286
#
# _framework density 21.452722999999999
#
# number of rings (size 3 to 8) (size 9 to 14) (size 15 to 20)
#    0.000    2.833    0.000    2.500    0.000    6.333 
#    0.000    3.333    0.000    1.000    0.000    1.167 
#    0.000    0.000    0.000    0.000    0.000    0.000 
#
# Total GULP energy -267871.348107 kJ/mol
# GULP energy per Si atom -5580.653086 kJ/mol
# Density = 2.140390 g / cm^3
# Si number density = 21.452723 Si / 1000 Ang^3
#
#
#
# Elastic Constant Matrix: (Units=GPa)
#
#
# Indices 1 2 3 4 5 6 
#
# 1 56.9213 20.2975 -1.5990 0.0000 0.0000 -4.1161
# 2 20.2975 56.9213 -1.5990 0.0000 0.0000 4.1161
# 3 -1.5990 -1.5990 62.9742 0.0000 0.0000 0.0000
# 4 0.0000 0.0000 0.0000 -6.0175 0.0000 0.0000
# 5 0.0000 0.0000 0.0000 0.0000 -6.0175 0.0000
# 6 -4.1161 4.1161 0.0000 0.0000 0.0000 22.6416
#
#
#
# Elastic Compliance Matrix: (Units=1/GPa)
#
#
# Indices 1 2 3 4 5 6 
#
# 1 0.020716 -0.007752 0.000329 0.000000 0.000000 0.005175
# 2 -0.007752 0.020716 0.000329 0.000000 0.000000 -0.005175
# 3 0.000329 0.000329 0.015896 0.000000 0.000000 0.000000
# 4 0.000000 0.000000 0.000000 -0.166181 0.000000 0.000000
# 5 0.000000 0.000000 0.000000 0.000000 -0.166181 0.000000
# 6 0.005175 -0.005175 0.000000 0.000000 0.000000 0.046048
#
#
# Mechanical properties :
#
#
# Convention : Reuss Voigt Hill
#
# Bulk Modulus (GPa) = 23.18003 23.44621 23.31312
# Shear Modulus (GPa) = -24.94774 12.76911 -6.08931
#
# Velocity S-wave (km/s) = -3.41386 2.44236 -1.68661
# Velocity P-wave (km/s) = 2.17039 4.34816 2.66420
#
# Compressibility (1/GPa) = 0.04314059
#
# Stress axis : x y z
#
# Youngs Moduli (GPa) = 48.27204 48.27204 62.90795
#
# Poissons Ratio (x) = 0.37421 -0.02071
# Poissons Ratio (y) = 0.37421 -0.02071
# Poissons Ratio (z) = -0.01589 -0.01589
#
# Static dielectric constant tensor:
#      x y z
#    x 1.768790 0.000000 0.000000 
#    y 0.000000 1.768790 0.000000 
#    z 0.000000 0.000000 1.815550 
# 
# From -- ./inp_files/1388.got.cif
#   From: 2010.05.17/outbox.cif.g08.bks.cpg/sg87_1_cif.got.tgz:1388.got - 2010.06.03 19:07:00.
