data_PCOD9545331
_publ_section_title
;
Structure prediction by ZEFSAII (Michael W. Deem and Ramdas Pophale) SiO2 
 PCOD9545331
Probable space group: P 42/N
;
_chemical_formula_sum "Si O2"
_cell_formula_units_Z 46
_cell_length_a 11.945304
_cell_length_b 11.945304
_cell_length_c 16.900898
_cell_angle_alpha 90.000000
_cell_angle_beta 90.000000
_cell_angle_gamma 90.000000
_cell_volume 2411.593997
_symmetry_space_group_name_H-M "P 42/N"
_symmetry_group_IT_number 86
_space_group.IT_coordinate_system_code '2'
_symmetry_cell_setting 'tetragonal'
loop_
_space_group_symop_operation_xyz
x,y,z
-y,1/2+x,1/2+z
1/2-x,1/2-y,z
1/2+y,-x,1/2+z
-x,-y,-z
y,1/2-x,1/2-z
1/2+x,1/2+y,-z
1/2-y,x,1/2-z
loop_
_atom_site_type_symbol
_atom_site_label
_atom_site_fract_x
_atom_site_fract_y
_atom_site_fract_z
Si Si1 0.572309 0.591704 0.321140
Si Si2 0.757097 0.036857 0.068640
Si Si3 0.518013 0.017946 0.659390
Si Si4 0.250000 0.250000 0.750000
Si Si5 0.750000 0.250000 0.963420
Si Si6 0.156275 0.345018 0.447043
Si Si7 0.993337 0.223824 0.917390
O O1 0.483128 0.648172 0.378170
O O2 0.526816 0.508599 0.253194
O O3 0.639460 0.703060 0.291668
O O4 0.667709 0.533125 0.371862
O O5 0.865693 0.064431 0.123048
O O6 0.731078 0.141774 0.015440
O O7 0.788474 0.933204 0.009011
O O8 0.587937 0.912463 0.622542
O O9 0.392301 0.019927 0.625082
O O10 0.861189 0.227626 0.916631
O O11 0.250000 0.250000 0.425331
O O12 0.215708 0.443278 0.498561
#
# Coordination Sequence:
#
# PCOD9545331 Si02
#       7
#     8   8   8   2   4   8   8
#     4  12  21  35  64 102 133 169 218 281 346 400
#     4  11  21  38  64  96 129 169 219 275 331 395
#     4  11  20  38  62  98 131 169 209 280 352 387
#     4  12  16  32  68  96 132 148 208 278 328 392
#     4  12  24  40  62  92 132 176 226 272 322 398
#     4  11  20  39  68  97 127 172 223 272 329 400
#     4  11  21  38  64  96 129 169 219 275 331 395
#
# _framework density 19.074521000000001
#
# number of rings (size 3 to 8) (size 9 to 14) (size 15 to 20)
#    0.000    0.696    8.696    2.087    0.000    0.696 
#    0.000    3.478    0.000    0.000   13.565    0.000 
#    0.000    0.000    0.000    0.000    0.000    0.000 
#
# Total GULP energy -256236.365468 kJ/mol
# GULP energy per Si atom -5570.355771 kJ/mol
# Density = 1.903111 g / cm^3
# Si number density = 19.074521 Si / 1000 Ang^3
#
#
#
# Elastic Constant Matrix: (Units=GPa)
#
#
# Indices 1 2 3 4 5 6 
#
# 1 -242.3551 333.6278 13.2843 0.0000 0.0000 174.6263
# 2 333.6278 -242.3551 13.2843 0.0000 0.0000 -174.6263
# 3 13.2843 13.2843 64.9793 0.0000 0.0000 0.0000
# 4 0.0000 0.0000 0.0000 30.1456 0.0000 0.0000
# 5 0.0000 0.0000 0.0000 0.0000 30.1456 0.0000
# 6 174.6263 -174.6263 0.0000 0.0000 0.0000 -62.7989
#
#
#
# Elastic Compliance Matrix: (Units=1/GPa)
#
#
# Indices 1 2 3 4 5 6 
#
# 1 0.007090 0.004560 -0.002382 0.000000 0.000000 0.007036
# 2 0.004560 0.007090 -0.002382 0.000000 0.000000 -0.007036
# 3 -0.002382 -0.002382 0.016363 0.000000 0.000000 0.000000
# 4 0.000000 0.000000 0.000000 0.033172 0.000000 0.000000
# 5 0.000000 0.000000 0.000000 0.000000 0.033172 0.000000
# 6 0.007036 -0.007036 0.000000 0.000000 0.000000 0.023209
#
#
# Mechanical properties :
#
#
# Convention : Reuss Voigt Hill
#
# Bulk Modulus (GPa) = 33.18315 33.40688 33.29502
# Shear Modulus (GPa) = 38.29976 -52.49669 -7.09846
#
# Velocity S-wave (km/s) = 4.48582 -5.25182 -1.93120
# Velocity P-wave (km/s) = 6.65316 4.38447 3.53842
#
# Compressibility (1/GPa) = 0.03013578
#
# Stress axis : x y z
#
# Youngs Moduli (GPa) = 141.04520 141.04520 61.11239
#
# Poissons Ratio (x) = -0.64310 0.14555
# Poissons Ratio (y) = -0.64310 0.14555
# Poissons Ratio (z) = 0.33591 0.33591
#
# Static dielectric constant tensor:
#      x y z
#    x 1.545540 0.000000 0.000000 
#    y 0.000000 1.545540 0.000000 
#    z 0.000000 0.000000 1.534740 
# 
# From -- ./inp_files/3598.got.cif
#   From: 2010.05.17/outbox.cif.g08.bks.cpg/sg86_2_cif.got.tgz:3598.got - 2010.06.03 19:03:11.
