data_PCOD9545049
_publ_section_title
;
Structure prediction by ZEFSAII (Michael W. Deem and Ramdas Pophale) SiO2 
 PCOD9545049
Probable space group: P 42/N
;
_chemical_formula_sum "Si O2"
_cell_formula_units_Z 52
_cell_length_a 16.833132
_cell_length_b 16.833132
_cell_length_c 8.076541
_cell_angle_alpha 90.000000
_cell_angle_beta 90.000000
_cell_angle_gamma 90.000000
_cell_volume 2288.522887
_symmetry_space_group_name_H-M "P 42/N"
_symmetry_group_IT_number 86
_space_group.IT_coordinate_system_code '2'
_symmetry_cell_setting 'tetragonal'
loop_
_space_group_symop_operation_xyz
x,y,z
-y,1/2+x,1/2+z
1/2-x,1/2-y,z
1/2+y,-x,1/2+z
-x,-y,-z
y,1/2-x,1/2-z
1/2+x,1/2+y,-z
1/2-y,x,1/2-z
loop_
_atom_site_type_symbol
_atom_site_label
_atom_site_fract_x
_atom_site_fract_y
_atom_site_fract_z
Si Si1 0.535078 0.698775 0.941858
Si Si2 0.794193 0.068525 0.762359
Si Si3 0.791134 0.336352 0.042740
Si Si4 0.796160 0.872822 0.988056
Si Si5 0.220752 0.986219 0.782141
Si Si6 0.445507 0.926019 0.455197
Si Si7 0.250000 0.250000 0.250000
Si Si8 0.750000 0.750000 0.250000
O O1 0.613113 0.643235 0.928788
O O2 0.525004 0.743004 0.118417
O O3 0.459718 0.641237 0.924185
O O4 0.517075 0.763532 0.800077
O O5 0.730868 0.120881 0.869244
O O6 0.820489 0.118921 0.600684
O O7 0.867973 0.059350 0.886710
O O8 0.750000 0.250000 0.044215
O O9 0.756729 0.399374 0.178119
O O10 0.795123 0.815133 0.145902
O O11 0.764629 0.955031 0.061068
O O12 0.738925 0.826311 0.863523
O O13 0.125493 0.976727 0.799947
O O14 0.500000 0.000000 0.500000
#
# Coordination Sequence:
#
# PCOD9545049 Si02
#       8
#     8   8   8   8   8   8   2   2
#     4  12  25  43  73 103 143 192 241 300 361 441
#     4  11  25  41  70 107 137 189 238 295 363 433
#     4  11  24  42  68 103 143 181 236 295 356 437
#     4  11  23  44  72 100 141 187 242 296 374 424
#     4  11  24  44  70  99 143 191 236 294 362 438
#     4  11  24  45  68  99 144 183 232 297 364 425
#     4  10  28  42  72 110 136 178 244 326 352 434
#     4  10  20  42  68 106 124 182 248 294 344 438
#
# _framework density 22.722079000000001
#
# number of rings (size 3 to 8) (size 9 to 14) (size 15 to 20)
#    0.000    0.923    4.615    2.308    8.615    0.000 
#    0.000    0.769    6.769    0.000    0.000    0.000 
#    0.000    0.000    0.000    0.000    0.000    0.000 
#
# Total GULP energy -290294.936967 kJ/mol
# GULP energy per Si atom -5582.594942 kJ/mol
# Density = 2.267036 g / cm^3
# Si number density = 22.722079 Si / 1000 Ang^3
#
#
#
# Elastic Constant Matrix: (Units=GPa)
#
#
# Indices 1 2 3 4 5 6 
#
# 1 81.5079 -16.1747 4.5287 0.0000 0.0000 -10.2532
# 2 -16.1747 81.5079 4.5287 0.0000 0.0000 10.2532
# 3 4.5287 4.5287 73.7830 0.0000 0.0000 0.0000
# 4 0.0000 0.0000 0.0000 31.0341 0.0000 0.0000
# 5 0.0000 0.0000 0.0000 0.0000 31.0341 0.0000
# 6 -10.2532 10.2532 0.0000 0.0000 0.0000 41.5526
#
#
#
# Elastic Compliance Matrix: (Units=1/GPa)
#
#
# Indices 1 2 3 4 5 6 
#
# 1 0.013117 0.002321 -0.000948 0.000000 0.000000 0.002664
# 2 0.002321 0.013117 -0.000948 0.000000 0.000000 -0.002664
# 3 -0.000948 -0.000948 0.013670 0.000000 0.000000 0.000000
# 4 0.000000 0.000000 0.000000 0.032223 0.000000 0.000000
# 5 0.000000 0.000000 0.000000 0.000000 0.032223 0.000000
# 6 0.002664 -0.002664 0.000000 0.000000 0.000000 0.025381
#
#
# Mechanical properties :
#
#
# Convention : Reuss Voigt Hill
#
# Bulk Modulus (GPa) = 24.53719 24.72936 24.63328
# Shear Modulus (GPa) = 35.09673 36.98523 36.04098
#
# Velocity S-wave (km/s) = 3.93442 4.03888 3.98699
# Velocity P-wave (km/s) = 5.60908 5.71464 5.66211
#
# Compressibility (1/GPa) = 0.04075446
#
# Stress axis : x y z
#
# Youngs Moduli (GPa) = 76.23684 76.23684 73.15514
#
# Poissons Ratio (x) = -0.17691 0.06932
# Poissons Ratio (y) = -0.17691 0.06932
# Poissons Ratio (z) = 0.07224 0.07224
#
# Static dielectric constant tensor:
#      x y z
#    x 1.903680 0.000000 0.000000 
#    y 0.000000 1.903680 0.000000 
#    z 0.000000 0.000000 1.886130 
# 
# From -- ./inp_files/1462.got.cif
#   From: 2010.05.17/outbox.cif.g08.bks.cpg/sg86_1_cif.got.tgz:1462.got - 2010.06.03 19:03:11.
