data_PCOD9545598
_publ_section_title
;
Structure prediction by ZEFSAII (Michael W. Deem and Ramdas Pophale) SiO2 
 PCOD9545598
Probable space group: I 4/M
;
_chemical_formula_sum "Si O2"
_cell_formula_units_Z 64
_cell_length_a 25.973635
_cell_length_b 25.973635
_cell_length_c 5.327616
_cell_angle_alpha 90.000000
_cell_angle_beta 90.000000
_cell_angle_gamma 90.000000
_cell_volume 3594.168064
_symmetry_space_group_name_H-M "I 4/M"
_symmetry_group_IT_number 87
_symmetry_cell_setting 'tetragonal'
loop_
_space_group_symop_operation_xyz
x,y,z
-y,x,z
-x,-y,z
y,-x,z
-x,-y,-z
y,-x,-z
x,y,-z
-y,x,-z
1/2+x,1/2+y,1/2+z
1/2-y,1/2+x,1/2+z
1/2-x,1/2-y,1/2+z
1/2+y,1/2-x,1/2+z
1/2-x,1/2-y,1/2-z
1/2+y,1/2-x,1/2-z
1/2+x,1/2+y,1/2-z
1/2-y,1/2+x,1/2-z
loop_
_atom_site_type_symbol
_atom_site_label
_atom_site_fract_x
_atom_site_fract_y
_atom_site_fract_z
Si Si1 0.092418 0.216535 0.000000
Si Si2 0.926865 0.603265 0.500000
Si Si3 0.949724 0.384054 0.500000
Si Si4 0.604389 0.603729 0.500000
Si Si5 0.278183 0.914159 0.500000
Si Si6 0.462077 0.765586 0.000000
Si Si7 0.450241 0.429552 0.000000
Si Si8 0.532407 0.296587 0.500000
O O1 0.103526 0.249555 0.248222
O O2 0.030441 0.202785 0.000000
O O3 0.122514 0.162699 0.000000
O O4 0.908691 0.574148 0.750000
O O5 0.903899 0.661051 0.500000
O O6 0.988790 0.607499 0.500000
O O7 0.939318 0.322774 0.500000
O O8 0.570723 0.596452 0.250258
O O9 0.648436 0.560333 0.500000
O O10 0.273066 0.976198 0.500000
O O11 0.450321 0.733791 0.749282
O O12 0.511651 0.430898 0.000000
#
# Coordination Sequence:
#
# PCOD9545598 Si02
#       8
#     8   8   8   8   8   8   8   8
#     4  10  19  33  52  74 102 134 175 227 272 313
#     4  11  22  36  56  84 116 147 176 204 244 305
#     4  11  22  36  56  84 116 147 176 204 244 305
#     4  12  22  33  52  78 100 133 180 231 280 317
#     4   9  19  35  53  74 102 138 178 217 255 301
#     4   9  19  35  53  74 102 138 178 217 255 301
#     4  11  22  34  46  66 104 145 174 205 260 345
#     4  10  19  33  52  74 102 134 175 227 272 313
#
# _framework density 17.806625
#
# number of rings (size 3 to 8) (size 9 to 14) (size 15 to 20)
#    0.000    1.625    0.000    6.000    0.000    8.500 
#    0.000    0.000    0.000    0.000    0.000   17.500 
#    0.000    0.000    0.000    0.000    0.000    0.000 
#
# Total GULP energy -178736.465570 kJ/mol
# GULP energy per Si atom -5585.514549 kJ/mol
# Density = 1.776610 g / cm^3
# Si number density = 17.806625 Si / 1000 Ang^3
#
#
#
# Elastic Constant Matrix: (Units=GPa)
#
#
# Indices 1 2 3 4 5 6 
#
# 1 -154.3106 194.4873 27.2459 0.0000 0.0000 49.4702
# 2 194.4873 -154.3106 27.2459 0.0000 0.0000 -49.4702
# 3 27.2459 27.2459 173.0658 0.0000 0.0000 0.0000
# 4 0.0000 0.0000 0.0000 30.4089 0.0000 0.0000
# 5 0.0000 0.0000 0.0000 0.0000 30.4089 0.0000
# 6 49.4702 -49.4702 0.0000 0.0000 0.0000 1.3458
#
#
#
# Elastic Compliance Matrix: (Units=1/GPa)
#
#
# Indices 1 2 3 4 5 6 
#
# 1 0.015698 0.015949 -0.004982 0.000000 0.000000 0.009223
# 2 0.015949 0.015698 -0.004982 0.000000 0.000000 -0.009223
# 3 -0.004982 -0.004982 0.007347 0.000000 0.000000 0.000000
# 4 0.000000 0.000000 0.000000 0.032885 0.000000 0.000000
# 5 0.000000 0.000000 0.000000 0.000000 0.032885 0.000000
# 6 0.009223 -0.009223 0.000000 0.000000 0.000000 0.065025
#
#
# Mechanical properties :
#
#
# Convention : Reuss Voigt Hill
#
# Bulk Modulus (GPa) = 19.71892 40.26700 29.99296
# Shear Modulus (GPa) = 28.65754 -13.20291 7.72731
#
# Velocity S-wave (km/s) = 4.01605 -2.72593 2.08542
# Velocity P-wave (km/s) = 5.70989 3.57141 4.76224
#
# Compressibility (1/GPa) = 0.05071272
#
# Stress axis : x y z
#
# Youngs Moduli (GPa) = 63.70111 63.70111 136.11204
#
# Poissons Ratio (x) = -1.01598 0.67815
# Poissons Ratio (y) = -1.01598 0.67815
# Poissons Ratio (z) = 0.31738 0.31738
#
# Static dielectric constant tensor:
#      x y z
#    x 1.597060 0.000000 0.000000 
#    y 0.000000 1.597060 0.000000 
#    z 0.000000 0.000000 1.582770 
# 
# From -- ./inp_files/237.got.cif
#   From: 2010.05.17/outbox.cif.g08.bks.cpg/sg87_1_cif.got.tgz:237.got - 2010.06.03 19:07:00.
