data_PCOD9545713
_publ_section_title
;
Structure prediction by ZEFSAII (Michael W. Deem and Ramdas Pophale) SiO2 
 PCOD9545713
Probable space group: I 4/M
;
_chemical_formula_sum "Si O2"
_cell_formula_units_Z 64
_cell_length_a 13.988117
_cell_length_b 13.988117
_cell_length_c 14.015886
_cell_angle_alpha 90.000000
_cell_angle_beta 90.000000
_cell_angle_gamma 90.000000
_cell_volume 2742.452213
_symmetry_space_group_name_H-M "I 4/M"
_symmetry_group_IT_number 87
_symmetry_cell_setting 'tetragonal'
loop_
_space_group_symop_operation_xyz
x,y,z
-y,x,z
-x,-y,z
y,-x,z
-x,-y,-z
y,-x,-z
x,y,-z
-y,x,-z
1/2+x,1/2+y,1/2+z
1/2-y,1/2+x,1/2+z
1/2-x,1/2-y,1/2+z
1/2+y,1/2-x,1/2+z
1/2-x,1/2-y,1/2-z
1/2+y,1/2-x,1/2-z
1/2+x,1/2+y,1/2-z
1/2-y,1/2+x,1/2-z
loop_
_atom_site_type_symbol
_atom_site_label
_atom_site_fract_x
_atom_site_fract_y
_atom_site_fract_z
Si Si1 0.265643 0.566542 0.101057
Si Si2 0.913732 0.573350 0.107028
Si Si3 0.738132 0.679248 0.657485
Si Si4 0.261558 0.545543 0.306761
O O1 0.185275 0.483790 0.107267
O O2 0.213756 0.669738 0.099377
O O3 0.313666 0.558315 0.204392
O O4 0.318203 0.555466 0.000000
O O5 0.923358 0.649784 0.190884
O O6 0.000000 0.500000 0.116021
O O7 0.923110 0.617423 0.000000
O O8 0.750000 0.750000 0.750000
O O9 0.741622 0.565521 0.669568
O O10 0.628512 0.696784 0.625544
#
# Coordination Sequence:
#
# PCOD9545713 Si02
#       4
#    16  16  16  16
#     4  10  20  36  59  90 121 153 201 256 314 368
#     4  10  20  34  59  90 117 155 202 256 319 371
#     4  10  22  38  58  87 118 162 206 253 311 371
#     4  11  22  39  60  88 126 166 206 255 315 372
#
# _framework density 23.336780000000001
#
# number of rings (size 3 to 8) (size 9 to 14) (size 15 to 20)
#    0.000    1.750    2.500    3.000    0.000    1.500 
#    0.000    7.500    0.000    0.000    0.000   10.500 
#    0.000    0.000    0.000    0.000    0.000    0.000 
#
# Total GULP energy -178231.892174 kJ/mol
# GULP energy per Si atom -5569.746630 kJ/mol
# Density = 2.328366 g / cm^3
# Si number density = 23.336780 Si / 1000 Ang^3
#
#
#
# Elastic Constant Matrix: (Units=GPa)
#
#
# Indices 1 2 3 4 5 6 
#
# 1 70.5900 25.9213 -2.7226 0.0000 0.0000 -14.4556
# 2 25.9213 70.5900 -2.7226 0.0000 0.0000 14.4556
# 3 -2.7226 -2.7226 84.9057 0.0000 0.0000 0.0000
# 4 0.0000 0.0000 0.0000 135.8005 0.0000 0.0000
# 5 0.0000 0.0000 0.0000 0.0000 135.8006 0.0000
# 6 -14.4556 14.4556 0.0000 0.0000 0.0000 30.9246
#
#
#
# Elastic Compliance Matrix: (Units=1/GPa)
#
#
# Indices 1 2 3 4 5 6 
#
# 1 0.021239 -0.010859 0.000333 0.000000 0.000000 0.015004
# 2 -0.010859 0.021239 0.000333 0.000000 0.000000 -0.015004
# 3 0.000333 0.000333 0.011799 0.000000 0.000000 0.000000
# 4 0.000000 0.000000 0.000000 0.007364 0.000000 0.000000
# 5 0.000000 0.000000 0.000000 0.000000 0.007364 0.000000
# 6 0.015004 -0.015004 0.000000 0.000000 0.000000 0.046364
#
#
# Mechanical properties :
#
#
# Convention : Reuss Voigt Hill
#
# Bulk Modulus (GPa) = 29.50628 29.67085 29.58857
# Shear Modulus (GPa) = 34.00139 74.21244 54.10691
#
# Velocity S-wave (km/s) = 3.82119 5.64532 4.82033
# Velocity P-wave (km/s) = 5.66920 7.43201 6.60963
#
# Compressibility (1/GPa) = 0.03389109
#
# Stress axis : x y z
#
# Youngs Moduli (GPa) = 47.08259 47.08259 84.75212
#
# Poissons Ratio (x) = 0.51127 -0.02821
# Poissons Ratio (y) = 0.51127 -0.02821
# Poissons Ratio (z) = -0.01567 -0.01567
#
# Static dielectric constant tensor:
#      x y z
#    x 1.897690 0.000000 0.000000 
#    y 0.000000 1.897690 0.000000 
#    z 0.000000 0.000000 2.028480 
# 
# From -- ./inp_files/3364.got.cif
#   From: 2010.05.17/outbox.cif.g08.bks.cpg/sg87_2_cif.got.tgz:3364.got - 2010.06.03 19:07:00.
