data_PCOD9545295
_publ_section_title
;
Structure prediction by ZEFSAII (Michael W. Deem and Ramdas Pophale) SiO2 
 PCOD9545295
Probable space group: P 42/N
;
_chemical_formula_sum "Si O2"
_cell_formula_units_Z 26
_cell_length_a 11.727380
_cell_length_b 11.727380
_cell_length_c 7.177917
_cell_angle_alpha 90.000000
_cell_angle_beta 90.000000
_cell_angle_gamma 90.000000
_cell_volume 987.189273
_symmetry_space_group_name_H-M "P 42/N"
_symmetry_group_IT_number 86
_space_group.IT_coordinate_system_code '2'
_symmetry_cell_setting 'tetragonal'
loop_
_space_group_symop_operation_xyz
x,y,z
-y,1/2+x,1/2+z
1/2-x,1/2-y,z
1/2+y,-x,1/2+z
-x,-y,-z
y,1/2-x,1/2-z
1/2+x,1/2+y,-z
1/2-y,x,1/2-z
loop_
_atom_site_type_symbol
_atom_site_label
_atom_site_fract_x
_atom_site_fract_y
_atom_site_fract_z
Si Si1 0.750000 0.750000 0.750000
Si Si2 0.522718 0.402833 0.654696
Si Si3 0.970648 0.338193 0.687613
Si Si4 0.491853 0.747020 0.894437
O O1 0.628072 0.744511 0.859088
O O2 0.500000 0.500000 0.500000
O O3 0.516726 0.276924 0.569874
O O4 0.421807 0.421692 0.802744
O O5 0.647919 0.436131 0.721777
O O6 0.865552 0.420526 0.649821
O O7 0.961472 0.280977 0.892619
#
# Coordination Sequence:
#
# PCOD9545295 Si02
#       4
#     2   8   8   8
#     4  12  24  48  84 114 148 200 250 332 392 468
#     4  10  24  44  71 108 150 194 258 313 374 460
#     4  11  25  46  74 111 152 207 252 321 384 464
#     4  11  25  48  78 112 155 198 257 317 397 462
#
# _framework density 26.337401
#
# number of rings (size 3 to 8) (size 9 to 14) (size 15 to 20)
#    0.000    1.231    3.077    0.923    0.000   16.615 
#    0.000    0.000    0.000    0.000    0.000    0.000 
#    0.000    0.000    0.000    0.000    0.000    0.000 
#
# Total GULP energy -145527.748861 kJ/mol
# GULP energy per Si atom -5597.221110 kJ/mol
# Density = 2.627746 g / cm^3
# Si number density = 26.337401 Si / 1000 Ang^3
#
#
#
# Elastic Constant Matrix: (Units=GPa)
#
#
# Indices 1 2 3 4 5 6 
#
# 1 205.0779 60.6178 36.5603 0.0000 0.0000 15.0800
# 2 60.6178 205.0779 36.5603 0.0000 0.0000 -15.0800
# 3 36.5603 36.5603 86.1266 0.0000 0.0000 0.0000
# 4 0.0000 0.0000 0.0000 36.3390 0.0000 0.0000
# 5 0.0000 0.0000 0.0000 0.0000 36.3390 0.0000
# 6 15.0800 -15.0800 0.0000 0.0000 0.0000 40.7566
#
#
#
# Elastic Compliance Matrix: (Units=1/GPa)
#
#
# Indices 1 2 3 4 5 6 
#
# 1 0.005882 -0.001620 -0.001809 0.000000 0.000000 -0.002776
# 2 -0.001620 0.005882 -0.001809 0.000000 0.000000 0.002776
# 3 -0.001809 -0.001809 0.013147 0.000000 0.000000 0.000000
# 4 0.000000 0.000000 0.000000 0.027519 0.000000 0.000000
# 5 0.000000 0.000000 0.000000 0.000000 0.027519 0.000000
# 6 -0.002776 0.002776 0.000000 0.000000 0.000000 0.026590
#
#
# Mechanical properties :
#
#
# Convention : Reuss Voigt Hill
#
# Bulk Modulus (GPa) = 69.28222 84.86213 77.07218
# Shear Modulus (GPa) = 41.04256 46.85652 43.94954
#
# Velocity S-wave (km/s) = 3.95186 4.22250 4.08942
# Velocity P-wave (km/s) = 6.86918 7.48757 7.18503
#
# Compressibility (1/GPa) = 0.01443372
#
# Stress axis : x y z
#
# Youngs Moduli (GPa) = 170.01910 170.01910 76.06510
#
# Poissons Ratio (x) = 0.27546 0.13760
# Poissons Ratio (y) = 0.27546 0.13760
# Poissons Ratio (z) = 0.30757 0.30757
#
# Static dielectric constant tensor:
#      x y z
#    x 2.159440 0.000000 0.000000 
#    y 0.000000 2.159440 0.000000 
#    z 0.000000 0.000000 2.475320 
# 
# From -- ./inp_files/758.got.cif
#   From: 2010.05.17/outbox.cif.g08.bks.cpg/sg86_1_cif.got.tgz:758.got - 2010.06.03 19:03:11.
