data_PCOD9545368
_publ_section_title
;
Structure prediction by ZEFSAII (Michael W. Deem and Ramdas Pophale) SiO2 
 PCOD9545368
Probable space group: P 42/N
;
_chemical_formula_sum "Si O2"
_cell_formula_units_Z 34
_cell_length_a 13.399848
_cell_length_b 13.399848
_cell_length_c 9.413224
_cell_angle_alpha 90.000000
_cell_angle_beta 90.000000
_cell_angle_gamma 90.000000
_cell_volume 1690.200156
_symmetry_space_group_name_H-M "P 42/N"
_symmetry_group_IT_number 86
_space_group.IT_coordinate_system_code '2'
_symmetry_cell_setting 'tetragonal'
loop_
_space_group_symop_operation_xyz
x,y,z
-y,1/2+x,1/2+z
1/2-x,1/2-y,z
1/2+y,-x,1/2+z
-x,-y,-z
y,1/2-x,1/2-z
1/2+x,1/2+y,-z
1/2-y,x,1/2-z
loop_
_atom_site_type_symbol
_atom_site_label
_atom_site_fract_x
_atom_site_fract_y
_atom_site_fract_z
Si Si1 0.250000 0.250000 0.250000
Si Si2 0.633039 0.271179 0.385703
Si Si3 0.930857 0.062172 0.602903
Si Si4 0.542289 0.405243 0.916402
Si Si5 0.531699 0.729263 0.848717
O O1 0.289029 0.148884 0.325669
O O2 0.750000 0.250000 0.343103
O O3 0.621328 0.347686 0.516343
O O4 0.596062 0.161801 0.430397
O O5 0.554010 0.307786 0.263943
O O6 0.981626 0.097095 0.749021
O O7 0.846704 0.985790 0.653146
O O8 0.000000 0.000000 0.500000
O O9 0.500000 0.500000 0.000000
O O10 0.498556 0.311333 0.998326
#
# Coordination Sequence:
#
# PCOD9545368 Si02
#       5
#     2   8   8   8   8
#     4  12  24  48  68  94 152 192 240 282 372 436
#     4  11  23  42  70 100 140 175 237 303 357 425
#     4  11  24  42  65 101 140 181 232 293 355 424
#     4  11  24  39  64  99 136 179 234 285 355 420
#     4  11  24  42  69  98 131 194 230 290 356 424
#
# _framework density 20.115962
#
# number of rings (size 3 to 8) (size 9 to 14) (size 15 to 20)
#    0.000    0.941    2.353    5.647    6.588    1.882 
#    0.000    0.000    0.000    1.412    0.000    0.000 
#    0.000    0.000    0.000    0.000    0.000    0.000 
#
# Total GULP energy -189563.916679 kJ/mol
# GULP energy per Si atom -5575.409314 kJ/mol
# Density = 2.007018 g / cm^3
# Si number density = 20.115962 Si / 1000 Ang^3
#
#
#
# Elastic Constant Matrix: (Units=GPa)
#
#
# Indices 1 2 3 4 5 6 
#
# 1 89.5146 26.5902 47.0299 0.0000 0.0000 -8.9315
# 2 26.5902 89.5146 47.0299 0.0000 0.0000 8.9315
# 3 47.0299 47.0299 141.8879 0.0000 0.0000 0.0000
# 4 0.0000 0.0000 0.0000 36.3968 0.0000 0.0000
# 5 0.0000 0.0000 0.0000 0.0000 36.3968 0.0000
# 6 -8.9315 8.9315 0.0000 0.0000 0.0000 35.9980
#
#
#
# Elastic Compliance Matrix: (Units=1/GPa)
#
#
# Indices 1 2 3 4 5 6 
#
# 1 0.014435 -0.002661 -0.003903 0.000000 0.000000 0.004242
# 2 -0.002661 0.014435 -0.003903 0.000000 0.000000 -0.004242
# 3 -0.003903 -0.003903 0.009635 0.000000 0.000000 0.000000
# 4 0.000000 0.000000 0.000000 0.027475 0.000000 0.000000
# 5 0.000000 0.000000 0.000000 0.000000 0.027475 0.000000
# 6 0.004242 -0.004242 0.000000 0.000000 0.000000 0.029884
#
#
# Mechanical properties :
#
#
# Convention : Reuss Voigt Hill
#
# Bulk Modulus (GPa) = 56.90494 62.46858 59.68676
# Shear Modulus (GPa) = 33.30434 35.10946 34.20690
#
# Velocity S-wave (km/s) = 4.07334 4.18228 4.12817
# Velocity P-wave (km/s) = 7.10441 7.37859 7.24280
#
# Compressibility (1/GPa) = 0.01757317
#
# Stress axis : x y z
#
# Youngs Moduli (GPa) = 69.27386 69.27386 103.78763
#
# Poissons Ratio (x) = 0.18432 0.40506
# Poissons Ratio (y) = 0.18432 0.40506
# Poissons Ratio (z) = 0.27036 0.27036
#
# Static dielectric constant tensor:
#      x y z
#    x 1.809260 0.000000 0.000000 
#    y 0.000000 1.809260 0.000000 
#    z 0.000000 0.000000 1.771240 
# 
# From -- ./inp_files/971.got.cif
#   From: 2010.05.17/outbox.cif.g08.bks.cpg/sg86_1_cif.got.tgz:971.got - 2010.06.03 19:03:11.
