data_PCOD9545062
_publ_section_title
;
Structure prediction by ZEFSAII (Michael W. Deem and Ramdas Pophale) SiO2 
 PCOD9545062
Probable space group: P 42/N
;
_chemical_formula_sum "Si O2"
_cell_formula_units_Z 48
_cell_length_a 10.701910
_cell_length_b 10.701910
_cell_length_c 24.104244
_cell_angle_alpha 90.000000
_cell_angle_beta 90.000000
_cell_angle_gamma 90.000000
_cell_volume 2760.680220
_symmetry_space_group_name_H-M "P 42/N"
_symmetry_group_IT_number 86
_space_group.IT_coordinate_system_code '2'
_symmetry_cell_setting 'tetragonal'
loop_
_space_group_symop_operation_xyz
x,y,z
-y,1/2+x,1/2+z
1/2-x,1/2-y,z
1/2+y,-x,1/2+z
-x,-y,-z
y,1/2-x,1/2-z
1/2+x,1/2+y,-z
1/2-y,x,1/2-z
loop_
_atom_site_type_symbol
_atom_site_label
_atom_site_fract_x
_atom_site_fract_y
_atom_site_fract_z
Si Si1 0.642414 0.959458 0.490240
Si Si2 0.939999 0.667461 0.815293
Si Si3 0.851365 0.349948 0.402263
Si Si4 0.291294 0.017977 0.007728
Si Si5 0.532912 0.136859 0.066443
Si Si6 0.333200 0.446940 0.189074
O O1 0.623855 0.809822 0.491712
O O2 0.726143 0.018169 0.539163
O O3 0.500000 0.000000 0.500000
O O4 0.692429 0.023231 0.433386
O O5 0.026690 0.639128 0.867398
O O6 0.988159 0.648302 0.752806
O O7 0.813348 0.585212 0.820165
O O8 0.899401 0.812937 0.818810
O O9 0.750000 0.250000 0.381227
O O10 0.921465 0.275253 0.451151
O O11 0.951137 0.377519 0.354571
O O12 0.350055 0.940056 0.957086
O O13 0.407410 0.073498 0.041836
#
# Coordination Sequence:
#
# PCOD9545062 Si02
#       6
#     8   8   8   8   8   8
#     4  10  21  31  49  75 108 137 164 212 262 314
#     4   9  17  31  54  76 101 124 173 225 256 311
#     4  11  19  35  51  71 108 140 171 205 259 329
#     4  10  21  32  51  77 103 141 173 211 265 308
#     4  11  19  33  53  77 105 135 177 220 259 320
#     4   9  18  31  52  79  97 134 168 213 272 300
#
# _framework density 17.387018999999999
#
# number of rings (size 3 to 8) (size 9 to 14) (size 15 to 20)
#    0.000    2.000    3.333    3.500    2.333    0.000 
#    0.000    0.000   14.667    0.000    0.000    0.000 
#    0.000    0.000    0.000    0.000    0.000    0.000 
#
# Total GULP energy -267405.923452 kJ/mol
# GULP energy per Si atom -5570.956739 kJ/mol
# Density = 1.734745 g / cm^3
# Si number density = 17.387019 Si / 1000 Ang^3
#
#
#
# Elastic Constant Matrix: (Units=GPa)
#
#
# Indices 1 2 3 4 5 6 
#
# 1 38.1486 3.5998 11.7595 0.0000 0.0000 -1.7114
# 2 3.5998 38.1486 11.7595 0.0000 0.0000 1.7114
# 3 11.7595 11.7595 121.9811 0.0000 0.0000 0.0000
# 4 0.0000 0.0000 0.0000 22.2503 0.0000 0.0000
# 5 0.0000 0.0000 0.0000 0.0000 22.2503 0.0000
# 6 -1.7114 1.7114 0.0000 0.0000 0.0000 15.5759
#
#
#
# Elastic Compliance Matrix: (Units=1/GPa)
#
#
# Indices 1 2 3 4 5 6 
#
# 1 0.027296 -0.001967 -0.002442 0.000000 0.000000 0.003215
# 2 -0.001967 0.027296 -0.002442 0.000000 0.000000 -0.003215
# 3 -0.002442 -0.002442 0.008669 0.000000 0.000000 0.000000
# 4 0.000000 0.000000 0.000000 0.044943 0.000000 0.000000
# 5 0.000000 0.000000 0.000000 0.000000 0.044943 0.000000
# 6 0.003215 -0.003215 0.000000 0.000000 0.000000 0.064908
#
#
# Mechanical properties :
#
#
# Convention : Reuss Voigt Hill
#
# Bulk Modulus (GPa) = 20.17804 28.05732 24.11768
# Shear Modulus (GPa) = 20.13886 23.42597 21.78242
#
# Velocity S-wave (km/s) = 3.40703 3.67457 3.54333
# Velocity P-wave (km/s) = 5.20649 5.84596 5.53547
#
# Compressibility (1/GPa) = 0.04955883
#
# Stress axis : x y z
#
# Youngs Moduli (GPa) = 36.63563 36.63563 115.35644
#
# Poissons Ratio (x) = 0.07207 0.28167
# Poissons Ratio (y) = 0.07207 0.28167
# Poissons Ratio (z) = 0.08946 0.08946
#
# Static dielectric constant tensor:
#      x y z
#    x 1.658210 0.000000 0.000000 
#    y 0.000000 1.658210 0.000000 
#    z 0.000000 0.000000 1.588450 
# 
# From -- ./inp_files/4626.got.cif
#   From: 2010.05.17/outbox.cif.g08.bks.cpg/sg86_3_cif.got.tgz:4626.got - 2010.06.03 19:03:11.
