data_PCOD9545856
_publ_section_title
;
Structure prediction by ZEFSAII (Michael W. Deem and Ramdas Pophale) SiO2 
 PCOD9545856
Probable space group: I 4/M
;
_chemical_formula_sum "Si O2"
_cell_formula_units_Z 96
_cell_length_a 14.370277
_cell_length_b 14.370277
_cell_length_c 23.593507
_cell_angle_alpha 90.000000
_cell_angle_beta 90.000000
_cell_angle_gamma 90.000000
_cell_volume 4872.173885
_symmetry_space_group_name_H-M "I 4/M"
_symmetry_group_IT_number 87
_symmetry_cell_setting 'tetragonal'
loop_
_space_group_symop_operation_xyz
x,y,z
-y,x,z
-x,-y,z
y,-x,z
-x,-y,-z
y,-x,-z
x,y,-z
-y,x,-z
1/2+x,1/2+y,1/2+z
1/2-y,1/2+x,1/2+z
1/2-x,1/2-y,1/2+z
1/2+y,1/2-x,1/2+z
1/2-x,1/2-y,1/2-z
1/2+y,1/2-x,1/2-z
1/2+x,1/2+y,1/2-z
1/2-y,1/2+x,1/2-z
loop_
_atom_site_type_symbol
_atom_site_label
_atom_site_fract_x
_atom_site_fract_y
_atom_site_fract_z
Si Si1 0.927597 0.417548 0.564478
Si Si2 0.108004 0.110837 0.433464
Si Si3 0.933279 0.137832 0.738075
Si Si4 0.653651 0.650777 0.639737
Si Si5 0.007222 0.777294 0.935516
Si Si6 0.852089 0.267291 0.645958
O O1 0.947889 0.382752 0.500000
O O2 0.824562 0.461798 0.563286
O O3 0.919856 0.336307 0.610855
O O4 0.000000 0.500000 0.577378
O O5 0.123800 0.127756 0.500000
O O6 0.179199 0.166272 0.395052
O O7 0.999008 0.126176 0.422071
O O8 0.912876 0.150543 0.804607
O O9 0.895992 0.224003 0.702206
O O10 0.041300 0.119816 0.724407
O O11 0.558859 0.658637 0.603432
O O12 0.725366 0.606101 0.595330
O O13 0.681525 0.754910 0.657448
O O14 0.014097 0.811051 0.000000
#
# Coordination Sequence:
#
# PCOD9545856 Si02
#       6
#    16  16  16  16  16  16
#     4   9  20  39  60  86 125 164 197 241 297 360
#     4   9  18  33  53  82 119 151 188 244 299 351
#     4  11  23  41  63  84 114 154 198 247 307 360
#     4  11  22  40  58  83 120 149 192 253 303 358
#     4  10  21  37  62  90 116 152 197 246 305 369
#     4  11  22  35  59  88 116 155 204 246 295 363
#
# _framework density 19.703728999999999
#
# number of rings (size 3 to 8) (size 9 to 14) (size 15 to 20)
#    0.000    1.833    1.667    3.000    0.000    6.333 
#    0.000    4.167    0.000    0.000    0.000    0.000 
#    0.000    0.000    0.000    0.000    0.000    0.000 
#
# Total GULP energy -267945.181605 kJ/mol
# GULP energy per Si atom -5582.191283 kJ/mol
# Density = 1.965888 g / cm^3
# Si number density = 19.703729 Si / 1000 Ang^3
#
#
#
# Elastic Constant Matrix: (Units=GPa)
#
#
# Indices 1 2 3 4 5 6 
#
# 1 45.7764 16.1805 42.8744 0.0000 0.0000 7.9606
# 2 16.1805 45.7764 42.8744 0.0000 0.0000 -7.9606
# 3 42.8744 42.8744 125.7435 0.0000 0.0000 0.0000
# 4 0.0000 0.0000 0.0000 22.7637 0.0000 0.0000
# 5 0.0000 0.0000 0.0000 0.0000 22.7637 0.0000
# 6 7.9606 -7.9606 0.0000 0.0000 0.0000 19.3144
#
#
#
# Elastic Compliance Matrix: (Units=1/GPa)
#
#
# Indices 1 2 3 4 5 6 
#
# 1 0.036989 -0.006426 -0.010421 0.000000 0.000000 -0.017894
# 2 -0.006426 0.036989 -0.010421 0.000000 0.000000 0.017894
# 3 -0.010421 -0.010421 0.015059 0.000000 0.000000 0.000000
# 4 0.000000 0.000000 0.000000 0.043930 0.000000 0.000000
# 5 0.000000 0.000000 0.000000 0.000000 0.043930 0.000000
# 6 -0.017894 0.017894 0.000000 0.000000 0.000000 0.066525
#
#
# Mechanical properties :
#
#
# Convention : Reuss Voigt Hill
#
# Bulk Modulus (GPa) = 28.98454 46.79499 37.88976
# Shear Modulus (GPa) = 16.15738 20.65949 18.40843
#
# Velocity S-wave (km/s) = 2.86670 3.24158 3.05989
# Velocity P-wave (km/s) = 5.06946 6.14909 5.63519
#
# Compressibility (1/GPa) = 0.03450115
#
# Stress axis : x y z
#
# Youngs Moduli (GPa) = 27.03535 27.03535 66.40502
#
# Poissons Ratio (x) = 0.17372 0.69200
# Poissons Ratio (y) = 0.17372 0.69200
# Poissons Ratio (z) = 0.28173 0.28173
#
# Static dielectric constant tensor:
#      x y z
#    x 1.695350 0.000000 0.000000 
#    y 0.000000 1.695350 0.000000 
#    z 0.000000 0.000000 1.700310 
# 
# From -- ./inp_files/5320.got.cif
#   From: 2010.05.17/outbox.cif.g08.bks.cpg/sg87_3_cif.got.tgz:5320.got - 2010.06.03 19:07:00.
