data_PCOD9545840
_publ_section_title
;
Structure prediction by ZEFSAII (Michael W. Deem and Ramdas Pophale) SiO2 
 PCOD9545840
Probable space group: I 4/M
;
_chemical_formula_sum "Si O2"
_cell_formula_units_Z 88
_cell_length_a 12.412255
_cell_length_b 12.412255
_cell_length_c 32.545462
_cell_angle_alpha 90.000000
_cell_angle_beta 90.000000
_cell_angle_gamma 90.000000
_cell_volume 5014.086472
_symmetry_space_group_name_H-M "I 4/M"
_symmetry_group_IT_number 87
_symmetry_cell_setting 'tetragonal'
loop_
_space_group_symop_operation_xyz
x,y,z
-y,x,z
-x,-y,z
y,-x,z
-x,-y,-z
y,-x,-z
x,y,-z
-y,x,-z
1/2+x,1/2+y,1/2+z
1/2-y,1/2+x,1/2+z
1/2-x,1/2-y,1/2+z
1/2+y,1/2-x,1/2+z
1/2-x,1/2-y,1/2-z
1/2+y,1/2-x,1/2-z
1/2+x,1/2+y,1/2-z
1/2-y,1/2+x,1/2-z
loop_
_atom_site_type_symbol
_atom_site_label
_atom_site_fract_x
_atom_site_fract_y
_atom_site_fract_z
Si Si1 0.016063 0.371712 0.136105
Si Si2 0.824148 0.944282 0.500000
Si Si3 0.627159 0.773978 0.129297
Si Si4 0.340244 0.585536 0.785638
Si Si5 0.218093 0.394252 0.086393
Si Si6 0.932788 0.653205 0.230707
O O1 0.099889 0.351116 0.099358
O O2 0.060800 0.345165 0.181455
O O3 0.000000 0.500000 0.137790
O O4 0.895756 0.328325 0.129184
O O5 0.751417 0.920117 0.539875
O O6 0.932415 0.869460 0.500000
O O7 0.620094 0.729394 0.175283
O O8 0.698622 0.692757 0.103319
O O9 0.506662 0.771112 0.110951
O O10 0.360978 0.457077 0.786874
O O11 0.266867 0.610543 0.746508
O O12 0.866739 0.551750 0.249153
#
# Coordination Sequence:
#
# PCOD9545840 Si02
#       6
#    16   8  16  16  16  16
#     4  10  21  37  55  83 116 154 199 236 281 338
#     4  11  22  38  61  93 125 146 175 230 309 371
#     4  11  20  36  57  84 118 156 189 234 293 345
#     4  11  23  34  50  82 117 150 195 247 292 340
#     4  11  22  37  60  86 115 151 189 231 287 360
#     4  11  19  34  53  75 108 150 199 235 269 327
#
# _framework density 17.550554999999999
#
# number of rings (size 3 to 8) (size 9 to 14) (size 15 to 20)
#    0.000    1.182    7.273    1.091    0.000    2.545 
#    0.000    5.000    0.000    0.545    0.000    0.000 
#    0.000    1.455    0.000    0.000    0.000    0.000 
#
# Total GULP energy -245560.377618 kJ/mol
# GULP energy per Si atom -5580.917673 kJ/mol
# Density = 1.751061 g / cm^3
# Si number density = 17.550555 Si / 1000 Ang^3
#
#
#
# Elastic Constant Matrix: (Units=GPa)
#
#
# Indices 1 2 3 4 5 6 
#
# 1 68.0562 10.9834 24.0838 0.0000 0.0000 4.8712
# 2 10.9834 68.0562 24.0838 0.0000 0.0000 -4.8712
# 3 24.0838 24.0838 102.9700 0.0000 0.0000 0.0000
# 4 0.0000 0.0000 0.0000 19.9212 0.0000 0.0000
# 5 0.0000 0.0000 0.0000 0.0000 19.9212 0.0000
# 6 4.8712 -4.8712 0.0000 0.0000 0.0000 1.6779
#
#
#
# Elastic Compliance Matrix: (Units=1/GPa)
#
#
# Indices 1 2 3 4 5 6 
#
# 1 0.024746 -0.009991 -0.003451 0.000000 0.000000 -0.100849
# 2 -0.009991 0.024746 -0.003451 0.000000 0.000000 0.100849
# 3 -0.003451 -0.003451 0.011326 0.000000 0.000000 0.000000
# 4 0.000000 0.000000 0.000000 0.050198 0.000000 0.000000
# 5 0.000000 0.000000 0.000000 0.000000 0.050198 0.000000
# 6 -0.100849 0.100849 0.000000 0.000000 0.000000 1.181576
#
#
# Mechanical properties :
#
#
# Convention : Reuss Voigt Hill
#
# Bulk Modulus (GPa) = 36.99366 39.70936 38.35151
# Shear Modulus (GPa) = 3.60858 20.29947 11.95403
#
# Velocity S-wave (km/s) = 1.43547 3.40461 2.61266
# Velocity P-wave (km/s) = 4.88585 6.17495 5.56783
#
# Compressibility (1/GPa) = 0.02703166
#
# Stress axis : x y z
#
# Youngs Moduli (GPa) = 40.41080 40.41080 88.29310
#
# Poissons Ratio (x) = 0.40374 0.30471
# Poissons Ratio (y) = 0.40374 0.30471
# Poissons Ratio (z) = 0.13946 0.13946
#
# Static dielectric constant tensor:
#      x y z
#    x 1.625260 0.000000 0.000000 
#    y 0.000000 1.625260 0.000000 
#    z 0.000000 0.000000 1.596270 
# 
# From -- ./inp_files/6569.got.cif
#   From: 2010.05.17/outbox.cif.g08.bks.cpg/sg87_4_cif.got.tgz:6569.got - 2010.06.03 19:07:00.
