data_PCOD9545797
_publ_section_title
;
Structure prediction by ZEFSAII (Michael W. Deem and Ramdas Pophale) SiO2 
 PCOD9545797
Probable space group: I 4/M
;
_chemical_formula_sum "Si O2"
_cell_formula_units_Z 64
_cell_length_a 16.582394
_cell_length_b 16.582394
_cell_length_c 13.004822
_cell_angle_alpha 90.000000
_cell_angle_beta 90.000000
_cell_angle_gamma 90.000000
_cell_volume 3576.011213
_symmetry_space_group_name_H-M "I 4/M"
_symmetry_group_IT_number 87
_symmetry_cell_setting 'tetragonal'
loop_
_space_group_symop_operation_xyz
x,y,z
-y,x,z
-x,-y,z
y,-x,z
-x,-y,-z
y,-x,-z
x,y,-z
-y,x,-z
1/2+x,1/2+y,1/2+z
1/2-y,1/2+x,1/2+z
1/2-x,1/2-y,1/2+z
1/2+y,1/2-x,1/2+z
1/2-x,1/2-y,1/2-z
1/2+y,1/2-x,1/2-z
1/2+x,1/2+y,1/2-z
1/2-y,1/2+x,1/2-z
loop_
_atom_site_type_symbol
_atom_site_label
_atom_site_fract_x
_atom_site_fract_y
_atom_site_fract_z
Si Si1 0.662316 0.235332 0.620499
Si Si2 0.323264 0.646238 0.803759
Si Si3 0.124854 0.452265 0.248045
Si Si4 0.519672 0.275460 0.882728
O O1 0.654179 0.250290 0.500000
O O2 0.663714 0.315322 0.691106
O O3 0.746574 0.190719 0.645530
O O4 0.592480 0.176116 0.663586
O O5 0.402734 0.668793 0.867382
O O6 0.304788 0.552084 0.809210
O O7 0.097583 0.543307 0.273337
O O8 0.185419 0.455965 0.151704
O O9 0.491289 0.276738 0.000000
#
# Coordination Sequence:
#
# PCOD9545797 Si02
#       4
#    16  16  16  16
#     4  10  20  39  61  81 118 160 194 238 293 345
#     4  10  22  37  57  86 115 150 200 241 282 353
#     4  10  21  35  55  88 123 151 193 241 287 354
#     4  11  21  37  59  84 118 155 194 245 295 338
#
# _framework density 17.897034999999999
#
# number of rings (size 3 to 8) (size 9 to 14) (size 15 to 20)
#    0.000    1.750    2.500    2.250    0.000    1.500 
#    0.000    8.750    0.000    0.000    0.000    7.000 
#    0.000    0.000    0.000    0.000    0.000    0.000 
#
# Total GULP energy -178586.896605 kJ/mol
# GULP energy per Si atom -5580.840519 kJ/mol
# Density = 1.785630 g / cm^3
# Si number density = 17.897035 Si / 1000 Ang^3
#
#
#
# Elastic Constant Matrix: (Units=GPa)
#
#
# Indices 1 2 3 4 5 6 
#
# 1 85.1551 21.9449 43.5226 0.0000 0.0000 1.8996
# 2 21.9449 85.1551 43.5226 0.0000 0.0000 -1.8996
# 3 43.5226 43.5226 130.8790 0.0000 0.0000 0.0000
# 4 0.0000 0.0000 0.0000 10.4668 0.0000 0.0000
# 5 0.0000 0.0000 0.0000 0.0000 10.4668 0.0000
# 6 1.8996 -1.8996 0.0000 0.0000 0.0000 31.0525
#
#
#
# Elastic Compliance Matrix: (Units=1/GPa)
#
#
# Indices 1 2 3 4 5 6 
#
# 1 0.014337 -0.001542 -0.004255 0.000000 0.000000 -0.000971
# 2 -0.001542 0.014337 -0.004255 0.000000 0.000000 0.000971
# 3 -0.004255 -0.004255 0.010471 0.000000 0.000000 0.000000
# 4 0.000000 0.000000 0.000000 0.095540 0.000000 0.000000
# 5 0.000000 0.000000 0.000000 0.000000 0.095540 0.000000
# 6 -0.000971 0.000971 0.000000 0.000000 0.000000 0.032322
#
#
# Mechanical properties :
#
#
# Convention : Reuss Voigt Hill
#
# Bulk Modulus (GPa) = 52.51751 57.68549 55.10150
# Shear Modulus (GPa) = 17.30121 23.21050 20.25586
#
# Velocity S-wave (km/s) = 3.11257 3.60514 3.36787
# Velocity P-wave (km/s) = 6.50580 7.04495 6.78073
#
# Compressibility (1/GPa) = 0.01904127
#
# Stress axis : x y z
#
# Youngs Moduli (GPa) = 69.74991 69.74991 95.50619
#
# Poissons Ratio (x) = 0.10753 0.40637
# Poissons Ratio (y) = 0.10753 0.40637
# Poissons Ratio (z) = 0.29678 0.29678
#
# Static dielectric constant tensor:
#      x y z
#    x 1.610200 0.000000 0.000000 
#    y 0.000000 1.610200 0.000000 
#    z 0.000000 0.000000 1.585110 
# 
# From -- ./inp_files/2313.got.cif
#   From: 2010.05.17/outbox.cif.g08.bks.cpg/sg87_2_cif.got.tgz:2313.got - 2010.06.03 19:07:00.
