data_PCOD9545896
_publ_section_title
;
Structure prediction by ZEFSAII (Michael W. Deem and Ramdas Pophale) SiO2 
 PCOD9545896
Probable space group: I 4/M
;
_chemical_formula_sum "Si O2"
_cell_formula_units_Z 96
_cell_length_a 13.718618
_cell_length_b 13.718618
_cell_length_c 23.271468
_cell_angle_alpha 90.000000
_cell_angle_beta 90.000000
_cell_angle_gamma 90.000000
_cell_volume 4379.701444
_symmetry_space_group_name_H-M "I 4/M"
_symmetry_group_IT_number 87
_symmetry_cell_setting 'tetragonal'
loop_
_space_group_symop_operation_xyz
x,y,z
-y,x,z
-x,-y,z
y,-x,z
-x,-y,-z
y,-x,-z
x,y,-z
-y,x,-z
1/2+x,1/2+y,1/2+z
1/2-y,1/2+x,1/2+z
1/2-x,1/2-y,1/2+z
1/2+y,1/2-x,1/2+z
1/2-x,1/2-y,1/2-z
1/2+y,1/2-x,1/2-z
1/2+x,1/2+y,1/2-z
1/2-y,1/2+x,1/2-z
loop_
_atom_site_type_symbol
_atom_site_label
_atom_site_fract_x
_atom_site_fract_y
_atom_site_fract_z
Si Si1 0.749223 0.138510 0.730156
Si Si2 0.900603 0.295644 0.564335
Si Si3 0.656791 0.469573 0.674948
Si Si4 0.386253 0.386090 0.874190
Si Si5 0.275734 0.991236 0.064813
Si Si6 0.596232 0.061732 0.639612
O O1 0.750000 0.250000 0.750000
O O2 0.756133 0.064626 0.783864
O O3 0.844481 0.126892 0.689572
O O4 0.656708 0.109784 0.691252
O O5 0.938446 0.276429 0.500000
O O6 0.843583 0.200847 0.587719
O O7 0.828221 0.386716 0.561564
O O8 0.985918 0.333371 0.606471
O O9 0.610292 0.573938 0.687398
O O10 0.688030 0.475905 0.608946
O O11 0.499373 0.370176 0.885482
O O12 0.354000 0.062215 0.095525
O O13 0.251148 0.022815 0.000000
O O14 0.500000 0.000000 0.656968
#
# Coordination Sequence:
#
# PCOD9545896 Si02
#       6
#    16  16  16  16  16  16
#     4  12  24  43  70 100 139 180 232 289 349 423
#     4  10  21  41  68 100 136 179 231 284 347 420
#     4  11  25  45  68  98 138 185 231 282 349 422
#     4  11  23  41  65  94 136 184 225 274 345 414
#     4  10  22  44  72 101 135 178 235 296 354 413
#     4  10  22  44  69  99 136 180 231 292 358 415
#
# _framework density 21.919301999999998
#
# number of rings (size 3 to 8) (size 9 to 14) (size 15 to 20)
#    0.000    1.333    1.667    3.500    0.000    4.667 
#    6.000    3.333    0.000    0.000    0.000    0.000 
#    0.000    0.000    0.000    0.000    0.000    0.000 
#
# Total GULP energy -268147.456748 kJ/mol
# GULP energy per Si atom -5586.405349 kJ/mol
# Density = 2.186941 g / cm^3
# Si number density = 21.919302 Si / 1000 Ang^3
#
#
#
# Elastic Constant Matrix: (Units=GPa)
#
#
# Indices 1 2 3 4 5 6 
#
# 1 83.4682 12.6038 41.2061 0.0000 0.0000 -8.4728
# 2 12.6038 83.4682 41.2061 0.0000 0.0000 8.4728
# 3 41.2061 41.2061 135.1832 0.0000 0.0000 0.0000
# 4 0.0000 0.0000 0.0000 12.8775 0.0000 0.0000
# 5 0.0000 0.0000 0.0000 0.0000 12.8775 0.0000
# 6 -8.4728 8.4728 0.0000 0.0000 0.0000 2.8633
#
#
#
# Elastic Compliance Matrix: (Units=1/GPa)
#
#
# Indices 1 2 3 4 5 6 
#
# 1 0.031177 -0.017083 -0.004296 0.000000 0.000000 0.142807
# 2 -0.017083 0.031177 -0.004296 0.000000 0.000000 -0.142807
# 3 -0.004296 -0.004296 0.010016 0.000000 0.000000 0.000000
# 4 0.000000 0.000000 0.000000 0.077655 0.000000 0.000000
# 5 0.000000 0.000000 0.000000 0.000000 0.077655 0.000000
# 6 0.142807 -0.142807 0.000000 0.000000 0.000000 1.194403
#
#
# Mechanical properties :
#
#
# Convention : Reuss Voigt Hill
#
# Bulk Modulus (GPa) = 47.57325 54.68352 51.12839
# Shear Modulus (GPa) = 3.37737 19.53058 11.45397
#
# Velocity S-wave (km/s) = 1.24264 2.98824 2.28842
# Velocity P-wave (km/s) = 4.87953 6.07519 5.50989
#
# Compressibility (1/GPa) = 0.02102022
#
# Stress axis : x y z
#
# Youngs Moduli (GPa) = 32.07452 32.07452 99.83582
#
# Poissons Ratio (x) = 0.54794 0.42891
# Poissons Ratio (y) = 0.54794 0.42891
# Poissons Ratio (z) = 0.13780 0.13780
#
# Static dielectric constant tensor:
#      x y z
#    x 1.782950 0.000000 0.000000 
#    y 0.000000 1.782950 0.000000 
#    z 0.000000 0.000000 1.842640 
# 
# From -- ./inp_files/5289.got.cif
#   From: 2010.05.17/outbox.cif.g08.bks.cpg/sg87_3_cif.got.tgz:5289.got - 2010.06.03 19:07:00.
