data_PCOD9545411
_publ_section_title
;
Structure prediction by ZEFSAII (Michael W. Deem and Ramdas Pophale) SiO2 
 PCOD9545411
Probable space group: P 42/N
;
_chemical_formula_sum "Si O2"
_cell_formula_units_Z 38
_cell_length_a 9.127622
_cell_length_b 9.127622
_cell_length_c 22.149408
_cell_angle_alpha 90.000000
_cell_angle_beta 90.000000
_cell_angle_gamma 90.000000
_cell_volume 1845.344335
_symmetry_space_group_name_H-M "P 42/N"
_symmetry_group_IT_number 86
_space_group.IT_coordinate_system_code '2'
_symmetry_cell_setting 'tetragonal'
loop_
_space_group_symop_operation_xyz
x,y,z
-y,1/2+x,1/2+z
1/2-x,1/2-y,z
1/2+y,-x,1/2+z
-x,-y,-z
y,1/2-x,1/2-z
1/2+x,1/2+y,-z
1/2-y,x,1/2-z
loop_
_atom_site_type_symbol
_atom_site_label
_atom_site_fract_x
_atom_site_fract_y
_atom_site_fract_z
Si Si1 0.524955 0.251157 0.324155
Si Si2 0.250000 0.750000 0.069453
Si Si3 0.750000 0.250000 0.625257
Si Si4 0.250000 0.250000 0.401414
Si Si5 0.250000 0.250000 0.750000
Si Si6 0.081627 0.537388 0.784228
Si Si7 0.529145 0.338951 0.027474
O O1 0.617708 0.263159 0.384734
O O2 0.372716 0.204968 0.353026
O O3 0.504865 0.411522 0.294731
O O4 0.587336 0.131220 0.277925
O O5 0.390360 0.745603 0.026494
O O6 0.646093 0.352710 0.665593
O O7 0.654014 0.145816 0.582043
O O8 0.247775 0.389309 0.446364
O O9 0.177598 0.389357 0.783679
O O10 0.500000 0.500000 0.000000
#
# Coordination Sequence:
#
# PCOD9545411 Si02
#       7
#     8   4   4   4   2   8   8
#     4  12  25  45  73 103 142 183 242 289 356 430
#     4  11  25  44  70  98 141 183 230 308 346 419
#     4  11  25  46  72 102 149 189 238 304 356 431
#     4  12  24  45  75 102 132 196 234 290 366 422
#     4  12  28  40  70 104 148 190 224 284 376 430
#     4  12  26  46  70 108 146 189 236 298 366 437
#     4  11  25  45  70 102 141 183 245 295 351 422
#
# _framework density 20.592365000000001
#
# number of rings (size 3 to 8) (size 9 to 14) (size 15 to 20)
#    0.000    0.421    4.211    4.421    2.947    4.211 
#    0.000    1.053    0.000    0.000    0.000    0.000 
#    0.000    0.000    0.000    0.000    0.000    0.000 
#
# Total GULP energy -212093.796669 kJ/mol
# GULP energy per Si atom -5581.415702 kJ/mol
# Density = 2.054550 g / cm^3
# Si number density = 20.592365 Si / 1000 Ang^3
#
#
#
# Elastic Constant Matrix: (Units=GPa)
#
#
# Indices 1 2 3 4 5 6 
#
# 1 81.0473 20.3626 49.2714 0.0000 0.0000 9.4485
# 2 20.3626 81.0473 49.2714 0.0000 0.0000 -9.4485
# 3 49.2714 49.2714 138.0934 0.0000 0.0000 0.0000
# 4 0.0000 0.0000 0.0000 33.5420 0.0000 0.0000
# 5 0.0000 0.0000 0.0000 0.0000 33.5420 0.0000
# 6 9.4485 -9.4485 0.0000 0.0000 0.0000 33.4789
#
#
#
# Elastic Compliance Matrix: (Units=1/GPa)
#
#
# Indices 1 2 3 4 5 6 
#
# 1 0.016580 -0.001486 -0.005386 0.000000 0.000000 -0.005099
# 2 -0.001486 0.016580 -0.005386 0.000000 0.000000 0.005099
# 3 -0.005386 -0.005386 0.011085 0.000000 0.000000 0.000000
# 4 0.000000 0.000000 0.000000 0.029813 0.000000 0.000000
# 5 0.000000 0.000000 0.000000 0.000000 0.029813 0.000000
# 6 -0.005099 0.005099 0.000000 0.000000 0.000000 0.032748
#
#
# Mechanical properties :
#
#
# Convention : Reuss Voigt Hill
#
# Bulk Modulus (GPa) = 50.68220 59.77765 55.22992
# Shear Modulus (GPa) = 29.81318 32.19808 31.00563
#
# Velocity S-wave (km/s) = 3.80910 3.95852 3.88453
# Velocity P-wave (km/s) = 6.63409 7.07002 6.85552
#
# Compressibility (1/GPa) = 0.01973079
#
# Stress axis : x y z
#
# Youngs Moduli (GPa) = 60.31239 60.31239 90.21499
#
# Poissons Ratio (x) = 0.08963 0.48586
# Poissons Ratio (y) = 0.08963 0.48586
# Poissons Ratio (z) = 0.32482 0.32482
#
# Static dielectric constant tensor:
#      x y z
#    x 1.734200 0.000000 0.000000 
#    y 0.000000 1.734200 0.000000 
#    z 0.000000 0.000000 1.694150 
# 
# From -- ./inp_files/4564.got.cif
#   From: 2010.05.17/outbox.cif.g08.bks.cpg/sg86_3_cif.got.tgz:4564.got - 2010.06.03 19:03:11.
