data_PCOD9545121
_publ_section_title
;
Structure prediction by ZEFSAII (Michael W. Deem and Ramdas Pophale) SiO2 
 PCOD9545121
Probable space group: P 42/N
;
_chemical_formula_sum "Si O2"
_cell_formula_units_Z 60
_cell_length_a 17.928091
_cell_length_b 17.928091
_cell_length_c 7.861845
_cell_angle_alpha 90.000000
_cell_angle_beta 90.000000
_cell_angle_gamma 90.000000
_cell_volume 2526.926286
_symmetry_space_group_name_H-M "P 42/N"
_symmetry_group_IT_number 86
_space_group.IT_coordinate_system_code '2'
_symmetry_cell_setting 'tetragonal'
loop_
_space_group_symop_operation_xyz
x,y,z
-y,1/2+x,1/2+z
1/2-x,1/2-y,z
1/2+y,-x,1/2+z
-x,-y,-z
y,1/2-x,1/2-z
1/2+x,1/2+y,-z
1/2-y,x,1/2-z
loop_
_atom_site_type_symbol
_atom_site_label
_atom_site_fract_x
_atom_site_fract_y
_atom_site_fract_z
Si Si1 0.731709 0.665845 0.490095
Si Si2 0.912498 0.997754 0.988256
Si Si3 0.676993 0.400069 0.453100
Si Si4 0.707457 0.405435 0.055518
Si Si5 0.250000 0.750000 0.983001
Si Si6 0.144376 0.390902 0.287261
Si Si7 0.992685 0.150907 0.481272
Si Si8 0.369492 0.442020 0.642177
O O1 0.750000 0.750000 0.455913
O O2 0.672805 0.662245 0.648547
O O3 0.804713 0.623384 0.551067
O O4 0.689472 0.624244 0.341674
O O5 0.886652 0.974081 0.175126
O O6 0.870251 0.074743 0.967214
O O7 0.887564 0.940474 0.845202
O O8 0.000000 0.000000 0.000000
O O9 0.699652 0.384437 0.254789
O O10 0.728126 0.340918 0.560182
O O11 0.589120 0.383979 0.480094
O O12 0.672360 0.491498 0.464219
O O13 0.735905 0.333185 0.956021
O O14 0.765710 0.474590 0.047967
O O15 0.159683 0.470779 0.204027
O O16 0.053887 0.096019 0.570272
#
# Coordination Sequence:
#
# PCOD9545121 Si02
#       8
#     8   8   8   8   4   8   8   8
#     4  11  22  41  65  96 132 175 235 292 343 436
#     4  11  25  42  64  97 138 182 232 293 357 426
#     4  10  21  41  62  97 129 172 225 283 348 420
#     4  10  22  40  64  94 134 168 224 286 344 410
#     4  10  22  40  68  94 130 180 222 282 348 420
#     4  11  20  40  67  93 129 181 225 278 351 420
#     4  10  22  40  69  95 133 178 229 286 342 430
#     4  10  24  41  65  97 137 180 229 290 359 423
#
# _framework density 23.744261999999999
#
# number of rings (size 3 to 8) (size 9 to 14) (size 15 to 20)
#    0.000    1.600    1.333    3.200    1.867    6.400 
#    0.000    7.333    0.000    0.000    0.000    0.000 
#    0.000    0.000    0.000    0.000    0.000    0.000 
#
# Total GULP energy -334256.217166 kJ/mol
# GULP energy per Si atom -5570.936953 kJ/mol
# Density = 2.369022 g / cm^3
# Si number density = 23.744262 Si / 1000 Ang^3
#
#
#
# Elastic Constant Matrix: (Units=GPa)
#
#
# Indices 1 2 3 4 5 6 
#
# 1 107.0666 47.1739 9.7619 0.0000 0.0000 -3.5405
# 2 47.1739 107.0666 9.7619 0.0000 0.0000 3.5405
# 3 9.7619 9.7619 47.1869 0.0000 0.0000 0.0000
# 4 0.0000 0.0000 0.0000 -3.5434 0.0000 0.0000
# 5 0.0000 0.0000 0.0000 0.0000 -3.5434 0.0000
# 6 -3.5405 3.5405 0.0000 0.0000 0.0000 38.5496
#
#
#
# Elastic Compliance Matrix: (Units=1/GPa)
#
#
# Indices 1 2 3 4 5 6 
#
# 1 0.011769 -0.005111 -0.001377 0.000000 0.000000 0.001550
# 2 -0.005111 0.011769 -0.001377 0.000000 0.000000 -0.001550
# 3 -0.001377 -0.001377 0.021762 0.000000 0.000000 0.000000
# 4 0.000000 0.000000 0.000000 -0.282219 0.000000 0.000000
# 5 0.000000 0.000000 0.000000 0.000000 -0.282219 0.000000
# 6 0.001550 -0.001550 0.000000 0.000000 0.000000 0.026225
#
#
# Mechanical properties :
#
#
# Convention : Reuss Voigt Hill
#
# Bulk Modulus (GPa) = 33.82001 43.85730 38.83865
# Shear Modulus (GPa) = -10.69920 19.26739 4.28409
#
# Velocity S-wave (km/s) = -2.12504 2.85169 1.34469
# Velocity P-wave (km/s) = 2.87286 5.41790 4.33630
#
# Compressibility (1/GPa) = 0.02956829
#
# Stress axis : x y z
#
# Youngs Moduli (GPa) = 84.97062 84.97062 45.95125
#
# Poissons Ratio (x) = 0.43429 0.06329
# Poissons Ratio (y) = 0.43429 0.06329
# Poissons Ratio (z) = 0.11703 0.11703
#
# Static dielectric constant tensor:
#      x y z
#    x 1.874360 0.000000 0.000000 
#    y 0.000000 1.874360 0.000000 
#    z 0.000000 0.000000 1.975910 
# 
# From -- ./inp_files/1480.got.cif
#   From: 2010.05.17/outbox.cif.g08.bks.cpg/sg86_1_cif.got.tgz:1480.got - 2010.06.03 19:03:11.
