data_PCOD9545025
_publ_section_title
;
Structure prediction by ZEFSAII (Michael W. Deem and Ramdas Pophale) SiO2 
 PCOD9545025
Probable space group: P 42/N
;
_chemical_formula_sum "Si O2"
_cell_formula_units_Z 56
_cell_length_a 12.880854
_cell_length_b 12.880854
_cell_length_c 13.784846
_cell_angle_alpha 90.000000
_cell_angle_beta 90.000000
_cell_angle_gamma 90.000000
_cell_volume 2287.132020
_symmetry_space_group_name_H-M "P 42/N"
_symmetry_group_IT_number 86
_space_group.IT_coordinate_system_code '2'
_symmetry_cell_setting 'tetragonal'
loop_
_space_group_symop_operation_xyz
x,y,z
-y,1/2+x,1/2+z
1/2-x,1/2-y,z
1/2+y,-x,1/2+z
-x,-y,-z
y,1/2-x,1/2-z
1/2+x,1/2+y,-z
1/2-y,x,1/2-z
loop_
_atom_site_type_symbol
_atom_site_label
_atom_site_fract_x
_atom_site_fract_y
_atom_site_fract_z
Si Si1 0.054997 0.240900 0.532703
Si Si2 0.925780 0.977893 0.379398
Si Si3 0.870141 0.232760 0.214360
Si Si4 0.555721 0.853512 0.851097
Si Si5 0.315562 0.852510 0.066634
Si Si6 0.125381 0.371585 0.368207
Si Si7 0.991756 0.432707 0.650640
O O1 0.105711 0.267286 0.428695
O O2 0.096306 0.137728 0.583855
O O3 0.935240 0.214358 0.513253
O O4 0.058112 0.348171 0.592803
O O5 0.841131 0.060423 0.419332
O O6 0.931992 0.971927 0.262450
O O7 0.035760 0.038250 0.403967
O O8 0.750000 0.250000 0.207389
O O9 0.895296 0.218036 0.327712
O O10 0.896350 0.127708 0.158995
O O11 0.936957 0.326962 0.176961
O O12 0.592305 0.742400 0.893515
O O13 0.617395 0.865895 0.748964
O O14 0.250000 0.750000 0.049255
O O15 0.029324 0.451582 0.391016
#
# Coordination Sequence:
#
# PCOD9545025 Si02
#       7
#     8   8   8   8   8   8   8
#     4  12  22  41  73 105 140 177 242 289 348 410
#     4  10  23  43  71 101 144 190 232 286 354 430
#     4   9  16  33  60  96 136 185 232 273 349 413
#     4  10  20  39  65  97 142 184 227 289 370 405
#     4  10  22  40  65 101 139 176 232 296 344 402
#     4  10  22  39  67 100 142 177 233 298 349 421
#     4   9  21  39  63  99 145 188 225 284 352 420
#
# _framework density 24.484811000000001
#
# number of rings (size 3 to 8) (size 9 to 14) (size 15 to 20)
#    0.000    2.000    1.429    2.571    0.000    3.143 
#    0.000    0.000    9.429    0.000    0.000    0.000 
#    0.000    0.000    0.000    0.000    0.000    0.000 
#
# Total GULP energy -313067.234147 kJ/mol
# GULP energy per Si atom -5590.486324 kJ/mol
# Density = 2.442908 g / cm^3
# Si number density = 24.484811 Si / 1000 Ang^3
#
#
#
# Elastic Constant Matrix: (Units=GPa)
#
#
# Indices 1 2 3 4 5 6 
#
# 1 107.1906 39.0622 29.4721 0.0000 0.0000 1.3611
# 2 39.0622 107.1906 29.4721 0.0000 0.0000 -1.3611
# 3 29.4721 29.4721 79.2410 0.0000 0.0000 0.0000
# 4 0.0000 0.0000 0.0000 31.2447 0.0000 0.0000
# 5 0.0000 0.0000 0.0000 0.0000 31.2447 0.0000
# 6 1.3611 -1.3611 0.0000 0.0000 0.0000 39.4321
#
#
#
# Elastic Compliance Matrix: (Units=1/GPa)
#
#
# Indices 1 2 3 4 5 6 
#
# 1 0.011371 -0.003328 -0.002991 0.000000 0.000000 -0.000507
# 2 -0.003328 0.011371 -0.002991 0.000000 0.000000 0.000507
# 3 -0.002991 -0.002991 0.014845 0.000000 0.000000 0.000000
# 4 0.000000 0.000000 0.000000 0.032005 0.000000 0.000000
# 5 0.000000 0.000000 0.000000 0.000000 0.032005 0.000000
# 6 -0.000507 0.000507 0.000000 0.000000 0.000000 0.025395
#
#
# Mechanical properties :
#
#
# Convention : Reuss Voigt Hill
#
# Bulk Modulus (GPa) = 52.72784 54.40388 53.56586
# Shear Modulus (GPa) = 32.90871 33.42536 33.16704
#
# Velocity S-wave (km/s) = 3.67010 3.69880 3.68448
# Velocity P-wave (km/s) = 6.28818 6.36468 6.32654
#
# Compressibility (1/GPa) = 0.01896531
#
# Stress axis : x y z
#
# Youngs Moduli (GPa) = 87.94468 87.94468 67.36285
#
# Poissons Ratio (x) = 0.29265 0.20151
# Poissons Ratio (y) = 0.29265 0.20151
# Poissons Ratio (z) = 0.26308 0.26308
#
# Static dielectric constant tensor:
#      x y z
#    x 1.986350 0.000000 0.000000 
#    y 0.000000 1.986350 0.000000 
#    z 0.000000 0.000000 2.001520 
# 
# From -- ./inp_files/3041.got.cif
#   From: 2010.05.17/outbox.cif.g08.bks.cpg/sg86_2_cif.got.tgz:3041.got - 2010.06.03 19:03:11.
