data_PCOD9545696
_publ_section_title
;
Structure prediction by ZEFSAII (Michael W. Deem and Ramdas Pophale) SiO2 
 PCOD9545696
Probable space group: I 4/M
;
_chemical_formula_sum "Si O2"
_cell_formula_units_Z 120
_cell_length_a 26.198684
_cell_length_b 26.198684
_cell_length_c 10.116405
_cell_angle_alpha 90.000000
_cell_angle_beta 90.000000
_cell_angle_gamma 90.000000
_cell_volume 6943.607455
_symmetry_space_group_name_H-M "I 4/M"
_symmetry_group_IT_number 87
_symmetry_cell_setting 'tetragonal'
loop_
_space_group_symop_operation_xyz
x,y,z
-y,x,z
-x,-y,z
y,-x,z
-x,-y,-z
y,-x,-z
x,y,-z
-y,x,-z
1/2+x,1/2+y,1/2+z
1/2-y,1/2+x,1/2+z
1/2-x,1/2-y,1/2+z
1/2+y,1/2-x,1/2+z
1/2-x,1/2-y,1/2-z
1/2+y,1/2-x,1/2-z
1/2+x,1/2+y,1/2-z
1/2-y,1/2+x,1/2-z
loop_
_atom_site_type_symbol
_atom_site_label
_atom_site_fract_x
_atom_site_fract_y
_atom_site_fract_z
Si Si1 0.857661 0.662005 0.347229
Si Si2 0.978461 0.824595 0.285584
Si Si3 0.080751 0.796525 0.844297
Si Si4 0.086995 0.993426 0.500000
Si Si5 0.766788 0.297155 0.342613
Si Si6 0.794430 0.471198 0.854179
Si Si7 0.816720 0.556235 0.655463
Si Si8 0.631280 0.668155 0.655041
O O1 0.838505 0.670927 0.500000
O O2 0.822237 0.685819 0.234187
O O3 0.912801 0.688193 0.337886
O O4 0.857980 0.600876 0.330090
O O5 0.976053 0.767293 0.347169
O O6 0.923186 0.831654 0.222820
O O7 0.025449 0.819833 0.184415
O O8 0.989650 0.873085 0.378502
O O9 0.080709 0.737774 0.801143
O O10 0.124727 0.831846 0.785378
O O11 0.090320 0.794509 0.000000
O O12 0.053056 0.045504 0.500000
O O13 0.774590 0.285172 0.500000
O O14 0.750000 0.250000 0.250000
O O15 0.721402 0.338866 0.335940
O O16 0.820287 0.506130 0.743356
O O17 0.810517 0.488442 0.000000
O O18 0.812946 0.542851 0.500000
O O19 0.622682 0.657786 0.500000
#
# Coordination Sequence:
#
# PCOD9545696 Si02
#       8
#    16  16  16   8  16  16  16  16
#     4  10  20  37  57  82 114 151 185 236 290 345
#     4  11  19  35  54  76 101 141 188 231 283 337
#     4   9  18  32  52  76 101 135 177 232 279 332
#     4  11  24  38  52  74 110 150 192 243 296 348
#     4  11  22  35  53  80 115 153 189 231 286 356
#     4  10  20  35  57  84 113 142 187 238 281 339
#     4   9  19  35  57  79 111 147 184 224 285 344
#     4  10  20  34  53  77 105 138 181 232 281 338
#
# _framework density 17.282083
#
# number of rings (size 3 to 8) (size 9 to 14) (size 15 to 20)
#    0.000    1.933    2.000    2.400    0.000    3.733 
#    1.200    0.000    0.000    0.400    0.000    8.400 
#    0.000    0.000    0.000    0.000    0.000    0.000 
#
# Total GULP energy -334207.028523 kJ/mol
# GULP energy per Si atom -5570.117142 kJ/mol
# Density = 1.724275 g / cm^3
# Si number density = 17.282083 Si / 1000 Ang^3
#
#
#
# Elastic Constant Matrix: (Units=GPa)
#
#
# Indices 1 2 3 4 5 6 
#
# 1 49.9597 20.3785 23.8448 0.0000 0.0000 2.8011
# 2 20.3785 49.9597 23.8448 0.0000 0.0000 -2.8011
# 3 23.8448 23.8448 69.2120 0.0000 0.0000 0.0000
# 4 0.0000 0.0000 0.0000 26.3032 0.0000 0.0000
# 5 0.0000 0.0000 0.0000 0.0000 26.3032 0.0000
# 6 2.8011 -2.8011 0.0000 0.0000 0.0000 26.6283
#
#
#
# Elastic Compliance Matrix: (Units=1/GPa)
#
#
# Indices 1 2 3 4 5 6 
#
# 1 0.026521 -0.007971 -0.006391 0.000000 0.000000 -0.003628
# 2 -0.007971 0.026521 -0.006391 0.000000 0.000000 0.003628
# 3 -0.006391 -0.006391 0.018852 0.000000 0.000000 0.000000
# 4 0.000000 0.000000 0.000000 0.038018 0.000000 0.000000
# 5 0.000000 0.000000 0.000000 0.000000 0.038018 0.000000
# 6 -0.003628 0.003628 0.000000 0.000000 0.000000 0.038317
#
#
# Mechanical properties :
#
#
# Convention : Reuss Voigt Hill
#
# Bulk Modulus (GPa) = 32.90702 33.91860 33.41281
# Shear Modulus (GPa) = 21.01872 22.58451 21.80161
#
# Velocity S-wave (km/s) = 3.49121 3.61891 3.55563
# Velocity P-wave (km/s) = 5.94423 6.09353 6.01934
#
# Compressibility (1/GPa) = 0.03038865
#
# Stress axis : x y z
#
# Youngs Moduli (GPa) = 37.70561 37.70561 53.04520
#
# Poissons Ratio (x) = 0.30056 0.33900
# Poissons Ratio (y) = 0.30056 0.33900
# Poissons Ratio (z) = 0.24097 0.24097
#
# Static dielectric constant tensor:
#      x y z
#    x 1.585460 0.000000 0.000000 
#    y 0.000000 1.585460 0.000000 
#    z 0.000000 0.000000 1.621550 
# 
# From -- ./inp_files/1687.got.cif
#   From: 2010.05.17/outbox.cif.g08.bks.cpg/sg87_1_cif.got.tgz:1687.got - 2010.06.03 19:07:00.
