data_PCOD9545862
_publ_section_title
;
Structure prediction by ZEFSAII (Michael W. Deem and Ramdas Pophale) SiO2 
 PCOD9545862
Probable space group: I 4/M
;
_chemical_formula_sum "Si O2"
_cell_formula_units_Z 104
_cell_length_a 18.850619
_cell_length_b 18.850619
_cell_length_c 16.300481
_cell_angle_alpha 90.000000
_cell_angle_beta 90.000000
_cell_angle_gamma 90.000000
_cell_volume 5792.308059
_symmetry_space_group_name_H-M "I 4/M"
_symmetry_group_IT_number 87
_symmetry_cell_setting 'tetragonal'
loop_
_space_group_symop_operation_xyz
x,y,z
-y,x,z
-x,-y,z
y,-x,z
-x,-y,-z
y,-x,-z
x,y,-z
-y,x,-z
1/2+x,1/2+y,1/2+z
1/2-y,1/2+x,1/2+z
1/2-x,1/2-y,1/2+z
1/2+y,1/2-x,1/2+z
1/2-x,1/2-y,1/2-z
1/2+y,1/2-x,1/2-z
1/2+x,1/2+y,1/2-z
1/2-y,1/2+x,1/2-z
loop_
_atom_site_type_symbol
_atom_site_label
_atom_site_fract_x
_atom_site_fract_y
_atom_site_fract_z
Si Si1 0.327772 0.573111 0.757726
Si Si2 0.041146 0.328805 0.675541
Si Si3 0.056288 0.662898 0.827845
Si Si4 0.079479 0.089185 0.586783
Si Si5 0.925829 0.172968 0.172453
Si Si6 0.505433 0.123752 0.000000
Si Si7 0.534136 0.385638 0.500000
Si Si8 0.384445 0.000184 0.000000
O O1 0.247765 0.564484 0.789283
O O2 0.369712 0.604391 0.835181
O O3 0.354804 0.627633 0.688809
O O4 0.350738 0.494156 0.727799
O O5 0.109186 0.378657 0.667472
O O6 0.004520 0.331730 0.584842
O O7 0.989999 0.357278 0.747825
O O8 0.082151 0.743316 0.815024
O O9 0.012855 0.656702 0.913922
O O10 0.105575 0.118206 0.500000
O O11 0.994027 0.095487 0.588889
O O12 0.950477 0.158810 0.080490
O O13 0.577181 0.076550 0.000000
O O14 0.444586 0.062345 0.000000
O O15 0.584526 0.454594 0.500000
#
# Coordination Sequence:
#
# PCOD9545862 Si02
#       8
#    16  16  16  16  16   8   8   8
#     4  11  21  34  53  80 111 153 188 238 289 349
#     4  10  22  36  57  85 114 151 194 244 304 358
#     4  10  21  38  58  85 115 151 195 246 300 365
#     4   9  17  29  49  74  99 135 177 220 269 323
#     4  11  22  36  55  81 115 151 195 237 294 353
#     4   9  18  34  58  88 110 140 190 242 295 355
#     4  11  21  34  58  88 111 146 189 241 290 340
#     4   9  17  34  62  84 109 143 184 246 302 350
#
# _framework density 17.954844999999999
#
# number of rings (size 3 to 8) (size 9 to 14) (size 15 to 20)
#    0.000    1.923    3.077    1.846    1.077    2.462 
#    0.000    0.000    0.000    0.000    0.000    0.000 
#    0.000    0.000    0.000    0.000    0.000    0.000 
#
# Total GULP energy -289531.285183 kJ/mol
# GULP energy per Si atom -5567.909330 kJ/mol
# Density = 1.791398 g / cm^3
# Si number density = 17.954845 Si / 1000 Ang^3
#
#
#
# Elastic Constant Matrix: (Units=GPa)
#
#
# Indices 1 2 3 4 5 6 
#
# 1 45.9132 30.9770 17.9140 0.0000 0.0000 0.5315
# 2 30.9770 45.9132 17.9140 0.0000 0.0000 -0.5315
# 3 17.9140 17.9140 116.0707 0.0000 0.0000 0.0000
# 4 0.0000 0.0000 0.0000 23.1981 0.0000 0.0000
# 5 0.0000 0.0000 0.0000 0.0000 23.1981 0.0000
# 6 0.5315 -0.5315 0.0000 0.0000 0.0000 19.2707
#
#
#
# Elastic Compliance Matrix: (Units=1/GPa)
#
#
# Indices 1 2 3 4 5 6 
#
# 1 0.040548 -0.026535 -0.002163 0.000000 0.000000 -0.001850
# 2 -0.026535 0.040548 -0.002163 0.000000 0.000000 0.001850
# 3 -0.002163 -0.002163 0.009283 0.000000 0.000000 0.000000
# 4 0.000000 0.000000 0.000000 0.043107 0.000000 0.000000
# 5 0.000000 0.000000 0.000000 0.000000 0.043107 0.000000
# 6 -0.001850 0.001850 0.000000 0.000000 0.000000 0.051994
#
#
# Mechanical properties :
#
#
# Convention : Reuss Voigt Hill
#
# Bulk Modulus (GPa) = 34.89355 37.94522 36.41938
# Shear Modulus (GPa) = 16.67435 22.53953 19.60694
#
# Velocity S-wave (km/s) = 3.05074 3.54693 3.30815
# Velocity P-wave (km/s) = 5.64673 6.16067 5.90929
#
# Compressibility (1/GPa) = 0.02865860
#
# Stress axis : x y z
#
# Youngs Moduli (GPa) = 24.66195 24.66195 107.72350
#
# Poissons Ratio (x) = 0.65440 0.23298
# Poissons Ratio (y) = 0.65440 0.23298
# Poissons Ratio (z) = 0.05334 0.05334
#
# Static dielectric constant tensor:
#      x y z
#    x 1.607500 0.000000 0.000000 
#    y 0.000000 1.607500 0.000000 
#    z 0.000000 0.000000 1.650560 
# 
# From -- ./inp_files/4566.got.cif
#   From: 2010.05.17/outbox.cif.g08.bks.cpg/sg87_3_cif.got.tgz:4566.got - 2010.06.03 19:07:00.
