data_PCOD9545947
_publ_section_title
;
Structure prediction by ZEFSAII (Michael W. Deem and Ramdas Pophale) SiO2 
 PCOD9545947
Probable space group: I 4/M
;
_chemical_formula_sum "Si O2"
_cell_formula_units_Z 72
_cell_length_a 11.868736
_cell_length_b 11.868736
_cell_length_c 26.146517
_cell_angle_alpha 90.000000
_cell_angle_beta 90.000000
_cell_angle_gamma 90.000000
_cell_volume 3683.178645
_symmetry_space_group_name_H-M "I 4/M"
_symmetry_group_IT_number 87
_symmetry_cell_setting 'tetragonal'
loop_
_space_group_symop_operation_xyz
x,y,z
-y,x,z
-x,-y,z
y,-x,z
-x,-y,-z
y,-x,-z
x,y,-z
-y,x,-z
1/2+x,1/2+y,1/2+z
1/2-y,1/2+x,1/2+z
1/2-x,1/2-y,1/2+z
1/2+y,1/2-x,1/2+z
1/2-x,1/2-y,1/2-z
1/2+y,1/2-x,1/2-z
1/2+x,1/2+y,1/2-z
1/2-y,1/2+x,1/2-z
loop_
_atom_site_type_symbol
_atom_site_label
_atom_site_fract_x
_atom_site_fract_y
_atom_site_fract_z
Si Si1 0.376342 0.629292 0.125555
Si Si2 0.249229 0.376659 0.773382
Si Si3 0.836811 0.909492 0.000000
Si Si4 0.722304 0.040572 0.820774
Si Si5 0.271587 0.340133 0.612541
O O1 0.346584 0.503375 0.109096
O O2 0.381136 0.649147 0.186686
O O3 0.279813 0.712292 0.108643
O O4 0.250000 0.250000 0.750000
O O5 0.130157 0.374597 0.804743
O O6 0.255569 0.474881 0.731496
O O7 0.786981 0.878782 0.054779
O O8 0.957834 0.851765 0.000000
O O9 0.815390 0.116239 0.852155
O O10 0.699173 0.934988 0.857975
#
# Coordination Sequence:
#
# PCOD9545947 Si02
#       5
#    16  16   8  16  16
#     4  10  22  41  63  87 123 169 216 260 307 385
#     4  11  21  37  53  89 129 168 214 247 318 388
#     4  11  22  40  72 101 130 168 210 277 342 394
#     4  11  22  38  57  89 135 167 208 256 316 394
#     4  11  23  42  64  97 131 163 216 271 329 384
#
# _framework density 19.548334000000001
#
# number of rings (size 3 to 8) (size 9 to 14) (size 15 to 20)
#    0.000    1.222    6.667    1.333    0.000    0.889 
#    4.000    1.111    0.000    2.667    0.000    0.000 
#    0.000    0.000    0.000    0.000    0.000    0.000 
#
# Total GULP energy -200509.173664 kJ/mol
# GULP energy per Si atom -5569.699268 kJ/mol
# Density = 1.950384 g / cm^3
# Si number density = 19.548334 Si / 1000 Ang^3
#
#
#
# Elastic Constant Matrix: (Units=GPa)
#
#
# Indices 1 2 3 4 5 6 
#
# 1 24.2976 7.9448 5.6014 0.0000 0.0000 1.8353
# 2 7.9448 24.2976 5.6014 0.0000 0.0000 -1.8353
# 3 5.6014 5.6014 103.4708 0.0000 0.0000 0.0000
# 4 0.0000 0.0000 0.0000 17.5975 0.0000 0.0000
# 5 0.0000 0.0000 0.0000 0.0000 17.5975 0.0000
# 6 1.8353 -1.8353 0.0000 0.0000 0.0000 17.9431
#
#
#
# Elastic Compliance Matrix: (Units=1/GPa)
#
#
# Indices 1 2 3 4 5 6 
#
# 1 0.047099 -0.015489 -0.001711 0.000000 0.000000 -0.006402
# 2 -0.015489 0.047099 -0.001711 0.000000 0.000000 0.006402
# 3 -0.001711 -0.001711 0.009850 0.000000 0.000000 0.000000
# 4 0.000000 0.000000 0.000000 0.056826 0.000000 0.000000
# 5 0.000000 0.000000 0.000000 0.000000 0.056826 0.000000
# 6 -0.006402 0.006402 0.000000 0.000000 0.000000 0.057042
#
#
# Mechanical properties :
#
#
# Convention : Reuss Voigt Hill
#
# Bulk Modulus (GPa) = 15.10022 21.15127 18.12574
# Shear Modulus (GPa) = 14.94143 19.48886 17.21515
#
# Velocity S-wave (km/s) = 2.76766 3.16089 2.97079
# Velocity P-wave (km/s) = 4.23728 4.91580 4.58910
#
# Compressibility (1/GPa) = 0.06622422
#
# Stress axis : x y z
#
# Youngs Moduli (GPa) = 21.23187 21.23187 101.52456
#
# Poissons Ratio (x) = 0.32887 0.17373
# Poissons Ratio (y) = 0.32887 0.17373
# Poissons Ratio (z) = 0.03633 0.03633
#
# Static dielectric constant tensor:
#      x y z
#    x 1.712790 0.000000 0.000000 
#    y 0.000000 1.712790 0.000000 
#    z 0.000000 0.000000 1.439650 
# 
# From -- ./inp_files/6184.got.cif
#   From: 2010.05.17/outbox.cif.g08.bks.cpg/sg87_4_cif.got.tgz:6184.got - 2010.06.03 19:07:00.
