data_PCOD9545357
_publ_section_title
;
Structure prediction by ZEFSAII (Michael W. Deem and Ramdas Pophale) SiO2 
 PCOD9545357
Probable space group: P 42/N
;
_chemical_formula_sum "Si O2"
_cell_formula_units_Z 24
_cell_length_a 8.556746
_cell_length_b 8.556746
_cell_length_c 13.978503
_cell_angle_alpha 90.000000
_cell_angle_beta 90.000000
_cell_angle_gamma 90.000000
_cell_volume 1023.476664
_symmetry_space_group_name_H-M "P 42/N"
_symmetry_group_IT_number 86
_space_group.IT_coordinate_system_code '2'
_symmetry_cell_setting 'tetragonal'
loop_
_space_group_symop_operation_xyz
x,y,z
-y,1/2+x,1/2+z
1/2-x,1/2-y,z
1/2+y,-x,1/2+z
-x,-y,-z
y,1/2-x,1/2-z
1/2+x,1/2+y,-z
1/2-y,x,1/2-z
loop_
_atom_site_type_symbol
_atom_site_label
_atom_site_fract_x
_atom_site_fract_y
_atom_site_fract_z
Si Si1 0.816396 0.566568 0.499716
Si Si2 0.718274 0.982807 0.289738
Si Si3 0.706058 0.517410 0.709526
O O1 0.742414 0.503488 0.400967
O O2 0.753049 0.504661 0.600103
O O3 0.000000 0.500000 0.500000
O O4 0.138110 0.633767 0.750571
O O5 0.583831 0.849484 0.280375
O O6 0.750000 0.750000 0.499922
O O7 0.577283 0.653279 0.724102
#
# Coordination Sequence:
#
# PCOD9545357 Si02
#       3
#     8   8   8
#     4  12  22  44  74 106 153 207 260 333 405 486
#     4  11  24  43  68 101 149 196 252 327 391 464
#     4  11  22  42  71 102 145 199 256 315 389 474
#
# _framework density 23.449484999999999
#
# number of rings (size 3 to 8) (size 9 to 14) (size 15 to 20)
#    0.000    0.667   10.000    0.000    0.000    2.667 
#    0.000    0.000    0.000    0.000    0.000    0.000 
#    0.000    0.000    0.000    0.000    0.000    0.000 
#
# Total GULP energy -133880.053613 kJ/mol
# GULP energy per Si atom -5578.335567 kJ/mol
# Density = 2.339611 g / cm^3
# Si number density = 23.449485 Si / 1000 Ang^3
#
#
#
# Elastic Constant Matrix: (Units=GPa)
#
#
# Indices 1 2 3 4 5 6 
#
# 1 -21.3792 185.7825 33.7651 0.0000 0.0000 22.3559
# 2 185.7825 -21.3792 33.7651 0.0000 0.0000 -22.3559
# 3 33.7651 33.7651 232.1605 0.0000 0.0000 0.0000
# 4 0.0000 0.0000 0.0000 -0.3155 0.0000 0.0000
# 5 0.0000 0.0000 0.0000 0.0000 -0.3155 0.0000
# 6 22.3559 -22.3559 0.0000 0.0000 0.0000 57.0919
#
#
#
# Elastic Compliance Matrix: (Units=1/GPa)
#
#
# Indices 1 2 3 4 5 6 
#
# 1 0.001009 0.005460 -0.000941 0.000000 0.000000 0.001743
# 2 0.005460 0.001009 -0.000941 0.000000 0.000000 -0.001743
# 3 -0.000941 -0.000941 0.004581 0.000000 0.000000 0.000000
# 4 0.000000 0.000000 0.000000 -3.169804 0.000000 0.000000
# 5 0.000000 0.000000 0.000000 0.000000 -3.169804 0.000000
# 6 0.001743 -0.001743 0.000000 0.000000 0.000000 0.016151
#
#
# Mechanical properties :
#
#
# Convention : Reuss Voigt Hill
#
# Bulk Modulus (GPa) = 72.69680 77.33639 75.01660
# Shear Modulus (GPa) = -0.79121 7.03149 3.12014
#
# Velocity S-wave (km/s) = -0.58150 1.73352 1.15476
# Velocity P-wave (km/s) = 5.53334 6.08756 5.81706
#
# Compressibility (1/GPa) = 0.01375576
#
# Stress axis : x y z
#
# Youngs Moduli (GPa) = 991.03515 991.03515 218.29121
#
# Poissons Ratio (x) = -5.41107 0.20538
# Poissons Ratio (y) = -5.41107 0.20538
# Poissons Ratio (z) = 0.93242 0.93242
#
# Static dielectric constant tensor:
#      x y z
#    x 2.022330 0.000000 0.000000 
#    y 0.000000 2.022330 0.000000 
#    z 0.000000 0.000000 1.777560 
# 
# From -- ./inp_files/1699.got.cif
#   From: 2010.05.17/outbox.cif.g08.bks.cpg/sg86_1_cif.got.tgz:1699.got - 2010.06.03 19:03:11.
