data_PCOD9545587
_publ_section_title
;
Structure prediction by ZEFSAII (Michael W. Deem and Ramdas Pophale) SiO2 
 PCOD9545587
Probable space group: I 4/M
;
_chemical_formula_sum "Si O2"
_cell_formula_units_Z 80
_cell_length_a 17.773037
_cell_length_b 17.773037
_cell_length_c 14.005870
_cell_angle_alpha 90.000000
_cell_angle_beta 90.000000
_cell_angle_gamma 90.000000
_cell_volume 4424.186039
_symmetry_space_group_name_H-M "I 4/M"
_symmetry_group_IT_number 87
_symmetry_cell_setting 'tetragonal'
loop_
_space_group_symop_operation_xyz
x,y,z
-y,x,z
-x,-y,z
y,-x,z
-x,-y,-z
y,-x,-z
x,y,-z
-y,x,-z
1/2+x,1/2+y,1/2+z
1/2-y,1/2+x,1/2+z
1/2-x,1/2-y,1/2+z
1/2+y,1/2-x,1/2+z
1/2-x,1/2-y,1/2-z
1/2+y,1/2-x,1/2-z
1/2+x,1/2+y,1/2-z
1/2-y,1/2+x,1/2-z
loop_
_atom_site_type_symbol
_atom_site_label
_atom_site_fract_x
_atom_site_fract_y
_atom_site_fract_z
Si Si1 0.294433 0.672849 0.270081
Si Si2 0.398412 0.208089 0.890327
Si Si3 0.428378 0.187670 0.386274
Si Si4 0.256697 0.094186 0.110813
Si Si5 0.586119 0.979386 0.383605
O O1 0.250000 0.750000 0.250000
O O2 0.278731 0.621573 0.176851
O O3 0.250331 0.628671 0.352169
O O4 0.374730 0.696410 0.313094
O O5 0.325707 0.153247 0.890626
O O6 0.465572 0.153673 0.854018
O O7 0.413372 0.230279 0.000000
O O8 0.427677 0.181725 0.500000
O O9 0.513376 0.210170 0.361180
O O10 0.403097 0.105886 0.349751
O O11 0.228799 0.089982 0.000000
O O12 0.587501 0.983073 0.500000
O O13 0.500000 0.000000 0.357564
#
# Coordination Sequence:
#
# PCOD9545587 Si02
#       5
#    16  16  16  16  16
#     4  10  21  33  48  73 106 139 180 225 271 325
#     4   9  17  30  47  70 105 147 180 214 262 317
#     4  10  19  32  54  79 104 139 178 219 273 330
#     4   9  17  32  52  72 100 135 175 224 272 319
#     4   9  15  28  49  75 108 140 172 211 260 324
#
# _framework density 18.082422000000001
#
# number of rings (size 3 to 8) (size 9 to 14) (size 15 to 20)
#    0.000    2.600    2.000    0.600    0.000    4.000 
#    0.000    0.000    0.000    1.800    0.000    2.800 
#    0.000    0.000    0.000    9.200    0.000    0.200 
#
# Total GULP energy -222912.028152 kJ/mol
# GULP energy per Si atom -5572.800704 kJ/mol
# Density = 1.804127 g / cm^3
# Si number density = 18.082422 Si / 1000 Ang^3
#
#
#
# Elastic Constant Matrix: (Units=GPa)
#
#
# Indices 1 2 3 4 5 6 
#
# 1 47.2559 31.4781 41.3603 0.0000 0.0000 -1.4459
# 2 31.4781 47.2559 41.3603 0.0000 0.0000 1.4459
# 3 41.3603 41.3603 83.2032 0.0000 0.0000 0.0000
# 4 0.0000 0.0000 0.0000 16.3999 0.0000 0.0000
# 5 0.0000 0.0000 0.0000 0.0000 16.3999 0.0000
# 6 -1.4459 1.4459 0.0000 0.0000 0.0000 35.3178
#
#
#
# Elastic Compliance Matrix: (Units=1/GPa)
#
#
# Indices 1 2 3 4 5 6 
#
# 1 0.045223 -0.018637 -0.013216 0.000000 0.000000 0.002614
# 2 -0.018637 0.045223 -0.013216 0.000000 0.000000 -0.002614
# 3 -0.013216 -0.013216 0.025158 0.000000 0.000000 0.000000
# 4 0.000000 0.000000 0.000000 0.060976 0.000000 0.000000
# 5 0.000000 0.000000 0.000000 0.000000 0.060976 0.000000
# 6 0.002614 -0.002614 0.000000 0.000000 0.000000 0.028528
#
#
# Mechanical properties :
#
#
# Convention : Reuss Voigt Hill
#
# Bulk Modulus (GPa) = 39.26729 45.12362 42.19545
# Shear Modulus (GPa) = 13.70950 17.85794 15.78372
#
# Velocity S-wave (km/s) = 2.75647 3.14600 2.95765
# Velocity P-wave (km/s) = 5.64745 6.18102 5.92025
#
# Compressibility (1/GPa) = 0.02546649
#
# Stress axis : x y z
#
# Youngs Moduli (GPa) = 22.11266 22.11266 39.74856
#
# Poissons Ratio (x) = 0.41211 0.52532
# Poissons Ratio (y) = 0.41211 0.52532
# Poissons Ratio (z) = 0.29224 0.29224
#
# Static dielectric constant tensor:
#      x y z
#    x 1.605060 0.000000 0.000000 
#    y 0.000000 1.605060 0.000000 
#    z 0.000000 0.000000 1.704510 
# 
# From -- ./inp_files/3514.got.cif
#   From: 2010.05.17/outbox.cif.g08.bks.cpg/sg87_2_cif.got.tgz:3514.got - 2010.06.03 19:07:00.
