data_PCOD9545742
_publ_section_title
;
Structure prediction by ZEFSAII (Michael W. Deem and Ramdas Pophale) SiO2 
 PCOD9545742
Probable space group: I 4/M
;
_chemical_formula_sum "Si O2"
_cell_formula_units_Z 112
_cell_length_a 14.819412
_cell_length_b 14.819412
_cell_length_c 24.356548
_cell_angle_alpha 90.000000
_cell_angle_beta 90.000000
_cell_angle_gamma 90.000000
_cell_volume 5349.062608
_symmetry_space_group_name_H-M "I 4/M"
_symmetry_group_IT_number 87
_symmetry_cell_setting 'tetragonal'
loop_
_space_group_symop_operation_xyz
x,y,z
-y,x,z
-x,-y,z
y,-x,z
-x,-y,-z
y,-x,-z
x,y,-z
-y,x,-z
1/2+x,1/2+y,1/2+z
1/2-y,1/2+x,1/2+z
1/2-x,1/2-y,1/2+z
1/2+y,1/2-x,1/2+z
1/2-x,1/2-y,1/2-z
1/2+y,1/2-x,1/2-z
1/2+x,1/2+y,1/2-z
1/2-y,1/2+x,1/2-z
loop_
_atom_site_type_symbol
_atom_site_label
_atom_site_fract_x
_atom_site_fract_y
_atom_site_fract_z
Si Si1 0.364050 0.451617 0.874802
Si Si2 0.204242 0.178987 0.097842
Si Si3 0.698567 0.841510 0.672669
Si Si4 0.385330 0.086334 0.229573
Si Si5 0.259996 0.680441 0.000000
Si Si6 0.271737 0.504623 0.439968
Si Si7 0.190105 0.033867 0.500000
Si Si8 0.604146 0.006556 0.118666
O O1 0.447002 0.387957 0.857240
O O2 0.273721 0.408897 0.851028
O O3 0.359078 0.459951 0.941174
O O4 0.217409 0.241414 0.150668
O O5 0.199192 0.071228 0.103327
O O6 0.106119 0.202878 0.073321
O O7 0.280469 0.208999 0.053564
O O8 0.684024 0.852103 0.737524
O O9 0.602581 0.871502 0.646172
O O10 0.487215 0.119403 0.241617
O O11 0.374518 0.068508 0.165236
O O12 0.361016 0.727341 0.000000
O O13 0.267314 0.569402 0.000000
O O14 0.305295 0.478862 0.500000
O O15 0.164100 0.498583 0.434874
O O16 0.500000 0.000000 0.106691
#
# Coordination Sequence:
#
# PCOD9545742 Si02
#       8
#    16  16  16  16   8  16   8  16
#     4  11  21  34  53  82 120 173 223 257 306 380
#     4  11  23  43  58  92 121 166 215 273 315 379
#     4  10  20  35  60  84 121 154 201 269 315 378
#     4   9  15  35  60  85 113 156 198 242 310 386
#     4  12  22  37  56  83 134 162 220 258 320 382
#     4  11  23  41  64  84 128 167 213 269 317 375
#     4  12  20  33  56  83 124 182 210 269 308 379
#     4  10  20  36  62  92 123 158 201 257 322 390
#
# _framework density 20.938248999999999
#
# number of rings (size 3 to 8) (size 9 to 14) (size 15 to 20)
#    0.000    1.429    7.143    0.000    0.000    3.571 
#    0.000    1.429    6.286    0.000    0.000    0.000 
#    0.000    0.000    0.000    0.000    0.000    0.000 
#
# Total GULP energy -312102.917195 kJ/mol
# GULP energy per Si atom -5573.266378 kJ/mol
# Density = 2.089059 g / cm^3
# Si number density = 20.938249 Si / 1000 Ang^3
#
#
#
# Elastic Constant Matrix: (Units=GPa)
#
#
# Indices 1 2 3 4 5 6 
#
# 1 68.6460 13.9337 14.3967 0.0000 0.0000 7.5511
# 2 13.9337 68.6460 14.3967 0.0000 0.0000 -7.5511
# 3 14.3967 14.3967 43.5939 0.0000 0.0000 0.0000
# 4 0.0000 0.0000 0.0000 20.3924 0.0000 0.0000
# 5 0.0000 0.0000 0.0000 0.0000 20.3924 0.0000
# 6 7.5511 -7.5511 0.0000 0.0000 0.0000 18.3955
#
#
#
# Elastic Compliance Matrix: (Units=1/GPa)
#
#
# Indices 1 2 3 4 5 6 
#
# 1 0.017149 -0.003464 -0.004520 0.000000 0.000000 -0.008461
# 2 -0.003464 0.017149 -0.004520 0.000000 0.000000 0.008461
# 3 -0.004520 -0.004520 0.025924 0.000000 0.000000 0.000000
# 4 0.000000 0.000000 0.000000 0.049038 0.000000 0.000000
# 5 0.000000 0.000000 0.000000 0.000000 0.049038 0.000000
# 6 -0.008461 0.008461 0.000000 0.000000 0.000000 0.061308
#
#
# Mechanical properties :
#
#
# Convention : Reuss Voigt Hill
#
# Bulk Modulus (GPa) = 28.39561 29.59333 28.99447
# Shear Modulus (GPa) = 19.50452 21.04662 20.27557
#
# Velocity S-wave (km/s) = 3.05540 3.17389 3.11521
# Velocity P-wave (km/s) = 5.10278 5.25317 5.17852
#
# Compressibility (1/GPa) = 0.03521671
#
# Stress axis : x y z
#
# Youngs Moduli (GPa) = 58.31177 58.31177 38.57414
#
# Poissons Ratio (x) = 0.20198 0.17434
# Poissons Ratio (y) = 0.20198 0.17434
# Poissons Ratio (z) = 0.26354 0.26354
#
# Static dielectric constant tensor:
#      x y z
#    x 1.771220 0.000000 0.000000 
#    y 0.000000 1.771220 0.000000 
#    z 0.000000 0.000000 1.743120 
# 
# From -- ./inp_files/6329.got.cif
#   From: 2010.05.17/outbox.cif.g08.bks.cpg/sg87_4_cif.got.tgz:6329.got - 2010.06.03 19:07:00.
