data_PCOD9545264
_publ_section_title
;
Structure prediction by ZEFSAII (Michael W. Deem and Ramdas Pophale) SiO2 
 PCOD9545264
Probable space group: P 42/N
;
_chemical_formula_sum "Si O2"
_cell_formula_units_Z 32
_cell_length_a 12.136446
_cell_length_b 12.136446
_cell_length_c 8.278094
_cell_angle_alpha 90.000000
_cell_angle_beta 90.000000
_cell_angle_gamma 90.000000
_cell_volume 1219.307961
_symmetry_space_group_name_H-M "P 42/N"
_symmetry_group_IT_number 86
_space_group.IT_coordinate_system_code '2'
_symmetry_cell_setting 'tetragonal'
loop_
_space_group_symop_operation_xyz
x,y,z
-y,1/2+x,1/2+z
1/2-x,1/2-y,z
1/2+y,-x,1/2+z
-x,-y,-z
y,1/2-x,1/2-z
1/2+x,1/2+y,-z
1/2-y,x,1/2-z
loop_
_atom_site_type_symbol
_atom_site_label
_atom_site_fract_x
_atom_site_fract_y
_atom_site_fract_z
Si Si1 0.204625 0.136920 0.973086
Si Si2 0.636971 0.952558 0.748064
Si Si3 0.566675 0.104771 0.086458
Si Si4 0.695374 0.434705 0.247319
O O1 0.250000 0.250000 0.908906
O O2 0.294918 0.080637 0.092269
O O3 0.170283 0.053165 0.833612
O O4 0.107798 0.177551 0.089688
O O5 0.515752 0.895330 0.763002
O O6 0.193308 0.933797 0.558036
O O7 0.635068 0.083354 0.719697
O O8 0.689547 0.098170 0.162362
O O9 0.500000 0.000000 0.000000
#
# Coordination Sequence:
#
# PCOD9545264 Si02
#       4
#     8   8   8   8
#     4  12  23  46  79 117 161 218 273 348 412 502
#     4  11  23  46  76 114 165 211 279 336 422 493
#     4  10  23  46  74 114 164 212 285 338 418 502
#     4  11  23  47  77 112 164 218 276 354 405 514
#
# _framework density 26.244395999999998
#
# number of rings (size 3 to 8) (size 9 to 14) (size 15 to 20)
#    0.000    1.000    7.500    0.750    0.000    4.000 
#    4.500    2.500    0.000    0.000    0.000    0.000 
#    0.000    0.000    0.000    0.000    0.000    0.000 
#
# Total GULP energy -178672.059498 kJ/mol
# GULP energy per Si atom -5583.501859 kJ/mol
# Density = 2.618466 g / cm^3
# Si number density = 26.244396 Si / 1000 Ang^3
#
#
#
# Elastic Constant Matrix: (Units=GPa)
#
#
# Indices 1 2 3 4 5 6 
#
# 1 159.5719 48.8834 84.5852 0.0000 0.0000 2.0663
# 2 48.8834 159.5719 84.5852 0.0000 0.0000 -2.0663
# 3 84.5852 84.5852 155.7114 0.0000 0.0000 0.0000
# 4 0.0000 0.0000 0.0000 52.5452 0.0000 0.0000
# 5 0.0000 0.0000 0.0000 0.0000 52.5452 0.0000
# 6 2.0663 -2.0663 0.0000 0.0000 0.0000 40.1378
#
#
#
# Elastic Compliance Matrix: (Units=1/GPa)
#
#
# Indices 1 2 3 4 5 6 
#
# 1 0.008816 -0.000236 -0.004660 0.000000 0.000000 -0.000466
# 2 -0.000236 0.008816 -0.004660 0.000000 0.000000 0.000466
# 3 -0.004660 -0.004660 0.011485 0.000000 0.000000 0.000000
# 4 0.000000 0.000000 0.000000 0.019031 0.000000 0.000000
# 5 0.000000 0.000000 0.000000 0.000000 0.019031 0.000000
# 6 -0.000466 0.000466 0.000000 0.000000 0.000000 0.024962
#
#
# Mechanical properties :
#
#
# Convention : Reuss Voigt Hill
#
# Bulk Modulus (GPa) = 99.97700 101.21810 100.59755
# Shear Modulus (GPa) = 43.63402 46.16574 44.89988
#
# Velocity S-wave (km/s) = 4.08193 4.19868 4.14071
# Velocity P-wave (km/s) = 7.77132 7.88393 7.82783
#
# Compressibility (1/GPa) = 0.01000230
#
# Stress axis : x y z
#
# Youngs Moduli (GPa) = 113.43580 113.43580 87.06686
#
# Poissons Ratio (x) = 0.02679 0.40577
# Poissons Ratio (y) = 0.02679 0.40577
# Poissons Ratio (z) = 0.52866 0.52866
#
# Static dielectric constant tensor:
#      x y z
#    x 2.236980 0.000000 0.000000 
#    y 0.000000 2.236980 0.000000 
#    z 0.000000 0.000000 2.158060 
# 
# From -- ./inp_files/1896.got.cif
#   From: 2010.05.17/outbox.cif.g08.bks.cpg/sg86_1_cif.got.tgz:1896.got - 2010.06.03 19:03:11.
