data_PCOD9545168
_publ_section_title
;
Structure prediction by ZEFSAII (Michael W. Deem and Ramdas Pophale) SiO2 
 PCOD9545168
Probable space group: P 42/N
;
_chemical_formula_sum "Si O2"
_cell_formula_units_Z 38
_cell_length_a 13.758000
_cell_length_b 13.758000
_cell_length_c 8.386288
_cell_angle_alpha 90.000000
_cell_angle_beta 90.000000
_cell_angle_gamma 90.000000
_cell_volume 1587.378095
_symmetry_space_group_name_H-M "P 42/N"
_symmetry_group_IT_number 86
_space_group.IT_coordinate_system_code '2'
_symmetry_cell_setting 'tetragonal'
loop_
_space_group_symop_operation_xyz
x,y,z
-y,1/2+x,1/2+z
1/2-x,1/2-y,z
1/2+y,-x,1/2+z
-x,-y,-z
y,1/2-x,1/2-z
1/2+x,1/2+y,-z
1/2-y,x,1/2-z
loop_
_atom_site_type_symbol
_atom_site_label
_atom_site_fract_x
_atom_site_fract_y
_atom_site_fract_z
Si Si1 0.250000 0.750000 0.594861
Si Si2 0.144146 0.874296 0.850227
Si Si3 0.250000 0.250000 0.750000
Si Si4 0.161962 0.136609 0.299440
Si Si5 0.790844 0.551039 0.114034
Si Si6 0.015592 0.993004 0.307026
O O1 0.172715 0.806729 0.701463
O O2 0.199609 0.663488 0.494618
O O3 0.048330 0.932185 0.797214
O O4 0.221865 0.958768 0.887446
O O5 0.355733 0.233601 0.675972
O O6 0.142167 0.222458 0.170703
O O7 0.094611 0.171656 0.445589
O O8 0.124834 0.028130 0.267041
O O9 0.882870 0.516648 0.220175
O O10 0.000000 0.000000 0.500000
#
# Coordination Sequence:
#
# PCOD9545168 Si02
#       6
#     4   8   2   8   8   8
#     4  10  24  42  70  96 138 180 222 288 344 416
#     4  11  23  45  67 101 135 180 231 281 349 412
#     4  12  20  40  62  84 132 176 224 266 344 396
#     4  10  22  42  66  95 135 175 226 279 344 406
#     4  11  23  40  66  94 130 178 225 280 340 412
#     4  10  22  40  66  97 132 174 222 277 334 406
#
# _framework density 23.938845000000001
#
# number of rings (size 3 to 8) (size 9 to 14) (size 15 to 20)
#    0.000    1.474    2.105    3.789    0.000    8.421 
#    3.789    2.105    0.000    0.000    0.000    0.000 
#    0.000    0.000    0.000    0.000    0.000    0.000 
#
# Total GULP energy -211824.152548 kJ/mol
# GULP energy per Si atom -5574.319804 kJ/mol
# Density = 2.388436 g / cm^3
# Si number density = 23.938845 Si / 1000 Ang^3
#
#
#
# Elastic Constant Matrix: (Units=GPa)
#
#
# Indices 1 2 3 4 5 6 
#
# 1 72.9372 4.8716 11.5344 0.0000 0.0000 -7.9771
# 2 4.8716 72.9372 11.5344 0.0000 0.0000 7.9771
# 3 11.5344 11.5344 35.3850 0.0000 0.0000 0.0000
# 4 0.0000 0.0000 0.0000 4.2093 0.0000 0.0000
# 5 0.0000 0.0000 0.0000 0.0000 4.2093 0.0000
# 6 -7.9771 7.9771 0.0000 0.0000 0.0000 50.1123
#
#
#
# Elastic Compliance Matrix: (Units=1/GPa)
#
#
# Indices 1 2 3 4 5 6 
#
# 1 0.014744 -0.000517 -0.004638 0.000000 0.000000 0.002429
# 2 -0.000517 0.014744 -0.004638 0.000000 0.000000 -0.002429
# 3 -0.004638 -0.004638 0.031284 0.000000 0.000000 0.000000
# 4 0.000000 0.000000 0.000000 0.237567 0.000000 0.000000
# 5 0.000000 0.000000 0.000000 0.000000 0.237567 0.000000
# 6 0.002429 -0.002429 0.000000 0.000000 0.000000 0.020729
#
#
# Mechanical properties :
#
#
# Convention : Reuss Voigt Hill
#
# Bulk Modulus (GPa) = 24.27912 26.34893 25.31403
# Shear Modulus (GPa) = 8.47531 21.92745 15.20138
#
# Velocity S-wave (km/s) = 1.88364 3.02980 2.52267
# Velocity P-wave (km/s) = 3.85940 4.82392 4.36836
#
# Compressibility (1/GPa) = 0.04118766
#
# Stress axis : x y z
#
# Youngs Moduli (GPa) = 67.82393 67.82393 31.96526
#
# Poissons Ratio (x) = 0.03507 0.14824
# Poissons Ratio (y) = 0.03507 0.14824
# Poissons Ratio (z) = 0.31454 0.31454
#
# Static dielectric constant tensor:
#      x y z
#    x 1.941520 0.000000 0.000000 
#    y 0.000000 1.941520 0.000000 
#    z 0.000000 0.000000 2.035730 
# 
# From -- ./inp_files/1069.got.cif
#   From: 2010.05.17/outbox.cif.g08.bks.cpg/sg86_1_cif.got.tgz:1069.got - 2010.06.03 19:03:11.
