data_PCOD9545067
_publ_section_title
;
Structure prediction by ZEFSAII (Michael W. Deem and Ramdas Pophale) SiO2 
 PCOD9545067
Probable space group: P 42/N
;
_chemical_formula_sum "Si O2"
_cell_formula_units_Z 48
_cell_length_a 8.745809
_cell_length_b 8.745809
_cell_length_c 30.778849
_cell_angle_alpha 90.000000
_cell_angle_beta 90.000000
_cell_angle_gamma 90.000000
_cell_volume 2354.248769
_symmetry_space_group_name_H-M "P 42/N"
_symmetry_group_IT_number 86
_space_group.IT_coordinate_system_code '2'
_symmetry_cell_setting 'tetragonal'
loop_
_space_group_symop_operation_xyz
x,y,z
-y,1/2+x,1/2+z
1/2-x,1/2-y,z
1/2+y,-x,1/2+z
-x,-y,-z
y,1/2-x,1/2-z
1/2+x,1/2+y,-z
1/2-y,x,1/2-z
loop_
_atom_site_type_symbol
_atom_site_label
_atom_site_fract_x
_atom_site_fract_y
_atom_site_fract_z
Si Si1 0.590763 0.445414 0.338510
Si Si2 0.760146 0.067882 0.509375
Si Si3 0.099218 0.356148 0.426227
Si Si4 0.953736 0.041695 0.434365
Si Si5 0.439505 0.424903 0.249620
Si Si6 0.424085 0.554262 0.158729
O O1 0.527560 0.505729 0.384320
O O2 0.522027 0.493193 0.292131
O O3 0.559597 0.262044 0.338595
O O4 0.770631 0.473146 0.343085
O O5 0.750000 0.250000 0.510772
O O6 0.797467 0.010399 0.460446
O O7 0.632422 0.967869 0.533758
O O8 0.910135 0.029119 0.538014
O O9 0.250000 0.250000 0.417343
O O10 0.973414 0.226510 0.435857
O O11 0.047504 0.450135 0.383909
O O12 0.457590 0.241710 0.247521
O O13 0.490420 0.487201 0.203085
#
# Coordination Sequence:
#
# PCOD9545067 Si02
#       6
#     8   8   8   8   8   8
#     4   9  18  34  54  80 114 142 184 228 275 338
#     4  10  21  35  55  83 111 147 188 238 282 330
#     4   9  19  34  58  82 111 147 191 238 275 335
#     4   9  20  37  56  80 112 151 186 235 283 331
#     4   9  18  29  54  83 105 134 180 238 277 320
#     4   9  18  31  55  85 106 146 185 223 279 333
#
# _framework density 20.388670000000001
#
# number of rings (size 3 to 8) (size 9 to 14) (size 15 to 20)
#    0.000    2.833    0.000    0.000   14.000    0.667 
#    0.000    1.667    0.000    2.500    0.000    0.000 
#    0.000    0.000    0.000    0.000    0.000    0.000 
#
# Total GULP energy -267439.621486 kJ/mol
# GULP energy per Si atom -5571.658781 kJ/mol
# Density = 2.034226 g / cm^3
# Si number density = 20.388670 Si / 1000 Ang^3
#
#
#
# Elastic Constant Matrix: (Units=GPa)
#
#
# Indices 1 2 3 4 5 6 
#
# 1 17.1929 10.5568 42.2656 0.0000 0.0000 3.8710
# 2 10.5568 17.1929 42.2656 0.0000 0.0000 -3.8710
# 3 42.2656 42.2656 184.0357 0.0000 0.0000 0.0000
# 4 0.0000 0.0000 0.0000 22.2918 0.0000 0.0000
# 5 0.0000 0.0000 0.0000 0.0000 22.2918 0.0000
# 6 3.8710 -3.8710 0.0000 0.0000 0.0000 14.9008
#
#
#
# Elastic Compliance Matrix: (Units=1/GPa)
#
#
# Indices 1 2 3 4 5 6 
#
# 1 0.168090 -0.048132 -0.027550 0.000000 0.000000 -0.056172
# 2 -0.048132 0.168090 -0.027550 0.000000 0.000000 0.056172
# 3 -0.027550 -0.027550 0.018088 0.000000 0.000000 0.000000
# 4 0.000000 0.000000 0.000000 0.044860 0.000000 0.000000
# 5 0.000000 0.000000 0.000000 0.000000 0.044860 0.000000
# 6 -0.056172 0.056172 0.000000 0.000000 0.000000 0.096296
#
#
# Mechanical properties :
#
#
# Convention : Reuss Voigt Hill
#
# Bulk Modulus (GPa) = 6.76564 45.39974 26.08269
# Shear Modulus (GPa) = 6.28129 20.11911 13.20020
#
# Velocity S-wave (km/s) = 1.75712 3.14471 2.54722
# Velocity P-wave (km/s) = 2.72803 5.95828 4.63375
#
# Compressibility (1/GPa) = 0.14780568
#
# Stress axis : x y z
#
# Youngs Moduli (GPa) = 5.94919 5.94919 55.28591
#
# Poissons Ratio (x) = 0.28635 1.52310
# Poissons Ratio (y) = 0.28635 1.52310
# Poissons Ratio (z) = 0.16390 0.16390
#
# Static dielectric constant tensor:
#      x y z
#    x 1.750950 0.000000 0.000000 
#    y 0.000000 1.750950 0.000000 
#    z 0.000000 0.000000 1.777280 
# 
# From -- ./inp_files/5158.got.cif
#   From: 2010.05.17/outbox.cif.g08.bks.cpg/sg86_3_cif.got.tgz:5158.got - 2010.06.03 19:03:11.
