data_PCOD9545934
_publ_section_title
;
Structure prediction by ZEFSAII (Michael W. Deem and Ramdas Pophale) SiO2 
 PCOD9545934
Probable space group: I 4/M
;
_chemical_formula_sum "Si O2"
_cell_formula_units_Z 84
_cell_length_a 17.938204
_cell_length_b 17.938204
_cell_length_c 11.116944
_cell_angle_alpha 90.000000
_cell_angle_beta 90.000000
_cell_angle_gamma 90.000000
_cell_volume 3577.200933
_symmetry_space_group_name_H-M "I 4/M"
_symmetry_group_IT_number 87
_symmetry_cell_setting 'tetragonal'
loop_
_space_group_symop_operation_xyz
x,y,z
-y,x,z
-x,-y,z
y,-x,z
-x,-y,-z
y,-x,-z
x,y,-z
-y,x,-z
1/2+x,1/2+y,1/2+z
1/2-y,1/2+x,1/2+z
1/2-x,1/2-y,1/2+z
1/2+y,1/2-x,1/2+z
1/2-x,1/2-y,1/2-z
1/2+y,1/2-x,1/2-z
1/2+x,1/2+y,1/2-z
1/2-y,1/2+x,1/2-z
loop_
_atom_site_type_symbol
_atom_site_label
_atom_site_fract_x
_atom_site_fract_y
_atom_site_fract_z
Si Si1 0.249529 0.675308 0.371800
Si Si2 0.960217 0.355162 0.133974
Si Si3 0.214414 0.650913 0.871274
Si Si4 0.500000 0.000000 0.250000
Si Si5 0.578923 0.229128 0.136022
Si Si6 0.896443 0.942951 0.354962
O O1 0.270598 0.641084 0.500000
O O2 0.258469 0.630415 0.248824
O O3 0.286391 0.757785 0.367757
O O4 0.160402 0.691635 0.371608
O O5 0.871417 0.374034 0.129600
O O6 0.966553 0.305923 0.254099
O O7 0.006330 0.428958 0.163912
O O8 0.979014 0.326012 0.000000
O O9 0.249398 0.630300 0.000000
O O10 0.589197 0.315444 0.169644
O O11 0.546442 0.223242 0.000000
O O12 0.901157 0.943494 0.500000
O O13 0.971228 0.902317 0.312441
#
# Coordination Sequence:
#
# PCOD9545934 Si02
#       6
#    16  16  16   4  16  16
#     4   8  13  23  43  73 108 134 163 210 263 319
#     4  10  22  40  60  78 104 143 188 242 299 352
#     4   8  14  27  47  72  98 131 168 210 269 329
#     4  12  26  44  60  78 102 148 200 250 298 360
#     4   9  17  31  54  87 116 147 188 234 280 335
#     4   8  14  27  49  82 124 162 192 224 267 326
#
# _framework density 23.482046
#
# number of rings (size 3 to 8) (size 9 to 14) (size 15 to 20)
#    0.000    3.238    0.000    0.857    0.000    1.524 
#    3.429    0.000    0.000    1.143    0.000    1.333 
#    0.000    0.000    0.000    0.000    0.000    0.000 
#
# Total GULP energy -234305.994866 kJ/mol
# GULP energy per Si atom -5578.714163 kJ/mol
# Density = 2.342860 g / cm^3
# Si number density = 23.482046 Si / 1000 Ang^3
#
#
#
# Elastic Constant Matrix: (Units=GPa)
#
#
# Indices 1 2 3 4 5 6 
#
# 1 59.1896 5.8259 18.3591 0.0000 0.0000 -6.2402
# 2 5.8259 59.1896 18.3591 0.0000 0.0000 6.2402
# 3 18.3591 18.3591 199.6111 0.0000 0.0000 0.0000
# 4 0.0000 0.0000 0.0000 2.0696 0.0000 0.0000
# 5 0.0000 0.0000 0.0000 0.0000 2.0696 0.0000
# 6 -6.2402 6.2402 0.0000 0.0000 0.0000 28.1064
#
#
#
# Elastic Compliance Matrix: (Units=1/GPa)
#
#
# Indices 1 2 3 4 5 6 
#
# 1 0.017995 -0.001771 -0.001492 0.000000 0.000000 0.004388
# 2 -0.001771 0.017995 -0.001492 0.000000 0.000000 -0.004388
# 3 -0.001492 -0.001492 0.005284 0.000000 0.000000 0.000000
# 4 0.000000 0.000000 0.000000 0.483191 0.000000 0.000000
# 5 0.000000 0.000000 0.000000 0.000000 0.483191 0.000000
# 6 0.004388 -0.004388 0.000000 0.000000 0.000000 0.037528
#
#
# Mechanical properties :
#
#
# Convention : Reuss Voigt Hill
#
# Bulk Modulus (GPa) = 31.48326 44.78649 38.13487
# Shear Modulus (GPa) = 4.69359 24.81220 14.75290
#
# Velocity S-wave (km/s) = 1.41532 3.25414 2.50924
# Velocity P-wave (km/s) = 4.01339 5.76483 4.96692
#
# Compressibility (1/GPa) = 0.03176292
#
# Stress axis : x y z
#
# Youngs Moduli (GPa) = 55.57204 55.57204 189.24267
#
# Poissons Ratio (x) = 0.09842 0.28238
# Poissons Ratio (y) = 0.09842 0.28238
# Poissons Ratio (z) = 0.08292 0.08292
#
# Static dielectric constant tensor:
#      x y z
#    x 1.893770 0.000000 0.000000 
#    y 0.000000 1.893770 0.000000 
#    z 0.000000 0.000000 1.987400 
# 
# From -- ./inp_files/2673.got.cif
#   From: 2010.05.17/outbox.cif.g08.bks.cpg/sg87_2_cif.got.tgz:2673.got - 2010.06.03 19:07:00.
