data_PCOD9545544
_publ_section_title
;
Structure prediction by ZEFSAII (Michael W. Deem and Ramdas Pophale) SiO2 
 PCOD9545544
Probable space group: I 4/M
;
_chemical_formula_sum "Si O2"
_cell_formula_units_Z 128
_cell_length_a 18.525251
_cell_length_b 18.525251
_cell_length_c 19.107811
_cell_angle_alpha 90.000000
_cell_angle_beta 90.000000
_cell_angle_gamma 90.000000
_cell_volume 6557.512678
_symmetry_space_group_name_H-M "I 4/M"
_symmetry_group_IT_number 87
_symmetry_cell_setting 'tetragonal'
loop_
_space_group_symop_operation_xyz
x,y,z
-y,x,z
-x,-y,z
y,-x,z
-x,-y,-z
y,-x,-z
x,y,-z
-y,x,-z
1/2+x,1/2+y,1/2+z
1/2-y,1/2+x,1/2+z
1/2-x,1/2-y,1/2+z
1/2+y,1/2-x,1/2+z
1/2-x,1/2-y,1/2-z
1/2+y,1/2-x,1/2-z
1/2+x,1/2+y,1/2-z
1/2-y,1/2+x,1/2-z
loop_
_atom_site_type_symbol
_atom_site_label
_atom_site_fract_x
_atom_site_fract_y
_atom_site_fract_z
Si Si1 0.199692 0.187627 0.717664
Si Si2 0.272071 0.257216 0.921587
Si Si3 0.560927 0.777727 0.779126
Si Si4 0.416244 0.930128 0.217113
Si Si5 0.920714 0.663354 0.420936
Si Si6 0.119069 0.505392 0.421004
Si Si7 0.011910 0.220832 0.135401
Si Si8 0.162819 0.139057 0.136366
O O1 0.250000 0.250000 0.750000
O O2 0.227717 0.180915 0.638225
O O3 0.118125 0.215277 0.707560
O O4 0.190322 0.134727 0.782763
O O5 0.346155 0.209822 0.919456
O O6 0.211147 0.198722 0.902595
O O7 0.262738 0.285174 0.000000
O O8 0.607417 0.844270 0.744436
O O9 0.534733 0.805477 0.854898
O O10 0.511091 0.749917 0.716225
O O11 0.489127 0.903909 0.251418
O O12 0.420060 0.943496 0.135054
O O13 0.950532 0.669748 0.500000
O O14 0.900861 0.578978 0.408611
O O15 0.099101 0.522976 0.500000
O O16 0.204499 0.516285 0.408078
O O17 0.082059 0.169895 0.131328
O O18 0.941284 0.178300 0.110563
#
# Coordination Sequence:
#
# PCOD9545544 Si02
#       8
#    16  16  16  16  16  16  16  16
#     4   8  16  28  48  71  95 117 160 209 258 296
#     4   9  16  28  49  73  97 122 156 206 258 304
#     4   9  17  30  47  71  92 126 162 205 254 303
#     4  10  19  30  44  66  96 130 168 203 237 296
#     4   9  15  27  49  73  95 120 158 205 255 306
#     4  10  19  33  50  70  94 130 170 208 248 296
#     4  10  21  33  52  70 100 133 174 213 253 297
#     4  10  19  33  47  73 100 135 171 210 246 302
#
# _framework density 19.519594999999999
#
# number of rings (size 3 to 8) (size 9 to 14) (size 15 to 20)
#    0.000    2.625    2.500    0.000    0.000    0.750 
#    0.000    1.875    0.000    0.750    0.000    1.750 
#    0.000    0.000    0.000    9.750    0.000    0.000 
#
# Total GULP energy -356305.000492 kJ/mol
# GULP energy per Si atom -5567.265633 kJ/mol
# Density = 1.947517 g / cm^3
# Si number density = 19.519595 Si / 1000 Ang^3
#
#
#
# Elastic Constant Matrix: (Units=GPa)
#
#
# Indices 1 2 3 4 5 6 
#
# 1 18.1194 16.5059 -14.4724 0.0000 0.0000 -0.2359
# 2 16.5059 18.1194 -14.4724 0.0000 0.0000 0.2359
# 3 -14.4724 -14.4724 102.0564 0.0000 0.0000 0.0000
# 4 0.0000 0.0000 0.0000 13.8329 0.0000 0.0000
# 5 0.0000 0.0000 0.0000 0.0000 13.8329 0.0000
# 6 -0.2359 0.2359 0.0000 0.0000 0.0000 9.2131
#
#
#
# Elastic Compliance Matrix: (Units=1/GPa)
#
#
# Indices 1 2 3 4 5 6 
#
# 1 0.328600 -0.295835 0.004646 0.000000 0.000000 0.015986
# 2 -0.295835 0.328600 0.004646 0.000000 0.000000 -0.015986
# 3 0.004646 0.004646 0.011116 0.000000 0.000000 0.000000
# 4 0.000000 0.000000 0.000000 0.072292 0.000000 0.000000
# 5 0.000000 0.000000 0.000000 0.000000 0.072292 0.000000
# 6 0.015986 -0.015986 0.000000 0.000000 0.000000 0.109359
#
#
# Mechanical properties :
#
#
# Convention : Reuss Voigt Hill
#
# Bulk Modulus (GPa) = 10.50079 12.60191 11.55135
# Shear Modulus (GPa) = 3.27421 17.42471 10.34946
#
# Velocity S-wave (km/s) = 1.29655 2.99101 2.30512
# Velocity P-wave (km/s) = 2.76273 4.28932 3.60770
#
# Compressibility (1/GPa) = 0.09523089
#
# Stress axis : x y z
#
# Youngs Moduli (GPa) = 3.04322 3.04322 89.95821
#
# Poissons Ratio (x) = 0.90029 -0.41797
# Poissons Ratio (y) = 0.90029 -0.41797
# Poissons Ratio (z) = -0.01414 -0.01414
#
# Static dielectric constant tensor:
#      x y z
#    x 1.710470 0.000000 0.000000 
#    y 0.000000 1.710470 0.000000 
#    z 0.000000 0.000000 1.758110 
# 
# From -- ./inp_files/4739.got.cif
#   From: 2010.05.17/outbox.cif.g08.bks.cpg/sg87_3_cif.got.tgz:4739.got - 2010.06.03 19:07:00.
