data_PCOD9545057
_publ_section_title
;
Structure prediction by ZEFSAII (Michael W. Deem and Ramdas Pophale) SiO2 
 PCOD9545057
Probable space group: P 42/N
;
_chemical_formula_sum "Si O2"
_cell_formula_units_Z 36
_cell_length_a 13.830675
_cell_length_b 13.830675
_cell_length_c 7.774142
_cell_angle_alpha 90.000000
_cell_angle_beta 90.000000
_cell_angle_gamma 90.000000
_cell_volume 1487.096739
_symmetry_space_group_name_H-M "P 42/N"
_symmetry_group_IT_number 86
_space_group.IT_coordinate_system_code '2'
_symmetry_cell_setting 'tetragonal'
loop_
_space_group_symop_operation_xyz
x,y,z
-y,1/2+x,1/2+z
1/2-x,1/2-y,z
1/2+y,-x,1/2+z
-x,-y,-z
y,1/2-x,1/2-z
1/2+x,1/2+y,-z
1/2-y,x,1/2-z
loop_
_atom_site_type_symbol
_atom_site_label
_atom_site_fract_x
_atom_site_fract_y
_atom_site_fract_z
Si Si1 0.794287 0.358552 0.749799
Si Si2 0.524700 0.388325 0.959394
Si Si3 0.414472 0.898502 0.904470
Si Si4 0.750000 0.750000 0.750000
Si Si5 0.595510 0.807494 0.997040
Si Si6 0.750000 0.750000 0.250000
O O1 0.750000 0.250000 0.751742
O O2 0.862759 0.383133 0.585196
O O3 0.845014 0.383114 0.930894
O O4 0.700785 0.421644 0.708353
O O5 0.535304 0.381249 0.752097
O O6 0.451085 0.300785 0.003435
O O7 0.500000 0.500000 0.000000
O O8 0.521345 0.895921 0.985318
O O9 0.814478 0.826786 0.652094
O O10 0.665547 0.808126 0.157561
#
# Coordination Sequence:
#
# PCOD9545057 Si02
#       6
#     8   8   8   2   8   2
#     4  11  23  41  68 101 137 180 225 274 345 418
#     4  11  25  43  66 105 138 172 226 287 348 405
#     4  11  23  42  68 101 136 177 219 282 345 403
#     4  10  20  46  64  82 128 174 228 266 320 402
#     4  10  23  42  65  92 124 177 219 269 330 395
#     4  10  24  46  64  86 124 174 232 258 320 410
#
# _framework density 24.208244000000001
#
# number of rings (size 3 to 8) (size 9 to 14) (size 15 to 20)
#    0.000    1.333    0.000    6.000    3.111    1.778 
#   16.000    0.000    0.000    0.000    0.000    0.000 
#    0.000    0.000    0.000    0.000    0.000    0.000 
#
# Total GULP energy -200625.482819 kJ/mol
# GULP energy per Si atom -5572.930078 kJ/mol
# Density = 2.415315 g / cm^3
# Si number density = 24.208244 Si / 1000 Ang^3
#
#
#
# Elastic Constant Matrix: (Units=GPa)
#
#
# Indices 1 2 3 4 5 6 
#
# 1 62.6904 -4.7095 28.0429 0.0000 0.0000 8.2246
# 2 -4.7095 62.6904 28.0429 0.0000 0.0000 -8.2246
# 3 28.0429 28.0429 162.6381 0.0000 0.0000 0.0000
# 4 0.0000 0.0000 0.0000 36.2271 0.0000 0.0000
# 5 0.0000 0.0000 0.0000 0.0000 36.2271 0.0000
# 6 8.2246 -8.2246 0.0000 0.0000 0.0000 29.3795
#
#
#
# Elastic Compliance Matrix: (Units=1/GPa)
#
#
# Indices 1 2 3 4 5 6 
#
# 1 0.018312 0.002387 -0.003569 0.000000 0.000000 -0.004458
# 2 0.002387 0.018312 -0.003569 0.000000 0.000000 0.004458
# 3 -0.003569 -0.003569 0.007379 0.000000 0.000000 0.000000
# 4 0.000000 0.000000 0.000000 0.027604 0.000000 0.000000
# 5 0.000000 0.000000 0.000000 0.000000 0.027604 0.000000
# 6 -0.004458 0.004458 0.000000 0.000000 0.000000 0.036533
#
#
# Mechanical properties :
#
#
# Convention : Reuss Voigt Hill
#
# Bulk Modulus (GPa) = 28.98381 43.41906 36.20144
# Shear Modulus (GPa) = 31.89854 36.14290 34.02072
#
# Velocity S-wave (km/s) = 3.63391 3.86813 3.75285
# Velocity P-wave (km/s) = 5.44112 6.15828 5.81078
#
# Compressibility (1/GPa) = 0.03450202
#
# Stress axis : x y z
#
# Youngs Moduli (GPa) = 54.60843 54.60843 135.51173
#
# Poissons Ratio (x) = -0.13037 0.48366
# Poissons Ratio (y) = -0.13037 0.48366
# Poissons Ratio (z) = 0.19490 0.19490
#
# Static dielectric constant tensor:
#      x y z
#    x 1.984760 0.000000 0.000000 
#    y 0.000000 1.984760 0.000000 
#    z 0.000000 0.000000 1.979700 
# 
# From -- ./inp_files/1091.got.cif
#   From: 2010.05.17/outbox.cif.g08.bks.cpg/sg86_1_cif.got.tgz:1091.got - 2010.06.03 19:03:11.
