data_PCOD9545022
_publ_section_title
;
Structure prediction by ZEFSAII (Michael W. Deem and Ramdas Pophale) SiO2 
 PCOD9545022
Probable space group: P 42/N
;
_chemical_formula_sum "Si O2"
_cell_formula_units_Z 48
_cell_length_a 12.752306
_cell_length_b 12.752306
_cell_length_c 11.974500
_cell_angle_alpha 90.000000
_cell_angle_beta 90.000000
_cell_angle_gamma 90.000000
_cell_volume 1947.308856
_symmetry_space_group_name_H-M "P 42/N"
_symmetry_group_IT_number 86
_space_group.IT_coordinate_system_code '2'
_symmetry_cell_setting 'tetragonal'
loop_
_space_group_symop_operation_xyz
x,y,z
-y,1/2+x,1/2+z
1/2-x,1/2-y,z
1/2+y,-x,1/2+z
-x,-y,-z
y,1/2-x,1/2-z
1/2+x,1/2+y,-z
1/2-y,x,1/2-z
loop_
_atom_site_type_symbol
_atom_site_label
_atom_site_fract_x
_atom_site_fract_y
_atom_site_fract_z
Si Si1 0.038159 0.140034 0.551542
Si Si2 0.641598 0.637474 0.072769
Si Si3 0.250000 0.250000 0.250000
Si Si4 0.083806 0.661530 0.499773
Si Si5 0.750000 0.250000 0.639889
Si Si6 0.602721 0.105642 0.249447
Si Si7 0.801831 0.932752 0.601991
Si Si8 0.750000 0.750000 0.250000
O O1 0.126940 0.231660 0.557847
O O2 0.099573 0.053855 0.480738
O O3 0.947451 0.212649 0.493457
O O4 0.996380 0.100241 0.670540
O O5 0.646466 0.707525 0.183229
O O6 0.614974 0.513730 0.070981
O O7 0.584082 0.697166 0.971606
O O8 0.174132 0.316328 0.172051
O O9 0.195651 0.664186 0.440073
O O10 0.088198 0.605540 0.618913
O O11 0.842924 0.213512 0.719573
O O12 0.520113 0.187202 0.196243
#
# Coordination Sequence:
#
# PCOD9545022 Si02
#       8
#     8   8   2   8   4   8   8   2
#     4   9  19  39  57  93 130 160 216 269 316 400
#     4  10  20  39  63  93 134 162 220 262 323 404
#     4  12  18  32  68  86 140 160 198 280 340 366
#     4   9  20  41  62  91 126 164 218 274 309 397
#     4  10  22  44  62  86 126 174 220 266 326 402
#     4  11  22  36  68  86 126 175 215 267 339 370
#     4  12  19  36  60  99 121 171 211 267 331 395
#     4  12  18  40  72  90 136 184 190 268 352 390
#
# _framework density 24.649403
#
# number of rings (size 3 to 8) (size 9 to 14) (size 15 to 20)
#    1.000    0.667    3.333    3.000    0.000    0.000 
#    3.000    2.500    3.667    0.000    0.000    0.000 
#    0.000    0.000    0.000    0.000    0.000    0.000 
#
# Total GULP energy -267420.697453 kJ/mol
# GULP energy per Si atom -5571.264530 kJ/mol
# Density = 2.459330 g / cm^3
# Si number density = 24.649403 Si / 1000 Ang^3
#
#
#
# Elastic Constant Matrix: (Units=GPa)
#
#
# Indices 1 2 3 4 5 6 
#
# 1 67.7800 0.8393 36.1500 0.0000 0.0000 -3.3540
# 2 0.8393 67.7800 36.1500 0.0000 0.0000 3.3540
# 3 36.1500 36.1500 112.7653 0.0000 0.0000 0.0000
# 4 0.0000 0.0000 0.0000 39.7401 0.0000 0.0000
# 5 0.0000 0.0000 0.0000 0.0000 39.7401 0.0000
# 6 -3.3540 3.3540 0.0000 0.0000 0.0000 26.3272
#
#
#
# Elastic Compliance Matrix: (Units=1/GPa)
#
#
# Indices 1 2 3 4 5 6 
#
# 1 0.018569 0.003437 -0.007055 0.000000 0.000000 0.001928
# 2 0.003437 0.018569 -0.007055 0.000000 0.000000 -0.001928
# 3 -0.007055 -0.007055 0.013391 0.000000 0.000000 0.000000
# 4 0.000000 0.000000 0.000000 0.025164 0.000000 0.000000
# 5 0.000000 0.000000 0.000000 0.000000 0.025164 0.000000
# 6 0.001928 -0.001928 0.000000 0.000000 0.000000 0.038475
#
#
# Mechanical properties :
#
#
# Convention : Reuss Voigt Hill
#
# Bulk Modulus (GPa) = 34.26436 43.84486 39.05461
# Shear Modulus (GPa) = 29.34212 32.84054 31.09133
#
# Velocity S-wave (km/s) = 3.45393 3.65404 3.55539
# Velocity P-wave (km/s) = 5.46233 5.96897 5.72126
#
# Compressibility (1/GPa) = 0.02918485
#
# Stress axis : x y z
#
# Youngs Moduli (GPa) = 53.85317 53.85317 74.67634
#
# Poissons Ratio (x) = -0.18511 0.52682
# Poissons Ratio (y) = -0.18511 0.52682
# Poissons Ratio (z) = 0.37992 0.37992
#
# Static dielectric constant tensor:
#      x y z
#    x 2.069950 0.000000 0.000000 
#    y 0.000000 2.069950 0.000000 
#    z 0.000000 0.000000 2.106570 
# 
# From -- ./inp_files/2337.got.cif
#   From: 2010.05.17/outbox.cif.g08.bks.cpg/sg86_2_cif.got.tgz:2337.got - 2010.06.03 19:03:11.
