data_PCOD9545146
_publ_section_title
;
Structure prediction by ZEFSAII (Michael W. Deem and Ramdas Pophale) SiO2 
 PCOD9545146
Probable space group: P 42/N
;
_chemical_formula_sum "Si O2"
_cell_formula_units_Z 60
_cell_length_a 17.301184
_cell_length_b 17.301184
_cell_length_c 9.377705
_cell_angle_alpha 90.000000
_cell_angle_beta 90.000000
_cell_angle_gamma 90.000000
_cell_volume 2807.037513
_symmetry_space_group_name_H-M "P 42/N"
_symmetry_group_IT_number 86
_space_group.IT_coordinate_system_code '2'
_symmetry_cell_setting 'tetragonal'
loop_
_space_group_symop_operation_xyz
x,y,z
-y,1/2+x,1/2+z
1/2-x,1/2-y,z
1/2+y,-x,1/2+z
-x,-y,-z
y,1/2-x,1/2-z
1/2+x,1/2+y,-z
1/2-y,x,1/2-z
loop_
_atom_site_type_symbol
_atom_site_label
_atom_site_fract_x
_atom_site_fract_y
_atom_site_fract_z
Si Si1 0.750000 0.250000 0.118418
Si Si2 0.746424 0.944605 0.145172
Si Si3 0.422669 0.386486 0.867321
Si Si4 0.807807 0.094077 0.528456
Si Si5 0.323507 0.594487 0.790556
Si Si6 0.521775 0.350118 0.120446
Si Si7 0.957090 0.444422 0.174089
Si Si8 0.874560 0.536925 0.920547
O O1 0.816027 0.289002 0.025132
O O2 0.708614 0.318657 0.203924
O O3 0.695891 0.926175 0.285038
O O4 0.834136 0.913728 0.146734
O O5 0.760544 0.036938 0.143801
O O6 0.691562 0.920243 0.012374
O O7 0.490801 0.438154 0.792108
O O8 0.449959 0.380747 0.030177
O O9 0.839490 0.069959 0.372983
O O10 0.728667 0.048233 0.547521
O O11 0.860205 0.081007 0.668871
O O12 0.403450 0.594110 0.877769
O O13 0.503291 0.335753 0.285569
O O14 0.047559 0.426910 0.147846
O O15 0.915094 0.481627 0.036125
#
# Coordination Sequence:
#
# PCOD9545146 Si02
#       8
#     4   8   8   8   8   8   8   8
#     4  10  22  36  60  92 142 178 210 258 344 406
#     4  11  25  44  69  93 138 171 236 279 354 393
#     4  11  25  45  69 102 129 185 225 296 333 426
#     4  11  22  38  62  96 137 182 213 278 334 413
#     4  11  22  39  61  97 138 176 219 273 325 425
#     4  11  24  39  68  99 138 169 235 270 344 401
#     4  10  22  42  70  91 138 176 225 267 350 399
#     4  10  22  40  63  98 125 173 215 287 325 400
#
# _framework density 21.374846000000002
#
# number of rings (size 3 to 8) (size 9 to 14) (size 15 to 20)
#    0.000    1.333    2.667    2.800    3.733    4.533 
#    0.000    0.000    0.000    0.000    0.000    1.867 
#    0.000    0.000    0.000    0.000    0.000    0.000 
#
# Total GULP energy -334469.412305 kJ/mol
# GULP energy per Si atom -5574.490205 kJ/mol
# Density = 2.132620 g / cm^3
# Si number density = 21.374846 Si / 1000 Ang^3
#
#
#
# Elastic Constant Matrix: (Units=GPa)
#
#
# Indices 1 2 3 4 5 6 
#
# 1 95.7578 36.9688 17.9055 0.0000 0.0000 -6.6084
# 2 36.9688 95.7578 17.9055 0.0000 0.0000 6.6084
# 3 17.9055 17.9055 85.5864 0.0000 0.0000 0.0000
# 4 0.0000 0.0000 0.0000 13.7799 0.0000 0.0000
# 5 0.0000 0.0000 0.0000 0.0000 13.7799 0.0000
# 6 -6.6084 6.6084 0.0000 0.0000 0.0000 25.4678
#
#
#
# Elastic Compliance Matrix: (Units=1/GPa)
#
#
# Indices 1 2 3 4 5 6 
#
# 1 0.013024 -0.005039 -0.001671 0.000000 0.000000 0.004687
# 2 -0.005039 0.013024 -0.001671 0.000000 0.000000 -0.004687
# 3 -0.001671 -0.001671 0.012383 0.000000 0.000000 0.000000
# 4 0.000000 0.000000 0.000000 0.072569 0.000000 0.000000
# 5 0.000000 0.000000 0.000000 0.000000 0.072569 0.000000
# 6 0.004687 -0.004687 0.000000 0.000000 0.000000 0.041698
#
#
# Mechanical properties :
#
#
# Convention : Reuss Voigt Hill
#
# Bulk Modulus (GPa) = 46.14473 46.96240 46.55356
# Shear Modulus (GPa) = 20.05997 24.22701 22.14349
#
# Velocity S-wave (km/s) = 3.06679 3.37031 3.22213
# Velocity P-wave (km/s) = 5.84598 6.09622 5.97241
#
# Compressibility (1/GPa) = 0.02167095
#
# Stress axis : x y z
#
# Youngs Moduli (GPa) = 76.77910 76.77910 80.75527
#
# Poissons Ratio (x) = 0.38692 0.13491
# Poissons Ratio (y) = 0.38692 0.13491
# Poissons Ratio (z) = 0.12826 0.12826
#
# Static dielectric constant tensor:
#      x y z
#    x 1.829630 0.000000 0.000000 
#    y 0.000000 1.829630 0.000000 
#    z 0.000000 0.000000 1.811440 
# 
# From -- ./inp_files/1475.got.cif
#   From: 2010.05.17/outbox.cif.g08.bks.cpg/sg86_1_cif.got.tgz:1475.got - 2010.06.03 19:03:11.
