data_PCOD9545502
_publ_section_title
;
Structure prediction by ZEFSAII (Michael W. Deem and Ramdas Pophale) SiO2 
 PCOD9545502
Probable space group: I 4/M
;
_chemical_formula_sum "Si O2"
_cell_formula_units_Z 80
_cell_length_a 13.644042
_cell_length_b 13.644042
_cell_length_c 19.028520
_cell_angle_alpha 90.000000
_cell_angle_beta 90.000000
_cell_angle_gamma 90.000000
_cell_volume 3542.347040
_symmetry_space_group_name_H-M "I 4/M"
_symmetry_group_IT_number 87
_symmetry_cell_setting 'tetragonal'
loop_
_space_group_symop_operation_xyz
x,y,z
-y,x,z
-x,-y,z
y,-x,z
-x,-y,-z
y,-x,-z
x,y,-z
-y,x,-z
1/2+x,1/2+y,1/2+z
1/2-y,1/2+x,1/2+z
1/2-x,1/2-y,1/2+z
1/2+y,1/2-x,1/2+z
1/2-x,1/2-y,1/2-z
1/2+y,1/2-x,1/2-z
1/2+x,1/2+y,1/2-z
1/2-y,1/2+x,1/2-z
loop_
_atom_site_type_symbol
_atom_site_label
_atom_site_fract_x
_atom_site_fract_y
_atom_site_fract_z
Si Si1 0.129028 0.095565 0.364708
Si Si2 0.310305 0.655964 0.276531
Si Si3 0.265498 0.803376 0.920647
Si Si4 0.991913 0.383085 0.925150
Si Si5 0.007024 0.357820 0.777638
O O1 0.142411 0.104614 0.280010
O O2 0.211711 0.165265 0.398918
O O3 0.019441 0.133153 0.383794
O O4 0.250000 0.750000 0.250000
O O5 0.315504 0.673433 0.360406
O O6 0.242155 0.561179 0.266104
O O7 0.333437 0.900977 0.921661
O O8 0.228672 0.790501 0.000000
O O9 0.946463 0.355996 0.850024
O O10 0.000000 0.500000 0.925610
O O11 0.946252 0.354153 0.000000
O O12 0.096595 0.436684 0.780875
#
# Coordination Sequence:
#
# PCOD9545502 Si02
#       5
#    16  16  16  16  16
#     4  10  22  37  57  84 113 156 208 249 289 343
#     4   9  20  34  54  76 109 146 191 240 291 342
#     4   9  19  36  57  82 114 152 189 240 302 357
#     4   9  16  28  46  73 110 144 175 216 278 350
#     4  10  18  28  49  78 102 137 179 232 289 349
#
# _framework density 22.583895999999999
#
# number of rings (size 3 to 8) (size 9 to 14) (size 15 to 20)
#    0.000    2.600    2.000    0.000    8.400    0.800 
#    0.000    1.000    0.000    6.000    0.000    1.400 
#    0.000    0.000    0.000    0.000    0.000    0.000 
#
# Total GULP energy -222977.613932 kJ/mol
# GULP energy per Si atom -5574.440348 kJ/mol
# Density = 2.253249 g / cm^3
# Si number density = 22.583896 Si / 1000 Ang^3
#
#
#
# Elastic Constant Matrix: (Units=GPa)
#
#
# Indices 1 2 3 4 5 6 
#
# 1 29.3102 6.9981 -5.1591 0.0000 0.0000 5.0325
# 2 6.9981 29.3102 -5.1591 0.0000 0.0000 -5.0325
# 3 -5.1591 -5.1591 135.4221 0.0000 0.0000 0.0000
# 4 0.0000 0.0000 0.0000 15.9702 0.0000 0.0000
# 5 0.0000 0.0000 0.0000 0.0000 15.9702 0.0000
# 6 5.0325 -5.0325 0.0000 0.0000 0.0000 41.4600
#
#
#
# Elastic Compliance Matrix: (Units=1/GPa)
#
#
# Indices 1 2 3 4 5 6 
#
# 1 0.037629 -0.009786 0.001061 0.000000 0.000000 -0.005755
# 2 -0.009786 0.037629 0.001061 0.000000 0.000000 0.005755
# 3 0.001061 0.001061 0.007465 0.000000 0.000000 0.000000
# 4 0.000000 0.000000 0.000000 0.062617 0.000000 0.000000
# 5 0.000000 0.000000 0.000000 0.000000 0.062617 0.000000
# 6 -0.005755 0.005755 0.000000 0.000000 0.000000 0.025517
#
#
# Mechanical properties :
#
#
# Convention : Reuss Voigt Hill
#
# Bulk Modulus (GPa) = 14.83795 20.82247 17.83021
# Shear Modulus (GPa) = 18.43203 27.83758 23.13480
#
# Velocity S-wave (km/s) = 2.85995 3.51469 3.20409
# Velocity P-wave (km/s) = 4.18212 5.07058 4.64763
#
# Compressibility (1/GPa) = 0.06739477
#
# Stress axis : x y z
#
# Youngs Moduli (GPa) = 26.57516 26.57516 133.95593
#
# Poissons Ratio (x) = 0.26006 -0.14209
# Poissons Ratio (y) = 0.26006 -0.14209
# Poissons Ratio (z) = -0.02819 -0.02819
#
# Static dielectric constant tensor:
#      x y z
#    x 1.878030 0.000000 0.000000 
#    y 0.000000 1.878030 0.000000 
#    z 0.000000 0.000000 1.957920 
# 
# From -- ./inp_files/5064.got.cif
#   From: 2010.05.17/outbox.cif.g08.bks.cpg/sg87_3_cif.got.tgz:5064.got - 2010.06.03 19:07:00.
