data_PCOD9545570
_publ_section_title
;
Structure prediction by ZEFSAII (Michael W. Deem and Ramdas Pophale) SiO2 
 PCOD9545570
Probable space group: I 4/M
;
_chemical_formula_sum "Si O2"
_cell_formula_units_Z 96
_cell_length_a 24.786903
_cell_length_b 24.786903
_cell_length_c 7.981058
_cell_angle_alpha 90.000000
_cell_angle_beta 90.000000
_cell_angle_gamma 90.000000
_cell_volume 4903.486697
_symmetry_space_group_name_H-M "I 4/M"
_symmetry_group_IT_number 87
_symmetry_cell_setting 'tetragonal'
loop_
_space_group_symop_operation_xyz
x,y,z
-y,x,z
-x,-y,z
y,-x,z
-x,-y,-z
y,-x,-z
x,y,-z
-y,x,-z
1/2+x,1/2+y,1/2+z
1/2-y,1/2+x,1/2+z
1/2-x,1/2-y,1/2+z
1/2+y,1/2-x,1/2+z
1/2-x,1/2-y,1/2-z
1/2+y,1/2-x,1/2-z
1/2+x,1/2+y,1/2-z
1/2-y,1/2+x,1/2-z
loop_
_atom_site_type_symbol
_atom_site_label
_atom_site_fract_x
_atom_site_fract_y
_atom_site_fract_z
Si Si1 0.935404 0.941119 0.704825
Si Si2 0.144444 0.848053 0.303246
Si Si3 0.261634 0.858648 0.805288
Si Si4 0.440112 0.857604 0.300889
Si Si5 0.726102 0.848659 0.296632
Si Si6 0.061532 0.351074 0.695730
O O1 0.935161 0.940026 0.500000
O O2 0.890062 0.899418 0.766177
O O3 0.996613 0.925886 0.755155
O O4 0.131671 0.842580 0.500000
O O5 0.205438 0.868825 0.285208
O O6 0.146003 0.787122 0.233662
O O7 0.295446 0.806827 0.738871
O O8 0.302194 0.908821 0.788273
O O9 0.249437 0.849387 0.000000
O O10 0.448487 0.859724 0.500000
O O11 0.400284 0.808536 0.257207
O O12 0.406847 0.910749 0.246588
O O13 0.497982 0.851916 0.218208
O O14 0.726217 0.846217 0.500000
O O15 0.075303 0.344776 0.500000
#
# Coordination Sequence:
#
# PCOD9545570 Si02
#       6
#    16  16  16  16  16  16
#     4   8  15  29  48  71 100 130 161 203 252 300
#     4  10  19  31  52  80 103 132 177 218 257 313
#     4  10  20  34  51  73 105 140 172 214 266 314
#     4  10  21  36  55  79 106 139 179 221 266 315
#     4   9  19  34  51  74 106 140 173 214 264 315
#     4  10  21  37  56  77 105 141 178 219 266 316
#
# _framework density 19.577905999999999
#
# number of rings (size 3 to 8) (size 9 to 14) (size 15 to 20)
#    0.000    2.500    0.000    2.500    0.000    5.000 
#    0.000    5.000    0.000    1.000    0.000    1.167 
#    0.000    0.000    0.000    0.000    0.000    0.000 
#
# Total GULP energy -267813.172950 kJ/mol
# GULP energy per Si atom -5579.441103 kJ/mol
# Density = 1.953335 g / cm^3
# Si number density = 19.577906 Si / 1000 Ang^3
#
#
#
# Elastic Constant Matrix: (Units=GPa)
#
#
# Indices 1 2 3 4 5 6 
#
# 1 -175.5291 292.7245 -3.4320 0.0000 0.0000 -17.6980
# 2 292.7245 -175.5291 -3.4320 0.0000 0.0000 17.6980
# 3 -3.4320 -3.4320 17.4565 0.0000 0.0000 0.0000
# 4 0.0000 0.0000 0.0000 12.8568 0.0000 0.0000
# 5 0.0000 0.0000 0.0000 0.0000 12.8568 0.0000
# 6 -17.6980 17.6980 0.0000 0.0000 0.0000 20.4814
#
#
#
# Elastic Compliance Matrix: (Units=1/GPa)
#
#
# Indices 1 2 3 4 5 6 
#
# 1 0.003314 0.005318 0.001697 0.000000 0.000000 -0.001732
# 2 0.005318 0.003314 0.001697 0.000000 0.000000 0.001732
# 3 0.001697 0.001697 0.057952 0.000000 0.000000 0.000000
# 4 0.000000 0.000000 0.000000 0.077780 0.000000 0.000000
# 5 0.000000 0.000000 0.000000 0.000000 0.077780 0.000000
# 6 -0.001732 0.001732 0.000000 0.000000 0.000000 0.045831
#
#
# Mechanical properties :
#
#
# Convention : Reuss Voigt Hill
#
# Bulk Modulus (GPa) = 12.19436 26.45770 19.32603
# Shear Modulus (GPa) = 18.12375 -32.05850 -6.96738
#
# Velocity S-wave (km/s) = 3.04587 -4.05097 -1.88852
# Velocity P-wave (km/s) = 4.31416 2.88741 2.26659
#
# Compressibility (1/GPa) = 0.08200512
#
# Stress axis : x y z
#
# Youngs Moduli (GPa) = 301.77268 301.77268 17.25554
#
# Poissons Ratio (x) = -1.60495 -0.02928
# Poissons Ratio (y) = -1.60495 -0.02928
# Poissons Ratio (z) = -0.51214 -0.51214
#
# Static dielectric constant tensor:
#      x y z
#    x 1.671080 0.000000 0.000000 
#    y 0.000000 1.671080 0.000000 
#    z 0.000000 0.000000 1.696960 
# 
# From -- ./inp_files/1387.got.cif
#   From: 2010.05.17/outbox.cif.g08.bks.cpg/sg87_1_cif.got.tgz:1387.got - 2010.06.03 19:07:00.
