data_PCOD9545887
_publ_section_title
;
Structure prediction by ZEFSAII (Michael W. Deem and Ramdas Pophale) SiO2 
 PCOD9545887
Probable space group: I 4/M
;
_chemical_formula_sum "Si O2"
_cell_formula_units_Z 72
_cell_length_a 21.447493
_cell_length_b 21.447493
_cell_length_c 8.033838
_cell_angle_alpha 90.000000
_cell_angle_beta 90.000000
_cell_angle_gamma 90.000000
_cell_volume 3695.524957
_symmetry_space_group_name_H-M "I 4/M"
_symmetry_group_IT_number 87
_symmetry_cell_setting 'tetragonal'
loop_
_space_group_symop_operation_xyz
x,y,z
-y,x,z
-x,-y,z
y,-x,z
-x,-y,-z
y,-x,-z
x,y,-z
-y,x,-z
1/2+x,1/2+y,1/2+z
1/2-y,1/2+x,1/2+z
1/2-x,1/2-y,1/2+z
1/2+y,1/2-x,1/2+z
1/2-x,1/2-y,1/2-z
1/2+y,1/2-x,1/2-z
1/2+x,1/2+y,1/2-z
1/2-y,1/2+x,1/2-z
loop_
_atom_site_type_symbol
_atom_site_label
_atom_site_fract_x
_atom_site_fract_y
_atom_site_fract_z
Si Si1 0.302107 0.893103 0.300833
Si Si2 0.742621 0.822409 0.799827
Si Si3 0.623985 0.655684 0.194589
Si Si4 0.467545 0.088924 0.313550
Si Si5 0.563725 0.582680 0.500000
O O1 0.305501 0.894933 0.500000
O O2 0.335970 0.828409 0.247229
O O3 0.228704 0.889148 0.261283
O O4 0.340595 0.950565 0.229866
O O5 0.750000 0.750000 0.750000
O O6 0.801532 0.855271 0.716188
O O7 0.747649 0.828710 0.000000
O O8 0.589317 0.615219 0.332775
O O9 0.607169 0.645680 0.000000
O O10 0.447088 0.075892 0.500000
O O11 0.539804 0.070710 0.297361
O O12 0.489098 0.584515 0.500000
#
# Coordination Sequence:
#
# PCOD9545887 Si02
#       5
#    16  16  16  16   8
#     4   9  19  35  58  90 123 160 203 253 304 360
#     4   9  16  30  56  88 124 159 196 245 307 363
#     4  10  21  40  66  94 126 158 201 261 315 379
#     4  11  22  37  56  76 115 166 209 249 292 352
#     4  11  26  48  70  92 124 163 209 261 325 395
#
# _framework density 19.483025000000001
#
# number of rings (size 3 to 8) (size 9 to 14) (size 15 to 20)
#    0.000    2.111    1.111    4.667    1.556    2.667 
#    4.000    1.111    0.000    0.000    0.000    0.000 
#    0.000    0.000    0.000    0.000    0.000    0.000 
#
# Total GULP energy -200724.628514 kJ/mol
# GULP energy per Si atom -5575.684125 kJ/mol
# Density = 1.943868 g / cm^3
# Si number density = 19.483025 Si / 1000 Ang^3
#
#
#
# Elastic Constant Matrix: (Units=GPa)
#
#
# Indices 1 2 3 4 5 6 
#
# 1 51.9103 47.1787 46.5756 0.0000 0.0000 -3.4925
# 2 47.1787 51.9103 46.5756 0.0000 0.0000 3.4925
# 3 46.5756 46.5756 97.0397 0.0000 0.0000 0.0000
# 4 0.0000 0.0000 0.0000 22.8696 0.0000 0.0000
# 5 0.0000 0.0000 0.0000 0.0000 22.8696 0.0000
# 6 -3.4925 3.4925 0.0000 0.0000 0.0000 24.7694
#
#
#
# Elastic Compliance Matrix: (Units=1/GPa)
#
#
# Indices 1 2 3 4 5 6 
#
# 1 0.142647 -0.124258 -0.008826 0.000000 0.000000 0.037634
# 2 -0.124258 0.142647 -0.008826 0.000000 0.000000 -0.037634
# 3 -0.008826 -0.008826 0.018778 0.000000 0.000000 0.000000
# 4 0.000000 0.000000 0.000000 0.043726 0.000000 0.000000
# 5 0.000000 0.000000 0.000000 0.000000 0.043726 0.000000
# 6 0.037634 -0.037634 0.000000 0.000000 0.000000 0.050985
#
#
# Mechanical properties :
#
#
# Convention : Reuss Voigt Hill
#
# Bulk Modulus (GPa) = 49.37955 53.50223 51.44089
# Shear Modulus (GPa) = 6.82053 18.13709 12.47881
#
# Velocity S-wave (km/s) = 1.87306 3.05440 2.53355
# Velocity P-wave (km/s) = 5.48432 6.32137 5.91766
#
# Compressibility (1/GPa) = 0.02025130
#
# Stress axis : x y z
#
# Youngs Moduli (GPa) = 7.01031 7.01031 53.25507
#
# Poissons Ratio (x) = 0.87109 0.47004
# Poissons Ratio (y) = 0.87109 0.47004
# Poissons Ratio (z) = 0.06187 0.06187
#
# Static dielectric constant tensor:
#      x y z
#    x 1.676500 0.000000 0.000000 
#    y 0.000000 1.676500 0.000000 
#    z 0.000000 0.000000 1.663640 
# 
# From -- ./inp_files/1078.got.cif
#   From: 2010.05.17/outbox.cif.g08.bks.cpg/sg87_1_cif.got.tgz:1078.got - 2010.06.03 19:07:00.
