data_PCOD9545535
_publ_section_title
;
Structure prediction by ZEFSAII (Michael W. Deem and Ramdas Pophale) SiO2 
 PCOD9545535
Probable space group: I 4/M
;
_chemical_formula_sum "Si O2"
_cell_formula_units_Z 80
_cell_length_a 16.230751
_cell_length_b 16.230751
_cell_length_c 16.133790
_cell_angle_alpha 90.000000
_cell_angle_beta 90.000000
_cell_angle_gamma 90.000000
_cell_volume 4250.241722
_symmetry_space_group_name_H-M "I 4/M"
_symmetry_group_IT_number 87
_symmetry_cell_setting 'tetragonal'
loop_
_space_group_symop_operation_xyz
x,y,z
-y,x,z
-x,-y,z
y,-x,z
-x,-y,-z
y,-x,-z
x,y,-z
-y,x,-z
1/2+x,1/2+y,1/2+z
1/2-y,1/2+x,1/2+z
1/2-x,1/2-y,1/2+z
1/2+y,1/2-x,1/2+z
1/2-x,1/2-y,1/2-z
1/2+y,1/2-x,1/2-z
1/2+x,1/2+y,1/2-z
1/2-y,1/2+x,1/2-z
loop_
_atom_site_type_symbol
_atom_site_label
_atom_site_fract_x
_atom_site_fract_y
_atom_site_fract_z
Si Si1 0.555828 0.785150 0.708007
Si Si2 0.815310 0.575641 0.169372
Si Si3 0.865554 0.008915 0.099443
Si Si4 0.253932 0.021367 0.500000
Si Si5 0.304503 0.663229 0.000000
Si Si6 0.310328 0.293836 0.815180
O O1 0.484957 0.834342 0.755597
O O2 0.621445 0.848287 0.668984
O O3 0.519365 0.721997 0.641886
O O4 0.601240 0.729221 0.778353
O O5 0.809629 0.530499 0.081804
O O6 0.723542 0.613130 0.185578
O O7 0.925692 0.085256 0.122416
O O8 0.857874 0.009265 0.000000
O O9 0.193203 0.100620 0.500000
O O10 0.206660 0.934959 0.500000
O O11 0.267828 0.695229 0.912147
O O12 0.250000 0.250000 0.750000
#
# Coordination Sequence:
#
# PCOD9545535 Si02
#       6
#    16  16  16   8   8  16
#     4  11  20  36  59  81 118 151 196 241 289 349
#     4  10  22  35  59  83 113 152 195 236 296 345
#     4   9  19  36  59  86 117 151 190 244 302 348
#     4  10  20  37  58  88 115 157 189 241 301 357
#     4  10  18  35  60  83 122 149 192 244 301 368
#     4   9  19  35  55  84 109 152 197 239 288 342
#
# _framework density 18.822458999999998
#
# number of rings (size 3 to 8) (size 9 to 14) (size 15 to 20)
#    0.000    2.200    2.000    1.800    1.400    0.600 
#    1.800    0.000   11.000    1.200    0.000    0.000 
#    0.000    0.000    0.000    0.000    0.000    0.000 
#
# Total GULP energy -222789.936468 kJ/mol
# GULP energy per Si atom -5569.748412 kJ/mol
# Density = 1.877962 g / cm^3
# Si number density = 18.822459 Si / 1000 Ang^3
#
#
#
# Elastic Constant Matrix: (Units=GPa)
#
#
# Indices 1 2 3 4 5 6 
#
# 1 55.3086 12.0614 32.0540 0.0000 0.0000 -7.9146
# 2 12.0614 55.3086 32.0540 0.0000 0.0000 7.9146
# 3 32.0540 32.0540 105.4705 0.0000 0.0000 0.0000
# 4 0.0000 0.0000 0.0000 22.7443 0.0000 0.0000
# 5 0.0000 0.0000 0.0000 0.0000 22.7443 0.0000
# 6 -7.9146 7.9146 0.0000 0.0000 0.0000 14.7154
#
#
#
# Elastic Compliance Matrix: (Units=1/GPa)
#
#
# Indices 1 2 3 4 5 6 
#
# 1 0.024837 -0.003954 -0.006347 0.000000 0.000000 0.015485
# 2 -0.003954 0.024837 -0.006347 0.000000 0.000000 -0.015485
# 3 -0.006347 -0.006347 0.013339 0.000000 0.000000 0.000000
# 4 0.000000 0.000000 0.000000 0.043967 0.000000 0.000000
# 5 0.000000 0.000000 0.000000 0.000000 0.043967 0.000000
# 6 0.015485 -0.015485 0.000000 0.000000 0.000000 0.084613
#
#
# Mechanical properties :
#
#
# Convention : Reuss Voigt Hill
#
# Bulk Modulus (GPa) = 33.64956 40.93629 37.29292
# Shear Modulus (GPa) = 17.93662 21.36870 19.65266
#
# Velocity S-wave (km/s) = 3.09032 3.37304 3.23477
# Velocity P-wave (km/s) = 5.53620 6.07995 5.81443
#
# Compressibility (1/GPa) = 0.02971807
#
# Stress axis : x y z
#
# Youngs Moduli (GPa) = 40.26310 40.26310 74.96848
#
# Poissons Ratio (x) = 0.15920 0.47579
# Poissons Ratio (y) = 0.15920 0.47579
# Poissons Ratio (z) = 0.25553 0.25553
#
# Static dielectric constant tensor:
#      x y z
#    x 1.660650 0.000000 0.000000 
#    y 0.000000 1.660650 0.000000 
#    z 0.000000 0.000000 1.678440 
# 
# From -- ./inp_files/3539.got.cif
#   From: 2010.05.17/outbox.cif.g08.bks.cpg/sg87_2_cif.got.tgz:3539.got - 2010.06.03 19:07:00.
