data_PCOD9545272
_publ_section_title
;
Structure prediction by ZEFSAII (Michael W. Deem and Ramdas Pophale) SiO2 
 PCOD9545272
Probable space group: P 42/N
;
_chemical_formula_sum "Si O2"
_cell_formula_units_Z 42
_cell_length_a 8.838426
_cell_length_b 8.838426
_cell_length_c 27.883423
_cell_angle_alpha 90.000000
_cell_angle_beta 90.000000
_cell_angle_gamma 90.000000
_cell_volume 2178.190941
_symmetry_space_group_name_H-M "P 42/N"
_symmetry_group_IT_number 86
_space_group.IT_coordinate_system_code '2'
_symmetry_cell_setting 'tetragonal'
loop_
_space_group_symop_operation_xyz
x,y,z
-y,1/2+x,1/2+z
1/2-x,1/2-y,z
1/2+y,-x,1/2+z
-x,-y,-z
y,1/2-x,1/2-z
1/2+x,1/2+y,-z
1/2-y,x,1/2-z
loop_
_atom_site_type_symbol
_atom_site_label
_atom_site_fract_x
_atom_site_fract_y
_atom_site_fract_z
Si Si1 0.250000 0.750000 0.495658
Si Si2 0.750000 0.250000 0.340302
Si Si3 0.006770 0.752361 0.578780
Si Si4 0.550675 0.020675 0.277144
Si Si5 0.258763 0.010333 0.417620
Si Si6 0.273166 0.575350 0.310324
Si Si7 0.250000 0.250000 0.750000
O O1 0.392882 0.750001 0.531153
O O2 0.239404 0.607376 0.460626
O O3 0.615711 0.298997 0.376912
O O4 0.666140 0.127374 0.306730
O O5 0.870700 0.868036 0.572166
O O6 0.921652 0.592701 0.587761
O O7 0.527830 0.088009 0.223560
O O8 0.381712 0.012458 0.297925
O O9 0.627993 0.855177 0.277125
O O10 0.208782 0.939614 0.366995
O O11 0.250000 0.750000 0.298406
#
# Coordination Sequence:
#
# PCOD9545272 Si02
#       7
#     4   4   8   8   8   8   2
#     4  11  22  43  66  90 126 161 210 271 326 390
#     4  11  22  43  62  94 130 171 218 265 320 392
#     4  10  24  40  65  92 124 166 212 267 329 382
#     4  12  25  42  65  93 136 176 217 265 325 385
#     4  11  23  41  65  93 126 163 216 266 324 385
#     4  12  25  41  65  99 130 175 216 269 320 380
#     4  12  24  40  64  88 132 176 216 268 316 380
#
# _framework density 19.282056999999998
#
# number of rings (size 3 to 8) (size 9 to 14) (size 15 to 20)
#    0.000    0.762    5.714    1.143    5.333    0.381 
#    0.000    0.000    0.000    0.000    0.000    0.000 
#    0.000    0.000    0.000    0.000    0.000    0.000 
#
# Total GULP energy -234424.047510 kJ/mol
# GULP energy per Si atom -5581.524941 kJ/mol
# Density = 1.923817 g / cm^3
# Si number density = 19.282057 Si / 1000 Ang^3
#
#
#
# Elastic Constant Matrix: (Units=GPa)
#
#
# Indices 1 2 3 4 5 6 
#
# 1 71.0046 9.4535 24.4470 0.0000 0.0000 1.0168
# 2 9.4535 71.0046 24.4470 0.0000 0.0000 -1.0168
# 3 24.4470 24.4470 130.2176 0.0000 0.0000 0.0000
# 4 0.0000 0.0000 0.0000 36.3121 0.0000 0.0000
# 5 0.0000 0.0000 0.0000 0.0000 36.3121 0.0000
# 6 1.0168 -1.0168 0.0000 0.0000 0.0000 28.9811
#
#
#
# Elastic Compliance Matrix: (Units=1/GPa)
#
#
# Indices 1 2 3 4 5 6 
#
# 1 0.015147 -0.001118 -0.002634 0.000000 0.000000 -0.000571
# 2 -0.001118 0.015147 -0.002634 0.000000 0.000000 0.000571
# 3 -0.002634 -0.002634 0.008668 0.000000 0.000000 0.000000
# 4 0.000000 0.000000 0.000000 0.027539 0.000000 0.000000
# 5 0.000000 0.000000 0.000000 0.000000 0.027539 0.000000
# 6 -0.000571 0.000571 0.000000 0.000000 0.000000 0.034545
#
#
# Mechanical properties :
#
#
# Convention : Reuss Voigt Hill
#
# Bulk Modulus (GPa) = 38.17997 43.21356 40.69676
# Shear Modulus (GPa) = 33.31359 34.57968 33.94664
#
# Velocity S-wave (km/s) = 4.16107 4.23940 4.20042
# Velocity P-wave (km/s) = 6.55208 6.81347 6.68405
#
# Compressibility (1/GPa) = 0.02619174
#
# Stress axis : x y z
#
# Youngs Moduli (GPa) = 66.01761 66.01761 115.36126
#
# Poissons Ratio (x) = 0.07381 0.30385
# Poissons Ratio (y) = 0.07381 0.30385
# Poissons Ratio (z) = 0.17388 0.17388
#
# Static dielectric constant tensor:
#      x y z
#    x 1.723470 0.000000 0.000000 
#    y 0.000000 1.723470 0.000000 
#    z 0.000000 0.000000 1.648270 
# 
# From -- ./inp_files/4860.got.cif
#   From: 2010.05.17/outbox.cif.g08.bks.cpg/sg86_3_cif.got.tgz:4860.got - 2010.06.03 19:03:11.
