data_PCOD9545500
_publ_section_title
;
Structure prediction by ZEFSAII (Michael W. Deem and Ramdas Pophale) SiO2 
 PCOD9545500
Probable space group: I 4/M
;
_chemical_formula_sum "Si O2"
_cell_formula_units_Z 128
_cell_length_a 17.050046
_cell_length_b 17.050046
_cell_length_c 24.467437
_cell_angle_alpha 90.000000
_cell_angle_beta 90.000000
_cell_angle_gamma 90.000000
_cell_volume 7112.783484
_symmetry_space_group_name_H-M "I 4/M"
_symmetry_group_IT_number 87
_symmetry_cell_setting 'tetragonal'
loop_
_space_group_symop_operation_xyz
x,y,z
-y,x,z
-x,-y,z
y,-x,z
-x,-y,-z
y,-x,-z
x,y,-z
-y,x,-z
1/2+x,1/2+y,1/2+z
1/2-y,1/2+x,1/2+z
1/2-x,1/2-y,1/2+z
1/2+y,1/2-x,1/2+z
1/2-x,1/2-y,1/2-z
1/2+y,1/2-x,1/2-z
1/2+x,1/2+y,1/2-z
1/2-y,1/2+x,1/2-z
loop_
_atom_site_type_symbol
_atom_site_label
_atom_site_fract_x
_atom_site_fract_y
_atom_site_fract_z
Si Si1 0.873901 0.033968 0.161217
Si Si2 0.405271 0.995106 0.439669
Si Si3 0.876104 0.410071 0.637758
Si Si4 0.761039 0.027573 0.937164
Si Si5 0.202734 0.316477 0.681183
Si Si6 0.045828 0.596563 0.782647
Si Si7 0.856420 0.313623 0.939227
Si Si8 0.632794 0.744860 0.279353
O O1 0.804834 0.057536 0.202866
O O2 0.946871 0.092644 0.167923
O O3 0.835567 0.042151 0.101232
O O4 0.381156 0.024117 0.500000
O O5 0.371668 0.050022 0.392022
O O6 0.500000 0.000000 0.438557
O O7 0.381204 0.904808 0.435871
O O8 0.812189 0.428796 0.591110
O O9 0.907480 0.490711 0.664422
O O10 0.827151 0.369535 0.686703
O O11 0.738079 0.935579 0.935594
O O12 0.772104 0.050668 0.000000
O O13 0.169884 0.400071 0.702468
O O14 0.201273 0.308934 0.616037
O O15 0.290692 0.301032 0.700172
O O16 0.146257 0.258780 0.715464
O O17 0.096488 0.518917 0.766767
O O18 0.821796 0.299981 0.000000
#
# Coordination Sequence:
#
# PCOD9545500 Si02
#       8
#    16  16  16  16  16  16  16  16
#     4  10  22  39  57  77 104 141 190 243 283 325
#     4  10  18  28  48  76 106 139 172 219 274 326
#     4  11  20  33  48  75 112 142 185 230 276 340
#     4  10  19  32  51  74 103 145 184 225 279 326
#     4  11  21  39  53  77 115 142 187 230 276 360
#     4  11  23  31  52  86 112 143 179 229 289 339
#     4  10  20  32  53  79 106 145 180 221 277 333
#     4  10  24  36  56  78 103 152 185 228 294 336
#
# _framework density 17.995767000000001
#
# number of rings (size 3 to 8) (size 9 to 14) (size 15 to 20)
#    0.000    1.625    3.750    1.125    7.000    0.500 
#    0.000    5.000    0.000    0.000    0.000    0.000 
#    0.000    0.000    0.000    1.375    0.000    0.000 
#
# Total GULP energy -356797.437406 kJ/mol
# GULP energy per Si atom -5574.959959 kJ/mol
# Density = 1.795481 g / cm^3
# Si number density = 17.995767 Si / 1000 Ang^3
#
#
#
# Elastic Constant Matrix: (Units=GPa)
#
#
# Indices 1 2 3 4 5 6 
#
# 1 48.2141 22.6434 21.7193 0.0000 0.0000 1.5458
# 2 22.6434 48.2141 21.7193 0.0000 0.0000 -1.5458
# 3 21.7193 21.7193 120.0395 0.0000 0.0000 0.0000
# 4 0.0000 0.0000 0.0000 19.5048 0.0000 0.0000
# 5 0.0000 0.0000 0.0000 0.0000 19.5048 0.0000
# 6 1.5458 -1.5458 0.0000 0.0000 0.0000 24.8737
#
#
#
# Elastic Compliance Matrix: (Units=1/GPa)
#
#
# Indices 1 2 3 4 5 6 
#
# 1 0.027638 -0.011765 -0.002872 0.000000 0.000000 -0.002449
# 2 -0.011765 0.027638 -0.002872 0.000000 0.000000 0.002449
# 3 -0.002872 -0.002872 0.009370 0.000000 0.000000 0.000000
# 4 0.000000 0.000000 0.000000 0.051269 0.000000 0.000000
# 5 0.000000 0.000000 0.000000 0.000000 0.051269 0.000000
# 6 -0.002449 0.002449 0.000000 0.000000 0.000000 0.040508
#
#
# Mechanical properties :
#
#
# Convention : Reuss Voigt Hill
#
# Bulk Modulus (GPa) = 33.75109 38.73688 36.24399
# Shear Modulus (GPa) = 19.79510 22.80235 21.29872
#
# Velocity S-wave (km/s) = 3.32020 3.56349 3.44399
# Velocity P-wave (km/s) = 5.78741 6.20512 5.99990
#
# Compressibility (1/GPa) = 0.02962867
#
# Stress axis : x y z
#
# Youngs Moduli (GPa) = 36.18145 36.18145 106.72466
#
# Poissons Ratio (x) = 0.42567 0.30652
# Poissons Ratio (y) = 0.42567 0.30652
# Poissons Ratio (z) = 0.10392 0.10392
#
# Static dielectric constant tensor:
#      x y z
#    x 1.642110 0.000000 0.000000 
#    y 0.000000 1.642110 0.000000 
#    z 0.000000 0.000000 1.672790 
# 
# From -- ./inp_files/6026.got.cif
#   From: 2010.05.17/outbox.cif.g08.bks.cpg/sg87_4_cif.got.tgz:6026.got - 2010.06.03 19:07:00.
