data_PCOD9545274
_publ_section_title
;
Structure prediction by ZEFSAII (Michael W. Deem and Ramdas Pophale) SiO2 
 PCOD9545274
Probable space group: P 42/N
;
_chemical_formula_sum "Si O2"
_cell_formula_units_Z 40
_cell_length_a 7.378600
_cell_length_b 7.378600
_cell_length_c 27.783839
_cell_angle_alpha 90.000000
_cell_angle_beta 90.000000
_cell_angle_gamma 90.000000
_cell_volume 1512.656050
_symmetry_space_group_name_H-M "P 42/N"
_symmetry_group_IT_number 86
_space_group.IT_coordinate_system_code '2'
_symmetry_cell_setting 'tetragonal'
loop_
_space_group_symop_operation_xyz
x,y,z
-y,1/2+x,1/2+z
1/2-x,1/2-y,z
1/2+y,-x,1/2+z
-x,-y,-z
y,1/2-x,1/2-z
1/2+x,1/2+y,-z
1/2-y,x,1/2-z
loop_
_atom_site_type_symbol
_atom_site_label
_atom_site_fract_x
_atom_site_fract_y
_atom_site_fract_z
Si Si1 0.880697 0.469485 0.696652
Si Si2 0.750000 0.250000 0.112569
Si Si3 0.329934 0.022269 0.162064
Si Si4 0.698485 0.463314 0.941751
Si Si5 0.750000 0.250000 0.286319
Si Si6 0.268972 0.452688 0.952176
O O1 0.887819 0.351483 0.648629
O O2 0.007926 0.649604 0.698249
O O3 0.684951 0.563337 0.685527
O O4 0.878373 0.347428 0.742948
O O5 0.841849 0.394446 0.076784
O O6 0.264744 0.049223 0.108343
O O7 0.401028 0.825356 0.170279
O O8 0.750000 0.250000 0.940839
O O9 0.482802 0.496199 0.946365
O O10 0.779231 0.538703 0.991485
O O11 0.250000 0.250000 0.933956
#
# Coordination Sequence:
#
# PCOD9545274 Si02
#       6
#     8   4   8   8   4   8
#     4  10  24  41  67  93 134 176 222 282 351 405
#     4  11  22  45  64 100 146 177 224 293 342 412
#     4  11  22  41  68  94 127 177 230 274 343 417
#     4  11  24  43  64 101 134 182 236 284 335 423
#     4  11  22  39  64  94 124 163 224 289 332 410
#     4  11  26  42  67 101 146 185 230 283 354 407
#
# _framework density 26.443553000000001
#
# number of rings (size 3 to 8) (size 9 to 14) (size 15 to 20)
#    0.000    1.200    4.000    1.200    5.600    2.400 
#    0.000    0.000    0.000    2.400    0.000    0.000 
#    0.000    0.000    0.000    0.000    0.000    0.000 
#
# Total GULP energy -222819.304622 kJ/mol
# GULP energy per Si atom -5570.482616 kJ/mol
# Density = 2.638337 g / cm^3
# Si number density = 26.443553 Si / 1000 Ang^3
#
#
#
# Elastic Constant Matrix: (Units=GPa)
#
#
# Indices 1 2 3 4 5 6 
#
# 1 100.8211 -19.1671 19.5027 0.0000 0.0000 -13.4349
# 2 -19.1671 100.8211 19.5027 0.0000 0.0000 13.4349
# 3 19.5027 19.5027 200.6400 0.0000 0.0000 0.0000
# 4 0.0000 0.0000 0.0000 0.6773 0.0000 0.0000
# 5 0.0000 0.0000 0.0000 0.0000 0.6773 0.0000
# 6 -13.4349 13.4349 0.0000 0.0000 0.0000 30.2667
#
#
#
# Elastic Compliance Matrix: (Units=1/GPa)
#
#
# Indices 1 2 3 4 5 6 
#
# 1 0.011049 0.001795 -0.001248 0.000000 0.000000 0.004108
# 2 0.001795 0.011049 -0.001248 0.000000 0.000000 -0.004108
# 3 -0.001248 -0.001248 0.005227 0.000000 0.000000 0.000000
# 4 0.000000 0.000000 0.000000 1.476483 0.000000 0.000000
# 5 0.000000 0.000000 0.000000 0.000000 1.476483 0.000000
# 6 0.004108 -0.004108 0.000000 0.000000 0.000000 0.036686
#
#
# Mechanical properties :
#
#
# Convention : Reuss Voigt Hill
#
# Bulk Modulus (GPa) = 38.58101 49.10653 43.84377
# Shear Modulus (GPa) = 1.65179 31.82050 16.73614
#
# Velocity S-wave (km/s) = 0.79120 3.47268 2.51848
# Velocity P-wave (km/s) = 3.93145 5.88982 5.00731
#
# Compressibility (1/GPa) = 0.02591949
#
# Stress axis : x y z
#
# Youngs Moduli (GPa) = 90.50937 90.50937 191.32369
#
# Poissons Ratio (x) = -0.16242 0.23885
# Poissons Ratio (y) = -0.16242 0.23885
# Poissons Ratio (z) = 0.11299 0.11299
#
# Static dielectric constant tensor:
#      x y z
#    x 2.743280 0.000000 0.000000 
#    y 0.000000 2.743280 0.000000 
#    z 0.000000 0.000000 2.056900 
# 
# From -- ./inp_files/4539.got.cif
#   From: 2010.05.17/outbox.cif.g08.bks.cpg/sg86_3_cif.got.tgz:4539.got - 2010.06.03 19:03:11.
