data_PCOD9545449
_publ_section_title
;
Structure prediction by ZEFSAII (Michael W. Deem and Ramdas Pophale) SiO2 
 PCOD9545449
Probable space group: P 42/N
;
_chemical_formula_sum "Si O2"
_cell_formula_units_Z 18
_cell_length_a 9.225718
_cell_length_b 9.225718
_cell_length_c 7.944016
_cell_angle_alpha 90.000000
_cell_angle_beta 90.000000
_cell_angle_gamma 90.000000
_cell_volume 676.145966
_symmetry_space_group_name_H-M "P 42/N"
_symmetry_group_IT_number 86
_space_group.IT_coordinate_system_code '2'
_symmetry_cell_setting 'tetragonal'
loop_
_space_group_symop_operation_xyz
x,y,z
-y,1/2+x,1/2+z
1/2-x,1/2-y,z
1/2+y,-x,1/2+z
-x,-y,-z
y,1/2-x,1/2-z
1/2+x,1/2+y,-z
1/2-y,x,1/2-z
loop_
_atom_site_type_symbol
_atom_site_label
_atom_site_fract_x
_atom_site_fract_y
_atom_site_fract_z
Si Si1 0.750000 0.750000 0.750000
Si Si2 0.094714 0.719272 0.348300
Si Si3 0.800887 0.006910 0.497912
O O1 0.804406 0.875753 0.626595
O O2 0.250000 0.750000 0.254129
O O3 0.143568 0.584718 0.462319
O O4 0.692467 0.517741 0.298571
O O5 0.082986 0.867429 0.452608
#
# Coordination Sequence:
#
# PCOD9545449 Si02
#       3
#     2   8   8
#     4  12  24  28  44  94 112 116 144 254 256 264
#     4   8  14  36  57  69  85 152 175 188 217 348
#     4   9  18  33  56  75 101 126 181 200 255 280
#
# _framework density 26.621473999999999
#
# number of rings (size 3 to 8) (size 9 to 14) (size 15 to 20)
#    2.667    0.000    4.444    0.000    0.000    3.556 
#    0.000    0.000    0.000   10.667    0.000    0.000 
#    0.000    0.000    0.000    0.000    0.000    0.000 
#
# Total GULP energy -100393.416123 kJ/mol
# GULP energy per Si atom -5577.412007 kJ/mol
# Density = 2.656088 g / cm^3
# Si number density = 26.621474 Si / 1000 Ang^3
#
#
#
# Elastic Constant Matrix: (Units=GPa)
#
#
# Indices 1 2 3 4 5 6 
#
# 1 83.3981 22.6554 12.2990 0.0000 0.0000 12.1834
# 2 22.6554 83.3981 12.2990 0.0000 0.0000 -12.1834
# 3 12.2990 12.2990 58.1988 0.0000 0.0000 0.0000
# 4 0.0000 0.0000 0.0000 35.3036 0.0000 0.0000
# 5 0.0000 0.0000 0.0000 0.0000 35.3036 0.0000
# 6 12.1834 -12.1834 0.0000 0.0000 0.0000 24.3488
#
#
#
# Elastic Compliance Matrix: (Units=1/GPa)
#
#
# Indices 1 2 3 4 5 6 
#
# 1 0.015256 -0.005341 -0.002095 0.000000 0.000000 -0.010306
# 2 -0.005341 0.015256 -0.002095 0.000000 0.000000 0.010306
# 3 -0.002095 -0.002095 0.018068 0.000000 0.000000 0.000000
# 4 0.000000 0.000000 0.000000 0.028326 0.000000 0.000000
# 5 0.000000 0.000000 0.000000 0.000000 0.028326 0.000000
# 6 -0.010306 0.010306 0.000000 0.000000 0.000000 0.051384
#
#
# Mechanical properties :
#
#
# Convention : Reuss Voigt Hill
#
# Bulk Modulus (GPa) = 33.87868 35.50019 34.68944
# Shear Modulus (GPa) = 26.95156 30.84064 28.89610
#
# Velocity S-wave (km/s) = 3.18527 3.40735 3.29818
# Velocity P-wave (km/s) = 5.12656 5.37068 5.25004
#
# Compressibility (1/GPa) = 0.02951709
#
# Stress axis : x y z
#
# Youngs Moduli (GPa) = 65.54703 65.54703 55.34620
#
# Poissons Ratio (x) = 0.35009 0.11597
# Poissons Ratio (y) = 0.35009 0.11597
# Poissons Ratio (z) = 0.13734 0.13734
#
# Static dielectric constant tensor:
#      x y z
#    x 2.150950 0.000000 0.000000 
#    y 0.000000 2.150950 0.000000 
#    z 0.000000 0.000000 1.938520 
# 
# From -- ./inp_files/1651.got.cif
#   From: 2010.05.17/outbox.cif.g08.bks.cpg/sg86_1_cif.got.tgz:1651.got - 2010.06.03 19:03:11.
