data_PCOD9545239
_publ_section_title
;
Structure prediction by ZEFSAII (Michael W. Deem and Ramdas Pophale) SiO2 
 PCOD9545239
Probable space group: P 42/N
;
_chemical_formula_sum "Si O2"
_cell_formula_units_Z 60
_cell_length_a 11.158869
_cell_length_b 11.158869
_cell_length_c 21.159594
_cell_angle_alpha 90.000000
_cell_angle_beta 90.000000
_cell_angle_gamma 90.000000
_cell_volume 2634.800206
_symmetry_space_group_name_H-M "P 42/N"
_symmetry_group_IT_number 86
_space_group.IT_coordinate_system_code '2'
_symmetry_cell_setting 'tetragonal'
loop_
_space_group_symop_operation_xyz
x,y,z
-y,1/2+x,1/2+z
1/2-x,1/2-y,z
1/2+y,-x,1/2+z
-x,-y,-z
y,1/2-x,1/2-z
1/2+x,1/2+y,-z
1/2-y,x,1/2-z
loop_
_atom_site_type_symbol
_atom_site_label
_atom_site_fract_x
_atom_site_fract_y
_atom_site_fract_z
Si Si1 0.647479 0.018485 0.627020
Si Si2 0.300265 0.435482 0.259190
Si Si3 0.417007 0.013065 0.702961
Si Si4 0.821869 0.940194 0.961518
Si Si5 0.558148 0.434108 0.440932
Si Si6 0.437107 0.151291 0.833672
Si Si7 0.250000 0.250000 0.931986
Si Si8 0.118438 0.800358 0.004519
O O1 0.743863 0.003188 0.681516
O O2 0.626077 0.888888 0.594925
O O3 0.519870 0.062476 0.655230
O O4 0.698327 0.095759 0.569904
O O5 0.380961 0.318349 0.274563
O O6 0.384016 0.527090 0.221241
O O7 0.408479 0.096585 0.765150
O O8 0.283167 0.005272 0.676061
O O9 0.693964 0.994492 0.943207
O O10 0.809331 0.848364 0.020317
O O11 0.895151 0.062869 0.974922
O O12 0.500000 0.500000 0.500000
O O13 0.553675 0.482836 0.370267
O O14 0.699547 0.452076 0.457722
O O15 0.328935 0.173791 0.882396
O O16 0.250000 0.750000 0.016003
#
# Coordination Sequence:
#
# PCOD9545239 Si02
#       8
#     8   8   8   8   8   8   4   8
#     4  11  23  42  70  97 134 179 233 288 351 427
#     4   9  22  43  63  92 131 174 234 284 339 411
#     4  11  26  44  66 100 138 192 225 294 350 424
#     4  11  24  41  69 104 137 180 232 296 370 405
#     4  11  24  45  69 106 137 184 234 296 358 427
#     4  12  25  44  70  98 147 181 243 281 355 435
#     4  12  24  41  72 102 139 188 236 304 348 432
#     4  10  23  42  66  99 140 176 224 298 359 425
#
# _framework density 22.772124000000002
#
# number of rings (size 3 to 8) (size 9 to 14) (size 15 to 20)
#    0.000    1.200    1.333    3.600    1.867    8.533 
#    0.000    4.667    0.000    0.000    0.000    0.000 
#    0.000    0.000    0.000    0.000    0.000    0.000 
#
# Total GULP energy -335137.131749 kJ/mol
# GULP energy per Si atom -5585.618862 kJ/mol
# Density = 2.272029 g / cm^3
# Si number density = 22.772124 Si / 1000 Ang^3
#
#
#
# Elastic Constant Matrix: (Units=GPa)
#
#
# Indices 1 2 3 4 5 6 
#
# 1 47.2421 22.5228 13.2133 0.0000 0.0000 6.7450
# 2 22.5228 47.2421 13.2133 0.0000 0.0000 -6.7450
# 3 13.2133 13.2133 89.6996 0.0000 0.0000 0.0000
# 4 0.0000 0.0000 0.0000 36.3906 0.0000 0.0000
# 5 0.0000 0.0000 0.0000 0.0000 36.3906 0.0000
# 6 6.7450 -6.7450 0.0000 0.0000 0.0000 19.0251
#
#
#
# Elastic Compliance Matrix: (Units=1/GPa)
#
#
# Indices 1 2 3 4 5 6 
#
# 1 0.032670 -0.017489 -0.002236 0.000000 0.000000 -0.017783
# 2 -0.017489 0.032670 -0.002236 0.000000 0.000000 0.017783
# 3 -0.002236 -0.002236 0.011807 0.000000 0.000000 0.000000
# 4 0.000000 0.000000 0.000000 0.027480 0.000000 0.000000
# 5 0.000000 0.000000 0.000000 0.000000 0.027480 0.000000
# 6 -0.017783 0.017783 0.000000 0.000000 0.000000 0.065171
#
#
# Mechanical properties :
#
#
# Convention : Reuss Voigt Hill
#
# Bulk Modulus (GPa) = 30.09869 31.34252 30.72060
# Shear Modulus (GPa) = 19.81963 27.37685 23.59824
#
# Velocity S-wave (km/s) = 2.95336 3.47105 3.22262
# Velocity P-wave (km/s) = 4.98757 5.46422 5.23132
#
# Compressibility (1/GPa) = 0.03322404
#
# Stress axis : x y z
#
# Youngs Moduli (GPa) = 30.60925 30.60925 84.69441
#
# Poissons Ratio (x) = 0.53532 0.18940
# Poissons Ratio (y) = 0.53532 0.18940
# Poissons Ratio (z) = 0.06845 0.06845
#
# Static dielectric constant tensor:
#      x y z
#    x 1.889330 0.000000 0.000000 
#    y 0.000000 1.889330 0.000000 
#    z 0.000000 0.000000 1.867290 
# 
# From -- ./inp_files/4263.got.cif
#   From: 2010.05.17/outbox.cif.g08.bks.cpg/sg86_3_cif.got.tgz:4263.got - 2010.06.03 19:03:11.
