data_PCOD9545211
_publ_section_title
;
Structure prediction by ZEFSAII (Michael W. Deem and Ramdas Pophale) SiO2 
 PCOD9545211
Probable space group: P 42/N
;
_chemical_formula_sum "Si O2"
_cell_formula_units_Z 48
_cell_length_a 13.391150
_cell_length_b 13.391150
_cell_length_c 12.848849
_cell_angle_alpha 90.000000
_cell_angle_beta 90.000000
_cell_angle_gamma 90.000000
_cell_volume 2304.092843
_symmetry_space_group_name_H-M "P 42/N"
_symmetry_group_IT_number 86
_space_group.IT_coordinate_system_code '2'
_symmetry_cell_setting 'tetragonal'
loop_
_space_group_symop_operation_xyz
x,y,z
-y,1/2+x,1/2+z
1/2-x,1/2-y,z
1/2+y,-x,1/2+z
-x,-y,-z
y,1/2-x,1/2-z
1/2+x,1/2+y,-z
1/2-y,x,1/2-z
loop_
_atom_site_type_symbol
_atom_site_label
_atom_site_fract_x
_atom_site_fract_y
_atom_site_fract_z
Si Si1 0.535715 0.751517 0.001384
Si Si2 0.794111 0.886823 0.940273
Si Si3 0.867766 0.589409 0.110630
Si Si4 0.750000 0.750000 0.250000
Si Si5 0.371493 0.598444 0.087152
Si Si6 0.750000 0.250000 0.038455
Si Si7 0.750000 0.750000 0.750000
Si Si8 0.581965 0.138321 0.165913
O O1 0.537940 0.840250 0.085086
O O2 0.463543 0.663987 0.042983
O O3 0.644364 0.702379 0.993864
O O4 0.510657 0.805847 0.891414
O O5 0.768390 0.844593 0.826094
O O6 0.866525 0.982690 0.943484
O O7 0.697200 0.917157 0.005196
O O8 0.798397 0.654702 0.188871
O O9 0.903236 0.479095 0.140671
O O10 0.281829 0.659024 0.034709
O O11 0.358186 0.593270 0.210681
O O12 0.667497 0.203960 0.112702
#
# Coordination Sequence:
#
# PCOD9545211 Si02
#       8
#     8   8   8   2   8   4   2   8
#     4  11  23  45  63 100 138 170 221 287 327 399
#     4  12  23  43  68  97 135 175 223 278 335 397
#     4  12  23  43  68  97 135 175 223 278 335 397
#     4  12  22  40  72  98 140 180 230 276 336 406
#     4  11  24  42  67  97 132 176 228 266 342 403
#     4  10  22  44  66  92 138 172 212 288 324 402
#     4  12  22  40  72  98 140 180 230 276 336 406
#     4  11  24  42  67  97 132 176 228 266 342 403
#
# _framework density 20.832495000000002
#
# number of rings (size 3 to 8) (size 9 to 14) (size 15 to 20)
#    0.000    0.667    5.000    3.500    0.000    0.000 
#    0.000    0.000    0.000    0.000    0.000    0.000 
#    0.000    0.000    0.000    0.000    0.000    0.000 
#
# Total GULP energy -267695.085598 kJ/mol
# GULP energy per Si atom -5576.980950 kJ/mol
# Density = 2.078508 g / cm^3
# Si number density = 20.832495 Si / 1000 Ang^3
#
#
#
# Elastic Constant Matrix: (Units=GPa)
#
#
# Indices 1 2 3 4 5 6 
#
# 1 85.1329 17.8946 17.2406 0.0000 0.0000 -0.2664
# 2 17.8946 85.1329 17.2406 0.0000 0.0000 0.2664
# 3 17.2406 17.2406 70.6081 0.0000 0.0000 0.0000
# 4 0.0000 0.0000 0.0000 13.6558 0.0000 0.0000
# 5 0.0000 0.0000 0.0000 0.0000 13.6558 0.0000
# 6 -0.2664 0.2664 0.0000 0.0000 0.0000 28.9082
#
#
#
# Elastic Compliance Matrix: (Units=1/GPa)
#
#
# Indices 1 2 3 4 5 6 
#
# 1 0.012722 -0.002152 -0.002581 0.000000 0.000000 0.000137
# 2 -0.002152 0.012722 -0.002581 0.000000 0.000000 -0.000137
# 3 -0.002581 -0.002581 0.015423 0.000000 0.000000 0.000000
# 4 0.000000 0.000000 0.000000 0.073229 0.000000 0.000000
# 5 0.000000 0.000000 0.000000 0.000000 0.073229 0.000000
# 6 0.000137 -0.000137 0.000000 0.000000 0.000000 0.034595
#
#
# Mechanical properties :
#
#
# Convention : Reuss Voigt Hill
#
# Bulk Modulus (GPa) = 38.11075 38.40285 38.25680
# Shear Modulus (GPa) = 20.38381 23.81051 22.09716
#
# Velocity S-wave (km/s) = 3.13143 3.38442 3.26038
# Velocity P-wave (km/s) = 5.60429 5.80918 5.70766
#
# Compressibility (1/GPa) = 0.02623931
#
# Stress axis : x y z
#
# Youngs Moduli (GPa) = 78.60561 78.60561 64.83801
#
# Poissons Ratio (x) = 0.16915 0.16734
# Poissons Ratio (y) = 0.16915 0.16734
# Poissons Ratio (z) = 0.20287 0.20287
#
# Static dielectric constant tensor:
#      x y z
#    x 1.832020 0.000000 0.000000 
#    y 0.000000 1.832020 0.000000 
#    z 0.000000 0.000000 1.752220 
# 
# From -- ./inp_files/2340.got.cif
#   From: 2010.05.17/outbox.cif.g08.bks.cpg/sg86_2_cif.got.tgz:2340.got - 2010.06.03 19:03:11.
