data_PCOD9545895
_publ_section_title
;
Structure prediction by ZEFSAII (Michael W. Deem and Ramdas Pophale) SiO2 
 PCOD9545895
Probable space group: I 4/M
;
_chemical_formula_sum "Si O2"
_cell_formula_units_Z 108
_cell_length_a 14.593965
_cell_length_b 14.593965
_cell_length_c 26.390760
_cell_angle_alpha 90.000000
_cell_angle_beta 90.000000
_cell_angle_gamma 90.000000
_cell_volume 5620.804730
_symmetry_space_group_name_H-M "I 4/M"
_symmetry_group_IT_number 87
_symmetry_cell_setting 'tetragonal'
loop_
_space_group_symop_operation_xyz
x,y,z
-y,x,z
-x,-y,z
y,-x,z
-x,-y,-z
y,-x,-z
x,y,-z
-y,x,-z
1/2+x,1/2+y,1/2+z
1/2-y,1/2+x,1/2+z
1/2-x,1/2-y,1/2+z
1/2+y,1/2-x,1/2+z
1/2-x,1/2-y,1/2-z
1/2+y,1/2-x,1/2-z
1/2+x,1/2+y,1/2-z
1/2-y,1/2+x,1/2-z
loop_
_atom_site_type_symbol
_atom_site_label
_atom_site_fract_x
_atom_site_fract_y
_atom_site_fract_z
Si Si1 0.423491 0.919052 0.558645
Si Si2 0.780689 0.427748 0.560445
Si Si3 0.802846 0.154110 0.246275
Si Si4 0.300650 0.480930 0.808486
Si Si5 0.939490 0.287053 0.591725
Si Si6 0.500000 0.500000 0.154488
Si Si7 0.924040 0.865875 0.857550
Si Si8 0.647034 0.544789 0.000000
O O1 0.396251 0.907383 0.500000
O O2 0.474502 0.827000 0.575810
O O3 0.500000 0.000000 0.559646
O O4 0.338274 0.962190 0.587415
O O5 0.768119 0.428749 0.500000
O O6 0.858088 0.353582 0.574296
O O7 0.689109 0.406723 0.590847
O O8 0.750000 0.250000 0.250000
O O9 0.907472 0.168979 0.266112
O O10 0.808807 0.115601 0.189481
O O11 0.762777 0.072122 0.281279
O O12 0.239064 0.430433 0.849812
O O13 0.388986 0.514109 0.840194
O O14 0.939736 0.205667 0.550758
O O15 0.033368 0.880444 0.854627
O O16 0.558700 0.609646 0.000000
#
# Coordination Sequence:
#
# PCOD9545895 Si02
#       8
#    16  16  16  16  16   4  16   8
#     4   8  15  33  60  84 118 165 208 254 317 379
#     4  10  21  41  66  96 128 169 223 271 324 403
#     4  11  22  42  65  92 123 166 220 271 329 400
#     4  10  22  36  64  91 117 159 215 263 317 390
#     4  11  20  40  61  91 128 171 216 272 326 393
#     4   8  20  36  56  81 112 152 201 248 296 372
#     4  11  24  43  67  92 132 173 212 273 347 401
#     4  11  26  38  53  86 134 173 206 261 327 389
#
# _framework density 19.21433
#
# number of rings (size 3 to 8) (size 9 to 14) (size 15 to 20)
#    0.000    1.852    2.963    1.778    4.148    1.778 
#    2.667    0.741    0.000    0.000    0.000    0.000 
#    0.000    0.000    0.000    0.000    0.000    0.000 
#
# Total GULP energy -300626.362367 kJ/mol
# GULP energy per Si atom -5567.154859 kJ/mol
# Density = 1.917060 g / cm^3
# Si number density = 19.214330 Si / 1000 Ang^3
#
#
#
# Elastic Constant Matrix: (Units=GPa)
#
#
# Indices 1 2 3 4 5 6 
#
# 1 59.1302 7.0082 19.8744 0.0000 0.0000 4.2609
# 2 7.0082 59.1302 19.8744 0.0000 0.0000 -4.2609
# 3 19.8744 19.8744 87.2174 0.0000 0.0000 0.0000
# 4 0.0000 0.0000 0.0000 23.0592 0.0000 0.0000
# 5 0.0000 0.0000 0.0000 0.0000 23.0592 0.0000
# 6 4.2609 -4.2609 0.0000 0.0000 0.0000 21.4775
#
#
#
# Elastic Compliance Matrix: (Units=1/GPa)
#
#
# Indices 1 2 3 4 5 6 
#
# 1 0.018674 -0.001155 -0.003992 0.000000 0.000000 -0.003934
# 2 -0.001155 0.018674 -0.003992 0.000000 0.000000 0.003934
# 3 -0.003992 -0.003992 0.013285 0.000000 0.000000 0.000000
# 4 0.000000 0.000000 0.000000 0.043367 0.000000 0.000000
# 5 0.000000 0.000000 0.000000 0.000000 0.043367 0.000000
# 6 -0.003934 0.003934 0.000000 0.000000 0.000000 0.048121
#
#
# Mechanical properties :
#
#
# Convention : Reuss Voigt Hill
#
# Bulk Modulus (GPa) = 30.90746 33.22132 32.06439
# Shear Modulus (GPa) = 23.30451 24.10055 23.70253
#
# Velocity S-wave (km/s) = 3.48641 3.54545 3.51605
# Velocity P-wave (km/s) = 5.68571 5.83847 5.76259
#
# Compressibility (1/GPa) = 0.03235465
#
# Stress axis : x y z
#
# Youngs Moduli (GPa) = 53.55046 53.55046 75.27296
#
# Poissons Ratio (x) = 0.06185 0.30050
# Poissons Ratio (y) = 0.06185 0.30050
# Poissons Ratio (z) = 0.21378 0.21378
#
# Static dielectric constant tensor:
#      x y z
#    x 1.691470 0.000000 0.000000 
#    y 0.000000 1.691470 0.000000 
#    z 0.000000 0.000000 1.667510 
# 
# From -- ./inp_files/5954.got.cif
#   From: 2010.05.17/outbox.cif.g08.bks.cpg/sg87_3_cif.got.tgz:5954.got - 2010.06.03 19:07:00.
