data_PCOD9545890
_publ_section_title
;
Structure prediction by ZEFSAII (Michael W. Deem and Ramdas Pophale) SiO2 
 PCOD9545890
Probable space group: I 4/M
;
_chemical_formula_sum "Si O2"
_cell_formula_units_Z 72
_cell_length_a 17.524648
_cell_length_b 17.524648
_cell_length_c 11.238492
_cell_angle_alpha 90.000000
_cell_angle_beta 90.000000
_cell_angle_gamma 90.000000
_cell_volume 3451.490225
_symmetry_space_group_name_H-M "I 4/M"
_symmetry_group_IT_number 87
_symmetry_cell_setting 'tetragonal'
loop_
_space_group_symop_operation_xyz
x,y,z
-y,x,z
-x,-y,z
y,-x,z
-x,-y,-z
y,-x,-z
x,y,-z
-y,x,-z
1/2+x,1/2+y,1/2+z
1/2-y,1/2+x,1/2+z
1/2-x,1/2-y,1/2+z
1/2+y,1/2-x,1/2+z
1/2-x,1/2-y,1/2-z
1/2+y,1/2-x,1/2-z
1/2+x,1/2+y,1/2-z
1/2-y,1/2+x,1/2-z
loop_
_atom_site_type_symbol
_atom_site_label
_atom_site_fract_x
_atom_site_fract_y
_atom_site_fract_z
Si Si1 0.886180 0.954291 0.642857
Si Si2 0.762685 0.151029 0.000000
Si Si3 0.591305 0.261025 0.500000
Si Si4 0.443133 0.777314 0.246383
Si Si5 0.822700 0.743656 0.500000
Si Si6 0.202540 0.611351 0.758486
O O1 0.889835 0.953534 0.500000
O O2 0.801182 0.929794 0.676203
O O3 0.958581 0.903865 0.684244
O O4 0.740794 0.117810 0.128246
O O5 0.853500 0.166161 0.000000
O O6 0.725547 0.236736 0.000000
O O7 0.546313 0.252747 0.380549
O O8 0.652100 0.191351 0.500000
O O9 0.523271 0.815480 0.211880
O O10 0.371829 0.834554 0.245930
O O11 0.861229 0.754718 0.371231
#
# Coordination Sequence:
#
# PCOD9545890 Si02
#       6
#    16   8   8  16   8  16
#     4   9  21  41  62  92 129 162 208 276 339 388
#     4  10  21  40  69  92 128 170 219 276 331 374
#     4   8  21  41  57  86 132 161 207 272 324 375
#     4  11  24  41  63  94 129 175 217 269 324 397
#     4   8  20  37  60  92 126 154 215 285 305 363
#     4  11  24  40  64  96 132 175 220 267 329 390
#
# _framework density 20.860555000000002
#
# number of rings (size 3 to 8) (size 9 to 14) (size 15 to 20)
#    0.667    1.556    0.000    2.000    6.222    0.444 
#    0.000    0.000    0.000    6.667    0.000    0.000 
#    0.000    0.000    0.000    0.000    0.000    0.000 
#
# Total GULP energy -200470.597280 kJ/mol
# GULP energy per Si atom -5568.627702 kJ/mol
# Density = 2.081308 g / cm^3
# Si number density = 20.860555 Si / 1000 Ang^3
#
#
#
# Elastic Constant Matrix: (Units=GPa)
#
#
# Indices 1 2 3 4 5 6 
#
# 1 99.4589 34.1747 12.7860 0.0000 0.0000 5.1558
# 2 34.1747 99.4589 12.7860 0.0000 0.0000 -5.1558
# 3 12.7860 12.7860 103.4311 0.0000 0.0000 0.0000
# 4 0.0000 0.0000 0.0000 46.0872 0.0000 0.0000
# 5 0.0000 0.0000 0.0000 0.0000 46.0872 0.0000
# 6 5.1558 -5.1558 0.0000 0.0000 0.0000 28.4297
#
#
#
# Elastic Compliance Matrix: (Units=1/GPa)
#
#
# Indices 1 2 3 4 5 6 
#
# 1 0.011717 -0.004052 -0.000947 0.000000 0.000000 -0.002860
# 2 -0.004052 0.011717 -0.000947 0.000000 0.000000 0.002860
# 3 -0.000947 -0.000947 0.009903 0.000000 0.000000 0.000000
# 4 0.000000 0.000000 0.000000 0.021698 0.000000 0.000000
# 5 0.000000 0.000000 0.000000 0.000000 0.021698 0.000000
# 6 -0.002860 0.002860 0.000000 0.000000 0.000000 0.036212
#
#
# Mechanical properties :
#
#
# Convention : Reuss Voigt Hill
#
# Bulk Modulus (GPa) = 46.63840 46.87137 46.75489
# Shear Modulus (GPa) = 37.88281 40.29431 39.08856
#
# Velocity S-wave (km/s) = 4.26608 4.39977 4.33344
# Velocity P-wave (km/s) = 6.83167 6.95186 6.89202
#
# Compressibility (1/GPa) = 0.02144156
#
# Stress axis : x y z
#
# Youngs Moduli (GPa) = 85.34683 85.34683 100.98438
#
# Poissons Ratio (x) = 0.34586 0.09568
# Poissons Ratio (y) = 0.34586 0.09568
# Poissons Ratio (z) = 0.08086 0.08086
#
# Static dielectric constant tensor:
#      x y z
#    x 1.764110 0.000000 0.000000 
#    y 0.000000 1.764110 0.000000 
#    z 0.000000 0.000000 1.788810 
# 
# From -- ./inp_files/2498.got.cif
#   From: 2010.05.17/outbox.cif.g08.bks.cpg/sg87_2_cif.got.tgz:2498.got - 2010.06.03 19:07:00.
