data_PCOD9545557
_publ_section_title
;
Structure prediction by ZEFSAII (Michael W. Deem and Ramdas Pophale) SiO2 
 PCOD9545557
Probable space group: I 4/M
;
_chemical_formula_sum "Si O2"
_cell_formula_units_Z 128
_cell_length_a 20.491966
_cell_length_b 20.491966
_cell_length_c 20.568752
_cell_angle_alpha 90.000000
_cell_angle_beta 90.000000
_cell_angle_gamma 90.000000
_cell_volume 8637.244132
_symmetry_space_group_name_H-M "I 4/M"
_symmetry_group_IT_number 87
_symmetry_cell_setting 'tetragonal'
loop_
_space_group_symop_operation_xyz
x,y,z
-y,x,z
-x,-y,z
y,-x,z
-x,-y,-z
y,-x,-z
x,y,-z
-y,x,-z
1/2+x,1/2+y,1/2+z
1/2-y,1/2+x,1/2+z
1/2-x,1/2-y,1/2+z
1/2+y,1/2-x,1/2+z
1/2-x,1/2-y,1/2-z
1/2+y,1/2-x,1/2-z
1/2+x,1/2+y,1/2-z
1/2-y,1/2+x,1/2-z
loop_
_atom_site_type_symbol
_atom_site_label
_atom_site_fract_x
_atom_site_fract_y
_atom_site_fract_z
Si Si1 0.645564 0.258586 0.729323
Si Si2 0.859870 0.345170 0.422323
Si Si3 0.820488 0.457305 0.225621
Si Si4 0.444790 0.736563 0.850962
Si Si5 0.015976 0.425902 0.922355
Si Si6 0.021368 0.895684 0.577933
Si Si7 0.428965 0.856533 0.677104
Si Si8 0.762738 0.343929 0.692243
O O1 0.595122 0.280513 0.785110
O O2 0.606712 0.213577 0.678053
O O3 0.690075 0.315131 0.698834
O O4 0.692705 0.207778 0.767592
O O5 0.849842 0.342064 0.500000
O O6 0.900333 0.283369 0.395781
O O7 0.901858 0.410623 0.406858
O O8 0.793677 0.347656 0.379716
O O9 0.777468 0.492026 0.170857
O O10 0.852343 0.515504 0.267391
O O11 0.875933 0.410732 0.196583
O O12 0.775349 0.412729 0.272266
O O13 0.464036 0.671680 0.887935
O O14 0.000000 0.500000 0.900570
O O15 0.965383 0.377803 0.887842
O O16 0.008932 0.423959 0.000000
O O17 0.022905 0.888050 0.500000
O O18 0.950905 0.925533 0.595122
#
# Coordination Sequence:
#
# PCOD9545557 Si02
#       8
#    16  16  16  16  16  16  16  16
#     4   8  18  30  48  67  97 120 151 200 246 276
#     4  10  19  32  49  69  95 129 166 198 232 290
#     4  10  20  28  49  72  96 125 160 197 245 289
#     4  10  19  31  48  74  94 124 162 199 243 285
#     4  10  20  31  46  66  97 133 157 190 235 281
#     4   9  19  35  52  70  96 129 163 201 245 293
#     4  10  19  32  45  71  95 126 161 197 239 290
#     4   9  16  33  47  68  94 123 155 197 239 291
#
# _framework density 14.819542
#
# number of rings (size 3 to 8) (size 9 to 14) (size 15 to 20)
#    0.000    2.500    1.250    2.250    3.500    0.000 
#    0.000    1.250    0.000    0.000    0.000    0.000 
#    0.000    0.000    0.000    0.000    0.000   13.250 
#
# Total GULP energy -356593.716827 kJ/mol
# GULP energy per Si atom -5571.776825 kJ/mol
# Density = 1.478581 g / cm^3
# Si number density = 14.819542 Si / 1000 Ang^3
#
#
#
# Elastic Constant Matrix: (Units=GPa)
#
#
# Indices 1 2 3 4 5 6 
#
# 1 84.7589 48.0083 36.5427 0.0000 0.0000 6.7874
# 2 48.0083 84.7589 36.5427 0.0000 0.0000 -6.7874
# 3 36.5427 36.5427 51.3508 0.0000 0.0000 0.0000
# 4 0.0000 0.0000 0.0000 24.2084 0.0000 0.0000
# 5 0.0000 0.0000 0.0000 0.0000 24.2084 0.0000
# 6 6.7874 -6.7874 0.0000 0.0000 0.0000 27.7160
#
#
#
# Elastic Compliance Matrix: (Units=1/GPa)
#
#
# Indices 1 2 3 4 5 6 
#
# 1 0.021150 -0.008767 -0.008812 0.000000 0.000000 -0.007326
# 2 -0.008767 0.021150 -0.008812 0.000000 0.000000 0.007326
# 3 -0.008812 -0.008812 0.032016 0.000000 0.000000 0.000000
# 4 0.000000 0.000000 0.000000 0.041308 0.000000 0.000000
# 5 0.000000 0.000000 0.000000 0.000000 0.041308 0.000000
# 6 -0.007326 0.007326 0.000000 0.000000 0.000000 0.039669
#
#
# Mechanical properties :
#
#
# Convention : Reuss Voigt Hill
#
# Bulk Modulus (GPa) = 46.43958 51.45064 48.94511
# Shear Modulus (GPa) = 19.48873 21.87823 20.68348
#
# Velocity S-wave (km/s) = 3.63032 3.84645 3.73995
# Velocity P-wave (km/s) = 6.99836 7.38379 7.19366
#
# Compressibility (1/GPa) = 0.02153335
#
# Stress axis : x y z
#
# Youngs Moduli (GPa) = 47.28207 47.28207 31.23483
#
# Poissons Ratio (x) = 0.41452 0.27524
# Poissons Ratio (y) = 0.41452 0.27524
# Poissons Ratio (z) = 0.41665 0.41665
#
# Static dielectric constant tensor:
#      x y z
#    x 1.488690 0.000000 0.000000 
#    y 0.000000 1.488690 0.000000 
#    z 0.000000 0.000000 1.482050 
# 
# From -- ./inp_files/4727.got.cif
#   From: 2010.05.17/outbox.cif.g08.bks.cpg/sg87_3_cif.got.tgz:4727.got - 2010.06.03 19:07:00.
