data_PCOD9545156
_publ_section_title
;
Structure prediction by ZEFSAII (Michael W. Deem and Ramdas Pophale) SiO2 
 PCOD9545156
Probable space group: P 42/N
;
_chemical_formula_sum "Si O2"
_cell_formula_units_Z 28
_cell_length_a 8.727154
_cell_length_b 8.727154
_cell_length_c 17.780653
_cell_angle_alpha 90.000000
_cell_angle_beta 90.000000
_cell_angle_gamma 90.000000
_cell_volume 1354.231732
_symmetry_space_group_name_H-M "P 42/N"
_symmetry_group_IT_number 86
_space_group.IT_coordinate_system_code '2'
_symmetry_cell_setting 'tetragonal'
loop_
_space_group_symop_operation_xyz
x,y,z
-y,1/2+x,1/2+z
1/2-x,1/2-y,z
1/2+y,-x,1/2+z
-x,-y,-z
y,1/2-x,1/2-z
1/2+x,1/2+y,-z
1/2-y,x,1/2-z
loop_
_atom_site_type_symbol
_atom_site_label
_atom_site_fract_x
_atom_site_fract_y
_atom_site_fract_z
Si Si1 0.835799 0.411043 0.735441
Si Si2 0.750000 0.750000 0.988884
Si Si3 0.217404 0.083041 0.870009
Si Si4 0.042190 0.413827 0.132042
O O1 0.750000 0.250000 0.735791
O O2 0.725637 0.524502 0.690686
O O3 0.868136 0.460177 0.819999
O O4 0.988129 0.391229 0.684854
O O5 0.867343 0.652633 0.938759
O O6 0.836909 0.865767 0.046616
O O7 0.250000 0.250000 0.835123
O O8 0.373682 0.985398 0.882470
#
# Coordination Sequence:
#
# PCOD9545156 Si02
#       4
#     8   4   8   8
#     4  10  23  38  63  94 123 165 215 273 318 382
#     4  10  22  39  61  88 130 168 208 272 322 384
#     4   9  23  38  61  89 125 165 214 262 324 389
#     4  11  21  40  62  91 125 164 216 266 326 380
#
# _framework density 20.675927999999999
#
# number of rings (size 3 to 8) (size 9 to 14) (size 15 to 20)
#    0.857    1.143    0.000    2.571    8.000    1.143 
#    0.000    4.286    0.000    0.000    0.000    0.000 
#    0.000    0.000    0.000    0.000    0.000    0.000 
#
# Total GULP energy -156129.387016 kJ/mol
# GULP energy per Si atom -5576.049536 kJ/mol
# Density = 2.062887 g / cm^3
# Si number density = 20.675928 Si / 1000 Ang^3
#
#
#
# Elastic Constant Matrix: (Units=GPa)
#
#
# Indices 1 2 3 4 5 6 
#
# 1 59.5877 8.6726 24.3262 0.0000 0.0000 1.6845
# 2 8.6726 59.5877 24.3262 0.0000 0.0000 -1.6845
# 3 24.3262 24.3262 119.5412 0.0000 0.0000 0.0000
# 4 0.0000 0.0000 0.0000 -299.8830 0.0000 0.0000
# 5 0.0000 0.0000 0.0000 0.0000 -299.8830 0.0000
# 6 1.6845 -1.6845 0.0000 0.0000 0.0000 17.7070
#
#
#
# Elastic Compliance Matrix: (Units=1/GPa)
#
#
# Indices 1 2 3 4 5 6 
#
# 1 0.018450 -0.001315 -0.003487 0.000000 0.000000 -0.001880
# 2 -0.001315 0.018450 -0.003487 0.000000 0.000000 0.001880
# 3 -0.003487 -0.003487 0.009784 0.000000 0.000000 0.000000
# 4 0.000000 0.000000 0.000000 -0.003335 0.000000 0.000000
# 5 0.000000 0.000000 0.000000 0.000000 -0.003335 0.000000
# 6 -0.001880 0.001880 0.000000 0.000000 0.000000 0.056832
#
#
# Mechanical properties :
#
#
# Convention : Reuss Voigt Hill
#
# Bulk Modulus (GPa) = 33.21489 39.26294 36.23892
# Shear Modulus (GPa) = 40.49862 -104.31901 -31.91019
#
# Velocity S-wave (km/s) = 4.43056 -7.11083 -3.93281
# Velocity P-wave (km/s) = 6.50173 6.95612 1.74858
#
# Compressibility (1/GPa) = 0.03010698
#
# Stress axis : x y z
#
# Youngs Moduli (GPa) = 54.20041 54.20041 102.20278
#
# Poissons Ratio (x) = 0.07127 0.35637
# Poissons Ratio (y) = 0.07127 0.35637
# Poissons Ratio (z) = 0.18899 0.18899
#
# Static dielectric constant tensor:
#      x y z
#    x 1.786070 0.000000 0.000000 
#    y 0.000000 1.786070 0.000000 
#    z 0.000000 0.000000 1.728920 
# 
# From -- ./inp_files/3266.got.cif
#   From: 2010.05.17/outbox.cif.g08.bks.cpg/sg86_2_cif.got.tgz:3266.got - 2010.06.03 19:03:11.
