data_PCOD9545407
_publ_section_title
;
Structure prediction by ZEFSAII (Michael W. Deem and Ramdas Pophale) SiO2 
 PCOD9545407
Probable space group: P 42/N
;
_chemical_formula_sum "Si O2"
_cell_formula_units_Z 40
_cell_length_a 14.242497
_cell_length_b 14.242497
_cell_length_c 7.179245
_cell_angle_alpha 90.000000
_cell_angle_beta 90.000000
_cell_angle_gamma 90.000000
_cell_volume 1456.300665
_symmetry_space_group_name_H-M "P 42/N"
_symmetry_group_IT_number 86
_space_group.IT_coordinate_system_code '2'
_symmetry_cell_setting 'tetragonal'
loop_
_space_group_symop_operation_xyz
x,y,z
-y,1/2+x,1/2+z
1/2-x,1/2-y,z
1/2+y,-x,1/2+z
-x,-y,-z
y,1/2-x,1/2-z
1/2+x,1/2+y,-z
1/2-y,x,1/2-z
loop_
_atom_site_type_symbol
_atom_site_label
_atom_site_fract_x
_atom_site_fract_y
_atom_site_fract_z
Si Si1 0.863050 0.834211 0.256525
Si Si2 0.656648 0.313039 0.888144
Si Si3 0.021834 0.707693 0.875305
Si Si4 0.089958 0.976535 0.871726
Si Si5 0.880592 0.535627 0.889695
O O1 0.851106 0.738235 0.145402
O O2 0.947169 0.843575 0.401936
O O3 0.862635 0.923321 0.125400
O O4 0.750000 0.250000 0.894695
O O5 0.561690 0.254214 0.932426
O O6 0.651580 0.391464 0.052170
O O7 0.665725 0.381070 0.711101
O O8 0.943978 0.627592 0.857396
O O9 0.983417 0.793877 0.749091
O O10 0.050970 0.947972 0.667959
O O11 0.000000 0.000000 0.000000
#
# Coordination Sequence:
#
# PCOD9545407 Si02
#       5
#     8   8   8   8   8
#     4  11  27  45  73 106 148 196 253 316 375 461
#     4  11  25  46  72 108 146 197 244 312 387 460
#     4  11  26  46  75 108 150 195 254 318 382 475
#     4  11  24  48  75 104 152 194 247 319 385 465
#     4  11  26  44  74 109 142 201 247 310 397 449
#
# _framework density 27.466857000000001
#
# number of rings (size 3 to 8) (size 9 to 14) (size 15 to 20)
#    0.000    1.000    2.000    2.400    5.600   10.000 
#    3.600    0.000    0.000    0.000    0.000    0.000 
#    0.000    0.000    0.000    0.000    0.000    0.000 
#
# Total GULP energy -223938.883398 kJ/mol
# GULP energy per Si atom -5598.472085 kJ/mol
# Density = 2.740434 g / cm^3
# Si number density = 27.466857 Si / 1000 Ang^3
#
#
#
# Elastic Constant Matrix: (Units=GPa)
#
#
# Indices 1 2 3 4 5 6 
#
# 1 147.0380 39.4814 22.6312 0.0000 0.0000 -0.7842
# 2 39.4814 147.0380 22.6312 0.0000 0.0000 0.7842
# 3 22.6312 22.6312 94.1962 0.0000 0.0000 0.0000
# 4 0.0000 0.0000 0.0000 45.8638 0.0000 0.0000
# 5 0.0000 0.0000 0.0000 0.0000 45.8638 0.0000
# 6 -0.7842 0.7842 0.0000 0.0000 0.0000 54.4557
#
#
#
# Elastic Compliance Matrix: (Units=1/GPa)
#
#
# Indices 1 2 3 4 5 6 
#
# 1 0.007496 -0.001803 -0.001368 0.000000 0.000000 0.000134
# 2 -0.001803 0.007496 -0.001368 0.000000 0.000000 -0.000134
# 3 -0.001368 -0.001368 0.011273 0.000000 0.000000 0.000000
# 4 0.000000 0.000000 0.000000 0.021804 0.000000 0.000000
# 5 0.000000 0.000000 0.000000 0.000000 0.021804 0.000000
# 6 0.000134 -0.000134 0.000000 0.000000 0.000000 0.018367
#
#
# Mechanical properties :
#
#
# Convention : Reuss Voigt Hill
#
# Bulk Modulus (GPa) = 58.17805 61.97334 60.07569
# Shear Modulus (GPa) = 48.52111 49.47188 48.99650
#
# Velocity S-wave (km/s) = 4.20757 4.24860 4.22814
# Velocity P-wave (km/s) = 6.69568 6.83223 6.76430
#
# Compressibility (1/GPa) = 0.01718861
#
# Stress axis : x y z
#
# Youngs Moduli (GPa) = 133.39832 133.39832 88.70429
#
# Poissons Ratio (x) = 0.24052 0.12133
# Poissons Ratio (y) = 0.24052 0.12133
# Poissons Ratio (z) = 0.18247 0.18247
#
# Static dielectric constant tensor:
#      x y z
#    x 2.192410 0.000000 0.000000 
#    y 0.000000 2.192410 0.000000 
#    z 0.000000 0.000000 2.243990 
# 
# From -- ./inp_files/1141.got.cif
#   From: 2010.05.17/outbox.cif.g08.bks.cpg/sg86_1_cif.got.tgz:1141.got - 2010.06.03 19:03:11.
