data_PCOD9545810
_publ_section_title
;
Structure prediction by ZEFSAII (Michael W. Deem and Ramdas Pophale) SiO2 
 PCOD9545810
Probable space group: I 4/M
;
_chemical_formula_sum "Si O2"
_cell_formula_units_Z 112
_cell_length_a 15.273933
_cell_length_b 15.273933
_cell_length_c 24.647370
_cell_angle_alpha 90.000000
_cell_angle_beta 90.000000
_cell_angle_gamma 90.000000
_cell_volume 5750.059611
_symmetry_space_group_name_H-M "I 4/M"
_symmetry_group_IT_number 87
_symmetry_cell_setting 'tetragonal'
loop_
_space_group_symop_operation_xyz
x,y,z
-y,x,z
-x,-y,z
y,-x,z
-x,-y,-z
y,-x,-z
x,y,-z
-y,x,-z
1/2+x,1/2+y,1/2+z
1/2-y,1/2+x,1/2+z
1/2-x,1/2-y,1/2+z
1/2+y,1/2-x,1/2+z
1/2-x,1/2-y,1/2-z
1/2+y,1/2-x,1/2-z
1/2+x,1/2+y,1/2-z
1/2-y,1/2+x,1/2-z
loop_
_atom_site_type_symbol
_atom_site_label
_atom_site_fract_x
_atom_site_fract_y
_atom_site_fract_z
Si Si1 0.524214 0.137617 0.758096
Si Si2 0.151896 0.784534 0.761572
Si Si3 0.475398 0.233993 0.870406
Si Si4 0.193898 0.157409 0.638494
Si Si5 0.814630 0.162404 0.124864
Si Si6 0.433218 0.067562 0.062184
Si Si7 0.514566 0.266252 0.437007
O O1 0.591653 0.057941 0.771571
O O2 0.583272 0.206776 0.724979
O O3 0.487811 0.188612 0.810831
O O4 0.250000 0.750000 0.750000
O O5 0.128672 0.816163 0.701760
O O6 0.157255 0.848922 0.812179
O O7 0.402175 0.308281 0.874334
O O8 0.570101 0.268707 0.888752
O O9 0.438528 0.157444 0.907218
O O10 0.264538 0.236219 0.628291
O O11 0.898202 0.196215 0.091184
O O12 0.786537 0.072364 0.097052
O O13 0.337706 0.027202 0.062496
O O14 0.500000 0.000000 0.088826
O O15 0.460573 0.082422 0.000000
O O16 0.507106 0.296175 0.500000
#
# Coordination Sequence:
#
# PCOD9545810 Si02
#       7
#    16  16  16  16  16  16  16
#     4  10  21  33  56  92 122 166 217 269 325 392
#     4   9  20  36  54  84 129 166 209 264 324 394
#     4  11  22  41  63  89 133 167 218 264 334 399
#     4  10  22  40  62  94 128 178 213 266 332 403
#     4  11  22  40  62  91 129 173 219 273 342 385
#     4  10  22  40  63  93 121 154 209 276 332 383
#     4  11  24  41  65  92 125 171 224 278 333 399
#
# _framework density 19.478059999999999
#
# number of rings (size 3 to 8) (size 9 to 14) (size 15 to 20)
#    0.000    1.714    1.429    3.000    2.000    6.286 
#    0.000    2.143    0.000    3.429    0.000    1.000 
#    0.000    0.000    0.000    0.000    0.000    0.000 
#
# Total GULP energy -312289.214778 kJ/mol
# GULP energy per Si atom -5576.593121 kJ/mol
# Density = 1.943373 g / cm^3
# Si number density = 19.478060 Si / 1000 Ang^3
#
#
#
# Elastic Constant Matrix: (Units=GPa)
#
#
# Indices 1 2 3 4 5 6 
#
# 1 104.3725 29.3775 28.7480 0.0000 0.0000 4.9816
# 2 29.3775 104.3725 28.7480 0.0000 0.0000 -4.9816
# 3 28.7480 28.7480 82.7678 0.0000 0.0000 0.0000
# 4 0.0000 0.0000 0.0000 398.3493 -0.0001 0.0000
# 5 0.0000 0.0000 0.0000 -0.0001 398.3493 0.0000
# 6 4.9816 -4.9816 0.0000 0.0000 0.0000 50.8973
#
#
#
# Elastic Compliance Matrix: (Units=1/GPa)
#
#
# Indices 1 2 3 4 5 6 
#
# 1 0.011149 -0.002360 -0.003053 0.000000 0.000000 -0.001322
# 2 -0.002360 0.011149 -0.003053 0.000000 0.000000 0.001322
# 3 -0.003053 -0.003053 0.014203 0.000000 0.000000 0.000000
# 4 0.000000 0.000000 0.000000 0.002510 0.000000 0.000000
# 5 0.000000 0.000000 0.000000 0.000000 0.002510 0.000000
# 6 -0.001322 0.001322 0.000000 0.000000 0.000000 0.019906
#
#
# Mechanical properties :
#
#
# Convention : Reuss Voigt Hill
#
# Bulk Modulus (GPa) = 51.09943 51.69553 51.39748
# Shear Modulus (GPa) = 58.90440 183.16181 121.03311
#
# Velocity S-wave (km/s) = 5.50519 9.70768 7.89133
# Velocity P-wave (km/s) = 8.16705 12.33897 10.46305
#
# Compressibility (1/GPa) = 0.01956969
#
# Stress axis : x y z
#
# Youngs Moduli (GPa) = 89.69095 89.69095 70.40967
#
# Poissons Ratio (x) = 0.21171 0.21494
# Poissons Ratio (y) = 0.21171 0.21494
# Poissons Ratio (z) = 0.27380 0.27380
#
# Static dielectric constant tensor:
#      x y z
#    x 2.027850 0.000000 0.000000 
#    y 0.000000 2.027850 0.000000 
#    z 0.000000 0.000000 1.733740 
# 
# From -- ./inp_files/5869.got.cif
#   From: 2010.05.17/outbox.cif.g08.bks.cpg/sg87_3_cif.got.tgz:5869.got - 2010.06.03 19:07:00.
