data_PCOD9545430
_publ_section_title
;
Structure prediction by ZEFSAII (Michael W. Deem and Ramdas Pophale) SiO2 
 PCOD9545430
Probable space group: P 42/N
;
_chemical_formula_sum "Si O2"
_cell_formula_units_Z 40
_cell_length_a 8.529041
_cell_length_b 8.529041
_cell_length_c 23.937535
_cell_angle_alpha 90.000000
_cell_angle_beta 90.000000
_cell_angle_gamma 90.000000
_cell_volume 1741.324981
_symmetry_space_group_name_H-M "P 42/N"
_symmetry_group_IT_number 86
_space_group.IT_coordinate_system_code '2'
_symmetry_cell_setting 'tetragonal'
loop_
_space_group_symop_operation_xyz
x,y,z
-y,1/2+x,1/2+z
1/2-x,1/2-y,z
1/2+y,-x,1/2+z
-x,-y,-z
y,1/2-x,1/2-z
1/2+x,1/2+y,-z
1/2-y,x,1/2-z
loop_
_atom_site_type_symbol
_atom_site_label
_atom_site_fract_x
_atom_site_fract_y
_atom_site_fract_z
Si Si1 0.128081 0.373153 0.835520
Si Si2 0.884349 0.139662 0.861856
Si Si3 0.324965 0.921858 0.933963
Si Si4 0.569952 0.561290 0.755932
Si Si5 0.426428 0.299277 0.449702
O O1 0.250000 0.250000 0.810880
O O2 0.211503 0.499663 0.874734
O O3 0.019629 0.263822 0.875709
O O4 0.023237 0.460045 0.789419
O O5 0.750000 0.250000 0.835398
O O6 0.946041 0.020716 0.815597
O O7 0.799493 0.045645 0.911140
O O8 0.250000 0.750000 0.938110
O O9 0.514435 0.925377 0.938148
O O10 0.268099 0.023653 0.986560
O O11 0.540634 0.746808 0.760265
O O12 0.250000 0.250000 0.437972
#
# Coordination Sequence:
#
# PCOD9545430 Si02
#       5
#     8   8   8   8   8
#     4  12  29  48  74 113 153 195 250 318 385 453
#     4  12  25  47  74 106 153 199 245 313 381 456
#     4  11  26  47  72 112 149 196 252 311 376 453
#     4  11  26  47  76 108 145 198 258 308 380 461
#     4  11  26  46  77 105 150 200 253 307 377 449
#
# _framework density 22.971014
#
# number of rings (size 3 to 8) (size 9 to 14) (size 15 to 20)
#    0.000    0.600    4.000    1.200   14.000    1.600 
#    0.000    0.000    0.000    0.000    0.000    0.000 
#    0.000    0.000    0.000    0.000    0.000    0.000 
#
# Total GULP energy -223904.240282 kJ/mol
# GULP energy per Si atom -5597.606007 kJ/mol
# Density = 2.291873 g / cm^3
# Si number density = 22.971014 Si / 1000 Ang^3
#
#
#
# Elastic Constant Matrix: (Units=GPa)
#
#
# Indices 1 2 3 4 5 6 
#
# 1 108.0370 52.5370 35.3710 0.0000 0.0000 -1.4885
# 2 52.5370 108.0370 35.3710 0.0000 0.0000 1.4885
# 3 35.3710 35.3710 87.9171 0.0000 0.0000 0.0000
# 4 0.0000 0.0000 0.0000 29.4964 0.0000 0.0000
# 5 0.0000 0.0000 0.0000 0.0000 29.4964 0.0000
# 6 -1.4885 1.4885 0.0000 0.0000 0.0000 52.1174
#
#
#
# Elastic Compliance Matrix: (Units=1/GPa)
#
#
# Indices 1 2 3 4 5 6 
#
# 1 0.012807 -0.005238 -0.003045 0.000000 0.000000 0.000515
# 2 -0.005238 0.012807 -0.003045 0.000000 0.000000 -0.000515
# 3 -0.003045 -0.003045 0.013825 0.000000 0.000000 0.000000
# 4 0.000000 0.000000 0.000000 0.033902 0.000000 0.000000
# 5 0.000000 0.000000 0.000000 0.000000 0.033902 0.000000
# 6 0.000515 -0.000515 0.000000 0.000000 0.000000 0.019217
#
#
# Mechanical properties :
#
#
# Convention : Reuss Voigt Hill
#
# Bulk Modulus (GPa) = 59.58716 61.17209 60.37963
# Shear Modulus (GPa) = 32.31792 34.26954 33.29373
#
# Velocity S-wave (km/s) = 3.75494 3.86665 3.81120
# Velocity P-wave (km/s) = 6.69297 6.82807 6.76086
#
# Compressibility (1/GPa) = 0.01678214
#
# Stress axis : x y z
#
# Youngs Moduli (GPa) = 78.07946 78.07946 72.33418
#
# Poissons Ratio (x) = 0.40899 0.22028
# Poissons Ratio (y) = 0.40899 0.22028
# Poissons Ratio (z) = 0.23777 0.23777
#
# Static dielectric constant tensor:
#      x y z
#    x 1.877270 0.000000 0.000000 
#    y 0.000000 1.877270 0.000000 
#    z 0.000000 0.000000 1.809990 
# 
# From -- ./inp_files/4484.got.cif
#   From: 2010.05.17/outbox.cif.g08.bks.cpg/sg86_3_cif.got.tgz:4484.got - 2010.06.03 19:03:11.
