data_PCOD9545668
_publ_section_title
;
Structure prediction by ZEFSAII (Michael W. Deem and Ramdas Pophale) SiO2 
 PCOD9545668
Probable space group: I 4/M
;
_chemical_formula_sum "Si O2"
_cell_formula_units_Z 96
_cell_length_a 25.664739
_cell_length_b 25.664739
_cell_length_c 8.878356
_cell_angle_alpha 90.000000
_cell_angle_beta 90.000000
_cell_angle_gamma 90.000000
_cell_volume 5847.985124
_symmetry_space_group_name_H-M "I 4/M"
_symmetry_group_IT_number 87
_symmetry_cell_setting 'tetragonal'
loop_
_space_group_symop_operation_xyz
x,y,z
-y,x,z
-x,-y,z
y,-x,z
-x,-y,-z
y,-x,-z
x,y,-z
-y,x,-z
1/2+x,1/2+y,1/2+z
1/2-y,1/2+x,1/2+z
1/2-x,1/2-y,1/2+z
1/2+y,1/2-x,1/2+z
1/2-x,1/2-y,1/2-z
1/2+y,1/2-x,1/2-z
1/2+x,1/2+y,1/2-z
1/2-y,1/2+x,1/2-z
loop_
_atom_site_type_symbol
_atom_site_label
_atom_site_fract_x
_atom_site_fract_y
_atom_site_fract_z
Si Si1 0.751574 0.937572 0.672938
Si Si2 0.439216 0.138820 0.678527
Si Si3 0.556584 0.360181 0.319785
Si Si4 0.938517 0.357176 0.820257
Si Si5 0.059070 0.137787 0.317957
Si Si6 0.563901 0.753986 0.172168
O O1 0.756819 0.920227 0.500000
O O2 0.802888 0.924334 0.767583
O O3 0.697006 0.920628 0.744689
O O4 0.749154 0.000792 0.671940
O O5 0.434202 0.131924 0.500000
O O6 0.404234 0.096747 0.762916
O O7 0.500495 0.133913 0.719144
O O8 0.421968 0.197127 0.725419
O O9 0.555277 0.363724 0.500000
O O10 0.498459 0.367234 0.252734
O O11 0.594212 0.403289 0.248414
O O12 0.935551 0.352151 0.000000
O O13 0.055355 0.134614 0.500000
O O14 0.080325 0.195941 0.280741
O O15 0.580705 0.763815 0.000000
#
# Coordination Sequence:
#
# PCOD9545668 Si02
#       6
#    16  16  16  16  16  16
#     4   9  17  32  52  72  96 129 168 205 243 292
#     4  10  20  32  49  73 100 131 165 203 248 296
#     4  11  21  33  51  77 105 132 165 206 250 295
#     4  10  20  33  50  73 101 132 167 207 248 293
#     4  10  20  35  53  74 101 135 170 204 247 297
#     4   8  16  31  51  71  93 125 165 205 241 285
#
# _framework density 16.415908999999999
#
# number of rings (size 3 to 8) (size 9 to 14) (size 15 to 20)
#    0.000    2.333    0.000    4.500    0.000    7.333 
#    0.000    3.333    0.000    1.000    0.000    0.000 
#    0.000    0.000    0.000    0.000    0.000    0.000 
#
# Total GULP energy -267632.821246 kJ/mol
# GULP energy per Si atom -5575.683776 kJ/mol
# Density = 1.637855 g / cm^3
# Si number density = 16.415909 Si / 1000 Ang^3
#
#
#
# Elastic Constant Matrix: (Units=GPa)
#
#
# Indices 1 2 3 4 5 6 
#
# 1 87.2820 55.6585 50.7456 0.0000 0.0000 0.5965
# 2 55.6585 87.2820 50.7456 0.0000 0.0000 -0.5965
# 3 50.7456 50.7456 94.2516 0.0000 0.0000 0.0000
# 4 0.0000 0.0000 0.0000 25.5512 0.0000 0.0000
# 5 0.0000 0.0000 0.0000 0.0000 25.5512 0.0000
# 6 0.5965 -0.5965 0.0000 0.0000 0.0000 -5.7431
#
#
#
# Elastic Compliance Matrix: (Units=1/GPa)
#
#
# Indices 1 2 3 4 5 6 
#
# 1 0.021412 -0.010087 -0.006098 0.000000 0.000000 0.003272
# 2 -0.010087 0.021412 -0.006098 0.000000 0.000000 -0.003272
# 3 -0.006098 -0.006098 0.017176 0.000000 0.000000 0.000000
# 4 0.000000 0.000000 0.000000 0.039137 0.000000 0.000000
# 5 0.000000 0.000000 0.000000 0.000000 0.039137 0.000000
# 6 0.003272 -0.003272 0.000000 0.000000 0.000000 -0.173441
#
#
# Mechanical properties :
#
#
# Convention : Reuss Voigt Hill
#
# Bulk Modulus (GPa) = 64.78324 64.79056 64.78690
# Shear Modulus (GPa) = 343.82473 16.51626 180.17049
#
# Velocity S-wave (km/s) = 14.48795 3.17537 10.48770
# Velocity P-wave (km/s) = 17.87224 7.27996 13.64578
#
# Compressibility (1/GPa) = 0.01543609
#
# Stress axis : x y z
#
# Youngs Moduli (GPa) = 46.70280 46.70280 58.22109
#
# Poissons Ratio (x) = 0.47107 0.35501
# Poissons Ratio (y) = 0.47107 0.35501
# Poissons Ratio (z) = 0.28478 0.28478
#
# Static dielectric constant tensor:
#      x y z
#    x 1.540940 0.000000 0.000000 
#    y 0.000000 1.540940 0.000000 
#    z 0.000000 0.000000 1.548590 
# 
# From -- ./inp_files/1312.got.cif
#   From: 2010.05.17/outbox.cif.g08.bks.cpg/sg87_1_cif.got.tgz:1312.got - 2010.06.03 19:07:00.
