data_PCOD9545217
_publ_section_title
;
Structure prediction by ZEFSAII (Michael W. Deem and Ramdas Pophale) SiO2 
 PCOD9545217
Probable space group: P 42/N
;
_chemical_formula_sum "Si O2"
_cell_formula_units_Z 40
_cell_length_a 8.273292
_cell_length_b 8.273292
_cell_length_c 23.034916
_cell_angle_alpha 90.000000
_cell_angle_beta 90.000000
_cell_angle_gamma 90.000000
_cell_volume 1576.679200
_symmetry_space_group_name_H-M "P 42/N"
_symmetry_group_IT_number 86
_space_group.IT_coordinate_system_code '2'
_symmetry_cell_setting 'tetragonal'
loop_
_space_group_symop_operation_xyz
x,y,z
-y,1/2+x,1/2+z
1/2-x,1/2-y,z
1/2+y,-x,1/2+z
-x,-y,-z
y,1/2-x,1/2-z
1/2+x,1/2+y,-z
1/2-y,x,1/2-z
loop_
_atom_site_type_symbol
_atom_site_label
_atom_site_fract_x
_atom_site_fract_y
_atom_site_fract_z
Si Si1 0.750000 0.250000 0.162014
Si Si2 0.964247 0.875421 0.254814
Si Si3 0.750000 0.250000 0.867446
Si Si4 0.004585 0.159676 0.066938
Si Si5 0.317357 0.423037 0.173848
Si Si6 0.801586 0.574532 0.442965
O O1 0.813423 0.399571 0.200916
O O2 0.898626 0.236420 0.117314
O O3 0.924118 0.710143 0.219561
O O4 0.032325 0.019605 0.213970
O O5 0.776073 0.408035 0.827428
O O6 0.585883 0.264268 0.905798
O O7 0.155460 0.100281 0.104753
O O8 0.911113 0.995601 0.050585
O O9 0.044309 0.257332 0.009227
O O10 0.250000 0.250000 0.192169
O O11 0.750000 0.750000 0.420245
#
# Coordination Sequence:
#
# PCOD9545217 Si02
#       6
#     4   8   4   8   8   8
#     4  12  24  44  74 110 148 202 254 338 400 468
#     4  11  26  51  76 108 151 207 270 329 404 486
#     4  10  24  46  78 116 152 206 260 318 396 474
#     4  10  23  42  68 111 155 193 260 316 385 468
#     4  11  24  48  73 112 156 199 257 330 394 470
#     4  10  22  45  73 109 156 206 253 320 386 476
#
# _framework density 25.369778
#
# number of rings (size 3 to 8) (size 9 to 14) (size 15 to 20)
#    0.000    1.400    2.000    1.800    0.000    8.000 
#    0.000   12.000    0.000    2.400    0.000    0.000 
#    0.000    0.000    0.000    0.000    0.000    0.000 
#
# Total GULP energy -223131.806052 kJ/mol
# GULP energy per Si atom -5578.295151 kJ/mol
# Density = 2.531204 g / cm^3
# Si number density = 25.369778 Si / 1000 Ang^3
#
#
#
# Elastic Constant Matrix: (Units=GPa)
#
#
# Indices 1 2 3 4 5 6 
#
# 1 152.1636 54.8500 43.1045 0.0000 0.0000 -17.2646
# 2 54.8500 152.1636 43.1045 0.0000 0.0000 17.2646
# 3 43.1045 43.1045 120.7130 0.0000 0.0000 0.0000
# 4 0.0000 0.0000 0.0000 26.0063 0.0000 0.0000
# 5 0.0000 0.0000 0.0000 0.0000 26.0063 0.0000
# 6 -17.2646 17.2646 0.0000 0.0000 0.0000 50.1689
#
#
#
# Elastic Compliance Matrix: (Units=1/GPa)
#
#
# Indices 1 2 3 4 5 6 
#
# 1 0.008690 -0.003015 -0.002026 0.000000 0.000000 0.004028
# 2 -0.003015 0.008690 -0.002026 0.000000 0.000000 -0.004028
# 3 -0.002026 -0.002026 0.009731 0.000000 0.000000 0.000000
# 4 0.000000 0.000000 0.000000 0.038452 0.000000 0.000000
# 5 0.000000 0.000000 0.000000 0.000000 0.038452 0.000000
# 6 0.004028 -0.004028 0.000000 0.000000 0.000000 0.022705
#
#
# Mechanical properties :
#
#
# Convention : Reuss Voigt Hill
#
# Bulk Modulus (GPa) = 77.07092 78.57313 77.82202
# Shear Modulus (GPa) = 34.43973 39.36840 36.90407
#
# Velocity S-wave (km/s) = 3.68844 3.94354 3.81812
# Velocity P-wave (km/s) = 6.97025 7.19540 7.08372
#
# Compressibility (1/GPa) = 0.01297506
#
# Stress axis : x y z
#
# Youngs Moduli (GPa) = 115.07650 115.07650 102.76252
#
# Poissons Ratio (x) = 0.34701 0.20822
# Poissons Ratio (y) = 0.34701 0.20822
# Poissons Ratio (z) = 0.23317 0.23317
#
# Static dielectric constant tensor:
#      x y z
#    x 2.173270 0.000000 0.000000 
#    y 0.000000 2.173270 0.000000 
#    z 0.000000 0.000000 2.030440 
# 
# From -- ./inp_files/4522.got.cif
#   From: 2010.05.17/outbox.cif.g08.bks.cpg/sg86_3_cif.got.tgz:4522.got - 2010.06.03 19:03:11.
