data_PCOD9545015
_publ_section_title
;
Structure prediction by ZEFSAII (Michael W. Deem and Ramdas Pophale) SiO2 
 PCOD9545015
Probable space group: P 42/N
;
_chemical_formula_sum "Si O2"
_cell_formula_units_Z 48
_cell_length_a 8.729755
_cell_length_b 8.729755
_cell_length_c 28.516570
_cell_angle_alpha 90.000000
_cell_angle_beta 90.000000
_cell_angle_gamma 90.000000
_cell_volume 2173.208514
_symmetry_space_group_name_H-M "P 42/N"
_symmetry_group_IT_number 86
_space_group.IT_coordinate_system_code '2'
_symmetry_cell_setting 'tetragonal'
loop_
_space_group_symop_operation_xyz
x,y,z
-y,1/2+x,1/2+z
1/2-x,1/2-y,z
1/2+y,-x,1/2+z
-x,-y,-z
y,1/2-x,1/2-z
1/2+x,1/2+y,-z
1/2-y,x,1/2-z
loop_
_atom_site_type_symbol
_atom_site_label
_atom_site_fract_x
_atom_site_fract_y
_atom_site_fract_z
Si Si1 0.355919 0.393125 0.188743
Si Si2 0.268768 0.567578 0.386987
Si Si3 0.931682 0.888505 0.227851
Si Si4 0.938603 0.958599 0.949049
Si Si5 0.350182 0.957562 0.109855
Si Si6 0.919809 0.808358 0.118288
O O1 0.250000 0.250000 0.200188
O O2 0.492255 0.322698 0.156656
O O3 0.432757 0.488511 0.230404
O O4 0.255748 0.505243 0.155171
O O5 0.250000 0.750000 0.388678
O O6 0.439326 0.502324 0.382801
O O7 0.213476 0.478855 0.434141
O O8 0.955000 0.732496 0.256705
O O9 0.922424 0.841163 0.173526
O O10 0.764368 0.000052 0.933428
O O11 0.051282 0.045496 0.913353
O O12 0.000000 0.000000 0.000000
O O13 0.429959 0.793768 0.106891
O O14 0.750000 0.750000 0.106798
#
# Coordination Sequence:
#
# PCOD9545015 Si02
#       6
#     8   8   8   8   8   8
#     4   9  20  42  71 101 139 191 236 294 372 435
#     4  10  20  38  67 100 136 184 235 295 362 435
#     4  11  22  39  74 111 146 184 254 308 368 454
#     4  11  24  42  65 100 141 192 246 293 363 448
#     4  10  22  40  73  97 142 189 236 296 373 435
#     4  12  23  42  70 106 143 190 236 309 378 438
#
# _framework density 22.087160000000001
#
# number of rings (size 3 to 8) (size 9 to 14) (size 15 to 20)
#    0.000    1.500    5.000    3.000    0.000    2.667 
#    0.000    2.500   18.333    4.000    0.000    0.000 
#    0.000    0.000    0.000    0.000    0.000    0.000 
#
# Total GULP energy -267949.936516 kJ/mol
# GULP energy per Si atom -5582.290344 kJ/mol
# Density = 2.203689 g / cm^3
# Si number density = 22.087160 Si / 1000 Ang^3
#
#
#
# Elastic Constant Matrix: (Units=GPa)
#
#
# Indices 1 2 3 4 5 6 
#
# 1 125.8216 43.4273 24.2092 0.0000 0.0000 -7.1247
# 2 43.4273 125.8216 24.2092 0.0000 0.0000 7.1247
# 3 24.2092 24.2092 78.3847 0.0000 0.0000 0.0000
# 4 0.0000 0.0000 0.0000 12.3411 0.0000 0.0000
# 5 0.0000 0.0000 0.0000 0.0000 12.3411 0.0000
# 6 -7.1247 7.1247 0.0000 0.0000 0.0000 49.1022
#
#
#
# Elastic Compliance Matrix: (Units=1/GPa)
#
#
# Indices 1 2 3 4 5 6 
#
# 1 0.009465 -0.002984 -0.002002 0.000000 0.000000 0.001806
# 2 -0.002984 0.009465 -0.002002 0.000000 0.000000 -0.001806
# 3 -0.002002 -0.002002 0.013994 0.000000 0.000000 0.000000
# 4 0.000000 0.000000 0.000000 0.081030 0.000000 0.000000
# 5 0.000000 0.000000 0.000000 0.000000 0.081030 0.000000
# 6 0.001806 -0.001806 0.000000 0.000000 0.000000 0.020890
#
#
# Mechanical properties :
#
#
# Convention : Reuss Voigt Hill
#
# Bulk Modulus (GPa) = 52.77196 57.07995 54.92596
# Shear Modulus (GPa) = 21.17160 30.63570 25.90365
#
# Velocity S-wave (km/s) = 3.09940 3.72833 3.42832
# Velocity P-wave (km/s) = 6.06241 6.66582 6.37126
#
# Compressibility (1/GPa) = 0.01894946
#
# Stress axis : x y z
#
# Youngs Moduli (GPa) = 105.65100 105.65100 71.45894
#
# Poissons Ratio (x) = 0.31527 0.14304
# Poissons Ratio (y) = 0.31527 0.14304
# Poissons Ratio (z) = 0.21148 0.21148
#
# Static dielectric constant tensor:
#      x y z
#    x 1.879480 0.000000 0.000000 
#    y 0.000000 1.879480 0.000000 
#    z 0.000000 0.000000 1.802940 
# 
# From -- ./inp_files/5172.got.cif
#   From: 2010.05.17/outbox.cif.g08.bks.cpg/sg86_3_cif.got.tgz:5172.got - 2010.06.03 19:03:11.
