data_PCOD9545234
_publ_section_title
;
Structure prediction by ZEFSAII (Michael W. Deem and Ramdas Pophale) SiO2 
 PCOD9545234
Probable space group: P 42/N
;
_chemical_formula_sum "Si O2"
_cell_formula_units_Z 54
_cell_length_a 19.096955
_cell_length_b 19.096955
_cell_length_c 6.243500
_cell_angle_alpha 90.000000
_cell_angle_beta 90.000000
_cell_angle_gamma 90.000000
_cell_volume 2276.965055
_symmetry_space_group_name_H-M "P 42/N"
_symmetry_group_IT_number 86
_space_group.IT_coordinate_system_code '2'
_symmetry_cell_setting 'tetragonal'
loop_
_space_group_symop_operation_xyz
x,y,z
-y,1/2+x,1/2+z
1/2-x,1/2-y,z
1/2+y,-x,1/2+z
-x,-y,-z
y,1/2-x,1/2-z
1/2+x,1/2+y,-z
1/2-y,x,1/2-z
loop_
_atom_site_type_symbol
_atom_site_label
_atom_site_fract_x
_atom_site_fract_y
_atom_site_fract_z
Si Si1 0.750000 0.750000 0.750000
Si Si2 0.584099 0.482977 0.254510
Si Si3 0.487233 0.704443 0.232488
Si Si4 0.900989 0.538653 0.945299
Si Si5 0.720939 0.902905 0.642178
Si Si6 0.250000 0.750000 0.477386
Si Si7 0.819086 0.999473 0.893284
Si Si8 0.805171 0.103064 0.509249
O O1 0.730302 0.819948 0.618248
O O2 0.509197 0.447506 0.289109
O O3 0.588115 0.548033 0.418137
O O4 0.638710 0.425806 0.341774
O O5 0.607861 0.505514 0.018688
O O6 0.489013 0.633530 0.369510
O O7 0.493658 0.762998 0.415968
O O8 0.554924 0.706902 0.076658
O O9 0.423187 0.728718 0.079817
O O10 0.840836 0.576639 0.809442
O O11 0.790952 0.935453 0.750650
O O12 0.250000 0.750000 0.727331
O O13 0.191581 0.815099 0.476764
O O14 0.817071 0.065724 0.736320
#
# Coordination Sequence:
#
# PCOD9545234 Si02
#       8
#     2   8   8   8   8   4   8   8
#     4  12  28  40  74 112 140 198 248 316 402 472
#     4  10  23  41  73 102 136 187 252 306 384 454
#     4   9  21  43  71  97 144 192 234 311 382 456
#     4  10  23  42  69 106 137 183 247 313 375 464
#     4  10  24  44  68 103 152 184 247 312 384 464
#     4  12  32  48  74 114 154 204 262 326 392 482
#     4   9  21  44  69  99 141 194 236 303 377 460
#     4  10  24  45  70  99 148 195 252 310 389 465
#
# _framework density 23.715776999999999
#
# number of rings (size 3 to 8) (size 9 to 14) (size 15 to 20)
#    0.000    2.074    0.000    0.000   14.519    3.556 
#    0.000    5.926    0.000    0.000    0.000    0.000 
#    0.000    0.000    0.000    0.000    0.000    0.000 
#
# Total GULP energy -300929.819396 kJ/mol
# GULP energy per Si atom -5572.774433 kJ/mol
# Density = 2.366180 g / cm^3
# Si number density = 23.715777 Si / 1000 Ang^3
#
#
#
# Elastic Constant Matrix: (Units=GPa)
#
#
# Indices 1 2 3 4 5 6 
#
# 1 47.3118 29.6116 40.5369 0.0000 0.0000 13.3840
# 2 29.6116 47.3118 40.5369 0.0000 0.0000 -13.3840
# 3 40.5369 40.5369 136.9524 0.0000 0.0000 0.0000
# 4 0.0000 0.0000 0.0000 24.0793 0.0000 0.0000
# 5 0.0000 0.0000 0.0000 0.0000 24.0793 0.0000
# 6 13.3840 -13.3840 0.0000 0.0000 0.0000 31.5534
#
#
#
# Elastic Compliance Matrix: (Units=1/GPa)
#
#
# Indices 1 2 3 4 5 6 
#
# 1 0.088237 -0.069342 -0.005593 0.000000 0.000000 -0.066840
# 2 -0.069342 0.088237 -0.005593 0.000000 0.000000 0.066840
# 3 -0.005593 -0.005593 0.010613 0.000000 0.000000 0.000000
# 4 0.000000 0.000000 0.000000 0.041529 0.000000 0.000000
# 5 0.000000 0.000000 0.000000 0.000000 0.041529 0.000000
# 6 -0.066840 0.066840 0.000000 0.000000 0.000000 0.088395
#
#
# Mechanical properties :
#
#
# Convention : Reuss Voigt Hill
#
# Bulk Modulus (GPa) = 38.41604 50.32742 44.37173
# Shear Modulus (GPa) = 9.46483 24.00175 16.73329
#
# Velocity S-wave (km/s) = 1.99990 3.18474 2.65915
# Velocity P-wave (km/s) = 4.64397 5.89835 5.30834
#
# Compressibility (1/GPa) = 0.02603080
#
# Stress axis : x y z
#
# Youngs Moduli (GPa) = 11.33317 11.33317 94.22827
#
# Poissons Ratio (x) = 0.78587 0.52698
# Poissons Ratio (y) = 0.78587 0.52698
# Poissons Ratio (z) = 0.06338 0.06338
#
# Static dielectric constant tensor:
#      x y z
#    x 1.958030 0.000000 0.000000 
#    y 0.000000 1.958030 0.000000 
#    z 0.000000 0.000000 1.840460 
# 
# From -- ./inp_files/488.got.cif
#   From: 2010.05.17/outbox.cif.g08.bks.cpg/sg86_1_cif.got.tgz:488.got - 2010.06.03 19:03:11.
