data_PCOD9545063
_publ_section_title
;
Structure prediction by ZEFSAII (Michael W. Deem and Ramdas Pophale) SiO2 
 PCOD9545063
Probable space group: P 42/N
;
_chemical_formula_sum "Si O2"
_cell_formula_units_Z 42
_cell_length_a 14.285518
_cell_length_b 14.285518
_cell_length_c 8.528759
_cell_angle_alpha 90.000000
_cell_angle_beta 90.000000
_cell_angle_gamma 90.000000
_cell_volume 1740.515231
_symmetry_space_group_name_H-M "P 42/N"
_symmetry_group_IT_number 86
_space_group.IT_coordinate_system_code '2'
_symmetry_cell_setting 'tetragonal'
loop_
_space_group_symop_operation_xyz
x,y,z
-y,1/2+x,1/2+z
1/2-x,1/2-y,z
1/2+y,-x,1/2+z
-x,-y,-z
y,1/2-x,1/2-z
1/2+x,1/2+y,-z
1/2-y,x,1/2-z
loop_
_atom_site_type_symbol
_atom_site_label
_atom_site_fract_x
_atom_site_fract_y
_atom_site_fract_z
Si Si1 0.602073 0.774785 0.258411
Si Si2 0.250000 0.250000 0.250000
Si Si3 0.052984 0.684823 0.482060
Si Si4 0.112005 0.992885 0.494880
Si Si5 0.097753 0.830868 0.712326
Si Si6 0.903600 0.606173 0.679051
O O1 0.684203 0.845986 0.308187
O O2 0.523712 0.750722 0.389037
O O3 0.551626 0.832868 0.123771
O O4 0.315178 0.323496 0.156674
O O5 0.096447 0.728562 0.638603
O O6 0.132633 0.657806 0.358526
O O7 0.980268 0.604446 0.540365
O O8 0.138506 0.036829 0.330448
O O9 0.129354 0.888743 0.556949
O O10 0.000000 0.000000 0.500000
O O11 0.992818 0.858885 0.770961
#
# Coordination Sequence:
#
# PCOD9545063 Si02
#       6
#     8   2   8   8   8   8
#     4  10  21  32  55  92 137 176 224 283 353 425
#     4  12  24  32  68 114 156 172 224 302 368 452
#     4  11  23  41  67 100 138 187 243 296 359 424
#     4   9  20  37  56  83 128 181 223 273 338 422
#     4  10  22  43  65  97 137 190 242 294 355 425
#     4  11  22  38  64 104 149 184 223 290 376 436
#
# _framework density 24.130786000000001
#
# number of rings (size 3 to 8) (size 9 to 14) (size 15 to 20)
#    0.000    1.714    1.905    2.857    2.667    0.000 
#    0.000    3.810    0.000    3.429    0.000    0.000 
#    0.000    0.000    0.000    0.190    0.000    0.000 
#
# Total GULP energy -234262.629592 kJ/mol
# GULP energy per Si atom -5577.681657 kJ/mol
# Density = 2.407586 g / cm^3
# Si number density = 24.130786 Si / 1000 Ang^3
#
#
#
# Elastic Constant Matrix: (Units=GPa)
#
#
# Indices 1 2 3 4 5 6 
#
# 1 71.6962 34.2878 19.7628 0.0000 0.0000 -2.9053
# 2 34.2878 71.6962 19.7628 0.0000 0.0000 2.9053
# 3 19.7628 19.7628 69.4949 0.0000 0.0000 0.0000
# 4 0.0000 0.0000 0.0000 30.4938 0.0000 0.0000
# 5 0.0000 0.0000 0.0000 0.0000 30.4938 0.0000
# 6 -2.9053 2.9053 0.0000 0.0000 0.0000 26.8244
#
#
#
# Elastic Compliance Matrix: (Units=1/GPa)
#
#
# Indices 1 2 3 4 5 6 
#
# 1 0.018872 -0.008317 -0.003002 0.000000 0.000000 0.002945
# 2 -0.008317 0.018872 -0.003002 0.000000 0.000000 -0.002945
# 3 -0.003002 -0.003002 0.016097 0.000000 0.000000 0.000000
# 4 0.000000 0.000000 0.000000 0.032794 0.000000 0.000000
# 5 0.000000 0.000000 0.000000 0.000000 0.032794 0.000000
# 6 0.002945 -0.002945 0.000000 0.000000 0.000000 0.037917
#
#
# Mechanical properties :
#
#
# Convention : Reuss Voigt Hill
#
# Bulk Modulus (GPa) = 39.68243 40.05713 39.86978
# Shear Modulus (GPa) = 25.72203 26.83403 26.27803
#
# Velocity S-wave (km/s) = 3.26842 3.33832 3.30356
# Velocity P-wave (km/s) = 5.54291 5.61206 5.57759
#
# Compressibility (1/GPa) = 0.02520007
#
# Stress axis : x y z
#
# Youngs Moduli (GPa) = 52.98837 52.98837 62.12463
#
# Poissons Ratio (x) = 0.44072 0.18647
# Poissons Ratio (y) = 0.44072 0.18647
# Poissons Ratio (z) = 0.15905 0.15905
#
# Static dielectric constant tensor:
#      x y z
#    x 2.082900 0.000000 0.000000 
#    y 0.000000 2.082900 0.000000 
#    z 0.000000 0.000000 1.938430 
# 
# From -- ./inp_files/1162.got.cif
#   From: 2010.05.17/outbox.cif.g08.bks.cpg/sg86_1_cif.got.tgz:1162.got - 2010.06.03 19:03:11.
