data_PCOD9545406
_publ_section_title
;
Structure prediction by ZEFSAII (Michael W. Deem and Ramdas Pophale) SiO2 
 PCOD9545406
Probable space group: P 42/N
;
_chemical_formula_sum "Si O2"
_cell_formula_units_Z 38
_cell_length_a 9.078226
_cell_length_b 9.078226
_cell_length_c 21.876284
_cell_angle_alpha 90.000000
_cell_angle_beta 90.000000
_cell_angle_gamma 90.000000
_cell_volume 1802.916167
_symmetry_space_group_name_H-M "P 42/N"
_symmetry_group_IT_number 86
_space_group.IT_coordinate_system_code '2'
_symmetry_cell_setting 'tetragonal'
loop_
_space_group_symop_operation_xyz
x,y,z
-y,1/2+x,1/2+z
1/2-x,1/2-y,z
1/2+y,-x,1/2+z
-x,-y,-z
y,1/2-x,1/2-z
1/2+x,1/2+y,-z
1/2-y,x,1/2-z
loop_
_atom_site_type_symbol
_atom_site_label
_atom_site_fract_x
_atom_site_fract_y
_atom_site_fract_z
Si Si1 0.417896 0.211766 0.040105
Si Si2 0.067936 0.600665 0.385553
Si Si3 0.750000 0.250000 0.718406
Si Si4 0.819783 0.486580 0.318793
Si Si5 0.750000 0.750000 0.250000
Si Si6 0.423906 0.071380 0.909453
O O1 0.250000 0.250000 0.056532
O O2 0.534503 0.336012 0.059690
O O3 0.471375 0.064645 0.074536
O O4 0.423008 0.178081 0.968039
O O5 0.174867 0.633618 0.327721
O O6 0.948683 0.476191 0.367820
O O7 0.990737 0.757568 0.400868
O O8 0.631232 0.317499 0.765252
O O9 0.852234 0.645489 0.288925
O O10 0.663887 0.513565 0.352283
#
# Coordination Sequence:
#
# PCOD9545406 Si02
#       6
#     8   8   4   8   2   8
#     4  11  26  44  69 104 140 172 223 292 349 401
#     4  12  24  47  69  97 141 185 223 292 348 408
#     4  12  26  42  68 102 136 178 232 286 348 400
#     4  12  24  42  71  98 131 181 236 279 336 420
#     4  12  20  40  72  92 124 176 236 272 314 424
#     4  11  24  47  72 100 135 184 235 272 345 426
#
# _framework density 21.076965999999999
#
# number of rings (size 3 to 8) (size 9 to 14) (size 15 to 20)
#    0.000    0.421    6.316    1.263    2.947    3.368 
#    3.789    0.000    0.000    0.000    0.000    0.000 
#    0.000    0.000    0.000    0.000    0.000    0.000 
#
# Total GULP energy -212306.550320 kJ/mol
# GULP energy per Si atom -5587.014482 kJ/mol
# Density = 2.102899 g / cm^3
# Si number density = 21.076966 Si / 1000 Ang^3
#
#
#
# Elastic Constant Matrix: (Units=GPa)
#
#
# Indices 1 2 3 4 5 6 
#
# 1 86.6892 32.8447 51.7214 0.0000 0.0000 -5.6642
# 2 32.8447 86.6892 51.7214 0.0000 0.0000 5.6642
# 3 51.7214 51.7214 115.9041 0.0000 0.0000 0.0000
# 4 0.0000 0.0000 0.0000 41.5132 0.0000 0.0000
# 5 0.0000 0.0000 0.0000 0.0000 41.5132 0.0000
# 6 -5.6642 5.6642 0.0000 0.0000 0.0000 27.1429
#
#
#
# Elastic Compliance Matrix: (Units=1/GPa)
#
#
# Indices 1 2 3 4 5 6 
#
# 1 0.016527 -0.002898 -0.006082 0.000000 0.000000 0.004054
# 2 -0.002898 0.016527 -0.006082 0.000000 0.000000 -0.004054
# 3 -0.006082 -0.006082 0.014056 0.000000 0.000000 0.000000
# 4 0.000000 0.000000 0.000000 0.024089 0.000000 0.000000
# 5 0.000000 0.000000 0.000000 0.000000 0.024089 0.000000
# 6 0.004054 -0.004054 0.000000 0.000000 0.000000 0.038534
#
#
# Mechanical properties :
#
#
# Convention : Reuss Voigt Hill
#
# Bulk Modulus (GPa) = 58.87075 62.42860 60.64967
# Shear Modulus (GPa) = 29.48009 32.23355 30.85682
#
# Velocity S-wave (km/s) = 3.74396 3.91490 3.83039
# Velocity P-wave (km/s) = 6.83239 7.07947 6.95703
#
# Compressibility (1/GPa) = 0.01698637
#
# Stress axis : x y z
#
# Youngs Moduli (GPa) = 60.50752 60.50752 71.14519
#
# Poissons Ratio (x) = 0.17535 0.43269
# Poissons Ratio (y) = 0.17535 0.43269
# Poissons Ratio (z) = 0.36800 0.36800
#
# Static dielectric constant tensor:
#      x y z
#    x 1.766000 0.000000 0.000000 
#    y 0.000000 1.766000 0.000000 
#    z 0.000000 0.000000 1.782260 
# 
# From -- ./inp_files/4536.got.cif
#   From: 2010.05.17/outbox.cif.g08.bks.cpg/sg86_3_cif.got.tgz:4536.got - 2010.06.03 19:03:11.
