data_PCOD9545563
_publ_section_title
;
Structure prediction by ZEFSAII (Michael W. Deem and Ramdas Pophale) SiO2 
 PCOD9545563
Probable space group: I 4/M
;
_chemical_formula_sum "Si O2"
_cell_formula_units_Z 96
_cell_length_a 24.399573
_cell_length_b 24.399573
_cell_length_c 7.717568
_cell_angle_alpha 90.000000
_cell_angle_beta 90.000000
_cell_angle_gamma 90.000000
_cell_volume 4594.570470
_symmetry_space_group_name_H-M "I 4/M"
_symmetry_group_IT_number 87
_symmetry_cell_setting 'tetragonal'
loop_
_space_group_symop_operation_xyz
x,y,z
-y,x,z
-x,-y,z
y,-x,z
-x,-y,-z
y,-x,-z
x,y,-z
-y,x,-z
1/2+x,1/2+y,1/2+z
1/2-y,1/2+x,1/2+z
1/2-x,1/2-y,1/2+z
1/2+y,1/2-x,1/2+z
1/2-x,1/2-y,1/2-z
1/2+y,1/2-x,1/2-z
1/2+x,1/2+y,1/2-z
1/2-y,1/2+x,1/2-z
loop_
_atom_site_type_symbol
_atom_site_label
_atom_site_fract_x
_atom_site_fract_y
_atom_site_fract_z
Si Si1 0.039909 0.780058 0.800197
Si Si2 0.554127 0.571456 0.792659
Si Si3 0.657857 0.955068 0.298938
Si Si4 0.925157 0.637688 0.295382
Si Si5 0.764574 0.082944 0.210762
Si Si6 0.848651 0.859756 0.195043
O O1 0.053132 0.715497 0.795743
O O2 0.092155 0.811920 0.720696
O O3 0.977850 0.784426 0.726673
O O4 0.036668 0.799142 0.000000
O O5 0.490093 0.573904 0.752926
O O6 0.591399 0.612838 0.690791
O O7 0.560309 0.579771 0.000000
O O8 0.672534 0.964220 0.500000
O O9 0.617093 0.904496 0.286265
O O10 0.631034 0.011874 0.234547
O O11 0.923027 0.627363 0.500000
O O12 0.911325 0.701177 0.260419
O O13 0.801322 0.134138 0.274217
O O14 0.767500 0.082186 0.000000
O O15 0.827035 0.850228 0.000000
#
# Coordination Sequence:
#
# PCOD9545563 Si02
#       6
#    16  16  16  16  16  16
#     4   9  18  33  52  75 106 141 176 218 265 310
#     4   9  18  30  42  61  93 131 170 217 272 321
#     4  10  21  37  58  83 109 137 169 206 252 308
#     4  10  21  37  58  83 109 137 169 206 252 308
#     4   9  18  33  52  75 106 141 176 218 265 310
#     4  10  19  31  50  75 100 133 179 223 264 310
#
# _framework density 20.894228999999999
#
# number of rings (size 3 to 8) (size 9 to 14) (size 15 to 20)
#    0.000    2.500    0.000    2.500    0.000    5.667 
#    0.000    6.667    0.000    0.000    0.000    0.000 
#    0.000    0.000    0.000    0.000    0.000    0.000 
#
# Total GULP energy -267669.120442 kJ/mol
# GULP energy per Si atom -5576.440009 kJ/mol
# Density = 2.084667 g / cm^3
# Si number density = 20.894229 Si / 1000 Ang^3
#
#
#
# Elastic Constant Matrix: (Units=GPa)
#
#
# Indices 1 2 3 4 5 6 
#
# 1 62.3558 53.8538 -2.5283 0.0000 0.0000 1.6841
# 2 53.8538 62.3558 -2.5283 0.0000 0.0000 -1.6841
# 3 -2.5283 -2.5283 38.1072 0.0000 0.0000 0.0000
# 4 0.0000 0.0000 0.0000 6.3324 0.0000 0.0000
# 5 0.0000 0.0000 0.0000 0.0000 6.3324 0.0000
# 6 1.6841 -1.6841 0.0000 0.0000 0.0000 43.5773
#
#
#
# Elastic Compliance Matrix: (Units=1/GPa)
#
#
# Indices 1 2 3 4 5 6 
#
# 1 0.064039 -0.055409 0.000573 0.000000 0.000000 -0.004616
# 2 -0.055409 0.064039 0.000573 0.000000 0.000000 0.004616
# 3 0.000573 0.000573 0.026318 0.000000 0.000000 0.000000
# 4 0.000000 0.000000 0.000000 0.157917 0.000000 0.000000
# 5 0.000000 0.000000 0.000000 0.000000 0.157917 0.000000
# 6 -0.004616 0.004616 0.000000 0.000000 0.000000 0.023305
#
#
# Mechanical properties :
#
#
# Convention : Reuss Voigt Hill
#
# Bulk Modulus (GPa) = 21.80165 28.93484 25.36824
# Shear Modulus (GPa) = 8.09911 18.84988 13.47449
#
# Velocity S-wave (km/s) = 1.97095 3.00685 2.54222
# Velocity P-wave (km/s) = 3.95430 5.09246 4.55904
#
# Compressibility (1/GPa) = 0.04586809
#
# Stress axis : x y z
#
# Youngs Moduli (GPa) = 15.61547 15.61547 37.99722
#
# Poissons Ratio (x) = 0.86524 -0.02176
# Poissons Ratio (y) = 0.86524 -0.02176
# Poissons Ratio (z) = -0.00894 -0.00894
#
# Static dielectric constant tensor:
#      x y z
#    x 1.757270 0.000000 0.000000 
#    y 0.000000 1.757270 0.000000 
#    z 0.000000 0.000000 1.769430 
# 
# From -- ./inp_files/1321.got.cif
#   From: 2010.05.17/outbox.cif.g08.bks.cpg/sg87_1_cif.got.tgz:1321.got - 2010.06.03 19:07:00.
