data_PCOD9545389
_publ_section_title
;
Structure prediction by ZEFSAII (Michael W. Deem and Ramdas Pophale) SiO2 
 PCOD9545389
Probable space group: P 42/N
;
_chemical_formula_sum "Si O2"
_cell_formula_units_Z 58
_cell_length_a 18.485522
_cell_length_b 18.485522
_cell_length_c 7.588029
_cell_angle_alpha 90.000000
_cell_angle_beta 90.000000
_cell_angle_gamma 90.000000
_cell_volume 2592.939715
_symmetry_space_group_name_H-M "P 42/N"
_symmetry_group_IT_number 86
_space_group.IT_coordinate_system_code '2'
_symmetry_cell_setting 'tetragonal'
loop_
_space_group_symop_operation_xyz
x,y,z
-y,1/2+x,1/2+z
1/2-x,1/2-y,z
1/2+y,-x,1/2+z
-x,-y,-z
y,1/2-x,1/2-z
1/2+x,1/2+y,-z
1/2-y,x,1/2-z
loop_
_atom_site_type_symbol
_atom_site_label
_atom_site_fract_x
_atom_site_fract_y
_atom_site_fract_z
Si Si1 0.198532 0.973037 0.612844
Si Si2 0.507914 0.217517 0.302481
Si Si3 0.847769 0.773680 0.657775
Si Si4 0.070410 0.950023 0.020191
Si Si5 0.250000 0.250000 0.750000
Si Si6 0.987628 0.153048 0.695408
Si Si7 0.347349 0.368309 0.690765
Si Si8 0.918242 0.141611 0.336016
O O1 0.206640 0.992616 0.407444
O O2 0.268006 0.963815 0.738222
O O3 0.155030 0.898269 0.611663
O O4 0.160093 0.045524 0.687364
O O5 0.433055 0.259883 0.339558
O O6 0.512574 0.147120 0.428534
O O7 0.575896 0.271813 0.328217
O O8 0.811930 0.693462 0.676766
O O9 0.832961 0.831652 0.501299
O O10 0.057521 0.901984 0.190565
O O11 0.067558 0.897023 0.850749
O O12 0.000000 0.000000 0.000000
O O13 0.289083 0.325548 0.809304
O O14 0.974999 0.128247 0.494615
O O15 0.071570 0.148977 0.744261
#
# Coordination Sequence:
#
# PCOD9545389 Si02
#       8
#     8   8   8   8   2   8   8   8
#     4  12  26  49  77 108 154 204 267 329 396 483
#     4  12  26  49  78 108 155 201 263 334 397 479
#     4  11  24  41  68 107 154 204 253 308 394 481
#     4  12  29  48  78 119 156 204 269 329 405 483
#     4  12  24  40  62 108 152 208 248 310 392 484
#     4  12  26  48  76 111 149 205 263 327 394 480
#     4  12  25  42  71 108 158 205 253 313 395 481
#     4  12  27  50  78 107 154 206 261 328 406 466
#
# _framework density 22.368431999999999
#
# number of rings (size 3 to 8) (size 9 to 14) (size 15 to 20)
#    0.000    0.138    6.897    2.483    3.862    2.207 
#    0.000    0.690    0.000    0.000    0.000    0.000 
#    0.000    0.000    0.000    0.000    0.000    0.000 
#
# Total GULP energy -323245.932664 kJ/mol
# GULP energy per Si atom -5573.205736 kJ/mol
# Density = 2.231752 g / cm^3
# Si number density = 22.368432 Si / 1000 Ang^3
#
#
#
# Elastic Constant Matrix: (Units=GPa)
#
#
# Indices 1 2 3 4 5 6 
#
# 1 98.0036 52.4388 19.1433 0.0000 0.0000 -7.0705
# 2 52.4388 98.0036 19.1433 0.0000 0.0000 7.0705
# 3 19.1433 19.1433 117.6188 0.0000 0.0000 0.0000
# 4 0.0000 0.0000 0.0000 11.6222 0.0000 0.0000
# 5 0.0000 0.0000 0.0000 0.0000 11.6222 0.0000
# 6 -7.0705 7.0705 0.0000 0.0000 0.0000 46.5563
#
#
#
# Elastic Compliance Matrix: (Units=1/GPa)
#
#
# Indices 1 2 3 4 5 6 
#
# 1 0.014983 -0.008049 -0.001129 0.000000 0.000000 0.003498
# 2 -0.008049 0.014983 -0.001129 0.000000 0.000000 -0.003498
# 3 -0.001129 -0.001129 0.008869 0.000000 0.000000 0.000000
# 4 0.000000 0.000000 0.000000 0.086042 0.000000 0.000000
# 5 0.000000 0.000000 0.000000 0.000000 0.086042 0.000000
# 6 0.003498 -0.003498 0.000000 0.000000 0.000000 0.022542
#
#
# Mechanical properties :
#
#
# Convention : Reuss Voigt Hill
#
# Bulk Modulus (GPa) = 54.87398 55.00853 54.94125
# Shear Modulus (GPa) = 19.21976 28.82019 24.01998
#
# Velocity S-wave (km/s) = 2.93445 3.59337 3.28050
# Velocity P-wave (km/s) = 6.00554 6.47007 6.24213
#
# Compressibility (1/GPa) = 0.01822357
#
# Stress axis : x y z
#
# Youngs Moduli (GPa) = 66.74085 66.74085 112.74700
#
# Poissons Ratio (x) = 0.53720 0.12725
# Poissons Ratio (y) = 0.53720 0.12725
# Poissons Ratio (z) = 0.07532 0.07532
#
# Static dielectric constant tensor:
#      x y z
#    x 1.849460 0.000000 0.000000 
#    y 0.000000 1.849460 0.000000 
#    z 0.000000 0.000000 1.964810 
# 
# From -- ./inp_files/1479.got.cif
#   From: 2010.05.17/outbox.cif.g08.bks.cpg/sg86_1_cif.got.tgz:1479.got - 2010.06.03 19:03:11.
