data_PCOD9545174
_publ_section_title
;
Structure prediction by ZEFSAII (Michael W. Deem and Ramdas Pophale) SiO2 
 PCOD9545174
Probable space group: P 42/N
;
_chemical_formula_sum "Si O2"
_cell_formula_units_Z 42
_cell_length_a 11.340141
_cell_length_b 11.340141
_cell_length_c 16.640576
_cell_angle_alpha 90.000000
_cell_angle_beta 90.000000
_cell_angle_gamma 90.000000
_cell_volume 2139.958070
_symmetry_space_group_name_H-M "P 42/N"
_symmetry_group_IT_number 86
_space_group.IT_coordinate_system_code '2'
_symmetry_cell_setting 'tetragonal'
loop_
_space_group_symop_operation_xyz
x,y,z
-y,1/2+x,1/2+z
1/2-x,1/2-y,z
1/2+y,-x,1/2+z
-x,-y,-z
y,1/2-x,1/2-z
1/2+x,1/2+y,-z
1/2-y,x,1/2-z
loop_
_atom_site_type_symbol
_atom_site_label
_atom_site_fract_x
_atom_site_fract_y
_atom_site_fract_z
Si Si1 0.052448 0.413659 0.815755
Si Si2 0.748506 0.890468 0.873077
Si Si3 0.872526 0.522300 0.710104
Si Si4 0.896226 0.422152 0.963799
Si Si5 0.176701 0.865097 0.367648
Si Si6 0.250000 0.250000 0.750000
O O1 0.109556 0.542970 0.836506
O O2 0.154867 0.320427 0.802782
O O3 0.972976 0.431340 0.736347
O O4 0.958066 0.372875 0.883509
O O5 0.750000 0.750000 0.892164
O O6 0.670405 0.915078 0.792978
O O7 0.879481 0.924469 0.847752
O O8 0.701521 0.981802 0.938726
O O9 0.759946 0.467874 0.666030
O O10 0.862280 0.334922 0.035316
O O11 0.000000 0.500000 0.000000
O O12 0.250000 0.750000 0.341121
#
# Coordination Sequence:
#
# PCOD9545174 Si02
#       6
#     8   8   8   8   8   2
#     4  10  22  41  63  92 119 168 208 260 316 375
#     4  11  17  32  63  96 120 156 211 267 304 366
#     4  11  18  36  66  94 121 154 223 268 306 364
#     4   9  21  39  55  86 129 161 195 243 325 376
#     4  11  22  42  61  89 132 165 201 264 330 380
#     4  12  24  44  60  84 124 156 218 252 312 380
#
# _framework density 19.626553999999999
#
# number of rings (size 3 to 8) (size 9 to 14) (size 15 to 20)
#    0.000    1.524    3.810    3.429    0.000    0.000 
#   17.143    2.857    0.000    0.000    0.000    0.000 
#    0.000    0.000    0.000    0.000    0.000    0.000 
#
# Total GULP energy -234079.452861 kJ/mol
# GULP energy per Si atom -5573.320306 kJ/mol
# Density = 1.958188 g / cm^3
# Si number density = 19.626554 Si / 1000 Ang^3
#
#
#
# Elastic Constant Matrix: (Units=GPa)
#
#
# Indices 1 2 3 4 5 6 
#
# 1 85.0778 37.9695 33.9412 0.0000 0.0000 -0.1154
# 2 37.9695 85.0778 33.9412 0.0000 0.0000 0.1154
# 3 33.9412 33.9412 69.2783 0.0000 0.0000 0.0000
# 4 0.0000 0.0000 0.0000 29.6016 0.0000 0.0000
# 5 0.0000 0.0000 0.0000 0.0000 29.6016 0.0000
# 6 -0.1154 0.1154 0.0000 0.0000 0.0000 46.5605
#
#
#
# Elastic Compliance Matrix: (Units=1/GPa)
#
#
# Indices 1 2 3 4 5 6 
#
# 1 0.016183 -0.005045 -0.005456 0.000000 0.000000 0.000053
# 2 -0.005045 0.016183 -0.005456 0.000000 0.000000 -0.000053
# 3 -0.005456 -0.005456 0.019781 0.000000 0.000000 0.000000
# 4 0.000000 0.000000 0.000000 0.033782 0.000000 0.000000
# 5 0.000000 0.000000 0.000000 0.000000 0.033782 0.000000
# 6 0.000053 -0.000053 0.000000 0.000000 0.000000 0.021478
#
#
# Mechanical properties :
#
#
# Convention : Reuss Voigt Hill
#
# Bulk Modulus (GPa) = 49.43213 50.12639 49.77926
# Shear Modulus (GPa) = 27.80140 30.05822 28.92981
#
# Velocity S-wave (km/s) = 3.76775 3.91769 3.84345
# Velocity P-wave (km/s) = 6.64597 6.78675 6.71673
#
# Compressibility (1/GPa) = 0.02022976
#
# Stress axis : x y z
#
# Youngs Moduli (GPa) = 61.79508 61.79508 50.55370
#
# Poissons Ratio (x) = 0.31178 0.27584
# Poissons Ratio (y) = 0.31178 0.27584
# Poissons Ratio (z) = 0.33718 0.33718
#
# Static dielectric constant tensor:
#      x y z
#    x 1.691590 0.000000 0.000000 
#    y 0.000000 1.691590 0.000000 
#    z 0.000000 0.000000 1.750160 
# 
# From -- ./inp_files/3457.got.cif
#   From: 2010.05.17/outbox.cif.g08.bks.cpg/sg86_2_cif.got.tgz:3457.got - 2010.06.03 19:03:11.
