data_PCOD9545266
_publ_section_title
;
Structure prediction by ZEFSAII (Michael W. Deem and Ramdas Pophale) SiO2 
 PCOD9545266
Probable space group: P 42/N
;
_chemical_formula_sum "Si O2"
_cell_formula_units_Z 40
_cell_length_a 7.053003
_cell_length_b 7.053003
_cell_length_c 28.519664
_cell_angle_alpha 90.000000
_cell_angle_beta 90.000000
_cell_angle_gamma 90.000000
_cell_volume 1418.706445
_symmetry_space_group_name_H-M "P 42/N"
_symmetry_group_IT_number 86
_space_group.IT_coordinate_system_code '2'
_symmetry_cell_setting 'tetragonal'
loop_
_space_group_symop_operation_xyz
x,y,z
-y,1/2+x,1/2+z
1/2-x,1/2-y,z
1/2+y,-x,1/2+z
-x,-y,-z
y,1/2-x,1/2-z
1/2+x,1/2+y,-z
1/2-y,x,1/2-z
loop_
_atom_site_type_symbol
_atom_site_label
_atom_site_fract_x
_atom_site_fract_y
_atom_site_fract_z
Si Si1 0.532117 0.111573 0.296021
Si Si2 0.495897 0.111150 0.624598
Si Si3 0.730625 0.477696 0.454342
Si Si4 0.290274 0.526645 0.440458
Si Si5 0.093982 0.964538 0.307269
O O1 0.629599 0.998716 0.337493
O O2 0.316714 0.026142 0.300335
O O3 0.512458 0.333120 0.308012
O O4 0.615124 0.061763 0.245394
O O5 0.487184 0.499361 0.560129
O O6 0.368950 0.097168 0.578228
O O7 0.667839 0.972590 0.604850
O O8 0.750000 0.250000 0.451730
O O9 0.770728 0.539560 0.508094
O O10 0.250000 0.750000 0.439347
O O11 0.448721 0.692099 0.347956
#
# Coordination Sequence:
#
# PCOD9545266 Si02
#       5
#     8   8   8   8   8
#     4   9  20  42  70 103 152 203 252 317 390 460
#     4  12  23  43  79 113 146 202 269 326 393 477
#     4  10  25  47  74 113 158 205 260 329 412 496
#     4  10  23  47  74 108 158 207 256 325 408 493
#     4   9  20  42  70 104 150 204 254 313 390 468
#
# _framework density 28.194701999999999
#
# number of rings (size 3 to 8) (size 9 to 14) (size 15 to 20)
#    0.000    2.000    0.000    3.600    0.000    6.400 
#    0.000   22.000    0.000    8.400    0.000    0.000 
#    0.000    0.000    0.000    0.000    0.000    0.000 
#
# Total GULP energy -223632.834850 kJ/mol
# GULP energy per Si atom -5590.820871 kJ/mol
# Density = 2.813053 g / cm^3
# Si number density = 28.194702 Si / 1000 Ang^3
#
#
#
# Elastic Constant Matrix: (Units=GPa)
#
#
# Indices 1 2 3 4 5 6 
#
# 1 154.9255 48.3952 62.7820 0.0000 0.0000 2.3613
# 2 48.3952 154.9255 62.7820 0.0000 0.0000 -2.3613
# 3 62.7820 62.7820 279.4114 0.0000 0.0000 0.0000
# 4 0.0000 0.0000 0.0000 3.8450 0.0000 0.0000
# 5 0.0000 0.0000 0.0000 0.0000 3.8450 0.0000
# 6 2.3613 -2.3613 0.0000 0.0000 0.0000 40.7230
#
#
#
# Elastic Compliance Matrix: (Units=1/GPa)
#
#
# Indices 1 2 3 4 5 6 
#
# 1 0.007561 -0.001850 -0.001283 0.000000 0.000000 -0.000546
# 2 -0.001850 0.007561 -0.001283 0.000000 0.000000 0.000546
# 3 -0.001283 -0.001283 0.004156 0.000000 0.000000 0.000000
# 4 0.000000 0.000000 0.000000 0.260080 0.000000 0.000000
# 5 0.000000 0.000000 0.000000 0.000000 0.260080 0.000000
# 6 -0.000546 0.000546 0.000000 0.000000 0.000000 0.024619
#
#
# Mechanical properties :
#
#
# Convention : Reuss Voigt Hill
#
# Bulk Modulus (GPa) = 95.74458 104.13119 99.93788
# Shear Modulus (GPa) = 8.67496 37.36947 23.02222
#
# Velocity S-wave (km/s) = 1.75599 3.64456 2.86062
# Velocity P-wave (km/s) = 6.17603 7.39754 6.81421
#
# Compressibility (1/GPa) = 0.01044446
#
# Stress axis : x y z
#
# Youngs Moduli (GPa) = 132.25791 132.25791 240.63943
#
# Poissons Ratio (x) = 0.24470 0.30878
# Poissons Ratio (y) = 0.24470 0.30878
# Poissons Ratio (z) = 0.16971 0.16971
#
# Static dielectric constant tensor:
#      x y z
#    x 2.332310 0.000000 0.000000 
#    y 0.000000 2.332310 0.000000 
#    z 0.000000 0.000000 2.315800 
# 
# From -- ./inp_files/4474.got.cif
#   From: 2010.05.17/outbox.cif.g08.bks.cpg/sg86_3_cif.got.tgz:4474.got - 2010.06.03 19:03:11.
