data_PCOD9545741
_publ_section_title
;
Structure prediction by ZEFSAII (Michael W. Deem and Ramdas Pophale) SiO2 
 PCOD9545741
Probable space group: I 4/M
;
_chemical_formula_sum "Si O2"
_cell_formula_units_Z 104
_cell_length_a 17.132676
_cell_length_b 17.132676
_cell_length_c 17.995670
_cell_angle_alpha 90.000000
_cell_angle_beta 90.000000
_cell_angle_gamma 90.000000
_cell_volume 5282.243586
_symmetry_space_group_name_H-M "I 4/M"
_symmetry_group_IT_number 87
_symmetry_cell_setting 'tetragonal'
loop_
_space_group_symop_operation_xyz
x,y,z
-y,x,z
-x,-y,z
y,-x,z
-x,-y,-z
y,-x,-z
x,y,-z
-y,x,-z
1/2+x,1/2+y,1/2+z
1/2-y,1/2+x,1/2+z
1/2-x,1/2-y,1/2+z
1/2+y,1/2-x,1/2+z
1/2-x,1/2-y,1/2-z
1/2+y,1/2-x,1/2-z
1/2+x,1/2+y,1/2-z
1/2-y,1/2+x,1/2-z
loop_
_atom_site_type_symbol
_atom_site_label
_atom_site_fract_x
_atom_site_fract_y
_atom_site_fract_z
Si Si1 0.474863 0.373115 0.000000
Si Si2 0.924293 0.408095 0.222932
Si Si3 0.642496 0.230122 0.196700
Si Si4 0.558129 0.619853 0.294872
Si Si5 0.466791 0.275911 0.850772
Si Si6 0.855193 0.638390 0.586832
Si Si7 0.802311 0.805550 0.851745
O O1 0.559106 0.411864 0.000000
O O2 0.466167 0.325025 0.074363
O O3 0.899957 0.496500 0.231304
O O4 0.864062 0.353760 0.264729
O O5 0.934463 0.380231 0.138440
O O6 0.557409 0.252594 0.165754
O O7 0.714607 0.221043 0.140996
O O8 0.667775 0.283222 0.266619
O O9 0.465402 0.600034 0.300207
O O10 0.560352 0.669466 0.217710
O O11 0.606303 0.671532 0.355704
O O12 0.406816 0.205851 0.871747
O O13 0.874046 0.634390 0.500000
O O14 0.762678 0.651311 0.598599
#
# Coordination Sequence:
#
# PCOD9545741 Si02
#       7
#     8  16  16  16  16  16  16
#     4  11  26  38  52  84 137 188 206 240 319 400
#     4  10  20  37  63  91 120 161 215 266 320 379
#     4  10  20  35  59  90 121 168 217 271 308 373
#     4  11  22  37  63  98 128 162 221 286 328 376
#     4  12  21  37  60  91 135 173 217 262 322 391
#     4  11  24  41  62  92 132 173 210 264 334 399
#     4  10  22  38  60  89 124 169 222 267 319 382
#
# _framework density 19.688603000000001
#
# number of rings (size 3 to 8) (size 9 to 14) (size 15 to 20)
#    0.000    1.308    3.846    3.692    2.154    1.231 
#    0.000    1.538    1.692    2.769    0.000    1.077 
#    0.000    0.000    0.000    0.000    0.000    0.000 
#
# Total GULP energy -289590.658909 kJ/mol
# GULP energy per Si atom -5569.051133 kJ/mol
# Density = 1.964379 g / cm^3
# Si number density = 19.688603 Si / 1000 Ang^3
#
#
#
# Elastic Constant Matrix: (Units=GPa)
#
#
# Indices 1 2 3 4 5 6 
#
# 1 52.2628 18.1849 17.1435 0.0000 0.0000 -8.7692
# 2 18.1849 52.2628 17.1435 0.0000 0.0000 8.7692
# 3 17.1435 17.1435 54.0477 0.0000 0.0000 0.0000
# 4 0.0000 0.0000 0.0000 19.1927 0.0000 0.0000
# 5 0.0000 0.0000 0.0000 0.0000 19.1927 0.0000
# 6 -8.7692 8.7692 0.0000 0.0000 0.0000 32.4532
#
#
#
# Elastic Compliance Matrix: (Units=1/GPa)
#
#
# Indices 1 2 3 4 5 6 
#
# 1 0.025435 -0.008649 -0.005324 0.000000 0.000000 0.009210
# 2 -0.008649 0.025435 -0.005324 0.000000 0.000000 -0.009210
# 3 -0.005324 -0.005324 0.021880 0.000000 0.000000 0.000000
# 4 0.000000 0.000000 0.000000 0.052103 0.000000 0.000000
# 5 0.000000 0.000000 0.000000 0.000000 0.052103 0.000000
# 6 0.009210 -0.009210 0.000000 0.000000 0.000000 0.035791
#
#
# Mechanical properties :
#
#
# Convention : Reuss Voigt Hill
#
# Bulk Modulus (GPa) = 29.27855 29.27967 29.27911
# Shear Modulus (GPa) = 19.03102 21.24117 20.13610
#
# Velocity S-wave (km/s) = 3.11239 3.28816 3.20148
# Velocity P-wave (km/s) = 5.27438 5.41476 5.34503
#
# Compressibility (1/GPa) = 0.03415470
#
# Stress axis : x y z
#
# Youngs Moduli (GPa) = 39.31519 39.31520 45.70395
#
# Poissons Ratio (x) = 0.34004 0.24335
# Poissons Ratio (y) = 0.34004 0.24335
# Poissons Ratio (z) = 0.20933 0.20933
#
# Static dielectric constant tensor:
#      x y z
#    x 1.785310 0.000000 0.000000 
#    y 0.000000 1.785310 0.000000 
#    z 0.000000 0.000000 0.639270 
# 
# From -- ./inp_files/4523.got.cif
#   From: 2010.05.17/outbox.cif.g08.bks.cpg/sg87_3_cif.got.tgz:4523.got - 2010.06.03 19:07:00.
