data_PCOD9545479
_publ_section_title
;
Structure prediction by ZEFSAII (Michael W. Deem and Ramdas Pophale) SiO2 
 PCOD9545479
Probable space group: I 4/M
;
_chemical_formula_sum "Si O2"
_cell_formula_units_Z 108
_cell_length_a 15.414670
_cell_length_b 15.414670
_cell_length_c 30.322231
_cell_angle_alpha 90.000000
_cell_angle_beta 90.000000
_cell_angle_gamma 90.000000
_cell_volume 7204.927505
_symmetry_space_group_name_H-M "I 4/M"
_symmetry_group_IT_number 87
_symmetry_cell_setting 'tetragonal'
loop_
_space_group_symop_operation_xyz
x,y,z
-y,x,z
-x,-y,z
y,-x,z
-x,-y,-z
y,-x,-z
x,y,-z
-y,x,-z
1/2+x,1/2+y,1/2+z
1/2-y,1/2+x,1/2+z
1/2-x,1/2-y,1/2+z
1/2+y,1/2-x,1/2+z
1/2-x,1/2-y,1/2-z
1/2+y,1/2-x,1/2-z
1/2+x,1/2+y,1/2-z
1/2-y,1/2+x,1/2-z
loop_
_atom_site_type_symbol
_atom_site_label
_atom_site_fract_x
_atom_site_fract_y
_atom_site_fract_z
Si Si1 0.645191 0.881613 0.225990
Si Si2 0.000000 0.500000 0.179960
Si Si3 0.000000 0.000000 0.813980
Si Si4 0.194949 0.993480 0.207291
Si Si5 0.294932 0.581987 0.804138
Si Si6 0.344101 0.886480 0.829070
Si Si7 0.408630 0.713194 0.857729
Si Si8 0.946845 0.136536 0.451290
O O1 0.562169 0.935593 0.208074
O O2 0.642483 0.788503 0.202911
O O3 0.631721 0.867306 0.277751
O O4 0.734603 0.931303 0.217905
O O5 0.945060 0.574314 0.154670
O O6 0.025592 0.895766 0.811397
O O7 0.177667 0.947834 0.254961
O O8 0.251257 0.932989 0.174301
O O9 0.368168 0.632214 0.831125
O O10 0.267439 0.498315 0.832379
O O11 0.346387 0.795487 0.853293
O O12 0.424708 0.691289 0.908452
O O13 0.931677 0.175548 0.500000
O O14 0.047248 0.107603 0.448931
#
# Coordination Sequence:
#
# PCOD9545479 Si02
#       8
#    16   8   4  16  16  16  16  16
#     4  10  18  32  46  65  89 127 165 207 242 279
#     4  10  15  30  50  64  87 118 167 200 242 274
#     4  12  24  36  40  56  88 140 178 192 244 280
#     4  10  22  34  46  60  93 139 170 206 241 284
#     4  11  22  30  46  69  96 126 165 209 240 277
#     4  10  19  30  49  67  90 125 166 207 243 281
#     4  12  20  31  47  74  97 122 164 206 238 284
#     4   9  18  33  49  66  93 129 160 190 239 297
#
# _framework density 14.989743000000001
#
# number of rings (size 3 to 8) (size 9 to 14) (size 15 to 20)
#    0.000    1.630    4.444    3.556    2.074    1.481 
#    0.000    0.000    0.000    0.000    0.000    0.519 
#    0.000    0.000    0.000    0.667    0.000    0.148 
#
# Total GULP energy -300622.484683 kJ/mol
# GULP energy per Si atom -5567.083050 kJ/mol
# Density = 1.495563 g / cm^3
# Si number density = 14.989743 Si / 1000 Ang^3
#
#
#
# Elastic Constant Matrix: (Units=GPa)
#
#
# Indices 1 2 3 4 5 6 
#
# 1 55.7414 -1.5839 11.6995 0.0000 0.0000 -1.9669
# 2 -1.5839 55.7414 11.6995 0.0000 0.0000 1.9669
# 3 11.6995 11.6995 54.4723 0.0000 0.0000 0.0000
# 4 0.0000 0.0000 0.0000 13.0004 0.0000 0.0000
# 5 0.0000 0.0000 0.0000 0.0000 13.0004 0.0000
# 6 -1.9669 1.9669 0.0000 0.0000 0.0000 16.8560
#
#
#
# Elastic Compliance Matrix: (Units=1/GPa)
#
#
# Indices 1 2 3 4 5 6 
#
# 1 0.018969 0.001384 -0.004371 0.000000 0.000000 0.002052
# 2 0.001384 0.018969 -0.004371 0.000000 0.000000 -0.002052
# 3 -0.004371 -0.004371 0.020236 0.000000 0.000000 0.000000
# 4 0.000000 0.000000 0.000000 0.076920 0.000000 0.000000
# 5 0.000000 0.000000 0.000000 0.000000 0.076920 0.000000
# 6 0.002052 -0.002052 0.000000 0.000000 0.000000 0.059805
#
#
# Mechanical properties :
#
#
# Convention : Reuss Voigt Hill
#
# Bulk Modulus (GPa) = 23.01146 23.28726 23.14936
# Shear Modulus (GPa) = 16.61001 18.18072 17.39536
#
# Velocity S-wave (km/s) = 3.33241 3.48642 3.41028
# Velocity P-wave (km/s) = 5.49467 5.63702 5.56630
#
# Compressibility (1/GPa) = 0.04345660
#
# Stress axis : x y z
#
# Youngs Moduli (GPa) = 52.71692 52.71692 49.41750
#
# Poissons Ratio (x) = -0.07297 0.21603
# Poissons Ratio (y) = -0.07297 0.21603
# Poissons Ratio (z) = 0.23045 0.23045
#
# Static dielectric constant tensor:
#      x y z
#    x 1.539400 0.000000 0.000000 
#    y 0.000000 1.539400 0.000000 
#    z 0.000000 0.000000 1.463960 
# 
# From -- ./inp_files/6733.got.cif
#   From: 2010.05.17/outbox.cif.g08.bks.cpg/sg87_4_cif.got.tgz:6733.got - 2010.06.03 19:07:00.
