data_PCOD9545248
_publ_section_title
;
Structure prediction by ZEFSAII (Michael W. Deem and Ramdas Pophale) SiO2 
 PCOD9545248
Probable space group: P 42/N
;
_chemical_formula_sum "Si O2"
_cell_formula_units_Z 24
_cell_length_a 12.968935
_cell_length_b 12.968935
_cell_length_c 6.971340
_cell_angle_alpha 90.000000
_cell_angle_beta 90.000000
_cell_angle_gamma 90.000000
_cell_volume 1172.532506
_symmetry_space_group_name_H-M "P 42/N"
_symmetry_group_IT_number 86
_space_group.IT_coordinate_system_code '2'
_symmetry_cell_setting 'tetragonal'
loop_
_space_group_symop_operation_xyz
x,y,z
-y,1/2+x,1/2+z
1/2-x,1/2-y,z
1/2+y,-x,1/2+z
-x,-y,-z
y,1/2-x,1/2-z
1/2+x,1/2+y,-z
1/2-y,x,1/2-z
loop_
_atom_site_type_symbol
_atom_site_label
_atom_site_fract_x
_atom_site_fract_y
_atom_site_fract_z
Si Si1 0.066150 0.107405 0.513003
Si Si2 0.463660 0.603796 0.109538
Si Si3 0.767122 0.011151 0.700533
O O1 0.021914 0.198094 0.380975
O O2 0.175387 0.079968 0.417177
O O3 0.051987 0.134195 0.736530
O O4 0.000000 0.000000 0.500000
O O5 0.358823 0.582156 0.223666
O O6 0.500000 0.500000 0.000000
O O7 0.441568 0.689944 0.953070
#
# Coordination Sequence:
#
# PCOD9545248 Si02
#       3
#     8   8   8
#     4  10  23  43  68  98 140 179 235 292 342 414
#     4  11  24  45  70 100 147 182 238 297 347 420
#     4  11  23  44  73  99 142 188 233 293 358 408
#
# _framework density 20.468516000000001
#
# number of rings (size 3 to 8) (size 9 to 14) (size 15 to 20)
#    0.000    1.333    6.667    0.000    4.667    0.667 
#    0.000   20.000    0.000    0.000    0.000    0.000 
#    0.000    0.000    0.000    0.000    0.000    0.000 
#
# Total GULP energy -133841.131574 kJ/mol
# GULP energy per Si atom -5576.713816 kJ/mol
# Density = 2.042193 g / cm^3
# Si number density = 20.468516 Si / 1000 Ang^3
#
#
#
# Elastic Constant Matrix: (Units=GPa)
#
#
# Indices 1 2 3 4 5 6 
#
# 1 76.3380 22.9192 49.6236 0.0000 0.0000 -8.7608
# 2 22.9192 76.3380 49.6236 0.0000 0.0000 8.7608
# 3 49.6236 49.6236 172.9767 0.0000 0.0000 0.0000
# 4 0.0000 0.0000 0.0000 51.4623 0.0000 0.0000
# 5 0.0000 0.0000 0.0000 0.0000 51.4623 0.0000
# 6 -8.7608 8.7608 0.0000 0.0000 0.0000 7.4386
#
#
#
# Elastic Compliance Matrix: (Units=1/GPa)
#
#
# Indices 1 2 3 4 5 6 
#
# 1 0.022316 -0.008188 -0.004053 0.000000 0.000000 0.035926
# 2 -0.008188 0.022316 -0.004053 0.000000 0.000000 -0.035926
# 3 -0.004053 -0.004053 0.008106 0.000000 0.000000 0.000000
# 4 0.000000 0.000000 0.000000 0.019432 0.000000 0.000000
# 5 0.000000 0.000000 0.000000 0.000000 0.019432 0.000000
# 6 0.035926 -0.035926 0.000000 0.000000 0.000000 0.219058
#
#
# Mechanical properties :
#
#
# Convention : Reuss Voigt Hill
#
# Bulk Modulus (GPa) = 49.62860 63.33171 56.48015
# Shear Modulus (GPa) = 14.28722 35.63840 24.96281
#
# Velocity S-wave (km/s) = 2.64485 4.17722 3.49602
# Velocity P-wave (km/s) = 5.79879 7.36707 6.62947
#
# Compressibility (1/GPa) = 0.02014967
#
# Stress axis : x y z
#
# Youngs Moduli (GPa) = 44.81185 44.81185 123.35815
#
# Poissons Ratio (x) = 0.36693 0.49995
# Poissons Ratio (y) = 0.36693 0.49995
# Poissons Ratio (z) = 0.18161 0.18161
#
# Static dielectric constant tensor:
#      x y z
#    x 1.732260 0.000000 0.000000 
#    y 0.000000 1.732260 0.000000 
#    z 0.000000 0.000000 1.889870 
# 
# From -- ./inp_files/173.got.cif
#   From: 2010.05.17/outbox.cif.g08.bks.cpg/sg86_1_cif.got.tgz:173.got - 2010.06.03 19:03:11.
