data_PCOD9545564
_publ_section_title
;
Structure prediction by ZEFSAII (Michael W. Deem and Ramdas Pophale) SiO2 
 PCOD9545564
Probable space group: I 4/M
;
_chemical_formula_sum "Si O2"
_cell_formula_units_Z 112
_cell_length_a 14.623370
_cell_length_b 14.623370
_cell_length_c 29.585395
_cell_angle_alpha 90.000000
_cell_angle_beta 90.000000
_cell_angle_gamma 90.000000
_cell_volume 6326.628148
_symmetry_space_group_name_H-M "I 4/M"
_symmetry_group_IT_number 87
_symmetry_cell_setting 'tetragonal'
loop_
_space_group_symop_operation_xyz
x,y,z
-y,x,z
-x,-y,z
y,-x,z
-x,-y,-z
y,-x,-z
x,y,-z
-y,x,-z
1/2+x,1/2+y,1/2+z
1/2-y,1/2+x,1/2+z
1/2-x,1/2-y,1/2+z
1/2+y,1/2-x,1/2+z
1/2-x,1/2-y,1/2-z
1/2+y,1/2-x,1/2-z
1/2+x,1/2+y,1/2-z
1/2-y,1/2+x,1/2-z
loop_
_atom_site_type_symbol
_atom_site_label
_atom_site_fract_x
_atom_site_fract_y
_atom_site_fract_z
Si Si1 0.723295 0.017362 0.050511
Si Si2 0.695992 0.783865 0.858609
Si Si3 0.362366 0.022386 0.766946
Si Si4 0.705740 0.660555 0.727996
Si Si5 0.394044 0.020346 0.134876
Si Si6 0.624738 0.413273 0.193889
Si Si7 0.811715 0.209966 0.949168
O O1 0.790007 0.103143 0.054068
O O2 0.652224 0.022269 0.091115
O O3 0.772788 0.919915 0.055143
O O4 0.681481 0.019891 0.000000
O O5 0.777201 0.820802 0.825111
O O6 0.629747 0.871734 0.864055
O O7 0.641946 0.700005 0.835477
O O8 0.737125 0.763891 0.907920
O O9 0.442503 0.100193 0.765139
O O10 0.269670 0.075160 0.757632
O O11 0.356962 0.982520 0.817371
O O12 0.750000 0.750000 0.750000
O O13 0.609868 0.646346 0.753150
O O14 0.500000 0.000000 0.134081
O O15 0.622822 0.521600 0.184974
O O16 0.784285 0.240477 0.000000
#
# Coordination Sequence:
#
# PCOD9545564 Si02
#       7
#    16  16  16  16  16  16  16
#     4   9  19  34  54  78 109 143 179 223 270 332
#     4   9  20  37  54  82 108 143 186 228 279 327
#     4  10  19  31  50  76 101 135 176 218 263 319
#     4   9  20  33  50  73 105 138 177 221 271 309
#     4  10  19  32  51  80 110 138 179 226 280 321
#     4  10  22  38  56  76 107 151 190 228 269 322
#     4   9  18  36  57  82 112 143 178 220 276 333
#
# _framework density 17.702953999999998
#
# number of rings (size 3 to 8) (size 9 to 14) (size 15 to 20)
#    0.000    2.571    1.429    0.000    6.000    4.000 
#    5.143    1.429    0.000    0.857    0.000    1.000 
#    0.000    0.000    0.000    0.000    0.000    0.000 
#
# Total GULP energy -311935.682606 kJ/mol
# GULP energy per Si atom -5570.280047 kJ/mol
# Density = 1.766266 g / cm^3
# Si number density = 17.702954 Si / 1000 Ang^3
#
#
#
# Elastic Constant Matrix: (Units=GPa)
#
#
# Indices 1 2 3 4 5 6 
#
# 1 55.8423 16.4290 35.9679 0.0000 0.0000 -7.1554
# 2 16.4290 55.8423 35.9679 0.0000 0.0000 7.1554
# 3 35.9679 35.9679 118.6883 0.0000 0.0000 0.0000
# 4 0.0000 0.0000 0.0000 24.2809 0.0000 0.0000
# 5 0.0000 0.0000 0.0000 0.0000 24.2809 0.0000
# 6 -7.1554 7.1554 0.0000 0.0000 0.0000 21.0387
#
#
#
# Elastic Compliance Matrix: (Units=1/GPa)
#
#
# Indices 1 2 3 4 5 6 
#
# 1 0.024380 -0.004567 -0.006004 0.000000 0.000000 0.009845
# 2 -0.004567 0.024380 -0.006004 0.000000 0.000000 -0.009845
# 3 -0.006004 -0.006004 0.012065 0.000000 0.000000 0.000000
# 4 0.000000 0.000000 0.000000 0.041185 0.000000 0.000000
# 5 0.000000 0.000000 0.000000 0.000000 0.041185 0.000000
# 6 0.009845 -0.009845 0.000000 0.000000 0.000000 0.054228
#
#
# Mechanical properties :
#
#
# Convention : Reuss Voigt Hill
#
# Bulk Modulus (GPa) = 36.13528 45.23362 40.68445
# Shear Modulus (GPa) = 20.85094 23.38731 22.11912
#
# Velocity S-wave (km/s) = 3.43567 3.63863 3.53860
# Velocity P-wave (km/s) = 6.01620 6.57722 6.30296
#
# Compressibility (1/GPa) = 0.02767379
#
# Stress axis : x y z
#
# Youngs Moduli (GPa) = 41.01720 41.01720 82.88728
#
# Poissons Ratio (x) = 0.18732 0.49768
# Poissons Ratio (y) = 0.18732 0.49768
# Poissons Ratio (z) = 0.24628 0.24628
#
# Static dielectric constant tensor:
#      x y z
#    x 1.608450 0.000000 0.000000 
#    y 0.000000 1.608450 0.000000 
#    z 0.000000 0.000000 1.644050 
# 
# From -- ./inp_files/6697.got.cif
#   From: 2010.05.17/outbox.cif.g08.bks.cpg/sg87_4_cif.got.tgz:6697.got - 2010.06.03 19:07:00.
