data_PCOD9545424
_publ_section_title
;
Structure prediction by ZEFSAII (Michael W. Deem and Ramdas Pophale) SiO2 
 PCOD9545424
Probable space group: P 42/N
;
_chemical_formula_sum "Si O2"
_cell_formula_units_Z 34
_cell_length_a 10.238056
_cell_length_b 10.238056
_cell_length_c 12.974969
_cell_angle_alpha 90.000000
_cell_angle_beta 90.000000
_cell_angle_gamma 90.000000
_cell_volume 1360.007584
_symmetry_space_group_name_H-M "P 42/N"
_symmetry_group_IT_number 86
_space_group.IT_coordinate_system_code '2'
_symmetry_cell_setting 'tetragonal'
loop_
_space_group_symop_operation_xyz
x,y,z
-y,1/2+x,1/2+z
1/2-x,1/2-y,z
1/2+y,-x,1/2+z
-x,-y,-z
y,1/2-x,1/2-z
1/2+x,1/2+y,-z
1/2-y,x,1/2-z
loop_
_atom_site_type_symbol
_atom_site_label
_atom_site_fract_x
_atom_site_fract_y
_atom_site_fract_z
Si Si1 0.452455 0.132980 0.115145
Si Si2 0.701708 0.007777 0.431787
Si Si3 0.750000 0.750000 0.750000
Si Si4 0.488983 0.207723 0.499576
Si Si5 0.288196 0.901448 0.782596
O O1 0.377430 0.244373 0.179712
O O2 0.557730 0.076719 0.194173
O O3 0.533160 0.191306 0.019241
O O4 0.336557 0.047189 0.065350
O O5 0.587159 0.115295 0.436707
O O6 0.753631 0.014599 0.316247
O O7 0.640734 0.871509 0.468663
O O8 0.555856 0.225964 0.610197
O O9 0.250000 0.750000 0.763432
#
# Coordination Sequence:
#
# PCOD9545424 Si02
#       5
#     8   8   2   8   8
#     4  12  25  49  75 107 147 197 249 314 379 462
#     4  11  26  47  73 107 148 187 254 315 366 460
#     4  12  24  48  80 106 140 204 256 296 400 454
#     4  11  25  49  72 107 145 193 251 313 381 456
#     4  12  28  44  75 106 152 200 247 313 391 451
#
# _framework density 24.999858
#
# number of rings (size 3 to 8) (size 9 to 14) (size 15 to 20)
#    0.000    0.471    4.706    2.118    9.882    1.882 
#    0.000    0.000    0.000    0.000    0.000    0.000 
#    0.000    0.000    0.000    0.000    0.000    0.000 
#
# Total GULP energy -190428.940917 kJ/mol
# GULP energy per Si atom -5600.851203 kJ/mol
# Density = 2.494296 g / cm^3
# Si number density = 24.999858 Si / 1000 Ang^3
#
#
#
# Elastic Constant Matrix: (Units=GPa)
#
#
# Indices 1 2 3 4 5 6 
#
# 1 68.1649 31.9121 37.8637 0.0000 0.0000 5.0550
# 2 31.9121 68.1649 37.8637 0.0000 0.0000 -5.0550
# 3 37.8637 37.8637 99.3408 0.0000 0.0000 0.0000
# 4 0.0000 0.0000 0.0000 27.6194 0.0000 0.0000
# 5 0.0000 0.0000 0.0000 0.0000 27.6194 0.0000
# 6 5.0550 -5.0550 0.0000 0.0000 0.0000 45.1774
#
#
#
# Elastic Compliance Matrix: (Units=1/GPa)
#
#
# Indices 1 2 3 4 5 6 
#
# 1 0.021257 -0.007215 -0.005352 0.000000 0.000000 -0.003186
# 2 -0.007215 0.021257 -0.005352 0.000000 0.000000 0.003186
# 3 -0.005352 -0.005352 0.014146 0.000000 0.000000 0.000000
# 4 0.000000 0.000000 0.000000 0.036206 0.000000 0.000000
# 5 0.000000 0.000000 0.000000 0.000000 0.036206 0.000000
# 6 -0.003186 0.003186 0.000000 0.000000 0.000000 0.022848
#
#
# Mechanical properties :
#
#
# Convention : Reuss Voigt Hill
#
# Bulk Modulus (GPa) = 48.02599 50.10553 49.06576
# Shear Modulus (GPa) = 25.68030 28.61864 27.14947
#
# Velocity S-wave (km/s) = 3.20850 3.38709 3.29900
# Velocity P-wave (km/s) = 5.74266 5.94830 5.84639
#
# Compressibility (1/GPa) = 0.02082206
#
# Stress axis : x y z
#
# Youngs Moduli (GPa) = 47.04245 47.04245 70.68965
#
# Poissons Ratio (x) = 0.33942 0.37835
# Poissons Ratio (y) = 0.33942 0.37835
# Poissons Ratio (z) = 0.25178 0.25178
#
# Static dielectric constant tensor:
#      x y z
#    x 2.019600 0.000000 0.000000 
#    y 0.000000 2.019600 0.000000 
#    z 0.000000 0.000000 1.892980 
# 
# From -- ./inp_files/1949.got.cif
#   From: 2010.05.17/outbox.cif.g08.bks.cpg/sg86_1_cif.got.tgz:1949.got - 2010.06.03 19:03:11.
