data_PCOD9545237
_publ_section_title
;
Structure prediction by ZEFSAII (Michael W. Deem and Ramdas Pophale) SiO2 
 PCOD9545237
Probable space group: P 42/N
;
_chemical_formula_sum "Si O2"
_cell_formula_units_Z 40
_cell_length_a 10.078171
_cell_length_b 10.078171
_cell_length_c 22.181024
_cell_angle_alpha 90.000000
_cell_angle_beta 90.000000
_cell_angle_gamma 90.000000
_cell_volume 2252.916198
_symmetry_space_group_name_H-M "P 42/N"
_symmetry_group_IT_number 86
_space_group.IT_coordinate_system_code '2'
_symmetry_cell_setting 'tetragonal'
loop_
_space_group_symop_operation_xyz
x,y,z
-y,1/2+x,1/2+z
1/2-x,1/2-y,z
1/2+y,-x,1/2+z
-x,-y,-z
y,1/2-x,1/2-z
1/2+x,1/2+y,-z
1/2-y,x,1/2-z
loop_
_atom_site_type_symbol
_atom_site_label
_atom_site_fract_x
_atom_site_fract_y
_atom_site_fract_z
Si Si1 0.591427 0.771379 0.672078
Si Si2 0.345529 0.375529 0.036478
Si Si3 0.873509 0.345608 0.548648
Si Si4 0.487830 0.006616 0.230537
Si Si5 0.767886 0.094699 0.187799
O O1 0.750000 0.750000 0.680180
O O2 0.572933 0.819484 0.604204
O O3 0.520952 0.632270 0.683821
O O4 0.537919 0.876273 0.720602
O O5 0.250000 0.250000 0.025805
O O6 0.500956 0.336498 0.035972
O O7 0.319405 0.494310 0.989980
O O8 0.750000 0.250000 0.533592
O O9 0.905534 0.321681 0.619368
O O10 0.625738 0.027373 0.196864
O O11 0.473472 0.871707 0.267555
O O12 0.750000 0.250000 0.204081
#
# Coordination Sequence:
#
# PCOD9545237 Si02
#       5
#     8   8   8   8   8
#     4  11  19  36  65  90 113 157 210 253 286 356
#     4  10  23  42  65  89 119 163 212 257 301 365
#     4  10  23  44  62  88 127 160 205 258 314 363
#     4  12  21  39  61  92 126 153 205 248 306 365
#     4  11  23  40  63  91 123 165 196 253 310 359
#
# _framework density 17.754766
#
# number of rings (size 3 to 8) (size 9 to 14) (size 15 to 20)
#    0.000    1.200    6.000    0.000    8.400    1.200 
#    7.200    0.000    0.000    0.000    0.000    0.000 
#    0.000    0.000    0.000    0.000    0.000    0.000 
#
# Total GULP energy -223371.948410 kJ/mol
# GULP energy per Si atom -5584.298710 kJ/mol
# Density = 1.771436 g / cm^3
# Si number density = 17.754766 Si / 1000 Ang^3
#
#
#
# Elastic Constant Matrix: (Units=GPa)
#
#
# Indices 1 2 3 4 5 6 
#
# 1 111.7597 46.7886 34.6131 0.0000 0.0000 0.0325
# 2 46.7886 111.7597 34.6131 0.0000 0.0000 -0.0325
# 3 34.6131 34.6131 46.8656 0.0000 0.0000 0.0000
# 4 0.0000 0.0000 0.0000 46.4206 0.0000 0.0000
# 5 0.0000 0.0000 0.0000 0.0000 46.4206 0.0000
# 6 0.0325 -0.0325 0.0000 0.0000 0.0000 27.4115
#
#
#
# Elastic Compliance Matrix: (Units=1/GPa)
#
#
# Indices 1 2 3 4 5 6 
#
# 1 0.012350 -0.003041 -0.006875 0.000000 0.000000 -0.000018
# 2 -0.003041 0.012350 -0.006875 0.000000 0.000000 0.000018
# 3 -0.006875 -0.006875 0.031493 0.000000 0.000000 0.000000
# 4 0.000000 0.000000 0.000000 0.021542 0.000000 0.000000
# 5 0.000000 0.000000 0.000000 0.000000 0.021542 0.000000
# 6 -0.000018 0.000018 0.000000 0.000000 0.000000 0.036481
#
#
# Mechanical properties :
#
#
# Convention : Reuss Voigt Hill
#
# Bulk Modulus (GPa) = 44.22785 55.82385 50.02585
# Shear Modulus (GPa) = 28.26773 34.34189 31.30481
#
# Velocity S-wave (km/s) = 3.99447 4.40277 4.20358
# Velocity P-wave (km/s) = 6.79992 7.57335 7.19703
#
# Compressibility (1/GPa) = 0.02261019
#
# Stress axis : x y z
#
# Youngs Moduli (GPa) = 80.96946 80.96946 31.75263
#
# Poissons Ratio (x) = 0.24624 0.21831
# Poissons Ratio (y) = 0.24624 0.21831
# Poissons Ratio (z) = 0.55670 0.55670
#
# Static dielectric constant tensor:
#      x y z
#    x 1.642740 0.000000 0.000000 
#    y 0.000000 1.642740 0.000000 
#    z 0.000000 0.000000 1.590400 
# 
# From -- ./inp_files/4431.got.cif
#   From: 2010.05.17/outbox.cif.g08.bks.cpg/sg86_3_cif.got.tgz:4431.got - 2010.06.03 19:03:11.
