data_PCOD9545643
_publ_section_title
;
Structure prediction by ZEFSAII (Michael W. Deem and Ramdas Pophale) SiO2 
 PCOD9545643
Probable space group: I 4/M
;
_chemical_formula_sum "Si O2"
_cell_formula_units_Z 80
_cell_length_a 10.730108
_cell_length_b 10.730108
_cell_length_c 28.449852
_cell_angle_alpha 90.000000
_cell_angle_beta 90.000000
_cell_angle_gamma 90.000000
_cell_volume 3275.579903
_symmetry_space_group_name_H-M "I 4/M"
_symmetry_group_IT_number 87
_symmetry_cell_setting 'tetragonal'
loop_
_space_group_symop_operation_xyz
x,y,z
-y,x,z
-x,-y,z
y,-x,z
-x,-y,-z
y,-x,-z
x,y,-z
-y,x,-z
1/2+x,1/2+y,1/2+z
1/2-y,1/2+x,1/2+z
1/2-x,1/2-y,1/2+z
1/2+y,1/2-x,1/2+z
1/2-x,1/2-y,1/2-z
1/2+y,1/2-x,1/2-z
1/2+x,1/2+y,1/2-z
1/2-y,1/2+x,1/2-z
loop_
_atom_site_type_symbol
_atom_site_label
_atom_site_fract_x
_atom_site_fract_y
_atom_site_fract_z
Si Si1 0.033611 0.352936 0.947354
Si Si2 0.077081 0.682642 0.853816
Si Si3 0.398553 0.676908 0.263868
Si Si4 0.818639 0.903063 0.422075
Si Si5 0.692180 0.918628 0.328162
O O1 0.940728 0.290604 0.909000
O O2 0.185021 0.351437 0.940214
O O3 0.000000 0.500000 0.942632
O O4 0.005828 0.310789 0.000000
O O5 0.116573 0.789104 0.818219
O O6 0.935454 0.646618 0.842235
O O7 0.157032 0.563086 0.837727
O O8 0.339426 0.545263 0.254201
O O9 0.370411 0.776958 0.223817
O O10 0.800798 0.892314 0.365613
O O11 0.836466 0.050464 0.435014
#
# Coordination Sequence:
#
# PCOD9545643 Si02
#       5
#    16  16  16  16  16
#     4  10  20  40  62  82 112 153 199 243 286 349
#     4  10  20  37  57  85 111 149 196 247 287 342
#     4  11  24  37  53  81 118 156 193 237 290 350
#     4  10  20  34  58  93 129 156 186 239 306 363
#     4  10  19  36  57  86 116 154 191 233 284 354
#
# _framework density 24.423158999999998
#
# number of rings (size 3 to 8) (size 9 to 14) (size 15 to 20)
#    0.000    1.800    4.000    2.400    0.000   10.400 
#    0.000    1.000    0.000    0.000    0.000    1.400 
#    0.000    0.000    0.000    0.000    0.000    0.000 
#
# Total GULP energy -223518.731748 kJ/mol
# GULP energy per Si atom -5587.968294 kJ/mol
# Density = 2.436757 g / cm^3
# Si number density = 24.423159 Si / 1000 Ang^3
#
#
#
# Elastic Constant Matrix: (Units=GPa)
#
#
# Indices 1 2 3 4 5 6 
#
# 1 59.1699 10.1503 10.1920 0.0000 0.0000 -5.0494
# 2 10.1503 59.1699 10.1920 0.0000 0.0000 5.0494
# 3 10.1920 10.1920 159.4556 0.0000 0.0000 0.0000
# 4 0.0000 0.0000 0.0000 19.8241 0.0000 0.0000
# 5 0.0000 0.0000 0.0000 0.0000 19.8241 0.0000
# 6 -5.0494 5.0494 0.0000 0.0000 0.0000 21.3317
#
#
#
# Elastic Compliance Matrix: (Units=1/GPa)
#
#
# Indices 1 2 3 4 5 6 
#
# 1 0.018074 -0.003372 -0.000940 0.000000 0.000000 0.005076
# 2 -0.003372 0.018074 -0.000940 0.000000 0.000000 -0.005076
# 3 -0.000940 -0.000940 0.006391 0.000000 0.000000 0.000000
# 4 0.000000 0.000000 0.000000 0.050444 0.000000 0.000000
# 5 0.000000 0.000000 0.000000 0.000000 0.050444 0.000000
# 6 0.005076 -0.005076 0.000000 0.000000 0.000000 0.049282
#
#
# Mechanical properties :
#
#
# Convention : Reuss Voigt Hill
#
# Bulk Modulus (GPa) = 31.21405 37.65155 34.43280
# Shear Modulus (GPa) = 23.37653 28.68008 26.02830
#
# Velocity S-wave (km/s) = 3.09713 3.43052 3.26808
# Velocity P-wave (km/s) = 5.05944 5.58042 5.32630
#
# Compressibility (1/GPa) = 0.03203685
#
# Stress axis : x y z
#
# Youngs Moduli (GPa) = 55.32820 55.32820 156.45857
#
# Poissons Ratio (x) = 0.18656 0.14703
# Poissons Ratio (y) = 0.18656 0.14703
# Poissons Ratio (z) = 0.05199 0.05199
#
# Static dielectric constant tensor:
#      x y z
#    x 1.954950 0.000000 0.000000 
#    y 0.000000 1.954950 0.000000 
#    z 0.000000 0.000000 1.990630 
# 
# From -- ./inp_files/6489.got.cif
#   From: 2010.05.17/outbox.cif.g08.bks.cpg/sg87_4_cif.got.tgz:6489.got - 2010.06.03 19:07:00.
