data_PCOD9545593
_publ_section_title
;
Structure prediction by ZEFSAII (Michael W. Deem and Ramdas Pophale) SiO2 
 PCOD9545593
Probable space group: I 4/M
;
_chemical_formula_sum "Si O2"
_cell_formula_units_Z 64
_cell_length_a 13.096233
_cell_length_b 13.096233
_cell_length_c 13.389709
_cell_angle_alpha 90.000000
_cell_angle_beta 90.000000
_cell_angle_gamma 90.000000
_cell_volume 2296.486649
_symmetry_space_group_name_H-M "I 4/M"
_symmetry_group_IT_number 87
_symmetry_cell_setting 'tetragonal'
loop_
_space_group_symop_operation_xyz
x,y,z
-y,x,z
-x,-y,z
y,-x,z
-x,-y,-z
y,-x,-z
x,y,-z
-y,x,-z
1/2+x,1/2+y,1/2+z
1/2-y,1/2+x,1/2+z
1/2-x,1/2-y,1/2+z
1/2+y,1/2-x,1/2+z
1/2-x,1/2-y,1/2-z
1/2+y,1/2-x,1/2-z
1/2+x,1/2+y,1/2-z
1/2-y,1/2+x,1/2-z
loop_
_atom_site_type_symbol
_atom_site_label
_atom_site_fract_x
_atom_site_fract_y
_atom_site_fract_z
Si Si1 0.792426 0.979493 0.605295
Si Si2 0.638508 0.582287 0.321254
Si Si3 0.076617 0.360926 0.112559
Si Si4 0.344232 0.861095 0.338110
O O1 0.841717 0.955828 0.500000
O O2 0.851917 0.940799 0.702248
O O3 0.754550 0.096955 0.607372
O O4 0.678138 0.930908 0.608244
O O5 0.534792 0.633637 0.358690
O O6 0.739473 0.644115 0.347308
O O7 0.098562 0.321769 0.225806
O O8 0.957607 0.396672 0.126465
O O9 0.075738 0.314345 0.000000
#
# Coordination Sequence:
#
# PCOD9545593 Si02
#       4
#    16  16  16  16
#     4  10  21  36  60  93 125 157 202 255 311 370
#     4  10  23  41  62  86 123 170 208 251 315 381
#     4  10  19  32  56  90 125 159 195 246 314 374
#     4  11  19  36  59  89 124 158 205 256 305 364
#
# _framework density 27.868659000000001
#
# number of rings (size 3 to 8) (size 9 to 14) (size 15 to 20)
#    0.000    1.750    5.000    1.500    0.000    4.000 
#    0.000    1.250    0.000    4.500    0.000    7.000 
#    0.000    0.000    0.000    0.000    0.000    0.000 
#
# Total GULP energy -178562.996748 kJ/mol
# GULP energy per Si atom -5580.093648 kJ/mol
# Density = 2.780523 g / cm^3
# Si number density = 27.868659 Si / 1000 Ang^3
#
#
#
# Elastic Constant Matrix: (Units=GPa)
#
#
# Indices 1 2 3 4 5 6 
#
# 1 114.8582 44.9384 28.1191 0.0000 0.0000 3.1914
# 2 44.9384 114.8582 28.1191 0.0000 0.0000 -3.1914
# 3 28.1191 28.1191 149.7189 0.0000 0.0000 0.0000
# 4 0.0000 0.0000 0.0000 9.4201 0.0000 0.0000
# 5 0.0000 0.0000 0.0000 0.0000 9.4201 0.0000
# 6 3.1914 -3.1914 0.0000 0.0000 0.0000 47.5190
#
#
#
# Elastic Compliance Matrix: (Units=1/GPa)
#
#
# Indices 1 2 3 4 5 6 
#
# 1 0.010546 -0.003845 -0.001259 0.000000 0.000000 -0.000966
# 2 -0.003845 0.010546 -0.001259 0.000000 0.000000 0.000966
# 3 -0.001259 -0.001259 0.007152 0.000000 0.000000 0.000000
# 4 0.000000 0.000000 0.000000 0.106155 0.000000 0.000000
# 5 0.000000 0.000000 0.000000 0.000000 0.106155 0.000000
# 6 -0.000966 0.000966 0.000000 0.000000 0.000000 0.021174
#
#
# Mechanical properties :
#
#
# Convention : Reuss Voigt Hill
#
# Bulk Modulus (GPa) = 64.43457 64.64316 64.53887
# Shear Modulus (GPa) = 17.88110 31.82244 24.85177
#
# Velocity S-wave (km/s) = 2.53577 3.38283 2.98945
# Velocity P-wave (km/s) = 5.63423 6.20516 5.92657
#
# Compressibility (1/GPa) = 0.01551962
#
# Stress axis : x y z
#
# Youngs Moduli (GPa) = 94.82622 94.82622 139.82276
#
# Poissons Ratio (x) = 0.36458 0.17597
# Poissons Ratio (y) = 0.36458 0.17597
# Poissons Ratio (z) = 0.11934 0.11934
#
# Static dielectric constant tensor:
#      x y z
#    x 2.242280 0.000000 0.000000 
#    y 0.000000 2.242280 0.000000 
#    z 0.000000 0.000000 2.170070 
# 
# From -- ./inp_files/3340.got.cif
#   From: 2010.05.17/outbox.cif.g08.bks.cpg/sg87_2_cif.got.tgz:3340.got - 2010.06.03 19:07:00.
