data_PCOD9545701
_publ_section_title
;
Structure prediction by ZEFSAII (Michael W. Deem and Ramdas Pophale) SiO2 
 PCOD9545701
Probable space group: I 4/M
;
_chemical_formula_sum "Si O2"
_cell_formula_units_Z 112
_cell_length_a 14.814860
_cell_length_b 14.814860
_cell_length_c 27.812811
_cell_angle_alpha 90.000000
_cell_angle_beta 90.000000
_cell_angle_gamma 90.000000
_cell_volume 6104.357895
_symmetry_space_group_name_H-M "I 4/M"
_symmetry_group_IT_number 87
_symmetry_cell_setting 'tetragonal'
loop_
_space_group_symop_operation_xyz
x,y,z
-y,x,z
-x,-y,z
y,-x,z
-x,-y,-z
y,-x,-z
x,y,-z
-y,x,-z
1/2+x,1/2+y,1/2+z
1/2-y,1/2+x,1/2+z
1/2-x,1/2-y,1/2+z
1/2+y,1/2-x,1/2+z
1/2-x,1/2-y,1/2-z
1/2+y,1/2-x,1/2-z
1/2+x,1/2+y,1/2-z
1/2-y,1/2+x,1/2-z
loop_
_atom_site_type_symbol
_atom_site_label
_atom_site_fract_x
_atom_site_fract_y
_atom_site_fract_z
Si Si1 0.111836 0.093692 0.801781
Si Si2 0.647733 0.465063 0.947959
Si Si3 0.447010 0.866832 0.737723
Si Si4 0.409427 0.703865 0.202423
Si Si5 0.595637 0.223805 0.643373
Si Si6 0.595722 0.734630 0.853765
Si Si7 0.532125 0.350314 0.557467
O O1 0.129755 0.095123 0.745023
O O2 0.190012 0.142422 0.830623
O O3 0.011936 0.121727 0.815070
O O4 0.603360 0.563483 0.944628
O O5 0.712570 0.444562 0.905267
O O6 0.690842 0.454966 0.000000
O O7 0.540167 0.892144 0.764128
O O8 0.389875 0.796583 0.769380
O O9 0.466421 0.820053 0.686120
O O10 0.509246 0.719462 0.180990
O O11 0.338910 0.669907 0.163188
O O12 0.670596 0.146123 0.640102
O O13 0.553739 0.267572 0.594568
O O14 0.603979 0.432964 0.565519
O O15 0.537262 0.326568 0.500000
#
# Coordination Sequence:
#
# PCOD9545701 Si02
#       7
#    16  16  16  16  16  16  16
#     4  10  20  34  54  80 111 142 179 231 292 344
#     4   9  18  33  55  78 101 136 181 231 286 341
#     4  10  22  41  57  75 115 162 201 231 274 347
#     4  11  22  34  53  79 108 144 192 232 290 337
#     4  11  23  34  57  88 114 150 198 237 287 338
#     4  12  22  35  53  80 113 151 188 237 287 342
#     4   9  19  39  66  94 123 151 184 239 312 367
#
# _framework density 18.347548
#
# number of rings (size 3 to 8) (size 9 to 14) (size 15 to 20)
#    0.000    1.714    4.286    1.714    0.000    7.714 
#    0.000    0.000    0.000    0.000    0.000    2.000 
#    0.000    0.000    0.000    0.000    0.000    0.000 
#
# Total GULP energy -311765.791602 kJ/mol
# GULP energy per Si atom -5567.246279 kJ/mol
# Density = 1.830579 g / cm^3
# Si number density = 18.347548 Si / 1000 Ang^3
#
#
#
# Elastic Constant Matrix: (Units=GPa)
#
#
# Indices 1 2 3 4 5 6 
#
# 1 36.6273 3.4764 16.0726 0.0000 0.0000 -0.9504
# 2 3.4764 36.6273 16.0726 0.0000 0.0000 0.9504
# 3 16.0726 16.0726 100.9884 0.0000 0.0000 0.0000
# 4 0.0000 0.0000 0.0000 27.5189 0.0000 0.0000
# 5 0.0000 0.0000 0.0000 0.0000 27.5189 0.0000
# 6 -0.9504 0.9504 0.0000 0.0000 0.0000 13.3555
#
#
#
# Elastic Compliance Matrix: (Units=1/GPa)
#
#
# Indices 1 2 3 4 5 6 
#
# 1 0.029435 -0.000854 -0.004549 0.000000 0.000000 0.002155
# 2 -0.000854 0.029435 -0.004549 0.000000 0.000000 -0.002155
# 3 -0.004549 -0.004549 0.011350 0.000000 0.000000 0.000000
# 4 0.000000 0.000000 0.000000 0.036339 0.000000 0.000000
# 5 0.000000 0.000000 0.000000 0.000000 0.036339 0.000000
# 6 0.002155 -0.002155 0.000000 0.000000 0.000000 0.075182
#
#
# Mechanical properties :
#
#
# Convention : Reuss Voigt Hill
#
# Bulk Modulus (GPa) = 19.87374 27.27625 23.57500
# Shear Modulus (GPa) = 19.62670 22.92007 21.27339
#
# Velocity S-wave (km/s) = 3.27420 3.53826 3.40879
# Velocity P-wave (km/s) = 5.01490 5.62060 5.32636
#
# Compressibility (1/GPa) = 0.05031765
#
# Stress axis : x y z
#
# Youngs Moduli (GPa) = 33.97304 33.97304 88.10531
#
# Poissons Ratio (x) = 0.02900 0.40078
# Poissons Ratio (y) = 0.02900 0.40078
# Poissons Ratio (z) = 0.15454 0.15454
#
# Static dielectric constant tensor:
#      x y z
#    x 1.635690 0.000000 0.000000 
#    y 0.000000 1.635690 0.000000 
#    z 0.000000 0.000000 1.673510 
# 
# From -- ./inp_files/6284.got.cif
#   From: 2010.05.17/outbox.cif.g08.bks.cpg/sg87_4_cif.got.tgz:6284.got - 2010.06.03 19:07:00.
