data_PCOD9545150
_publ_section_title
;
Structure prediction by ZEFSAII (Michael W. Deem and Ramdas Pophale) SiO2 
 PCOD9545150
Probable space group: P 42/N
;
_chemical_formula_sum "Si O2"
_cell_formula_units_Z 60
_cell_length_a 14.173118
_cell_length_b 14.173118
_cell_length_c 13.999156
_cell_angle_alpha 90.000000
_cell_angle_beta 90.000000
_cell_angle_gamma 90.000000
_cell_volume 2812.112293
_symmetry_space_group_name_H-M "P 42/N"
_symmetry_group_IT_number 86
_space_group.IT_coordinate_system_code '2'
_symmetry_cell_setting 'tetragonal'
loop_
_space_group_symop_operation_xyz
x,y,z
-y,1/2+x,1/2+z
1/2-x,1/2-y,z
1/2+y,-x,1/2+z
-x,-y,-z
y,1/2-x,1/2-z
1/2+x,1/2+y,-z
1/2-y,x,1/2-z
loop_
_atom_site_type_symbol
_atom_site_label
_atom_site_fract_x
_atom_site_fract_y
_atom_site_fract_z
Si Si1 0.992811 0.641208 0.148556
Si Si2 0.356206 0.206667 0.008126
Si Si3 0.750000 0.250000 0.202579
Si Si4 0.937141 0.350897 0.639119
Si Si5 0.525881 0.625811 0.644402
Si Si6 0.130002 0.441686 0.367069
Si Si7 0.193377 0.977275 0.057963
Si Si8 0.213103 0.652976 0.610910
O O1 0.005447 0.657870 0.262055
O O2 0.028359 0.532779 0.135451
O O3 0.072621 0.710273 0.105277
O O4 0.898725 0.672535 0.093673
O O5 0.250000 0.250000 0.002502
O O6 0.363172 0.115288 0.076360
O O7 0.423408 0.282221 0.062945
O O8 0.687950 0.328969 0.149862
O O9 0.805818 0.316260 0.278460
O O10 0.925543 0.461123 0.615697
O O11 0.990716 0.297355 0.554749
O O12 0.553355 0.648922 0.753457
O O13 0.456248 0.707840 0.607973
O O14 0.062818 0.354097 0.388693
O O15 0.127305 0.886419 0.068317
O O16 0.250000 0.750000 0.564090
#
# Coordination Sequence:
#
# PCOD9545150 Si02
#       8
#     8   8   4   8   8   8   8   8
#     4  10  22  44  64  98 137 175 219 272 338 412
#     4  12  25  42  68  94 133 182 231 277 336 403
#     4   8  18  36  60  98 136 168 210 274 338 410
#     4  10  22  38  65  99 136 168 222 271 345 414
#     4  11  23  43  69  96 131 169 230 287 332 398
#     4  11  24  42  65  97 133 169 225 283 345 397
#     4  12  21  37  66 100 131 171 216 282 337 400
#     4   9  17  36  65  95 132 165 208 274 332 389
#
# _framework density 21.336272999999998
#
# number of rings (size 3 to 8) (size 9 to 14) (size 15 to 20)
#    0.400    1.067    2.667    3.200    0.933    1.067 
#    0.000    8.000    2.933    0.000    0.000    0.000 
#    0.000    0.000    0.000    0.000    0.000    0.000 
#
# Total GULP energy -334481.325194 kJ/mol
# GULP energy per Si atom -5574.688753 kJ/mol
# Density = 2.128771 g / cm^3
# Si number density = 21.336273 Si / 1000 Ang^3
#
#
#
# Elastic Constant Matrix: (Units=GPa)
#
#
# Indices 1 2 3 4 5 6 
#
# 1 66.2252 16.8464 43.4505 0.0000 0.0000 5.4439
# 2 16.8464 66.2252 43.4505 0.0000 0.0000 -5.4439
# 3 43.4505 43.4505 120.0075 0.0000 0.0000 0.0000
# 4 0.0000 0.0000 0.0000 23.1477 0.0000 0.0000
# 5 0.0000 0.0000 0.0000 0.0000 23.1477 0.0000
# 6 5.4439 -5.4439 0.0000 0.0000 0.0000 20.2991
#
#
#
# Elastic Compliance Matrix: (Units=1/GPa)
#
#
# Indices 1 2 3 4 5 6 
#
# 1 0.020451 -0.001074 -0.007016 0.000000 0.000000 -0.005773
# 2 -0.001074 0.020451 -0.007016 0.000000 0.000000 0.005773
# 3 -0.007016 -0.007016 0.013413 0.000000 0.000000 0.000000
# 4 0.000000 0.000000 0.000000 0.043201 0.000000 0.000000
# 5 0.000000 0.000000 0.000000 0.000000 0.043201 0.000000
# 6 -0.005773 0.005773 0.000000 0.000000 0.000000 0.052360
#
#
# Mechanical properties :
#
#
# Convention : Reuss Voigt Hill
#
# Bulk Modulus (GPa) = 41.48664 51.10584 46.29624
# Shear Modulus (GPa) = 21.61501 23.23293 22.42397
#
# Velocity S-wave (km/s) = 3.18632 3.30342 3.24540
# Velocity P-wave (km/s) = 5.74659 6.20924 5.98239
#
# Compressibility (1/GPa) = 0.02410414
#
# Stress axis : x y z
#
# Youngs Moduli (GPa) = 48.89812 48.89812 74.55406
#
# Poissons Ratio (x) = 0.05250 0.52305
# Poissons Ratio (y) = 0.05250 0.52305
# Poissons Ratio (z) = 0.34305 0.34305
#
# Static dielectric constant tensor:
#      x y z
#    x 1.807660 0.000000 0.000000 
#    y 0.000000 1.807660 0.000000 
#    z 0.000000 0.000000 1.802430 
# 
# From -- ./inp_files/3087.got.cif
#   From: 2010.05.17/outbox.cif.g08.bks.cpg/sg86_2_cif.got.tgz:3087.got - 2010.06.03 19:03:11.
