data_PCOD9545765
_publ_section_title
;
Structure prediction by ZEFSAII (Michael W. Deem and Ramdas Pophale) SiO2 
 PCOD9545765
Probable space group: I 4/M
;
_chemical_formula_sum "Si O2"
_cell_formula_units_Z 112
_cell_length_a 15.279560
_cell_length_b 15.279560
_cell_length_c 22.948492
_cell_angle_alpha 90.000000
_cell_angle_beta 90.000000
_cell_angle_gamma 90.000000
_cell_volume 5357.668624
_symmetry_space_group_name_H-M "I 4/M"
_symmetry_group_IT_number 87
_symmetry_cell_setting 'tetragonal'
loop_
_space_group_symop_operation_xyz
x,y,z
-y,x,z
-x,-y,z
y,-x,z
-x,-y,-z
y,-x,-z
x,y,-z
-y,x,-z
1/2+x,1/2+y,1/2+z
1/2-y,1/2+x,1/2+z
1/2-x,1/2-y,1/2+z
1/2+y,1/2-x,1/2+z
1/2-x,1/2-y,1/2-z
1/2+y,1/2-x,1/2-z
1/2+x,1/2+y,1/2-z
1/2-y,1/2+x,1/2-z
loop_
_atom_site_type_symbol
_atom_site_label
_atom_site_fract_x
_atom_site_fract_y
_atom_site_fract_z
Si Si1 0.189843 0.291521 0.568602
Si Si2 0.943469 0.133262 0.268871
Si Si3 0.307010 0.052180 0.675620
Si Si4 0.620773 0.811039 0.250029
Si Si5 0.614072 0.413806 0.929309
Si Si6 0.336440 0.704026 0.324316
Si Si7 0.514029 0.897631 0.067605
O O1 0.212213 0.284810 0.500000
O O2 0.143211 0.199310 0.586684
O O3 0.271628 0.318065 0.609043
O O4 0.114231 0.365593 0.574579
O O5 0.907591 0.212256 0.308924
O O6 0.926575 0.165672 0.202197
O O7 0.043979 0.108998 0.279502
O O8 0.382099 0.104245 0.709437
O O9 0.300393 0.960523 0.708548
O O10 0.335052 0.041619 0.609516
O O11 0.639801 0.734513 0.295834
O O12 0.703567 0.822104 0.207951
O O13 0.618955 0.516731 0.911458
O O14 0.614042 0.413973 0.000000
O O15 0.500000 0.000000 0.082002
O O16 0.490318 0.884685 0.000000
#
# Coordination Sequence:
#
# PCOD9545765 Si02
#       7
#    16  16  16  16  16  16  16
#     4  10  20  36  62  89 127 181 227 271 326 396
#     4  10  21  40  69  99 127 165 210 269 346 413
#     4  11  22  38  64  95 129 162 219 268 327 386
#     4  10  22  35  59  92 124 159 205 270 329 380
#     4   8  15  30  54  84 120 168 224 272 322 394
#     4  10  20  40  59  88 130 163 211 270 332 389
#     4  10  23  41  60  87 130 180 223 264 320 387
#
# _framework density 20.904613999999999
#
# number of rings (size 3 to 8) (size 9 to 14) (size 15 to 20)
#    0.000    2.143    2.857    0.429    2.000    1.143 
#    0.000    2.143    0.000    6.857    0.000    4.000 
#    0.000    0.000    0.000    0.000    0.000    0.000 
#
# Total GULP energy -312679.330907 kJ/mol
# GULP energy per Si atom -5583.559480 kJ/mol
# Density = 2.085703 g / cm^3
# Si number density = 20.904614 Si / 1000 Ang^3
#
#
#
# Elastic Constant Matrix: (Units=GPa)
#
#
# Indices 1 2 3 4 5 6 
#
# 1 79.7155 20.7595 41.2417 0.0000 0.0000 -1.4411
# 2 20.7595 79.7155 41.2417 0.0000 0.0000 1.4411
# 3 41.2417 41.2417 117.0026 0.0000 0.0000 0.0000
# 4 0.0000 0.0000 0.0000 29.7838 0.0000 0.0000
# 5 0.0000 0.0000 0.0000 0.0000 29.7838 0.0000
# 6 -1.4411 1.4411 0.0000 0.0000 0.0000 28.9186
#
#
#
# Elastic Compliance Matrix: (Units=1/GPa)
#
#
# Indices 1 2 3 4 5 6 
#
# 1 0.015504 -0.001499 -0.004937 0.000000 0.000000 0.000847
# 2 -0.001499 0.015504 -0.004937 0.000000 0.000000 -0.000847
# 3 -0.004937 -0.004937 0.012027 0.000000 0.000000 0.000000
# 4 0.000000 0.000000 0.000000 0.033575 0.000000 0.000000
# 5 0.000000 0.000000 0.000000 0.000000 0.033575 0.000000
# 6 0.000847 -0.000847 0.000000 0.000000 0.000000 0.034664
#
#
# Mechanical properties :
#
#
# Convention : Reuss Voigt Hill
#
# Bulk Modulus (GPa) = 49.28273 53.65773 51.47023
# Shear Modulus (GPa) = 28.67648 29.24329 28.95988
#
# Velocity S-wave (km/s) = 3.70777 3.74423 3.72605
# Velocity P-wave (km/s) = 6.47737 6.66453 6.57162
#
# Compressibility (1/GPa) = 0.02029109
#
# Stress axis : x y z
#
# Youngs Moduli (GPa) = 64.49807 64.49807 83.14584
#
# Poissons Ratio (x) = 0.09668 0.41047
# Poissons Ratio (y) = 0.09668 0.41047
# Poissons Ratio (z) = 0.31841 0.31841
#
# Static dielectric constant tensor:
#      x y z
#    x 1.792150 0.000000 0.000000 
#    y 0.000000 1.792150 0.000000 
#    z 0.000000 0.000000 1.791680 
# 
# From -- ./inp_files/5900.got.cif
#   From: 2010.05.17/outbox.cif.g08.bks.cpg/sg87_3_cif.got.tgz:5900.got - 2010.06.03 19:07:00.
