data_PCOD9545609
_publ_section_title
;
Structure prediction by ZEFSAII (Michael W. Deem and Ramdas Pophale) SiO2 
 PCOD9545609
Probable space group: I 4/M
;
_chemical_formula_sum "Si O2"
_cell_formula_units_Z 112
_cell_length_a 15.298944
_cell_length_b 15.298944
_cell_length_c 24.494558
_cell_angle_alpha 90.000000
_cell_angle_beta 90.000000
_cell_angle_gamma 90.000000
_cell_volume 5733.139602
_symmetry_space_group_name_H-M "I 4/M"
_symmetry_group_IT_number 87
_symmetry_cell_setting 'tetragonal'
loop_
_space_group_symop_operation_xyz
x,y,z
-y,x,z
-x,-y,z
y,-x,z
-x,-y,-z
y,-x,-z
x,y,-z
-y,x,-z
1/2+x,1/2+y,1/2+z
1/2-y,1/2+x,1/2+z
1/2-x,1/2-y,1/2+z
1/2+y,1/2-x,1/2+z
1/2-x,1/2-y,1/2-z
1/2+y,1/2-x,1/2-z
1/2+x,1/2+y,1/2-z
1/2-y,1/2+x,1/2-z
loop_
_atom_site_type_symbol
_atom_site_label
_atom_site_fract_x
_atom_site_fract_y
_atom_site_fract_z
Si Si1 0.619285 0.414363 0.061154
Si Si2 0.206137 0.786470 0.641242
Si Si3 0.356657 0.507810 0.738312
Si Si4 0.378156 0.871084 0.316140
Si Si5 0.549029 0.188121 0.797994
Si Si6 0.224877 0.021325 0.121192
Si Si7 0.343835 0.305980 0.435464
O O1 0.617206 0.518949 0.064644
O O2 0.669293 0.371767 0.111107
O O3 0.652136 0.391021 0.000000
O O4 0.287156 0.816361 0.679002
O O5 0.130384 0.730055 0.669967
O O6 0.244804 0.727094 0.593125
O O7 0.411410 0.419765 0.749639
O O8 0.269973 0.504558 0.773359
O O9 0.328571 0.506549 0.675234
O O10 0.413210 0.863584 0.254243
O O11 0.442887 0.817703 0.356219
O O12 0.365103 0.973514 0.329372
O O13 0.174106 0.098977 0.090778
O O14 0.228901 0.938410 0.082254
O O15 0.334741 0.309488 0.500000
#
# Coordination Sequence:
#
# PCOD9545609 Si02
#       7
#    16  16  16  16  16  16  16
#     4   9  18  34  59  89 120 152 191 245 305 359
#     4  11  22  38  60  86 119 155 198 245 298 356
#     4  10  19  33  57  87 122 153 185 237 302 356
#     4  10  24  39  60  84 115 156 195 251 291 357
#     4  11  23  38  58  83 116 154 205 236 298 353
#     4  10  21  39  60  86 121 152 197 242 302 350
#     4  11  23  39  62  89 119 158 201 250 297 356
#
# _framework density 19.535544000000002
#
# number of rings (size 3 to 8) (size 9 to 14) (size 15 to 20)
#    0.000    1.714    1.429    3.429    4.000    0.571 
#    0.000    2.143    0.000    3.429    0.000    0.000 
#    0.000    0.000    0.000    0.000    0.000    0.000 
#
# Total GULP energy -312867.801271 kJ/mol
# GULP energy per Si atom -5586.925023 kJ/mol
# Density = 1.949108 g / cm^3
# Si number density = 19.535544 Si / 1000 Ang^3
#
#
#
# Elastic Constant Matrix: (Units=GPa)
#
#
# Indices 1 2 3 4 5 6 
#
# 1 63.1896 10.7162 18.1977 0.0000 0.0000 2.2917
# 2 10.7162 63.1896 18.1977 0.0000 0.0000 -2.2917
# 3 18.1977 18.1977 56.6264 0.0000 0.0000 0.0000
# 4 0.0000 0.0000 0.0000 17.7383 0.0000 0.0000
# 5 0.0000 0.0000 0.0000 0.0000 17.7383 0.0000
# 6 2.2917 -2.2917 0.0000 0.0000 0.0000 14.4946
#
#
#
# Elastic Compliance Matrix: (Units=1/GPa)
#
#
# Indices 1 2 3 4 5 6 
#
# 1 0.017699 -0.001625 -0.005166 0.000000 0.000000 -0.003055
# 2 -0.001625 0.017699 -0.005166 0.000000 0.000000 0.003055
# 3 -0.005166 -0.005166 0.020980 0.000000 0.000000 0.000000
# 4 0.000000 0.000000 0.000000 0.056375 0.000000 0.000000
# 5 0.000000 0.000000 0.000000 0.000000 0.056375 0.000000
# 6 -0.003055 0.003055 0.000000 0.000000 0.000000 0.069957
#
#
# Mechanical properties :
#
#
# Convention : Reuss Voigt Hill
#
# Bulk Modulus (GPa) = 30.80157 30.80321 30.80239
# Shear Modulus (GPa) = 18.26008 19.05382 18.65695
#
# Velocity S-wave (km/s) = 3.06062 3.12643 3.09370
# Velocity P-wave (km/s) = 5.31893 5.36980 5.34443
#
# Compressibility (1/GPa) = 0.03246587
#
# Stress axis : x y z
#
# Youngs Moduli (GPa) = 56.49896 56.49896 47.66481
#
# Poissons Ratio (x) = 0.09180 0.24623
# Poissons Ratio (y) = 0.09180 0.24623
# Poissons Ratio (z) = 0.29186 0.29186
#
# Static dielectric constant tensor:
#      x y z
#    x 1.694150 0.000000 0.000000 
#    y 0.000000 1.694150 0.000000 
#    z 0.000000 0.000000 1.663750 
# 
# From -- ./inp_files/5876.got.cif
#   From: 2010.05.17/outbox.cif.g08.bks.cpg/sg87_3_cif.got.tgz:5876.got - 2010.06.03 19:07:00.
