data_PCOD9545064
_publ_section_title
;
Structure prediction by ZEFSAII (Michael W. Deem and Ramdas Pophale) SiO2 
 PCOD9545064
Probable space group: P 42/N
;
_chemical_formula_sum "Si O2"
_cell_formula_units_Z 64
_cell_length_a 24.696763
_cell_length_b 24.696763
_cell_length_c 5.401245
_cell_angle_alpha 90.000000
_cell_angle_beta 90.000000
_cell_angle_gamma 90.000000
_cell_volume 3294.381917
_symmetry_space_group_name_H-M "P 42/N"
_symmetry_group_IT_number 86
_space_group.IT_coordinate_system_code '2'
_symmetry_cell_setting 'tetragonal'
loop_
_space_group_symop_operation_xyz
x,y,z
-y,1/2+x,1/2+z
1/2-x,1/2-y,z
1/2+y,-x,1/2+z
-x,-y,-z
y,1/2-x,1/2-z
1/2+x,1/2+y,-z
1/2-y,x,1/2-z
loop_
_atom_site_type_symbol
_atom_site_label
_atom_site_fract_x
_atom_site_fract_y
_atom_site_fract_z
Si Si1 0.929209 0.741203 0.989967
Si Si2 0.355571 0.045048 0.377280
Si Si3 0.098860 0.338847 0.387877
Si Si4 0.142172 0.826287 0.382622
Si Si5 0.696545 0.370245 0.115637
Si Si6 0.482547 0.659857 0.400861
Si Si7 0.330098 0.238367 0.690573
Si Si8 0.785858 0.007365 0.134070
O O1 0.887066 0.758173 0.201903
O O2 0.988514 0.725687 0.084879
O O3 0.932173 0.794597 0.826066
O O4 0.905841 0.685951 0.883683
O O5 0.392969 0.097596 0.402457
O O6 0.352066 0.013013 0.639740
O O7 0.369460 0.008747 0.138754
O O8 0.150501 0.306698 0.498345
O O9 0.042939 0.318142 0.515114
O O10 0.170443 0.844941 0.637272
O O11 0.138472 0.761160 0.377085
O O12 0.081273 0.850041 0.374824
O O13 0.173318 0.845360 0.136916
O O14 0.686511 0.434929 0.113446
O O15 0.487070 0.724285 0.460846
O O16 0.290434 0.205716 0.879347
#
# Coordination Sequence:
#
# PCOD9545064 Si02
#       8
#     8   8   8   8   8   8   8   8
#     4  10  21  33  53  80 113 160 216 265 318 366
#     4  11  22  37  60  83 120 157 216 268 311 353
#     4  11  22  33  56  82 113 164 217 279 312 361
#     4  11  24  42  71 102 136 164 195 231 299 368
#     4  11  24  42  69 102 135 166 194 235 295 375
#     4  10  22  42  62  88 121 167 206 252 302 375
#     4  10  21  33  45  73 122 164 205 262 346 404
#     4   9  22  38  59  85 122 162 215 252 302 366
#
# _framework density 19.427012000000001
#
# number of rings (size 3 to 8) (size 9 to 14) (size 15 to 20)
#    0.000    1.625    2.500    1.500    7.000    3.500 
#    0.000    1.250    0.000    4.500    0.000    0.000 
#    0.000    0.000    0.000    0.000    0.000    0.000 
#
# Total GULP energy -356579.425634 kJ/mol
# GULP energy per Si atom -5571.553526 kJ/mol
# Density = 1.938280 g / cm^3
# Si number density = 19.427012 Si / 1000 Ang^3
#
#
#
# Elastic Constant Matrix: (Units=GPa)
#
#
# Indices 1 2 3 4 5 6 
#
# 1 96.7182 34.0478 33.4157 0.0000 0.0000 -7.7153
# 2 34.0478 96.7182 33.4157 0.0000 0.0000 7.7153
# 3 33.4157 33.4157 84.6401 0.0000 0.0000 0.0000
# 4 0.0000 0.0000 0.0000 23.7107 0.0000 0.0000
# 5 0.0000 0.0000 0.0000 0.0000 23.7107 0.0000
# 6 -7.7153 7.7153 0.0000 0.0000 0.0000 20.3318
#
#
#
# Elastic Compliance Matrix: (Units=1/GPa)
#
#
# Indices 1 2 3 4 5 6 
#
# 1 0.013591 -0.004010 -0.003782 0.000000 0.000000 0.006679
# 2 -0.004010 0.013591 -0.003782 0.000000 0.000000 -0.006679
# 3 -0.003782 -0.003782 0.014801 0.000000 0.000000 0.000000
# 4 0.000000 0.000000 0.000000 0.042175 0.000000 0.000000
# 5 0.000000 0.000000 0.000000 0.000000 0.042175 0.000000
# 6 0.006679 -0.006679 0.000000 0.000000 0.000000 0.054253
#
#
# Mechanical properties :
#
#
# Convention : Reuss Voigt Hill
#
# Bulk Modulus (GPa) = 53.09920 53.31497 53.20709
# Shear Modulus (GPa) = 23.80807 25.36381 24.58594
#
# Velocity S-wave (km/s) = 3.50453 3.61722 3.56132
# Velocity P-wave (km/s) = 6.61571 6.70440 6.66021
#
# Compressibility (1/GPa) = 0.01883267
#
# Stress axis : x y z
#
# Youngs Moduli (GPa) = 73.58007 73.58007 67.56214
#
# Poissons Ratio (x) = 0.29508 0.25554
# Poissons Ratio (y) = 0.29508 0.25554
# Poissons Ratio (z) = 0.27830 0.27830
#
# Static dielectric constant tensor:
#      x y z
#    x 1.686860 0.000000 0.000000 
#    y 0.000000 1.686860 0.000000 
#    z 0.000000 0.000000 1.767210 
# 
# From -- ./inp_files/549.got.cif
#   From: 2010.05.17/outbox.cif.g08.bks.cpg/sg86_1_cif.got.tgz:549.got - 2010.06.03 19:03:11.
