data_PCOD9545919
_publ_section_title
;
Structure prediction by ZEFSAII (Michael W. Deem and Ramdas Pophale) SiO2 
 PCOD9545919
Probable space group: I 4/M
;
_chemical_formula_sum "Si O2"
_cell_formula_units_Z 56
_cell_length_a 11.383623
_cell_length_b 11.383623
_cell_length_c 18.000262
_cell_angle_alpha 90.000000
_cell_angle_beta 90.000000
_cell_angle_gamma 90.000000
_cell_volume 2332.597659
_symmetry_space_group_name_H-M "I 4/M"
_symmetry_group_IT_number 87
_symmetry_cell_setting 'tetragonal'
loop_
_space_group_symop_operation_xyz
x,y,z
-y,x,z
-x,-y,z
y,-x,z
-x,-y,-z
y,-x,-z
x,y,-z
-y,x,-z
1/2+x,1/2+y,1/2+z
1/2-y,1/2+x,1/2+z
1/2-x,1/2-y,1/2+z
1/2+y,1/2-x,1/2+z
1/2-x,1/2-y,1/2-z
1/2+y,1/2-x,1/2-z
1/2+x,1/2+y,1/2-z
1/2-y,1/2+x,1/2-z
loop_
_atom_site_type_symbol
_atom_site_label
_atom_site_fract_x
_atom_site_fract_y
_atom_site_fract_z
Si Si1 0.366157 0.767946 0.840013
Si Si2 0.938045 0.339952 0.000000
Si Si3 0.692742 0.213837 0.000000
Si Si4 0.500000 0.000000 0.865351
Si Si5 0.881803 0.142372 0.807048
O O1 0.378478 0.746842 0.927157
O O2 0.225288 0.777706 0.830420
O O3 0.400178 0.669751 0.780712
O O4 0.430767 0.894071 0.823502
O O5 0.825737 0.258340 0.000000
O O6 0.934521 0.414023 0.923524
O O7 0.072364 0.296144 0.000000
O O8 0.013792 0.157617 0.834028
#
# Coordination Sequence:
#
# PCOD9545919 Si02
#       5
#    16   8   8   8  16
#     4  10  23  41  67  96 127 177 220 269 332 398
#     4   9  20  37  58  95 136 160 212 272 326 400
#     4  10  22  37  64 100 125 168 217 274 333 389
#     4   9  20  38  63  92 128 168 218 270 322 401
#     4  10  24  43  61  91 133 172 221 273 322 392
#
# _framework density 24.007567000000002
#
# number of rings (size 3 to 8) (size 9 to 14) (size 15 to 20)
#    0.000    2.286    0.000    0.857   12.000    2.571 
#    0.000    0.000    0.000    1.714    0.000    0.000 
#    0.000    0.000    0.000    0.000    0.000    0.000 
#
# Total GULP energy -156224.325332 kJ/mol
# GULP energy per Si atom -5579.440190 kJ/mol
# Density = 2.395292 g / cm^3
# Si number density = 24.007567 Si / 1000 Ang^3
#
#
#
# Elastic Constant Matrix: (Units=GPa)
#
#
# Indices 1 2 3 4 5 6 
#
# 1 55.7943 24.1759 -2.5750 0.0000 0.0000 8.6147
# 2 24.1759 55.7943 -2.5750 0.0000 0.0000 -8.6147
# 3 -2.5750 -2.5750 77.6547 0.0000 0.0000 0.0000
# 4 0.0000 0.0000 0.0000 21.9467 0.0000 0.0000
# 5 0.0000 0.0000 0.0000 0.0000 21.9467 0.0000
# 6 8.6147 -8.6147 0.0000 0.0000 0.0000 31.8276
#
#
#
# Elastic Compliance Matrix: (Units=1/GPa)
#
#
# Indices 1 2 3 4 5 6 
#
# 1 0.024815 -0.012284 0.000416 0.000000 0.000000 -0.010041
# 2 -0.012284 0.024815 0.000416 0.000000 0.000000 0.010041
# 3 0.000416 0.000416 0.012905 0.000000 0.000000 0.000000
# 4 0.000000 0.000000 0.000000 0.045565 0.000000 0.000000
# 5 0.000000 0.000000 0.000000 0.000000 0.045565 0.000000
# 6 -0.010041 0.010041 0.000000 0.000000 0.000000 0.036855
#
#
# Mechanical properties :
#
#
# Convention : Reuss Voigt Hill
#
# Bulk Modulus (GPa) = 25.23337 25.25501 25.24419
# Shear Modulus (GPa) = 22.06181 26.49200 24.27691
#
# Velocity S-wave (km/s) = 3.03471 3.32548 3.18342
# Velocity P-wave (km/s) = 4.77626 5.02867 4.90409
#
# Compressibility (1/GPa) = 0.03963007
#
# Stress axis : x y z
#
# Youngs Moduli (GPa) = 40.29790 40.29790 77.48883
#
# Poissons Ratio (x) = 0.49501 -0.03220
# Poissons Ratio (y) = 0.49501 -0.03220
# Poissons Ratio (z) = -0.01675 -0.01675
#
# Static dielectric constant tensor:
#      x y z
#    x 1.899350 0.000000 0.000000 
#    y 0.000000 1.899350 0.000000 
#    z 0.000000 0.000000 2.006240 
# 
# From -- ./inp_files/4942.got.cif
#   From: 2010.05.17/outbox.cif.g08.bks.cpg/sg87_3_cif.got.tgz:4942.got - 2010.06.03 19:07:00.
