data_PCOD9545789
_publ_section_title
;
Structure prediction by ZEFSAII (Michael W. Deem and Ramdas Pophale) SiO2 
 PCOD9545789
Probable space group: I 4/M
;
_chemical_formula_sum "Si O2"
_cell_formula_units_Z 96
_cell_length_a 24.404898
_cell_length_b 24.404898
_cell_length_c 8.487587
_cell_angle_alpha 90.000000
_cell_angle_beta 90.000000
_cell_angle_gamma 90.000000
_cell_volume 5055.198723
_symmetry_space_group_name_H-M "I 4/M"
_symmetry_group_IT_number 87
_symmetry_cell_setting 'tetragonal'
loop_
_space_group_symop_operation_xyz
x,y,z
-y,x,z
-x,-y,z
y,-x,z
-x,-y,-z
y,-x,-z
x,y,-z
-y,x,-z
1/2+x,1/2+y,1/2+z
1/2-y,1/2+x,1/2+z
1/2-x,1/2-y,1/2+z
1/2+y,1/2-x,1/2+z
1/2-x,1/2-y,1/2-z
1/2+y,1/2-x,1/2-z
1/2+x,1/2+y,1/2-z
1/2-y,1/2+x,1/2-z
loop_
_atom_site_type_symbol
_atom_site_label
_atom_site_fract_x
_atom_site_fract_y
_atom_site_fract_z
Si Si1 0.691162 0.689725 0.816223
Si Si2 0.298335 0.866731 0.307201
Si Si3 0.358367 0.494363 0.818268
Si Si4 0.613805 0.396463 0.682565
Si Si5 0.011995 0.270054 0.317616
Si Si6 0.286303 0.109860 0.187448
O O1 0.676239 0.750599 0.754085
O O2 0.634082 0.658233 0.789063
O O3 0.736158 0.649568 0.740197
O O4 0.704755 0.693990 0.000000
O O5 0.293666 0.867976 0.500000
O O6 0.356542 0.840631 0.264200
O O7 0.290430 0.929369 0.250754
O O8 0.394484 0.543062 0.749775
O O9 0.364103 0.442081 0.708286
O O10 0.295788 0.513990 0.812599
O O11 0.371590 0.480701 0.000000
O O12 0.630360 0.397112 0.500000
O O13 0.010287 0.287507 0.500000
O O14 0.952589 0.284880 0.246981
O O15 0.284082 0.107824 0.000000
#
# Coordination Sequence:
#
# PCOD9545789 Si02
#       6
#    16  16  16  16  16  16
#     4  11  20  36  58  82 115 157 194 225 279 349
#     4   9  20  38  59  83 115 152 190 232 280 337
#     4  11  22  39  61  80 108 153 201 236 281 342
#     4  12  24  37  56  84 116 147 192 247 290 325
#     4  10  20  38  61  81 110 154 193 225 275 348
#     4  11  22  36  57  89 120 145 184 241 291 330
#
# _framework density 18.990351
#
# number of rings (size 3 to 8) (size 9 to 14) (size 15 to 20)
#    0.000    1.333    3.333    3.500    0.000    1.000 
#    0.000    5.833    0.000    0.500    0.000    3.500 
#    0.000    0.000    0.000    0.000    0.000    0.000 
#
# Total GULP energy -267750.851061 kJ/mol
# GULP energy per Si atom -5578.142730 kJ/mol
# Density = 1.894713 g / cm^3
# Si number density = 18.990351 Si / 1000 Ang^3
#
#
#
# Elastic Constant Matrix: (Units=GPa)
#
#
# Indices 1 2 3 4 5 6 
#
# 1 66.0212 76.2463 19.0315 0.0000 0.0000 27.7906
# 2 76.2463 66.0212 19.0315 0.0000 0.0000 -27.7906
# 3 19.0315 19.0315 39.8633 0.0000 0.0000 0.0000
# 4 0.0000 0.0000 0.0000 19.2765 0.0000 0.0000
# 5 0.0000 0.0000 0.0000 0.0000 19.2765 0.0000
# 6 27.7906 -27.7906 0.0000 0.0000 0.0000 1.6264
#
#
#
# Elastic Compliance Matrix: (Units=1/GPa)
#
#
# Indices 1 2 3 4 5 6 
#
# 1 0.003508 0.004550 -0.003847 0.000000 0.000000 0.017800
# 2 0.004550 0.003508 -0.003847 0.000000 0.000000 -0.017800
# 3 -0.003847 -0.003847 0.028759 0.000000 0.000000 0.000000
# 4 0.000000 0.000000 0.000000 0.051877 0.000000 0.000000
# 5 0.000000 0.000000 0.000000 0.000000 0.051877 0.000000
# 6 0.017800 -0.017800 0.000000 0.000000 0.000000 0.006549
#
#
# Mechanical properties :
#
#
# Convention : Reuss Voigt Hill
#
# Bulk Modulus (GPa) = 33.91322 44.50271 39.20796
# Shear Modulus (GPa) = 30.82688 11.87564 21.35126
#
# Velocity S-wave (km/s) = 4.03338 2.50341 3.35673
# Velocity P-wave (km/s) = 6.29188 5.64282 5.97617
#
# Compressibility (1/GPa) = 0.02948702
#
# Stress axis : x y z
#
# Youngs Moduli (GPa) = 285.03941 285.03941 34.77155
#
# Poissons Ratio (x) = -1.29693 0.13377
# Poissons Ratio (y) = -1.29693 0.13377
# Poissons Ratio (z) = 1.09660 1.09660
#
# Static dielectric constant tensor:
#      x y z
#    x 1.691460 0.000000 0.000000 
#    y 0.000000 1.691460 0.000000 
#    z 0.000000 0.000000 1.655030 
# 
# From -- ./inp_files/1452.got.cif
#   From: 2010.05.17/outbox.cif.g08.bks.cpg/sg87_1_cif.got.tgz:1452.got - 2010.06.03 19:07:00.
