data_PCOD9545350
_publ_section_title
;
Structure prediction by ZEFSAII (Michael W. Deem and Ramdas Pophale) SiO2 
 PCOD9545350
Probable space group: P 42/N
;
_chemical_formula_sum "Si O2"
_cell_formula_units_Z 48
_cell_length_a 8.171742
_cell_length_b 8.171742
_cell_length_c 30.697426
_cell_angle_alpha 90.000000
_cell_angle_beta 90.000000
_cell_angle_gamma 90.000000
_cell_volume 2049.893292
_symmetry_space_group_name_H-M "P 42/N"
_symmetry_group_IT_number 86
_space_group.IT_coordinate_system_code '2'
_symmetry_cell_setting 'tetragonal'
loop_
_space_group_symop_operation_xyz
x,y,z
-y,1/2+x,1/2+z
1/2-x,1/2-y,z
1/2+y,-x,1/2+z
-x,-y,-z
y,1/2-x,1/2-z
1/2+x,1/2+y,-z
1/2-y,x,1/2-z
loop_
_atom_site_type_symbol
_atom_site_label
_atom_site_fract_x
_atom_site_fract_y
_atom_site_fract_z
Si Si1 0.517965 0.918424 0.432765
Si Si2 0.123799 0.500930 0.342583
Si Si3 0.842858 0.073319 0.409119
Si Si4 0.639745 0.982288 0.825786
Si Si5 0.447163 0.750327 0.515615
Si Si6 0.141550 0.001995 0.756986
O O1 0.507561 0.769632 0.466498
O O2 0.403676 0.922868 0.390298
O O3 0.704454 0.942993 0.418617
O O4 0.484528 0.087545 0.459820
O O5 0.021413 0.330689 0.339331
O O6 0.302671 0.436963 0.329713
O O7 0.065882 0.623680 0.305379
O O8 0.750000 0.250000 0.405363
O O9 0.968907 0.104594 0.449319
O O10 0.919549 0.043203 0.362679
O O11 0.616914 0.060448 0.778578
O O12 0.250000 0.750000 0.509859
O O13 0.042493 0.172192 0.754204
#
# Coordination Sequence:
#
# PCOD9545350 Si02
#       6
#     8   8   8   8   8   8
#     4   9  16  31  57  86 118 162 212 258 305 370
#     4  11  22  38  63  96 123 163 210 263 313 375
#     4   9  16  32  59  89 115 168 209 257 318 361
#     4  11  22  38  63  94 126 159 214 261 314 384
#     4   8  15  29  53  87 116 159 219 253 308 364
#     4  11  26  44  63  90 126 164 203 255 320 390
#
# _framework density 23.415852000000001
#
# number of rings (size 3 to 8) (size 9 to 14) (size 15 to 20)
#    0.000    2.500    3.333    2.000    0.000    3.333 
#    3.000    0.000    0.000   20.000   17.333    0.000 
#    0.000    0.000    0.000    0.000    0.000    0.000 
#
# Total GULP energy -268136.116959 kJ/mol
# GULP energy per Si atom -5586.169103 kJ/mol
# Density = 2.336256 g / cm^3
# Si number density = 23.415852 Si / 1000 Ang^3
#
#
#
# Elastic Constant Matrix: (Units=GPa)
#
#
# Indices 1 2 3 4 5 6 
#
# 1 37.4908 5.4203 15.4978 0.0000 0.0000 8.3976
# 2 5.4203 37.4908 15.4978 0.0000 0.0000 -8.3976
# 3 15.4978 15.4978 143.2052 0.0000 0.0000 0.0000
# 4 0.0000 0.0000 0.0000 408.3545 0.0000 0.0000
# 5 0.0000 0.0000 0.0000 0.0000 408.3545 0.0000
# 6 8.3976 -8.3976 0.0000 0.0000 0.0000 8.7509
#
#
#
# Elastic Compliance Matrix: (Units=1/GPa)
#
#
# Indices 1 2 3 4 5 6 
#
# 1 0.043981 -0.018701 -0.002736 0.000000 0.000000 -0.060152
# 2 -0.018701 0.043981 -0.002736 0.000000 0.000000 0.060152
# 3 -0.002736 -0.002736 0.007575 0.000000 0.000000 0.000000
# 4 0.000000 0.000000 0.000000 0.002449 0.000000 0.000000
# 5 0.000000 0.000000 0.000000 0.000000 0.002449 0.000000
# 6 -0.060152 0.060152 0.000000 0.000000 0.000000 0.229719
#
#
# Mechanical properties :
#
#
# Convention : Reuss Voigt Hill
#
# Bulk Modulus (GPa) = 21.19000 32.33542 26.76271
# Shear Modulus (GPa) = 12.68292 177.21004 94.94648
#
# Velocity S-wave (km/s) = 2.32984 8.70884 6.37464
# Velocity P-wave (km/s) = 4.03814 10.72214 8.10157
#
# Compressibility (1/GPa) = 0.04719206
#
# Stress axis : x y z
#
# Youngs Moduli (GPa) = 22.73696 22.73696 132.01080
#
# Poissons Ratio (x) = 0.42521 0.36116
# Poissons Ratio (y) = 0.42521 0.36116
# Poissons Ratio (z) = 0.06220 0.06220
#
# Static dielectric constant tensor:
#      x y z
#    x 1.935920 0.000000 0.000000 
#    y 0.000000 1.935920 0.000000 
#    z 0.000000 0.000000 1.901790 
# 
# From -- ./inp_files/5188.got.cif
#   From: 2010.05.17/outbox.cif.g08.bks.cpg/sg86_3_cif.got.tgz:5188.got - 2010.06.03 19:03:11.
