data_PCOD9545408
_publ_section_title
;
Structure prediction by ZEFSAII (Michael W. Deem and Ramdas Pophale) SiO2 
 PCOD9545408
Probable space group: P 42/N
;
_chemical_formula_sum "Si O2"
_cell_formula_units_Z 54
_cell_length_a 14.212416
_cell_length_b 14.212416
_cell_length_c 12.396464
_cell_angle_alpha 90.000000
_cell_angle_beta 90.000000
_cell_angle_gamma 90.000000
_cell_volume 2503.996084
_symmetry_space_group_name_H-M "P 42/N"
_symmetry_group_IT_number 86
_space_group.IT_coordinate_system_code '2'
_symmetry_cell_setting 'tetragonal'
loop_
_space_group_symop_operation_xyz
x,y,z
-y,1/2+x,1/2+z
1/2-x,1/2-y,z
1/2+y,-x,1/2+z
-x,-y,-z
y,1/2-x,1/2-z
1/2+x,1/2+y,-z
1/2-y,x,1/2-z
loop_
_atom_site_type_symbol
_atom_site_label
_atom_site_fract_x
_atom_site_fract_y
_atom_site_fract_z
Si Si1 0.074697 0.419504 0.461461
Si Si2 0.882085 0.108514 0.584867
Si Si3 0.250000 0.250000 0.750000
Si Si4 0.250000 0.750000 0.286592
Si Si5 0.754183 0.594767 0.395501
Si Si6 0.801832 0.572228 0.999665
Si Si7 0.443538 0.425303 0.291494
Si Si8 0.578695 0.158259 0.835786
O O1 0.174682 0.442688 0.515451
O O2 0.057277 0.310764 0.497060
O O3 0.085667 0.416472 0.332449
O O4 0.000000 0.500000 0.500000
O O5 0.810563 0.179407 0.640806
O O6 0.847792 0.084072 0.465091
O O7 0.984635 0.153136 0.563406
O O8 0.893163 0.015200 0.655800
O O9 0.326931 0.302179 0.821134
O O10 0.324905 0.804990 0.213392
O O11 0.666305 0.651517 0.448502
O O12 0.724726 0.509929 0.318248
O O13 0.839451 0.571550 0.875323
O O14 0.555196 0.442919 0.292476
#
# Coordination Sequence:
#
# PCOD9545408 Si02
#       8
#     8   8   2   4   8   8   8   8
#     4  12  31  45  74 116 151 189 261 332 371 452
#     4  11  25  49  73 104 148 201 251 301 386 463
#     4  12  28  44  76 110 136 204 244 308 376 450
#     4  12  30  40  78 116 156 194 254 324 380 448
#     4  12  26  48  75 106 147 194 258 307 377 463
#     4  11  24  52  74 105 147 202 251 309 378 464
#     4  11  26  47  77 104 146 202 244 306 393 451
#     4  11  26  46  73 106 147 199 244 311 378 456
#
# _framework density 21.565529000000002
#
# number of rings (size 3 to 8) (size 9 to 14) (size 15 to 20)
#    0.000    0.593    4.444    1.333   16.593    0.000 
#    0.000    0.000    0.000    0.000    0.000    0.000 
#    0.000    0.000    0.000    0.000    0.000    0.000 
#
# Total GULP energy -301931.095647 kJ/mol
# GULP energy per Si atom -5591.316586 kJ/mol
# Density = 2.151644 g / cm^3
# Si number density = 21.565529 Si / 1000 Ang^3
#
#
#
# Elastic Constant Matrix: (Units=GPa)
#
#
# Indices 1 2 3 4 5 6 
#
# 1 137.0939 27.4345 31.7205 0.0000 0.0000 -11.7811
# 2 27.4345 137.0939 31.7205 0.0000 0.0000 11.7811
# 3 31.7205 31.7205 94.0582 0.0000 0.0000 0.0000
# 4 0.0000 0.0000 0.0000 -585.4587 0.0000 0.0000
# 5 0.0000 0.0000 0.0000 0.0000 -585.4587 0.0000
# 6 -11.7811 11.7811 0.0000 0.0000 0.0000 47.8530
#
#
#
# Elastic Compliance Matrix: (Units=1/GPa)
#
#
# Indices 1 2 3 4 5 6 
#
# 1 0.008307 -0.001321 -0.002356 0.000000 0.000000 0.002370
# 2 -0.001321 0.008307 -0.002356 0.000000 0.000000 -0.002370
# 3 -0.002356 -0.002356 0.012221 0.000000 0.000000 0.000000
# 4 0.000000 0.000000 0.000000 -0.001708 0.000000 0.000000
# 5 0.000000 0.000000 0.000000 0.000000 -0.001708 0.000000
# 6 0.002370 -0.002370 0.000000 0.000000 0.000000 0.022065
#
#
# Mechanical properties :
#
#
# Convention : Reuss Voigt Hill
#
# Bulk Modulus (GPa) = 59.63280 61.11078 60.37179
# Shear Modulus (GPa) = 76.75696 -206.12152 -64.68228
#
# Velocity S-wave (km/s) = 5.97241 -9.78707 -5.48256
# Velocity P-wave (km/s) = 8.67592 9.96578 3.46736
#
# Compressibility (1/GPa) = 0.01676930
#
# Stress axis : x y z
#
# Youngs Moduli (GPa) = 120.37326 120.37326 81.82701
#
# Poissons Ratio (x) = 0.15901 0.19280
# Poissons Ratio (y) = 0.15901 0.19280
# Poissons Ratio (z) = 0.28362 0.28362
#
# Static dielectric constant tensor:
#      x y z
#    x 1.859000 0.000000 0.000000 
#    y 0.000000 1.859000 0.000000 
#    z 0.000000 0.000000 1.809120 
# 
# From -- ./inp_files/2407.got.cif
#   From: 2010.05.17/outbox.cif.g08.bks.cpg/sg86_2_cif.got.tgz:2407.got - 2010.06.03 19:03:11.
