data_PCOD9545328
_publ_section_title
;
Structure prediction by ZEFSAII (Michael W. Deem and Ramdas Pophale) SiO2 
 PCOD9545328
Probable space group: P 42/N
;
_chemical_formula_sum "Si O2"
_cell_formula_units_Z 32
_cell_length_a 8.158702
_cell_length_b 8.158702
_cell_length_c 20.434848
_cell_angle_alpha 90.000000
_cell_angle_beta 90.000000
_cell_angle_gamma 90.000000
_cell_volume 1360.233771
_symmetry_space_group_name_H-M "P 42/N"
_symmetry_group_IT_number 86
_space_group.IT_coordinate_system_code '2'
_symmetry_cell_setting 'tetragonal'
loop_
_space_group_symop_operation_xyz
x,y,z
-y,1/2+x,1/2+z
1/2-x,1/2-y,z
1/2+y,-x,1/2+z
-x,-y,-z
y,1/2-x,1/2-z
1/2+x,1/2+y,-z
1/2-y,x,1/2-z
loop_
_atom_site_type_symbol
_atom_site_label
_atom_site_fract_x
_atom_site_fract_y
_atom_site_fract_z
Si Si1 0.578441 0.982602 0.101002
Si Si2 0.426114 0.653713 0.135366
Si Si3 0.248031 0.551507 0.022664
Si Si4 0.892865 0.979806 0.738370
O O1 0.552030 0.793166 0.116724
O O2 0.412787 0.022797 0.058830
O O3 0.565775 0.082149 0.168498
O O4 0.730518 0.000890 0.052314
O O5 0.250000 0.750000 0.146309
O O6 0.391481 0.526495 0.075901
O O7 0.478259 0.574113 0.202696
O O8 0.250000 0.750000 0.018147
O O9 0.962979 0.795806 0.739052
#
# Coordination Sequence:
#
# PCOD9545328 Si02
#       4
#     8   8   8   8
#     4   9  17  32  56  82 112 153 197 243 300 359
#     4   9  17  34  53  84 115 150 197 249 294 358
#     4   8  15  31  54  83 110 147 201 242 293 366
#     4  11  20  32  55  88 117 150 200 252 302 361
#
# _framework density 23.525368
#
# number of rings (size 3 to 8) (size 9 to 14) (size 15 to 20)
#    0.000    3.250    5.000    0.000    0.000    1.000 
#    0.000    0.000    0.000   30.750    0.000    0.000 
#    0.000    0.000    0.000    0.000    0.000    0.000 
#
# Total GULP energy -178394.672564 kJ/mol
# GULP energy per Si atom -5574.833518 kJ/mol
# Density = 2.347182 g / cm^3
# Si number density = 23.525368 Si / 1000 Ang^3
#
#
#
# Elastic Constant Matrix: (Units=GPa)
#
#
# Indices 1 2 3 4 5 6 
#
# 1 35.6867 5.9735 28.7177 0.0000 0.0000 -9.4316
# 2 5.9735 35.6867 28.7177 0.0000 0.0000 9.4316
# 3 28.7177 28.7177 207.4169 0.0000 0.0000 0.0000
# 4 0.0000 0.0000 0.0000 -12.4526 0.0000 0.0000
# 5 0.0000 0.0000 0.0000 0.0000 -12.4526 0.0000
# 6 -9.4316 9.4316 0.0000 0.0000 0.0000 7.4259
#
#
#
# Elastic Compliance Matrix: (Units=1/GPa)
#
#
# Indices 1 2 3 4 5 6 
#
# 1 0.101710 -0.072043 -0.004107 0.000000 0.000000 0.220683
# 2 -0.072043 0.101710 -0.004107 0.000000 0.000000 -0.220683
# 3 -0.004107 -0.004107 0.005959 0.000000 0.000000 0.000000
# 4 0.000000 0.000000 0.000000 -0.080305 0.000000 0.000000
# 5 0.000000 0.000000 0.000000 0.000000 -0.080305 0.000000
# 6 0.220683 -0.220683 0.000000 0.000000 0.000000 0.695241
#
#
# Mechanical properties :
#
#
# Convention : Reuss Voigt Hill
#
# Bulk Modulus (GPa) = 20.46586 45.06754 32.76670
# Shear Modulus (GPa) = 5.42998 10.86292 8.14645
#
# Velocity S-wave (km/s) = 1.52090 2.15118 1.86289
# Velocity P-wave (km/s) = 3.43549 5.03673 4.31110
#
# Compressibility (1/GPa) = 0.04886187
#
# Stress axis : x y z
#
# Youngs Moduli (GPa) = 9.83188 9.83188 167.82493
#
# Poissons Ratio (x) = 0.70832 0.68933
# Poissons Ratio (y) = 0.70832 0.68933
# Poissons Ratio (z) = 0.04038 0.04038
#
# Static dielectric constant tensor:
#      x y z
#    x 1.965230 0.000000 0.000000 
#    y 0.000000 1.965230 0.000000 
#    z 0.000000 0.000000 1.974850 
# 
# From -- ./inp_files/3871.got.cif
#   From: 2010.05.17/outbox.cif.g08.bks.cpg/sg86_2_cif.got.tgz:3871.got - 2010.06.03 19:03:11.
