data_PCOD9545615
_publ_section_title
;
Structure prediction by ZEFSAII (Michael W. Deem and Ramdas Pophale) SiO2 
 PCOD9545615
Probable space group: I 4/M
;
_chemical_formula_sum "Si O2"
_cell_formula_units_Z 96
_cell_length_a 24.632455
_cell_length_b 24.632455
_cell_length_c 7.913011
_cell_angle_alpha 90.000000
_cell_angle_beta 90.000000
_cell_angle_gamma 90.000000
_cell_volume 4801.281457
_symmetry_space_group_name_H-M "I 4/M"
_symmetry_group_IT_number 87
_symmetry_cell_setting 'tetragonal'
loop_
_space_group_symop_operation_xyz
x,y,z
-y,x,z
-x,-y,z
y,-x,z
-x,-y,-z
y,-x,-z
x,y,-z
-y,x,-z
1/2+x,1/2+y,1/2+z
1/2-y,1/2+x,1/2+z
1/2-x,1/2-y,1/2+z
1/2+y,1/2-x,1/2+z
1/2-x,1/2-y,1/2-z
1/2+y,1/2-x,1/2-z
1/2+x,1/2+y,1/2-z
1/2-y,1/2+x,1/2-z
loop_
_atom_site_type_symbol
_atom_site_label
_atom_site_fract_x
_atom_site_fract_y
_atom_site_fract_z
Si Si1 0.883825 0.600858 0.694007
Si Si2 0.367333 0.702163 0.298266
Si Si3 0.290019 0.612623 0.200676
Si Si4 0.307729 0.192530 0.207362
Si Si5 0.512060 0.271110 0.303091
Si Si6 0.491592 0.144553 0.303465
O O1 0.867715 0.590765 0.500000
O O2 0.836991 0.637473 0.767934
O O3 0.891501 0.541025 0.764670
O O4 0.937803 0.635276 0.700407
O O5 0.370655 0.711311 0.500000
O O6 0.344059 0.642661 0.263588
O O7 0.320487 0.745663 0.238229
O O8 0.429133 0.709979 0.231144
O O9 0.240478 0.651588 0.267265
O O10 0.287343 0.548397 0.240474
O O11 0.287878 0.616887 0.000000
O O12 0.308059 0.195650 0.000000
O O13 0.512366 0.286742 0.500000
O O14 0.511719 0.205955 0.290591
O O15 0.477820 0.132892 0.500000
#
# Coordination Sequence:
#
# PCOD9545615 Si02
#       6
#    16  16  16  16  16  16
#     4  10  19  34  53  73 105 145 184 229 277 317
#     4  10  20  37  59  81 110 146 185 223 264 321
#     4  11  22  35  55  85 117 144 176 220 275 328
#     4   9  17  32  54  80 110 144 177 219 273 319
#     4  10  20  36  58  80 105 143 185 222 264 320
#     4  10  20  34  53  76 102 141 191 232 268 315
#
# _framework density 19.994662000000002
#
# number of rings (size 3 to 8) (size 9 to 14) (size 15 to 20)
#    0.000    2.000    3.333    1.000    0.000    1.667 
#    0.000    3.333    0.000    0.500    0.000    3.500 
#    0.000    0.000    0.000    0.000    0.000    0.000 
#
# Total GULP energy -267227.047231 kJ/mol
# GULP energy per Si atom -5567.230151 kJ/mol
# Density = 1.994915 g / cm^3
# Si number density = 19.994662 Si / 1000 Ang^3
#
#
#
# Elastic Constant Matrix: (Units=GPa)
#
#
# Indices 1 2 3 4 5 6 
#
# 1 61.7231 75.7856 7.8415 0.0000 0.0000 21.8908
# 2 75.7856 61.7231 7.8415 0.0000 0.0000 -21.8908
# 3 7.8415 7.8415 18.1883 0.0000 0.0000 0.0000
# 4 0.0000 0.0000 0.0000 16.1262 0.0000 0.0000
# 5 0.0000 0.0000 0.0000 0.0000 16.1262 0.0000
# 6 21.8908 -21.8908 0.0000 0.0000 0.0000 13.0081
#
#
#
# Elastic Compliance Matrix: (Units=1/GPa)
#
#
# Indices 1 2 3 4 5 6 
#
# 1 -0.001874 0.009523 -0.003297 0.000000 0.000000 0.019180
# 2 0.009523 -0.001874 -0.003297 0.000000 0.000000 -0.019180
# 3 -0.003297 -0.003297 0.057824 0.000000 0.000000 0.000000
# 4 0.000000 0.000000 0.000000 0.062011 0.000000 0.000000
# 5 0.000000 0.000000 0.000000 0.000000 0.062011 0.000000
# 6 0.019180 -0.019180 0.000000 0.000000 0.000000 0.012321
#
#
# Mechanical properties :
#
#
# Convention : Reuss Voigt Hill
#
# Bulk Modulus (GPa) = 16.68594 36.06354 26.37474
# Shear Modulus (GPa) = 24.44523 12.39648 18.42086
#
# Velocity S-wave (km/s) = 3.50035 2.49266 3.03857
# Velocity P-wave (km/s) = 4.96990 5.13422 5.05273
#
# Compressibility (1/GPa) = 0.05993071
#
# Stress axis : x y z
#
# Youngs Moduli (GPa) = -533.49106 -533.49106 17.29392
#
# Poissons Ratio (x) = 5.08032 0.05703
# Poissons Ratio (y) = 5.08032 0.05703
# Poissons Ratio (z) = -1.75916 -1.75916
#
# Static dielectric constant tensor:
#      x y z
#    x 1.746770 0.000000 0.000000 
#    y 0.000000 1.746770 0.000000 
#    z 0.000000 0.000000 1.800930 
# 
# From -- ./inp_files/1439.got.cif
#   From: 2010.05.17/outbox.cif.g08.bks.cpg/sg87_1_cif.got.tgz:1439.got - 2010.06.03 19:07:00.
