data_PCOD9545838
_publ_section_title
;
Structure prediction by ZEFSAII (Michael W. Deem and Ramdas Pophale) SiO2 
 PCOD9545838
Probable space group: I 4/M
;
_chemical_formula_sum "Si O2"
_cell_formula_units_Z 96
_cell_length_a 24.046342
_cell_length_b 24.046342
_cell_length_c 8.920554
_cell_angle_alpha 90.000000
_cell_angle_beta 90.000000
_cell_angle_gamma 90.000000
_cell_volume 5158.101285
_symmetry_space_group_name_H-M "I 4/M"
_symmetry_group_IT_number 87
_symmetry_cell_setting 'tetragonal'
loop_
_space_group_symop_operation_xyz
x,y,z
-y,x,z
-x,-y,z
y,-x,z
-x,-y,-z
y,-x,-z
x,y,-z
-y,x,-z
1/2+x,1/2+y,1/2+z
1/2-y,1/2+x,1/2+z
1/2-x,1/2-y,1/2+z
1/2+y,1/2-x,1/2+z
1/2-x,1/2-y,1/2-z
1/2+y,1/2-x,1/2-z
1/2+x,1/2+y,1/2-z
1/2-y,1/2+x,1/2-z
loop_
_atom_site_type_symbol
_atom_site_label
_atom_site_fract_x
_atom_site_fract_y
_atom_site_fract_z
Si Si1 0.153338 0.520207 0.826522
Si Si2 0.172547 0.192975 0.250384
Si Si3 0.403592 0.869568 0.677483
Si Si4 0.666834 0.481241 0.500000
Si Si5 0.717256 0.450634 0.831550
Si Si6 0.365601 0.390808 0.500000
Si Si7 0.682989 0.202611 0.160166
O O1 0.148346 0.462443 0.742002
O O2 0.115505 0.569991 0.763656
O O3 0.216577 0.541803 0.824249
O O4 0.138164 0.510625 0.000000
O O5 0.114438 0.201127 0.334755
O O6 0.161407 0.141871 0.139352
O O7 0.183376 0.253110 0.173800
O O8 0.230679 0.181825 0.331919
O O9 0.407383 0.873610 0.500000
O O10 0.355481 0.825408 0.716508
O O11 0.696422 0.472594 0.665892
O O12 0.621931 0.431447 0.500000
O O13 0.645860 0.544184 0.500000
O O14 0.700021 0.473805 0.000000
O O15 0.660369 0.183686 0.000000
#
# Coordination Sequence:
#
# PCOD9545838 Si02
#       7
#    16  16  16   8  16   8  16
#     4  10  23  42  59  85 118 160 215 261 315 374
#     4  10  21  36  61  90 130 162 205 257 313 383
#     4  11  25  40  62  86 119 165 209 266 315 373
#     4  10  24  41  68  94 130 167 212 258 316 376
#     4  10  21  41  64  89 129 170 210 259 317 381
#     4  10  22  43  62  98 126 168 216 258 310 385
#     4  11  22  35  58  92 126 165 200 251 321 382
#
# _framework density 18.611498999999998
#
# number of rings (size 3 to 8) (size 9 to 14) (size 15 to 20)
#    0.000    1.667    2.500    1.000    4.667    2.500 
#    0.000    5.000    0.000    0.000    0.000    4.667 
#    0.000    0.000    0.000    0.000    0.000    0.000 
#
# Total GULP energy -267343.993086 kJ/mol
# GULP energy per Si atom -5569.666523 kJ/mol
# Density = 1.856914 g / cm^3
# Si number density = 18.611499 Si / 1000 Ang^3
#
#
#
# Elastic Constant Matrix: (Units=GPa)
#
#
# Indices 1 2 3 4 5 6 
#
# 1 89.2393 32.6010 31.8587 0.0000 0.0000 7.9942
# 2 32.6010 89.2393 31.8587 0.0000 0.0000 -7.9942
# 3 31.8587 31.8587 99.6442 0.0000 0.0000 0.0000
# 4 0.0000 0.0000 0.0000 45.6209 0.0000 0.0000
# 5 0.0000 0.0000 0.0000 0.0000 45.6209 0.0000
# 6 7.9942 -7.9942 0.0000 0.0000 0.0000 9.2911
#
#
#
# Elastic Compliance Matrix: (Units=1/GPa)
#
#
# Indices 1 2 3 4 5 6 
#
# 1 0.016588 -0.006732 -0.003151 0.000000 0.000000 -0.020065
# 2 -0.006732 0.016588 -0.003151 0.000000 0.000000 0.020065
# 3 -0.003151 -0.003151 0.012051 0.000000 0.000000 0.000000
# 4 0.000000 0.000000 0.000000 0.021920 0.000000 0.000000
# 5 0.000000 0.000000 0.000000 0.000000 0.021920 0.000000
# 6 -0.020065 0.020065 0.000000 0.000000 0.000000 0.142159
#
#
# Mechanical properties :
#
#
# Convention : Reuss Voigt Hill
#
# Bulk Modulus (GPa) = 52.19950 52.30662 52.25306
# Shear Modulus (GPa) = 18.96250 32.22686 25.59468
#
# Velocity S-wave (km/s) = 3.19542 4.16571 3.71240
# Velocity P-wave (km/s) = 6.45926 7.16261 6.82001
#
# Compressibility (1/GPa) = 0.01915727
#
# Stress axis : x y z
#
# Youngs Moduli (GPa) = 60.28585 60.28585 82.98343
#
# Poissons Ratio (x) = 0.40586 0.26148
# Poissons Ratio (y) = 0.40586 0.26148
# Poissons Ratio (z) = 0.18996 0.18996
#
# Static dielectric constant tensor:
#      x y z
#    x 1.614430 0.000000 0.000000 
#    y 0.000000 1.614430 0.000000 
#    z 0.000000 0.000000 1.702540 
# 
# From -- ./inp_files/1503.got.cif
#   From: 2010.05.17/outbox.cif.g08.bks.cpg/sg87_1_cif.got.tgz:1503.got - 2010.06.03 19:07:00.
