data_PCOD9545005
_publ_section_title
;
Structure prediction by ZEFSAII (Michael W. Deem and Ramdas Pophale) SiO2 
 PCOD9545005
Probable space group: P 42/N
;
_chemical_formula_sum "Si O2"
_cell_formula_units_Z 44
_cell_length_a 11.709179
_cell_length_b 11.709179
_cell_length_c 16.545793
_cell_angle_alpha 90.000000
_cell_angle_beta 90.000000
_cell_angle_gamma 90.000000
_cell_volume 2268.508846
_symmetry_space_group_name_H-M "P 42/N"
_symmetry_group_IT_number 86
_space_group.IT_coordinate_system_code '2'
_symmetry_cell_setting 'tetragonal'
loop_
_space_group_symop_operation_xyz
x,y,z
-y,1/2+x,1/2+z
1/2-x,1/2-y,z
1/2+y,-x,1/2+z
-x,-y,-z
y,1/2-x,1/2-z
1/2+x,1/2+y,-z
1/2-y,x,1/2-z
loop_
_atom_site_type_symbol
_atom_site_label
_atom_site_fract_x
_atom_site_fract_y
_atom_site_fract_z
Si Si1 0.646365 0.048965 0.337249
Si Si2 0.020073 0.799427 0.345201
Si Si3 0.250000 0.750000 0.070233
Si Si4 0.546597 0.444233 0.084762
Si Si5 0.801316 0.868664 0.431741
Si Si6 0.820434 0.053519 0.549950
O O1 0.703922 0.041414 0.250009
O O2 0.668189 0.172691 0.375328
O O3 0.513053 0.018588 0.344655
O O4 0.707316 0.952639 0.393156
O O5 0.040732 0.680973 0.393482
O O6 0.101218 0.898473 0.379879
O O7 0.890948 0.835559 0.363096
O O8 0.158226 0.687265 0.013774
O O9 0.528472 0.308879 0.078835
O O10 0.500000 0.500000 0.000000
O O11 0.750000 0.750000 0.462647
O O12 0.860805 0.941304 0.502465
#
# Coordination Sequence:
#
# PCOD9545005 Si02
#       6
#     8   8   4   8   8   8
#     4  11  24  37  62  94 127 163 207 267 331 367
#     4  12  23  38  61  96 131 159 211 273 320 381
#     4  10  20  38  60  92 118 154 212 252 300 386
#     4  12  20  41  65  87 125 172 210 252 323 396
#     4  11  22  39  61  91 125 165 212 257 314 382
#     4  11  22  40  64  91 118 167 215 254 310 382
#
# _framework density 19.396000999999998
#
# number of rings (size 3 to 8) (size 9 to 14) (size 15 to 20)
#    0.000    0.727    7.273    1.636    2.545    0.000 
#    0.000    0.000    0.000    0.000    0.000    0.000 
#    0.000    0.000    0.000    0.000    0.000    0.000 
#
# Total GULP energy -245575.811385 kJ/mol
# GULP energy per Si atom -5581.268441 kJ/mol
# Density = 1.935185 g / cm^3
# Si number density = 19.396001 Si / 1000 Ang^3
#
#
#
# Elastic Constant Matrix: (Units=GPa)
#
#
# Indices 1 2 3 4 5 6 
#
# 1 69.3452 11.2369 15.4831 0.0000 0.0000 -1.1020
# 2 11.2369 69.3452 15.4831 0.0000 0.0000 1.1020
# 3 15.4831 15.4831 64.2959 0.0000 0.0000 0.0000
# 4 0.0000 0.0000 0.0000 13.6001 0.0000 0.0000
# 5 0.0000 0.0000 0.0000 0.0000 13.6001 0.0000
# 6 -1.1020 1.1020 0.0000 0.0000 0.0000 32.3449
#
#
#
# Elastic Compliance Matrix: (Units=1/GPa)
#
#
# Indices 1 2 3 4 5 6 
#
# 1 0.015453 -0.001778 -0.003293 0.000000 0.000000 0.000587
# 2 -0.001778 0.015453 -0.003293 0.000000 0.000000 -0.000587
# 3 -0.003293 -0.003293 0.017139 0.000000 0.000000 0.000000
# 4 0.000000 0.000000 0.000000 0.073529 0.000000 0.000000
# 5 0.000000 0.000000 0.000000 0.000000 0.073529 0.000000
# 6 0.000587 -0.000587 0.000000 0.000000 0.000000 0.030957
#
#
# Mechanical properties :
#
#
# Convention : Reuss Voigt Hill
#
# Bulk Modulus (GPa) = 31.93152 31.93249 31.93200
# Shear Modulus (GPa) = 19.74504 22.62790 21.18647
#
# Velocity S-wave (km/s) = 3.19407 3.41930 3.30860
# Velocity P-wave (km/s) = 5.48648 5.66462 5.57626
#
# Compressibility (1/GPa) = 0.03131702
#
# Stress axis : x y z
#
# Youngs Moduli (GPa) = 64.71090 64.71090 58.34607
#
# Poissons Ratio (x) = 0.11507 0.19214
# Poissons Ratio (y) = 0.11507 0.19214
# Poissons Ratio (z) = 0.21310 0.21310
#
# Static dielectric constant tensor:
#      x y z
#    x 1.689760 0.000000 0.000000 
#    y 0.000000 1.689760 0.000000 
#    z 0.000000 0.000000 1.679180 
# 
# From -- ./inp_files/3450.got.cif
#   From: 2010.05.17/outbox.cif.g08.bks.cpg/sg86_2_cif.got.tgz:3450.got - 2010.06.03 19:03:11.
