data_PCOD9545472
_publ_section_title
;
Structure prediction by ZEFSAII (Michael W. Deem and Ramdas Pophale) SiO2 
 PCOD9545472
Probable space group: P 42/N
;
_chemical_formula_sum "Si O2"
_cell_formula_units_Z 48
_cell_length_a 21.000000
_cell_length_b 21.000000
_cell_length_c 6.000000
_cell_angle_alpha 90.000000
_cell_angle_beta 90.000000
_cell_angle_gamma 90.000000
_cell_volume 2646.000000
_symmetry_space_group_name_H-M "P 42/N"
_symmetry_group_IT_number 86
_space_group.IT_coordinate_system_code '2'
_symmetry_cell_setting 'tetragonal'
loop_
_space_group_symop_operation_xyz
x,y,z
-y,1/2+x,1/2+z
1/2-x,1/2-y,z
1/2+y,-x,1/2+z
-x,-y,-z
y,1/2-x,1/2-z
1/2+x,1/2+y,-z
1/2-y,x,1/2-z
loop_
_atom_site_type_symbol
_atom_site_label
_atom_site_fract_x
_atom_site_fract_y
_atom_site_fract_z
Si Si1 0.533920 0.421705 0.417267
Si Si2 0.687835 0.111269 0.086598
Si Si3 0.301940 0.587110 0.188638
Si Si4 0.487544 0.733748 0.064266
Si Si5 0.470226 0.408281 0.921885
Si Si6 0.361134 0.501058 0.814082
O O1 0.560336 0.350318 0.435666
O O2 0.503519 0.428018 0.674246
O O3 0.594809 0.467498 0.379594
O O4 0.498849 0.428155 0.170583
O O5 0.750720 0.127491 0.952071
O O6 0.636287 0.163402 0.149707
O O7 0.710445 0.077001 0.312609
O O8 0.265965 0.533053 0.332424
O O9 0.348959 0.552566 0.011856
O O10 0.528381 0.668774 0.064903
O O11 0.514509 0.791654 0.214721
O O12 0.401759 0.441847 0.904302
#
# Coordination Sequence:
#
# PCOD9545472 Si02
#       6
#     8   8   8   8   8   8
#     4  11  21  38  62  94 125 158 199 264 319 372
#     4  10  22  38  61  82 124 163 216 253 307 366
#     4  11  22  40  62  84 122 176 211 263 309 366
#     4  10  22  40  60  88 123 164 202 262 314 373
#     4  11  24  39  62  97 127 157 207 262 313 384
#     4  11  23  37  64  91 121 162 206 259 328 374
#
# _framework density 18.14059
#
# number of rings (size 3 to 8) (size 9 to 14) (size 15 to 20)
#    0.000    1.333    3.333    3.000    2.333    0.000 
#    0.000    2.500    0.000    0.500    0.000    0.000 
#    0.000    0.000    0.000    0.000    0.000    0.000 
#
# Total GULP energy -267227.315192 kJ/mol
# GULP energy per Si atom -5567.235733 kJ/mol
# Density = 1.809930 g / cm^3
# Si number density = 18.140590 Si / 1000 Ang^3
#
#
#
# Elastic Constant Matrix: (Units=GPa)
#
#
# Indices 1 2 3 4 5 6 
#
# 1 93.8218 55.4109 32.3044 0.0000 0.0000 -1.1366
# 2 55.4109 93.8218 32.3044 0.0000 0.0000 1.1366
# 3 32.3044 32.3044 95.4813 0.0000 0.0000 0.0000
# 4 0.0000 0.0000 0.0000 25.7656 0.0000 0.0000
# 5 0.0000 0.0000 0.0000 0.0000 25.7656 0.0000
# 6 -1.1366 1.1366 0.0000 0.0000 0.0000 12.0064
#
#
#
# Elastic Compliance Matrix: (Units=1/GPa)
#
#
# Indices 1 2 3 4 5 6 
#
# 1 0.017016 -0.009165 -0.002656 0.000000 0.000000 0.002479
# 2 -0.009165 0.017016 -0.002656 0.000000 0.000000 -0.002479
# 3 -0.002656 -0.002656 0.012271 0.000000 0.000000 0.000000
# 4 0.000000 0.000000 0.000000 0.038811 0.000000 0.000000
# 5 0.000000 0.000000 0.000000 0.000000 0.038811 0.000000
# 6 0.002479 -0.002479 0.000000 0.000000 0.000000 0.083758
#
#
# Mechanical properties :
#
#
# Convention : Reuss Voigt Hill
#
# Bulk Modulus (GPa) = 57.64490 58.12940 57.88715
# Shear Modulus (GPa) = 20.62526 23.58120 22.10323
#
# Velocity S-wave (km/s) = 3.37555 3.60934 3.49440
# Velocity P-wave (km/s) = 6.85844 7.03443 6.94699
#
# Compressibility (1/GPa) = 0.01734759
#
# Stress axis : x y z
#
# Youngs Moduli (GPa) = 58.76839 58.76839 81.49538
#
# Poissons Ratio (x) = 0.53861 0.21647
# Poissons Ratio (y) = 0.53861 0.21647
# Poissons Ratio (z) = 0.15610 0.15610
#
# Static dielectric constant tensor:
#      x y z
#    x 1.647280 0.000000 0.000000 
#    y 0.000000 1.647280 0.000000 
#    z 0.000000 0.000000 1.681930 
# 
# From -- ./inp_files/415.got.cif
#   From: 2010.05.17/outbox.ucp.g08.bks.cvg/sg86_1_cif.got.tgz:415.got - 2010.06.11 10:35:13.
