data_PCOD9545312
_publ_section_title
;
Structure prediction by ZEFSAII (Michael W. Deem and Ramdas Pophale) SiO2 
 PCOD9545312
Probable space group: P 42/N
;
_chemical_formula_sum "Si O2"
_cell_formula_units_Z 26
_cell_length_a 10.488208
_cell_length_b 10.488208
_cell_length_c 8.677943
_cell_angle_alpha 90.000000
_cell_angle_beta 90.000000
_cell_angle_gamma 90.000000
_cell_volume 954.595486
_symmetry_space_group_name_H-M "P 42/N"
_symmetry_group_IT_number 86
_space_group.IT_coordinate_system_code '2'
_symmetry_cell_setting 'tetragonal'
loop_
_space_group_symop_operation_xyz
x,y,z
-y,1/2+x,1/2+z
1/2-x,1/2-y,z
1/2+y,-x,1/2+z
-x,-y,-z
y,1/2-x,1/2-z
1/2+x,1/2+y,-z
1/2-y,x,1/2-z
loop_
_atom_site_type_symbol
_atom_site_label
_atom_site_fract_x
_atom_site_fract_y
_atom_site_fract_z
Si Si1 0.936525 0.906151 0.836767
Si Si2 0.322154 0.628634 0.314452
Si Si3 0.930799 0.809232 0.492556
Si Si4 0.750000 0.750000 0.250000
O O1 0.899429 0.868618 0.658837
O O2 0.047127 0.803747 0.863084
O O3 0.914975 0.057440 0.807703
O O4 0.836989 0.894541 0.974983
O O5 0.250000 0.750000 0.246538
O O6 0.422922 0.663600 0.449133
O O7 0.839760 0.842695 0.351696
#
# Coordination Sequence:
#
# PCOD9545312 Si02
#       4
#     8   8   8   2
#     4  10  25  55  78 108 170 210 264 348 407 481
#     4  11  26  48  83 119 157 218 279 328 414 487
#     4  11  25  48  82 115 161 219 273 329 421 478
#     4  12  24  42  76 120 168 198 280 352 384 494
#
# _framework density 27.236668999999999
#
# number of rings (size 3 to 8) (size 9 to 14) (size 15 to 20)
#    0.000    1.231    0.000    4.615    4.308   11.692 
#   22.154    0.000    0.000    0.000    0.000    0.000 
#    0.000    0.000    0.000    0.000    0.000    0.000 
#
# Total GULP energy -144802.658465 kJ/mol
# GULP energy per Si atom -5569.333018 kJ/mol
# Density = 2.717468 g / cm^3
# Si number density = 27.236669 Si / 1000 Ang^3
#
#
#
# Elastic Constant Matrix: (Units=GPa)
#
#
# Indices 1 2 3 4 5 6 
#
# 1 138.8118 65.2107 31.2455 0.0000 0.0000 8.9195
# 2 65.2107 138.8118 31.2455 0.0000 0.0000 -8.9195
# 3 31.2455 31.2455 105.2674 0.0000 0.0000 0.0000
# 4 0.0000 0.0000 0.0000 46.1380 0.0000 0.0000
# 5 0.0000 0.0000 0.0000 0.0000 46.1380 0.0000
# 6 8.9195 -8.9195 0.0000 0.0000 0.0000 60.8769
#
#
#
# Elastic Compliance Matrix: (Units=1/GPa)
#
#
# Indices 1 2 3 4 5 6 
#
# 1 0.009739 -0.004348 -0.001600 0.000000 0.000000 -0.002064
# 2 -0.004348 0.009739 -0.001600 0.000000 0.000000 0.002064
# 3 -0.001600 -0.001600 0.010450 0.000000 0.000000 0.000000
# 4 0.000000 0.000000 0.000000 0.021674 0.000000 0.000000
# 5 0.000000 0.000000 0.000000 0.000000 0.021674 0.000000
# 6 -0.002064 0.002064 0.000000 0.000000 0.000000 0.017031
#
#
# Mechanical properties :
#
#
# Convention : Reuss Voigt Hill
#
# Bulk Modulus (GPa) = 67.42410 70.92159 69.17285
# Shear Modulus (GPa) = 45.31102 47.64321 46.47711
#
# Velocity S-wave (km/s) = 4.08315 4.18692 4.13536
# Velocity P-wave (km/s) = 6.85844 7.03344 6.94649
#
# Compressibility (1/GPa) = 0.01483149
#
# Stress axis : x y z
#
# Youngs Moduli (GPa) = 102.67674 102.67674 95.69710
#
# Poissons Ratio (x) = 0.44641 0.15315
# Poissons Ratio (y) = 0.44641 0.15315
# Poissons Ratio (z) = 0.16432 0.16432
#
# Static dielectric constant tensor:
#      x y z
#    x 2.292170 0.000000 0.000000 
#    y 0.000000 2.292170 0.000000 
#    z 0.000000 0.000000 2.213320 
# 
# From -- ./inp_files/775.got.cif
#   From: 2010.05.17/outbox.cif.g08.bks.cpg/sg86_1_cif.got.tgz:775.got - 2010.06.03 19:03:11.
