data_PCOD9545258
_publ_section_title
;
Structure prediction by ZEFSAII (Michael W. Deem and Ramdas Pophale) SiO2 
 PCOD9545258
Probable space group: P 42/N
;
_chemical_formula_sum "Si O2"
_cell_formula_units_Z 48
_cell_length_a 9.566774
_cell_length_b 9.566774
_cell_length_c 26.466181
_cell_angle_alpha 90.000000
_cell_angle_beta 90.000000
_cell_angle_gamma 90.000000
_cell_volume 2422.268644
_symmetry_space_group_name_H-M "P 42/N"
_symmetry_group_IT_number 86
_space_group.IT_coordinate_system_code '2'
_symmetry_cell_setting 'tetragonal'
loop_
_space_group_symop_operation_xyz
x,y,z
-y,1/2+x,1/2+z
1/2-x,1/2-y,z
1/2+y,-x,1/2+z
-x,-y,-z
y,1/2-x,1/2-z
1/2+x,1/2+y,-z
1/2-y,x,1/2-z
loop_
_atom_site_type_symbol
_atom_site_label
_atom_site_fract_x
_atom_site_fract_y
_atom_site_fract_z
Si Si1 0.585066 0.753645 0.669235
Si Si2 0.166606 0.878600 0.973597
Si Si3 0.375206 0.147973 0.446193
Si Si4 0.522926 0.906310 0.191009
Si Si5 0.239597 0.915785 0.863321
Si Si6 0.986485 0.921911 0.195720
O O1 0.750000 0.750000 0.683439
O O2 0.584498 0.803855 0.610467
O O3 0.501741 0.610285 0.677340
O O4 0.494651 0.863779 0.700845
O O5 0.250000 0.750000 0.996438
O O6 0.248872 0.925635 0.923571
O O7 0.014825 0.833441 0.951791
O O8 0.158806 0.997249 0.015174
O O9 0.250000 0.250000 0.461904
O O10 0.506299 0.740763 0.179581
O O11 0.559506 0.912517 0.250393
O O12 0.646563 0.984926 0.162011
O O13 0.250000 0.750000 0.849715
O O14 0.095639 0.983078 0.844395
#
# Coordination Sequence:
#
# PCOD9545258 Si02
#       6
#     8   8   8   8   8   8
#     4  11  26  46  68 100 135 177 224 282 333 409
#     4  10  23  44  70  99 131 175 218 269 338 399
#     4  10  23  45  68 100 134 168 220 278 328 400
#     4  12  27  41  69  98 136 179 229 280 339 397
#     4  11  24  44  68  97 134 181 219 275 334 403
#     4  12  25  44  65  98 138 175 231 277 339 399
#
# _framework density 19.816133000000001
#
# number of rings (size 3 to 8) (size 9 to 14) (size 15 to 20)
#    0.000    1.000    3.333    2.000   11.667    3.333 
#    0.000    0.000    0.000    0.000    0.000    0.000 
#    0.000    0.000    0.000    0.000    0.000    0.000 
#
# Total GULP energy -268011.519983 kJ/mol
# GULP energy per Si atom -5583.573333 kJ/mol
# Density = 1.977103 g / cm^3
# Si number density = 19.816133 Si / 1000 Ang^3
#
#
#
# Elastic Constant Matrix: (Units=GPa)
#
#
# Indices 1 2 3 4 5 6 
#
# 1 124.9629 41.6239 23.4979 0.0000 0.0000 6.5881
# 2 41.6239 124.9629 23.4979 0.0000 0.0000 -6.5881
# 3 23.4979 23.4979 34.3891 0.0000 0.0000 0.0000
# 4 0.0000 0.0000 0.0000 51.8917 0.0000 0.0000
# 5 0.0000 0.0000 0.0000 0.0000 51.8917 0.0000
# 6 6.5881 -6.5881 0.0000 0.0000 0.0000 35.4090
#
#
#
# Elastic Compliance Matrix: (Units=1/GPa)
#
#
# Indices 1 2 3 4 5 6 
#
# 1 0.009900 -0.002463 -0.005081 0.000000 0.000000 -0.002300
# 2 -0.002463 0.009900 -0.005081 0.000000 0.000000 0.002300
# 3 -0.005081 -0.005081 0.036023 0.000000 0.000000 0.000000
# 4 0.000000 0.000000 0.000000 0.019271 0.000000 0.000000
# 5 0.000000 0.000000 0.000000 0.000000 0.019271 0.000000
# 6 -0.002300 0.002300 0.000000 0.000000 0.000000 0.029097
#
#
# Mechanical properties :
#
#
# Convention : Reuss Voigt Hill
#
# Bulk Modulus (GPa) = 32.71104 51.28380 41.99742
# Shear Modulus (GPa) = 31.46578 40.88483 36.17530
#
# Velocity S-wave (km/s) = 3.98915 4.54718 4.27728
# Velocity P-wave (km/s) = 6.14499 7.31472 6.75522
#
# Compressibility (1/GPa) = 0.03057072
#
# Stress axis : x y z
#
# Youngs Moduli (GPa) = 101.01419 101.01419 27.76016
#
# Poissons Ratio (x) = 0.24882 0.14105
# Poissons Ratio (y) = 0.24882 0.14105
# Poissons Ratio (z) = 0.51327 0.51327
#
# Static dielectric constant tensor:
#      x y z
#    x 1.815140 0.000000 0.000000 
#    y 0.000000 1.815140 0.000000 
#    z 0.000000 0.000000 1.677280 
# 
# From -- ./inp_files/5136.got.cif
#   From: 2010.05.17/outbox.cif.g08.bks.cpg/sg86_3_cif.got.tgz:5136.got - 2010.06.03 19:03:11.
