data_PCOD9545785
_publ_section_title
;
Structure prediction by ZEFSAII (Michael W. Deem and Ramdas Pophale) SiO2 
 PCOD9545785
Probable space group: I 4/M
;
_chemical_formula_sum "Si O2"
_cell_formula_units_Z 44
_cell_length_a 11.391181
_cell_length_b 11.391181
_cell_length_c 16.456776
_cell_angle_alpha 90.000000
_cell_angle_beta 90.000000
_cell_angle_gamma 90.000000
_cell_volume 2135.414872
_symmetry_space_group_name_H-M "I 4/M"
_symmetry_group_IT_number 87
_symmetry_cell_setting 'tetragonal'
loop_
_space_group_symop_operation_xyz
x,y,z
-y,x,z
-x,-y,z
y,-x,z
-x,-y,-z
y,-x,-z
x,y,-z
-y,x,-z
1/2+x,1/2+y,1/2+z
1/2-y,1/2+x,1/2+z
1/2-x,1/2-y,1/2+z
1/2+y,1/2-x,1/2+z
1/2-x,1/2-y,1/2-z
1/2+y,1/2-x,1/2-z
1/2+x,1/2+y,1/2-z
1/2-y,1/2+x,1/2-z
loop_
_atom_site_type_symbol
_atom_site_label
_atom_site_fract_x
_atom_site_fract_y
_atom_site_fract_z
Si Si1 0.972080 0.806269 0.500000
Si Si2 0.000000 0.500000 0.250000
Si Si3 0.124366 0.280079 0.662456
Si Si4 0.860777 0.128894 0.175088
O O1 0.953218 0.738392 0.583430
O O2 0.094725 0.871780 0.500000
O O3 0.076752 0.400357 0.296522
O O4 0.122854 0.174833 0.728900
O O5 0.262223 0.288912 0.640439
O O6 0.994566 0.158469 0.152078
#
# Coordination Sequence:
#
# PCOD9545785 Si02
#       4
#     8   4  16  16
#     4  11  26  43  64  97 134 171 213 271 330 386
#     4  12  24  42  64 104 124 178 220 268 316 394
#     4  11  23  40  64  96 130 166 219 268 326 379
#     4  10  20  37  64  92 121 167 219 264 308 381
#
# _framework density 20.604896
#
# number of rings (size 3 to 8) (size 9 to 14) (size 15 to 20)
#    0.000    1.273    3.636    2.182    5.091    3.636 
#    0.000    1.818    0.000    2.182    0.000    0.000 
#    0.000    0.000    0.000    0.000    0.000    0.000 
#
# Total GULP energy -122615.879966 kJ/mol
# GULP energy per Si atom -5573.449089 kJ/mol
# Density = 2.055800 g / cm^3
# Si number density = 20.604896 Si / 1000 Ang^3
#
#
#
# Elastic Constant Matrix: (Units=GPa)
#
#
# Indices 1 2 3 4 5 6 
#
# 1 42.4838 35.6593 1.5285 0.0000 0.0000 -32.1262
# 2 35.6593 42.4838 1.5285 0.0000 0.0000 32.1262
# 3 1.5285 1.5285 23.6582 0.0000 0.0000 0.0000
# 4 0.0000 0.0000 0.0000 7.7073 0.0000 0.0000
# 5 0.0000 0.0000 0.0000 0.0000 7.7073 0.0000
# 6 -32.1262 32.1262 0.0000 0.0000 0.0000 -27.1925
#
#
#
# Elastic Compliance Matrix: (Units=1/GPa)
#
#
# Indices 1 2 3 4 5 6 
#
# 1 0.012458 0.000371 -0.000829 0.000000 0.000000 -0.014280
# 2 0.000371 0.012458 -0.000829 0.000000 0.000000 0.014280
# 3 -0.000829 -0.000829 0.042376 0.000000 0.000000 0.000000
# 4 0.000000 0.000000 0.000000 0.129747 0.000000 0.000000
# 5 0.000000 0.000000 0.000000 0.000000 0.129746 0.000000
# 6 -0.014280 0.014280 0.000000 0.000000 0.000000 -0.003033
#
#
# Mechanical properties :
#
#
# Convention : Reuss Voigt Hill
#
# Bulk Modulus (GPa) = 15.45139 20.67317 18.06228
# Shear Modulus (GPa) = 14.37203 2.30505 8.33854
#
# Velocity S-wave (km/s) = 2.64390 1.05883 2.01387
# Velocity P-wave (km/s) = 4.10310 3.39849 3.76731
#
# Compressibility (1/GPa) = 0.06471910
#
# Stress axis : x y z
#
# Youngs Moduli (GPa) = 80.26862 80.26862 23.59837
#
# Poissons Ratio (x) = -0.02980 0.01956
# Poissons Ratio (y) = -0.02980 0.01956
# Poissons Ratio (z) = 0.06654 0.06653
#
# Static dielectric constant tensor:
#      x y z
#    x 1.730840 0.000000 0.000000 
#    y 0.000000 1.730840 0.000000 
#    z 0.000000 0.000000 1.715180 
# 
# From -- ./inp_files/4040.got.cif
#   From: 2010.05.17/outbox.cif.g08.bks.cpg/sg87_3_cif.got.tgz:4040.got - 2010.06.03 19:07:00.
