data_PCOD9545463
_publ_section_title
;
Structure prediction by ZEFSAII (Michael W. Deem and Ramdas Pophale) SiO2 
 PCOD9545463
Probable space group: P 42/N
;
_chemical_formula_sum "Si O2"
_cell_formula_units_Z 40
_cell_length_a 6.901955
_cell_length_b 6.901955
_cell_length_c 28.236055
_cell_angle_alpha 90.000000
_cell_angle_beta 90.000000
_cell_angle_gamma 90.000000
_cell_volume 1345.080467
_symmetry_space_group_name_H-M "P 42/N"
_symmetry_group_IT_number 86
_space_group.IT_coordinate_system_code '2'
_symmetry_cell_setting 'tetragonal'
loop_
_space_group_symop_operation_xyz
x,y,z
-y,1/2+x,1/2+z
1/2-x,1/2-y,z
1/2+y,-x,1/2+z
-x,-y,-z
y,1/2-x,1/2-z
1/2+x,1/2+y,-z
1/2-y,x,1/2-z
loop_
_atom_site_type_symbol
_atom_site_label
_atom_site_fract_x
_atom_site_fract_y
_atom_site_fract_z
Si Si1 0.769198 0.022112 0.961320
Si Si2 0.459899 0.964010 0.843740
Si Si3 0.514089 0.911909 0.640838
Si Si4 0.480760 0.936061 0.742624
Si Si5 0.966870 0.181270 0.560790
O O1 0.750000 0.250000 0.966536
O O2 0.912762 0.997778 0.916656
O O3 0.550453 0.953609 0.949667
O O4 0.794802 0.946814 0.015298
O O5 0.680266 0.030267 0.853050
O O6 0.504826 0.731476 0.849666
O O7 0.380942 0.999642 0.791186
O O8 0.321451 0.043722 0.885285
O O9 0.411333 0.981112 0.689601
O O10 0.702216 0.005563 0.751591
O O11 0.750000 0.250000 0.564851
#
# Coordination Sequence:
#
# PCOD9545463 Si02
#       5
#     8   8   8   8   8
#     4   9  17  29  43  59  83 114 145 179 222 274
#     4   8  13  23  41  62  82 107 142 185 230 272
#     4   8  13  23  41  62  82 107 142 185 230 272
#     4   7  10  18  35  60  84 102 129 179 234 270
#     4   9  17  29  43  59  83 114 145 179 222 274
#
# _framework density 29.737995999999999
#
# number of rings (size 3 to 8) (size 9 to 14) (size 15 to 20)
#    0.000    3.800    0.000    2.400    0.000    0.000 
#    0.000    5.000    0.000    3.600    0.000    0.000 
#    0.000    3.200    0.000   42.400    0.000    2.400 
#
# Total GULP energy -223161.891268 kJ/mol
# GULP energy per Si atom -5579.047282 kJ/mol
# Density = 2.967031 g / cm^3
# Si number density = 29.737996 Si / 1000 Ang^3
#
#
#
# Elastic Constant Matrix: (Units=GPa)
#
#
# Indices 1 2 3 4 5 6 
#
# 1 119.6961 29.0040 49.8252 0.0000 0.0000 5.3484
# 2 29.0040 119.6961 49.8252 0.0000 0.0000 -5.3484
# 3 49.8252 49.8252 448.3227 0.0000 0.0000 0.0000
# 4 0.0000 0.0000 0.0000 27.5562 0.0000 0.0000
# 5 0.0000 0.0000 0.0000 0.0000 27.5562 0.0000
# 6 5.3484 -5.3484 0.0000 0.0000 0.0000 23.5232
#
#
#
# Elastic Compliance Matrix: (Units=1/GPa)
#
#
# Indices 1 2 3 4 5 6 
#
# 1 0.009298 -0.002032 -0.000808 0.000000 0.000000 -0.002576
# 2 -0.002032 0.009298 -0.000808 0.000000 0.000000 0.002576
# 3 -0.000808 -0.000808 0.002410 0.000000 0.000000 0.000000
# 4 0.000000 0.000000 0.000000 0.036289 0.000000 0.000000
# 5 0.000000 0.000000 0.000000 0.000000 0.036289 0.000000
# 6 -0.002576 0.002576 0.000000 0.000000 0.000000 0.043683
#
#
# Mechanical properties :
#
#
# Convention : Reuss Voigt Hill
#
# Bulk Modulus (GPa) = 72.92822 105.00263 88.96542
# Shear Modulus (GPa) = 33.52713 52.99780 43.26247
#
# Velocity S-wave (km/s) = 3.36135 4.22614 3.81831
# Velocity P-wave (km/s) = 6.29616 7.69413 7.02998
#
# Compressibility (1/GPa) = 0.01371211
#
# Stress axis : x y z
#
# Youngs Moduli (GPa) = 107.54840 107.54840 414.93269
#
# Poissons Ratio (x) = 0.21854 0.33507
# Poissons Ratio (y) = 0.21854 0.33507
# Poissons Ratio (z) = 0.08685 0.08685
#
# Static dielectric constant tensor:
#      x y z
#    x 2.333320 0.000000 0.000000 
#    y 0.000000 2.333320 0.000000 
#    z 0.000000 0.000000 2.434570 
# 
# From -- ./inp_files/4828.got.cif
#   From: 2010.05.17/outbox.cif.g08.bks.cpg/sg86_3_cif.got.tgz:4828.got - 2010.06.03 19:03:11.
