data_PCOD9545665
_publ_section_title
;
Structure prediction by ZEFSAII (Michael W. Deem and Ramdas Pophale) SiO2 
 PCOD9545665
Probable space group: I 4/M
;
_chemical_formula_sum "Si O2"
_cell_formula_units_Z 84
_cell_length_a 11.354839
_cell_length_b 11.354839
_cell_length_c 32.962130
_cell_angle_alpha 90.000000
_cell_angle_beta 90.000000
_cell_angle_gamma 90.000000
_cell_volume 4249.885499
_symmetry_space_group_name_H-M "I 4/M"
_symmetry_group_IT_number 87
_symmetry_cell_setting 'tetragonal'
loop_
_space_group_symop_operation_xyz
x,y,z
-y,x,z
-x,-y,z
y,-x,z
-x,-y,-z
y,-x,-z
x,y,-z
-y,x,-z
1/2+x,1/2+y,1/2+z
1/2-y,1/2+x,1/2+z
1/2-x,1/2-y,1/2+z
1/2+y,1/2-x,1/2+z
1/2-x,1/2-y,1/2-z
1/2+y,1/2-x,1/2-z
1/2+x,1/2+y,1/2-z
1/2-y,1/2+x,1/2-z
loop_
_atom_site_type_symbol
_atom_site_label
_atom_site_fract_x
_atom_site_fract_y
_atom_site_fract_z
Si Si1 0.691034 0.453597 0.831568
Si Si2 0.384984 0.821212 0.375082
Si Si3 0.436192 0.687052 0.452381
Si Si4 0.607145 0.743304 0.670102
Si Si5 0.831976 0.417262 0.750349
Si Si6 0.500000 0.500000 0.307207
O O1 0.636514 0.582707 0.837995
O O2 0.801305 0.427072 0.861001
O O3 0.738147 0.434260 0.785695
O O4 0.401130 0.791551 0.422399
O O5 0.515777 0.821520 0.355695
O O6 0.314924 0.707277 0.357194
O O7 0.356879 0.570255 0.444307
O O8 0.426449 0.714861 0.500000
O O9 0.658102 0.801119 0.710770
O O10 0.528012 0.640023 0.689205
O O11 0.953265 0.364280 0.767005
#
# Coordination Sequence:
#
# PCOD9545665 Si02
#       6
#    16  16  16  16  16   4
#     4  11  26  41  56  78 112 157 205 246 281 330
#     4  11  19  36  57  83 116 155 188 229 287 350
#     4   9  17  30  56  95 130 151 175 226 297 366
#     4  10  20  31  52  80 108 148 190 231 275 338
#     4  11  23  38  54  78 110 146 199 249 295 327
#     4   8  20  28  44  72 101 132 188 220 265 324
#
# _framework density 19.765239999999999
#
# number of rings (size 3 to 8) (size 9 to 14) (size 15 to 20)
#    0.000    1.714    3.810    1.714    5.333    1.524 
#    0.000    0.000    0.000    1.143    0.000    4.000 
#    0.000    0.000    0.000    0.000    0.000    0.000 
#
# Total GULP energy -233969.536656 kJ/mol
# GULP energy per Si atom -5570.703254 kJ/mol
# Density = 1.972025 g / cm^3
# Si number density = 19.765240 Si / 1000 Ang^3
#
#
#
# Elastic Constant Matrix: (Units=GPa)
#
#
# Indices 1 2 3 4 5 6 
#
# 1 54.4895 7.5742 4.1326 0.0000 0.0000 -1.3163
# 2 7.5742 54.4895 4.1326 0.0000 0.0000 1.3163
# 3 4.1326 4.1326 83.1308 0.0000 0.0000 0.0000
# 4 0.0000 0.0000 0.0000 25.5847 0.0000 0.0000
# 5 0.0000 0.0000 0.0000 0.0000 25.5847 0.0000
# 6 -1.3163 1.3163 0.0000 0.0000 0.0000 38.3187
#
#
#
# Elastic Compliance Matrix: (Units=1/GPa)
#
#
# Indices 1 2 3 4 5 6 
#
# 1 0.018788 -0.002568 -0.000806 0.000000 0.000000 0.000734
# 2 -0.002568 0.018788 -0.000806 0.000000 0.000000 -0.000734
# 3 -0.000806 -0.000806 0.012109 0.000000 0.000000 0.000000
# 4 0.000000 0.000000 0.000000 0.039086 0.000000 0.000000
# 5 0.000000 0.000000 0.000000 0.000000 0.039086 0.000000
# 6 0.000734 -0.000734 0.000000 0.000000 0.000000 0.026147
#
#
# Mechanical properties :
#
#
# Convention : Reuss Voigt Hill
#
# Bulk Modulus (GPa) = 24.19910 24.86538 24.53224
# Shear Modulus (GPa) = 28.38640 29.64898 29.01769
#
# Velocity S-wave (km/s) = 3.79380 3.87726 3.83576
# Velocity P-wave (km/s) = 5.60896 5.71418 5.66181
#
# Compressibility (1/GPa) = 0.04132386
#
# Stress axis : x y z
#
# Youngs Moduli (GPa) = 53.22547 53.22547 82.58043
#
# Poissons Ratio (x) = 0.13669 0.06659
# Poissons Ratio (y) = 0.13669 0.06659
# Poissons Ratio (z) = 0.04292 0.04292
#
# Static dielectric constant tensor:
#      x y z
#    x 1.773050 0.000000 0.000000 
#    y 0.000000 1.773050 0.000000 
#    z 0.000000 0.000000 1.686290 
# 
# From -- ./inp_files/6556.got.cif
#   From: 2010.05.17/outbox.cif.g08.bks.cpg/sg87_4_cif.got.tgz:6556.got - 2010.06.03 19:07:00.
