data_PCOD9545117
_publ_section_title
;
Structure prediction by ZEFSAII (Michael W. Deem and Ramdas Pophale) SiO2 
 PCOD9545117
Probable space group: P 42/N
;
_chemical_formula_sum "Si O2"
_cell_formula_units_Z 48
_cell_length_a 13.565559
_cell_length_b 13.565559
_cell_length_c 9.423008
_cell_angle_alpha 90.000000
_cell_angle_beta 90.000000
_cell_angle_gamma 90.000000
_cell_volume 1734.063308
_symmetry_space_group_name_H-M "P 42/N"
_symmetry_group_IT_number 86
_space_group.IT_coordinate_system_code '2'
_symmetry_cell_setting 'tetragonal'
loop_
_space_group_symop_operation_xyz
x,y,z
-y,1/2+x,1/2+z
1/2-x,1/2-y,z
1/2+y,-x,1/2+z
-x,-y,-z
y,1/2-x,1/2-z
1/2+x,1/2+y,-z
1/2-y,x,1/2-z
loop_
_atom_site_type_symbol
_atom_site_label
_atom_site_fract_x
_atom_site_fract_y
_atom_site_fract_z
Si Si1 0.750000 0.250000 0.749678
Si Si2 0.597808 0.502137 0.168666
Si Si3 0.423100 0.089844 0.365575
Si Si4 0.250000 0.250000 0.750000
Si Si5 0.870700 0.361445 0.997582
Si Si6 0.185392 0.455995 0.841488
Si Si7 0.801938 0.924160 0.599668
Si Si8 0.750000 0.750000 0.750000
O O1 0.691653 0.321711 0.638029
O O2 0.817239 0.313585 0.860680
O O3 0.518233 0.421180 0.206478
O O4 0.544877 0.600038 0.226157
O O5 0.710957 0.500787 0.207553
O O6 0.599996 0.505966 0.999020
O O7 0.465678 0.164942 0.252006
O O8 0.312969 0.094625 0.427855
O O9 0.208362 0.338181 0.848002
O O10 0.850457 0.477696 0.027727
O O11 0.990312 0.344244 0.998634
O O12 0.825785 0.810284 0.650045
#
# Coordination Sequence:
#
# PCOD9545117 Si02
#       8
#     4   8   8   2   8   8   8   2
#     4  10  28  42  64 112 146 192 226 308 362 444
#     4  10  22  40  67  94 132 187 233 286 365 435
#     4  10  22  40  67  94 132 187 233 286 365 435
#     4   8  20  44  62  96 144 178 256 282 368 414
#     4  11  24  44  73 100 147 184 248 292 375 424
#     4  10  21  40  68  98 133 182 232 295 347 433
#     4  10  21  40  68  98 133 182 232 295 347 433
#     4   8  20  44  62  96 144 178 256 282 368 414
#
# _framework density 27.680651000000001
#
# number of rings (size 3 to 8) (size 9 to 14) (size 15 to 20)
#    0.000    2.000    1.667    0.000    9.333    0.000 
#    0.000   30.000    0.000   10.000    0.000    0.000 
#    0.000    0.000    0.000    0.000    0.000    0.000 
#
# Total GULP energy -267722.879430 kJ/mol
# GULP energy per Si atom -5577.559988 kJ/mol
# Density = 2.761765 g / cm^3
# Si number density = 27.680651 Si / 1000 Ang^3
#
#
#
# Elastic Constant Matrix: (Units=GPa)
#
#
# Indices 1 2 3 4 5 6 
#
# 1 91.8102 38.9971 24.6903 0.0000 0.0000 7.7743
# 2 38.9971 91.8102 24.6903 0.0000 0.0000 -7.7743
# 3 24.6903 24.6903 160.5008 0.0000 0.0000 0.0000
# 4 0.0000 0.0000 0.0000 30.9789 0.0000 0.0000
# 5 0.0000 0.0000 0.0000 0.0000 30.9789 0.0000
# 6 7.7743 -7.7743 0.0000 0.0000 0.0000 54.1018
#
#
#
# Elastic Compliance Matrix: (Units=1/GPa)
#
#
# Indices 1 2 3 4 5 6 
#
# 1 0.013944 -0.005827 -0.001249 0.000000 0.000000 -0.002841
# 2 -0.005827 0.013944 -0.001249 0.000000 0.000000 0.002841
# 3 -0.001249 -0.001249 0.006615 0.000000 0.000000 0.000000
# 4 0.000000 0.000000 0.000000 0.032280 0.000000 0.000000
# 5 0.000000 0.000000 0.000000 0.000000 0.032280 0.000000
# 6 -0.002841 0.002841 0.000000 0.000000 0.000000 0.019300
#
#
# Mechanical properties :
#
#
# Convention : Reuss Voigt Hill
#
# Bulk Modulus (GPa) = 56.01357 57.87520 56.94439
# Shear Modulus (GPa) = 35.47051 40.26150 37.86601
#
# Velocity S-wave (km/s) = 3.58357 3.81793 3.70261
# Velocity P-wave (km/s) = 6.11574 6.35523 6.23664
#
# Compressibility (1/GPa) = 0.01785282
#
# Stress axis : x y z
#
# Youngs Moduli (GPa) = 71.71725 71.71725 151.18001
#
# Poissons Ratio (x) = 0.41793 0.18875
# Poissons Ratio (y) = 0.41793 0.18875
# Poissons Ratio (z) = 0.08954 0.08954
#
# Static dielectric constant tensor:
#      x y z
#    x 2.308050 0.000000 0.000000 
#    y 0.000000 2.308050 0.000000 
#    z 0.000000 0.000000 2.298770 
# 
# From -- ./inp_files/2334.got.cif
#   From: 2010.05.17/outbox.cif.g08.bks.cpg/sg86_2_cif.got.tgz:2334.got - 2010.06.03 19:03:11.
