data_PCOD9545613
_publ_section_title
;
Structure prediction by ZEFSAII (Michael W. Deem and Ramdas Pophale) SiO2 
 PCOD9545613
Probable space group: I 4/M
;
_chemical_formula_sum "Si O2"
_cell_formula_units_Z 84
_cell_length_a 19.647353
_cell_length_b 19.647353
_cell_length_c 13.047382
_cell_angle_alpha 90.000000
_cell_angle_beta 90.000000
_cell_angle_gamma 90.000000
_cell_volume 5036.530566
_symmetry_space_group_name_H-M "I 4/M"
_symmetry_group_IT_number 87
_symmetry_cell_setting 'tetragonal'
loop_
_space_group_symop_operation_xyz
x,y,z
-y,x,z
-x,-y,z
y,-x,z
-x,-y,-z
y,-x,-z
x,y,-z
-y,x,-z
1/2+x,1/2+y,1/2+z
1/2-y,1/2+x,1/2+z
1/2-x,1/2-y,1/2+z
1/2+y,1/2-x,1/2+z
1/2-x,1/2-y,1/2-z
1/2+y,1/2-x,1/2-z
1/2+x,1/2+y,1/2-z
1/2-y,1/2+x,1/2-z
loop_
_atom_site_type_symbol
_atom_site_label
_atom_site_fract_x
_atom_site_fract_y
_atom_site_fract_z
Si Si1 0.000000 0.500000 0.250000
Si Si2 0.800259 0.304936 0.882395
Si Si3 0.580220 0.847126 0.618756
Si Si4 0.714293 0.347894 0.693078
Si Si5 0.593655 0.436948 0.621711
Si Si6 0.127600 0.434506 0.299919
O O1 0.046404 0.548508 0.180787
O O2 0.744960 0.337748 0.806391
O O3 0.805820 0.225980 0.850117
O O4 0.872952 0.340986 0.863526
O O5 0.780531 0.310394 0.000000
O O6 0.570442 0.865212 0.500000
O O7 0.621337 0.777069 0.628748
O O8 0.506413 0.837187 0.673909
O O9 0.621427 0.904217 0.684110
O O10 0.650684 0.397757 0.684322
O O11 0.591197 0.517767 0.641352
O O12 0.607413 0.427587 0.500000
#
# Coordination Sequence:
#
# PCOD9545613 Si02
#       6
#     4  16  16  16  16  16
#     4   8  16  36  50  72 112 134 164 216 250 292
#     4  10  20  35  53  77 107 138 172 214 256 304
#     4  10  19  34  52  74 107 139 171 216 262 306
#     4  10  21  34  53  79 105 136 175 213 257 315
#     4   9  18  32  52  81 109 131 164 214 269 313
#     4   9  19  33  51  78 102 135 177 208 251 314
#
# _framework density 16.678146999999999
#
# number of rings (size 3 to 8) (size 9 to 14) (size 15 to 20)
#    0.000    2.476    0.000    2.857    2.667    0.000 
#    0.000   32.857    0.000    1.143    0.000    1.333 
#    0.000    0.000    0.000    0.000    0.000    0.000 
#
# Total GULP energy -233886.359850 kJ/mol
# GULP energy per Si atom -5568.722854 kJ/mol
# Density = 1.664019 g / cm^3
# Si number density = 16.678147 Si / 1000 Ang^3
#
#
#
# Elastic Constant Matrix: (Units=GPa)
#
#
# Indices 1 2 3 4 5 6 
#
# 1 62.0186 42.1639 30.2561 0.0000 0.0000 -4.9368
# 2 42.1639 62.0186 30.2561 0.0000 0.0000 4.9368
# 3 30.2561 30.2561 95.0350 0.0000 0.0000 0.0000
# 4 0.0000 0.0000 0.0000 10.6641 0.0000 0.0000
# 5 0.0000 0.0000 0.0000 0.0000 10.6641 0.0000
# 6 -4.9368 4.9368 0.0000 0.0000 0.0000 37.3750
#
#
#
# Elastic Compliance Matrix: (Units=1/GPa)
#
#
# Indices 1 2 3 4 5 6 
#
# 1 0.032841 -0.021065 -0.003749 0.000000 0.000000 0.007120
# 2 -0.021065 0.032841 -0.003749 0.000000 0.000000 -0.007120
# 3 -0.003749 -0.003749 0.012910 0.000000 0.000000 0.000000
# 4 0.000000 0.000000 0.000000 0.093773 0.000000 0.000000
# 5 0.000000 0.000000 0.000000 0.000000 0.093773 0.000000
# 6 0.007120 -0.007120 0.000000 0.000000 0.000000 0.028637
#
#
# Mechanical properties :
#
#
# Convention : Reuss Voigt Hill
#
# Bulk Modulus (GPa) = 46.58667 47.15826 46.87246
# Shear Modulus (GPa) = 13.92535 19.50037 16.71286
#
# Velocity S-wave (km/s) = 2.89268 3.42309 3.16900
# Velocity P-wave (km/s) = 6.25701 6.63025 6.44633
#
# Compressibility (1/GPa) = 0.02146537
#
# Stress axis : x y z
#
# Youngs Moduli (GPa) = 30.44939 30.44939 77.46142
#
# Poissons Ratio (x) = 0.64142 0.29041
# Poissons Ratio (y) = 0.64142 0.29041
# Poissons Ratio (z) = 0.11416 0.11416
#
# Static dielectric constant tensor:
#      x y z
#    x 1.576020 0.000000 0.000000 
#    y 0.000000 1.576020 0.000000 
#    z 0.000000 0.000000 1.558000 
# 
# From -- ./inp_files/2639.got.cif
#   From: 2010.05.17/outbox.cif.g08.bks.cpg/sg87_2_cif.got.tgz:2639.got - 2010.06.03 19:07:00.
