data_PCOD9545746
_publ_section_title
;
Structure prediction by ZEFSAII (Michael W. Deem and Ramdas Pophale) SiO2 
 PCOD9545746
Probable space group: I 4/M
;
_chemical_formula_sum "Si O2"
_cell_formula_units_Z 104
_cell_length_a 26.467877
_cell_length_b 26.467877
_cell_length_c 7.395473
_cell_angle_alpha 90.000000
_cell_angle_beta 90.000000
_cell_angle_gamma 90.000000
_cell_volume 5180.887612
_symmetry_space_group_name_H-M "I 4/M"
_symmetry_group_IT_number 87
_symmetry_cell_setting 'tetragonal'
loop_
_space_group_symop_operation_xyz
x,y,z
-y,x,z
-x,-y,z
y,-x,z
-x,-y,-z
y,-x,-z
x,y,-z
-y,x,-z
1/2+x,1/2+y,1/2+z
1/2-y,1/2+x,1/2+z
1/2-x,1/2-y,1/2+z
1/2+y,1/2-x,1/2+z
1/2-x,1/2-y,1/2-z
1/2+y,1/2-x,1/2-z
1/2+x,1/2+y,1/2-z
1/2-y,1/2+x,1/2-z
loop_
_atom_site_type_symbol
_atom_site_label
_atom_site_fract_x
_atom_site_fract_y
_atom_site_fract_z
Si Si1 0.271264 0.852492 0.781293
Si Si2 0.103996 0.891137 0.281085
Si Si3 0.031691 0.263776 0.792092
Si Si4 0.003166 0.151354 0.719166
Si Si5 0.183707 0.462264 0.000000
Si Si6 0.195150 0.376218 0.708394
Si Si7 0.703270 0.675127 0.290742
O O1 0.255839 0.909775 0.736636
O O2 0.326642 0.839690 0.712556
O O3 0.229409 0.812591 0.713352
O O4 0.271657 0.849013 0.000000
O O5 0.104563 0.891143 0.500000
O O6 0.123746 0.945654 0.220747
O O7 0.141195 0.846803 0.220051
O O8 0.047418 0.877234 0.222667
O O9 0.004318 0.209361 0.780221
O O10 0.003811 0.300964 0.657469
O O11 0.031304 0.281103 0.000000
O O12 0.003131 0.152449 0.500000
O O13 0.175795 0.419101 0.159063
O O14 0.200856 0.393784 0.500000
O O15 0.249485 0.356153 0.782873
O O16 0.716762 0.683426 0.500000
#
# Coordination Sequence:
#
# PCOD9545746 Si02
#       7
#    16  16  16  16   8  16  16
#     4  10  21  40  62  90 127 168 210 259 315 381
#     4  10  21  33  54  77 113 159 213 270 333 379
#     4  11  23  39  63  89 122 166 213 256 311 374
#     4  10  20  36  53  82 112 157 215 279 329 379
#     4  12  24  42  60  90 130 166 206 258 305 372
#     4  11  24  39  62  93 129 169 206 259 319 378
#     4  10  21  36  55  85 121 163 211 261 318 384
#
# _framework density 20.073779999999999
#
# number of rings (size 3 to 8) (size 9 to 14) (size 15 to 20)
#    0.000    1.538    3.077    1.846    4.308    2.769 
#    0.000    1.538    0.000    0.000    0.000    2.154 
#    0.000    1.846    0.000    0.000    0.000    0.000 
#
# Total GULP energy -289626.307811 kJ/mol
# GULP energy per Si atom -5569.736689 kJ/mol
# Density = 2.002809 g / cm^3
# Si number density = 20.073780 Si / 1000 Ang^3
#
#
#
# Elastic Constant Matrix: (Units=GPa)
#
#
# Indices 1 2 3 4 5 6 
#
# 1 43.1470 -7.0846 2.8292 0.0000 0.0000 -9.5516
# 2 -7.0846 43.1470 2.8292 0.0000 0.0000 9.5516
# 3 2.8292 2.8292 100.2883 0.0000 0.0000 0.0000
# 4 0.0000 0.0000 0.0000 27.4910 0.0000 0.0000
# 5 0.0000 0.0000 0.0000 0.0000 27.4910 0.0000
# 6 -9.5516 9.5516 0.0000 0.0000 0.0000 10.3353
#
#
#
# Elastic Compliance Matrix: (Units=1/GPa)
#
#
# Indices 1 2 3 4 5 6 
#
# 1 0.029275 -0.001422 -0.000786 0.000000 0.000000 0.028369
# 2 -0.001422 0.029275 -0.000786 0.000000 0.000000 -0.028369
# 3 -0.000786 -0.000786 0.010016 0.000000 0.000000 0.000000
# 4 0.000000 0.000000 0.000000 0.036375 0.000000 0.000000
# 5 0.000000 0.000000 0.000000 0.000000 0.036375 0.000000
# 6 0.028369 -0.028369 0.000000 0.000000 0.000000 0.149190
#
#
# Mechanical properties :
#
#
# Convention : Reuss Voigt Hill
#
# Bulk Modulus (GPa) = 15.97991 20.41444 18.19717
# Shear Modulus (GPa) = 15.75538 25.59738 20.67638
#
# Velocity S-wave (km/s) = 2.80460 3.57482 3.21287
# Velocity P-wave (km/s) = 4.29716 5.21832 4.77998
#
# Compressibility (1/GPa) = 0.06257859
#
# Stress axis : x y z
#
# Youngs Moduli (GPa) = 34.15919 34.15919 99.84434
#
# Poissons Ratio (x) = 0.04856 0.07845
# Poissons Ratio (y) = 0.04856 0.07845
# Poissons Ratio (z) = 0.02684 0.02684
#
# Static dielectric constant tensor:
#      x y z
#    x 1.699410 0.000000 0.000000 
#    y 0.000000 1.699410 0.000000 
#    z 0.000000 0.000000 1.719300 
# 
# From -- ./inp_files/1608.got.cif
#   From: 2010.05.17/outbox.cif.g08.bks.cpg/sg87_1_cif.got.tgz:1608.got - 2010.06.03 19:07:00.
