data_PCOD9545314
_publ_section_title
;
Structure prediction by ZEFSAII (Michael W. Deem and Ramdas Pophale) SiO2 
 PCOD9545314
Probable space group: P 42/N
;
_chemical_formula_sum "Si O2"
_cell_formula_units_Z 36
_cell_length_a 10.910179
_cell_length_b 10.910179
_cell_length_c 12.284382
_cell_angle_alpha 90.000000
_cell_angle_beta 90.000000
_cell_angle_gamma 90.000000
_cell_volume 1462.234630
_symmetry_space_group_name_H-M "P 42/N"
_symmetry_group_IT_number 86
_space_group.IT_coordinate_system_code '2'
_symmetry_cell_setting 'tetragonal'
loop_
_space_group_symop_operation_xyz
x,y,z
-y,1/2+x,1/2+z
1/2-x,1/2-y,z
1/2+y,-x,1/2+z
-x,-y,-z
y,1/2-x,1/2-z
1/2+x,1/2+y,-z
1/2-y,x,1/2-z
loop_
_atom_site_type_symbol
_atom_site_label
_atom_site_fract_x
_atom_site_fract_y
_atom_site_fract_z
Si Si1 0.599059 0.097455 0.467719
Si Si2 0.250000 0.750000 0.373467
Si Si3 0.109181 0.118039 0.704555
Si Si4 0.983499 0.360139 0.241745
Si Si5 0.610577 0.799438 0.979496
O O1 0.642617 0.197964 0.551824
O O2 0.531197 0.169925 0.368809
O O3 0.500000 0.000000 0.500000
O O4 0.716743 0.002365 0.470769
O O5 0.305527 0.642289 0.303281
O O6 0.087085 0.255685 0.749664
O O7 0.098175 0.114286 0.573872
O O8 0.007548 0.025186 0.746881
O O9 0.079950 0.323857 0.147887
O O10 0.750000 0.750000 0.984902
#
# Coordination Sequence:
#
# PCOD9545314 Si02
#       5
#     8   4   8   8   8
#     4  11  25  46  71 101 146 191 231 305 376 427
#     4  10  26  44  72 102 144 190 250 294 360 458
#     4  11  20  38  73 101 137 182 235 295 351 432
#     4  11  24  44  69 105 137 189 240 297 362 429
#     4  11  23  44  66 108 140 184 242 295 360 438
#
# _framework density 24.619854
#
# number of rings (size 3 to 8) (size 9 to 14) (size 15 to 20)
#    0.000    1.111    4.444    1.333    6.222    0.000 
#    8.000    0.000    0.000    0.000    0.000    0.000 
#    0.000    0.000    0.000    0.000    0.000    0.000 
#
# Total GULP energy -200707.555988 kJ/mol
# GULP energy per Si atom -5575.209889 kJ/mol
# Density = 2.456382 g / cm^3
# Si number density = 24.619854 Si / 1000 Ang^3
#
#
#
# Elastic Constant Matrix: (Units=GPa)
#
#
# Indices 1 2 3 4 5 6 
#
# 1 39.2579 -18.3378 5.6910 0.0000 0.0000 8.8683
# 2 -18.3378 39.2579 5.6910 0.0000 0.0000 -8.8683
# 3 5.6910 5.6910 136.2806 0.0000 0.0000 0.0000
# 4 0.0000 0.0000 0.0000 34.3493 0.0000 0.0000
# 5 0.0000 0.0000 0.0000 0.0000 34.3493 0.0000
# 6 8.8683 -8.8683 0.0000 0.0000 0.0000 28.4781
#
#
#
# Elastic Compliance Matrix: (Units=1/GPa)
#
#
# Indices 1 2 3 4 5 6 
#
# 1 0.034058 0.014854 -0.002043 0.000000 0.000000 -0.005980
# 2 0.014854 0.034058 -0.002043 0.000000 0.000000 0.005980
# 3 -0.002043 -0.002043 0.007508 0.000000 0.000000 0.000000
# 4 0.000000 0.000000 0.000000 0.029113 0.000000 0.000000
# 5 0.000000 0.000000 0.000000 0.000000 0.029113 0.000000
# 6 -0.005980 0.005980 0.000000 0.000000 0.000000 0.038839
#
#
# Mechanical properties :
#
#
# Convention : Reuss Voigt Hill
#
# Bulk Modulus (GPa) = 10.29201 22.32051 16.30626
# Shear Modulus (GPa) = 27.24217 34.21880 30.73049
#
# Velocity S-wave (km/s) = 3.33004 3.73216 3.53682
# Velocity P-wave (km/s) = 4.35603 5.25907 4.82870
#
# Compressibility (1/GPa) = 0.09716276
#
# Stress axis : x y z
#
# Youngs Moduli (GPa) = 29.36155 29.36155 133.18435
#
# Poissons Ratio (x) = -0.43614 0.27203
# Poissons Ratio (y) = -0.43614 0.27203
# Poissons Ratio (z) = 0.05997 0.05997
#
# Static dielectric constant tensor:
#      x y z
#    x 4.294850 0.000000 0.000000 
#    y 0.000000 4.294850 0.000000 
#    z 0.000000 0.000000 2.057240 
# 
# From -- ./inp_files/2068.got.cif
#   From: 2010.05.17/outbox.cif.g08.bks.cpg/sg86_2_cif.got.tgz:2068.got - 2010.06.03 19:03:11.
