data_PCOD9545139
_publ_section_title
;
Structure prediction by ZEFSAII (Michael W. Deem and Ramdas Pophale) SiO2 
 PCOD9545139
Probable space group: P 42/N
;
_chemical_formula_sum "Si O2"
_cell_formula_units_Z 34
_cell_length_a 10.982983
_cell_length_b 10.982983
_cell_length_c 13.349323
_cell_angle_alpha 90.000000
_cell_angle_beta 90.000000
_cell_angle_gamma 90.000000
_cell_volume 1610.274309
_symmetry_space_group_name_H-M "P 42/N"
_symmetry_group_IT_number 86
_space_group.IT_coordinate_system_code '2'
_symmetry_cell_setting 'tetragonal'
loop_
_space_group_symop_operation_xyz
x,y,z
-y,1/2+x,1/2+z
1/2-x,1/2-y,z
1/2+y,-x,1/2+z
-x,-y,-z
y,1/2-x,1/2-z
1/2+x,1/2+y,-z
1/2-y,x,1/2-z
loop_
_atom_site_type_symbol
_atom_site_label
_atom_site_fract_x
_atom_site_fract_y
_atom_site_fract_z
Si Si1 0.750000 0.750000 0.750000
Si Si2 0.912080 0.155405 0.315216
Si Si3 0.843487 0.983492 0.670372
Si Si4 0.048381 0.262713 0.730131
Si Si5 0.616076 0.307628 0.541843
O O1 0.761565 0.864010 0.676789
O O2 0.922694 0.204885 0.427374
O O3 0.922932 0.270030 0.240940
O O4 0.026777 0.066646 0.293909
O O5 0.797752 0.066894 0.299653
O O6 0.865699 0.049641 0.566480
O O7 0.145807 0.373769 0.734073
O O8 0.984122 0.240148 0.621743
O O9 0.750000 0.250000 0.554798
#
# Coordination Sequence:
#
# PCOD9545139 Si02
#       5
#     2   8   8   8   8
#     4   8  20  40  68  96 128 178 224 284 324 380
#     4  11  24  45  69  98 133 173 229 277 330 397
#     4  10  21  44  68  94 134 173 221 285 326 383
#     4  11  25  46  65  98 141 178 217 278 333 397
#     4  12  25  41  71 100 130 182 225 269 340 403
#
# _framework density 21.114414
#
# number of rings (size 3 to 8) (size 9 to 14) (size 15 to 20)
#    0.000    1.176    4.706    0.706    3.294    0.000 
#   12.706    2.353    0.000    0.000    0.000    0.000 
#    0.000    0.000    0.000    0.000    0.000    0.000 
#
# Total GULP energy -189539.852546 kJ/mol
# GULP energy per Si atom -5574.701545 kJ/mol
# Density = 2.106636 g / cm^3
# Si number density = 21.114414 Si / 1000 Ang^3
#
#
#
# Elastic Constant Matrix: (Units=GPa)
#
#
# Indices 1 2 3 4 5 6 
#
# 1 92.8550 49.0537 23.6046 0.0000 0.0000 -13.1378
# 2 49.0537 92.8550 23.6046 0.0000 0.0000 13.1378
# 3 23.6046 23.6046 98.0332 0.0000 0.0000 0.0000
# 4 0.0000 0.0000 0.0000 16.4106 0.0000 0.0000
# 5 0.0000 0.0000 0.0000 0.0000 16.4106 0.0000
# 6 -13.1378 13.1378 0.0000 0.0000 0.0000 36.8447
#
#
#
# Elastic Compliance Matrix: (Units=1/GPa)
#
#
# Indices 1 2 3 4 5 6 
#
# 1 0.018352 -0.010691 -0.001844 0.000000 0.000000 0.010356
# 2 -0.010691 0.018352 -0.001844 0.000000 0.000000 -0.010356
# 3 -0.001844 -0.001844 0.011089 0.000000 0.000000 0.000000
# 4 0.000000 0.000000 0.000000 0.060936 0.000000 0.000000
# 5 0.000000 0.000000 0.000000 0.000000 0.060936 0.000000
# 6 0.010356 -0.010356 0.000000 0.000000 0.000000 0.034526
#
#
# Mechanical properties :
#
#
# Convention : Reuss Voigt Hill
#
# Bulk Modulus (GPa) = 52.54388 52.91879 52.73133
# Shear Modulus (GPa) = 20.89478 26.43187 23.66332
#
# Velocity S-wave (km/s) = 3.14920 3.54197 3.35135
# Velocity P-wave (km/s) = 6.17759 6.46875 6.32485
#
# Compressibility (1/GPa) = 0.01903171
#
# Stress axis : x y z
#
# Youngs Moduli (GPa) = 54.49146 54.49146 90.18059
#
# Poissons Ratio (x) = 0.58257 0.16634
# Poissons Ratio (y) = 0.58257 0.16634
# Poissons Ratio (z) = 0.10051 0.10051
#
# Static dielectric constant tensor:
#      x y z
#    x 1.809950 0.000000 0.000000 
#    y 0.000000 1.809950 0.000000 
#    z 0.000000 0.000000 1.712230 
# 
# From -- ./inp_files/1951.got.cif
#   From: 2010.05.17/outbox.cif.g08.bks.cpg/sg86_1_cif.got.tgz:1951.got - 2010.06.03 19:03:11.
