data_PCOD9545515
_publ_section_title
;
Structure prediction by ZEFSAII (Michael W. Deem and Ramdas Pophale) SiO2 
 PCOD9545515
Probable space group: I 4/M
;
_chemical_formula_sum "Si O2"
_cell_formula_units_Z 116
_cell_length_a 18.732873
_cell_length_b 18.732873
_cell_length_c 17.373302
_cell_angle_alpha 90.000000
_cell_angle_beta 90.000000
_cell_angle_gamma 90.000000
_cell_volume 6096.648360
_symmetry_space_group_name_H-M "I 4/M"
_symmetry_group_IT_number 87
_symmetry_cell_setting 'tetragonal'
loop_
_space_group_symop_operation_xyz
x,y,z
-y,x,z
-x,-y,z
y,-x,z
-x,-y,-z
y,-x,-z
x,y,-z
-y,x,-z
1/2+x,1/2+y,1/2+z
1/2-y,1/2+x,1/2+z
1/2-x,1/2-y,1/2+z
1/2+y,1/2-x,1/2+z
1/2-x,1/2-y,1/2-z
1/2+y,1/2-x,1/2-z
1/2+x,1/2+y,1/2-z
1/2-y,1/2+x,1/2-z
loop_
_atom_site_type_symbol
_atom_site_label
_atom_site_fract_x
_atom_site_fract_y
_atom_site_fract_z
Si Si1 0.706540 0.981811 0.085813
Si Si2 0.909516 0.872834 0.751850
Si Si3 0.393659 0.646983 0.586095
Si Si4 0.032239 0.287040 0.252639
Si Si5 0.500000 0.500000 0.200003
Si Si6 0.662798 0.155041 0.641609
Si Si7 0.372263 0.755364 0.212137
Si Si8 0.768297 0.743050 0.084826
O O1 0.787863 0.950607 0.092524
O O2 0.659703 0.909690 0.093318
O O3 0.689616 0.026636 0.162691
O O4 0.699131 0.013543 0.000000
O O5 0.903414 0.900922 0.840250
O O6 0.935725 0.792053 0.751890
O O7 0.830028 0.875191 0.717479
O O8 0.965532 0.919723 0.706040
O O9 0.400754 0.615638 0.500000
O O10 0.313796 0.681608 0.590828
O O11 0.082763 0.329115 0.311071
O O12 0.952739 0.284317 0.287495
O O13 0.658725 0.215016 0.708304
O O14 0.728191 0.186523 0.592836
O O15 0.318004 0.780466 0.146969
O O16 0.779359 0.713420 0.000000
#
# Coordination Sequence:
#
# PCOD9545515 Si02
#       8
#    16  16  16  16   4  16  16  16
#     4   9  18  35  53  80 115 143 174 225 288 340
#     4  12  19  34  50  77 110 156 192 224 261 329
#     4   9  17  31  53  79 109 142 179 228 278 322
#     4  11  21  31  56  81 107 148 191 232 281 337
#     4  12  24  32  49  76 117 164 200 198 256 328
#     4  10  18  33  58  84 104 141 193 235 280 338
#     4  11  20  35  53  78 112 142 181 247 283 324
#     4  10  18  31  54  81 105 136 178 238 300 328
#
# _framework density 19.026848000000001
#
# number of rings (size 3 to 8) (size 9 to 14) (size 15 to 20)
#    0.000    1.655    6.897    2.483    0.000    0.552 
#    0.000    3.103    0.000    6.621    0.000    4.345 
#    0.000    0.000    0.000    0.000    0.000    0.000 
#
# Total GULP energy -323047.537520 kJ/mol
# GULP energy per Si atom -5569.785130 kJ/mol
# Density = 1.898354 g / cm^3
# Si number density = 19.026848 Si / 1000 Ang^3
#
#
#
# Elastic Constant Matrix: (Units=GPa)
#
#
# Indices 1 2 3 4 5 6 
#
# 1 37.8052 -7.5922 3.4209 0.0000 0.0000 13.9886
# 2 -7.5922 37.8052 3.4209 0.0000 0.0000 -13.9886
# 3 3.4209 3.4209 43.3573 0.0000 0.0000 0.0000
# 4 0.0000 0.0000 0.0000 17.9939 0.0000 0.0000
# 5 0.0000 0.0000 0.0000 0.0000 17.9939 0.0000
# 6 13.9886 -13.9886 0.0000 0.0000 0.0000 28.8475
#
#
#
# Elastic Compliance Matrix: (Units=1/GPa)
#
#
# Indices 1 2 3 4 5 6 
#
# 1 0.032558 0.001142 -0.002659 0.000000 0.000000 -0.015234
# 2 0.001142 0.032558 -0.002659 0.000000 0.000000 0.015234
# 3 -0.002659 -0.002659 0.023484 0.000000 0.000000 0.000000
# 4 0.000000 0.000000 0.000000 0.055574 0.000000 0.000000
# 5 0.000000 0.000000 0.000000 0.000000 0.055574 0.000000
# 6 -0.015234 0.015234 0.000000 0.000000 0.000000 0.049440
#
#
# Mechanical properties :
#
#
# Convention : Reuss Voigt Hill
#
# Bulk Modulus (GPa) = 12.46126 13.05189 12.75658
# Shear Modulus (GPa) = 17.58767 20.94827 19.26797
#
# Velocity S-wave (km/s) = 3.04363 3.32171 3.18570
# Velocity P-wave (km/s) = 4.34915 4.64610 4.50008
#
# Compressibility (1/GPa) = 0.08024871
#
# Stress axis : x y z
#
# Youngs Moduli (GPa) = 30.71410 30.71410 42.58260
#
# Poissons Ratio (x) = -0.03508 0.11323
# Poissons Ratio (y) = -0.03508 0.11323
# Poissons Ratio (z) = 0.08167 0.08167
#
# Static dielectric constant tensor:
#      x y z
#    x 1.694360 0.000000 0.000000 
#    y 0.000000 1.694360 0.000000 
#    z 0.000000 0.000000 1.714710 
# 
# From -- ./inp_files/4591.got.cif
#   From: 2010.05.17/outbox.cif.g08.bks.cpg/sg87_3_cif.got.tgz:4591.got - 2010.06.03 19:07:00.
