data_PCOD9545499
_publ_section_title
;
Structure prediction by ZEFSAII (Michael W. Deem and Ramdas Pophale) SiO2 
 PCOD9545499
Probable space group: I 4/M
;
_chemical_formula_sum "Si O2"
_cell_formula_units_Z 112
_cell_length_a 26.281273
_cell_length_b 26.281273
_cell_length_c 7.319244
_cell_angle_alpha 90.000000
_cell_angle_beta 90.000000
_cell_angle_gamma 90.000000
_cell_volume 5055.440700
_symmetry_space_group_name_H-M "I 4/M"
_symmetry_group_IT_number 87
_symmetry_cell_setting 'tetragonal'
loop_
_space_group_symop_operation_xyz
x,y,z
-y,x,z
-x,-y,z
y,-x,z
-x,-y,-z
y,-x,-z
x,y,-z
-y,x,-z
1/2+x,1/2+y,1/2+z
1/2-y,1/2+x,1/2+z
1/2-x,1/2-y,1/2+z
1/2+y,1/2-x,1/2+z
1/2-x,1/2-y,1/2-z
1/2+y,1/2-x,1/2-z
1/2+x,1/2+y,1/2-z
1/2-y,1/2+x,1/2-z
loop_
_atom_site_type_symbol
_atom_site_label
_atom_site_fract_x
_atom_site_fract_y
_atom_site_fract_z
Si Si1 0.327261 0.384514 0.276765
Si Si2 0.016725 0.764546 0.777230
Si Si3 0.316077 0.586507 0.707102
Si Si4 0.632886 0.786195 0.220493
Si Si5 0.623188 0.066952 0.721200
Si Si6 0.043458 0.650228 0.208815
Si Si7 0.759542 0.690744 0.716396
O O1 0.329343 0.382503 0.500000
O O2 0.305276 0.439562 0.229830
O O3 0.382258 0.363752 0.213646
O O4 0.283984 0.345295 0.210142
O O5 0.032361 0.707185 0.714545
O O6 0.963262 0.788667 0.711373
O O7 0.013636 0.760776 0.000000
O O8 0.330017 0.572197 0.500000
O O9 0.270161 0.627589 0.703811
O O10 0.585173 0.820248 0.272438
O O11 0.683009 0.816151 0.282343
O O12 0.634830 0.781923 0.000000
O O13 0.619815 0.065142 0.500000
O O14 0.584443 0.110477 0.786643
O O15 0.619567 0.009706 0.789285
O O16 0.060532 0.659647 0.000000
O O17 0.760175 0.681508 0.500000
O O18 0.750000 0.750000 0.750000
#
# Coordination Sequence:
#
# PCOD9545499 Si02
#       7
#    16  16  16  16  16  16  16
#     4   9  17  29  47  73 102 128 162 204 243 293
#     4   9  17  31  51  74 100 131 168 204 246 300
#     4  10  18  30  52  76  95 127 170 205 240 291
#     4  10  19  31  48  70 100 132 160 198 253 306
#     4  10  21  35  51  72  98 131 171 214 260 299
#     4  10  20  35  54  72  95 132 174 211 251 301
#     4  10  18  28  45  69  99 130 157 194 246 299
#
# _framework density 22.154350000000001
#
# number of rings (size 3 to 8) (size 9 to 14) (size 15 to 20)
#    0.000    2.286    2.857    0.857    0.000    4.286 
#    0.000    1.429    0.000    5.571    0.000    3.000 
#    0.000    0.000    0.000    1.286    0.000    1.429 
#
# Total GULP energy -312425.064103 kJ/mol
# GULP energy per Si atom -5579.019002 kJ/mol
# Density = 2.210393 g / cm^3
# Si number density = 22.154350 Si / 1000 Ang^3
#
#
#
# Elastic Constant Matrix: (Units=GPa)
#
#
# Indices 1 2 3 4 5 6 
#
# 1 116.9463 56.0278 -2.6765 0.0000 0.0000 -4.9689
# 2 56.0278 116.9463 -2.6765 0.0000 0.0000 4.9689
# 3 -2.6765 -2.6765 88.8274 0.0000 0.0000 0.0000
# 4 0.0000 0.0000 0.0000 0.5297 0.0000 0.0000
# 5 0.0000 0.0000 0.0000 0.0000 0.5297 0.0000
# 6 -4.9689 4.9689 0.0000 0.0000 0.0000 41.0907
#
#
#
# Elastic Compliance Matrix: (Units=1/GPa)
#
#
# Indices 1 2 3 4 5 6 
#
# 1 0.011266 -0.005480 0.000174 0.000000 0.000000 0.002025
# 2 -0.005480 0.011266 0.000174 0.000000 0.000000 -0.002025
# 3 0.000174 0.000174 0.011268 0.000000 0.000000 0.000000
# 4 0.000000 0.000000 0.000000 1.887788 0.000000 0.000000
# 5 0.000000 0.000000 0.000000 0.000000 1.887788 0.000000
# 6 0.002025 -0.002025 0.000000 0.000000 0.000000 0.024826
#
#
# Mechanical properties :
#
#
# Convention : Reuss Voigt Hill
#
# Bulk Modulus (GPa) = 42.48276 47.11881 44.80079
# Shear Modulus (GPa) = 1.29792 26.56637 13.93215
#
# Velocity S-wave (km/s) = 0.76624 3.46663 2.51044
# Velocity P-wave (km/s) = 4.47217 6.11048 5.35436
#
# Compressibility (1/GPa) = 0.02353896
#
# Stress axis : x y z
#
# Youngs Moduli (GPa) = 88.76137 88.76137 88.74461
#
# Poissons Ratio (x) = 0.48637 -0.01547
# Poissons Ratio (y) = 0.48637 -0.01547
# Poissons Ratio (z) = -0.01548 -0.01548
#
# Static dielectric constant tensor:
#      x y z
#    x 1.816330 0.000000 0.000000 
#    y 0.000000 1.816330 0.000000 
#    z 0.000000 0.000000 1.805930 
# 
# From -- ./inp_files/2893.got.cif
#   From: 2010.05.17/outbox.cif.g08.bks.cpg/sg87_2_cif.got.tgz:2893.got - 2010.06.03 19:07:00.
