data_PCOD9545703
_publ_section_title
;
Structure prediction by ZEFSAII (Michael W. Deem and Ramdas Pophale) SiO2 
 PCOD9545703
Probable space group: I 4/M
;
_chemical_formula_sum "Si O2"
_cell_formula_units_Z 80
_cell_length_a 17.230936
_cell_length_b 17.230936
_cell_length_c 12.449470
_cell_angle_alpha 90.000000
_cell_angle_beta 90.000000
_cell_angle_gamma 90.000000
_cell_volume 3696.311825
_symmetry_space_group_name_H-M "I 4/M"
_symmetry_group_IT_number 87
_symmetry_cell_setting 'tetragonal'
loop_
_space_group_symop_operation_xyz
x,y,z
-y,x,z
-x,-y,z
y,-x,z
-x,-y,-z
y,-x,-z
x,y,-z
-y,x,-z
1/2+x,1/2+y,1/2+z
1/2-y,1/2+x,1/2+z
1/2-x,1/2-y,1/2+z
1/2+y,1/2-x,1/2+z
1/2-x,1/2-y,1/2-z
1/2+y,1/2-x,1/2-z
1/2+x,1/2+y,1/2-z
1/2-y,1/2+x,1/2-z
loop_
_atom_site_type_symbol
_atom_site_label
_atom_site_fract_x
_atom_site_fract_y
_atom_site_fract_z
Si Si1 0.629837 0.766101 0.836207
Si Si2 0.980335 0.620939 0.256921
Si Si3 0.621699 0.461992 0.194185
Si Si4 0.223087 0.025213 0.872423
Si Si5 0.696532 0.706358 0.618131
O O1 0.576478 0.841567 0.845713
O O2 0.575859 0.693899 0.866141
O O3 0.654603 0.755199 0.710242
O O4 0.713527 0.768563 0.888207
O O5 0.925527 0.555726 0.202146
O O6 0.007101 0.694361 0.184763
O O7 0.592524 0.548540 0.171552
O O8 0.655733 0.473738 0.315924
O O9 0.201569 0.115457 0.851224
O O10 0.227290 0.016186 0.000000
O O11 0.661356 0.715287 0.500000
#
# Coordination Sequence:
#
# PCOD9545703 Si02
#       5
#    16  16  16  16  16
#     4  10  20  35  60  80 114 157 190 230 287 338
#     4  10  20  36  55  79 108 150 191 234 281 340
#     4  10  20  34  54  83 114 148 187 229 289 346
#     4  10  20  35  53  80 116 148 181 229 286 347
#     4  10  20  36  56  85 114 148 192 231 273 341
#
# _framework density 21.643194000000001
#
# number of rings (size 3 to 8) (size 9 to 14) (size 15 to 20)
#    0.000    2.000    4.000    0.000    0.000    4.000 
#    0.000    4.000    0.000    3.600    0.000    1.400 
#    0.000    0.000    0.000    0.000    0.000    0.000 
#
# Total GULP energy -222913.019375 kJ/mol
# GULP energy per Si atom -5572.825484 kJ/mol
# Density = 2.159393 g / cm^3
# Si number density = 21.643194 Si / 1000 Ang^3
#
#
#
# Elastic Constant Matrix: (Units=GPa)
#
#
# Indices 1 2 3 4 5 6 
#
# 1 110.0493 39.3329 -4.1370 0.0000 0.0000 -2.0129
# 2 39.3329 110.0493 -4.1370 0.0000 0.0000 2.0129
# 3 -4.1370 -4.1370 42.5014 0.0000 0.0000 0.0000
# 4 0.0000 0.0000 0.0000 5.7567 0.0000 0.0000
# 5 0.0000 0.0000 0.0000 0.0000 5.7567 0.0000
# 6 -2.0129 2.0129 0.0000 0.0000 0.0000 59.8456
#
#
#
# Elastic Compliance Matrix: (Units=1/GPa)
#
#
# Indices 1 2 3 4 5 6 
#
# 1 0.010449 -0.003719 0.000655 0.000000 0.000000 0.000477
# 2 -0.003719 0.010449 0.000655 0.000000 0.000000 -0.000477
# 3 0.000655 0.000655 0.023656 0.000000 0.000000 0.000000
# 4 0.000000 0.000000 0.000000 0.173711 0.000000 0.000000
# 5 0.000000 0.000000 0.000000 0.000000 0.173711 0.000000
# 6 0.000477 -0.000477 0.000000 0.000000 0.000000 0.016742
#
#
# Mechanical properties :
#
#
# Convention : Reuss Voigt Hill
#
# Bulk Modulus (GPa) = 25.16495 36.07975 30.62235
# Shear Modulus (GPa) = 11.71562 29.70789 20.71175
#
# Velocity S-wave (km/s) = 2.32913 3.70891 3.09684
# Velocity P-wave (km/s) = 4.34575 5.92012 5.19294
#
# Compressibility (1/GPa) = 0.03973781
#
# Stress axis : x y z
#
# Youngs Moduli (GPa) = 95.70001 95.70001 42.27221
#
# Poissons Ratio (x) = 0.35589 -0.02769
# Poissons Ratio (y) = 0.35589 -0.02769
# Poissons Ratio (z) = -0.06270 -0.06270
#
# Static dielectric constant tensor:
#      x y z
#    x 1.813720 0.000000 0.000000 
#    y 0.000000 1.813720 0.000000 
#    z 0.000000 0.000000 1.793200 
# 
# From -- ./inp_files/3528.got.cif
#   From: 2010.05.17/outbox.cif.g08.bks.cpg/sg87_2_cif.got.tgz:3528.got - 2010.06.03 19:07:00.
