data_PCOD9545989
_publ_section_title
;
Structure prediction by ZEFSAII (Michael W. Deem and Ramdas Pophale) SiO2 
 PCOD9545989
Probable space group: I 4/M
;
_chemical_formula_sum "Si O2"
_cell_formula_units_Z 60
_cell_length_a 10.979397
_cell_length_b 10.979397
_cell_length_c 23.696838
_cell_angle_alpha 90.000000
_cell_angle_beta 90.000000
_cell_angle_gamma 90.000000
_cell_volume 2856.586486
_symmetry_space_group_name_H-M "I 4/M"
_symmetry_group_IT_number 87
_symmetry_cell_setting 'tetragonal'
loop_
_space_group_symop_operation_xyz
x,y,z
-y,x,z
-x,-y,z
y,-x,z
-x,-y,-z
y,-x,-z
x,y,-z
-y,x,-z
1/2+x,1/2+y,1/2+z
1/2-y,1/2+x,1/2+z
1/2-x,1/2-y,1/2+z
1/2+y,1/2-x,1/2+z
1/2-x,1/2-y,1/2-z
1/2+y,1/2-x,1/2-z
1/2+x,1/2+y,1/2-z
1/2-y,1/2+x,1/2-z
loop_
_atom_site_type_symbol
_atom_site_label
_atom_site_fract_x
_atom_site_fract_y
_atom_site_fract_z
Si Si1 0.395611 0.670085 0.172932
Si Si2 0.000000 0.000000 0.139287
Si Si3 0.679335 0.944721 0.772544
Si Si4 0.233638 0.591617 0.376536
Si Si5 0.953524 0.797174 0.000000
O O1 0.340386 0.538924 0.158655
O O2 0.395438 0.700931 0.240672
O O3 0.326824 0.781415 0.142975
O O4 0.086716 0.121984 0.135705
O O5 0.568742 0.854909 0.760545
O O6 0.679000 0.986566 0.836745
O O7 0.222884 0.567168 0.442942
O O8 0.086900 0.860626 0.000000
#
# Coordination Sequence:
#
# PCOD9545989 Si02
#       5
#    16   4  16  16   8
#     4  10  24  41  63  91 131 177 219 257 312 385
#     4  12  24  37  68 100 128 168 208 273 324 394
#     4   9  21  38  62  95 131 169 212 266 319 380
#     4  11  23  40  66  97 132 164 212 266 326 381
#     4  11  20  38  64  97 130 162 208 270 329 382
#
# _framework density 21.004089
#
# number of rings (size 3 to 8) (size 9 to 14) (size 15 to 20)
#    0.000    1.733    2.667    0.000    7.467    2.133 
#    0.000    1.333    0.000   16.000    0.000    0.000 
#    0.000    0.000    0.000    0.000    0.000    0.000 
#
# Total GULP energy -167058.880374 kJ/mol
# GULP energy per Si atom -5568.629346 kJ/mol
# Density = 2.095628 g / cm^3
# Si number density = 21.004089 Si / 1000 Ang^3
#
#
#
# Elastic Constant Matrix: (Units=GPa)
#
#
# Indices 1 2 3 4 5 6 
#
# 1 98.8369 51.4465 46.0287 0.0000 0.0000 -7.0330
# 2 51.4465 98.8369 46.0287 0.0000 0.0000 7.0330
# 3 46.0287 46.0287 186.2412 0.0000 0.0000 0.0000
# 4 0.0000 0.0000 0.0000 19.8506 0.0000 0.0000
# 5 0.0000 0.0000 0.0000 0.0000 19.8506 0.0000
# 6 -7.0330 7.0330 0.0000 0.0000 0.0000 48.8897
#
#
#
# Elastic Compliance Matrix: (Units=1/GPa)
#
#
# Indices 1 2 3 4 5 6 
#
# 1 0.014942 -0.007101 -0.001938 0.000000 0.000000 0.003171
# 2 -0.007101 0.014942 -0.001938 0.000000 0.000000 -0.003171
# 3 -0.001938 -0.001938 0.006327 0.000000 0.000000 0.000000
# 4 0.000000 0.000000 0.000000 0.050376 0.000000 0.000000
# 5 0.000000 0.000000 0.000000 0.000000 0.050376 0.000000
# 6 0.003171 -0.003171 0.000000 0.000000 0.000000 0.021367
#
#
# Mechanical properties :
#
#
# Convention : Reuss Voigt Hill
#
# Bulk Modulus (GPa) = 70.13616 74.54698 72.34157
# Shear Modulus (GPa) = 27.02183 33.74560 30.38371
#
# Velocity S-wave (km/s) = 3.59068 4.01262 3.80750
# Velocity P-wave (km/s) = 7.11722 7.55227 7.33797
#
# Compressibility (1/GPa) = 0.01425798
#
# Stress axis : x y z
#
# Youngs Moduli (GPa) = 66.92624 66.92624 158.04597
#
# Poissons Ratio (x) = 0.47522 0.30628
# Poissons Ratio (y) = 0.47522 0.30628
# Poissons Ratio (z) = 0.12970 0.12970
#
# Static dielectric constant tensor:
#      x y z
#    x 1.802390 0.000000 0.000000 
#    y 0.000000 1.802390 0.000000 
#    z 0.000000 0.000000 1.793360 
# 
# From -- ./inp_files/5012.got.cif
#   From: 2010.05.17/outbox.cif.g08.bks.cpg/sg87_3_cif.got.tgz:5012.got - 2010.06.03 19:07:00.
