data_PCOD9545439
_publ_section_title
;
Structure prediction by ZEFSAII (Michael W. Deem and Ramdas Pophale) SiO2 
 PCOD9545439
Probable space group: P 42/N
;
_chemical_formula_sum "Si O2"
_cell_formula_units_Z 40
_cell_length_a 9.523383
_cell_length_b 9.523383
_cell_length_c 16.479037
_cell_angle_alpha 90.000000
_cell_angle_beta 90.000000
_cell_angle_gamma 90.000000
_cell_volume 1494.563357
_symmetry_space_group_name_H-M "P 42/N"
_symmetry_group_IT_number 86
_space_group.IT_coordinate_system_code '2'
_symmetry_cell_setting 'tetragonal'
loop_
_space_group_symop_operation_xyz
x,y,z
-y,1/2+x,1/2+z
1/2-x,1/2-y,z
1/2+y,-x,1/2+z
-x,-y,-z
y,1/2-x,1/2-z
1/2+x,1/2+y,-z
1/2-y,x,1/2-z
loop_
_atom_site_type_symbol
_atom_site_label
_atom_site_fract_x
_atom_site_fract_y
_atom_site_fract_z
Si Si1 0.872407 0.358457 0.097432
Si Si2 0.802105 0.896312 0.189215
Si Si3 0.477904 0.197794 0.262327
Si Si4 0.889498 0.674283 0.033399
Si Si5 0.443338 0.970453 0.589760
O O1 0.750000 0.250000 0.068303
O O2 0.896715 0.002714 0.141472
O O3 0.014826 0.345710 0.046028
O O4 0.000000 0.000000 0.000000
O O5 0.750000 0.750000 0.146087
O O6 0.651886 0.972788 0.078946
O O7 0.591645 0.179240 0.190473
O O8 0.919053 0.826981 0.251172
O O9 0.351741 0.089830 0.241690
O O10 0.526739 0.163108 0.354947
O O11 0.750000 0.750000 0.999667
O O12 0.994133 0.778132 0.083296
#
# Coordination Sequence:
#
# PCOD9545439 Si02
#       5
#     8   8   8   8   8
#     4  11  29  55  86 130 171 236 304 357 453 559
#     4   6  17  38  65 102 145 198 267 339 425 478
#     4  11  29  53  79 120 177 235 289 370 455 534
#     4  11  29  50  87 126 181 225 291 383 446 529
#     4  12  25  42  81 124 159 229 298 357 453 530
#
# _framework density 26.763667000000002
#
# number of rings (size 3 to 8) (size 9 to 14) (size 15 to 20)
#    1.200    0.600    0.000    1.800   14.000    3.200 
#    3.600    0.000    0.000    0.000    0.000    0.000 
#    0.000    0.000    0.000    0.000    0.000    0.000 
#
# Total GULP energy -222924.271401 kJ/mol
# GULP energy per Si atom -5573.106785 kJ/mol
# Density = 2.670275 g / cm^3
# Si number density = 26.763667 Si / 1000 Ang^3
#
#
#
# Elastic Constant Matrix: (Units=GPa)
#
#
# Indices 1 2 3 4 5 6 
#
# 1 139.2897 50.8072 26.6312 0.0000 0.0000 8.7380
# 2 50.8072 139.2897 26.6312 0.0000 0.0000 -8.7380
# 3 26.6312 26.6312 94.7739 0.0000 0.0000 0.0000
# 4 0.0000 0.0000 0.0000 -182.9311 0.0000 0.0000
# 5 0.0000 0.0000 0.0000 0.0000 -182.9311 0.0000
# 6 8.7380 -8.7380 0.0000 0.0000 0.0000 33.6799
#
#
#
# Elastic Compliance Matrix: (Units=1/GPa)
#
#
# Indices 1 2 3 4 5 6 
#
# 1 0.008811 -0.003101 -0.001605 0.000000 0.000000 -0.003090
# 2 -0.003101 0.008811 -0.001605 0.000000 0.000000 0.003090
# 3 -0.001605 -0.001605 0.011453 0.000000 0.000000 0.000000
# 4 0.000000 0.000000 0.000000 -0.005467 0.000000 0.000000
# 5 0.000000 0.000000 0.000000 0.000000 -0.005467 0.000000
# 6 -0.003090 0.003090 0.000000 0.000000 0.000000 0.031295
#
#
# Mechanical properties :
#
#
# Convention : Reuss Voigt Hill
#
# Bulk Modulus (GPa) = 60.77104 64.61027 62.69065
# Shear Modulus (GPa) = 74.02776 -48.48421 12.77177
#
# Velocity S-wave (km/s) = 5.26496 -4.26087 2.18687
# Velocity P-wave (km/s) = 7.72759 0.11505 5.46362
#
# Compressibility (1/GPa) = 0.01645521
#
# Stress axis : x y z
#
# Youngs Moduli (GPa) = 113.49381 113.49381 87.31219
#
# Poissons Ratio (x) = 0.35195 0.14009
# Poissons Ratio (y) = 0.35195 0.14009
# Poissons Ratio (z) = 0.18210 0.18210
#
# Static dielectric constant tensor:
#      x y z
#    x 2.340010 0.000000 0.000000 
#    y 0.000000 2.340010 0.000000 
#    z 0.000000 0.000000 2.416680 
# 
# From -- ./inp_files/4481.got.cif
#   From: 2010.05.17/outbox.cif.g08.bks.cpg/sg86_3_cif.got.tgz:4481.got - 2010.06.03 19:03:11.
