data_PCOD9545372
_publ_section_title
;
Structure prediction by ZEFSAII (Michael W. Deem and Ramdas Pophale) SiO2 
 PCOD9545372
Probable space group: P 42/N
;
_chemical_formula_sum "Si O2"
_cell_formula_units_Z 40
_cell_length_a 8.419350
_cell_length_b 8.419350
_cell_length_c 22.041780
_cell_angle_alpha 90.000000
_cell_angle_beta 90.000000
_cell_angle_gamma 90.000000
_cell_volume 1562.441592
_symmetry_space_group_name_H-M "P 42/N"
_symmetry_group_IT_number 86
_space_group.IT_coordinate_system_code '2'
_symmetry_cell_setting 'tetragonal'
loop_
_space_group_symop_operation_xyz
x,y,z
-y,1/2+x,1/2+z
1/2-x,1/2-y,z
1/2+y,-x,1/2+z
-x,-y,-z
y,1/2-x,1/2-z
1/2+x,1/2+y,-z
1/2-y,x,1/2-z
loop_
_atom_site_type_symbol
_atom_site_label
_atom_site_fract_x
_atom_site_fract_y
_atom_site_fract_z
Si Si1 0.365175 0.600684 0.201220
Si Si2 0.845288 0.388023 0.982697
Si Si3 0.664503 0.415693 0.663852
Si Si4 0.802157 0.922144 0.379169
Si Si5 0.858143 0.890087 0.910125
O O1 0.250000 0.750000 0.201825
O O2 0.364216 0.521062 0.267240
O O3 0.529283 0.678707 0.174988
O O4 0.303640 0.480108 0.150694
O O5 0.750000 0.250000 0.020032
O O6 0.690391 0.490479 0.963423
O O7 0.932469 0.298815 0.926396
O O8 0.000000 0.500000 0.000000
O O9 0.750000 0.250000 0.674285
O O10 0.486562 0.405828 0.638543
O O11 0.787697 0.497880 0.617653
O O12 0.750000 0.750000 0.403569
O O13 0.750000 0.750000 0.930961
#
# Coordination Sequence:
#
# PCOD9545372 Si02
#       5
#     8   8   8   8   8
#     4  11  23  43  69 108 162 210 258 308 404 493
#     4  12  28  57  86 114 149 212 277 351 427 480
#     4  11  27  39  73 120 156 218 263 311 405 496
#     4  12  25  48  74 109 162 207 263 337 391 486
#     4  12  23  46  75 106 161 197 259 336 387 488
#
# _framework density 25.600960000000001
#
# number of rings (size 3 to 8) (size 9 to 14) (size 15 to 20)
#    0.000    0.400    6.000    1.200   11.200    1.600 
#    3.600    2.000    0.000    0.000    0.000    0.000 
#    0.000    0.000    0.000    0.000    0.000    0.000 
#
# Total GULP energy -222679.450243 kJ/mol
# GULP energy per Si atom -5566.986256 kJ/mol
# Density = 2.554269 g / cm^3
# Si number density = 25.600960 Si / 1000 Ang^3
#
#
#
# Elastic Constant Matrix: (Units=GPa)
#
#
# Indices 1 2 3 4 5 6 
#
# 1 115.2315 21.7735 34.3718 0.0000 0.0000 -16.5102
# 2 21.7735 115.2315 34.3718 0.0000 0.0000 16.5102
# 3 34.3718 34.3718 73.5277 0.0000 0.0000 0.0000
# 4 0.0000 0.0000 0.0000 21.9525 0.0000 0.0000
# 5 0.0000 0.0000 0.0000 0.0000 21.9525 0.0000
# 6 -16.5102 16.5102 0.0000 0.0000 0.0000 47.3830
#
#
#
# Elastic Compliance Matrix: (Units=1/GPa)
#
#
# Indices 1 2 3 4 5 6 
#
# 1 0.010869 -0.001333 -0.004458 0.000000 0.000000 0.004252
# 2 -0.001333 0.010869 -0.004458 0.000000 0.000000 -0.004252
# 3 -0.004458 -0.004458 0.017768 0.000000 0.000000 0.000000
# 4 0.000000 0.000000 0.000000 0.045553 0.000000 0.000000
# 5 0.000000 0.000000 0.000000 0.000000 0.045553 0.000000
# 6 0.004252 -0.004252 0.000000 0.000000 0.000000 0.024068
#
#
# Mechanical properties :
#
#
# Convention : Reuss Voigt Hill
#
# Bulk Modulus (GPa) = 52.60731 53.89166 53.24948
# Shear Modulus (GPa) = 27.54631 32.48916 30.01773
#
# Velocity S-wave (km/s) = 3.28378 3.56625 3.42793
# Velocity P-wave (km/s) = 5.91365 6.16878 6.04256
#
# Compressibility (1/GPa) = 0.01900876
#
# Stress axis : x y z
#
# Youngs Moduli (GPa) = 92.00533 92.00533 56.28128
#
# Poissons Ratio (x) = 0.12267 0.25088
# Poissons Ratio (y) = 0.12267 0.25088
# Poissons Ratio (z) = 0.41012 0.41012
#
# Static dielectric constant tensor:
#      x y z
#    x 2.083880 0.000000 0.000000 
#    y 0.000000 2.083880 0.000000 
#    z 0.000000 0.000000 2.173930 
# 
# From -- ./inp_files/4442.got.cif
#   From: 2010.05.17/outbox.cif.g08.bks.cpg/sg86_3_cif.got.tgz:4442.got - 2010.06.03 19:03:11.
