data_PCOD9545422
_publ_section_title
;
Structure prediction by ZEFSAII (Michael W. Deem and Ramdas Pophale) SiO2 
 PCOD9545422
Probable space group: P 42/N
;
_chemical_formula_sum "Si O2"
_cell_formula_units_Z 36
_cell_length_a 10.787223
_cell_length_b 10.787223
_cell_length_c 13.563264
_cell_angle_alpha 90.000000
_cell_angle_beta 90.000000
_cell_angle_gamma 90.000000
_cell_volume 1578.278094
_symmetry_space_group_name_H-M "P 42/N"
_symmetry_group_IT_number 86
_space_group.IT_coordinate_system_code '2'
_symmetry_cell_setting 'tetragonal'
loop_
_space_group_symop_operation_xyz
x,y,z
-y,1/2+x,1/2+z
1/2-x,1/2-y,z
1/2+y,-x,1/2+z
-x,-y,-z
y,1/2-x,1/2-z
1/2+x,1/2+y,-z
1/2-y,x,1/2-z
loop_
_atom_site_type_symbol
_atom_site_label
_atom_site_fract_x
_atom_site_fract_y
_atom_site_fract_z
Si Si1 0.580899 0.162884 0.238119
Si Si2 0.555292 0.371948 0.533654
Si Si3 0.871265 0.661474 0.456547
Si Si4 0.750000 0.250000 0.405928
Si Si5 0.586346 0.001359 0.644486
O O1 0.630067 0.077338 0.150201
O O2 0.664371 0.170884 0.334276
O O3 0.574753 0.301230 0.194341
O O4 0.453994 0.103853 0.277490
O O5 0.500000 0.500000 0.500000
O O6 0.463406 0.264627 0.501725
O O7 0.679624 0.343936 0.475978
O O8 0.750000 0.750000 0.427872
O O9 0.856969 0.563460 0.546120
O O10 0.963019 0.585200 0.380172
#
# Coordination Sequence:
#
# PCOD9545422 Si02
#       5
#     8   8   8   4   8
#     4  12  26  44  77 104 154 193 256 315 384 459
#     4  12  26  45  72 107 146 202 249 314 389 448
#     4  11  25  48  75 105 158 197 253 328 379 466
#     4  12  24  46  72 106 144 196 248 314 370 460
#     4  11  26  47  72 119 143 204 260 311 390 464
#
# _framework density 22.809670000000001
#
# number of rings (size 3 to 8) (size 9 to 14) (size 15 to 20)
#    0.000    0.444    2.222    6.000    9.333    0.000 
#    0.000    0.000    0.000    0.000    0.000    0.000 
#    0.000    0.000    0.000    0.000    0.000    0.000 
#
# Total GULP energy -201046.926125 kJ/mol
# GULP energy per Si atom -5584.636837 kJ/mol
# Density = 2.275775 g / cm^3
# Si number density = 22.809670 Si / 1000 Ang^3
#
#
#
# Elastic Constant Matrix: (Units=GPa)
#
#
# Indices 1 2 3 4 5 6 
#
# 1 105.2351 48.8622 30.3676 0.0000 0.0000 -6.5148
# 2 48.8622 105.2351 30.3676 0.0000 0.0000 6.5148
# 3 30.3676 30.3676 69.4051 0.0000 0.0000 0.0000
# 4 0.0000 0.0000 0.0000 34.7926 0.0000 0.0000
# 5 0.0000 0.0000 0.0000 0.0000 34.7926 0.0000
# 6 -6.5148 6.5148 0.0000 0.0000 0.0000 47.6383
#
#
#
# Elastic Compliance Matrix: (Units=1/GPa)
#
#
# Indices 1 2 3 4 5 6 
#
# 1 0.013080 -0.005238 -0.003431 0.000000 0.000000 0.002505
# 2 -0.005238 0.013080 -0.003431 0.000000 0.000000 -0.002505
# 3 -0.003431 -0.003431 0.017411 0.000000 0.000000 0.000000
# 4 0.000000 0.000000 0.000000 0.028742 0.000000 0.000000
# 5 0.000000 0.000000 0.000000 0.000000 0.028742 0.000000
# 6 0.002505 -0.002505 0.000000 0.000000 0.000000 0.021677
#
#
# Mechanical properties :
#
#
# Convention : Reuss Voigt Hill
#
# Bulk Modulus (GPa) = 51.62688 55.45226 53.53957
# Shear Modulus (GPa) = 32.59714 34.79658 33.69686
#
# Velocity S-wave (km/s) = 3.78444 3.91003 3.84774
# Velocity P-wave (km/s) = 6.46366 6.68940 6.57750
#
# Compressibility (1/GPa) = 0.01936976
#
# Stress axis : x y z
#
# Youngs Moduli (GPa) = 76.45338 76.45338 57.43618
#
# Poissons Ratio (x) = 0.40047 0.19707
# Poissons Ratio (y) = 0.40047 0.19707
# Poissons Ratio (z) = 0.26232 0.26232
#
# Static dielectric constant tensor:
#      x y z
#    x 1.904610 0.000000 0.000000 
#    y 0.000000 1.904610 0.000000 
#    z 0.000000 0.000000 1.822630 
# 
# From -- ./inp_files/2077.got.cif
#   From: 2010.05.17/outbox.cif.g08.bks.cpg/sg86_2_cif.got.tgz:2077.got - 2010.06.03 19:03:11.
