data_PCOD9545039
_publ_section_title
;
Structure prediction by ZEFSAII (Michael W. Deem and Ramdas Pophale) SiO2 
 PCOD9545039
Probable space group: P 42/N
;
_chemical_formula_sum "Si O2"
_cell_formula_units_Z 40
_cell_length_a 14.386498
_cell_length_b 14.386498
_cell_length_c 8.424650
_cell_angle_alpha 90.000000
_cell_angle_beta 90.000000
_cell_angle_gamma 90.000000
_cell_volume 1743.660971
_symmetry_space_group_name_H-M "P 42/N"
_symmetry_group_IT_number 86
_space_group.IT_coordinate_system_code '2'
_symmetry_cell_setting 'tetragonal'
loop_
_space_group_symop_operation_xyz
x,y,z
-y,1/2+x,1/2+z
1/2-x,1/2-y,z
1/2+y,-x,1/2+z
-x,-y,-z
y,1/2-x,1/2-z
1/2+x,1/2+y,-z
1/2-y,x,1/2-z
loop_
_atom_site_type_symbol
_atom_site_label
_atom_site_fract_x
_atom_site_fract_y
_atom_site_fract_z
Si Si1 0.144204 0.901767 0.264850
Si Si2 0.967052 0.815875 0.439421
Si Si3 0.855257 0.968234 0.263577
Si Si4 0.041871 0.088845 0.228023
Si Si5 0.057434 0.790945 0.995078
O O1 0.244444 0.894058 0.343485
O O2 0.066723 0.857400 0.382690
O O3 0.128193 0.850217 0.099648
O O4 0.119803 0.010204 0.242075
O O5 0.892294 0.871258 0.332146
O O6 0.961730 0.708940 0.390912
O O7 0.951109 0.843571 0.620798
O O8 0.945675 0.031052 0.239239
O O9 0.790621 0.016871 0.395865
O O10 0.027750 0.146276 0.067283
#
# Coordination Sequence:
#
# PCOD9545039 Si02
#       5
#     8   8   8   8   8
#     4  10  21  42  64  92 123 174 217 266 333 403
#     4  10  20  40  69  86 127 168 222 272 327 407
#     4  10  21  41  61  94 119 174 218 269 335 398
#     4  11  21  40  66  90 128 174 223 272 332 411
#     4  11  22  38  65  92 130 165 222 270 337 404
#
# _framework density 22.940239999999999
#
# number of rings (size 3 to 8) (size 9 to 14) (size 15 to 20)
#    0.000    1.600    4.000    1.800    2.800    0.400 
#    0.000    8.000    0.000    0.600    0.000    0.000 
#    0.000    0.000    0.000    0.000    0.000    0.000 
#
# Total GULP energy -223992.321746 kJ/mol
# GULP energy per Si atom -5599.808044 kJ/mol
# Density = 2.288803 g / cm^3
# Si number density = 22.940240 Si / 1000 Ang^3
#
#
#
# Elastic Constant Matrix: (Units=GPa)
#
#
# Indices 1 2 3 4 5 6 
#
# 1 24.1541 60.3464 43.4116 0.0000 0.0000 1.2742
# 2 60.3464 24.1541 43.4116 0.0000 0.0000 -1.2742
# 3 43.4116 43.4116 112.1477 0.0000 0.0000 0.0000
# 4 0.0000 0.0000 0.0000 38.9791 0.0000 0.0000
# 5 0.0000 0.0000 0.0000 0.0000 38.9791 0.0000
# 6 1.2742 -1.2742 0.0000 0.0000 0.0000 8.0937
#
#
#
# Elastic Compliance Matrix: (Units=1/GPa)
#
#
# Indices 1 2 3 4 5 6 
#
# 1 -0.003839 0.023488 -0.007606 0.000000 0.000000 0.004302
# 2 0.023488 -0.003839 -0.007606 0.000000 0.000000 -0.004302
# 3 -0.007606 -0.007606 0.014805 0.000000 0.000000 0.000000
# 4 0.000000 0.000000 0.000000 0.025655 0.000000 0.000000
# 5 0.000000 0.000000 0.000000 0.000000 0.025655 0.000000
# 6 0.004302 -0.004302 0.000000 0.000000 0.000000 0.122198
#
#
# Mechanical properties :
#
#
# Convention : Reuss Voigt Hill
#
# Bulk Modulus (GPa) = 42.23026 50.53279 46.38152
# Shear Modulus (GPa) = 29.07378 18.09614 23.58496
#
# Velocity S-wave (km/s) = 3.56388 2.81167 3.20989
# Velocity P-wave (km/s) = 5.94842 5.71109 5.83096
#
# Compressibility (1/GPa) = 0.02367970
#
# Stress axis : x y z
#
# Youngs Moduli (GPa) = -260.49367 -260.49367 67.54268
#
# Poissons Ratio (x) = 6.11859 0.51374
# Poissons Ratio (y) = 6.11859 0.51374
# Poissons Ratio (z) = -1.98137 -1.98137
#
# Static dielectric constant tensor:
#      x y z
#    x 1.838740 0.000000 0.000000 
#    y 0.000000 1.838740 0.000000 
#    z 0.000000 0.000000 1.901470 
# 
# From -- ./inp_files/1137.got.cif
#   From: 2010.05.17/outbox.cif.g08.bks.cpg/sg86_1_cif.got.tgz:1137.got - 2010.06.03 19:03:11.
