data_PCOD9545886
_publ_section_title
;
Structure prediction by ZEFSAII (Michael W. Deem and Ramdas Pophale) SiO2 
 PCOD9545886
Probable space group: I 4/M
;
_chemical_formula_sum "Si O2"
_cell_formula_units_Z 64
_cell_length_a 14.737655
_cell_length_b 14.737655
_cell_length_c 14.213981
_cell_angle_alpha 90.000000
_cell_angle_beta 90.000000
_cell_angle_gamma 90.000000
_cell_volume 3087.254995
_symmetry_space_group_name_H-M "I 4/M"
_symmetry_group_IT_number 87
_symmetry_cell_setting 'tetragonal'
loop_
_space_group_symop_operation_xyz
x,y,z
-y,x,z
-x,-y,z
y,-x,z
-x,-y,-z
y,-x,-z
x,y,-z
-y,x,-z
1/2+x,1/2+y,1/2+z
1/2-y,1/2+x,1/2+z
1/2-x,1/2-y,1/2+z
1/2+y,1/2-x,1/2+z
1/2-x,1/2-y,1/2-z
1/2+y,1/2-x,1/2-z
1/2+x,1/2+y,1/2-z
1/2-y,1/2+x,1/2-z
loop_
_atom_site_type_symbol
_atom_site_label
_atom_site_fract_x
_atom_site_fract_y
_atom_site_fract_z
Si Si1 0.103458 0.489556 0.614006
Si Si2 0.235069 0.880310 0.888121
Si Si3 0.864353 0.060072 0.285033
Si Si4 0.330777 0.208256 0.886961
O O1 0.101556 0.487040 0.500000
O O2 0.169641 0.572482 0.637909
O O3 0.146382 0.393997 0.644782
O O4 0.000000 0.500000 0.645420
O O5 0.159485 0.928484 0.824942
O O6 0.232607 0.773582 0.865904
O O7 0.220350 0.891542 0.000000
O O8 0.780040 0.102086 0.340372
O O9 0.955589 0.115756 0.307171
O O10 0.341255 0.211876 0.000000
#
# Coordination Sequence:
#
# PCOD9545886 Si02
#       4
#    16  16  16  16
#     4   9  19  37  62  93 124 158 210 263 311 369
#     4  10  21  40  66  91 121 162 206 262 321 371
#     4  11  25  41  60  89 126 167 212 258 305 373
#     4  10  22  40  64  90 126 170 207 256 316 370
#
# _framework density 20.73039
#
# number of rings (size 3 to 8) (size 9 to 14) (size 15 to 20)
#    0.000    2.000    0.000    2.250    3.500    4.000 
#    0.000    2.500    0.000    0.000    0.000    0.000 
#    0.000    0.000    0.000    0.000    0.000    0.000 
#
# Total GULP energy -178892.963903 kJ/mol
# GULP energy per Si atom -5590.405122 kJ/mol
# Density = 2.068321 g / cm^3
# Si number density = 20.730390 Si / 1000 Ang^3
#
#
#
# Elastic Constant Matrix: (Units=GPa)
#
#
# Indices 1 2 3 4 5 6 
#
# 1 147.0320 96.6376 20.0127 0.0000 0.0000 -8.4999
# 2 96.6376 147.0320 20.0127 0.0000 0.0000 8.4999
# 3 20.0127 20.0127 54.2141 0.0000 0.0000 0.0000
# 4 0.0000 0.0000 0.0000 16.0301 0.0000 0.0000
# 5 0.0000 0.0000 0.0000 0.0000 16.0301 0.0000
# 6 -8.4999 8.4999 0.0000 0.0000 0.0000 36.0418
#
#
#
# Elastic Compliance Matrix: (Units=1/GPa)
#
#
# Indices 1 2 3 4 5 6 
#
# 1 0.012964 -0.008595 -0.001613 0.000000 0.000000 0.005084
# 2 -0.008595 0.012964 -0.001613 0.000000 0.000000 -0.005084
# 3 -0.001613 -0.001613 0.019636 0.000000 0.000000 0.000000
# 4 0.000000 0.000000 0.000000 0.062383 0.000000 0.000000
# 5 0.000000 0.000000 0.000000 0.000000 0.062383 0.000000
# 6 0.005084 -0.005084 0.000000 0.000000 0.000000 0.030144
#
#
# Mechanical properties :
#
#
# Convention : Reuss Voigt Hill
#
# Bulk Modulus (GPa) = 45.61461 69.06714 57.34087
# Shear Modulus (GPa) = 21.60567 27.72807 24.66687
#
# Velocity S-wave (km/s) = 3.23185 3.66123 3.45322
# Velocity P-wave (km/s) = 5.99816 7.15975 6.60454
#
# Compressibility (1/GPa) = 0.02192280
#
# Stress axis : x y z
#
# Youngs Moduli (GPa) = 77.13849 77.13849 50.92682
#
# Poissons Ratio (x) = 0.66300 0.08213
# Poissons Ratio (y) = 0.66300 0.08213
# Poissons Ratio (z) = 0.12440 0.12440
#
# Static dielectric constant tensor:
#      x y z
#    x 1.708070 0.000000 0.000000 
#    y 0.000000 1.708070 0.000000 
#    z 0.000000 0.000000 1.765850 
# 
# From -- ./inp_files/3357.got.cif
#   From: 2010.05.17/outbox.cif.g08.bks.cpg/sg87_2_cif.got.tgz:3357.got - 2010.06.03 19:07:00.
