data_PCOD9545296
_publ_section_title
;
Structure prediction by ZEFSAII (Michael W. Deem and Ramdas Pophale) SiO2 
 PCOD9545296
Probable space group: P 42/N
;
_chemical_formula_sum "Si O2"
_cell_formula_units_Z 50
_cell_length_a 8.590837
_cell_length_b 8.590837
_cell_length_c 31.392919
_cell_angle_alpha 90.000000
_cell_angle_beta 90.000000
_cell_angle_gamma 90.000000
_cell_volume 2316.875288
_symmetry_space_group_name_H-M "P 42/N"
_symmetry_group_IT_number 86
_space_group.IT_coordinate_system_code '2'
_symmetry_cell_setting 'tetragonal'
loop_
_space_group_symop_operation_xyz
x,y,z
-y,1/2+x,1/2+z
1/2-x,1/2-y,z
1/2+y,-x,1/2+z
-x,-y,-z
y,1/2-x,1/2-z
1/2+x,1/2+y,-z
1/2-y,x,1/2-z
loop_
_atom_site_type_symbol
_atom_site_label
_atom_site_fract_x
_atom_site_fract_y
_atom_site_fract_z
Si Si1 0.250000 0.250000 0.098921
Si Si2 0.250000 0.750000 0.588850
Si Si3 0.983164 0.459228 0.359501
Si Si4 0.439798 0.530680 0.297168
Si Si5 0.919997 0.201210 0.614115
Si Si6 0.008331 0.043563 0.450891
Si Si7 0.250000 0.250000 0.250000
Si Si8 0.214838 0.578693 0.715556
O O1 0.346621 0.373109 0.127807
O O2 0.127076 0.337405 0.068189
O O3 0.162624 0.621508 0.617225
O O4 0.374731 0.664992 0.559974
O O5 0.939432 0.471052 0.309777
O O6 0.003657 0.635639 0.373896
O O7 0.400345 0.587504 0.344740
O O8 0.345702 0.378579 0.278915
O O9 0.410463 0.671202 0.264686
O O10 0.626677 0.510049 0.294334
O O11 0.750000 0.250000 0.597968
O O12 0.011167 0.108760 0.578165
O O13 0.000000 0.000000 0.500000
O O14 0.250000 0.750000 0.699975
#
# Coordination Sequence:
#
# PCOD9545296 Si02
#       8
#     4   4   8   8   8   8   2   8
#     4  10  24  47  76 107 144 196 242 299 370 463
#     4  10  24  44  72 106 140 190 242 294 372 444
#     4  11  24  45  74 104 147 190 240 304 365 443
#     4  12  28  45  69 105 140 198 245 303 369 429
#     4  12  27  45  73 107 145 188 247 306 375 437
#     4  11  26  46  74 107 145 189 245 306 375 447
#     4  12  28  46  80 100 148 204 260 304 352 450
#     4  12  25  43  68 102 145 186 249 300 354 429
#
# _framework density 21.580787999999998
#
# number of rings (size 3 to 8) (size 9 to 14) (size 15 to 20)
#    0.000    0.640    4.000    2.400    5.600    6.720 
#    0.000    3.200    0.000    0.000    0.000    0.000 
#    0.000    0.000    0.000    0.000    0.000    0.000 
#
# Total GULP energy -279621.916774 kJ/mol
# GULP energy per Si atom -5592.438335 kJ/mol
# Density = 2.153167 g / cm^3
# Si number density = 21.580788 Si / 1000 Ang^3
#
#
#
# Elastic Constant Matrix: (Units=GPa)
#
#
# Indices 1 2 3 4 5 6 
#
# 1 96.0161 21.5513 27.8733 0.0000 0.0000 -9.6441
# 2 21.5513 96.0161 27.8733 0.0000 0.0000 9.6441
# 3 27.8733 27.8733 112.9311 0.0000 0.0000 0.0000
# 4 0.0000 0.0000 0.0000 17.6494 0.0000 0.0000
# 5 0.0000 0.0000 0.0000 0.0000 17.6494 0.0000
# 6 -9.6441 9.6441 0.0000 0.0000 0.0000 43.4004
#
#
#
# Elastic Compliance Matrix: (Units=1/GPa)
#
#
# Indices 1 2 3 4 5 6 
#
# 1 0.011941 -0.002308 -0.002378 0.000000 0.000000 0.003166
# 2 -0.002308 0.011941 -0.002378 0.000000 0.000000 -0.003166
# 3 -0.002378 -0.002378 0.010029 0.000000 0.000000 0.000000
# 4 0.000000 0.000000 0.000000 0.056659 0.000000 0.000000
# 5 0.000000 0.000000 0.000000 0.000000 0.056659 0.000000
# 6 0.003166 -0.003166 0.000000 0.000000 0.000000 0.024448
#
#
# Mechanical properties :
#
#
# Convention : Reuss Voigt Hill
#
# Bulk Modulus (GPa) = 50.54481 51.06215 50.80348
# Shear Modulus (GPa) = 25.98759 30.91753 28.45256
#
# Velocity S-wave (km/s) = 3.47392 3.78913 3.63495
# Velocity P-wave (km/s) = 6.28991 6.54642 6.41945
#
# Compressibility (1/GPa) = 0.01978443
#
# Stress axis : x y z
#
# Youngs Moduli (GPa) = 83.74340 83.74340 99.71451
#
# Poissons Ratio (x) = 0.19329 0.23708
# Poissons Ratio (y) = 0.19329 0.23708
# Poissons Ratio (z) = 0.19911 0.19911
#
# Static dielectric constant tensor:
#      x y z
#    x 1.752000 0.000000 0.000000 
#    y 0.000000 1.752000 0.000000 
#    z 0.000000 0.000000 1.784000 
# 
# From -- ./inp_files/5284.got.cif
#   From: 2010.05.17/outbox.cif.g08.bks.cpg/sg86_3_cif.got.tgz:5284.got - 2010.06.03 19:03:11.
