data_PCOD9545970
_publ_section_title
;
Structure prediction by ZEFSAII (Michael W. Deem and Ramdas Pophale) SiO2 
 PCOD9545970
Probable space group: I 4/M
;
_chemical_formula_sum "Si O2"
_cell_formula_units_Z 112
_cell_length_a 15.743579
_cell_length_b 15.743579
_cell_length_c 23.118631
_cell_angle_alpha 90.000000
_cell_angle_beta 90.000000
_cell_angle_gamma 90.000000
_cell_volume 5730.190347
_symmetry_space_group_name_H-M "I 4/M"
_symmetry_group_IT_number 87
_symmetry_cell_setting 'tetragonal'
loop_
_space_group_symop_operation_xyz
x,y,z
-y,x,z
-x,-y,z
y,-x,z
-x,-y,-z
y,-x,-z
x,y,-z
-y,x,-z
1/2+x,1/2+y,1/2+z
1/2-y,1/2+x,1/2+z
1/2-x,1/2-y,1/2+z
1/2+y,1/2-x,1/2+z
1/2-x,1/2-y,1/2-z
1/2+y,1/2-x,1/2-z
1/2+x,1/2+y,1/2-z
1/2-y,1/2+x,1/2-z
loop_
_atom_site_type_symbol
_atom_site_label
_atom_site_fract_x
_atom_site_fract_y
_atom_site_fract_z
Si Si1 0.848281 0.803606 0.838717
Si Si2 0.093477 0.523828 0.431542
Si Si3 0.904951 0.900718 0.737187
Si Si4 0.878690 0.297100 0.373667
Si Si5 0.755600 0.536731 0.358421
Si Si6 0.138489 0.462839 0.242413
Si Si7 0.384038 0.427280 0.900688
O O1 0.853215 0.830013 0.771091
O O2 0.798227 0.716963 0.849186
O O3 0.805925 0.884522 0.869029
O O4 0.944315 0.788020 0.860371
O O5 0.095093 0.513316 0.500000
O O6 0.110743 0.620612 0.413654
O O7 0.165195 0.467113 0.401896
O O8 0.000000 0.500000 0.408848
O O9 0.894404 0.907918 0.668574
O O10 0.002720 0.885271 0.754937
O O11 0.940488 0.314931 0.318165
O O12 0.895258 0.211211 0.409253
O O13 0.797069 0.547329 0.295099
O O14 0.100225 0.558123 0.247911
O O15 0.473965 0.387883 0.920364
#
# Coordination Sequence:
#
# PCOD9545970 Si02
#       7
#    16  16  16  16  16  16  16
#     4  11  21  35  50  84 122 159 208 248 299 362
#     4  10  22  45  68  87 115 157 208 255 313 370
#     4   9  16  28  47  71 110 169 199 225 277 355
#     4  11  23  35  58  92 113 156 205 261 309 359
#     4  11  23  37  57  89 122 163 202 253 309 367
#     4  11  21  36  55  80 125 157 195 247 313 375
#     4   9  20  35  52  78 122 163 196 236 302 373
#
# _framework density 19.545598999999999
#
# number of rings (size 3 to 8) (size 9 to 14) (size 15 to 20)
#    0.000    1.714    4.286    2.571    2.000    4.857 
#    0.000    2.857    0.000    0.857    0.000    5.000 
#    0.000    0.000    0.000    0.000    0.000    0.000 
#
# Total GULP energy -312342.333321 kJ/mol
# GULP energy per Si atom -5577.541666 kJ/mol
# Density = 1.950111 g / cm^3
# Si number density = 19.545599 Si / 1000 Ang^3
#
#
#
# Elastic Constant Matrix: (Units=GPa)
#
#
# Indices 1 2 3 4 5 6 
#
# 1 88.3820 26.9069 -3.7859 0.0000 0.0000 7.8541
# 2 26.9069 88.3820 -3.7859 0.0000 0.0000 -7.8541
# 3 -3.7859 -3.7859 21.1878 0.0000 0.0000 0.0000
# 4 0.0000 0.0000 0.0000 2.1189 0.0000 0.0000
# 5 0.0000 0.0000 0.0000 0.0000 2.1189 0.0000
# 6 7.8541 -7.8541 0.0000 0.0000 0.0000 30.9418
#
#
#
# Elastic Compliance Matrix: (Units=1/GPa)
#
#
# Indices 1 2 3 4 5 6 
#
# 1 0.013086 -0.004309 0.001568 0.000000 0.000000 -0.004415
# 2 -0.004309 0.013086 0.001568 0.000000 0.000000 0.004415
# 3 0.001568 0.001568 0.047757 0.000000 0.000000 0.000000
# 4 0.000000 0.000000 0.000000 0.471940 0.000000 0.000000
# 5 0.000000 0.000000 0.000000 0.000000 0.471940 0.000000
# 6 -0.004415 0.004415 0.000000 0.000000 0.000000 0.034560
#
#
# Mechanical properties :
#
#
# Convention : Reuss Voigt Hill
#
# Bulk Modulus (GPa) = 13.96955 26.29132 20.13044
# Shear Modulus (GPa) = 4.63574 18.94372 11.78973
#
# Velocity S-wave (km/s) = 1.54172 3.11659 2.45866
# Velocity P-wave (km/s) = 3.21433 5.14114 4.28737
#
# Compressibility (1/GPa) = 0.07158424
#
# Stress axis : x y z
#
# Youngs Moduli (GPa) = 76.41799 76.41799 20.93919
#
# Poissons Ratio (x) = 0.32929 -0.03284
# Poissons Ratio (y) = 0.32929 -0.03284
# Poissons Ratio (z) = -0.11985 -0.11985
#
# Static dielectric constant tensor:
#      x y z
#    x 1.712610 0.000000 0.000000 
#    y 0.000000 1.712610 0.000000 
#    z 0.000000 0.000000 1.681400 
# 
# From -- ./inp_files/5914.got.cif
#   From: 2010.05.17/outbox.cif.g08.bks.cpg/sg87_3_cif.got.tgz:5914.got - 2010.06.03 19:07:00.
