data_PCOD9545254
_publ_section_title
;
Structure prediction by ZEFSAII (Michael W. Deem and Ramdas Pophale) SiO2 
 PCOD9545254
Probable space group: P 42/N
;
_chemical_formula_sum "Si O2"
_cell_formula_units_Z 36
_cell_length_a 11.884264
_cell_length_b 11.884264
_cell_length_c 11.326135
_cell_angle_alpha 90.000000
_cell_angle_beta 90.000000
_cell_angle_gamma 90.000000
_cell_volume 1599.654954
_symmetry_space_group_name_H-M "P 42/N"
_symmetry_group_IT_number 86
_space_group.IT_coordinate_system_code '2'
_symmetry_cell_setting 'tetragonal'
loop_
_space_group_symop_operation_xyz
x,y,z
-y,1/2+x,1/2+z
1/2-x,1/2-y,z
1/2+y,-x,1/2+z
-x,-y,-z
y,1/2-x,1/2-z
1/2+x,1/2+y,-z
1/2-y,x,1/2-z
loop_
_atom_site_type_symbol
_atom_site_label
_atom_site_fract_x
_atom_site_fract_y
_atom_site_fract_z
Si Si1 0.959558 0.326005 0.768654
Si Si2 0.955599 0.315906 0.508809
Si Si3 0.750000 0.250000 0.885491
Si Si4 0.399623 0.984867 0.849418
Si Si5 0.416758 0.165324 0.270602
O O1 0.974407 0.373177 0.635337
O O2 0.829395 0.325719 0.804080
O O3 0.034602 0.398312 0.855348
O O4 0.992755 0.195503 0.753464
O O5 0.828442 0.328362 0.464575
O O6 0.963582 0.181534 0.539793
O O7 0.039241 0.346132 0.404774
O O8 0.489310 0.890292 0.814221
O O9 0.297054 0.104095 0.254633
#
# Coordination Sequence:
#
# PCOD9545254 Si02
#       5
#     8   8   4   8   8
#     4  10  24  43  67 100 133 176 223 277 327 410
#     4  10  23  44  67 101 128 185 216 274 350 378
#     4  12  20  42  70 100 136 164 234 280 334 404
#     4  10  24  46  67  99 136 176 225 277 328 401
#     4  11  24  45  67 103 138 174 226 278 336 407
#
# _framework density 22.504852
#
# number of rings (size 3 to 8) (size 9 to 14) (size 15 to 20)
#    1.333    0.222    2.222    2.000    0.000    4.889 
#   12.000    0.000    0.000    0.000    0.000    0.000 
#    0.000    0.000    0.000    0.000    0.000    0.000 
#
# Total GULP energy -200980.808042 kJ/mol
# GULP energy per Si atom -5582.800223 kJ/mol
# Density = 2.245363 g / cm^3
# Si number density = 22.504852 Si / 1000 Ang^3
#
#
#
# Elastic Constant Matrix: (Units=GPa)
#
#
# Indices 1 2 3 4 5 6 
#
# 1 90.0225 15.8205 9.3202 0.0000 0.0000 -3.5777
# 2 15.8205 90.0225 9.3202 0.0000 0.0000 3.5777
# 3 9.3202 9.3202 65.1586 0.0000 0.0000 0.0000
# 4 0.0000 0.0000 0.0000 23.9425 0.0000 0.0000
# 5 0.0000 0.0000 0.0000 0.0000 23.9425 0.0000
# 6 -3.5777 3.5777 0.0000 0.0000 0.0000 25.9778
#
#
#
# Elastic Compliance Matrix: (Units=1/GPa)
#
#
# Indices 1 2 3 4 5 6 
#
# 1 0.011675 -0.001983 -0.001386 0.000000 0.000000 0.001881
# 2 -0.001983 0.011675 -0.001386 0.000000 0.000000 -0.001881
# 3 -0.001386 -0.001386 0.015744 0.000000 0.000000 0.000000
# 4 0.000000 0.000000 0.000000 0.041767 0.000000 0.000000
# 5 0.000000 0.000000 0.000000 0.000000 0.041767 0.000000
# 6 0.001881 -0.001881 0.000000 0.000000 0.000000 0.039012
#
#
# Mechanical properties :
#
#
# Convention : Reuss Voigt Hill
#
# Bulk Modulus (GPa) = 33.80362 34.90280 34.35321
# Shear Modulus (GPa) = 27.62246 28.82208 28.22227
#
# Velocity S-wave (km/s) = 3.50723 3.58258 3.54510
# Velocity P-wave (km/s) = 5.60839 5.71453 5.66171
#
# Compressibility (1/GPa) = 0.02958263
#
# Stress axis : x y z
#
# Youngs Moduli (GPa) = 85.65229 85.65229 63.51717
#
# Poissons Ratio (x) = 0.16985 0.08806
# Poissons Ratio (y) = 0.16985 0.08806
# Poissons Ratio (z) = 0.11874 0.11874
#
# Static dielectric constant tensor:
#      x y z
#    x 1.824610 0.000000 0.000000 
#    y 0.000000 1.824610 0.000000 
#    z 0.000000 0.000000 1.828320 
# 
# From -- ./inp_files/2062.got.cif
#   From: 2010.05.17/outbox.cif.g08.bks.cpg/sg86_2_cif.got.tgz:2062.got - 2010.06.03 19:03:11.
