data_PCOD9545612
_publ_section_title
;
Structure prediction by ZEFSAII (Michael W. Deem and Ramdas Pophale) SiO2 
 PCOD9545612
Probable space group: I 4/M
;
_chemical_formula_sum "Si O2"
_cell_formula_units_Z 112
_cell_length_a 14.956106
_cell_length_b 14.956106
_cell_length_c 25.634330
_cell_angle_alpha 90.000000
_cell_angle_beta 90.000000
_cell_angle_gamma 90.000000
_cell_volume 5734.017841
_symmetry_space_group_name_H-M "I 4/M"
_symmetry_group_IT_number 87
_symmetry_cell_setting 'tetragonal'
loop_
_space_group_symop_operation_xyz
x,y,z
-y,x,z
-x,-y,z
y,-x,z
-x,-y,-z
y,-x,-z
x,y,-z
-y,x,-z
1/2+x,1/2+y,1/2+z
1/2-y,1/2+x,1/2+z
1/2-x,1/2-y,1/2+z
1/2+y,1/2-x,1/2+z
1/2-x,1/2-y,1/2-z
1/2+y,1/2-x,1/2-z
1/2+x,1/2+y,1/2-z
1/2-y,1/2+x,1/2-z
loop_
_atom_site_type_symbol
_atom_site_label
_atom_site_fract_x
_atom_site_fract_y
_atom_site_fract_z
Si Si1 0.293651 0.154442 0.264518
Si Si2 0.105312 0.751118 0.155814
Si Si3 0.751267 0.408714 0.342333
Si Si4 0.054136 0.863029 0.328584
Si Si5 0.300356 0.823624 0.558351
Si Si6 0.653772 0.833441 0.556151
Si Si7 0.710131 0.513001 0.940473
O O1 0.250000 0.250000 0.250000
O O2 0.308214 0.112825 0.207943
O O3 0.380946 0.179794 0.297109
O O4 0.222788 0.096798 0.299239
O O5 0.175861 0.832295 0.157443
O O6 0.130184 0.694704 0.104527
O O7 0.006213 0.789698 0.159426
O O8 0.806851 0.405237 0.395630
O O9 0.950936 0.887036 0.314955
O O10 0.048744 0.846738 0.391401
O O11 0.339518 0.831969 0.500000
O O12 0.233847 0.738754 0.557708
O O13 0.239555 0.910806 0.567622
O O14 0.609015 0.823719 0.500000
O O15 0.698541 0.929973 0.560587
O O16 0.672650 0.523806 0.000000
#
# Coordination Sequence:
#
# PCOD9545612 Si02
#       7
#    16  16  16  16  16  16  16
#     4  10  23  40  60  82 118 163 201 243 302 369
#     4  10  23  38  65  86 118 148 202 248 304 366
#     4  10  21  41  59  91 109 155 191 247 305 356
#     4  11  24  37  59  94 129 162 202 256 305 358
#     4   9  19  36  59  88 122 163 202 242 301 368
#     4   9  17  33  56  82 115 156 196 234 288 353
#     4  10  19  33  60  90 124 166 205 244 293 365
#
# _framework density 19.532553
#
# number of rings (size 3 to 8) (size 9 to 14) (size 15 to 20)
#    0.000    2.143    1.429    0.857    8.000    2.571 
#    0.000    1.429    0.000    2.571    0.000    4.000 
#    0.000    0.000    0.000    0.000    0.000    0.000 
#
# Total GULP energy -312123.123185 kJ/mol
# GULP energy per Si atom -5573.627200 kJ/mol
# Density = 1.948810 g / cm^3
# Si number density = 19.532553 Si / 1000 Ang^3
#
#
#
# Elastic Constant Matrix: (Units=GPa)
#
#
# Indices 1 2 3 4 5 6 
#
# 1 47.3187 12.1711 33.1616 0.0000 0.0000 -2.8979
# 2 12.1711 47.3187 33.1616 0.0000 0.0000 2.8979
# 3 33.1616 33.1616 127.8467 0.0000 0.0000 0.0000
# 4 0.0000 0.0000 0.0000 9.3359 0.0000 0.0000
# 5 0.0000 0.0000 0.0000 0.0000 9.3359 0.0000
# 6 -2.8979 2.8979 0.0000 0.0000 0.0000 10.8078
#
#
#
# Elastic Compliance Matrix: (Units=1/GPa)
#
#
# Indices 1 2 3 4 5 6 
#
# 1 0.026708 -0.003060 -0.006134 0.000000 0.000000 0.007982
# 2 -0.003060 0.026708 -0.006134 0.000000 0.000000 -0.007982
# 3 -0.006134 -0.006134 0.011004 0.000000 0.000000 0.000000
# 4 0.000000 0.000000 0.000000 0.107113 0.000000 0.000000
# 5 0.000000 0.000000 0.000000 0.000000 0.107113 0.000000
# 6 0.007982 -0.007982 0.000000 0.000000 0.000000 0.096806
#
#
# Mechanical properties :
#
#
# Convention : Reuss Voigt Hill
#
# Bulk Modulus (GPa) = 29.61698 42.16364 35.89031
# Shear Modulus (GPa) = 11.97998 15.49525 13.73762
#
# Velocity S-wave (km/s) = 2.47925 2.81962 2.65489
# Velocity P-wave (km/s) = 4.83646 5.67746 5.27375
#
# Compressibility (1/GPa) = 0.03376441
#
# Stress axis : x y z
#
# Youngs Moduli (GPa) = 37.44210 37.44210 90.87592
#
# Poissons Ratio (x) = 0.11456 0.55743
# Poissons Ratio (y) = 0.11456 0.55743
# Poissons Ratio (z) = 0.22967 0.22967
#
# Static dielectric constant tensor:
#      x y z
#    x 1.678840 0.000000 0.000000 
#    y 0.000000 1.678840 0.000000 
#    z 0.000000 0.000000 1.748380 
# 
# From -- ./inp_files/6271.got.cif
#   From: 2010.05.17/outbox.cif.g08.bks.cpg/sg87_4_cif.got.tgz:6271.got - 2010.06.03 19:07:00.
