data_PCOD9545058
_publ_section_title
;
Structure prediction by ZEFSAII (Michael W. Deem and Ramdas Pophale) SiO2 
 PCOD9545058
Probable space group: P 42/N
;
_chemical_formula_sum "Si O2"
_cell_formula_units_Z 34
_cell_length_a 11.086551
_cell_length_b 11.086551
_cell_length_c 13.004774
_cell_angle_alpha 90.000000
_cell_angle_beta 90.000000
_cell_angle_gamma 90.000000
_cell_volume 1598.437750
_symmetry_space_group_name_H-M "P 42/N"
_symmetry_group_IT_number 86
_space_group.IT_coordinate_system_code '2'
_symmetry_cell_setting 'tetragonal'
loop_
_space_group_symop_operation_xyz
x,y,z
-y,1/2+x,1/2+z
1/2-x,1/2-y,z
1/2+y,-x,1/2+z
-x,-y,-z
y,1/2-x,1/2-z
1/2+x,1/2+y,-z
1/2-y,x,1/2-z
loop_
_atom_site_type_symbol
_atom_site_label
_atom_site_fract_x
_atom_site_fract_y
_atom_site_fract_z
Si Si1 0.773183 0.952350 0.013240
Si Si2 0.250000 0.250000 0.250000
Si Si3 0.276375 0.414139 0.440869
Si Si4 0.810000 0.378446 0.431838
Si Si5 0.265637 0.050051 0.759018
O O1 0.755370 0.000910 0.127474
O O2 0.645271 0.905635 0.968233
O O3 0.849933 0.828287 0.010123
O O4 0.850018 0.049888 0.951906
O O5 0.250094 0.365734 0.325719
O O6 0.255364 0.550840 0.473778
O O7 0.750000 0.250000 0.419573
O O8 0.792246 0.454890 0.328780
O O9 0.146415 0.126369 0.731477
#
# Coordination Sequence:
#
# PCOD9545058 Si02
#       5
#     8   2   8   8   8
#     4  10  21  43  72  98 131 181 229 294 341 419
#     4   8  20  40  72  98 128 192 232 296 352 410
#     4  10  20  46  71  97 137 179 241 276 354 420
#     4  12  26  42  65 106 143 179 232 290 350 423
#     4  11  20  43  75 100 126 185 239 282 353 419
#
# _framework density 21.270769000000001
#
# number of rings (size 3 to 8) (size 9 to 14) (size 15 to 20)
#    0.000    1.647    4.706    2.118    0.000    1.882 
#   16.941    0.000    0.000    0.000    0.000    0.000 
#    0.000    0.000    0.000    0.000    0.000    0.000 
#
# Total GULP energy -189805.654680 kJ/mol
# GULP energy per Si atom -5582.519255 kJ/mol
# Density = 2.122236 g / cm^3
# Si number density = 21.270769 Si / 1000 Ang^3
#
#
#
# Elastic Constant Matrix: (Units=GPa)
#
#
# Indices 1 2 3 4 5 6 
#
# 1 93.8103 49.9331 63.5604 0.0000 0.0000 -3.6369
# 2 49.9331 93.8103 63.5604 0.0000 0.0000 3.6369
# 3 63.5604 63.5604 157.6925 0.0000 0.0000 0.0000
# 4 0.0000 0.0000 0.0000 51.8586 0.0000 0.0000
# 5 0.0000 0.0000 0.0000 0.0000 51.8586 0.0000
# 6 -3.6369 3.6369 0.0000 0.0000 0.0000 27.6463
#
#
#
# Elastic Compliance Matrix: (Units=1/GPa)
#
#
# Indices 1 2 3 4 5 6 
#
# 1 0.017055 -0.006244 -0.004357 0.000000 0.000000 0.003065
# 2 -0.006244 0.017055 -0.004357 0.000000 0.000000 -0.003065
# 3 -0.004357 -0.004357 0.009854 0.000000 0.000000 0.000000
# 4 0.000000 0.000000 0.000000 0.019283 0.000000 0.000000
# 5 0.000000 0.000000 0.000000 0.000000 0.019283 0.000000
# 6 0.003065 -0.003065 0.000000 0.000000 0.000000 0.036978
#
#
# Mechanical properties :
#
#
# Convention : Reuss Voigt Hill
#
# Bulk Modulus (GPa) = 71.19740 77.71344 74.45542
# Shear Modulus (GPa) = 32.44510 37.49000 34.96755
#
# Velocity S-wave (km/s) = 3.90979 4.20278 4.05893
# Velocity P-wave (km/s) = 7.34347 7.75666 7.55289
#
# Compressibility (1/GPa) = 0.01404546
#
# Stress axis : x y z
#
# Youngs Moduli (GPa) = 58.63530 58.63530 101.48226
#
# Poissons Ratio (x) = 0.36614 0.44218
# Poissons Ratio (y) = 0.36614 0.44218
# Poissons Ratio (z) = 0.25549 0.25549
#
# Static dielectric constant tensor:
#      x y z
#    x 1.832470 0.000000 0.000000 
#    y 0.000000 1.832470 0.000000 
#    z 0.000000 0.000000 1.789530 
# 
# From -- ./inp_files/2069.got.cif
#   From: 2010.05.17/outbox.cif.g08.bks.cpg/sg86_2_cif.got.tgz:2069.got - 2010.06.03 19:03:11.
