data_PCOD9545236
_publ_section_title
;
Structure prediction by ZEFSAII (Michael W. Deem and Ramdas Pophale) SiO2 
 PCOD9545236
Probable space group: P 42/N
;
_chemical_formula_sum "Si O2"
_cell_formula_units_Z 40
_cell_length_a 13.423918
_cell_length_b 13.423918
_cell_length_c 10.010853
_cell_angle_alpha 90.000000
_cell_angle_beta 90.000000
_cell_angle_gamma 90.000000
_cell_volume 1803.971472
_symmetry_space_group_name_H-M "P 42/N"
_symmetry_group_IT_number 86
_space_group.IT_coordinate_system_code '2'
_symmetry_cell_setting 'tetragonal'
loop_
_space_group_symop_operation_xyz
x,y,z
-y,1/2+x,1/2+z
1/2-x,1/2-y,z
1/2+y,-x,1/2+z
-x,-y,-z
y,1/2-x,1/2-z
1/2+x,1/2+y,-z
1/2-y,x,1/2-z
loop_
_atom_site_type_symbol
_atom_site_label
_atom_site_fract_x
_atom_site_fract_y
_atom_site_fract_z
Si Si1 0.071484 0.374625 0.348276
Si Si2 0.224418 0.535280 0.346869
Si Si3 0.724417 0.035280 0.346869
Si Si4 0.750000 0.750000 0.750000
Si Si5 0.250000 0.750000 0.750000
Si Si6 0.250000 0.250000 0.750000
Si Si7 0.874625 0.928516 0.151724
O O1 0.119338 0.481651 0.308625
O O2 0.170514 0.306011 0.341173
O O3 0.032230 0.378690 0.500000
O O4 0.002058 0.314907 0.246127
O O5 0.242865 0.505919 0.500000
O O6 0.220652 0.653484 0.334752
O O7 0.720652 0.153484 0.334751
O O8 0.814907 0.997942 0.253872
O O9 0.619338 0.981651 0.308625
O O10 0.170514 0.306011 0.658827
#
# Coordination Sequence:
#
# PCOD9545236 Si02
#       7
#     8   8   8   2   4   2   8
#     4   9  18  35  62  92 121 155 198 249 303 360
#     4  10  23  42  64  92 124 160 203 250 304 364
#     4  10  23  42  64  92 124 160 203 250 304 364
#     4   8  14  28  56  94 126 152 188 242 302 364
#     4  12  26  44  60  82 122 172 212 254 298 352
#     4   8  14  28  56  94 126 152 188 242 302 364
#     4   9  18  35  62  92 121 155 198 249 303 360
#
# _framework density 22.173300000000001
#
# number of rings (size 3 to 8) (size 9 to 14) (size 15 to 20)
#    0.000    2.400    0.000    1.200    0.000   14.400 
#    0.000    6.000    0.000    0.000    0.000    0.000 
#    0.000    0.000    0.000    0.000    0.000    0.000 
#
# Total GULP energy -223335.485479 kJ/mol
# GULP energy per Si atom -5583.387137 kJ/mol
# Density = 2.212283 g / cm^3
# Si number density = 22.173300 Si / 1000 Ang^3
#
#
#
# Elastic Constant Matrix: (Units=GPa)
#
#
# Indices 1 2 3 4 5 6 
#
# 1 121.3360 26.5814 41.5580 0.0000 0.0000 -3.2659
# 2 26.5814 121.3360 41.5580 0.0000 0.0000 3.2659
# 3 41.5580 41.5580 106.9167 0.0000 0.0000 0.0000
# 4 0.0000 0.0000 0.0000 19.9805 0.0000 0.0000
# 5 0.0000 0.0000 0.0000 0.0000 19.9805 0.0000
# 6 -3.2659 3.2659 0.0000 0.0000 0.0000 32.3805
#
#
#
# Elastic Compliance Matrix: (Units=1/GPa)
#
#
# Indices 1 2 3 4 5 6 
#
# 1 0.009639 -0.000989 -0.003362 0.000000 0.000000 0.001072
# 2 -0.000989 0.009639 -0.003362 0.000000 0.000000 -0.001072
# 3 -0.003362 -0.003362 0.011967 0.000000 0.000000 0.000000
# 4 0.000000 0.000000 0.000000 0.050049 0.000000 0.000000
# 5 0.000000 0.000000 0.000000 0.000000 0.050049 0.000000
# 6 0.001072 -0.001072 0.000000 0.000000 0.000000 0.031099
#
#
# Mechanical properties :
#
#
# Convention : Reuss Voigt Hill
#
# Bulk Modulus (GPa) = 63.22002 63.22037 63.22019
# Shear Modulus (GPa) = 27.30162 30.46105 28.88133
#
# Velocity S-wave (km/s) = 3.51277 3.71046 3.61297
# Velocity P-wave (km/s) = 6.71017 6.85059 6.78074
#
# Compressibility (1/GPa) = 0.01581778
#
# Stress axis : x y z
#
# Youngs Moduli (GPa) = 103.74955 103.74955 83.56491
#
# Poissons Ratio (x) = 0.10259 0.28095
# Poissons Ratio (y) = 0.10259 0.28095
# Poissons Ratio (z) = 0.34882 0.34882
#
# Static dielectric constant tensor:
#      x y z
#    x 1.877430 0.000000 0.000000 
#    y 0.000000 1.877430 0.000000 
#    z 0.000000 0.000000 1.751080 
# 
# From -- ./inp_files/1218.got.cif
#   From: 2010.05.17/outbox.cif.g08.bks.cpg/sg86_1_cif.got.tgz:1218.got - 2010.06.03 19:03:11.
