data_PCOD9545485
_publ_section_title
;
Structure prediction by ZEFSAII (Michael W. Deem and Ramdas Pophale) SiO2 
 PCOD9545485
Probable space group: I 4/M
;
_chemical_formula_sum "Si O2"
_cell_formula_units_Z 112
_cell_length_a 18.332314
_cell_length_b 18.332314
_cell_length_c 14.383313
_cell_angle_alpha 90.000000
_cell_angle_beta 90.000000
_cell_angle_gamma 90.000000
_cell_volume 4833.853745
_symmetry_space_group_name_H-M "I 4/M"
_symmetry_group_IT_number 87
_symmetry_cell_setting 'tetragonal'
loop_
_space_group_symop_operation_xyz
x,y,z
-y,x,z
-x,-y,z
y,-x,z
-x,-y,-z
y,-x,-z
x,y,-z
-y,x,-z
1/2+x,1/2+y,1/2+z
1/2-y,1/2+x,1/2+z
1/2-x,1/2-y,1/2+z
1/2+y,1/2-x,1/2+z
1/2-x,1/2-y,1/2-z
1/2+y,1/2-x,1/2-z
1/2+x,1/2+y,1/2-z
1/2-y,1/2+x,1/2-z
loop_
_atom_site_type_symbol
_atom_site_label
_atom_site_fract_x
_atom_site_fract_y
_atom_site_fract_z
Si Si1 0.806060 0.737922 0.614689
Si Si2 0.037380 0.295756 0.391602
Si Si3 0.426699 0.033200 0.106932
Si Si4 0.030815 0.887456 0.148455
Si Si5 0.602740 0.553792 0.129404
Si Si6 0.223281 0.426964 0.610753
Si Si7 0.257644 0.117718 0.396610
O O1 0.807210 0.740681 0.500000
O O2 0.891032 0.745944 0.646577
O O3 0.781080 0.657036 0.643179
O O4 0.750389 0.801483 0.645176
O O5 0.029061 0.272638 0.500000
O O6 0.060281 0.380041 0.393196
O O7 0.955839 0.289107 0.350029
O O8 0.345250 0.025122 0.147495
O O9 0.500000 0.000000 0.149105
O O10 0.424515 0.004995 0.000000
O O11 0.043766 0.892501 0.259380
O O12 0.043990 0.804123 0.124047
O O13 0.950703 0.913467 0.116077
O O14 0.529847 0.594785 0.099915
O O15 0.673199 0.594909 0.096319
O O16 0.209919 0.423451 0.500000
O O17 0.291495 0.124898 0.500000
#
# Coordination Sequence:
#
# PCOD9545485 Si02
#       7
#    16  16  16  16  16  16  16
#     4   8  15  27  41  63  99 128 148 189 243 283
#     4   8  14  24  39  61  92 127 152 176 226 281
#     4   8  14  27  46  70  97 121 151 191 242 297
#     4   9  19  36  52  67  94 130 165 205 257 306
#     4   9  18  31  46  65  93 129 163 195 239 291
#     4   9  17  31  50  72  95 124 162 204 248 296
#     4  10  17  26  44  71  98 124 158 195 230 283
#
# _framework density 23.169920000000001
#
# number of rings (size 3 to 8) (size 9 to 14) (size 15 to 20)
#    0.000    3.286    0.000    3.429    0.000    2.286 
#    2.571    2.143    0.000    0.000    0.000    0.000 
#    0.000    0.000    0.000    0.000    0.000    0.000 
#
# Total GULP energy -312041.075760 kJ/mol
# GULP energy per Si atom -5572.162067 kJ/mol
# Density = 2.311718 g / cm^3
# Si number density = 23.169920 Si / 1000 Ang^3
#
#
#
# Elastic Constant Matrix: (Units=GPa)
#
#
# Indices 1 2 3 4 5 6 
#
# 1 114.7307 58.3897 1.9903 0.0000 0.0000 10.4858
# 2 58.3897 114.7307 1.9903 0.0000 0.0000 -10.4858
# 3 1.9903 1.9903 59.4558 0.0000 0.0000 0.0000
# 4 0.0000 0.0000 0.0000 15.1312 0.0000 0.0000
# 5 0.0000 0.0000 0.0000 0.0000 15.1312 0.0000
# 6 10.4858 -10.4858 0.0000 0.0000 0.0000 33.0737
#
#
#
# Elastic Compliance Matrix: (Units=1/GPa)
#
#
# Indices 1 2 3 4 5 6 
#
# 1 0.012952 -0.007172 -0.000194 0.000000 0.000000 -0.006380
# 2 -0.007172 0.012952 -0.000194 0.000000 0.000000 0.006380
# 3 -0.000194 -0.000194 0.016832 0.000000 0.000000 0.000000
# 4 0.000000 0.000000 0.000000 0.066089 0.000000 0.000000
# 5 0.000000 0.000000 0.000000 0.000000 0.066089 0.000000
# 6 -0.006380 0.006380 0.000000 0.000000 0.000000 0.034281
#
#
# Mechanical properties :
#
#
# Convention : Reuss Voigt Hill
#
# Bulk Modulus (GPa) = 36.20611 45.96202 41.08406
# Shear Modulus (GPa) = 21.41152 27.77034 24.59093
#
# Velocity S-wave (km/s) = 3.04321 3.46577 3.26134
# Velocity P-wave (km/s) = 5.29230 5.99128 5.65260
#
# Compressibility (1/GPa) = 0.02761965
#
# Stress axis : x y z
#
# Youngs Moduli (GPa) = 77.20601 77.20601 59.41004
#
# Poissons Ratio (x) = 0.55369 0.01150
# Poissons Ratio (y) = 0.55369 0.01150
# Poissons Ratio (z) = 0.01494 0.01494
#
# Static dielectric constant tensor:
#      x y z
#    x 1.898280 0.000000 0.000000 
#    y 0.000000 1.898280 0.000000 
#    z 0.000000 0.000000 1.910850 
# 
# From -- ./inp_files/5469.got.cif
#   From: 2010.05.17/outbox.cif.g08.bks.cpg/sg87_3_cif.got.tgz:5469.got - 2010.06.03 19:07:00.
