data_PCOD9545976
_publ_section_title
;
Structure prediction by ZEFSAII (Michael W. Deem and Ramdas Pophale) SiO2 
 PCOD9545976
Probable space group: I 4/M
;
_chemical_formula_sum "Si O2"
_cell_formula_units_Z 84
_cell_length_a 13.219505
_cell_length_b 13.219505
_cell_length_c 26.586433
_cell_angle_alpha 90.000000
_cell_angle_beta 90.000000
_cell_angle_gamma 90.000000
_cell_volume 4646.120406
_symmetry_space_group_name_H-M "I 4/M"
_symmetry_group_IT_number 87
_symmetry_cell_setting 'tetragonal'
loop_
_space_group_symop_operation_xyz
x,y,z
-y,x,z
-x,-y,z
y,-x,z
-x,-y,-z
y,-x,-z
x,y,-z
-y,x,-z
1/2+x,1/2+y,1/2+z
1/2-y,1/2+x,1/2+z
1/2-x,1/2-y,1/2+z
1/2+y,1/2-x,1/2+z
1/2-x,1/2-y,1/2-z
1/2+y,1/2-x,1/2-z
1/2+x,1/2+y,1/2-z
1/2-y,1/2+x,1/2-z
loop_
_atom_site_type_symbol
_atom_site_label
_atom_site_fract_x
_atom_site_fract_y
_atom_site_fract_z
Si Si1 0.359415 0.402998 0.204054
Si Si2 0.130971 0.107166 0.178669
Si Si3 0.401205 0.064299 0.441981
Si Si4 0.273249 0.211264 0.622085
Si Si5 0.294896 0.576514 0.057172
Si Si6 0.000000 0.000000 0.408357
O O1 0.475500 0.365552 0.196103
O O2 0.339465 0.379421 0.262639
O O3 0.278620 0.351704 0.167621
O O4 0.195407 0.180026 0.143614
O O5 0.013252 0.136919 0.170794
O O6 0.415075 0.101077 0.500000
O O7 0.366674 0.151727 0.403586
O O8 0.500000 0.000000 0.427431
O O9 0.308079 0.986025 0.442610
O O10 0.185930 0.221183 0.580548
O O11 0.377283 0.511365 0.086671
O O12 0.333657 0.586073 0.000000
#
# Coordination Sequence:
#
# PCOD9545976 Si02
#       6
#    16  16  16  16  16   4
#     4   9  19  36  57  85 116 144 179 233 294 350
#     4   9  21  41  58  76 108 147 192 243 290 334
#     4  10  23  40  54  79 124 161 185 229 293 355
#     4  12  21  32  61  87 108 146 198 231 278 349
#     4  11  22  35  55  84 118 151 184 233 289 342
#     4  12  21  36  56  84 124 152 184 232 288 348
#
# _framework density 18.079601
#
# number of rings (size 3 to 8) (size 9 to 14) (size 15 to 20)
#    0.000    1.714    1.905    4.286    2.667    0.000 
#    0.000    0.000    0.000    0.000    0.000    5.333 
#    0.000    0.000    0.000    0.000    0.000    0.000 
#
# Total GULP energy -234005.879374 kJ/mol
# GULP energy per Si atom -5571.568557 kJ/mol
# Density = 1.803845 g / cm^3
# Si number density = 18.079601 Si / 1000 Ang^3
#
#
#
# Elastic Constant Matrix: (Units=GPa)
#
#
# Indices 1 2 3 4 5 6 
#
# 1 64.2324 4.5483 23.1461 0.0000 0.0000 -15.2379
# 2 4.5483 64.2324 23.1461 0.0000 0.0000 15.2379
# 3 23.1461 23.1461 70.7268 0.0000 0.0000 0.0000
# 4 0.0000 0.0000 0.0000 20.8416 0.0000 0.0000
# 5 0.0000 0.0000 0.0000 0.0000 20.8416 0.0000
# 6 -15.2379 15.2379 0.0000 0.0000 0.0000 49.5292
#
#
#
# Elastic Compliance Matrix: (Units=1/GPa)
#
#
# Indices 1 2 3 4 5 6 
#
# 1 0.019262 -0.000616 -0.006102 0.000000 0.000000 0.006115
# 2 -0.000616 0.019262 -0.006102 0.000000 0.000000 -0.006115
# 3 -0.006102 -0.006102 0.018133 0.000000 0.000000 0.000000
# 4 0.000000 0.000000 0.000000 0.047981 0.000000 0.000000
# 5 0.000000 0.000000 0.000000 0.000000 0.047981 0.000000
# 6 0.006115 -0.006115 0.000000 0.000000 0.000000 0.023953
#
#
# Mechanical properties :
#
#
# Convention : Reuss Voigt Hill
#
# Bulk Modulus (GPa) = 32.24106 33.43030 32.83568
# Shear Modulus (GPa) = 23.52390 28.13256 25.82823
#
# Velocity S-wave (km/s) = 3.61103 3.94894 3.78376
# Velocity P-wave (km/s) = 5.93781 6.27080 6.10658
#
# Compressibility (1/GPa) = 0.03101635
#
# Stress axis : x y z
#
# Youngs Moduli (GPa) = 51.91653 51.91653 55.14855
#
# Poissons Ratio (x) = 0.03197 0.33652
# Poissons Ratio (y) = 0.03197 0.33652
# Poissons Ratio (z) = 0.31680 0.31680
#
# Static dielectric constant tensor:
#      x y z
#    x 1.604240 0.000000 0.000000 
#    y 0.000000 1.604240 0.000000 
#    z 0.000000 0.000000 1.692530 
# 
# From -- ./inp_files/6562.got.cif
#   From: 2010.05.17/outbox.cif.g08.bks.cpg/sg87_4_cif.got.tgz:6562.got - 2010.06.03 19:07:00.
