data_PCOD9545677
_publ_section_title
;
Structure prediction by ZEFSAII (Michael W. Deem and Ramdas Pophale) SiO2 
 PCOD9545677
Probable space group: I 4/M
;
_chemical_formula_sum "Si O2"
_cell_formula_units_Z 96
_cell_length_a 24.066488
_cell_length_b 24.066488
_cell_length_c 8.845462
_cell_angle_alpha 90.000000
_cell_angle_beta 90.000000
_cell_angle_gamma 90.000000
_cell_volume 5123.254834
_symmetry_space_group_name_H-M "I 4/M"
_symmetry_group_IT_number 87
_symmetry_cell_setting 'tetragonal'
loop_
_space_group_symop_operation_xyz
x,y,z
-y,x,z
-x,-y,z
y,-x,z
-x,-y,-z
y,-x,-z
x,y,-z
-y,x,-z
1/2+x,1/2+y,1/2+z
1/2-y,1/2+x,1/2+z
1/2-x,1/2-y,1/2+z
1/2+y,1/2-x,1/2+z
1/2-x,1/2-y,1/2-z
1/2+y,1/2-x,1/2-z
1/2+x,1/2+y,1/2-z
1/2-y,1/2+x,1/2-z
loop_
_atom_site_type_symbol
_atom_site_label
_atom_site_fract_x
_atom_site_fract_y
_atom_site_fract_z
Si Si1 0.307310 0.806902 0.181002
Si Si2 0.817361 0.430673 0.320060
Si Si3 0.083415 0.510053 0.821318
Si Si4 0.313082 0.571653 0.679426
Si Si5 0.313232 0.314565 0.178150
Si Si6 0.010773 0.089530 0.681771
O O1 0.335578 0.866321 0.207400
O O2 0.337522 0.748544 0.215345
O O3 0.250508 0.808493 0.276522
O O4 0.293201 0.805520 0.000000
O O5 0.823158 0.441006 0.500000
O O6 0.855206 0.472331 0.227046
O O7 0.752070 0.433920 0.279977
O O8 0.042861 0.560053 0.768908
O O9 0.078596 0.500484 0.000000
O O10 0.316409 0.570805 0.500000
O O11 0.334367 0.631798 0.737265
O O12 0.351250 0.524064 0.748763
O O13 0.322355 0.320944 0.000000
O O14 0.010974 0.093347 0.500000
O O15 0.953462 0.059806 0.726369
#
# Coordination Sequence:
#
# PCOD9545677 Si02
#       6
#    16  16  16  16  16  16
#     4   8  15  27  44  68 100 137 173 211 255 304
#     4   9  18  34  53  77 110 141 173 216 263 310
#     4  11  22  38  60  82 104 135 175 216 260 310
#     4  10  20  33  52  79 111 143 174 216 267 314
#     4   9  15  25  44  69  99 137 177 212 252 306
#     4   9  19  37  59  80 103 135 177 222 265 312
#
# _framework density 18.738088000000001
#
# number of rings (size 3 to 8) (size 9 to 14) (size 15 to 20)
#    0.000    2.667    0.000    4.500    0.000    4.667 
#    0.000    2.500    0.000    2.000    0.000    0.000 
#    0.000    0.000    0.000    0.000    0.000    0.000 
#
# Total GULP energy -267459.568581 kJ/mol
# GULP energy per Si atom -5572.074345 kJ/mol
# Density = 1.869544 g / cm^3
# Si number density = 18.738088 Si / 1000 Ang^3
#
#
#
# Elastic Constant Matrix: (Units=GPa)
#
#
# Indices 1 2 3 4 5 6 
#
# 1 38.3486 25.5598 13.4802 0.0000 0.0000 0.1114
# 2 25.5598 38.3486 13.4802 0.0000 0.0000 -0.1114
# 3 13.4802 13.4802 26.1060 0.0000 0.0000 0.0000
# 4 0.0000 0.0000 0.0000 20.7483 0.0000 0.0000
# 5 0.0000 0.0000 0.0000 0.0000 20.7483 0.0000
# 6 0.1114 -0.1114 0.0000 0.0000 0.0000 20.6470
#
#
#
# Elastic Compliance Matrix: (Units=1/GPa)
#
#
# Indices 1 2 3 4 5 6 
#
# 1 0.049103 -0.029098 -0.010330 0.000000 0.000000 -0.000422
# 2 -0.029098 0.049103 -0.010330 0.000000 0.000000 0.000422
# 3 -0.010330 -0.010330 0.048973 0.000000 0.000000 0.000000
# 4 0.000000 0.000000 0.000000 0.048197 0.000000 0.000000
# 5 0.000000 0.000000 0.000000 0.000000 0.048197 0.000000
# 6 -0.000422 0.000422 0.000000 0.000000 0.000000 0.048438
#
#
# Mechanical properties :
#
#
# Convention : Reuss Voigt Hill
#
# Bulk Modulus (GPa) = 20.98022 23.09373 22.03698
# Shear Modulus (GPa) = 12.27251 15.78091 14.02671
#
# Velocity S-wave (km/s) = 2.56198 2.90519 2.73896
# Velocity P-wave (km/s) = 4.46906 4.85847 4.66783
#
# Compressibility (1/GPa) = 0.04766394
#
# Stress axis : x y z
#
# Youngs Moduli (GPa) = 20.36530 20.36530 20.41922
#
# Poissons Ratio (x) = 0.59259 0.21093
# Poissons Ratio (y) = 0.59259 0.21093
# Poissons Ratio (z) = 0.21037 0.21037
#
# Static dielectric constant tensor:
#      x y z
#    x 1.675570 0.000000 0.000000 
#    y 0.000000 1.675570 0.000000 
#    z 0.000000 0.000000 1.624740 
# 
# From -- ./inp_files/1382.got.cif
#   From: 2010.05.17/outbox.cif.g08.bks.cpg/sg87_1_cif.got.tgz:1382.got - 2010.06.03 19:07:00.
