data_PCOD9545315
_publ_section_title
;
Structure prediction by ZEFSAII (Michael W. Deem and Ramdas Pophale) SiO2 
 PCOD9545315
Probable space group: P 42/N
;
_chemical_formula_sum "Si O2"
_cell_formula_units_Z 26
_cell_length_a 8.184985
_cell_length_b 8.184985
_cell_length_c 13.930554
_cell_angle_alpha 90.000000
_cell_angle_beta 90.000000
_cell_angle_gamma 90.000000
_cell_volume 933.263248
_symmetry_space_group_name_H-M "P 42/N"
_symmetry_group_IT_number 86
_space_group.IT_coordinate_system_code '2'
_symmetry_cell_setting 'tetragonal'
loop_
_space_group_symop_operation_xyz
x,y,z
-y,1/2+x,1/2+z
1/2-x,1/2-y,z
1/2+y,-x,1/2+z
-x,-y,-z
y,1/2-x,1/2-z
1/2+x,1/2+y,-z
1/2-y,x,1/2-z
loop_
_atom_site_type_symbol
_atom_site_label
_atom_site_fract_x
_atom_site_fract_y
_atom_site_fract_z
Si Si1 0.328640 0.926531 0.044800
Si Si2 0.045861 0.983019 0.288090
Si Si3 0.572512 0.826814 0.384057
Si Si4 0.750000 0.750000 0.750000
O O1 0.250000 0.750000 0.024653
O O2 0.390735 0.926802 0.154523
O O3 0.500000 0.000000 0.000000
O O4 0.190540 0.044504 0.997921
O O5 0.212545 0.082931 0.303287
O O6 0.048124 0.808724 0.339070
O O7 0.986955 0.948764 0.179758
O O8 0.750000 0.750000 0.363688
#
# Coordination Sequence:
#
# PCOD9545315 Si02
#       4
#     8   8   8   2
#     4  10  26  44  74 113 152 200 264 333 391 478
#     4  11  25  48  69 109 150 201 259 315 401 462
#     4  11  23  49  81 103 143 210 261 319 397 480
#     4  12  32  36  68 112 152 202 244 336 372 472
#
# _framework density 27.859235999999999
#
# number of rings (size 3 to 8) (size 9 to 14) (size 15 to 20)
#    0.000    1.231    3.077    0.000   15.077    0.000 
#    0.000    7.692    0.000    0.000    0.000    0.000 
#    0.000    0.000    0.000    0.000    0.000    0.000 
#
# Total GULP energy -144964.996433 kJ/mol
# GULP energy per Si atom -5575.576786 kJ/mol
# Density = 2.779583 g / cm^3
# Si number density = 27.859236 Si / 1000 Ang^3
#
#
#
# Elastic Constant Matrix: (Units=GPa)
#
#
# Indices 1 2 3 4 5 6 
#
# 1 101.0567 23.0836 27.0118 0.0000 0.0000 -18.5124
# 2 23.0836 101.0567 27.0118 0.0000 0.0000 18.5124
# 3 27.0118 27.0118 139.2244 0.0000 0.0000 0.0000
# 4 0.0000 0.0000 0.0000 40.4637 0.0000 0.0000
# 5 0.0000 0.0000 0.0000 0.0000 40.4637 0.0000
# 6 -18.5124 18.5124 0.0000 0.0000 0.0000 66.4793
#
#
#
# Elastic Compliance Matrix: (Units=1/GPa)
#
#
# Indices 1 2 3 4 5 6 
#
# 1 0.011789 -0.002990 -0.001707 0.000000 0.000000 0.004116
# 2 -0.002990 0.011789 -0.001707 0.000000 0.000000 -0.004116
# 3 -0.001707 -0.001707 0.007845 0.000000 0.000000 0.000000
# 4 0.000000 0.000000 0.000000 0.024713 0.000000 0.000000
# 5 0.000000 0.000000 0.000000 0.000000 0.024713 0.000000
# 6 0.004116 -0.004116 0.000000 0.000000 0.000000 0.017334
#
#
# Mechanical properties :
#
#
# Convention : Reuss Voigt Hill
#
# Bulk Modulus (GPa) = 53.72440 55.06136 54.39288
# Shear Modulus (GPa) = 42.66315 47.09673 44.87994
#
# Velocity S-wave (km/s) = 3.91753 4.11606 4.01802
# Velocity P-wave (km/s) = 6.30784 6.51124 6.41035
#
# Compressibility (1/GPa) = 0.01861352
#
# Stress axis : x y z
#
# Youngs Moduli (GPa) = 84.82699 84.82699 127.46945
#
# Poissons Ratio (x) = 0.25367 0.21759
# Poissons Ratio (y) = 0.25367 0.21759
# Poissons Ratio (z) = 0.14480 0.14480
#
# Static dielectric constant tensor:
#      x y z
#    x 2.275940 0.000000 0.000000 
#    y 0.000000 2.275940 0.000000 
#    z 0.000000 0.000000 2.399640 
# 
# From -- ./inp_files/3217.got.cif
#   From: 2010.05.17/outbox.cif.g08.bks.cpg/sg86_2_cif.got.tgz:3217.got - 2010.06.03 19:03:11.
