data_PCOD9545534
_publ_section_title
;
Structure prediction by ZEFSAII (Michael W. Deem and Ramdas Pophale) SiO2 
 PCOD9545534
Probable space group: I 4/M
;
_chemical_formula_sum "Si O2"
_cell_formula_units_Z 112
_cell_length_a 15.171053
_cell_length_b 15.171053
_cell_length_c 22.177371
_cell_angle_alpha 90.000000
_cell_angle_beta 90.000000
_cell_angle_gamma 90.000000
_cell_volume 5104.362541
_symmetry_space_group_name_H-M "I 4/M"
_symmetry_group_IT_number 87
_symmetry_cell_setting 'tetragonal'
loop_
_space_group_symop_operation_xyz
x,y,z
-y,x,z
-x,-y,z
y,-x,z
-x,-y,-z
y,-x,-z
x,y,-z
-y,x,-z
1/2+x,1/2+y,1/2+z
1/2-y,1/2+x,1/2+z
1/2-x,1/2-y,1/2+z
1/2+y,1/2-x,1/2+z
1/2-x,1/2-y,1/2-z
1/2+y,1/2-x,1/2-z
1/2+x,1/2+y,1/2-z
1/2-y,1/2+x,1/2-z
loop_
_atom_site_type_symbol
_atom_site_label
_atom_site_fract_x
_atom_site_fract_y
_atom_site_fract_z
Si Si1 0.789008 0.720984 0.569971
Si Si2 0.925412 0.330578 0.290694
Si Si3 0.492763 0.352436 0.568816
Si Si4 0.645572 0.667239 0.222806
Si Si5 0.580451 0.617722 0.900432
Si Si6 0.385518 0.252522 0.650969
Si Si7 0.357382 0.880117 0.327952
O O1 0.772583 0.702513 0.500000
O O2 0.855255 0.805367 0.575819
O O3 0.697630 0.738225 0.605398
O O4 0.839450 0.643293 0.605981
O O5 0.893448 0.230288 0.285103
O O6 0.845758 0.380048 0.323517
O O7 0.931921 0.362526 0.221469
O O8 0.015782 0.340373 0.326159
O O9 0.579343 0.411141 0.577183
O O10 0.491516 0.321443 0.500000
O O11 0.473821 0.276223 0.615548
O O12 0.579444 0.630483 0.172471
O O13 0.619662 0.680402 0.292070
O O14 0.663570 0.768262 0.201361
O O15 0.477901 0.618692 0.918488
#
# Coordination Sequence:
#
# PCOD9545534 Si02
#       7
#    16  16  16  16  16  16  16
#     4  11  22  37  57  84 123 170 214 253 300 378
#     4  11  20  38  60  87 122 156 204 275 314 372
#     4   9  20  39  60  85 119 153 192 248 311 377
#     4  10  18  35  57  83 109 148 196 260 317 355
#     4  10  21  36  54  84 126 164 202 254 312 368
#     4  11  20  35  58  90 117 157 200 249 313 377
#     4  10  21  37  60  87 118 159 210 259 322 366
#
# _framework density 21.942015000000001
#
# number of rings (size 3 to 8) (size 9 to 14) (size 15 to 20)
#    0.000    1.714    4.286    3.429    0.000    4.286 
#    0.000    2.857    0.000    0.000    0.000    2.000 
#    0.000    0.000    0.000    0.000    0.000    0.000 
#
# Total GULP energy -312884.806751 kJ/mol
# GULP energy per Si atom -5587.228692 kJ/mol
# Density = 2.189207 g / cm^3
# Si number density = 21.942015 Si / 1000 Ang^3
#
#
#
# Elastic Constant Matrix: (Units=GPa)
#
#
# Indices 1 2 3 4 5 6 
#
# 1 68.3000 30.5174 26.6766 0.0000 0.0000 -11.2035
# 2 30.5174 68.3000 26.6766 0.0000 0.0000 11.2035
# 3 26.6766 26.6766 136.4254 0.0000 0.0000 0.0000
# 4 0.0000 0.0000 0.0000 20.3458 0.0000 0.0000
# 5 0.0000 0.0000 0.0000 0.0000 20.3458 0.0000
# 6 -11.2035 11.2035 0.0000 0.0000 0.0000 21.4897
#
#
#
# Elastic Compliance Matrix: (Units=1/GPa)
#
#
# Indices 1 2 3 4 5 6 
#
# 1 0.024814 -0.013499 -0.002212 0.000000 0.000000 0.019974
# 2 -0.013499 0.024814 -0.002212 0.000000 0.000000 -0.019974
# 3 -0.002212 -0.002212 0.008195 0.000000 0.000000 0.000000
# 4 0.000000 0.000000 0.000000 0.049150 0.000000 0.000000
# 5 0.000000 0.000000 0.000000 0.000000 0.049150 0.000000
# 6 0.019974 -0.019974 0.000000 0.000000 0.000000 0.067361
#
#
# Mechanical properties :
#
#
# Convention : Reuss Voigt Hill
#
# Bulk Modulus (GPa) = 45.50814 48.97407 47.24110
# Shear Modulus (GPa) = 18.75075 25.04658 21.89867
#
# Velocity S-wave (km/s) = 2.92646 3.38226 3.16258
# Velocity P-wave (km/s) = 5.67486 6.13361 5.90869
#
# Compressibility (1/GPa) = 0.02197409
#
# Stress axis : x y z
#
# Youngs Moduli (GPa) = 40.30063 40.30063 122.02221
#
# Poissons Ratio (x) = 0.54403 0.26996
# Poissons Ratio (y) = 0.54403 0.26996
# Poissons Ratio (z) = 0.08916 0.08916
#
# Static dielectric constant tensor:
#      x y z
#    x 1.826820 0.000000 0.000000 
#    y 0.000000 1.826820 0.000000 
#    z 0.000000 0.000000 1.845490 
# 
# From -- ./inp_files/5903.got.cif
#   From: 2010.05.17/outbox.cif.g08.bks.cpg/sg87_3_cif.got.tgz:5903.got - 2010.06.03 19:07:00.
