data_PCOD9545868
_publ_section_title
;
Structure prediction by ZEFSAII (Michael W. Deem and Ramdas Pophale) SiO2 
 PCOD9545868
Probable space group: I 4/M
;
_chemical_formula_sum "Si O2"
_cell_formula_units_Z 80
_cell_length_a 13.749333
_cell_length_b 13.749333
_cell_length_c 19.939071
_cell_angle_alpha 90.000000
_cell_angle_beta 90.000000
_cell_angle_gamma 90.000000
_cell_volume 3769.364887
_symmetry_space_group_name_H-M "I 4/M"
_symmetry_group_IT_number 87
_symmetry_cell_setting 'tetragonal'
loop_
_space_group_symop_operation_xyz
x,y,z
-y,x,z
-x,-y,z
y,-x,z
-x,-y,-z
y,-x,-z
x,y,-z
-y,x,-z
1/2+x,1/2+y,1/2+z
1/2-y,1/2+x,1/2+z
1/2-x,1/2-y,1/2+z
1/2+y,1/2-x,1/2+z
1/2-x,1/2-y,1/2-z
1/2+y,1/2-x,1/2-z
1/2+x,1/2+y,1/2-z
1/2-y,1/2+x,1/2-z
loop_
_atom_site_type_symbol
_atom_site_label
_atom_site_fract_x
_atom_site_fract_y
_atom_site_fract_z
Si Si1 0.525287 0.223004 0.305970
Si Si2 0.062758 0.321126 0.669848
Si Si3 0.638741 0.578530 0.406022
Si Si4 0.386205 0.895902 0.919875
Si Si5 0.251075 0.787254 0.570728
O O1 0.600723 0.135494 0.297820
O O2 0.480660 0.233236 0.233183
O O3 0.570477 0.325790 0.329022
O O4 0.460859 0.180801 0.369107
O O5 0.133354 0.253541 0.627344
O O6 0.987731 0.375948 0.619316
O O7 0.535239 0.625749 0.424018
O O8 0.725211 0.647860 0.430947
O O9 0.331691 0.792652 0.921799
O O10 0.393999 0.927723 0.000000
O O11 0.241692 0.839090 0.500000
#
# Coordination Sequence:
#
# PCOD9545868 Si02
#       5
#    16  16  16  16  16
#     4  11  22  37  63  91 121 162 209 251 306 372
#     4  11  23  39  63  90 124 161 206 260 311 359
#     4  10  21  38  59  87 124 163 201 244 299 367
#     4  11  23  40  61  89 124 161 206 259 308 366
#     4  10  23  41  62  93 125 164 211 249 310 375
#
# _framework density 21.223735000000001
#
# number of rings (size 3 to 8) (size 9 to 14) (size 15 to 20)
#    0.000    1.400    4.000    1.200    0.000    8.000 
#    0.000    1.000    0.000    0.600    0.000    2.800 
#    0.000    0.000    0.000    0.000    0.000    0.000 
#
# Total GULP energy -222745.161055 kJ/mol
# GULP energy per Si atom -5568.629026 kJ/mol
# Density = 2.117543 g / cm^3
# Si number density = 21.223735 Si / 1000 Ang^3
#
#
#
# Elastic Constant Matrix: (Units=GPa)
#
#
# Indices 1 2 3 4 5 6 
#
# 1 50.6374 -6.5941 19.2395 0.0000 0.0000 -4.1617
# 2 -6.5941 50.6374 19.2395 0.0000 0.0000 4.1617
# 3 19.2395 19.2395 123.1492 0.0000 0.0000 0.0000
# 4 0.0000 0.0000 0.0000 33.6657 0.0000 0.0000
# 5 0.0000 0.0000 0.0000 0.0000 33.6657 0.0000
# 6 -4.1617 4.1617 0.0000 0.0000 0.0000 18.3223
#
#
#
# Elastic Compliance Matrix: (Units=1/GPa)
#
#
# Indices 1 2 3 4 5 6 
#
# 1 0.022182 0.004112 -0.004108 0.000000 0.000000 0.004104
# 2 0.004112 0.022182 -0.004108 0.000000 0.000000 -0.004104
# 3 -0.004108 -0.004108 0.009404 0.000000 0.000000 0.000000
# 4 0.000000 0.000000 0.000000 0.029704 0.000000 0.000000
# 5 0.000000 0.000000 0.000000 0.000000 0.029704 0.000000
# 6 0.004104 -0.004104 0.000000 0.000000 0.000000 0.056443
#
#
# Mechanical properties :
#
#
# Convention : Reuss Voigt Hill
#
# Bulk Modulus (GPa) = 21.94910 32.02152 26.98531
# Shear Modulus (GPa) = 25.90512 29.96666 27.93589
#
# Velocity S-wave (km/s) = 3.49746 3.76166 3.63196
# Velocity P-wave (km/s) = 5.16467 5.82985 5.50731
#
# Compressibility (1/GPa) = 0.04555996
#
# Stress axis : x y z
#
# Youngs Moduli (GPa) = 45.08198 45.08198 106.34034
#
# Poissons Ratio (x) = -0.18538 0.43683
# Poissons Ratio (y) = -0.18538 0.43683
# Poissons Ratio (z) = 0.18519 0.18519
#
# Static dielectric constant tensor:
#      x y z
#    x 1.783520 0.000000 0.000000 
#    y 0.000000 1.783520 0.000000 
#    z 0.000000 0.000000 1.772810 
# 
# From -- ./inp_files/5059.got.cif
#   From: 2010.05.17/outbox.cif.g08.bks.cpg/sg87_3_cif.got.tgz:5059.got - 2010.06.03 19:07:00.
