data_PCOD9545361
_publ_section_title
;
Structure prediction by ZEFSAII (Michael W. Deem and Ramdas Pophale) SiO2 
 PCOD9545361
Probable space group: P 42/N
;
_chemical_formula_sum "Si O2"
_cell_formula_units_Z 48
_cell_length_a 10.676197
_cell_length_b 10.676197
_cell_length_c 18.274388
_cell_angle_alpha 90.000000
_cell_angle_beta 90.000000
_cell_angle_gamma 90.000000
_cell_volume 2082.936352
_symmetry_space_group_name_H-M "P 42/N"
_symmetry_group_IT_number 86
_space_group.IT_coordinate_system_code '2'
_symmetry_cell_setting 'tetragonal'
loop_
_space_group_symop_operation_xyz
x,y,z
-y,1/2+x,1/2+z
1/2-x,1/2-y,z
1/2+y,-x,1/2+z
-x,-y,-z
y,1/2-x,1/2-z
1/2+x,1/2+y,-z
1/2-y,x,1/2-z
loop_
_atom_site_type_symbol
_atom_site_label
_atom_site_fract_x
_atom_site_fract_y
_atom_site_fract_z
Si Si1 0.042109 0.180669 0.335675
Si Si2 0.654073 0.364060 0.208165
Si Si3 0.674930 0.129436 0.974485
Si Si4 0.089831 0.246476 0.965944
Si Si5 0.413994 0.310718 0.130033
Si Si6 0.043810 0.273907 0.600034
O O1 0.173167 0.107113 0.336108
O O2 0.088452 0.324808 0.330329
O O3 0.939542 0.136263 0.277179
O O4 0.977875 0.167677 0.414206
O O5 0.750000 0.250000 0.216229
O O6 0.557839 0.342765 0.140965
O O7 0.724978 0.489764 0.182135
O O8 0.750000 0.250000 0.946326
O O9 0.537661 0.184012 0.984963
O O10 0.738975 0.070533 0.045917
O O11 0.171820 0.350989 0.923528
O O12 0.097515 0.119760 0.917697
O O13 0.129190 0.196841 0.046143
#
# Coordination Sequence:
#
# PCOD9545361 Si02
#       6
#     8   8   8   8   8   8
#     4  11  24  46  70 102 139 182 248 302 361 435
#     4  12  27  42  67 102 146 187 236 298 377 436
#     4  12  24  39  71 107 140 184 240 308 363 424
#     4  11  23  43  75 104 139 190 240 301 373 433
#     4  11  22  47  78 100 133 193 245 311 359 421
#     4  11  23  45  65 103 143 185 238 294 367 442
#
# _framework density 23.044391999999998
#
# number of rings (size 3 to 8) (size 9 to 14) (size 15 to 20)
#    0.000    0.667    3.333    5.500    4.667    2.667 
#    3.000    0.000    0.000    2.000    0.000    0.000 
#    0.000    0.000    0.000    0.000    0.000    0.000 
#
# Total GULP energy -268140.883641 kJ/mol
# GULP energy per Si atom -5586.268409 kJ/mol
# Density = 2.299194 g / cm^3
# Si number density = 23.044392 Si / 1000 Ang^3
#
#
#
# Elastic Constant Matrix: (Units=GPa)
#
#
# Indices 1 2 3 4 5 6 
#
# 1 66.7172 7.5772 27.8551 0.0000 0.0000 5.9258
# 2 7.5772 66.7172 27.8551 0.0000 0.0000 -5.9258
# 3 27.8551 27.8551 87.8382 0.0000 0.0000 0.0000
# 4 0.0000 0.0000 0.0000 30.0918 0.0000 0.0000
# 5 0.0000 0.0000 0.0000 0.0000 30.0918 0.0000
# 6 5.9258 -5.9258 0.0000 0.0000 0.0000 29.1262
#
#
#
# Elastic Compliance Matrix: (Units=1/GPa)
#
#
# Indices 1 2 3 4 5 6 
#
# 1 0.017643 0.000016 -0.005600 0.000000 0.000000 -0.003586
# 2 0.000016 0.017643 -0.005600 0.000000 0.000000 0.003586
# 3 -0.005600 -0.005600 0.014936 0.000000 0.000000 0.000000
# 4 0.000000 0.000000 0.000000 0.033232 0.000000 0.000000
# 5 0.000000 0.000000 0.000000 0.000000 0.033232 0.000000
# 6 -0.003586 0.003586 0.000000 0.000000 0.000000 0.035793
#
#
# Mechanical properties :
#
#
# Convention : Reuss Voigt Hill
#
# Bulk Modulus (GPa) = 35.90082 38.64971 37.27526
# Shear Modulus (GPa) = 27.15429 28.39430 27.77430
#
# Velocity S-wave (km/s) = 3.43643 3.51402 3.47544
# Velocity P-wave (km/s) = 5.59984 5.76825 5.68467
#
# Compressibility (1/GPa) = 0.02785452
#
# Stress axis : x y z
#
# Youngs Moduli (GPa) = 56.67817 56.67817 66.95079
#
# Poissons Ratio (x) = -0.00089 0.37493
# Poissons Ratio (y) = -0.00089 0.37493
# Poissons Ratio (z) = 0.31740 0.31740
#
# Static dielectric constant tensor:
#      x y z
#    x 1.920790 0.000000 0.000000 
#    y 0.000000 1.920790 0.000000 
#    z 0.000000 0.000000 1.872550 
# 
# From -- ./inp_files/3538.got.cif
#   From: 2010.05.17/outbox.cif.g08.bks.cpg/sg86_2_cif.got.tgz:3538.got - 2010.06.03 19:03:11.
