data_PCOD9545271
_publ_section_title
;
Structure prediction by ZEFSAII (Michael W. Deem and Ramdas Pophale) SiO2 
 PCOD9545271
Probable space group: P 42/N
;
_chemical_formula_sum "Si O2"
_cell_formula_units_Z 38
_cell_length_a 11.679388
_cell_length_b 11.679388
_cell_length_c 13.002702
_cell_angle_alpha 90.000000
_cell_angle_beta 90.000000
_cell_angle_gamma 90.000000
_cell_volume 1773.673927
_symmetry_space_group_name_H-M "P 42/N"
_symmetry_group_IT_number 86
_space_group.IT_coordinate_system_code '2'
_symmetry_cell_setting 'tetragonal'
loop_
_space_group_symop_operation_xyz
x,y,z
-y,1/2+x,1/2+z
1/2-x,1/2-y,z
1/2+y,-x,1/2+z
-x,-y,-z
y,1/2-x,1/2-z
1/2+x,1/2+y,-z
1/2-y,x,1/2-z
loop_
_atom_site_type_symbol
_atom_site_label
_atom_site_fract_x
_atom_site_fract_y
_atom_site_fract_z
Si Si1 0.514357 0.748494 0.135208
Si Si2 0.930035 0.133334 0.239790
Si Si3 0.970865 0.377592 0.291569
Si Si4 0.750000 0.250000 0.085505
Si Si5 0.750000 0.750000 0.250000
Si Si6 0.618644 0.455587 0.544292
O O1 0.457390 0.857875 0.193090
O O2 0.431085 0.642080 0.157306
O O3 0.637971 0.725269 0.182655
O O4 0.523946 0.782864 0.016146
O O5 0.974269 0.241305 0.306857
O O6 0.838653 0.182257 0.157988
O O7 0.037889 0.075172 0.183723
O O8 0.965006 0.387228 0.166856
O O9 0.675612 0.157771 0.023746
O O10 0.500000 0.500000 0.500000
#
# Coordination Sequence:
#
# PCOD9545271 Si02
#       6
#     8   8   8   4   2   8
#     4  12  22  40  69  96 129 175 217 285 340 391
#     4  11  21  42  66  88 136 172 217 270 340 396
#     4  11  24  42  65  98 130 180 224 272 338 413
#     4  10  24  40  64  98 128 170 232 270 332 420
#     4  12  24  40  68 104 128 166 236 284 344 388
#     4  11  22  37  65  97 127 170 225 272 339 405
#
# _framework density 21.424454000000001
#
# number of rings (size 3 to 8) (size 9 to 14) (size 15 to 20)
#    0.000    0.842    8.421    0.000    2.947    0.421 
#    0.000    8.421    0.000    0.000    0.000    0.000 
#    0.000    0.000    0.000    0.000    0.000    0.000 
#
# Total GULP energy -212120.668462 kJ/mol
# GULP energy per Si atom -5582.122854 kJ/mol
# Density = 2.137569 g / cm^3
# Si number density = 21.424454 Si / 1000 Ang^3
#
#
#
# Elastic Constant Matrix: (Units=GPa)
#
#
# Indices 1 2 3 4 5 6 
#
# 1 99.4892 28.7228 0.9002 0.0000 0.0000 -7.0164
# 2 28.7228 99.4892 0.9002 0.0000 0.0000 7.0164
# 3 0.9002 0.9002 61.5806 0.0000 0.0000 0.0000
# 4 0.0000 0.0000 0.0000 14.1729 0.0000 0.0000
# 5 0.0000 0.0000 0.0000 0.0000 14.1729 0.0000
# 6 -7.0164 7.0164 0.0000 0.0000 0.0000 59.7957
#
#
#
# Elastic Compliance Matrix: (Units=1/GPa)
#
#
# Indices 1 2 3 4 5 6 
#
# 1 0.011134 -0.003333 -0.000114 0.000000 0.000000 0.001698
# 2 -0.003333 0.011134 -0.000114 0.000000 0.000000 -0.001698
# 3 -0.000114 -0.000114 0.016242 0.000000 0.000000 0.000000
# 4 0.000000 0.000000 0.000000 0.070557 0.000000 0.000000
# 5 0.000000 0.000000 0.000000 0.000000 0.070557 0.000000
# 6 0.001698 -0.001698 0.000000 0.000000 0.000000 0.017122
#
#
# Mechanical properties :
#
#
# Convention : Reuss Voigt Hill
#
# Bulk Modulus (GPa) = 31.85890 35.73395 33.79642
# Shear Modulus (GPa) = 23.32826 32.96404 28.14615
#
# Velocity S-wave (km/s) = 3.30337 3.92678 3.62849
# Velocity P-wave (km/s) = 5.42700 6.10530 5.77611
#
# Compressibility (1/GPa) = 0.03138840
#
# Stress axis : x y z
#
# Youngs Moduli (GPa) = 89.81174 89.81174 61.56796
#
# Poissons Ratio (x) = 0.29936 0.00702
# Poissons Ratio (y) = 0.29936 0.00702
# Poissons Ratio (z) = 0.01024 0.01024
#
# Static dielectric constant tensor:
#      x y z
#    x 1.743190 0.000000 0.000000 
#    y 0.000000 1.743190 0.000000 
#    z 0.000000 0.000000 1.858410 
# 
# From -- ./inp_files/2961.got.cif
#   From: 2010.05.17/outbox.cif.g08.bks.cpg/sg86_2_cif.got.tgz:2961.got - 2010.06.03 19:03:11.
