data_PCOD9545048
_publ_section_title
;
Structure prediction by ZEFSAII (Michael W. Deem and Ramdas Pophale) SiO2 
 PCOD9545048
Probable space group: P 42/N
;
_chemical_formula_sum "Si O2"
_cell_formula_units_Z 40
_cell_length_a 7.895653
_cell_length_b 7.895653
_cell_length_c 25.753988
_cell_angle_alpha 90.000000
_cell_angle_beta 90.000000
_cell_angle_gamma 90.000000
_cell_volume 1605.538027
_symmetry_space_group_name_H-M "P 42/N"
_symmetry_group_IT_number 86
_space_group.IT_coordinate_system_code '2'
_symmetry_cell_setting 'tetragonal'
loop_
_space_group_symop_operation_xyz
x,y,z
-y,1/2+x,1/2+z
1/2-x,1/2-y,z
1/2+y,-x,1/2+z
-x,-y,-z
y,1/2-x,1/2-z
1/2+x,1/2+y,-z
1/2-y,x,1/2-z
loop_
_atom_site_type_symbol
_atom_site_label
_atom_site_fract_x
_atom_site_fract_y
_atom_site_fract_z
Si Si1 0.435108 0.830001 0.432587
Si Si2 0.009334 0.853564 0.833846
Si Si3 0.723263 0.557428 0.962152
Si Si4 0.990443 0.342576 0.763259
Si Si5 0.356674 0.996757 0.139784
O O1 0.250000 0.750000 0.441348
O O2 0.448224 0.852521 0.370554
O O3 0.539399 0.733520 0.477232
O O4 0.466219 0.025213 0.449537
O O5 0.828525 0.946536 0.839543
O O6 0.974425 0.663641 0.854146
O O7 0.075906 0.854116 0.775529
O O8 0.750000 0.750000 0.946424
O O9 0.833183 0.451604 0.920765
O O10 0.156448 0.456475 0.753584
O O11 0.931300 0.356021 0.822443
#
# Coordination Sequence:
#
# PCOD9545048 Si02
#       5
#     8   8   8   8   8
#     4  10  22  39  64  93 127 167 214 267 317 379
#     4  10  21  41  66  92 123 167 217 260 321 391
#     4  10  20  43  62  94 129 166 220 265 314 386
#     4  11  26  43  61  96 132 162 209 271 335 389
#     4  10  20  42  67  91 123 167 216 263 313 394
#
# _framework density 24.913768999999998
#
# number of rings (size 3 to 8) (size 9 to 14) (size 15 to 20)
#    0.000    1.800    4.000    1.200    2.800    4.800 
#   14.400    0.000    0.000    0.000    0.000    0.000 
#    0.000    0.000    0.000    0.000    0.000    0.000 
#
# Total GULP energy -223428.875725 kJ/mol
# GULP energy per Si atom -5585.721893 kJ/mol
# Density = 2.485706 g / cm^3
# Si number density = 24.913769 Si / 1000 Ang^3
#
#
#
# Elastic Constant Matrix: (Units=GPa)
#
#
# Indices 1 2 3 4 5 6 
#
# 1 74.4130 12.6964 31.8129 0.0000 0.0000 1.7416
# 2 12.6964 74.4130 31.8129 0.0000 0.0000 -1.7416
# 3 31.8129 31.8129 144.2118 0.0000 0.0000 0.0000
# 4 0.0000 0.0000 0.0000 34.0082 0.0000 0.0000
# 5 0.0000 0.0000 0.0000 0.0000 34.0082 0.0000
# 6 1.7416 -1.7416 0.0000 0.0000 0.0000 25.9650
#
#
#
# Elastic Compliance Matrix: (Units=1/GPa)
#
#
# Indices 1 2 3 4 5 6 
#
# 1 0.014975 -0.001290 -0.003019 0.000000 0.000000 -0.001091
# 2 -0.001290 0.014975 -0.003019 0.000000 0.000000 0.001091
# 3 -0.003019 -0.003019 0.008266 0.000000 0.000000 0.000000
# 4 0.000000 0.000000 0.000000 0.029405 0.000000 0.000000
# 5 0.000000 0.000000 0.000000 0.000000 0.029405 0.000000
# 6 -0.001091 0.001091 0.000000 0.000000 0.000000 0.038660
#
#
# Mechanical properties :
#
#
# Convention : Reuss Voigt Hill
#
# Bulk Modulus (GPa) = 42.44412 49.52024 45.98218
# Shear Modulus (GPa) = 31.60686 33.24397 32.42542
#
# Velocity S-wave (km/s) = 3.56568 3.65685 3.61155
# Velocity P-wave (km/s) = 5.83313 6.14410 5.99063
#
# Compressibility (1/GPa) = 0.02356039
#
# Stress axis : x y z
#
# Youngs Moduli (GPa) = 66.77911 66.77911 120.97527
#
# Poissons Ratio (x) = 0.08614 0.36521
# Poissons Ratio (y) = 0.08614 0.36521
# Poissons Ratio (z) = 0.20160 0.20160
#
# Static dielectric constant tensor:
#      x y z
#    x 1.983120 0.000000 0.000000 
#    y 0.000000 1.983120 0.000000 
#    z 0.000000 0.000000 2.019710 
# 
# From -- ./inp_files/4829.got.cif
#   From: 2010.05.17/outbox.cif.g08.bks.cpg/sg86_3_cif.got.tgz:4829.got - 2010.06.03 19:03:11.
