data_PCOD9545461
_publ_section_title
;
Structure prediction by ZEFSAII (Michael W. Deem and Ramdas Pophale) SiO2 
 PCOD9545461
Probable space group: P 42/N
;
_chemical_formula_sum "Si O2"
_cell_formula_units_Z 14
_cell_length_a 5.226574
_cell_length_b 5.226574
_cell_length_c 21.294292
_cell_angle_alpha 90.000000
_cell_angle_beta 90.000000
_cell_angle_gamma 90.000000
_cell_volume 581.697788
_symmetry_space_group_name_H-M "P 42/N"
_symmetry_group_IT_number 86
_space_group.IT_coordinate_system_code '2'
_symmetry_cell_setting 'tetragonal'
loop_
_space_group_symop_operation_xyz
x,y,z
-y,1/2+x,1/2+z
1/2-x,1/2-y,z
1/2+y,-x,1/2+z
-x,-y,-z
y,1/2-x,1/2-z
1/2+x,1/2+y,-z
1/2-y,x,1/2-z
loop_
_atom_site_type_symbol
_atom_site_label
_atom_site_fract_x
_atom_site_fract_y
_atom_site_fract_z
Si Si1 0.250000 0.750000 0.666967
Si Si2 0.419219 0.997057 0.927272
Si Si3 0.750000 0.750000 0.250000
O O1 0.471555 0.656571 0.619542
O O2 0.190328 0.503838 0.709569
O O3 0.250000 0.250000 0.917893
O O4 0.250000 0.750000 0.914250
O O5 0.500000 0.000000 0.000000
#
# Coordination Sequence:
#
# PCOD9545461 Si02
#       3
#     4   8   2
#     4  12  30  56  80 120 164 222 282 336 416 498
#     4  12  27  48  83 123 163 207 269 348 423 489
#     4  12  32  52  80 112 168 228 276 334 400 508
#
# _framework density 24.067484
#
# number of rings (size 3 to 8) (size 9 to 14) (size 15 to 20)
#    0.000    0.000    5.714    1.714    4.000    5.714 
#    0.000    0.000    0.000    0.000    0.000    0.000 
#    0.000    0.000    0.000    0.000    0.000    0.000 
#
# Total GULP energy -78518.310525 kJ/mol
# GULP energy per Si atom -5608.450752 kJ/mol
# Density = 2.401270 g / cm^3
# Si number density = 24.067484 Si / 1000 Ang^3
#
#
#
# Elastic Constant Matrix: (Units=GPa)
#
#
# Indices 1 2 3 4 5 6 
#
# 1 212.6612 98.7665 89.3418 0.0000 0.0000 -2.4259
# 2 98.7665 212.6612 89.3418 0.0000 0.0000 2.4259
# 3 89.3418 89.3418 188.8552 0.0000 0.0000 0.0000
# 4 0.0000 0.0000 0.0000 23.2172 0.0000 0.0000
# 5 0.0000 0.0000 0.0000 0.0000 23.2172 0.0000
# 6 -2.4259 2.4259 0.0000 0.0000 0.0000 59.4943
#
#
#
# Elastic Compliance Matrix: (Units=1/GPa)
#
#
# Indices 1 2 3 4 5 6 
#
# 1 0.006601 -0.002194 -0.002085 0.000000 0.000000 0.000359
# 2 -0.002194 0.006601 -0.002085 0.000000 0.000000 -0.000359
# 3 -0.002085 -0.002085 0.007268 0.000000 0.000000 0.000000
# 4 0.000000 0.000000 0.000000 0.043072 0.000000 0.000000
# 5 0.000000 0.000000 0.000000 0.000000 0.043072 0.000000
# 6 0.000359 -0.000359 0.000000 0.000000 0.000000 0.016838
#
#
# Mechanical properties :
#
#
# Convention : Reuss Voigt Hill
#
# Bulk Modulus (GPa) = 129.15788 129.89754 129.52771
# Shear Modulus (GPa) = 36.03355 43.63425 39.83390
#
# Velocity S-wave (km/s) = 3.87355 4.26255 4.07270
# Velocity P-wave (km/s) = 8.58995 8.84958 8.72073
#
# Compressibility (1/GPa) = 0.00774246
#
# Stress axis : x y z
#
# Youngs Moduli (GPa) = 151.48549 151.48549 137.59479
#
# Poissons Ratio (x) = 0.33236 0.28688
# Poissons Ratio (y) = 0.33236 0.28688
# Poissons Ratio (z) = 0.31584 0.31584
#
# Static dielectric constant tensor:
#      x y z
#    x 1.916040 0.000000 0.000000 
#    y 0.000000 1.916040 0.000000 
#    z 0.000000 0.000000 1.956000 
# 
# From -- ./inp_files/3117.got.cif
#   From: 2010.05.17/outbox.cif.g08.bks.cpg/sg86_2_cif.got.tgz:3117.got - 2010.06.03 19:03:11.
