data_PCOD9545282
_publ_section_title
;
Structure prediction by ZEFSAII (Michael W. Deem and Ramdas Pophale) SiO2 
 PCOD9545282
Probable space group: P 42/N
;
_chemical_formula_sum "Si O2"
_cell_formula_units_Z 38
_cell_length_a 13.317202
_cell_length_b 13.317202
_cell_length_c 8.903012
_cell_angle_alpha 90.000000
_cell_angle_beta 90.000000
_cell_angle_gamma 90.000000
_cell_volume 1578.930207
_symmetry_space_group_name_H-M "P 42/N"
_symmetry_group_IT_number 86
_space_group.IT_coordinate_system_code '2'
_symmetry_cell_setting 'tetragonal'
loop_
_space_group_symop_operation_xyz
x,y,z
-y,1/2+x,1/2+z
1/2-x,1/2-y,z
1/2+y,-x,1/2+z
-x,-y,-z
y,1/2-x,1/2-z
1/2+x,1/2+y,-z
1/2-y,x,1/2-z
loop_
_atom_site_type_symbol
_atom_site_label
_atom_site_fract_x
_atom_site_fract_y
_atom_site_fract_z
Si Si1 0.602122 0.599676 0.597282
Si Si2 0.750000 0.250000 0.664621
Si Si3 0.215425 0.606499 0.083770
Si Si4 0.056983 0.944085 0.135653
Si Si5 0.345501 0.125656 0.776752
Si Si6 0.750000 0.750000 0.750000
O O1 0.500599 0.665031 0.591465
O O2 0.582165 0.514259 0.720172
O O3 0.624188 0.581235 0.421485
O O4 0.695393 0.665484 0.653063
O O5 0.808174 0.327303 0.770628
O O6 0.672272 0.310196 0.561299
O O7 0.336238 0.596341 0.080993
O O8 0.976719 0.862361 0.189053
O O9 0.000000 0.000000 0.000000
O O10 0.227041 0.132541 0.817307
#
# Coordination Sequence:
#
# PCOD9545282 Si02
#       6
#     8   4   8   8   8   2
#     4  12  25  44  71 100 137 182 230 288 349 418
#     4  10  24  42  68  92 136 178 218 282 340 414
#     4  11  23  44  65  99 132 177 227 277 345 407
#     4  12  26  42  70 103 135 179 234 286 345 420
#     4  11  26  46  70 101 141 183 230 288 353 418
#     4  12  24  44  74  96 136 180 234 280 352 416
#
# _framework density 24.066927
#
# number of rings (size 3 to 8) (size 9 to 14) (size 15 to 20)
#    0.000    0.632    2.105    5.684    2.947    5.053 
#    0.000    0.000    0.000    0.000    0.000    0.000 
#    0.000    0.000    0.000    0.000    0.000    0.000 
#
# Total GULP energy -212864.233705 kJ/mol
# GULP energy per Si atom -5601.690361 kJ/mol
# Density = 2.401215 g / cm^3
# Si number density = 24.066927 Si / 1000 Ang^3
#
#
#
# Elastic Constant Matrix: (Units=GPa)
#
#
# Indices 1 2 3 4 5 6 
#
# 1 78.0840 9.0111 10.7489 0.0000 0.0000 -3.2310
# 2 9.0111 78.0840 10.7489 0.0000 0.0000 3.2310
# 3 10.7489 10.7489 106.3267 0.0000 0.0000 0.0000
# 4 0.0000 0.0000 0.0000 25.8690 0.0000 0.0000
# 5 0.0000 0.0000 0.0000 0.0000 25.8690 0.0000
# 6 -3.2310 3.2310 0.0000 0.0000 0.0000 46.0197
#
#
#
# Elastic Compliance Matrix: (Units=1/GPa)
#
#
# Indices 1 2 3 4 5 6 
#
# 1 0.013174 -0.001399 -0.001190 0.000000 0.000000 0.001023
# 2 -0.001399 0.013174 -0.001190 0.000000 0.000000 -0.001023
# 3 -0.001190 -0.001190 0.009646 0.000000 0.000000 0.000000
# 4 0.000000 0.000000 0.000000 0.038656 0.000000 0.000000
# 5 0.000000 0.000000 0.000000 0.000000 0.038656 0.000000
# 6 0.001023 -0.001023 0.000000 0.000000 0.000000 0.021873
#
#
# Mechanical properties :
#
#
# Convention : Reuss Voigt Hill
#
# Bulk Modulus (GPa) = 35.16790 35.94585 35.55688
# Shear Modulus (GPa) = 32.84758 35.01725 33.93241
#
# Velocity S-wave (km/s) = 3.69839 3.81858 3.75896
# Velocity P-wave (km/s) = 5.73425 5.86603 5.80051
#
# Compressibility (1/GPa) = 0.02843502
#
# Stress axis : x y z
#
# Youngs Moduli (GPa) = 75.90504 75.90504 103.67350
#
# Poissons Ratio (x) = 0.10618 0.12342
# Poissons Ratio (y) = 0.10618 0.12342
# Poissons Ratio (z) = 0.09036 0.09036
#
# Static dielectric constant tensor:
#      x y z
#    x 1.897400 0.000000 0.000000 
#    y 0.000000 1.897400 0.000000 
#    z 0.000000 0.000000 1.948840 
# 
# From -- ./inp_files/1068.got.cif
#   From: 2010.05.17/outbox.cif.g08.bks.cpg/sg86_1_cif.got.tgz:1068.got - 2010.06.03 19:03:11.
