data_PCOD9545733
_publ_section_title
;
Structure prediction by ZEFSAII (Michael W. Deem and Ramdas Pophale) SiO2 
 PCOD9545733
Probable space group: I 4/M
;
_chemical_formula_sum "Si O2"
_cell_formula_units_Z 112
_cell_length_a 16.009054
_cell_length_b 16.009054
_cell_length_c 26.433472
_cell_angle_alpha 90.000000
_cell_angle_beta 90.000000
_cell_angle_gamma 90.000000
_cell_volume 6774.629516
_symmetry_space_group_name_H-M "I 4/M"
_symmetry_group_IT_number 87
_symmetry_cell_setting 'tetragonal'
loop_
_space_group_symop_operation_xyz
x,y,z
-y,x,z
-x,-y,z
y,-x,z
-x,-y,-z
y,-x,-z
x,y,-z
-y,x,-z
1/2+x,1/2+y,1/2+z
1/2-y,1/2+x,1/2+z
1/2-x,1/2-y,1/2+z
1/2+y,1/2-x,1/2+z
1/2-x,1/2-y,1/2-z
1/2+y,1/2-x,1/2-z
1/2+x,1/2+y,1/2-z
1/2-y,1/2+x,1/2-z
loop_
_atom_site_type_symbol
_atom_site_label
_atom_site_fract_x
_atom_site_fract_y
_atom_site_fract_z
Si Si1 0.200356 0.214704 0.865902
Si Si2 0.893064 0.090853 0.941957
Si Si3 0.091914 0.502465 0.869761
Si Si4 0.342230 0.908053 0.798894
Si Si5 0.186347 0.825018 0.559839
Si Si6 0.752016 0.509382 0.940840
Si Si7 0.169627 0.396856 0.306216
O O1 0.139196 0.161800 0.901685
O O2 0.146329 0.279947 0.833202
O O3 0.264576 0.262722 0.903017
O O4 0.252745 0.153071 0.829511
O O5 0.990853 0.113344 0.936050
O O6 0.868988 0.111300 0.000000
O O7 0.090226 0.433393 0.825426
O O8 0.165367 0.481166 0.907804
O O9 0.105811 0.593725 0.846381
O O10 0.000000 0.500000 0.894181
O O11 0.354088 0.865117 0.744623
O O12 0.313383 0.004820 0.795719
O O13 0.204758 0.808574 0.500000
O O14 0.088413 0.807504 0.567803
O O15 0.209375 0.920826 0.570523
O O16 0.774446 0.509102 0.000000
#
# Coordination Sequence:
#
# PCOD9545733 Si02
#       7
#    16  16  16  16  16  16  16
#     4  12  21  34  57  86 110 136 187 231 276 316
#     4   9  19  37  58  80 113 153 185 221 272 329
#     4  10  20  35  57  81 110 150 183 220 277 333
#     4  11  22  37  57  80 110 146 184 225 273 329
#     4  10  21  35  55  78 109 142 178 228 277 326
#     4  10  20  38  56  80 111 145 182 228 279 334
#     4  11  22  37  57  80 110 146 184 225 273 329
#
# _framework density 16.53227
#
# number of rings (size 3 to 8) (size 9 to 14) (size 15 to 20)
#    0.000    1.571    4.286    2.143    0.000    0.571 
#    0.000    1.429    0.000    0.000    0.000    0.000 
#    0.000    0.000    0.000    0.000    0.000    0.000 
#
# Total GULP energy -312519.697451 kJ/mol
# GULP energy per Si atom -5580.708883 kJ/mol
# Density = 1.649464 g / cm^3
# Si number density = 16.532270 Si / 1000 Ang^3
#
#
#
# Elastic Constant Matrix: (Units=GPa)
#
#
# Indices 1 2 3 4 5 6 
#
# 1 55.8619 31.0071 30.6924 0.0000 0.0000 -0.0784
# 2 31.0071 55.8619 30.6924 0.0000 0.0000 0.0784
# 3 30.6924 30.6924 55.4156 0.0000 0.0000 0.0000
# 4 0.0000 0.0000 0.0000 30.8260 0.0000 0.0000
# 5 0.0000 0.0000 0.0000 0.0000 30.8260 0.0000
# 6 -0.0784 0.0784 0.0000 0.0000 0.0000 28.5061
#
#
#
# Elastic Compliance Matrix: (Units=1/GPa)
#
#
# Indices 1 2 3 4 5 6 
#
# 1 0.029574 -0.010660 -0.010476 0.000000 0.000000 0.000111
# 2 -0.010660 0.029574 -0.010476 0.000000 0.000000 -0.000111
# 3 -0.010476 -0.010476 0.029650 0.000000 0.000000 0.000000
# 4 0.000000 0.000000 0.000000 0.032440 0.000000 0.000000
# 5 0.000000 0.000000 0.000000 0.000000 0.032440 0.000000
# 6 0.000111 -0.000111 0.000000 0.000000 0.000000 0.035081
#
#
# Mechanical properties :
#
#
# Convention : Reuss Voigt Hill
#
# Bulk Modulus (GPa) = 39.10087 39.10259 39.10173
# Shear Modulus (GPa) = 19.19329 23.01478 21.10404
#
# Velocity S-wave (km/s) = 3.41098 3.73515 3.57674
# Velocity P-wave (km/s) = 6.26224 6.50426 6.38440
#
# Compressibility (1/GPa) = 0.02557488
#
# Stress axis : x y z
#
# Youngs Moduli (GPa) = 33.81319 33.81319 33.72714
#
# Poissons Ratio (x) = 0.36045 0.35332
# Poissons Ratio (y) = 0.36045 0.35332
# Poissons Ratio (z) = 0.35422 0.35422
#
# Static dielectric constant tensor:
#      x y z
#    x 1.536880 0.000000 0.000000 
#    y 0.000000 1.536880 0.000000 
#    z 0.000000 0.000000 1.536050 
# 
# From -- ./inp_files/5907.got.cif
#   From: 2010.05.17/outbox.cif.g08.bks.cpg/sg87_3_cif.got.tgz:5907.got - 2010.06.03 19:07:00.
