data_PCOD9545755
_publ_section_title
;
Structure prediction by ZEFSAII (Michael W. Deem and Ramdas Pophale) SiO2 
 PCOD9545755
Probable space group: I 4/M
;
_chemical_formula_sum "Si O2"
_cell_formula_units_Z 96
_cell_length_a 23.119676
_cell_length_b 23.119676
_cell_length_c 9.585542
_cell_angle_alpha 90.000000
_cell_angle_beta 90.000000
_cell_angle_gamma 90.000000
_cell_volume 5123.658334
_symmetry_space_group_name_H-M "I 4/M"
_symmetry_group_IT_number 87
_symmetry_cell_setting 'tetragonal'
loop_
_space_group_symop_operation_xyz
x,y,z
-y,x,z
-x,-y,z
y,-x,z
-x,-y,-z
y,-x,-z
x,y,-z
-y,x,-z
1/2+x,1/2+y,1/2+z
1/2-y,1/2+x,1/2+z
1/2-x,1/2-y,1/2+z
1/2+y,1/2-x,1/2+z
1/2-x,1/2-y,1/2-z
1/2+y,1/2-x,1/2-z
1/2+x,1/2+y,1/2-z
1/2-y,1/2+x,1/2-z
loop_
_atom_site_type_symbol
_atom_site_label
_atom_site_fract_x
_atom_site_fract_y
_atom_site_fract_z
Si Si1 0.394915 0.769254 0.167966
Si Si2 0.165490 0.164087 0.835605
Si Si3 0.592232 0.526239 0.500000
Si Si4 0.482639 0.403399 0.000000
Si Si5 0.510144 0.791318 0.337127
Si Si6 0.636830 0.795130 0.667198
Si Si7 0.158098 0.967026 0.213194
O O1 0.372646 0.710180 0.242457
O O2 0.453332 0.794096 0.240313
O O3 0.343768 0.815540 0.192695
O O4 0.402630 0.761284 0.000000
O O5 0.159796 0.231665 0.785377
O O6 0.098953 0.143267 0.827506
O O7 0.182905 0.162050 0.000000
O O8 0.538251 0.565834 0.500000
O O9 0.629799 0.521629 0.635839
O O10 0.544627 0.435669 0.000000
O O11 0.474365 0.362313 0.869130
O O12 0.498642 0.807342 0.500000
O O13 0.572512 0.815942 0.285535
O O14 0.526483 0.723940 0.328668
O O15 0.630374 0.788251 0.500000
#
# Coordination Sequence:
#
# PCOD9545755 Si02
#       7
#    16  16   8   8  16  16  16
#     4  11  23  35  59  90 115 145 182 231 286 338
#     4  10  20  36  58  83 112 155 192 227 274 332
#     4  11  22  34  50  72  99 147 197 236 271 315
#     4  11  26  40  50  70 109 155 189 240 295 329
#     4  10  21  39  61  83 110 149 187 227 276 338
#     4   8  18  40  58  81 118 151 186 229 278 329
#     4  11  22  36  56  75 107 142 192 242 277 318
#
# _framework density 18.736611
#
# number of rings (size 3 to 8) (size 9 to 14) (size 15 to 20)
#    0.000    1.833    1.667    3.000    7.000    1.333 
#    0.000    2.500    0.000    0.500    0.000    3.500 
#    0.000    0.000    0.000    0.000    0.000    0.000 
#
# Total GULP energy -267314.811559 kJ/mol
# GULP energy per Si atom -5569.058574 kJ/mol
# Density = 1.869397 g / cm^3
# Si number density = 18.736611 Si / 1000 Ang^3
#
#
#
# Elastic Constant Matrix: (Units=GPa)
#
#
# Indices 1 2 3 4 5 6 
#
# 1 72.9276 12.9003 24.3398 0.0000 0.0000 -0.2478
# 2 12.9003 72.9276 24.3398 0.0000 0.0000 0.2478
# 3 24.3398 24.3398 94.4353 0.0000 0.0000 0.0000
# 4 0.0000 0.0000 0.0000 17.1945 0.0000 0.0000
# 5 0.0000 0.0000 0.0000 0.0000 17.1945 0.0000
# 6 -0.2478 0.2478 0.0000 0.0000 0.0000 9.7235
#
#
#
# Elastic Compliance Matrix: (Units=1/GPa)
#
#
# Indices 1 2 3 4 5 6 
#
# 1 0.015154 -0.001508 -0.003517 0.000000 0.000000 0.000425
# 2 -0.001508 0.015154 -0.003517 0.000000 0.000000 -0.000425
# 3 -0.003517 -0.003517 0.012402 0.000000 0.000000 0.000000
# 4 0.000000 0.000000 0.000000 0.058158 0.000000 0.000000
# 5 0.000000 0.000000 0.000000 0.000000 0.058158 0.000000
# 6 0.000425 -0.000425 0.000000 0.000000 0.000000 0.102865
#
#
# Mechanical properties :
#
#
# Convention : Reuss Voigt Hill
#
# Bulk Modulus (GPa) = 39.02309 40.38335 39.70322
# Shear Modulus (GPa) = 17.39016 20.73656 19.06336
#
# Velocity S-wave (km/s) = 3.04984 3.33038 3.19319
# Velocity P-wave (km/s) = 5.76840 6.03229 5.90182
#
# Compressibility (1/GPa) = 0.02562585
#
# Stress axis : x y z
#
# Youngs Moduli (GPa) = 65.98774 65.98774 80.63035
#
# Poissons Ratio (x) = 0.09953 0.28359
# Poissons Ratio (y) = 0.09953 0.28359
# Poissons Ratio (z) = 0.23209 0.23209
#
# Static dielectric constant tensor:
#      x y z
#    x 1.693390 0.000000 0.000000 
#    y 0.000000 1.693390 0.000000 
#    z 0.000000 0.000000 1.624110 
# 
# From -- ./inp_files/1458.got.cif
#   From: 2010.05.17/outbox.cif.g08.bks.cpg/sg87_1_cif.got.tgz:1458.got - 2010.06.03 19:07:00.
