data_PCOD9545653
_publ_section_title
;
Structure prediction by ZEFSAII (Michael W. Deem and Ramdas Pophale) SiO2 
 PCOD9545653
Probable space group: I 4/M
;
_chemical_formula_sum "Si O2"
_cell_formula_units_Z 96
_cell_length_a 24.002687
_cell_length_b 24.002687
_cell_length_c 8.327048
_cell_angle_alpha 90.000000
_cell_angle_beta 90.000000
_cell_angle_gamma 90.000000
_cell_volume 4797.453697
_symmetry_space_group_name_H-M "I 4/M"
_symmetry_group_IT_number 87
_symmetry_cell_setting 'tetragonal'
loop_
_space_group_symop_operation_xyz
x,y,z
-y,x,z
-x,-y,z
y,-x,z
-x,-y,-z
y,-x,-z
x,y,-z
-y,x,-z
1/2+x,1/2+y,1/2+z
1/2-y,1/2+x,1/2+z
1/2-x,1/2-y,1/2+z
1/2+y,1/2-x,1/2+z
1/2-x,1/2-y,1/2-z
1/2+y,1/2-x,1/2-z
1/2+x,1/2+y,1/2-z
1/2-y,1/2+x,1/2-z
loop_
_atom_site_type_symbol
_atom_site_label
_atom_site_fract_x
_atom_site_fract_y
_atom_site_fract_z
Si Si1 0.606036 0.627689 0.500000
Si Si2 0.198511 0.286521 0.683913
Si Si3 0.182019 0.878670 0.674992
Si Si4 0.114695 0.623246 0.807242
Si Si5 0.215629 0.005561 0.673861
Si Si6 0.165596 0.509306 0.688487
Si Si7 0.022381 0.837436 0.000000
O O1 0.635160 0.649939 0.338151
O O2 0.608815 0.561317 0.500000
O O3 0.542886 0.649150 0.500000
O O4 0.213705 0.298512 0.500000
O O5 0.250000 0.250000 0.750000
O O6 0.146564 0.243790 0.689495
O O7 0.173721 0.344579 0.752803
O O8 0.160117 0.859394 0.500000
O O9 0.185491 0.945500 0.669625
O O10 0.131487 0.564814 0.728412
O O11 0.049510 0.635150 0.783098
O O12 0.124252 0.619046 0.000000
O O13 0.206498 0.032868 0.500000
O O14 0.280031 0.992128 0.701454
O O15 0.195433 0.035271 0.835810
O O16 0.182116 0.511232 0.500000
#
# Coordination Sequence:
#
# PCOD9545653 Si02
#       7
#     8  16  16  16  16  16   8
#     4  10  22  37  62  84 124 153 198 257 292 367
#     4  10  21  37  57  84 117 152 193 245 312 370
#     4   9  19  36  59  85 111 159 200 237 305 366
#     4  10  23  41  60  85 123 164 201 256 312 360
#     4  10  19  37  64  84 118 160 206 255 300 366
#     4  11  22  38  62  90 120 160 212 256 307 371
#     4  10  22  39  58  96 116 162 209 242 317 364
#
# _framework density 20.010614
#
# number of rings (size 3 to 8) (size 9 to 14) (size 15 to 20)
#    0.000    2.000    2.500    0.500    1.167    4.500 
#    0.000    3.333    0.000    0.000    0.000    4.667 
#    0.000    0.000    0.000    0.000    0.000    0.000 
#
# Total GULP energy -267441.892168 kJ/mol
# GULP energy per Si atom -5571.706087 kJ/mol
# Density = 1.996507 g / cm^3
# Si number density = 20.010614 Si / 1000 Ang^3
#
#
#
# Elastic Constant Matrix: (Units=GPa)
#
#
# Indices 1 2 3 4 5 6 
#
# 1 37.3857 50.1293 33.2424 0.0000 0.0000 20.4524
# 2 50.1293 37.3857 33.2424 0.0000 0.0000 -20.4524
# 3 33.2424 33.2424 133.3436 0.0000 0.0000 0.0000
# 4 0.0000 0.0000 0.0000 -37.9699 0.0000 0.0000
# 5 0.0000 0.0000 0.0000 0.0000 -37.9699 0.0000
# 6 20.4524 -20.4524 0.0000 0.0000 0.0000 -3.9263
#
#
#
# Elastic Compliance Matrix: (Units=1/GPa)
#
#
# Indices 1 2 3 4 5 6 
#
# 1 0.009544 0.004552 -0.003514 0.000000 0.000000 0.026002
# 2 0.004552 0.009544 -0.003514 0.000000 0.000000 -0.026002
# 3 -0.003514 -0.003514 0.009252 0.000000 0.000000 0.000000
# 4 0.000000 0.000000 0.000000 -0.026337 0.000000 0.000000
# 5 0.000000 0.000000 0.000000 0.000000 -0.026337 0.000000
# 6 0.026002 -0.026002 0.000000 0.000000 0.000000 0.016202
#
#
# Mechanical properties :
#
#
# Convention : Reuss Voigt Hill
#
# Bulk Modulus (GPa) = 42.75795 49.03813 45.89804
# Shear Modulus (GPa) = 1083.20586 -9.87315 536.66635
#
# Velocity S-wave (km/s) = 23.29143 -2.22366 16.39430
# Velocity P-wave (km/s) = 27.28984 4.23868 19.52820
#
# Compressibility (1/GPa) = 0.02338746
#
# Stress axis : x y z
#
# Youngs Moduli (GPa) = 104.77734 104.77734 108.08950
#
# Poissons Ratio (x) = -0.47698 0.37985
# Poissons Ratio (y) = -0.47698 0.37985
# Poissons Ratio (z) = 0.36821 0.36821
#
# Static dielectric constant tensor:
#      x y z
#    x 1.702710 0.000000 0.000000 
#    y 0.000000 1.702710 0.000000 
#    z 0.000000 0.000000 1.764800 
# 
# From -- ./inp_files/1512.got.cif
#   From: 2010.05.17/outbox.cif.g08.bks.cpg/sg87_1_cif.got.tgz:1512.got - 2010.06.03 19:07:00.
