data_PCOD9545812
_publ_section_title
;
Structure prediction by ZEFSAII (Michael W. Deem and Ramdas Pophale) SiO2 
 PCOD9545812
Probable space group: I 4/M
;
_chemical_formula_sum "Si O2"
_cell_formula_units_Z 120
_cell_length_a 15.631825
_cell_length_b 15.631825
_cell_length_c 29.220204
_cell_angle_alpha 90.000000
_cell_angle_beta 90.000000
_cell_angle_gamma 90.000000
_cell_volume 7140.072350
_symmetry_space_group_name_H-M "I 4/M"
_symmetry_group_IT_number 87
_symmetry_cell_setting 'tetragonal'
loop_
_space_group_symop_operation_xyz
x,y,z
-y,x,z
-x,-y,z
y,-x,z
-x,-y,-z
y,-x,-z
x,y,-z
-y,x,-z
1/2+x,1/2+y,1/2+z
1/2-y,1/2+x,1/2+z
1/2-x,1/2-y,1/2+z
1/2+y,1/2-x,1/2+z
1/2-x,1/2-y,1/2-z
1/2+y,1/2-x,1/2-z
1/2+x,1/2+y,1/2-z
1/2-y,1/2+x,1/2-z
loop_
_atom_site_type_symbol
_atom_site_label
_atom_site_fract_x
_atom_site_fract_y
_atom_site_fract_z
Si Si1 0.867807 0.707946 0.104342
Si Si2 0.627297 0.065295 0.699605
Si Si3 0.689434 0.636653 0.905509
Si Si4 0.036926 0.255426 0.381049
Si Si5 0.869908 0.058933 0.053699
Si Si6 0.130052 0.064780 0.500000
Si Si7 0.059340 0.369960 0.804562
Si Si8 0.403543 0.031078 0.445592
O O1 0.765203 0.705046 0.099512
O O2 0.907205 0.794605 0.085309
O O3 0.898420 0.685633 0.155668
O O4 0.896782 0.627640 0.072971
O O5 0.702075 0.077036 0.663719
O O6 0.655922 0.076358 0.752059
O O7 0.543253 0.122044 0.689970
O O8 0.595636 0.967013 0.692816
O O9 0.599674 0.681324 0.897092
O O10 0.715567 0.557212 0.873268
O O11 0.682274 0.594094 0.955601
O O12 0.022474 0.332245 0.417675
O O13 0.958911 0.109137 0.061213
O O14 0.846891 0.069445 0.000000
O O15 0.036640 0.110538 0.500000
O O16 0.388812 0.025965 0.500000
O O17 0.500000 0.000000 0.435830
#
# Coordination Sequence:
#
# PCOD9545812 Si02
#       8
#    16  16  16  16  16   8  16  16
#     4  11  21  33  56  85 112 132 186 232 279 324
#     4   9  17  34  59  81 109 142 177 219 280 338
#     4  11  24  34  55  79 115 147 188 228 274 308
#     4  11  22  37  53  77 113 148 187 228 267 323
#     4   9  20  39  58  76 106 149 189 224 267 329
#     4  11  22  38  56  76 106 163 206 220 252 325
#     4   9  17  32  60  87 104 140 176 221 281 339
#     4  10  21  34  51  78 116 148 170 220 292 341
#
# _framework density 16.806550999999999
#
# number of rings (size 3 to 8) (size 9 to 14) (size 15 to 20)
#    0.000    1.933    4.000    2.400    5.600    2.400 
#    0.000    2.000    2.933    0.000    0.000    0.000 
#    0.000    0.000    0.000    0.000    0.000    0.000 
#
# Total GULP energy -334660.094130 kJ/mol
# GULP energy per Si atom -5577.668236 kJ/mol
# Density = 1.676830 g / cm^3
# Si number density = 16.806551 Si / 1000 Ang^3
#
#
#
# Elastic Constant Matrix: (Units=GPa)
#
#
# Indices 1 2 3 4 5 6 
#
# 1 62.1586 24.2554 31.9678 0.0000 0.0000 -9.7942
# 2 24.2554 62.1586 31.9678 0.0000 0.0000 9.7942
# 3 31.9678 31.9678 77.8507 0.0000 0.0000 0.0000
# 4 0.0000 0.0000 0.0000 20.6273 0.0000 0.0000
# 5 0.0000 0.0000 0.0000 0.0000 20.6273 0.0000
# 6 -9.7942 9.7942 0.0000 0.0000 0.0000 23.3546
#
#
#
# Elastic Compliance Matrix: (Units=1/GPa)
#
#
# Indices 1 2 3 4 5 6 
#
# 1 0.025153 -0.008530 -0.006826 0.000000 0.000000 0.014126
# 2 -0.008530 0.025153 -0.006826 0.000000 0.000000 -0.014126
# 3 -0.006826 -0.006826 0.018451 0.000000 0.000000 0.000000
# 4 0.000000 0.000000 0.000000 0.048480 0.000000 0.000000
# 5 0.000000 0.000000 0.000000 0.000000 0.048480 0.000000
# 6 0.014126 -0.014126 0.000000 0.000000 0.000000 0.054666
#
#
# Mechanical properties :
#
#
# Convention : Reuss Voigt Hill
#
# Bulk Modulus (GPa) = 40.99561 42.06111 41.52836
# Shear Modulus (GPa) = 18.32340 20.52028 19.42184
#
# Velocity S-wave (km/s) = 3.30548 3.49803 3.40312
# Velocity P-wave (km/s) = 6.24611 6.43396 6.34073
#
# Compressibility (1/GPa) = 0.02439285
#
# Stress axis : x y z
#
# Youngs Moduli (GPa) = 39.75715 39.75715 54.19845
#
# Poissons Ratio (x) = 0.33914 0.36994
# Poissons Ratio (y) = 0.33914 0.36994
# Poissons Ratio (z) = 0.27137 0.27137
#
# Static dielectric constant tensor:
#      x y z
#    x 1.563300 0.000000 0.000000 
#    y 0.000000 1.563300 0.000000 
#    z 0.000000 0.000000 1.573770 
# 
# From -- ./inp_files/6745.got.cif
#   From: 2010.05.17/outbox.cif.g08.bks.cpg/sg87_4_cif.got.tgz:6745.got - 2010.06.03 19:07:00.
