data_PCOD9545660
_publ_section_title
;
Structure prediction by ZEFSAII (Michael W. Deem and Ramdas Pophale) SiO2 
 PCOD9545660
Probable space group: I 4/M
;
_chemical_formula_sum "Si O2"
_cell_formula_units_Z 120
_cell_length_a 26.222275
_cell_length_b 26.222275
_cell_length_c 9.751623
_cell_angle_alpha 90.000000
_cell_angle_beta 90.000000
_cell_angle_gamma 90.000000
_cell_volume 6705.291123
_symmetry_space_group_name_H-M "I 4/M"
_symmetry_group_IT_number 87
_symmetry_cell_setting 'tetragonal'
loop_
_space_group_symop_operation_xyz
x,y,z
-y,x,z
-x,-y,z
y,-x,z
-x,-y,-z
y,-x,-z
x,y,-z
-y,x,-z
1/2+x,1/2+y,1/2+z
1/2-y,1/2+x,1/2+z
1/2-x,1/2-y,1/2+z
1/2+y,1/2-x,1/2+z
1/2-x,1/2-y,1/2-z
1/2+y,1/2-x,1/2-z
1/2+x,1/2+y,1/2-z
1/2-y,1/2+x,1/2-z
loop_
_atom_site_type_symbol
_atom_site_label
_atom_site_fract_x
_atom_site_fract_y
_atom_site_fract_z
Si Si1 0.454416 0.266029 0.655701
Si Si2 0.694321 0.370201 0.842680
Si Si3 0.217446 0.459734 0.839947
Si Si4 0.845739 0.403110 0.652503
Si Si5 0.264684 0.347335 0.841878
Si Si6 0.447655 0.962022 0.500000
Si Si7 0.818931 0.693532 0.657953
Si Si8 0.508395 0.105895 0.745791
O O1 0.466491 0.281892 0.500000
O O2 0.416474 0.303558 0.736597
O O3 0.503076 0.252141 0.747888
O O4 0.424419 0.212053 0.645732
O O5 0.654771 0.324885 0.812309
O O6 0.749642 0.342107 0.837348
O O7 0.687568 0.387981 0.000000
O O8 0.240428 0.403286 0.831367
O O9 0.159301 0.464785 0.787137
O O10 0.217783 0.476232 0.000000
O O11 0.860324 0.384725 0.500000
O O12 0.843132 0.358982 0.764647
O O13 0.878508 0.451066 0.699575
O O14 0.233410 0.311598 0.739770
O O15 0.258469 0.329651 0.000000
O O16 0.465386 0.922008 0.620141
O O17 0.429255 0.002454 0.379419
O O18 0.813095 0.678780 0.500000
#
# Coordination Sequence:
#
# PCOD9545660 Si02
#       8
#    16  16  16  16  16   8  16  16
#     4   9  18  32  56  77 108 140 179 219 262 323
#     4   9  18  34  52  77 108 147 182 219 268 329
#     4  10  21  39  57  84 110 145 184 231 285 339
#     4   9  18  35  53  75  97 130 171 216 274 335
#     4  10  21  34  52  77 112 143 178 221 270 326
#     4  12  28  47  64  76 100 132 186 246 316 362
#     4  10  20  30  51  78 107 140 177 217 270 336
#     4  11  25  42  63  80 100 135 182 246 301 360
#
# _framework density 17.896314
#
# number of rings (size 3 to 8) (size 9 to 14) (size 15 to 20)
#    0.000    2.133    1.333    1.200    3.733    4.533 
#    0.000    0.000    0.000    0.000    0.000    0.000 
#    0.000    0.533    0.000    6.133    0.000    2.400 
#
# Total GULP energy -334006.964249 kJ/mol
# GULP energy per Si atom -5566.782737 kJ/mol
# Density = 1.785558 g / cm^3
# Si number density = 17.896314 Si / 1000 Ang^3
#
#
#
# Elastic Constant Matrix: (Units=GPa)
#
#
# Indices 1 2 3 4 5 6 
#
# 1 54.4397 25.2334 44.1136 0.0000 0.0000 -5.8947
# 2 25.2334 54.4397 44.1136 0.0000 0.0000 5.8947
# 3 44.1136 44.1136 152.0496 0.0000 0.0000 0.0000
# 4 0.0000 0.0000 0.0000 12.6028 0.0000 0.0000
# 5 0.0000 0.0000 0.0000 0.0000 12.6028 0.0000
# 6 -5.8947 5.8947 0.0000 0.0000 0.0000 28.8454
#
#
#
# Elastic Compliance Matrix: (Units=1/GPa)
#
#
# Indices 1 2 3 4 5 6 
#
# 1 0.027905 -0.009413 -0.005365 0.000000 0.000000 0.007626
# 2 -0.009413 0.027905 -0.005365 0.000000 0.000000 -0.007626
# 3 -0.005365 -0.005365 0.009690 0.000000 0.000000 0.000000
# 4 0.000000 0.000000 0.000000 0.079347 0.000000 0.000000
# 5 0.000000 0.000000 0.000000 0.000000 0.079347 0.000000
# 6 0.007626 -0.007626 0.000000 0.000000 0.000000 0.037784
#
#
# Mechanical properties :
#
#
# Convention : Reuss Voigt Hill
#
# Bulk Modulus (GPa) = 39.66006 54.20556 46.93281
# Shear Modulus (GPa) = 16.09427 20.64143 18.36785
#
# Velocity S-wave (km/s) = 3.00210 3.39984 3.20714
# Velocity P-wave (km/s) = 5.85029 6.76508 6.32425
#
# Compressibility (1/GPa) = 0.02521428
#
# Stress axis : x y z
#
# Youngs Moduli (GPa) = 35.83589 35.83589 103.19983
#
# Poissons Ratio (x) = 0.33731 0.55368
# Poissons Ratio (y) = 0.33731 0.55368
# Poissons Ratio (z) = 0.19226 0.19226
#
# Static dielectric constant tensor:
#      x y z
#    x 1.627690 0.000000 0.000000 
#    y 0.000000 1.627690 0.000000 
#    z 0.000000 0.000000 1.613030 
# 
# From -- ./inp_files/1667.got.cif
#   From: 2010.05.17/outbox.cif.g08.bks.cpg/sg87_1_cif.got.tgz:1667.got - 2010.06.03 19:07:00.
