data_PCOD9545509
_publ_section_title
;
Structure prediction by ZEFSAII (Michael W. Deem and Ramdas Pophale) SiO2 
 PCOD9545509
Probable space group: I 4/M
;
_chemical_formula_sum "Si O2"
_cell_formula_units_Z 88
_cell_length_a 13.392359
_cell_length_b 13.392359
_cell_length_c 22.415989
_cell_angle_alpha 90.000000
_cell_angle_beta 90.000000
_cell_angle_gamma 90.000000
_cell_volume 4020.425974
_symmetry_space_group_name_H-M "I 4/M"
_symmetry_group_IT_number 87
_symmetry_cell_setting 'tetragonal'
loop_
_space_group_symop_operation_xyz
x,y,z
-y,x,z
-x,-y,z
y,-x,z
-x,-y,-z
y,-x,-z
x,y,-z
-y,x,-z
1/2+x,1/2+y,1/2+z
1/2-y,1/2+x,1/2+z
1/2-x,1/2-y,1/2+z
1/2+y,1/2-x,1/2+z
1/2-x,1/2-y,1/2-z
1/2+y,1/2-x,1/2-z
1/2+x,1/2+y,1/2-z
1/2-y,1/2+x,1/2-z
loop_
_atom_site_type_symbol
_atom_site_label
_atom_site_fract_x
_atom_site_fract_y
_atom_site_fract_z
Si Si1 0.966938 0.726516 0.623063
Si Si2 0.691884 0.155134 0.872935
Si Si3 0.112178 0.462121 0.564202
Si Si4 0.613383 0.618551 0.571525
Si Si5 0.156510 0.564199 0.247830
Si Si6 0.657666 0.447909 0.000000
O O1 0.088837 0.717740 0.621257
O O2 0.935794 0.788795 0.564391
O O3 0.908396 0.623767 0.610623
O O4 0.939814 0.735774 0.693140
O O5 0.800108 0.185469 0.897805
O O6 0.701307 0.118546 0.805304
O O7 0.668743 0.058029 0.912966
O O8 0.151711 0.427181 0.500000
O O9 0.000000 0.500000 0.555744
O O10 0.496371 0.634557 0.587838
O O11 0.619266 0.627951 0.500000
O O12 0.121792 0.449910 0.262084
O O13 0.622268 0.562210 0.000000
#
# Coordination Sequence:
#
# PCOD9545509 Si02
#       6
#    16  16  16  16  16   8
#     4  10  19  35  57  84 111 141 193 237 287 346
#     4  10  18  30  55  87 119 145 178 226 282 338
#     4   9  15  25  47  80 115 141 166 223 284 332
#     4   9  19  36  52  72 111 155 183 212 269 342
#     4   9  16  30  53  86 124 154 172 222 304 357
#     4  11  26  48  63  74 108 159 204 251 297 329
#
# _framework density 21.888228000000002
#
# number of rings (size 3 to 8) (size 9 to 14) (size 15 to 20)
#    0.000    2.455    2.727    1.091    2.545    0.000 
#    3.273    1.818    0.000    6.545    0.000    0.000 
#    0.000    0.000    0.000    0.000    0.000    0.000 
#
# Total GULP energy -244949.261339 kJ/mol
# GULP energy per Si atom -5567.028667 kJ/mol
# Density = 2.183841 g / cm^3
# Si number density = 21.888228 Si / 1000 Ang^3
#
#
#
# Elastic Constant Matrix: (Units=GPa)
#
#
# Indices 1 2 3 4 5 6 
#
# 1 46.6388 -16.2418 6.5535 0.0000 0.0000 -10.5128
# 2 -16.2418 46.6388 6.5535 0.0000 0.0000 10.5128
# 3 6.5535 6.5535 110.2895 0.0000 0.0000 0.0000
# 4 0.0000 0.0000 0.0000 5.6376 0.0000 0.0000
# 5 0.0000 0.0000 0.0000 0.0000 5.6376 0.0000
# 6 -10.5128 10.5128 0.0000 0.0000 0.0000 23.9050
#
#
#
# Elastic Compliance Matrix: (Units=1/GPa)
#
#
# Indices 1 2 3 4 5 6 
#
# 1 0.026204 0.007559 -0.002006 0.000000 0.000000 0.008200
# 2 0.007559 0.026204 -0.002006 0.000000 0.000000 -0.008200
# 3 -0.002006 -0.002006 0.009305 0.000000 0.000000 0.000000
# 4 0.000000 0.000000 0.000000 0.177380 0.000000 0.000000
# 5 0.000000 0.000000 0.000000 0.000000 0.177380 0.000000
# 6 0.008200 -0.008200 0.000000 0.000000 0.000000 0.049044
#
#
# Mechanical properties :
#
#
# Convention : Reuss Voigt Hill
#
# Bulk Modulus (GPa) = 14.53346 21.92192 18.22769
# Shear Modulus (GPa) = 10.38724 20.81617 15.60170
#
# Velocity S-wave (km/s) = 2.18080 3.08721 2.67271
# Velocity P-wave (km/s) = 3.60492 4.76917 4.22732
#
# Compressibility (1/GPa) = 0.06880676
#
# Stress axis : x y z
#
# Youngs Moduli (GPa) = 38.16213 38.16213 107.46365
#
# Poissons Ratio (x) = -0.28847 0.21560
# Poissons Ratio (y) = -0.28847 0.21560
# Poissons Ratio (z) = 0.07656 0.07656
#
# Static dielectric constant tensor:
#      x y z
#    x 0.617590 0.000000 0.000000 
#    y 0.000000 0.617590 0.000000 
#    z 0.000000 0.000000 1.833830 
# 
# From -- ./inp_files/5772.got.cif
#   From: 2010.05.17/outbox.cif.g08.bks.cpg/sg87_3_cif.got.tgz:5772.got - 2010.06.03 19:07:00.
