data_PCOD9545194
_publ_section_title
;
Structure prediction by ZEFSAII (Michael W. Deem and Ramdas Pophale) SiO2 
 PCOD9545194
Probable space group: P 42/N
;
_chemical_formula_sum "Si O2"
_cell_formula_units_Z 60
_cell_length_a 16.649515
_cell_length_b 16.649515
_cell_length_c 10.016672
_cell_angle_alpha 90.000000
_cell_angle_beta 90.000000
_cell_angle_gamma 90.000000
_cell_volume 2776.685082
_symmetry_space_group_name_H-M "P 42/N"
_symmetry_group_IT_number 86
_space_group.IT_coordinate_system_code '2'
_symmetry_cell_setting 'tetragonal'
loop_
_space_group_symop_operation_xyz
x,y,z
-y,1/2+x,1/2+z
1/2-x,1/2-y,z
1/2+y,-x,1/2+z
-x,-y,-z
y,1/2-x,1/2-z
1/2+x,1/2+y,-z
1/2-y,x,1/2-z
loop_
_atom_site_type_symbol
_atom_site_label
_atom_site_fract_x
_atom_site_fract_y
_atom_site_fract_z
Si Si1 0.577702 0.215738 0.388865
Si Si2 0.233671 0.509198 0.382526
Si Si3 0.933687 0.977919 0.291045
Si Si4 0.041784 0.873874 0.123617
Si Si5 0.250000 0.750000 0.712880
Si Si6 0.814118 0.647500 0.731089
Si Si7 0.453750 0.096624 0.074575
Si Si8 0.222008 0.926824 0.808814
O O1 0.537341 0.266339 0.270791
O O2 0.570823 0.120573 0.360501
O O3 0.672621 0.231509 0.375747
O O4 0.549412 0.232790 0.537238
O O5 0.168533 0.548434 0.479110
O O6 0.208121 0.416124 0.380698
O O7 0.327409 0.516414 0.424890
O O8 0.905961 0.926734 0.420220
O O9 0.965806 0.927726 0.164643
O O10 0.861802 0.037444 0.247808
O O11 0.012405 0.017245 0.361861
O O12 0.043226 0.798133 0.223668
O O13 0.227754 0.829784 0.795696
O O14 0.734415 0.660115 0.819392
O O15 0.884103 0.619541 0.825314
#
# Coordination Sequence:
#
# PCOD9545194 Si02
#       8
#     8   8   8   8   4   8   8   8
#     4  11  24  40  67 100 137 189 231 285 356 415
#     4  11  22  43  67  98 139 179 227 303 346 412
#     4  11  24  42  67 101 141 184 238 288 354 436
#     4  11  25  44  64 100 142 177 237 285 349 424
#     4  10  24  44  66 104 142 186 230 294 350 428
#     4   9  21  40  66  98 128 172 232 283 345 422
#     4  10  22  42  68  96 135 188 223 289 367 416
#     4  11  25  44  70 101 141 184 236 290 351 428
#
# _framework density 21.608502000000001
#
# number of rings (size 3 to 8) (size 9 to 14) (size 15 to 20)
#    0.000    1.467    2.667    1.200    5.600    6.933 
#    0.000    0.000    0.000    0.400    0.000    0.000 
#    0.000    0.000    0.000    0.000    0.000    0.000 
#
# Total GULP energy -334720.501746 kJ/mol
# GULP energy per Si atom -5578.675029 kJ/mol
# Density = 2.155932 g / cm^3
# Si number density = 21.608502 Si / 1000 Ang^3
#
#
#
# Elastic Constant Matrix: (Units=GPa)
#
#
# Indices 1 2 3 4 5 6 
#
# 1 54.2106 17.0463 11.4440 0.0000 0.0000 -4.0084
# 2 17.0463 54.2106 11.4440 0.0000 0.0000 4.0084
# 3 11.4440 11.4440 104.9742 0.0000 0.0000 0.0000
# 4 0.0000 0.0000 0.0000 19.4705 0.0000 0.0000
# 5 0.0000 0.0000 0.0000 0.0000 19.4705 0.0000
# 6 -4.0084 4.0084 0.0000 0.0000 0.0000 36.8982
#
#
#
# Elastic Compliance Matrix: (Units=1/GPa)
#
#
# Indices 1 2 3 4 5 6 
#
# 1 0.021048 -0.006505 -0.001585 0.000000 0.000000 0.002993
# 2 -0.006505 0.021048 -0.001585 0.000000 0.000000 -0.002993
# 3 -0.001585 -0.001585 0.009872 0.000000 0.000000 0.000000
# 4 0.000000 0.000000 0.000000 0.051360 0.000000 0.000000
# 5 0.000000 0.000000 0.000000 0.000000 0.051360 0.000000
# 6 0.002993 -0.002993 0.000000 0.000000 0.000000 0.027752
#
#
# Mechanical properties :
#
#
# Convention : Reuss Voigt Hill
#
# Bulk Modulus (GPa) = 30.65976 32.58489 31.62232
# Shear Modulus (GPa) = 23.51136 26.73194 25.12165
#
# Velocity S-wave (km/s) = 3.30216 3.52106 3.41336
# Velocity P-wave (km/s) = 5.36270 5.62520 5.49552
#
# Compressibility (1/GPa) = 0.03261604
#
# Stress axis : x y z
#
# Youngs Moduli (GPa) = 47.51028 47.51028 101.29835
#
# Poissons Ratio (x) = 0.30906 0.16060
# Poissons Ratio (y) = 0.30906 0.16060
# Poissons Ratio (z) = 0.07532 0.07532
#
# Static dielectric constant tensor:
#      x y z
#    x 1.842720 0.000000 0.000000 
#    y 0.000000 1.842720 0.000000 
#    z 0.000000 0.000000 1.772710 
# 
# From -- ./inp_files/1469.got.cif
#   From: 2010.05.17/outbox.cif.g08.bks.cpg/sg86_1_cif.got.tgz:1469.got - 2010.06.03 19:03:11.
