data_PCOD9545635
_publ_section_title
;
Structure prediction by ZEFSAII (Michael W. Deem and Ramdas Pophale) SiO2 
 PCOD9545635
Probable space group: I 4/M
;
_chemical_formula_sum "Si O2"
_cell_formula_units_Z 120
_cell_length_a 27.720774
_cell_length_b 27.720774
_cell_length_c 7.817861
_cell_angle_alpha 90.000000
_cell_angle_beta 90.000000
_cell_angle_gamma 90.000000
_cell_volume 6007.567357
_symmetry_space_group_name_H-M "I 4/M"
_symmetry_group_IT_number 87
_symmetry_cell_setting 'tetragonal'
loop_
_space_group_symop_operation_xyz
x,y,z
-y,x,z
-x,-y,z
y,-x,z
-x,-y,-z
y,-x,-z
x,y,-z
-y,x,-z
1/2+x,1/2+y,1/2+z
1/2-y,1/2+x,1/2+z
1/2-x,1/2-y,1/2+z
1/2+y,1/2-x,1/2+z
1/2-x,1/2-y,1/2-z
1/2+y,1/2-x,1/2-z
1/2+x,1/2+y,1/2-z
1/2-y,1/2+x,1/2-z
loop_
_atom_site_type_symbol
_atom_site_label
_atom_site_fract_x
_atom_site_fract_y
_atom_site_fract_z
Si Si1 0.246939 0.443111 0.706363
Si Si2 0.633895 0.780614 0.706828
Si Si3 0.164525 0.728193 0.702272
Si Si4 0.468756 0.181866 0.294463
Si Si5 0.930714 0.141387 0.801717
Si Si6 0.002330 0.425226 0.307040
Si Si7 0.824766 0.163330 0.295180
Si Si8 0.968056 0.074478 0.500000
O O1 0.244332 0.441369 0.500000
O O2 0.224868 0.392914 0.771908
O O3 0.217913 0.489569 0.769004
O O4 0.303606 0.444332 0.749571
O O5 0.634180 0.784556 0.500000
O O6 0.682086 0.807300 0.773545
O O7 0.584379 0.804450 0.770141
O O8 0.636566 0.724554 0.753734
O O9 0.174516 0.729354 0.500000
O O10 0.179333 0.781094 0.769732
O O11 0.467591 0.186746 0.500000
O O12 0.483180 0.127451 0.252593
O O13 0.872522 0.140272 0.785208
O O14 0.954009 0.104892 0.668074
O O15 0.944360 0.133259 0.000000
O O16 0.983977 0.422852 0.500000
O O17 0.048393 0.460631 0.299074
O O18 0.832227 0.164434 0.500000
O O19 0.024382 0.061244 0.500000
#
# Coordination Sequence:
#
# PCOD9545635 Si02
#       8
#    16  16  16  16  16  16  16   8
#     4   9  20  37  59  86 117 158 207 254 308 376
#     4  10  21  35  53  83 123 162 203 252 312 374
#     4   9  19  34  55  82 115 160 202 249 309 374
#     4  10  22  39  56  85 123 156 202 260 310 370
#     4  10  21  42  69  96 128 172 214 254 319 374
#     4  11  23  41  63  85 111 153 205 259 319 378
#     4  10  19  35  59  89 124 161 210 258 306 375
#     4  11  26  46  68 102 136 166 212 261 304 368
#
# _framework density 19.974806999999998
#
# number of rings (size 3 to 8) (size 9 to 14) (size 15 to 20)
#    0.000    2.067    0.667    2.400    2.800    3.733 
#    0.000    2.000    0.000    0.000    0.000    0.000 
#    0.000    0.000    0.000    0.000    0.000    0.000 
#
# Total GULP energy -335142.654957 kJ/mol
# GULP energy per Si atom -5585.710916 kJ/mol
# Density = 1.992934 g / cm^3
# Si number density = 19.974807 Si / 1000 Ang^3
#
#
#
# Elastic Constant Matrix: (Units=GPa)
#
#
# Indices 1 2 3 4 5 6 
#
# 1 84.2624 61.1827 15.7256 0.0000 0.0000 8.9767
# 2 61.1827 84.2624 15.7256 0.0000 0.0000 -8.9767
# 3 15.7256 15.7256 45.8069 0.0000 0.0000 0.0000
# 4 0.0000 0.0000 0.0000 22.3932 0.0000 0.0000
# 5 0.0000 0.0000 0.0000 0.0000 22.3932 0.0000
# 6 8.9767 -8.9767 0.0000 0.0000 0.0000 21.5110
#
#
#
# Elastic Compliance Matrix: (Units=1/GPa)
#
#
# Indices 1 2 3 4 5 6 
#
# 1 0.035790 -0.028363 -0.002550 0.000000 0.000000 -0.026771
# 2 -0.028363 0.035790 -0.002550 0.000000 0.000000 0.026771
# 3 -0.002550 -0.002550 0.023581 0.000000 0.000000 0.000000
# 4 0.000000 0.000000 0.000000 0.044656 0.000000 0.000000
# 5 0.000000 0.000000 0.000000 0.000000 0.044656 0.000000
# 6 -0.026771 0.026771 0.000000 0.000000 0.000000 0.068832
#
#
# Mechanical properties :
#
#
# Convention : Reuss Voigt Hill
#
# Bulk Modulus (GPa) = 35.41527 44.39994 39.90760
# Shear Modulus (GPa) = 15.16793 21.37267 18.27030
#
# Velocity S-wave (km/s) = 2.75863 3.27461 3.02763
# Velocity P-wave (km/s) = 5.28348 6.04761 5.67841
#
# Compressibility (1/GPa) = 0.02823641
#
# Stress axis : x y z
#
# Youngs Moduli (GPa) = 27.94078 27.94078 42.40637
#
# Poissons Ratio (x) = 0.79249 0.10812
# Poissons Ratio (y) = 0.79249 0.10812
# Poissons Ratio (z) = 0.07124 0.07124
#
# Static dielectric constant tensor:
#      x y z
#    x 1.686310 0.000000 0.000000 
#    y 0.000000 1.686310 0.000000 
#    z 0.000000 0.000000 1.713120 
# 
# From -- ./inp_files/1738.got.cif
#   From: 2010.05.17/outbox.cif.g08.bks.cpg/sg87_1_cif.got.tgz:1738.got - 2010.06.03 19:07:00.
