data_PCOD9545089
_publ_section_title
;
Structure prediction by ZEFSAII (Michael W. Deem and Ramdas Pophale) SiO2 
 PCOD9545089
Probable space group: P 42/N
;
_chemical_formula_sum "Si O2"
_cell_formula_units_Z 36
_cell_length_a 11.082437
_cell_length_b 11.082437
_cell_length_c 11.860514
_cell_angle_alpha 90.000000
_cell_angle_beta 90.000000
_cell_angle_gamma 90.000000
_cell_volume 1456.713191
_symmetry_space_group_name_H-M "P 42/N"
_symmetry_group_IT_number 86
_space_group.IT_coordinate_system_code '2'
_symmetry_cell_setting 'tetragonal'
loop_
_space_group_symop_operation_xyz
x,y,z
-y,1/2+x,1/2+z
1/2-x,1/2-y,z
1/2+y,-x,1/2+z
-x,-y,-z
y,1/2-x,1/2-z
1/2+x,1/2+y,-z
1/2-y,x,1/2-z
loop_
_atom_site_type_symbol
_atom_site_label
_atom_site_fract_x
_atom_site_fract_y
_atom_site_fract_z
Si Si1 0.750000 0.750000 0.750000
Si Si2 0.668963 0.978163 0.856938
Si Si3 0.061321 0.435384 0.766562
Si Si4 0.351334 0.853717 0.601566
Si Si5 0.750000 0.750000 0.250000
Si Si6 0.372207 0.671336 0.860417
O O1 0.681952 0.840007 0.832854
O O2 0.530767 0.018813 0.862713
O O3 0.769430 0.035307 0.936165
O O4 0.714922 0.039684 0.738275
O O5 0.118243 0.547072 0.696134
O O6 0.158592 0.341119 0.811506
O O7 0.968906 0.367675 0.679630
O O8 0.250000 0.750000 0.626402
O O9 0.316343 0.921633 0.486566
O O10 0.250000 0.750000 0.861245
#
# Coordination Sequence:
#
# PCOD9545089 Si02
#       6
#     2   8   8   8   2   8
#     4  12  20  36  62 100 112 164 222 240 312 374
#     4  10  21  37  64  90 121 162 206 255 312 366
#     4  10  23  37  59  87 125 156 203 252 306 366
#     4  11  20  39  64  90 121 164 206 255 313 365
#     4  12  24  36  58  88 112 166 208 228 316 382
#     4   9  21  38  64  91 120 161 203 258 314 362
#
# _framework density 24.713166999999999
#
# number of rings (size 3 to 8) (size 9 to 14) (size 15 to 20)
#    1.333    0.444    2.222    2.667    3.111    0.000 
#    0.000    4.444    0.000    6.667    0.000    0.000 
#    0.000    0.000    0.000    0.000    0.000    0.000 
#
# Total GULP energy -200451.728073 kJ/mol
# GULP energy per Si atom -5568.103558 kJ/mol
# Density = 2.465692 g / cm^3
# Si number density = 24.713167 Si / 1000 Ang^3
#
#
#
# Elastic Constant Matrix: (Units=GPa)
#
#
# Indices 1 2 3 4 5 6 
#
# 1 121.8449 52.4008 -0.2188 0.0000 0.0000 2.8139
# 2 52.4008 121.8449 -0.2188 0.0000 0.0000 -2.8139
# 3 -0.2188 -0.2188 58.5589 0.0000 0.0000 0.0000
# 4 0.0000 0.0000 0.0000 10.3020 0.0000 0.0000
# 5 0.0000 0.0000 0.0000 0.0000 10.3020 0.0000
# 6 2.8139 -2.8139 0.0000 0.0000 0.0000 21.1464
#
#
#
# Elastic Compliance Matrix: (Units=1/GPa)
#
#
# Indices 1 2 3 4 5 6 
#
# 1 0.010148 -0.004409 0.000021 0.000000 0.000000 -0.001937
# 2 -0.004409 0.010148 0.000021 0.000000 0.000000 0.001937
# 3 0.000021 0.000021 0.017077 0.000000 0.000000 0.000000
# 4 0.000000 0.000000 0.000000 0.097068 0.000000 0.000000
# 5 0.000000 0.000000 0.000000 0.000000 0.097068 0.000000
# 6 -0.001937 0.001937 0.000000 0.000000 0.000000 0.047805
#
#
# Mechanical properties :
#
#
# Convention : Reuss Voigt Hill
#
# Bulk Modulus (GPa) = 34.91509 45.13057 40.02283
# Shear Modulus (GPa) = 16.80144 25.03579 20.91861
#
# Velocity S-wave (km/s) = 2.61024 3.18631 2.91255
# Velocity P-wave (km/s) = 4.82113 5.64253 5.24792
#
# Compressibility (1/GPa) = 0.02864091
#
# Stress axis : x y z
#
# Youngs Moduli (GPa) = 98.54096 98.54096 58.55835
#
# Poissons Ratio (x) = 0.43447 -0.00126
# Poissons Ratio (y) = 0.43447 -0.00126
# Poissons Ratio (z) = -0.00211 -0.00211
#
# Static dielectric constant tensor:
#      x y z
#    x 2.098310 0.000000 0.000000 
#    y 0.000000 2.098310 0.000000 
#    z 0.000000 0.000000 1.982770 
# 
# From -- ./inp_files/2833.got.cif
#   From: 2010.05.17/outbox.cif.g08.bks.cpg/sg86_2_cif.got.tgz:2833.got - 2010.06.03 19:03:11.
