data_PCOD9545077
_publ_section_title
;
Structure prediction by ZEFSAII (Michael W. Deem and Ramdas Pophale) SiO2 
 PCOD9545077
Probable space group: P 42/N
;
_chemical_formula_sum "Si O2"
_cell_formula_units_Z 52
_cell_length_a 15.657231
_cell_length_b 15.657231
_cell_length_c 9.703546
_cell_angle_alpha 90.000000
_cell_angle_beta 90.000000
_cell_angle_gamma 90.000000
_cell_volume 2378.813459
_symmetry_space_group_name_H-M "P 42/N"
_symmetry_group_IT_number 86
_space_group.IT_coordinate_system_code '2'
_symmetry_cell_setting 'tetragonal'
loop_
_space_group_symop_operation_xyz
x,y,z
-y,1/2+x,1/2+z
1/2-x,1/2-y,z
1/2+y,-x,1/2+z
-x,-y,-z
y,1/2-x,1/2-z
1/2+x,1/2+y,-z
1/2-y,x,1/2-z
loop_
_atom_site_type_symbol
_atom_site_label
_atom_site_fract_x
_atom_site_fract_y
_atom_site_fract_z
Si Si1 0.182345 0.568360 0.227974
Si Si2 0.750000 0.250000 0.183842
Si Si3 0.217495 0.113653 0.721881
Si Si4 0.604203 0.052171 0.366113
Si Si5 0.505966 0.228827 0.017549
Si Si6 0.387383 0.510860 0.895036
Si Si7 0.851843 0.403268 0.060146
O O1 0.224089 0.663939 0.234783
O O2 0.238418 0.507231 0.325677
O O3 0.090147 0.579579 0.302064
O O4 0.174663 0.540739 0.070115
O O5 0.779734 0.332258 0.096030
O O6 0.150928 0.190158 0.742447
O O7 0.191602 0.034453 0.820216
O O8 0.216684 0.080810 0.564956
O O9 0.696632 0.055266 0.435206
O O10 0.546866 0.120603 0.449427
O O11 0.618365 0.058619 0.204572
O O12 0.559721 0.962099 0.398682
O O13 0.564358 0.146469 0.007723
#
# Coordination Sequence:
#
# PCOD9545077 Si02
#       7
#     8   4   8   8   8   8   8
#     4  10  21  36  61  88 134 164 201 265 319 379
#     4  10  22  36  56  96 134 168 208 246 314 392
#     4  11  22  40  69  93 117 168 228 275 316 381
#     4  10  22  40  66  92 127 166 213 262 318 378
#     4  10  21  40  56  93 131 161 209 268 312 386
#     4  10  21  41  65  91 121 163 214 268 314 374
#     4  11  21  36  61  94 129 171 208 247 324 394
#
# _framework density 21.859639000000001
#
# number of rings (size 3 to 8) (size 9 to 14) (size 15 to 20)
#    0.000    1.692    3.077    1.385    0.000    6.769 
#    0.000    0.000    6.769    0.000    0.000    2.154 
#    0.000    0.000    0.000    0.000    0.000    0.000 
#
# Total GULP energy -290610.515327 kJ/mol
# GULP energy per Si atom -5588.663756 kJ/mol
# Density = 2.180989 g / cm^3
# Si number density = 21.859639 Si / 1000 Ang^3
#
#
#
# Elastic Constant Matrix: (Units=GPa)
#
#
# Indices 1 2 3 4 5 6 
#
# 1 47.5467 8.8425 28.2098 0.0000 0.0000 -3.6106
# 2 8.8425 47.5467 28.2098 0.0000 0.0000 3.6106
# 3 28.2098 28.2098 186.6621 0.0000 0.0000 0.0000
# 4 0.0000 0.0000 0.0000 20.3499 0.0000 0.0000
# 5 0.0000 0.0000 0.0000 0.0000 20.3499 0.0000
# 6 -3.6106 3.6106 0.0000 0.0000 0.0000 29.8092
#
#
#
# Elastic Compliance Matrix: (Units=1/GPa)
#
#
# Indices 1 2 3 4 5 6 
#
# 1 0.023664 -0.002771 -0.003158 0.000000 0.000000 0.003202
# 2 -0.002771 0.023664 -0.003158 0.000000 0.000000 -0.003202
# 3 -0.003158 -0.003158 0.006312 0.000000 0.000000 0.000000
# 4 0.000000 0.000000 0.000000 0.049140 0.000000 0.000000
# 5 0.000000 0.000000 0.000000 0.000000 0.049140 0.000000
# 6 0.003202 -0.003202 0.000000 0.000000 0.000000 0.034322
#
#
# Mechanical properties :
#
#
# Convention : Reuss Voigt Hill
#
# Bulk Modulus (GPa) = 28.19462 45.80886 37.00174
# Shear Modulus (GPa) = 23.12289 28.53471 25.82880
#
# Velocity S-wave (km/s) = 3.25590 3.61690 3.44113
# Velocity P-wave (km/s) = 5.20197 6.20032 5.72296
#
# Compressibility (1/GPa) = 0.03546776
#
# Stress axis : x y z
#
# Youngs Moduli (GPa) = 42.25874 42.25874 158.43719
#
# Poissons Ratio (x) = 0.11708 0.50027
# Poissons Ratio (y) = 0.11708 0.50027
# Poissons Ratio (z) = 0.13343 0.13343
#
# Static dielectric constant tensor:
#      x y z
#    x 1.829150 0.000000 0.000000 
#    y 0.000000 1.829150 0.000000 
#    z 0.000000 0.000000 1.830700 
# 
# From -- ./inp_files/1393.got.cif
#   From: 2010.05.17/outbox.cif.g08.bks.cpg/sg86_1_cif.got.tgz:1393.got - 2010.06.03 19:03:11.
