data_PCOD9545888
_publ_section_title
;
Structure prediction by ZEFSAII (Michael W. Deem and Ramdas Pophale) SiO2 
 PCOD9545888
Probable space group: I 4/M
;
_chemical_formula_sum "Si O2"
_cell_formula_units_Z 48
_cell_length_a 10.604241
_cell_length_b 10.604241
_cell_length_c 16.508338
_cell_angle_alpha 90.000000
_cell_angle_beta 90.000000
_cell_angle_gamma 90.000000
_cell_volume 1856.361406
_symmetry_space_group_name_H-M "I 4/M"
_symmetry_group_IT_number 87
_symmetry_cell_setting 'tetragonal'
loop_
_space_group_symop_operation_xyz
x,y,z
-y,x,z
-x,-y,z
y,-x,z
-x,-y,-z
y,-x,-z
x,y,-z
-y,x,-z
1/2+x,1/2+y,1/2+z
1/2-y,1/2+x,1/2+z
1/2-x,1/2-y,1/2+z
1/2+y,1/2-x,1/2+z
1/2-x,1/2-y,1/2-z
1/2+y,1/2-x,1/2-z
1/2+x,1/2+y,1/2-z
1/2-y,1/2+x,1/2-z
loop_
_atom_site_type_symbol
_atom_site_label
_atom_site_fract_x
_atom_site_fract_y
_atom_site_fract_z
Si Si1 0.196269 0.440942 0.093130
Si Si2 0.285963 0.625139 0.798608
Si Si3 0.197280 0.961158 0.124769
O O1 0.174281 0.561847 0.149586
O O2 0.324912 0.384872 0.134167
O O3 0.090652 0.332981 0.100039
O O4 0.212963 0.474293 0.000000
O O5 0.250000 0.750000 0.750000
O O6 0.311166 0.532604 0.723119
O O7 0.095217 0.855852 0.096743
#
# Coordination Sequence:
#
# PCOD9545888 Si02
#       3
#    16  16  16
#     4  11  23  40  67 106 145 184 245 321 381 434
#     4  10  21  40  67 101 137 189 247 301 377 452
#     4  10  21  41  71 103 143 203 260 299 362 457
#
# _framework density 25.857035
#
# number of rings (size 3 to 8) (size 9 to 14) (size 15 to 20)
#    0.000    1.667    3.333    1.000    0.000    2.000 
#    0.000   10.000    0.000   10.000    0.000    0.000 
#    0.000    0.000    0.000    0.000    0.000    0.000 
#
# Total GULP energy -134173.952895 kJ/mol
# GULP energy per Si atom -5590.581371 kJ/mol
# Density = 2.579818 g / cm^3
# Si number density = 25.857035 Si / 1000 Ang^3
#
#
#
# Elastic Constant Matrix: (Units=GPa)
#
#
# Indices 1 2 3 4 5 6 
#
# 1 115.9242 25.0079 36.7432 0.0000 0.0000 -19.9288
# 2 25.0079 115.9242 36.7432 0.0000 0.0000 19.9288
# 3 36.7432 36.7432 199.0273 0.0000 0.0000 0.0000
# 4 0.0000 0.0000 0.0000 18.1622 0.0000 0.0000
# 5 0.0000 0.0000 0.0000 0.0000 18.1622 0.0000
# 6 -19.9288 19.9288 0.0000 0.0000 0.0000 40.7161
#
#
#
# Elastic Compliance Matrix: (Units=1/GPa)
#
#
# Indices 1 2 3 4 5 6 
#
# 1 0.010928 -0.003076 -0.001449 0.000000 0.000000 0.006854
# 2 -0.003076 0.010928 -0.001449 0.000000 0.000000 -0.006854
# 3 -0.001449 -0.001449 0.005560 0.000000 0.000000 0.000000
# 4 0.000000 0.000000 0.000000 0.055059 0.000000 0.000000
# 5 0.000000 0.000000 0.000000 0.000000 0.055059 0.000000
# 6 0.006854 -0.006854 0.000000 0.000000 0.000000 0.031270
#
#
# Mechanical properties :
#
#
# Convention : Reuss Voigt Hill
#
# Bulk Modulus (GPa) = 64.66402 69.76267 67.21334
# Shear Modulus (GPa) = 26.89483 37.56688 32.23086
#
# Velocity S-wave (km/s) = 3.22861 3.81579 3.53441
# Velocity P-wave (km/s) = 6.24189 6.81560 6.53504
#
# Compressibility (1/GPa) = 0.01546455
#
# Stress axis : x y z
#
# Youngs Moduli (GPa) = 91.51010 91.51010 179.86828
#
# Poissons Ratio (x) = 0.28152 0.26072
# Poissons Ratio (y) = 0.28152 0.26072
# Poissons Ratio (z) = 0.13264 0.13264
#
# Static dielectric constant tensor:
#      x y z
#    x 2.179630 0.000000 0.000000 
#    y 0.000000 2.179630 0.000000 
#    z 0.000000 0.000000 2.007220 
# 
# From -- ./inp_files/4064.got.cif
#   From: 2010.05.17/outbox.cif.g08.bks.cpg/sg87_3_cif.got.tgz:4064.got - 2010.06.03 19:07:00.
