data_PCOD9545590
_publ_section_title
;
Structure prediction by ZEFSAII (Michael W. Deem and Ramdas Pophale) SiO2 
 PCOD9545590
Probable space group: I 4/M
;
_chemical_formula_sum "Si O2"
_cell_formula_units_Z 112
_cell_length_a 14.152252
_cell_length_b 14.152252
_cell_length_c 28.129271
_cell_angle_alpha 90.000000
_cell_angle_beta 90.000000
_cell_angle_gamma 90.000000
_cell_volume 5633.905829
_symmetry_space_group_name_H-M "I 4/M"
_symmetry_group_IT_number 87
_symmetry_cell_setting 'tetragonal'
loop_
_space_group_symop_operation_xyz
x,y,z
-y,x,z
-x,-y,z
y,-x,z
-x,-y,-z
y,-x,-z
x,y,-z
-y,x,-z
1/2+x,1/2+y,1/2+z
1/2-y,1/2+x,1/2+z
1/2-x,1/2-y,1/2+z
1/2+y,1/2-x,1/2+z
1/2-x,1/2-y,1/2-z
1/2+y,1/2-x,1/2-z
1/2+x,1/2+y,1/2-z
1/2-y,1/2+x,1/2-z
loop_
_atom_site_type_symbol
_atom_site_label
_atom_site_fract_x
_atom_site_fract_y
_atom_site_fract_z
Si Si1 0.686307 0.334711 0.093273
Si Si2 0.525708 0.108395 0.146762
Si Si3 0.784237 0.513683 0.946142
Si Si4 0.799076 0.392126 0.223885
Si Si5 0.109064 0.893165 0.306389
Si Si6 0.359894 0.744414 0.346005
Si Si7 0.230844 0.571509 0.668206
O O1 0.613920 0.265963 0.066005
O O2 0.713533 0.425347 0.061787
O O3 0.626945 0.373104 0.138491
O O4 0.783265 0.289750 0.116516
O O5 0.494289 0.137463 0.094225
O O6 0.475287 0.174834 0.185878
O O7 0.638140 0.119241 0.145864
O O8 0.500000 0.000000 0.157887
O O9 0.818965 0.514645 0.000000
O O10 0.695008 0.345059 0.219592
O O11 0.859766 0.307753 0.201974
O O12 0.803203 0.430919 0.276671
O O13 0.002725 0.873051 0.294082
O O14 0.471363 0.748418 0.356923
O O15 0.320093 0.640426 0.336228
#
# Coordination Sequence:
#
# PCOD9545590 Si02
#       7
#    16  16  16  16  16  16  16
#     4  11  20  41  60  92 125 163 206 254 316 386
#     4  12  23  42  63  92 128 160 215 265 315 380
#     4  12  24  40  65  93 127 167 204 259 324 392
#     4  11  23  37  62  90 126 167 212 256 316 372
#     4  10  19  32  54  82 123 166 198 239 298 364
#     4  11  24  42  62  87 127 173 215 274 315 369
#     4  12  25  40  63  92 127 171 219 262 319 372
#
# _framework density 19.879636999999999
#
# number of rings (size 3 to 8) (size 9 to 14) (size 15 to 20)
#    0.000    0.714    7.143    1.714    4.000    0.857 
#    0.000    0.714    0.000    0.000    0.000    0.000 
#    0.000    1.143    0.000    0.000    0.000    0.000 
#
# Total GULP energy -312207.982392 kJ/mol
# GULP energy per Si atom -5575.142543 kJ/mol
# Density = 1.983439 g / cm^3
# Si number density = 19.879637 Si / 1000 Ang^3
#
#
#
# Elastic Constant Matrix: (Units=GPa)
#
#
# Indices 1 2 3 4 5 6 
#
# 1 81.5759 19.9304 13.3585 0.0000 0.0000 -2.0482
# 2 19.9304 81.5759 13.3585 0.0000 0.0000 2.0482
# 3 13.3585 13.3585 84.8451 0.0000 0.0000 0.0000
# 4 0.0000 0.0000 0.0000 7.6324 0.0000 0.0000
# 5 0.0000 0.0000 0.0000 0.0000 7.6324 0.0000
# 6 -2.0482 2.0482 0.0000 0.0000 0.0000 25.8019
#
#
#
# Elastic Compliance Matrix: (Units=1/GPa)
#
#
# Indices 1 2 3 4 5 6 
#
# 1 0.013293 -0.003015 -0.001618 0.000000 0.000000 0.001295
# 2 -0.003015 0.013293 -0.001618 0.000000 0.000000 -0.001295
# 3 -0.001618 -0.001618 0.012296 0.000000 0.000000 0.000000
# 4 0.000000 0.000000 0.000000 0.131020 0.000000 0.000000
# 5 0.000000 0.000000 0.000000 0.000000 0.131020 0.000000
# 6 0.001295 -0.001295 0.000000 0.000000 0.000000 0.038962
#
#
# Mechanical properties :
#
#
# Convention : Reuss Voigt Hill
#
# Bulk Modulus (GPa) = 37.91018 37.92131 37.91575
# Shear Modulus (GPa) = 13.84354 21.63664 17.74009
#
# Velocity S-wave (km/s) = 2.64174 3.30264 2.99051
# Velocity P-wave (km/s) = 5.33070 5.80174 5.57120
#
# Compressibility (1/GPa) = 0.02637814
#
# Stress axis : x y z
#
# Youngs Moduli (GPa) = 75.22947 75.22947 81.32909
#
# Poissons Ratio (x) = 0.22683 0.13160
# Poissons Ratio (y) = 0.22683 0.13160
# Poissons Ratio (z) = 0.12173 0.12173
#
# Static dielectric constant tensor:
#      x y z
#    x 1.738950 0.000000 0.000000 
#    y 0.000000 1.738950 0.000000 
#    z 0.000000 0.000000 1.698590 
# 
# From -- ./inp_files/6286.got.cif
#   From: 2010.05.17/outbox.cif.g08.bks.cpg/sg87_4_cif.got.tgz:6286.got - 2010.06.03 19:07:00.
