data_PCOD9545028
_publ_section_title
;
Structure prediction by ZEFSAII (Michael W. Deem and Ramdas Pophale) SiO2 
 PCOD9545028
Probable space group: P 42/N
;
_chemical_formula_sum "Si O2"
_cell_formula_units_Z 48
_cell_length_a 8.490266
_cell_length_b 8.490266
_cell_length_c 30.492155
_cell_angle_alpha 90.000000
_cell_angle_beta 90.000000
_cell_angle_gamma 90.000000
_cell_volume 2198.015307
_symmetry_space_group_name_H-M "P 42/N"
_symmetry_group_IT_number 86
_space_group.IT_coordinate_system_code '2'
_symmetry_cell_setting 'tetragonal'
loop_
_space_group_symop_operation_xyz
x,y,z
-y,1/2+x,1/2+z
1/2-x,1/2-y,z
1/2+y,-x,1/2+z
-x,-y,-z
y,1/2-x,1/2-z
1/2+x,1/2+y,-z
1/2-y,x,1/2-z
loop_
_atom_site_type_symbol
_atom_site_label
_atom_site_fract_x
_atom_site_fract_y
_atom_site_fract_z
Si Si1 0.881848 0.869543 0.571797
Si Si2 0.125350 0.471548 0.321943
Si Si3 0.638260 0.125943 0.593237
Si Si4 0.374306 0.017038 0.163973
Si Si5 0.185393 0.934232 0.996642
Si Si6 0.512717 0.853826 0.242367
O O1 0.750000 0.750000 0.590282
O O2 0.005314 0.885622 0.611472
O O3 0.959788 0.792779 0.528971
O O4 0.765592 0.018028 0.566625
O O5 0.054256 0.537969 0.367651
O O6 0.046472 0.301138 0.318175
O O7 0.312493 0.454758 0.328756
O O8 0.099006 0.575971 0.279562
O O9 0.750000 0.250000 0.616853
O O10 0.537906 0.207518 0.555445
O O11 0.451083 0.884518 0.193639
O O12 0.250000 0.750000 0.004962
O O13 0.000000 0.000000 0.000000
O O14 0.674278 0.949594 0.248263
#
# Coordination Sequence:
#
# PCOD9545028 Si02
#       6
#     8   8   8   8   8   8
#     4  11  20  43  67  97 138 173 227 292 335 412
#     4  10  20  39  67  92 121 163 224 266 319 409
#     4  10  22  39  68  96 132 174 228 274 348 408
#     4  10  20  40  65  95 120 168 217 271 328 397
#     4  11  23  42  68 101 138 182 232 289 355 420
#     4  11  26  42  59  91 136 168 212 275 344 410
#
# _framework density 21.837879999999998
#
# number of rings (size 3 to 8) (size 9 to 14) (size 15 to 20)
#    0.000    1.500    5.000    1.000    4.667    6.000 
#    6.000    0.000    3.667    0.000    0.000    0.000 
#    0.000    0.000    0.000    0.000    0.000    0.000 
#
# Total GULP energy -267282.231466 kJ/mol
# GULP energy per Si atom -5568.379822 kJ/mol
# Density = 2.178818 g / cm^3
# Si number density = 21.837880 Si / 1000 Ang^3
#
#
#
# Elastic Constant Matrix: (Units=GPa)
#
#
# Indices 1 2 3 4 5 6 
#
# 1 24.0413 33.2433 18.5900 0.0000 0.0000 -5.1728
# 2 33.2433 24.0413 18.5900 0.0000 0.0000 5.1728
# 3 18.5900 18.5900 127.6831 0.0000 0.0000 0.0000
# 4 0.0000 0.0000 0.0000 30.0962 0.0000 0.0000
# 5 0.0000 0.0000 0.0000 0.0000 30.0962 0.0000
# 6 -5.1728 5.1728 0.0000 0.0000 0.0000 23.8081
#
#
#
# Elastic Compliance Matrix: (Units=1/GPa)
#
#
# Indices 1 2 3 4 5 6 
#
# 1 -0.034030 0.053308 -0.002807 0.000000 0.000000 -0.018976
# 2 0.053308 -0.034030 -0.002807 0.000000 0.000000 0.018976
# 3 -0.002807 -0.002807 0.008649 0.000000 0.000000 0.000000
# 4 0.000000 0.000000 0.000000 0.033227 0.000000 0.000000
# 5 0.000000 0.000000 0.000000 0.000000 0.033227 0.000000
# 6 -0.018976 0.018976 0.000000 0.000000 0.000000 0.033757
#
#
# Mechanical properties :
#
#
# Convention : Reuss Voigt Hill
#
# Bulk Modulus (GPa) = 27.79419 35.17914 31.48666
# Shear Modulus (GPa) = -117.38388 23.82292 -46.78048
#
# Velocity S-wave (km/s) = -7.33956 3.30646 -4.63338
# Velocity P-wave (km/s) = 7.68572 5.54266 3.76492
#
# Compressibility (1/GPa) = 0.03597875
#
# Stress axis : x y z
#
# Youngs Moduli (GPa) = -29.38621 -29.38621 115.61749
#
# Poissons Ratio (x) = 1.56652 0.32452
# Poissons Ratio (y) = 1.56652 0.32452
# Poissons Ratio (z) = -0.08248 -0.08248
#
# Static dielectric constant tensor:
#      x y z
#    x 1.886940 0.000000 0.000000 
#    y 0.000000 1.886940 0.000000 
#    z 0.000000 0.000000 1.828680 
# 
# From -- ./inp_files/5170.got.cif
#   From: 2010.05.17/outbox.cif.g08.bks.cpg/sg86_3_cif.got.tgz:5170.got - 2010.06.03 19:03:11.
