data_PCOD9545618
_publ_section_title
;
Structure prediction by ZEFSAII (Michael W. Deem and Ramdas Pophale) SiO2 
 PCOD9545618
Probable space group: I 4/M
;
_chemical_formula_sum "Si O2"
_cell_formula_units_Z 48
_cell_length_a 10.195848
_cell_length_b 10.195848
_cell_length_c 18.132548
_cell_angle_alpha 90.000000
_cell_angle_beta 90.000000
_cell_angle_gamma 90.000000
_cell_volume 1884.974765
_symmetry_space_group_name_H-M "I 4/M"
_symmetry_group_IT_number 87
_symmetry_cell_setting 'tetragonal'
loop_
_space_group_symop_operation_xyz
x,y,z
-y,x,z
-x,-y,z
y,-x,z
-x,-y,-z
y,-x,-z
x,y,-z
-y,x,-z
1/2+x,1/2+y,1/2+z
1/2-y,1/2+x,1/2+z
1/2-x,1/2-y,1/2+z
1/2+y,1/2-x,1/2+z
1/2-x,1/2-y,1/2-z
1/2+y,1/2-x,1/2-z
1/2+x,1/2+y,1/2-z
1/2-y,1/2+x,1/2-z
loop_
_atom_site_type_symbol
_atom_site_label
_atom_site_fract_x
_atom_site_fract_y
_atom_site_fract_z
Si Si1 0.025403 0.343060 0.417825
Si Si2 0.209543 0.445630 0.234357
Si Si3 0.318222 0.395694 0.614182
O O1 0.981083 0.310583 0.500000
O O2 0.957681 0.262083 0.352157
O O3 0.183084 0.333365 0.411998
O O4 0.000000 0.500000 0.404378
O O5 0.086984 0.348428 0.243844
O O6 0.311253 0.403669 0.296421
O O7 0.451852 0.326915 0.590048
#
# Coordination Sequence:
#
# PCOD9545618 Si02
#       3
#    16  16  16
#     4  10  19  34  54  77 109 145 182 222 268 324
#     4   9  15  32  53  77 102 138 181 224 263 311
#     4  10  21  35  56  83 110 142 177 226 282 325
#
# _framework density 25.464534
#
# number of rings (size 3 to 8) (size 9 to 14) (size 15 to 20)
#    0.000    2.333    6.667    0.000    0.000    6.667 
#    0.000    1.667    0.000    0.000    0.000    2.333 
#    0.000    0.000    0.000    0.000    0.000    0.000 
#
# Total GULP energy -134342.366370 kJ/mol
# GULP energy per Si atom -5597.598599 kJ/mol
# Density = 2.540658 g / cm^3
# Si number density = 25.464534 Si / 1000 Ang^3
#
#
#
# Elastic Constant Matrix: (Units=GPa)
#
#
# Indices 1 2 3 4 5 6 
#
# 1 43.6909 46.2648 0.0551 0.0000 0.0000 6.2356
# 2 46.2648 43.6909 0.0551 0.0000 0.0000 -6.2356
# 3 0.0551 0.0551 212.3568 0.0000 0.0000 0.0000
# 4 0.0000 0.0000 0.0000 4.7200 0.0000 0.0000
# 5 0.0000 0.0000 0.0000 0.0000 4.7200 0.0000
# 6 6.2356 -6.2356 0.0000 0.0000 0.0000 27.0265
#
#
#
# Elastic Compliance Matrix: (Units=1/GPa)
#
#
# Indices 1 2 3 4 5 6 
#
# 1 -0.086162 0.097279 -0.000003 0.000000 0.000000 0.042324
# 2 0.097279 -0.086162 -0.000003 0.000000 0.000000 -0.042324
# 3 -0.000003 -0.000003 0.004709 0.000000 0.000000 0.000000
# 4 0.000000 0.000000 0.000000 0.211865 0.000000 0.000000
# 5 0.000000 0.000000 0.000000 0.000000 0.211865 0.000000
# 6 0.042324 -0.042324 0.000000 0.000000 0.000000 0.017471
#
#
# Mechanical properties :
#
#
# Convention : Reuss Voigt Hill
#
# Bulk Modulus (GPa) = 37.13234 43.60983 40.37109
# Shear Modulus (GPa) = 56.80748 24.18420 40.49584
#
# Velocity S-wave (km/s) = 4.72831 3.08510 3.99216
# Velocity P-wave (km/s) = 6.66505 5.46382 6.09410
#
# Compressibility (1/GPa) = 0.02693070
#
# Stress axis : x y z
#
# Youngs Moduli (GPa) = -11.60602 -11.60602 212.35673
#
# Poissons Ratio (x) = 1.12902 0.00061
# Poissons Ratio (y) = 1.12902 0.00061
# Poissons Ratio (z) = -0.00003 -0.00003
#
# Static dielectric constant tensor:
#      x y z
#    x 1.980520 0.000000 0.000000 
#    y 0.000000 1.980520 0.000000 
#    z 0.000000 0.000000 2.060020 
# 
# From -- ./inp_files/4063.got.cif
#   From: 2010.05.17/outbox.cif.g08.bks.cpg/sg87_3_cif.got.tgz:4063.got - 2010.06.03 19:07:00.
