data_PCOD9545764
_publ_section_title
;
Structure prediction by ZEFSAII (Michael W. Deem and Ramdas Pophale) SiO2 
 PCOD9545764
Probable space group: I 4/M
;
_chemical_formula_sum "Si O2"
_cell_formula_units_Z 96
_cell_length_a 21.968095
_cell_length_b 21.968095
_cell_length_c 8.266816
_cell_angle_alpha 90.000000
_cell_angle_beta 90.000000
_cell_angle_gamma 90.000000
_cell_volume 3989.542237
_symmetry_space_group_name_H-M "I 4/M"
_symmetry_group_IT_number 87
_symmetry_cell_setting 'tetragonal'
loop_
_space_group_symop_operation_xyz
x,y,z
-y,x,z
-x,-y,z
y,-x,z
-x,-y,-z
y,-x,-z
x,y,-z
-y,x,-z
1/2+x,1/2+y,1/2+z
1/2-y,1/2+x,1/2+z
1/2-x,1/2-y,1/2+z
1/2+y,1/2-x,1/2+z
1/2-x,1/2-y,1/2-z
1/2+y,1/2-x,1/2-z
1/2+x,1/2+y,1/2-z
1/2-y,1/2+x,1/2-z
loop_
_atom_site_type_symbol
_atom_site_label
_atom_site_fract_x
_atom_site_fract_y
_atom_site_fract_z
Si Si1 0.311739 0.318577 0.189504
Si Si2 0.767987 0.718085 0.500000
Si Si3 0.562408 0.232592 0.818784
Si Si4 0.417073 0.966315 0.822860
Si Si5 0.483417 0.399734 0.500000
Si Si6 0.133560 0.358049 0.670235
Si Si7 0.178917 0.956925 0.683691
O O1 0.283395 0.292298 0.352877
O O2 0.288252 0.388634 0.188143
O O3 0.384082 0.315468 0.186080
O O4 0.287065 0.294331 0.000000
O O5 0.823213 0.699308 0.642635
O O6 0.588129 0.182528 0.698236
O O7 0.495558 0.259193 0.795452
O O8 0.567469 0.206977 0.000000
O O9 0.478149 0.926055 0.798990
O O10 0.362170 0.919411 0.798635
O O11 0.415480 0.992692 0.000000
O O12 0.548473 0.432114 0.500000
O O13 0.476055 0.362048 0.334963
O O14 0.100617 0.367071 0.500000
O O15 0.156859 0.972948 0.500000
#
# Coordination Sequence:
#
# PCOD9545764 Si02
#       7
#    16   8  16  16   8  16  16
#     4   8  17  38  58  85 117 161 208 250 316 380
#     4   8  20  37  60  82 122 160 203 255 304 382
#     4  10  20  36  62  88 118 159 213 256 317 382
#     4  11  22  40  65  92 125 163 205 252 308 374
#     4  11  24  37  56  93 128 161 213 264 318 392
#     4  10  22  38  58  90 124 165 200 256 308 371
#     4  10  21  39  65  88 122 164 209 268 323 380
#
# _framework density 24.062909999999999
#
# number of rings (size 3 to 8) (size 9 to 14) (size 15 to 20)
#    1.000    1.250    0.000    3.500    1.167    4.000 
#    1.500    0.833    3.667    0.000    0.000    0.000 
#    0.000    0.000    0.000    0.000    0.000    0.000 
#
# Total GULP energy -267478.663848 kJ/mol
# GULP energy per Si atom -5572.472163 kJ/mol
# Density = 2.400814 g / cm^3
# Si number density = 24.062910 Si / 1000 Ang^3
#
#
#
# Elastic Constant Matrix: (Units=GPa)
#
#
# Indices 1 2 3 4 5 6 
#
# 1 83.9513 11.0940 29.0632 0.0000 0.0000 -5.8106
# 2 11.0940 83.9513 29.0632 0.0000 0.0000 5.8106
# 3 29.0632 29.0632 146.2594 0.0000 0.0000 0.0000
# 4 0.0000 0.0000 0.0000 35.1143 0.0000 0.0000
# 5 0.0000 0.0000 0.0000 0.0000 35.1143 0.0000
# 6 -5.8106 5.8106 0.0000 0.0000 0.0000 76.8647
#
#
#
# Elastic Compliance Matrix: (Units=1/GPa)
#
#
# Indices 1 2 3 4 5 6 
#
# 1 0.012935 -0.000958 -0.002380 0.000000 0.000000 0.001050
# 2 -0.000958 0.012935 -0.002380 0.000000 0.000000 -0.001050
# 3 -0.002380 -0.002380 0.007783 0.000000 0.000000 0.000000
# 4 0.000000 0.000000 0.000000 0.028478 0.000000 0.000000
# 5 0.000000 0.000000 0.000000 0.000000 0.028478 0.000000
# 6 0.001050 -0.001050 0.000000 0.000000 0.000000 0.013169
#
#
# Mechanical properties :
#
#
# Convention : Reuss Voigt Hill
#
# Bulk Modulus (GPa) = 45.01078 50.28921 47.65000
# Shear Modulus (GPa) = 40.77649 45.74812 43.26230
#
# Velocity S-wave (km/s) = 4.12099 4.36499 4.24475
# Velocity P-wave (km/s) = 6.43347 6.80798 6.62337
#
# Compressibility (1/GPa) = 0.02221690
#
# Stress axis : x y z
#
# Youngs Moduli (GPa) = 77.31038 77.31038 128.48534
#
# Poissons Ratio (x) = 0.07407 0.30578
# Poissons Ratio (y) = 0.07407 0.30578
# Poissons Ratio (z) = 0.18399 0.18399
#
# Static dielectric constant tensor:
#      x y z
#    x 1.948050 0.000000 0.000000 
#    y 0.000000 1.948050 0.000000 
#    z 0.000000 0.000000 1.943850 
# 
# From -- ./inp_files/1492.got.cif
#   From: 2010.05.17/outbox.cif.g08.bks.cpg/sg87_1_cif.got.tgz:1492.got - 2010.06.03 19:07:00.
