data_PCOD9545980
_publ_section_title
;
Structure prediction by ZEFSAII (Michael W. Deem and Ramdas Pophale) SiO2 
 PCOD9545980
Probable space group: I 4/M
;
_chemical_formula_sum "Si O2"
_cell_formula_units_Z 96
_cell_length_a 15.056981
_cell_length_b 15.056981
_cell_length_c 19.832807
_cell_angle_alpha 90.000000
_cell_angle_beta 90.000000
_cell_angle_gamma 90.000000
_cell_volume 4496.348764
_symmetry_space_group_name_H-M "I 4/M"
_symmetry_group_IT_number 87
_symmetry_cell_setting 'tetragonal'
loop_
_space_group_symop_operation_xyz
x,y,z
-y,x,z
-x,-y,z
y,-x,z
-x,-y,-z
y,-x,-z
x,y,-z
-y,x,-z
1/2+x,1/2+y,1/2+z
1/2-y,1/2+x,1/2+z
1/2-x,1/2-y,1/2+z
1/2+y,1/2-x,1/2+z
1/2-x,1/2-y,1/2-z
1/2+y,1/2-x,1/2-z
1/2+x,1/2+y,1/2-z
1/2-y,1/2+x,1/2-z
loop_
_atom_site_type_symbol
_atom_site_label
_atom_site_fract_x
_atom_site_fract_y
_atom_site_fract_z
Si Si1 0.324884 0.082166 0.154691
Si Si2 0.292694 0.968339 0.727955
Si Si3 0.940982 0.368831 0.000000
Si Si4 0.275045 0.135367 0.630937
Si Si5 0.098549 0.106648 0.580648
Si Si6 0.360584 0.053106 0.500000
Si Si7 0.297460 0.676248 0.702984
O O1 0.401231 0.150722 0.180894
O O2 0.226240 0.116984 0.175086
O O3 0.342379 0.996677 0.202466
O O4 0.325604 0.069373 0.074198
O O5 0.205907 0.914579 0.754792
O O6 0.278929 0.061182 0.689273
O O7 0.868841 0.447695 0.000000
O O8 0.039922 0.409182 0.000000
O O9 0.173175 0.163155 0.616930
O O10 0.309949 0.087384 0.564884
O O11 0.330434 0.223890 0.644399
O O12 0.105007 0.116676 0.500000
O O13 0.996127 0.121018 0.597771
O O14 0.250000 0.750000 0.750000
#
# Coordination Sequence:
#
# PCOD9545980 Si02
#       7
#    16  16   8  16  16   8  16
#     4  11  24  42  64  90 126 167 211 257 321 377
#     4  11  22  39  64  88 123 166 200 258 318 373
#     4  11  24  39  60  90 129 162 210 266 305 383
#     4  12  21  37  60  86 123 162 197 258 310 375
#     4   9  20  35  52  80 117 158 197 236 292 366
#     4  11  24  35  54  97 127 156 209 250 313 393
#     4  10  23  41  57  91 117 161 215 252 304 388
#
# _framework density 21.350657000000002
#
# number of rings (size 3 to 8) (size 9 to 14) (size 15 to 20)
#    0.000    1.333    5.833    1.500    4.667    1.000 
#    0.000    0.833    0.000    0.500    0.000    0.000 
#    0.000    2.667    0.000    0.000    0.000    0.000 
#
# Total GULP energy -267808.191995 kJ/mol
# GULP energy per Si atom -5579.337333 kJ/mol
# Density = 2.130206 g / cm^3
# Si number density = 21.350657 Si / 1000 Ang^3
#
#
#
# Elastic Constant Matrix: (Units=GPa)
#
#
# Indices 1 2 3 4 5 6 
#
# 1 56.6553 0.8431 24.9681 0.0000 0.0000 -1.0542
# 2 0.8431 56.6553 24.9681 0.0000 0.0000 1.0542
# 3 24.9681 24.9681 152.9155 0.0000 0.0000 0.0000
# 4 0.0000 0.0000 0.0000 24.6308 0.0000 0.0000
# 5 0.0000 0.0000 0.0000 0.0000 24.6308 0.0000
# 6 -1.0542 1.0542 0.0000 0.0000 0.0000 21.5121
#
#
#
# Elastic Compliance Matrix: (Units=1/GPa)
#
#
# Indices 1 2 3 4 5 6 
#
# 1 0.019108 0.001158 -0.003309 0.000000 0.000000 0.000880
# 2 0.001158 0.019108 -0.003309 0.000000 0.000000 -0.000880
# 3 -0.003309 -0.003309 0.007620 0.000000 0.000000 0.000000
# 4 0.000000 0.000000 0.000000 0.040600 0.000000 0.000000
# 5 0.000000 0.000000 0.000000 0.000000 0.040600 0.000000
# 6 0.000880 -0.000880 0.000000 0.000000 0.000000 0.046572
#
#
# Mechanical properties :
#
#
# Convention : Reuss Voigt Hill
#
# Bulk Modulus (GPa) = 28.64068 40.86498 34.75283
# Shear Modulus (GPa) = 25.48859 28.51786 27.00323
#
# Velocity S-wave (km/s) = 3.45890 3.65867 3.56019
# Velocity P-wave (km/s) = 5.42177 6.08517 5.76302
#
# Compressibility (1/GPa) = 0.03491537
#
# Stress axis : x y z
#
# Youngs Moduli (GPa) = 52.33411 52.33411 131.23113
#
# Poissons Ratio (x) = -0.06058 0.43424
# Poissons Ratio (y) = -0.06058 0.43424
# Poissons Ratio (z) = 0.17317 0.17317
#
# Static dielectric constant tensor:
#      x y z
#    x 1.846490 0.000000 0.000000 
#    y 0.000000 1.846490 0.000000 
#    z 0.000000 0.000000 1.881680 
# 
# From -- ./inp_files/4457.got.cif
#   From: 2010.05.17/outbox.cif.g08.bks.cpg/sg87_3_cif.got.tgz:4457.got - 2010.06.03 19:07:00.
