data_PCOD9545622
_publ_section_title
;
Structure prediction by ZEFSAII (Michael W. Deem and Ramdas Pophale) SiO2 
 PCOD9545622
Probable space group: I 4/M
;
_chemical_formula_sum "Si O2"
_cell_formula_units_Z 56
_cell_length_a 19.970576
_cell_length_b 19.970576
_cell_length_c 7.920605
_cell_angle_alpha 90.000000
_cell_angle_beta 90.000000
_cell_angle_gamma 90.000000
_cell_volume 3158.926622
_symmetry_space_group_name_H-M "I 4/M"
_symmetry_group_IT_number 87
_symmetry_cell_setting 'tetragonal'
loop_
_space_group_symop_operation_xyz
x,y,z
-y,x,z
-x,-y,z
y,-x,z
-x,-y,-z
y,-x,-z
x,y,-z
-y,x,-z
1/2+x,1/2+y,1/2+z
1/2-y,1/2+x,1/2+z
1/2-x,1/2-y,1/2+z
1/2+y,1/2-x,1/2+z
1/2-x,1/2-y,1/2-z
1/2+y,1/2-x,1/2-z
1/2+x,1/2+y,1/2-z
1/2-y,1/2+x,1/2-z
loop_
_atom_site_type_symbol
_atom_site_label
_atom_site_fract_x
_atom_site_fract_y
_atom_site_fract_z
Si Si1 0.138879 0.260946 0.800833
Si Si2 0.609944 0.482065 0.500000
Si Si3 0.647310 0.260333 0.203057
Si Si4 0.505363 0.709347 0.193517
O O1 0.191979 0.316594 0.739613
O O2 0.177869 0.190306 0.775038
O O3 0.067636 0.260052 0.709220
O O4 0.127285 0.270423 0.000000
O O5 0.573955 0.553542 0.500000
O O6 0.653650 0.477503 0.331636
O O7 0.568468 0.263452 0.238955
O O8 0.655140 0.263588 0.000000
O O9 0.502331 0.684626 0.000000
#
# Coordination Sequence:
#
# PCOD9545622 Si02
#       4
#    16   8  16  16
#     4  10  19  34  56  82 110 142 187 235 279 333
#     4  11  24  38  54  80 112 151 192 226 270 337
#     4   9  20  35  54  81 111 144 184 233 284 333
#     4  11  22  37  56  80 113 149 185 230 283 333
#
# _framework density 17.727540999999999
#
# number of rings (size 3 to 8) (size 9 to 14) (size 15 to 20)
#    0.000    1.857    1.429    2.571    2.000    4.571 
#    0.000    1.429    0.000    0.857    0.000    6.000 
#    0.000    0.000    0.000    0.000    0.000    0.000 
#
# Total GULP energy -156254.389367 kJ/mol
# GULP energy per Si atom -5580.513906 kJ/mol
# Density = 1.768719 g / cm^3
# Si number density = 17.727541 Si / 1000 Ang^3
#
#
#
# Elastic Constant Matrix: (Units=GPa)
#
#
# Indices 1 2 3 4 5 6 
#
# 1 90.9583 25.6304 19.7467 0.0000 0.0000 10.0383
# 2 25.6304 90.9583 19.7467 0.0000 0.0000 -10.0383
# 3 19.7467 19.7467 61.2668 0.0000 0.0000 0.0000
# 4 0.0000 0.0000 0.0000 0.5226 0.0000 0.0000
# 5 0.0000 0.0000 0.0000 0.0000 0.5226 0.0000
# 6 10.0383 -10.0383 0.0000 0.0000 0.0000 -326.6310
#
#
#
# Elastic Compliance Matrix: (Units=1/GPa)
#
#
# Indices 1 2 3 4 5 6 
#
# 1 0.012396 -0.002768 -0.003103 0.000000 0.000000 0.000466
# 2 -0.002768 0.012396 -0.003103 0.000000 0.000000 -0.000466
# 3 -0.003103 -0.003103 0.018322 0.000000 0.000000 0.000000
# 4 0.000000 0.000000 0.000000 1.913623 0.000000 0.000000
# 5 0.000000 0.000000 0.000000 0.000000 1.913623 0.000000
# 6 0.000466 -0.000466 0.000000 0.000000 0.000000 -0.003033
#
#
# Mechanical properties :
#
#
# Convention : Reuss Voigt Hill
#
# Bulk Modulus (GPa) = 39.73606 41.49235 40.61421
# Shear Modulus (GPa) = 1.28414 -53.24654 -25.98120
#
# Velocity S-wave (km/s) = 0.85203 -5.48646 -3.83245
# Velocity P-wave (km/s) = 4.84061 4.08395 1.83751
#
# Compressibility (1/GPa) = 0.02516606
#
# Stress axis : x y z
#
# Youngs Moduli (GPa) = 80.66943 80.66943 54.57772
#
# Poissons Ratio (x) = 0.22328 0.16937
# Poissons Ratio (y) = 0.22328 0.16937
# Poissons Ratio (z) = 0.25034 0.25034
#
# Static dielectric constant tensor:
#      x y z
#    x 1.609530 0.000000 0.000000 
#    y 0.000000 1.609530 0.000000 
#    z 0.000000 0.000000 1.619270 
# 
# From -- ./inp_files/732.got.cif
#   From: 2010.05.17/outbox.cif.g08.bks.cpg/sg87_1_cif.got.tgz:732.got - 2010.06.03 19:07:00.
