data_PCOD9545623
_publ_section_title
;
Structure prediction by ZEFSAII (Michael W. Deem and Ramdas Pophale) SiO2 
 PCOD9545623
Probable space group: I 4/M
;
_chemical_formula_sum "Si O2"
_cell_formula_units_Z 120
_cell_length_a 26.004269
_cell_length_b 26.004269
_cell_length_c 10.261929
_cell_angle_alpha 90.000000
_cell_angle_beta 90.000000
_cell_angle_gamma 90.000000
_cell_volume 6939.342216
_symmetry_space_group_name_H-M "I 4/M"
_symmetry_group_IT_number 87
_symmetry_cell_setting 'tetragonal'
loop_
_space_group_symop_operation_xyz
x,y,z
-y,x,z
-x,-y,z
y,-x,z
-x,-y,-z
y,-x,-z
x,y,-z
-y,x,-z
1/2+x,1/2+y,1/2+z
1/2-y,1/2+x,1/2+z
1/2-x,1/2-y,1/2+z
1/2+y,1/2-x,1/2+z
1/2-x,1/2-y,1/2-z
1/2+y,1/2-x,1/2-z
1/2+x,1/2+y,1/2-z
1/2-y,1/2+x,1/2-z
loop_
_atom_site_type_symbol
_atom_site_label
_atom_site_fract_x
_atom_site_fract_y
_atom_site_fract_z
Si Si1 0.873565 0.656663 0.848455
Si Si2 0.964304 0.830327 0.291764
Si Si3 0.082545 0.811674 0.658668
Si Si4 0.032392 0.081246 0.500000
Si Si5 0.754266 0.293363 0.356836
Si Si6 0.788007 0.449998 0.849779
Si Si7 0.804446 0.568401 0.843194
Si Si8 0.632606 0.656861 0.645162
O O1 0.822653 0.691898 0.850549
O O2 0.912644 0.684437 0.751640
O O3 0.853022 0.601575 0.798582
O O4 0.891941 0.653939 0.000000
O O5 0.955790 0.881025 0.379585
O O6 0.946823 0.774425 0.346869
O O7 0.928372 0.836642 0.166284
O O8 0.025784 0.825435 0.288679
O O9 0.083569 0.817883 0.500000
O O10 0.091208 0.751488 0.691198
O O11 0.122735 0.845433 0.737673
O O12 0.971962 0.064415 0.500000
O O13 0.748506 0.269435 0.500000
O O14 0.750000 0.250000 0.250000
O O15 0.710866 0.337338 0.344786
O O16 0.802728 0.508324 0.810422
O O17 0.803771 0.440866 0.000000
O O18 0.806402 0.570842 0.000000
O O19 0.643010 0.635890 0.500000
#
# Coordination Sequence:
#
# PCOD9545623 Si02
#       8
#    16  16  16   8  16  16  16  16
#     4  10  19  35  55  78 112 150 182 222 285 344
#     4  11  20  36  57  80 110 142 191 234 287 337
#     4  10  20  36  60  83 105 142 193 240 277 333
#     4  11  22  36  56  86 114 138 186 259 298 326
#     4  10  21  36  52  79 113 148 187 223 278 345
#     4  10  19  34  57  84 109 140 190 237 273 331
#     4   8  17  34  56  81 111 144 181 229 282 333
#     4  11  24  37  53  79 115 150 181 230 289 350
#
# _framework density 17.292705999999999
#
# number of rings (size 3 to 8) (size 9 to 14) (size 15 to 20)
#    0.000    1.933    2.667    2.400    0.933    2.667 
#    0.000    3.333    0.000    0.400    0.000    5.600 
#    0.000    0.000    0.000    0.000    0.000    0.000 
#
# Total GULP energy -334243.329060 kJ/mol
# GULP energy per Si atom -5570.722151 kJ/mol
# Density = 1.725335 g / cm^3
# Si number density = 17.292706 Si / 1000 Ang^3
#
#
#
# Elastic Constant Matrix: (Units=GPa)
#
#
# Indices 1 2 3 4 5 6 
#
# 1 71.3252 40.6589 44.3901 0.0000 0.0000 4.1456
# 2 40.6589 71.3252 44.3901 0.0000 0.0000 -4.1456
# 3 44.3901 44.3901 75.3599 0.0000 0.0000 0.0000
# 4 0.0000 0.0000 0.0000 23.2586 0.0000 0.0000
# 5 0.0000 0.0000 0.0000 0.0000 23.2586 0.0000
# 6 4.1456 -4.1456 0.0000 0.0000 0.0000 30.2146
#
#
#
# Elastic Compliance Matrix: (Units=1/GPa)
#
#
# Indices 1 2 3 4 5 6 
#
# 1 0.025309 -0.008556 -0.009869 0.000000 0.000000 -0.004646
# 2 -0.008556 0.025309 -0.009869 0.000000 0.000000 0.004646
# 3 -0.009869 -0.009869 0.024896 0.000000 0.000000 0.000000
# 4 0.000000 0.000000 0.000000 0.042995 0.000000 0.000000
# 5 0.000000 0.000000 0.000000 0.000000 0.042995 0.000000
# 6 -0.004646 0.004646 0.000000 0.000000 0.000000 0.034372
#
#
# Mechanical properties :
#
#
# Convention : Reuss Voigt Hill
#
# Bulk Modulus (GPa) = 52.83022 52.98762 52.90892
# Shear Modulus (GPa) = 19.32210 21.25112 20.28661
#
# Velocity S-wave (km/s) = 3.34631 3.50938 3.42882
# Velocity P-wave (km/s) = 6.74887 6.86506 6.80722
#
# Compressibility (1/GPa) = 0.01892856
#
# Stress axis : x y z
#
# Youngs Moduli (GPa) = 39.51100 39.51100 40.16770
#
# Poissons Ratio (x) = 0.33805 0.39640
# Poissons Ratio (y) = 0.33805 0.39640
# Poissons Ratio (z) = 0.38992 0.38992
#
# Static dielectric constant tensor:
#      x y z
#    x 1.601250 0.000000 0.000000 
#    y 0.000000 1.601250 0.000000 
#    z 0.000000 0.000000 1.589220 
# 
# From -- ./inp_files/1685.got.cif
#   From: 2010.05.17/outbox.cif.g08.bks.cpg/sg87_1_cif.got.tgz:1685.got - 2010.06.03 19:07:00.
