data_PCOD9545924
_publ_section_title
;
Structure prediction by ZEFSAII (Michael W. Deem and Ramdas Pophale) SiO2 
 PCOD9545924
Probable space group: I 4/M
;
_chemical_formula_sum "Si O2"
_cell_formula_units_Z 112
_cell_length_a 14.084620
_cell_length_b 14.084620
_cell_length_c 30.170175
_cell_angle_alpha 90.000000
_cell_angle_beta 90.000000
_cell_angle_gamma 90.000000
_cell_volume 5985.054341
_symmetry_space_group_name_H-M "I 4/M"
_symmetry_group_IT_number 87
_symmetry_cell_setting 'tetragonal'
loop_
_space_group_symop_operation_xyz
x,y,z
-y,x,z
-x,-y,z
y,-x,z
-x,-y,-z
y,-x,-z
x,y,-z
-y,x,-z
1/2+x,1/2+y,1/2+z
1/2-y,1/2+x,1/2+z
1/2-x,1/2-y,1/2+z
1/2+y,1/2-x,1/2+z
1/2-x,1/2-y,1/2-z
1/2+y,1/2-x,1/2-z
1/2+x,1/2+y,1/2-z
1/2-y,1/2+x,1/2-z
loop_
_atom_site_type_symbol
_atom_site_label
_atom_site_fract_x
_atom_site_fract_y
_atom_site_fract_z
Si Si1 0.113838 0.643150 0.816267
Si Si2 0.213967 0.477615 0.772837
Si Si3 0.144519 0.258586 0.083519
Si Si4 0.867118 0.610239 0.000000
Si Si5 0.420533 0.778978 0.412644
Si Si6 0.402287 0.897808 0.500000
Si Si7 0.445136 0.353141 0.285421
Si Si8 0.708239 0.783392 0.322710
O O1 0.145034 0.537136 0.804164
O O2 0.043406 0.671883 0.776247
O O3 0.080690 0.662726 0.866307
O O4 0.206773 0.710092 0.813663
O O5 0.309398 0.538713 0.763697
O O6 0.228262 0.375076 0.793672
O O7 0.192012 0.154053 0.086417
O O8 0.190655 0.308826 0.126339
O O9 0.030185 0.248025 0.082970
O O10 0.164519 0.327001 0.041900
O O11 0.845750 0.497622 0.000000
O O12 0.982142 0.600362 0.000000
O O13 0.385383 0.842321 0.454090
O O14 0.552978 0.383798 0.295329
O O15 0.388631 0.271470 0.310349
#
# Coordination Sequence:
#
# PCOD9545924 Si02
#       8
#    16  16  16   8  16   8  16  16
#     4  11  24  39  57  86 125 159 206 252 312 360
#     4  12  22  39  57  82 122 166 202 262 305 355
#     4  10  22  38  61  88 122 157 198 250 306 369
#     4   9  19  38  59  89 117 153 191 237 303 354
#     4  10  22  40  60  91 121 159 202 250 304 370
#     4   9  19  38  65  85 119 153 191 245 289 360
#     4  11  22  38  62  83 110 162 214 248 300 369
#     4  11  23  41  58  86 126 158 204 265 304 364
#
# _framework density 18.713280999999998
#
# number of rings (size 3 to 8) (size 9 to 14) (size 15 to 20)
#    0.000    1.429    2.857    2.571    4.000    0.571 
#    0.000    0.000    0.000    2.571    0.000    0.000 
#    0.000    4.571    0.000    0.000    0.000    0.000 
#
# Total GULP energy -311926.478987 kJ/mol
# GULP energy per Si atom -5570.115696 kJ/mol
# Density = 1.867069 g / cm^3
# Si number density = 18.713281 Si / 1000 Ang^3
#
#
#
# Elastic Constant Matrix: (Units=GPa)
#
#
# Indices 1 2 3 4 5 6 
#
# 1 47.5951 23.9850 38.9979 0.0000 0.0000 7.2440
# 2 23.9850 47.5951 38.9979 0.0000 0.0000 -7.2440
# 3 38.9979 38.9979 128.5901 0.0000 0.0000 0.0000
# 4 0.0000 0.0000 0.0000 18.0481 0.0000 0.0000
# 5 0.0000 0.0000 0.0000 0.0000 18.0481 0.0000
# 6 7.2440 -7.2440 0.0000 0.0000 0.0000 12.9475
#
#
#
# Elastic Compliance Matrix: (Units=1/GPa)
#
#
# Indices 1 2 3 4 5 6 
#
# 1 0.042682 -0.021817 -0.006328 0.000000 0.000000 -0.036087
# 2 -0.021817 0.042682 -0.006328 0.000000 0.000000 0.036087
# 3 -0.006328 -0.006328 0.011615 0.000000 0.000000 0.000000
# 4 0.000000 0.000000 0.000000 0.055408 0.000000 0.000000
# 5 0.000000 0.000000 0.000000 0.000000 0.055408 0.000000
# 6 -0.036087 0.036087 0.000000 0.000000 0.000000 0.117616
#
#
# Mechanical properties :
#
#
# Convention : Reuss Voigt Hill
#
# Bulk Modulus (GPa) = 35.67096 47.52692 41.59894
# Shear Modulus (GPa) = 12.38540 17.92868 15.15704
#
# Velocity S-wave (km/s) = 2.57544 3.09863 2.84907
# Velocity P-wave (km/s) = 5.28650 6.18503 5.75333
#
# Compressibility (1/GPa) = 0.02803401
#
# Stress axis : x y z
#
# Youngs Moduli (GPa) = 23.42889 23.42889 86.09679
#
# Poissons Ratio (x) = 0.51115 0.54481
# Poissons Ratio (y) = 0.51115 0.54481
# Poissons Ratio (z) = 0.14826 0.14826
#
# Static dielectric constant tensor:
#      x y z
#    x 1.695110 0.000000 0.000000 
#    y 0.000000 1.695110 0.000000 
#    z 0.000000 0.000000 1.688080 
# 
# From -- ./inp_files/6331.got.cif
#   From: 2010.05.17/outbox.cif.g08.bks.cpg/sg87_4_cif.got.tgz:6331.got - 2010.06.03 19:07:00.
