data_PCOD9545332
_publ_section_title
;
Structure prediction by ZEFSAII (Michael W. Deem and Ramdas Pophale) SiO2 
 PCOD9545332
Probable space group: P 42/N
;
_chemical_formula_sum "Si O2"
_cell_formula_units_Z 40
_cell_length_a 8.392820
_cell_length_b 8.392820
_cell_length_c 24.563707
_cell_angle_alpha 90.000000
_cell_angle_beta 90.000000
_cell_angle_gamma 90.000000
_cell_volume 1730.253460
_symmetry_space_group_name_H-M "P 42/N"
_symmetry_group_IT_number 86
_space_group.IT_coordinate_system_code '2'
_symmetry_cell_setting 'tetragonal'
loop_
_space_group_symop_operation_xyz
x,y,z
-y,1/2+x,1/2+z
1/2-x,1/2-y,z
1/2+y,-x,1/2+z
-x,-y,-z
y,1/2-x,1/2-z
1/2+x,1/2+y,-z
1/2-y,x,1/2-z
loop_
_atom_site_type_symbol
_atom_site_label
_atom_site_fract_x
_atom_site_fract_y
_atom_site_fract_z
Si Si1 0.234558 0.440643 0.118377
Si Si2 0.994040 0.726001 0.736997
Si Si3 0.560901 0.947943 0.441144
Si Si4 0.097931 0.425054 0.907301
Si Si5 0.043190 0.174419 0.718450
O O1 0.250000 0.250000 0.122112
O O2 0.209376 0.525770 0.177195
O O3 0.403018 0.505849 0.096145
O O4 0.069125 0.479972 0.086692
O O5 0.857294 0.593509 0.727612
O O6 0.127062 0.636275 0.770141
O O7 0.502817 0.765787 0.429110
O O8 0.751887 0.931811 0.433764
O O9 0.500000 0.000000 0.500000
O O10 0.135756 0.407403 0.842665
O O11 0.078567 0.352013 0.737265
#
# Coordination Sequence:
#
# PCOD9545332 Si02
#       5
#     8   8   8   8   8
#     4  12  24  44  73 105 146 190 235 296 364 439
#     4  11  20  39  61  96 142 180 220 261 339 427
#     4  11  27  48  73 101 133 186 252 316 374 437
#     4  11  24  49  71 103 146 185 244 306 373 443
#     4  11  21  36  64 100 136 178 223 280 346 432
#
# _framework density 23.117999999999999
#
# number of rings (size 3 to 8) (size 9 to 14) (size 15 to 20)
#    0.000    0.800    4.000    5.400    2.800    2.400 
#    3.600    4.000    0.000    0.000    0.000    0.000 
#    0.000    0.000    0.000    0.000    0.000    0.000 
#
# Total GULP energy -223341.144156 kJ/mol
# GULP energy per Si atom -5583.528604 kJ/mol
# Density = 2.306538 g / cm^3
# Si number density = 23.118000 Si / 1000 Ang^3
#
#
#
# Elastic Constant Matrix: (Units=GPa)
#
#
# Indices 1 2 3 4 5 6 
#
# 1 101.6314 93.9333 37.9678 0.0000 0.0000 6.4599
# 2 93.9333 101.6314 37.9678 0.0000 0.0000 -6.4599
# 3 37.9678 37.9678 109.5034 0.0000 0.0000 0.0000
# 4 0.0000 0.0000 0.0000 25.1268 0.0000 0.0000
# 5 0.0000 0.0000 0.0000 0.0000 25.1268 0.0000
# 6 6.4599 -6.4599 0.0000 0.0000 0.0000 52.8812
#
#
#
# Elastic Compliance Matrix: (Units=1/GPa)
#
#
# Indices 1 2 3 4 5 6 
#
# 1 0.084655 -0.078747 -0.002049 0.000000 0.000000 -0.019961
# 2 -0.078747 0.084655 -0.002049 0.000000 0.000000 0.019961
# 3 -0.002049 -0.002049 0.010553 0.000000 0.000000 0.000000
# 4 0.000000 0.000000 0.000000 0.039798 0.000000 0.000000
# 5 0.000000 0.000000 0.000000 0.000000 0.039798 0.000000
# 6 -0.019961 0.019961 0.000000 0.000000 0.000000 0.023787
#
#
# Mechanical properties :
#
#
# Convention : Reuss Voigt Hill
#
# Bulk Modulus (GPa) = 70.54384 72.50043 71.52213
# Shear Modulus (GPa) = 11.02145 30.15344 20.58744
#
# Velocity S-wave (km/s) = 2.18582 3.61547 2.98742
# Velocity P-wave (km/s) = 6.07876 6.98984 6.55016
#
# Compressibility (1/GPa) = 0.01417558
#
# Stress axis : x y z
#
# Youngs Moduli (GPa) = 11.81258 11.81258 94.76093
#
# Poissons Ratio (x) = 0.93020 0.19414
# Poissons Ratio (y) = 0.93020 0.19414
# Poissons Ratio (z) = 0.02420 0.02420
#
# Static dielectric constant tensor:
#      x y z
#    x 1.846250 0.000000 0.000000 
#    y 0.000000 1.846250 0.000000 
#    z 0.000000 0.000000 1.963340 
# 
# From -- ./inp_files/4834.got.cif
#   From: 2010.05.17/outbox.cif.g08.bks.cpg/sg86_3_cif.got.tgz:4834.got - 2010.06.03 19:03:11.
