data_PCOD9545199
_publ_section_title
;
Structure prediction by ZEFSAII (Michael W. Deem and Ramdas Pophale) SiO2 
 PCOD9545199
Probable space group: P 42/N
;
_chemical_formula_sum "Si O2"
_cell_formula_units_Z 34
_cell_length_a 11.529995
_cell_length_b 11.529995
_cell_length_c 12.271603
_cell_angle_alpha 90.000000
_cell_angle_beta 90.000000
_cell_angle_gamma 90.000000
_cell_volume 1631.396532
_symmetry_space_group_name_H-M "P 42/N"
_symmetry_group_IT_number 86
_space_group.IT_coordinate_system_code '2'
_symmetry_cell_setting 'tetragonal'
loop_
_space_group_symop_operation_xyz
x,y,z
-y,1/2+x,1/2+z
1/2-x,1/2-y,z
1/2+y,-x,1/2+z
-x,-y,-z
y,1/2-x,1/2-z
1/2+x,1/2+y,-z
1/2-y,x,1/2-z
loop_
_atom_site_type_symbol
_atom_site_label
_atom_site_fract_x
_atom_site_fract_y
_atom_site_fract_z
Si Si1 0.387958 0.522834 0.142628
Si Si2 0.393930 0.038409 0.828287
Si Si3 0.750000 0.750000 0.250000
Si Si4 0.550284 0.361700 0.251610
Si Si5 0.776095 0.122444 0.059147
O O1 0.474155 0.608378 0.209239
O O2 0.443951 0.399272 0.172643
O O3 0.261377 0.532099 0.195399
O O4 0.365539 0.554985 0.018444
O O5 0.319454 0.154731 0.820031
O O6 0.531718 0.059644 0.836952
O O7 0.337672 0.953168 0.916160
O O8 0.662250 0.360978 0.175283
O O9 0.750000 0.250000 0.012645
#
# Coordination Sequence:
#
# PCOD9545199 Si02
#       5
#     8   8   2   8   8
#     4  10  24  41  66  93 135 173 217 272 327 389
#     4  10  23  39  65  96 128 171 218 270 323 388
#     4  12  20  40  68  88 140 166 208 272 336 376
#     4  10  22  43  63  95 137 170 219 275 327 383
#     4  12  22  39  70  98 125 178 224 266 335 395
#
# _framework density 20.841038000000001
#
# number of rings (size 3 to 8) (size 9 to 14) (size 15 to 20)
#    1.412    0.000    4.706    0.706    3.294    1.412 
#    0.000    4.706    0.000    0.000    0.000    0.000 
#    0.000    0.000    0.000    0.000    0.000    0.000 
#
# Total GULP energy -189570.246020 kJ/mol
# GULP energy per Si atom -5575.595471 kJ/mol
# Density = 2.079360 g / cm^3
# Si number density = 20.841038 Si / 1000 Ang^3
#
#
#
# Elastic Constant Matrix: (Units=GPa)
#
#
# Indices 1 2 3 4 5 6 
#
# 1 93.8511 25.2027 1.7327 0.0000 0.0000 -5.2971
# 2 25.2027 93.8511 1.7327 0.0000 0.0000 5.2971
# 3 1.7327 1.7327 32.8929 0.0000 0.0000 0.0000
# 4 0.0000 0.0000 0.0000 13.5555 0.0000 0.0000
# 5 0.0000 0.0000 0.0000 0.0000 13.5555 0.0000
# 6 -5.2971 5.2971 0.0000 0.0000 0.0000 19.1885
#
#
#
# Elastic Compliance Matrix: (Units=1/GPa)
#
#
# Indices 1 2 3 4 5 6 
#
# 1 0.011814 -0.003401 -0.000443 0.000000 0.000000 0.004200
# 2 -0.003401 0.011814 -0.000443 0.000000 0.000000 -0.004200
# 3 -0.000443 -0.000443 0.030448 0.000000 0.000000 0.000000
# 4 0.000000 0.000000 0.000000 0.073771 0.000000 0.000000
# 5 0.000000 0.000000 0.000000 0.000000 0.073771 0.000000
# 6 0.004200 -0.004200 0.000000 0.000000 0.000000 0.054433
#
#
# Mechanical properties :
#
#
# Convention : Reuss Voigt Hill
#
# Bulk Modulus (GPa) = 21.97770 30.88129 26.42949
# Shear Modulus (GPa) = 17.87037 22.05505 19.96271
#
# Velocity S-wave (km/s) = 2.93142 3.25661 3.09828
# Velocity P-wave (km/s) = 4.69318 5.38427 5.05056
#
# Compressibility (1/GPa) = 0.04550067
#
# Stress axis : x y z
#
# Youngs Moduli (GPa) = 84.64657 84.64657 32.84249
#
# Poissons Ratio (x) = 0.28791 0.01455
# Poissons Ratio (y) = 0.28791 0.01455
# Poissons Ratio (z) = 0.03751 0.03751
#
# Static dielectric constant tensor:
#      x y z
#    x 1.745700 0.000000 0.000000 
#    y 0.000000 1.745700 0.000000 
#    z 0.000000 0.000000 1.756360 
# 
# From -- ./inp_files/1964.got.cif
#   From: 2010.05.17/outbox.cif.g08.bks.cpg/sg86_1_cif.got.tgz:1964.got - 2010.06.03 19:03:11.
