data_PCOD9545390
_publ_section_title
;
Structure prediction by ZEFSAII (Michael W. Deem and Ramdas Pophale) SiO2 
 PCOD9545390
Probable space group: P 42/N
;
_chemical_formula_sum "Si O2"
_cell_formula_units_Z 36
_cell_length_a 8.740812
_cell_length_b 8.740812
_cell_length_c 23.804305
_cell_angle_alpha 90.000000
_cell_angle_beta 90.000000
_cell_angle_gamma 90.000000
_cell_volume 1818.691617
_symmetry_space_group_name_H-M "P 42/N"
_symmetry_group_IT_number 86
_space_group.IT_coordinate_system_code '2'
_symmetry_cell_setting 'tetragonal'
loop_
_space_group_symop_operation_xyz
x,y,z
-y,1/2+x,1/2+z
1/2-x,1/2-y,z
1/2+y,-x,1/2+z
-x,-y,-z
y,1/2-x,1/2-z
1/2+x,1/2+y,-z
1/2-y,x,1/2-z
loop_
_atom_site_type_symbol
_atom_site_label
_atom_site_fract_x
_atom_site_fract_y
_atom_site_fract_z
Si Si1 0.250000 0.750000 0.905231
Si Si2 0.809699 0.581515 0.534753
Si Si3 0.596473 0.336833 0.934111
Si Si4 0.203991 0.498697 0.811353
Si Si5 0.498794 0.718959 0.189265
O O1 0.416604 0.735667 0.936553
O O2 0.231097 0.605923 0.863920
O O3 0.750000 0.750000 0.552097
O O4 0.771052 0.548036 0.469045
O O5 0.989174 0.600690 0.546209
O O6 0.750000 0.250000 0.951023
O O7 0.584133 0.328951 0.867256
O O8 0.196445 0.577798 0.750027
O O9 0.348780 0.385125 0.807123
O O10 0.054782 0.393224 0.818300
#
# Coordination Sequence:
#
# PCOD9545390 Si02
#       5
#     4   8   8   8   8
#     4  12  22  44  62  94 136 174 206 280 334 398
#     4  11  27  44  63  96 133 172 214 271 339 387
#     4  11  24  42  65  94 127 166 223 264 317 408
#     4   9  20  36  65  89 127 165 214 262 322 377
#     4   9  19  39  61  95 119 168 218 260 312 396
#
# _framework density 19.794449
#
# number of rings (size 3 to 8) (size 9 to 14) (size 15 to 20)
#    0.000    1.778    3.333    1.333    7.778    0.889 
#    0.000    0.000    0.000    0.000    0.000    0.000 
#    0.000    0.000    0.000    0.000    0.000    0.000 
#
# Total GULP energy -200402.907854 kJ/mol
# GULP energy per Si atom -5566.747440 kJ/mol
# Density = 1.974940 g / cm^3
# Si number density = 19.794449 Si / 1000 Ang^3
#
#
#
# Elastic Constant Matrix: (Units=GPa)
#
#
# Indices 1 2 3 4 5 6 
#
# 1 89.0265 33.0228 34.3376 0.0000 0.0000 -2.4302
# 2 33.0228 89.0265 34.3376 0.0000 0.0000 2.4302
# 3 34.3376 34.3376 108.0205 0.0000 0.0000 0.0000
# 4 0.0000 0.0000 0.0000 26.9498 0.0000 0.0000
# 5 0.0000 0.0000 0.0000 0.0000 26.9498 0.0000
# 6 -2.4302 2.4302 0.0000 0.0000 0.0000 23.8454
#
#
#
# Elastic Compliance Matrix: (Units=1/GPa)
#
#
# Indices 1 2 3 4 5 6 
#
# 1 0.013997 -0.004019 -0.003172 0.000000 0.000000 0.001836
# 2 -0.004019 0.013997 -0.003172 0.000000 0.000000 -0.001836
# 3 -0.003172 -0.003172 0.011274 0.000000 0.000000 0.000000
# 4 0.000000 0.000000 0.000000 0.037106 0.000000 0.000000
# 5 0.000000 0.000000 0.000000 0.000000 0.037106 0.000000
# 6 0.001836 -0.001836 0.000000 0.000000 0.000000 0.042311
#
#
# Mechanical properties :
#
#
# Convention : Reuss Voigt Hill
#
# Bulk Modulus (GPa) = 53.92890 54.38549 54.15719
# Shear Modulus (GPa) = 27.36786 27.84072 27.60429
#
# Velocity S-wave (km/s) = 3.72237 3.75439 3.73841
# Velocity P-wave (km/s) = 6.76597 6.80652 6.78627
#
# Compressibility (1/GPa) = 0.01854293
#
# Stress axis : x y z
#
# Youngs Moduli (GPa) = 71.44521 71.44521 88.69932
#
# Poissons Ratio (x) = 0.28711 0.28134
# Poissons Ratio (y) = 0.28711 0.28134
# Poissons Ratio (z) = 0.22661 0.22661
#
# Static dielectric constant tensor:
#      x y z
#    x 1.746130 0.000000 0.000000 
#    y 0.000000 1.746130 0.000000 
#    z 0.000000 0.000000 1.753390 
# 
# From -- ./inp_files/4011.got.cif
#   From: 2010.05.17/outbox.cif.g08.bks.cpg/sg86_3_cif.got.tgz:4011.got - 2010.06.03 19:03:11.
