data_PCOD9545374
_publ_section_title
;
Structure prediction by ZEFSAII (Michael W. Deem and Ramdas Pophale) SiO2 
 PCOD9545374
Probable space group: P 42/N
;
_chemical_formula_sum "Si O2"
_cell_formula_units_Z 38
_cell_length_a 8.478883
_cell_length_b 8.478883
_cell_length_c 24.346455
_cell_angle_alpha 90.000000
_cell_angle_beta 90.000000
_cell_angle_gamma 90.000000
_cell_volume 1750.302121
_symmetry_space_group_name_H-M "P 42/N"
_symmetry_group_IT_number 86
_space_group.IT_coordinate_system_code '2'
_symmetry_cell_setting 'tetragonal'
loop_
_space_group_symop_operation_xyz
x,y,z
-y,1/2+x,1/2+z
1/2-x,1/2-y,z
1/2+y,-x,1/2+z
-x,-y,-z
y,1/2-x,1/2-z
1/2+x,1/2+y,-z
1/2-y,x,1/2-z
loop_
_atom_site_type_symbol
_atom_site_label
_atom_site_fract_x
_atom_site_fract_y
_atom_site_fract_z
Si Si1 0.914221 0.190847 0.195223
Si Si2 0.750000 0.250000 0.499172
Si Si3 0.489927 0.970202 0.197503
Si Si4 0.499519 0.831151 0.413933
Si Si5 0.750000 0.750000 0.250000
Si Si6 0.170602 0.993803 0.587784
O O1 0.750000 0.250000 0.220888
O O2 0.992615 0.098717 0.244824
O O3 0.994469 0.351726 0.176160
O O4 0.873336 0.084770 0.143213
O O5 0.629671 0.155704 0.538269
O O6 0.651541 0.366836 0.459989
O O7 0.650240 0.874854 0.214083
O O8 0.421299 0.867259 0.147716
O O9 0.651250 0.942531 0.417610
O O10 0.561677 0.650249 0.415414
#
# Coordination Sequence:
#
# PCOD9545374 Si02
#       6
#     8   4   8   8   2   8
#     4  12  24  41  67  93 132 167 210 268 319 391
#     4  12  24  42  64  96 128 166 210 284 328 364
#     4  12  24  40  64  99 127 169 211 263 326 382
#     4  11  23  44  66  93 127 173 217 263 323 381
#     4  12  20  36  68  92 120 164 228 252 300 406
#     4  11  24  40  68  96 125 169 223 263 312 396
#
# _framework density 21.710539000000001
#
# number of rings (size 3 to 8) (size 9 to 14) (size 15 to 20)
#    0.000    0.421    5.263    3.789    1.474    0.421 
#    0.000    0.000    0.000    0.000    0.000    0.000 
#    0.000    0.000    0.000    0.000    0.000    0.000 
#
# Total GULP energy -212358.814979 kJ/mol
# GULP energy per Si atom -5588.389868 kJ/mol
# Density = 2.166112 g / cm^3
# Si number density = 21.710539 Si / 1000 Ang^3
#
#
#
# Elastic Constant Matrix: (Units=GPa)
#
#
# Indices 1 2 3 4 5 6 
#
# 1 63.0650 10.9374 37.3605 0.0000 0.0000 -1.2961
# 2 10.9374 63.0650 37.3605 0.0000 0.0000 1.2961
# 3 37.3605 37.3605 150.0604 0.0000 0.0000 0.0000
# 4 0.0000 0.0000 0.0000 20.4385 0.0000 0.0000
# 5 0.0000 0.0000 0.0000 0.0000 20.4385 0.0000
# 6 -1.2961 1.2961 0.0000 0.0000 0.0000 12.5300
#
#
#
# Elastic Compliance Matrix: (Units=1/GPa)
#
#
# Indices 1 2 3 4 5 6 
#
# 1 0.018667 -0.000616 -0.004494 0.000000 0.000000 0.001995
# 2 -0.000616 0.018667 -0.004494 0.000000 0.000000 -0.001995
# 3 -0.004494 -0.004494 0.008902 0.000000 0.000000 0.000000
# 4 0.000000 0.000000 0.000000 0.048927 0.000000 0.000000
# 5 0.000000 0.000000 0.000000 0.000000 0.048927 0.000000
# 6 0.001995 -0.001995 0.000000 0.000000 0.000000 0.080221
#
#
# Mechanical properties :
#
#
# Convention : Reuss Voigt Hill
#
# Bulk Modulus (GPa) = 37.00006 49.72304 43.36155
# Shear Modulus (GPa) = 19.79973 23.38353 21.59163
#
# Velocity S-wave (km/s) = 3.02319 3.28542 3.15703
# Velocity P-wave (km/s) = 5.40978 6.11101 5.77105
#
# Compressibility (1/GPa) = 0.02702698
#
# Stress axis : x y z
#
# Youngs Moduli (GPa) = 53.57091 53.57091 112.33703
#
# Poissons Ratio (x) = 0.03300 0.50486
# Poissons Ratio (y) = 0.03300 0.50486
# Poissons Ratio (z) = 0.24075 0.24075
#
# Static dielectric constant tensor:
#      x y z
#    x 1.822100 0.000000 0.000000 
#    y 0.000000 1.822100 0.000000 
#    z 0.000000 0.000000 1.780080 
# 
# From -- ./inp_files/4509.got.cif
#   From: 2010.05.17/outbox.cif.g08.bks.cpg/sg86_3_cif.got.tgz:4509.got - 2010.06.03 19:03:11.
