data_PCOD9545083
_publ_section_title
;
Structure prediction by ZEFSAII (Michael W. Deem and Ramdas Pophale) SiO2 
 PCOD9545083
Probable space group: P 42/N
;
_chemical_formula_sum "Si O2"
_cell_formula_units_Z 50
_cell_length_a 15.297221
_cell_length_b 15.297221
_cell_length_c 12.214091
_cell_angle_alpha 90.000000
_cell_angle_beta 90.000000
_cell_angle_gamma 90.000000
_cell_volume 2858.158002
_symmetry_space_group_name_H-M "P 42/N"
_symmetry_group_IT_number 86
_space_group.IT_coordinate_system_code '2'
_symmetry_cell_setting 'tetragonal'
loop_
_space_group_symop_operation_xyz
x,y,z
-y,1/2+x,1/2+z
1/2-x,1/2-y,z
1/2+y,-x,1/2+z
-x,-y,-z
y,1/2-x,1/2-z
1/2+x,1/2+y,-z
1/2-y,x,1/2-z
loop_
_atom_site_type_symbol
_atom_site_label
_atom_site_fract_x
_atom_site_fract_y
_atom_site_fract_z
Si Si1 0.750000 0.750000 0.750000
Si Si2 0.921271 0.974830 0.080077
Si Si3 0.342707 0.953469 0.127286
Si Si4 0.845756 0.147178 0.594795
Si Si5 0.344114 0.658708 0.847297
Si Si6 0.008389 0.542329 0.770946
Si Si7 0.587568 0.818644 0.614045
O O1 0.678981 0.795063 0.670609
O O2 0.873262 0.066207 0.104409
O O3 0.857923 0.912133 0.009529
O O4 0.967091 0.947754 0.194527
O O5 0.000000 0.000000 0.000000
O O6 0.327134 0.891714 0.232000
O O7 0.436422 0.998713 0.149733
O O8 0.266914 0.025957 0.117783
O O9 0.342380 0.894299 0.019889
O O10 0.742669 0.127183 0.581010
O O11 0.845278 0.239642 0.657877
O O12 0.898892 0.076539 0.663844
O O13 0.956115 0.606924 0.689801
#
# Coordination Sequence:
#
# PCOD9545083 Si02
#       7
#     2   8   8   8   8   8   8
#     4  12  24  36  64  92 114 160 204 268 288 326
#     4   9  20  37  60  80 114 156 193 235 297 349
#     4  11  21  37  58  84 120 151 195 245 294 355
#     4  11  22  36  60  86 123 153 193 243 300 357
#     4  10  22  36  56  89 115 152 195 239 297 355
#     4  10  21  37  59  87 116 156 192 244 296 356
#     4  11  20  38  60  85 117 147 204 245 289 350
#
# _framework density 17.493784000000002
#
# number of rings (size 3 to 8) (size 9 to 14) (size 15 to 20)
#    0.000    1.600    4.800    0.480    0.000    5.120 
#    0.000    0.000    3.520    0.000    0.000    0.000 
#    0.000    0.000    0.000    0.000    0.000    0.000 
#
# Total GULP energy -278765.369584 kJ/mol
# GULP energy per Si atom -5575.307392 kJ/mol
# Density = 1.745397 g / cm^3
# Si number density = 17.493784 Si / 1000 Ang^3
#
#
#
# Elastic Constant Matrix: (Units=GPa)
#
#
# Indices 1 2 3 4 5 6 
#
# 1 65.1978 33.3667 30.6100 0.0000 0.0000 4.4471
# 2 33.3667 65.1978 30.6100 0.0000 0.0000 -4.4471
# 3 30.6100 30.6100 37.6779 0.0000 0.0000 0.0000
# 4 0.0000 0.0000 0.0000 23.4306 0.0000 0.0000
# 5 0.0000 0.0000 0.0000 0.0000 23.4306 0.0000
# 6 4.4471 -4.4471 0.0000 0.0000 0.0000 25.7383
#
#
#
# Elastic Compliance Matrix: (Units=1/GPa)
#
#
# Indices 1 2 3 4 5 6 
#
# 1 0.026745 -0.006265 -0.016638 0.000000 0.000000 -0.005703
# 2 -0.006265 0.026745 -0.016638 0.000000 0.000000 0.005703
# 3 -0.016638 -0.016638 0.053575 0.000000 0.000000 0.000000
# 4 0.000000 0.000000 0.000000 0.042679 0.000000 0.000000
# 5 0.000000 0.000000 0.000000 0.000000 0.042679 0.000000
# 6 -0.005703 0.005703 0.000000 0.000000 0.000000 0.040824
#
#
# Mechanical properties :
#
#
# Convention : Reuss Voigt Hill
#
# Bulk Modulus (GPa) = 35.73715 39.69407 37.71561
# Shear Modulus (GPa) = 15.54461 19.41901 17.48181
#
# Velocity S-wave (km/s) = 2.98414 3.33536 3.16462
# Velocity P-wave (km/s) = 5.68738 6.12964 5.91264
#
# Compressibility (1/GPa) = 0.02798209
#
# Stress axis : x y z
#
# Youngs Moduli (GPa) = 37.39070 37.39070 18.66558
#
# Poissons Ratio (x) = 0.23425 0.31056
# Poissons Ratio (y) = 0.23425 0.31056
# Poissons Ratio (z) = 0.62211 0.62211
#
# Static dielectric constant tensor:
#      x y z
#    x 1.576490 0.000000 0.000000 
#    y 0.000000 1.576490 0.000000 
#    z 0.000000 0.000000 1.591650 
# 
# From -- ./inp_files/2304.got.cif
#   From: 2010.05.17/outbox.cif.g08.bks.cpg/sg86_2_cif.got.tgz:2304.got - 2010.06.03 19:03:11.
