data_PCOD9545950
_publ_section_title
;
Structure prediction by ZEFSAII (Michael W. Deem and Ramdas Pophale) SiO2 
 PCOD9545950
Probable space group: I 4/M
;
_chemical_formula_sum "Si O2"
_cell_formula_units_Z 88
_cell_length_a 11.702766
_cell_length_b 11.702766
_cell_length_c 31.992965
_cell_angle_alpha 90.000000
_cell_angle_beta 90.000000
_cell_angle_gamma 90.000000
_cell_volume 4381.587949
_symmetry_space_group_name_H-M "I 4/M"
_symmetry_group_IT_number 87
_symmetry_cell_setting 'tetragonal'
loop_
_space_group_symop_operation_xyz
x,y,z
-y,x,z
-x,-y,z
y,-x,z
-x,-y,-z
y,-x,-z
x,y,-z
-y,x,-z
1/2+x,1/2+y,1/2+z
1/2-y,1/2+x,1/2+z
1/2-x,1/2-y,1/2+z
1/2+y,1/2-x,1/2+z
1/2-x,1/2-y,1/2-z
1/2+y,1/2-x,1/2-z
1/2+x,1/2+y,1/2-z
1/2-y,1/2+x,1/2-z
loop_
_atom_site_type_symbol
_atom_site_label
_atom_site_fract_x
_atom_site_fract_y
_atom_site_fract_z
Si Si1 0.958114 0.189204 0.500000
Si Si2 0.839414 0.408717 0.262037
Si Si3 0.169913 0.704942 0.122314
Si Si4 0.130259 0.501231 0.930701
Si Si5 0.334463 0.596534 0.808514
Si Si6 0.680193 0.093840 0.140583
O O1 0.948562 0.273674 0.460327
O O2 0.084230 0.130481 0.500000
O O3 0.856169 0.545826 0.257812
O O4 0.728750 0.377096 0.235101
O O5 0.832108 0.377449 0.310584
O O6 0.166763 0.630185 0.080348
O O7 0.253806 0.641097 0.154670
O O8 0.219470 0.831661 0.120255
O O9 0.040418 0.703710 0.138104
O O10 0.121194 0.431703 0.886983
O O11 0.000000 0.500000 0.947794
O O12 0.351024 0.460254 0.811430
#
# Coordination Sequence:
#
# PCOD9545950 Si02
#       6
#     8  16  16  16  16  16
#     4  11  23  40  68 102 129 155 188 244 310 371
#     4  11  22  36  59  82 114 158 215 262 310 369
#     4  11  22  41  60  87 122 165 211 259 312 372
#     4  10  22  41  65  92 125 162 203 243 299 373
#     4  11  24  39  57  85 120 162 213 272 325 365
#     4  11  24  38  62  88 120 165 210 259 313 366
#
# _framework density 20.084045
#
# number of rings (size 3 to 8) (size 9 to 14) (size 15 to 20)
#    0.000    1.182    1.818    4.636    7.636    1.818 
#    0.000    1.818    0.000    0.000    0.000    0.000 
#    0.000   13.091    0.000    0.000    0.000    0.000 
#
# Total GULP energy -246060.183029 kJ/mol
# GULP energy per Si atom -5592.276887 kJ/mol
# Density = 2.003833 g / cm^3
# Si number density = 20.084045 Si / 1000 Ang^3
#
#
#
# Elastic Constant Matrix: (Units=GPa)
#
#
# Indices 1 2 3 4 5 6 
#
# 1 113.6729 29.4830 18.3767 0.0000 0.0000 0.0335
# 2 29.4830 113.6729 18.3767 0.0000 0.0000 -0.0335
# 3 18.3767 18.3767 55.0459 0.0000 0.0000 0.0000
# 4 0.0000 0.0000 0.0000 18.6483 0.0000 0.0000
# 5 0.0000 0.0000 0.0000 0.0000 18.6483 0.0000
# 6 0.0335 -0.0335 0.0000 0.0000 0.0000 31.1404
#
#
#
# Elastic Compliance Matrix: (Units=1/GPa)
#
#
# Indices 1 2 3 4 5 6 
#
# 1 0.009759 -0.002119 -0.002551 0.000000 0.000000 -0.000013
# 2 -0.002119 0.009759 -0.002551 0.000000 0.000000 0.000013
# 3 -0.002551 -0.002551 0.019870 0.000000 0.000000 0.000000
# 4 0.000000 0.000000 0.000000 0.053624 0.000000 0.000000
# 5 0.000000 0.000000 0.000000 0.000000 0.053624 0.000000
# 6 -0.000013 0.000013 0.000000 0.000000 0.000000 0.032113
#
#
# Mechanical properties :
#
#
# Convention : Reuss Voigt Hill
#
# Bulk Modulus (GPa) = 40.08401 46.09604 43.09003
# Shear Modulus (GPa) = 24.81329 28.09775 26.45552
#
# Velocity S-wave (km/s) = 3.51874 3.74439 3.63332
# Velocity P-wave (km/s) = 6.04237 6.45719 6.25322
#
# Compressibility (1/GPa) = 0.02494760
#
# Stress axis : x y z
#
# Youngs Moduli (GPa) = 102.46866 102.46866 50.32791
#
# Poissons Ratio (x) = 0.21712 0.12837
# Poissons Ratio (y) = 0.21712 0.12837
# Poissons Ratio (z) = 0.26136 0.26136
#
# Static dielectric constant tensor:
#      x y z
#    x 1.730590 0.000000 0.000000 
#    y 0.000000 1.730590 0.000000 
#    z 0.000000 0.000000 1.699240 
# 
# From -- ./inp_files/6557.got.cif
#   From: 2010.05.17/outbox.cif.g08.bks.cpg/sg87_4_cif.got.tgz:6557.got - 2010.06.03 19:07:00.
