data_PCOD9545070
_publ_section_title
;
Structure prediction by ZEFSAII (Michael W. Deem and Ramdas Pophale) SiO2 
 PCOD9545070
Probable space group: P 42/N
;
_chemical_formula_sum "Si O2"
_cell_formula_units_Z 48
_cell_length_a 7.474548
_cell_length_b 7.474548
_cell_length_c 33.101099
_cell_angle_alpha 90.000000
_cell_angle_beta 90.000000
_cell_angle_gamma 90.000000
_cell_volume 1849.320924
_symmetry_space_group_name_H-M "P 42/N"
_symmetry_group_IT_number 86
_space_group.IT_coordinate_system_code '2'
_symmetry_cell_setting 'tetragonal'
loop_
_space_group_symop_operation_xyz
x,y,z
-y,1/2+x,1/2+z
1/2-x,1/2-y,z
1/2+y,-x,1/2+z
-x,-y,-z
y,1/2-x,1/2-z
1/2+x,1/2+y,-z
1/2-y,x,1/2-z
loop_
_atom_site_type_symbol
_atom_site_label
_atom_site_fract_x
_atom_site_fract_y
_atom_site_fract_z
Si Si1 0.953896 0.804677 0.927051
Si Si2 0.963542 0.209239 0.900226
Si Si3 0.230106 0.958567 0.340825
Si Si4 0.867156 0.432648 0.316962
Si Si5 0.521796 0.932397 0.761046
Si Si6 0.695308 0.454092 0.484979
O O1 0.750000 0.750000 0.927382
O O2 0.028326 0.690135 0.888901
O O3 0.005030 0.804077 0.974194
O O4 0.983786 0.004399 0.912936
O O5 0.750000 0.250000 0.896334
O O6 0.036040 0.221341 0.854833
O O7 0.039358 0.302844 0.940165
O O8 0.250000 0.750000 0.331953
O O9 0.417099 0.067559 0.330554
O O10 0.074917 0.011993 0.309380
O O11 0.750000 0.250000 0.314227
O O12 0.882625 0.511070 0.271648
O O13 0.720463 0.992052 0.749528
O O14 0.750000 0.250000 0.477245
O O15 0.500000 0.500000 0.500000
#
# Coordination Sequence:
#
# PCOD9545070 Si02
#       6
#     8   8   8   8   8   8
#     4  11  22  36  63  92 127 179 228 289 350 420
#     4   9  19  35  57  88 123 165 223 277 338 404
#     4  10  21  35  57  91 134 170 225 288 347 404
#     4   9  18  34  59  88 127 172 223 276 342 411
#     4   9  18  31  56  93 129 169 226 286 335 406
#     4  11  23  42  64  95 135 179 230 298 359 428
#
# _framework density 25.955473000000001
#
# number of rings (size 3 to 8) (size 9 to 14) (size 15 to 20)
#    0.000    2.167    0.000    3.500    7.000    0.000 
#    0.000    0.000    0.000    3.000    0.000    4.667 
#    0.000    0.000    0.000    0.000    0.000    0.000 
#
# Total GULP energy -267327.290629 kJ/mol
# GULP energy per Si atom -5569.318555 kJ/mol
# Density = 2.589640 g / cm^3
# Si number density = 25.955473 Si / 1000 Ang^3
#
#
#
# Elastic Constant Matrix: (Units=GPa)
#
#
# Indices 1 2 3 4 5 6 
#
# 1 70.6774 8.2337 53.3131 0.0000 0.0000 1.8527
# 2 8.2337 70.6774 53.3131 0.0000 0.0000 -1.8527
# 3 53.3131 53.3131 235.1850 0.0000 0.0000 0.0000
# 4 0.0000 0.0000 0.0000 76.5074 0.0000 0.0000
# 5 0.0000 0.0000 0.0000 0.0000 76.5074 0.0000
# 6 1.8527 -1.8527 0.0000 0.0000 0.0000 16.3702
#
#
#
# Elastic Compliance Matrix: (Units=1/GPa)
#
#
# Indices 1 2 3 4 5 6 
#
# 1 0.017195 0.001073 -0.004141 0.000000 0.000000 -0.001825
# 2 0.001073 0.017195 -0.004141 0.000000 0.000000 0.001825
# 3 -0.004141 -0.004141 0.006129 0.000000 0.000000 0.000000
# 4 0.000000 0.000000 0.000000 0.013071 0.000000 0.000000
# 5 0.000000 0.000000 0.000000 0.000000 0.013071 0.000000
# 6 -0.001825 0.001825 0.000000 0.000000 0.000000 0.061500
#
#
# Mechanical properties :
#
#
# Convention : Reuss Voigt Hill
#
# Bulk Modulus (GPa) = 38.31259 67.36215 52.83737
# Shear Modulus (GPa) = 33.05116 51.32232 42.18674
#
# Velocity S-wave (km/s) = 3.57232 4.45153 4.03594
# Velocity P-wave (km/s) = 5.63987 7.24091 6.48995
#
# Compressibility (1/GPa) = 0.02610108
#
# Stress axis : x y z
#
# Youngs Moduli (GPa) = 58.15522 58.15522 163.14741
#
# Poissons Ratio (x) = -0.06238 0.67561
# Poissons Ratio (y) = -0.06238 0.67561
# Poissons Ratio (z) = 0.24083 0.24083
#
# Static dielectric constant tensor:
#      x y z
#    x 2.092220 0.000000 0.000000 
#    y 0.000000 2.092220 0.000000 
#    z 0.000000 0.000000 1.017270 
# 
# From -- ./inp_files/5150.got.cif
#   From: 2010.05.17/outbox.cif.g08.bks.cpg/sg86_3_cif.got.tgz:5150.got - 2010.06.03 19:03:11.
