data_PCOD9545876
_publ_section_title
;
Structure prediction by ZEFSAII (Michael W. Deem and Ramdas Pophale) SiO2 
 PCOD9545876
Probable space group: I 4/M
;
_chemical_formula_sum "Si O2"
_cell_formula_units_Z 108
_cell_length_a 14.917716
_cell_length_b 14.917716
_cell_length_c 25.753115
_cell_angle_alpha 90.000000
_cell_angle_beta 90.000000
_cell_angle_gamma 90.000000
_cell_volume 5731.053161
_symmetry_space_group_name_H-M "I 4/M"
_symmetry_group_IT_number 87
_symmetry_cell_setting 'tetragonal'
loop_
_space_group_symop_operation_xyz
x,y,z
-y,x,z
-x,-y,z
y,-x,z
-x,-y,-z
y,-x,-z
x,y,-z
-y,x,-z
1/2+x,1/2+y,1/2+z
1/2-y,1/2+x,1/2+z
1/2-x,1/2-y,1/2+z
1/2+y,1/2-x,1/2+z
1/2-x,1/2-y,1/2-z
1/2+y,1/2-x,1/2-z
1/2+x,1/2+y,1/2-z
1/2-y,1/2+x,1/2-z
loop_
_atom_site_type_symbol
_atom_site_label
_atom_site_fract_x
_atom_site_fract_y
_atom_site_fract_z
Si Si1 0.605321 0.607902 0.280289
Si Si2 0.421293 0.844958 0.560541
Si Si3 0.886731 0.830624 0.661517
Si Si4 0.198366 0.776335 0.132174
Si Si5 0.032376 0.147966 0.500000
Si Si6 0.000000 0.000000 0.629397
Si Si7 0.990201 0.716041 0.592282
Si Si8 0.632313 0.828647 0.560300
O O1 0.498461 0.622024 0.288225
O O2 0.620429 0.638135 0.220883
O O3 0.670582 0.662261 0.318098
O O4 0.398382 0.825303 0.500000
O O5 0.380118 0.773318 0.600371
O O6 0.373224 0.936372 0.577354
O O7 0.527779 0.851527 0.564033
O O8 0.797446 0.775514 0.645447
O O9 0.962455 0.755642 0.647829
O O10 0.920579 0.921542 0.632735
O O11 0.240933 0.847120 0.092745
O O12 0.041310 0.210587 0.549931
O O13 0.934418 0.101453 0.500000
O O14 0.092480 0.692907 0.583442
O O15 0.656240 0.817968 0.500000
#
# Coordination Sequence:
#
# PCOD9545876 Si02
#       8
#    16  16  16  16   8   4  16  16
#     4  11  22  42  66  88 116 157 208 261 317 378
#     4  10  21  39  60  86 122 164 208 255 308 373
#     4  11  23  37  61  88 120 157 202 252 313 371
#     4  11  24  38  60  92 123 158 203 267 312 377
#     4  11  26  34  51  88 132 164 195 252 312 371
#     4  12  20  40  60  89 120 160 205 244 308 388
#     4  11  23  37  60  86 123 165 208 253 304 382
#     4  11  22  38  61  90 123 166 209 256 316 373
#
# _framework density 18.844702999999999
#
# number of rings (size 3 to 8) (size 9 to 14) (size 15 to 20)
#    0.000    1.111    2.963    3.111    6.222    1.185 
#    0.000    0.000    0.000    0.000    0.000    6.222 
#    0.000    0.000    0.000    0.000    0.000    0.000 
#
# Total GULP energy -300956.488910 kJ/mol
# GULP energy per Si atom -5573.268313 kJ/mol
# Density = 1.880181 g / cm^3
# Si number density = 18.844703 Si / 1000 Ang^3
#
#
#
# Elastic Constant Matrix: (Units=GPa)
#
#
# Indices 1 2 3 4 5 6 
#
# 1 70.4854 26.3194 32.4617 0.0000 0.0000 -4.2199
# 2 26.3194 70.4854 32.4617 0.0000 0.0000 4.2199
# 3 32.4617 32.4617 76.1742 0.0000 0.0000 0.0000
# 4 0.0000 0.0000 0.0000 20.2789 0.0000 0.0000
# 5 0.0000 0.0000 0.0000 0.0000 20.2789 0.0000
# 6 -4.2199 4.2199 0.0000 0.0000 0.0000 33.6229
#
#
#
# Elastic Compliance Matrix: (Units=1/GPa)
#
#
# Indices 1 2 3 4 5 6 
#
# 1 0.018831 -0.004367 -0.006164 0.000000 0.000000 0.002912
# 2 -0.004367 0.018831 -0.006164 0.000000 0.000000 -0.002912
# 3 -0.006164 -0.006164 0.018381 0.000000 0.000000 0.000000
# 4 0.000000 0.000000 0.000000 0.049312 0.000000 0.000000
# 5 0.000000 0.000000 0.000000 0.000000 0.049312 0.000000
# 6 0.002912 -0.002912 0.000000 0.000000 0.000000 0.030472
#
#
# Mechanical properties :
#
#
# Convention : Reuss Voigt Hill
#
# Bulk Modulus (GPa) = 44.14267 44.40339 44.27303
# Shear Modulus (GPa) = 22.11592 23.22961 22.67277
#
# Velocity S-wave (km/s) = 3.42948 3.51477 3.47239
# Velocity P-wave (km/s) = 6.25756 6.33131 6.29454
#
# Compressibility (1/GPa) = 0.02265382
#
# Stress axis : x y z
#
# Youngs Moduli (GPa) = 53.10374 53.10374 54.40337
#
# Poissons Ratio (x) = 0.23191 0.33533
# Poissons Ratio (y) = 0.23191 0.33533
# Poissons Ratio (z) = 0.32732 0.32732
#
# Static dielectric constant tensor:
#      x y z
#    x 1.678770 0.000000 0.000000 
#    y 0.000000 1.678770 0.000000 
#    z 0.000000 0.000000 1.659100 
# 
# From -- ./inp_files/5960.got.cif
#   From: 2010.05.17/outbox.cif.g08.bks.cpg/sg87_3_cif.got.tgz:5960.got - 2010.06.03 19:07:00.
