data_PCOD9545007
_publ_section_title
;
Structure prediction by ZEFSAII (Michael W. Deem and Ramdas Pophale) SiO2 
 PCOD9545007
Probable space group: P 42/N
;
_chemical_formula_sum "Si O2"
_cell_formula_units_Z 40
_cell_length_a 12.790593
_cell_length_b 12.790593
_cell_length_c 12.325945
_cell_angle_alpha 90.000000
_cell_angle_beta 90.000000
_cell_angle_gamma 90.000000
_cell_volume 2016.515595
_symmetry_space_group_name_H-M "P 42/N"
_symmetry_group_IT_number 86
_space_group.IT_coordinate_system_code '2'
_symmetry_cell_setting 'tetragonal'
loop_
_space_group_symop_operation_xyz
x,y,z
-y,1/2+x,1/2+z
1/2-x,1/2-y,z
1/2+y,-x,1/2+z
-x,-y,-z
y,1/2-x,1/2-z
1/2+x,1/2+y,-z
1/2-y,x,1/2-z
loop_
_atom_site_type_symbol
_atom_site_label
_atom_site_fract_x
_atom_site_fract_y
_atom_site_fract_z
Si Si1 0.896960 0.105701 0.184908
Si Si2 0.425133 0.247825 0.095645
Si Si3 0.750000 0.750000 0.750000
Si Si4 0.054692 0.694004 0.088125
Si Si5 0.877250 0.595328 0.398093
Si Si6 0.750000 0.750000 0.250000
Si Si7 0.250000 0.750000 0.441432
O O1 0.878746 0.073519 0.309420
O O2 0.792775 0.157326 0.134455
O O3 0.983170 0.194809 0.162432
O O4 0.921692 0.999017 0.120492
O O5 0.339907 0.203059 0.175053
O O6 0.469482 0.167325 0.005606
O O7 0.378364 0.341305 0.020551
O O8 0.007642 0.806599 0.126880
O O9 0.159014 0.711673 0.020707
O O10 0.833469 0.687547 0.322306
#
# Coordination Sequence:
#
# PCOD9545007 Si02
#       7
#     8   8   2   8   8   2   4
#     4  11  20  41  63  92 121 167 203 264 305 360
#     4   9  23  37  62  86 124 165 200 248 313 360
#     4  12  22  48  56  90 136 164 194 252 312 378
#     4   9  21  39  59  93 120 156 214 243 303 376
#     4  10  20  38  61  90 123 157 216 247 305 362
#     4  12  18  36  68  86 120 172 198 272 292 358
#     4  10  22  36  60  92 130 160 196 258 318 362
#
# _framework density 19.836196999999999
#
# number of rings (size 3 to 8) (size 9 to 14) (size 15 to 20)
#    1.200    0.800    2.000    1.800    0.000    1.600 
#    7.200    1.000    0.000    0.000    0.000    0.000 
#    0.000    0.000    0.000    0.000    0.000    0.000 
#
# Total GULP energy -222705.116962 kJ/mol
# GULP energy per Si atom -5567.627924 kJ/mol
# Density = 1.979105 g / cm^3
# Si number density = 19.836197 Si / 1000 Ang^3
#
#
#
# Elastic Constant Matrix: (Units=GPa)
#
#
# Indices 1 2 3 4 5 6 
#
# 1 24.6485 4.8920 16.7679 0.0000 0.0000 -2.5645
# 2 4.8920 24.6485 16.7679 0.0000 0.0000 2.5645
# 3 16.7679 16.7679 110.7543 0.0000 0.0000 0.0000
# 4 0.0000 0.0000 0.0000 10.2153 0.0000 0.0000
# 5 0.0000 0.0000 0.0000 0.0000 10.2153 0.0000
# 6 -2.5645 2.5645 0.0000 0.0000 0.0000 25.6463
#
#
#
# Elastic Compliance Matrix: (Units=1/GPa)
#
#
# Indices 1 2 3 4 5 6 
#
# 1 0.046421 -0.005544 -0.006189 0.000000 0.000000 0.005196
# 2 -0.005544 0.046421 -0.006189 0.000000 0.000000 -0.005196
# 3 -0.006189 -0.006189 0.010903 0.000000 0.000000 0.000000
# 4 0.000000 0.000000 0.000000 0.097892 0.000000 0.000000
# 5 0.000000 0.000000 0.000000 0.000000 0.097892 0.000000
# 6 0.005196 -0.005196 0.000000 0.000000 0.000000 0.040031
#
#
# Mechanical properties :
#
#
# Convention : Reuss Voigt Hill
#
# Bulk Modulus (GPa) = 14.72686 26.32297 20.52492
# Shear Modulus (GPa) = 12.56161 17.32362 14.94262
#
# Velocity S-wave (km/s) = 2.51921 2.95843 2.74761
# Velocity P-wave (km/s) = 3.98776 4.99687 4.52056
#
# Compressibility (1/GPa) = 0.06790312
#
# Stress axis : x y z
#
# Youngs Moduli (GPa) = 21.54176 21.54176 91.71860
#
# Poissons Ratio (x) = 0.11942 0.56762
# Poissons Ratio (y) = 0.11942 0.56762
# Poissons Ratio (z) = 0.13332 0.13332
#
# Static dielectric constant tensor:
#      x y z
#    x 1.703400 0.000000 0.000000 
#    y 0.000000 1.703400 0.000000 
#    z 0.000000 0.000000 1.726900 
# 
# From -- ./inp_files/2173.got.cif
#   From: 2010.05.17/outbox.cif.g08.bks.cpg/sg86_2_cif.got.tgz:2173.got - 2010.06.03 19:03:11.
