data_PCOD9545434
_publ_section_title
;
Structure prediction by ZEFSAII (Michael W. Deem and Ramdas Pophale) SiO2 
 PCOD9545434
Probable space group: P 42/N
;
_chemical_formula_sum "Si O2"
_cell_formula_units_Z 34
_cell_length_a 8.243979
_cell_length_b 8.243979
_cell_length_c 21.416260
_cell_angle_alpha 90.000000
_cell_angle_beta 90.000000
_cell_angle_gamma 90.000000
_cell_volume 1455.517342
_symmetry_space_group_name_H-M "P 42/N"
_symmetry_group_IT_number 86
_space_group.IT_coordinate_system_code '2'
_symmetry_cell_setting 'tetragonal'
loop_
_space_group_symop_operation_xyz
x,y,z
-y,1/2+x,1/2+z
1/2-x,1/2-y,z
1/2+y,-x,1/2+z
-x,-y,-z
y,1/2-x,1/2-z
1/2+x,1/2+y,-z
1/2-y,x,1/2-z
loop_
_atom_site_type_symbol
_atom_site_label
_atom_site_fract_x
_atom_site_fract_y
_atom_site_fract_z
Si Si1 0.934803 0.562374 0.066293
Si Si2 0.250000 0.250000 0.750000
Si Si3 0.451591 0.435239 0.932826
Si Si4 0.578853 0.852369 0.677730
Si Si5 0.461738 0.946564 0.194420
O O1 0.741929 0.563012 0.067198
O O2 0.999410 0.746415 0.074556
O O3 0.978305 0.468988 0.130289
O O4 0.000000 0.500000 0.000000
O O5 0.309291 0.405101 0.709988
O O6 0.529710 0.548660 0.880180
O O7 0.500000 0.500000 0.000000
O O8 0.750000 0.750000 0.674862
O O9 0.429572 0.726141 0.677749
O O10 0.556847 0.951121 0.741796
#
# Coordination Sequence:
#
# PCOD9545434 Si02
#       5
#     8   2   8   8   8
#     4  11  26  48  74 115 155 208 262 330 408 473
#     4  12  28  44  76 112 152 200 256 338 400 488
#     4  11  27  48  77 110 158 205 268 330 395 489
#     4  12  26  49  77 113 151 211 265 330 398 481
#     4  12  24  49  72 109 153 195 268 318 404 469
#
# _framework density 23.359390000000001
#
# number of rings (size 3 to 8) (size 9 to 14) (size 15 to 20)
#    0.000    0.471    2.353    5.647    6.588    6.588 
#    8.471    0.000    0.000    0.000    0.000    0.000 
#    0.000    0.000    0.000    0.000    0.000    0.000 
#
# Total GULP energy -189827.385990 kJ/mol
# GULP energy per Si atom -5583.158411 kJ/mol
# Density = 2.330622 g / cm^3
# Si number density = 23.359390 Si / 1000 Ang^3
#
#
#
# Elastic Constant Matrix: (Units=GPa)
#
#
# Indices 1 2 3 4 5 6 
#
# 1 97.1020 58.4124 65.8628 0.0000 0.0000 -7.6409
# 2 58.4124 97.1020 65.8628 0.0000 0.0000 7.6409
# 3 65.8628 65.8628 244.6919 0.0000 0.0000 0.0000
# 4 0.0000 0.0000 0.0000 30.2739 0.0000 0.0000
# 5 0.0000 0.0000 0.0000 0.0000 30.2739 0.0000
# 6 -7.6409 7.6409 0.0000 0.0000 0.0000 51.9395
#
#
#
# Elastic Compliance Matrix: (Units=1/GPa)
#
#
# Indices 1 2 3 4 5 6 
#
# 1 0.017885 -0.009556 -0.002242 0.000000 0.000000 0.004037
# 2 -0.009556 0.017885 -0.002242 0.000000 0.000000 -0.004037
# 3 -0.002242 -0.002242 0.005294 0.000000 0.000000 0.000000
# 4 0.000000 0.000000 0.000000 0.033032 0.000000 0.000000
# 5 0.000000 0.000000 0.000000 0.000000 0.033032 0.000000
# 6 0.004037 -0.004037 0.000000 0.000000 0.000000 0.020441
#
#
# Mechanical properties :
#
#
# Convention : Reuss Voigt Hill
#
# Bulk Modulus (GPa) = 77.01540 91.01911 84.01725
# Shear Modulus (GPa) = 31.25458 39.08132 35.16795
#
# Velocity S-wave (km/s) = 3.66182 4.09473 3.88431
# Velocity P-wave (km/s) = 7.13582 7.83613 7.49416
#
# Compressibility (1/GPa) = 0.01298442
#
# Stress axis : x y z
#
# Youngs Moduli (GPa) = 55.91196 55.91196 188.90392
#
# Poissons Ratio (x) = 0.53429 0.42352
# Poissons Ratio (y) = 0.53429 0.42352
# Poissons Ratio (z) = 0.12535 0.12535
#
# Static dielectric constant tensor:
#      x y z
#    x 2.004320 0.000000 0.000000 
#    y 0.000000 2.004320 0.000000 
#    z 0.000000 0.000000 2.533760 
# 
# From -- ./inp_files/3963.got.cif
#   From: 2010.05.17/outbox.cif.g08.bks.cpg/sg86_2_cif.got.tgz:3963.got - 2010.06.03 19:03:11.
