data_PCOD9545378
_publ_section_title
;
Structure prediction by ZEFSAII (Michael W. Deem and Ramdas Pophale) SiO2 
 PCOD9545378
Probable space group: P 42/N
;
_chemical_formula_sum "Si O2"
_cell_formula_units_Z 42
_cell_length_a 14.283510
_cell_length_b 14.283510
_cell_length_c 9.146828
_cell_angle_alpha 90.000000
_cell_angle_beta 90.000000
_cell_angle_gamma 90.000000
_cell_volume 1866.123573
_symmetry_space_group_name_H-M "P 42/N"
_symmetry_group_IT_number 86
_space_group.IT_coordinate_system_code '2'
_symmetry_cell_setting 'tetragonal'
loop_
_space_group_symop_operation_xyz
x,y,z
-y,1/2+x,1/2+z
1/2-x,1/2-y,z
1/2+y,-x,1/2+z
-x,-y,-z
y,1/2-x,1/2-z
1/2+x,1/2+y,-z
1/2-y,x,1/2-z
loop_
_atom_site_type_symbol
_atom_site_label
_atom_site_fract_x
_atom_site_fract_y
_atom_site_fract_z
Si Si1 0.339433 0.511340 0.398858
Si Si2 0.651840 0.920164 0.105793
Si Si3 0.609682 0.279720 0.493719
Si Si4 0.602867 0.329985 0.179616
Si Si5 0.004030 0.988418 0.174302
Si Si6 0.250000 0.250000 0.750000
O O1 0.383483 0.434449 0.506374
O O2 0.357307 0.618424 0.450092
O O3 0.227417 0.515309 0.387482
O O4 0.393749 0.498481 0.245457
O O5 0.606853 0.965593 0.252923
O O6 0.716060 0.835049 0.151093
O O7 0.712171 0.998744 0.023266
O O8 0.632706 0.274089 0.323472
O O9 0.652046 0.190713 0.575696
O O10 0.563354 0.429359 0.231170
O O11 0.000000 0.000000 0.000000
#
# Coordination Sequence:
#
# PCOD9545378 Si02
#       6
#     8   8   8   8   8   2
#     4  11  24  44  68  99 145 185 231 306 365 428
#     4  11  24  50  70 100 145 190 243 302 378 438
#     4  11  24  46  73 102 147 188 241 310 372 445
#     4  12  24  42  71 109 139 185 251 294 372 443
#     4  11  23  44  73  98 139 192 230 293 376 451
#     4  12  28  40  76 106 136 196 260 310 352 460
#
# _framework density 22.506546
#
# number of rings (size 3 to 8) (size 9 to 14) (size 15 to 20)
#    0.000    0.762    3.810    4.000    2.667    4.571 
#    0.000    0.000    0.000    1.143    0.000    0.000 
#    0.000    0.000    0.000    0.000    0.000    0.000 
#
# Total GULP energy -234913.070308 kJ/mol
# GULP energy per Si atom -5593.168341 kJ/mol
# Density = 2.245532 g / cm^3
# Si number density = 22.506546 Si / 1000 Ang^3
#
#
#
# Elastic Constant Matrix: (Units=GPa)
#
#
# Indices 1 2 3 4 5 6 
#
# 1 66.5771 34.0315 34.4763 0.0000 0.0000 -4.2962
# 2 34.0315 66.5771 34.4763 0.0000 0.0000 4.2962
# 3 34.4763 34.4763 140.6415 0.0000 0.0000 0.0000
# 4 0.0000 0.0000 0.0000 20.9745 0.0000 0.0000
# 5 0.0000 0.0000 0.0000 0.0000 20.9745 0.0000
# 6 -4.2962 4.2962 0.0000 0.0000 0.0000 46.6473
#
#
#
# Elastic Compliance Matrix: (Units=1/GPa)
#
#
# Indices 1 2 3 4 5 6 
#
# 1 0.021719 -0.009773 -0.002929 0.000000 0.000000 0.002900
# 2 -0.009773 0.021719 -0.002929 0.000000 0.000000 -0.002900
# 3 -0.002929 -0.002929 0.008546 0.000000 0.000000 0.000000
# 4 0.000000 0.000000 0.000000 0.047677 0.000000 0.000000
# 5 0.000000 0.000000 0.000000 0.000000 0.047677 0.000000
# 6 0.002900 -0.002900 0.000000 0.000000 0.000000 0.021972
#
#
# Mechanical properties :
#
#
# Convention : Reuss Voigt Hill
#
# Bulk Modulus (GPa) = 48.25069 53.30709 50.77889
# Shear Modulus (GPa) = 24.09897 29.10673 26.60285
#
# Velocity S-wave (km/s) = 3.27579 3.60009 3.44176
# Velocity P-wave (km/s) = 5.98271 6.40448 6.19718
#
# Compressibility (1/GPa) = 0.02072509
#
# Stress axis : x y z
#
# Youngs Moduli (GPa) = 46.04215 46.04215 117.01309
#
# Poissons Ratio (x) = 0.44995 0.34268
# Poissons Ratio (y) = 0.44995 0.34268
# Poissons Ratio (z) = 0.13484 0.13484
#
# Static dielectric constant tensor:
#      x y z
#    x 1.877250 0.000000 0.000000 
#    y 0.000000 1.877250 0.000000 
#    z 0.000000 0.000000 1.853910 
# 
# From -- ./inp_files/1153.got.cif
#   From: 2010.05.17/outbox.cif.g08.bks.cpg/sg86_1_cif.got.tgz:1153.got - 2010.06.03 19:03:11.
