data_PCOD9545342
_publ_section_title
;
Structure prediction by ZEFSAII (Michael W. Deem and Ramdas Pophale) SiO2 
 PCOD9545342
Probable space group: P 42/N
;
_chemical_formula_sum "Si O2"
_cell_formula_units_Z 48
_cell_length_a 8.479880
_cell_length_b 8.479880
_cell_length_c 29.230365
_cell_angle_alpha 90.000000
_cell_angle_beta 90.000000
_cell_angle_gamma 90.000000
_cell_volume 2101.907750
_symmetry_space_group_name_H-M "P 42/N"
_symmetry_group_IT_number 86
_space_group.IT_coordinate_system_code '2'
_symmetry_cell_setting 'tetragonal'
loop_
_space_group_symop_operation_xyz
x,y,z
-y,1/2+x,1/2+z
1/2-x,1/2-y,z
1/2+y,-x,1/2+z
-x,-y,-z
y,1/2-x,1/2-z
1/2+x,1/2+y,-z
1/2-y,x,1/2-z
loop_
_atom_site_type_symbol
_atom_site_label
_atom_site_fract_x
_atom_site_fract_y
_atom_site_fract_z
Si Si1 0.928687 0.199703 0.099163
Si Si2 0.929823 0.053114 0.847269
Si Si3 0.813292 0.936767 0.503639
Si Si4 0.555245 0.931438 0.750944
Si Si5 0.567181 0.787303 0.097355
Si Si6 0.935023 0.536856 0.851184
O O1 0.750000 0.250000 0.106394
O O2 0.982047 0.236958 0.047766
O O3 0.041912 0.278246 0.137605
O O4 0.958173 0.019348 0.113253
O O5 0.952706 0.232847 0.861656
O O6 0.987332 0.023301 0.795894
O O7 0.749934 0.000763 0.852814
O O8 0.750000 0.750000 0.507122
O O9 0.748354 0.986073 0.453838
O O10 0.000000 0.000000 0.500000
O O11 0.741985 0.964480 0.748347
O O12 0.500086 0.993189 0.800153
O O13 0.750000 0.750000 0.103483
O O14 0.538207 0.972161 0.106611
#
# Coordination Sequence:
#
# PCOD9545342 Si02
#       6
#     8   8   8   8   8   8
#     4  12  25  42  69 100 137 178 229 289 354 414
#     4  11  23  41  67 101 129 180 233 288 345 414
#     4  11  25  47  75 101 138 189 236 291 360 435
#     4   9  18  37  65  95 126 172 232 284 329 407
#     4  11  25  45  66  96 144 173 226 290 358 418
#     4  11  21  43  67  94 133 181 229 286 339 426
#
# _framework density 22.836395
#
# number of rings (size 3 to 8) (size 9 to 14) (size 15 to 20)
#    0.000    1.167    3.333    3.000    2.333    2.000 
#    6.000    0.000    0.000    0.000    0.000    0.000 
#    0.000    0.000    0.000    0.000    0.000    0.000 
#
# Total GULP energy -267365.998739 kJ/mol
# GULP energy per Si atom -5570.124974 kJ/mol
# Density = 2.278442 g / cm^3
# Si number density = 22.836395 Si / 1000 Ang^3
#
#
#
# Elastic Constant Matrix: (Units=GPa)
#
#
# Indices 1 2 3 4 5 6 
#
# 1 40.0400 24.9280 35.6922 0.0000 0.0000 -2.2450
# 2 24.9280 40.0400 35.6922 0.0000 0.0000 2.2450
# 3 35.6922 35.6922 203.4896 0.0000 0.0000 0.0000
# 4 0.0000 0.0000 0.0000 35.3610 0.0000 0.0000
# 5 0.0000 0.0000 0.0000 0.0000 35.3610 0.0000
# 6 -2.2450 2.2450 0.0000 0.0000 0.0000 47.5895
#
#
#
# Elastic Compliance Matrix: (Units=1/GPa)
#
#
# Indices 1 2 3 4 5 6 
#
# 1 0.043090 -0.024023 -0.003344 0.000000 0.000000 0.003166
# 2 -0.024023 0.043090 -0.003344 0.000000 0.000000 -0.003166
# 3 -0.003344 -0.003344 0.006087 0.000000 0.000000 0.000000
# 4 0.000000 0.000000 0.000000 0.028280 0.000000 0.000000
# 5 0.000000 0.000000 0.000000 0.000000 0.028280 0.000000
# 6 0.003166 -0.003166 0.000000 0.000000 0.000000 0.021312
#
#
# Mechanical properties :
#
#
# Convention : Reuss Voigt Hill
#
# Bulk Modulus (GPa) = 32.42145 52.91046 42.66595
# Shear Modulus (GPa) = 20.67450 36.14611 28.41030
#
# Velocity S-wave (km/s) = 3.01214 3.98279 3.53098
# Velocity P-wave (km/s) = 5.13083 6.66107 5.94539
#
# Compressibility (1/GPa) = 0.03084378
#
# Stress axis : x y z
#
# Youngs Moduli (GPa) = 23.20721 23.20721 164.27237
#
# Poissons Ratio (x) = 0.55751 0.54938
# Poissons Ratio (y) = 0.55751 0.54938
# Poissons Ratio (z) = 0.07761 0.07761
#
# Static dielectric constant tensor:
#      x y z
#    x 1.846780 0.000000 0.000000 
#    y 0.000000 1.846780 0.000000 
#    z 0.000000 0.000000 1.802050 
# 
# From -- ./inp_files/5155.got.cif
#   From: 2010.05.17/outbox.cif.g08.bks.cpg/sg86_3_cif.got.tgz:5155.got - 2010.06.03 19:03:11.
