data_PCOD9545149
_publ_section_title
;
Structure prediction by ZEFSAII (Michael W. Deem and Ramdas Pophale) SiO2 
 PCOD9545149
Probable space group: P 42/N
;
_chemical_formula_sum "Si O2"
_cell_formula_units_Z 54
_cell_length_a 14.733008
_cell_length_b 14.733008
_cell_length_c 9.473973
_cell_angle_alpha 90.000000
_cell_angle_beta 90.000000
_cell_angle_gamma 90.000000
_cell_volume 2056.435025
_symmetry_space_group_name_H-M "P 42/N"
_symmetry_group_IT_number 86
_space_group.IT_coordinate_system_code '2'
_symmetry_cell_setting 'tetragonal'
loop_
_space_group_symop_operation_xyz
x,y,z
-y,1/2+x,1/2+z
1/2-x,1/2-y,z
1/2+y,-x,1/2+z
-x,-y,-z
y,1/2-x,1/2-z
1/2+x,1/2+y,-z
1/2-y,x,1/2-z
loop_
_atom_site_type_symbol
_atom_site_label
_atom_site_fract_x
_atom_site_fract_y
_atom_site_fract_z
Si Si1 0.942382 0.127715 0.854352
Si Si2 0.750000 0.250000 0.963053
Si Si3 0.750000 0.750000 0.250000
Si Si4 0.987629 0.722231 0.636096
Si Si5 0.626606 0.857724 0.447503
Si Si6 0.476081 0.401686 0.555913
Si Si7 0.325847 0.501573 0.711475
Si Si8 0.811101 0.383325 0.711571
O O1 0.956934 0.114038 0.687215
O O2 0.947933 0.238836 0.854776
O O3 0.036400 0.106486 0.933101
O O4 0.862177 0.058263 0.896207
O O5 0.776964 0.328884 0.852156
O O6 0.675607 0.287481 0.074471
O O7 0.712751 0.826733 0.357279
O O8 0.023051 0.755825 0.788204
O O9 0.889886 0.678643 0.604009
O O10 0.549009 0.804015 0.357561
O O11 0.500000 0.500000 0.500000
O O12 0.376979 0.425372 0.619942
O O13 0.486316 0.319758 0.446288
O O14 0.392166 0.582437 0.761853
#
# Coordination Sequence:
#
# PCOD9545149 Si02
#       8
#     8   4   2   8   8   8   8   8
#     4  11  24  41  72 107 142 186 251 316 380 448
#     4  10  22  38  56 104 140 184 238 296 380 446
#     4  12  20  44  80 104 140 198 260 316 368 470
#     4  12  24  41  65 101 147 184 240 315 380 448
#     4  11  22  41  70 106 143 187 246 318 376 441
#     4  11  24  45  70 101 149 199 244 305 390 472
#     4  11  21  41  66 104 141 190 248 302 371 456
#     4  11  23  37  66  95 146 189 237 304 372 458
#
# _framework density 26.259032999999999
#
# number of rings (size 3 to 8) (size 9 to 14) (size 15 to 20)
#    0.000    0.889    4.444    4.000    2.074    0.000 
#    0.000    0.000    3.259    0.000    0.000    0.000 
#    0.000    0.000    0.000    0.000    0.000    0.000 
#
# Total GULP energy -301150.331133 kJ/mol
# GULP energy per Si atom -5576.857984 kJ/mol
# Density = 2.619927 g / cm^3
# Si number density = 26.259033 Si / 1000 Ang^3
#
#
#
# Elastic Constant Matrix: (Units=GPa)
#
#
# Indices 1 2 3 4 5 6 
#
# 1 102.3994 10.0934 16.1351 0.0000 0.0000 7.4137
# 2 10.0934 102.3994 16.1351 0.0000 0.0000 -7.4137
# 3 16.1351 16.1351 88.4316 0.0000 0.0000 0.0000
# 4 0.0000 0.0000 0.0000 42.8917 0.0000 0.0000
# 5 0.0000 0.0000 0.0000 0.0000 42.8917 0.0000
# 6 7.4137 -7.4137 0.0000 0.0000 0.0000 51.4866
#
#
#
# Elastic Compliance Matrix: (Units=1/GPa)
#
#
# Indices 1 2 3 4 5 6 
#
# 1 0.010235 -0.000855 -0.001712 0.000000 0.000000 -0.001597
# 2 -0.000855 0.010235 -0.001712 0.000000 0.000000 0.001597
# 3 -0.001712 -0.001712 0.011933 0.000000 0.000000 0.000000
# 4 0.000000 0.000000 0.000000 0.023315 0.000000 0.000000
# 5 0.000000 0.000000 0.000000 0.000000 0.023315 0.000000
# 6 -0.001597 0.001597 0.000000 0.000000 0.000000 0.019882
#
#
# Mechanical properties :
#
#
# Convention : Reuss Voigt Hill
#
# Bulk Modulus (GPa) = 41.93320 41.99529 41.96425
# Shear Modulus (GPa) = 43.32020 44.17846 43.74933
#
# Velocity S-wave (km/s) = 4.06609 4.10617 4.08618
# Velocity P-wave (km/s) = 6.16829 6.20550 6.18692
#
# Compressibility (1/GPa) = 0.02384745
#
# Stress axis : x y z
#
# Youngs Moduli (GPa) = 97.70167 97.70167 83.80302
#
# Poissons Ratio (x) = 0.08352 0.14343
# Poissons Ratio (y) = 0.08352 0.14343
# Poissons Ratio (z) = 0.16722 0.16722
#
# Static dielectric constant tensor:
#      x y z
#    x 2.207700 0.000000 0.000000 
#    y 0.000000 2.207700 0.000000 
#    z 0.000000 0.000000 2.272150 
# 
# From -- ./inp_files/2405.got.cif
#   From: 2010.05.17/outbox.cif.g08.bks.cpg/sg86_2_cif.got.tgz:2405.got - 2010.06.03 19:03:11.
