data_PCOD9545166
_publ_section_title
;
Structure prediction by ZEFSAII (Michael W. Deem and Ramdas Pophale) SiO2 
 PCOD9545166
Probable space group: P 42/N
;
_chemical_formula_sum "Si O2"
_cell_formula_units_Z 56
_cell_length_a 12.107092
_cell_length_b 12.107092
_cell_length_c 19.331797
_cell_angle_alpha 90.000000
_cell_angle_beta 90.000000
_cell_angle_gamma 90.000000
_cell_volume 2833.687218
_symmetry_space_group_name_H-M "P 42/N"
_symmetry_group_IT_number 86
_space_group.IT_coordinate_system_code '2'
_symmetry_cell_setting 'tetragonal'
loop_
_space_group_symop_operation_xyz
x,y,z
-y,1/2+x,1/2+z
1/2-x,1/2-y,z
1/2+y,-x,1/2+z
-x,-y,-z
y,1/2-x,1/2-z
1/2+x,1/2+y,-z
1/2-y,x,1/2-z
loop_
_atom_site_type_symbol
_atom_site_label
_atom_site_fract_x
_atom_site_fract_y
_atom_site_fract_z
Si Si1 0.998740 0.818697 0.694078
Si Si2 0.131231 0.271885 0.128770
Si Si3 0.632152 0.099190 0.282755
Si Si4 0.884049 0.041808 0.527924
Si Si5 0.880522 0.234358 0.637061
Si Si6 0.475643 0.565647 0.829398
Si Si7 0.692326 0.357270 0.400021
O O1 0.048109 0.703769 0.723073
O O2 0.040452 0.908778 0.748242
O O3 0.066102 0.834589 0.622944
O O4 0.867240 0.833968 0.684873
O O5 0.250000 0.250000 0.094563
O O6 0.044309 0.331858 0.080366
O O7 0.068416 0.158231 0.150317
O O8 0.673074 0.071458 0.205574
O O9 0.738123 0.123546 0.330260
O O10 0.559219 0.016252 0.328257
O O11 0.895630 0.156554 0.570568
O O12 0.808043 0.054175 0.460213
O O13 0.000000 0.000000 0.500000
O O14 0.750000 0.250000 0.651293
O O15 0.922058 0.360102 0.631352
O O16 0.750000 0.250000 0.431649
#
# Coordination Sequence:
#
# PCOD9545166 Si02
#       7
#     8   8   8   8   8   8   8
#     4  11  19  38  62  95 130 167 207 264 333 396
#     4  12  25  39  61 100 139 167 213 274 347 403
#     4  11  22  40  65  96 132 170 214 282 336 394
#     4  12  25  44  66  90 130 183 226 277 335 407
#     4  12  22  42  67  99 132 177 232 276 335 418
#     4  12  23  38  68 100 134 168 215 282 333 401
#     4  10  22  40  64  90 125 169 225 262 324 402
#
# _framework density 19.762236000000001
#
# number of rings (size 3 to 8) (size 9 to 14) (size 15 to 20)
#    0.000    0.571    7.143    2.571    0.000    0.000 
#    2.571    0.714    0.000    2.143    0.000    0.000 
#    0.000    0.000    0.000    0.000    0.000    0.000 
#
# Total GULP energy -312244.665490 kJ/mol
# GULP energy per Si atom -5575.797598 kJ/mol
# Density = 1.971726 g / cm^3
# Si number density = 19.762236 Si / 1000 Ang^3
#
#
#
# Elastic Constant Matrix: (Units=GPa)
#
#
# Indices 1 2 3 4 5 6 
#
# 1 90.2933 22.1278 8.0990 0.0000 0.0000 -4.2708
# 2 22.1278 90.2933 8.0990 0.0000 0.0000 4.2708
# 3 8.0990 8.0990 45.2325 0.0000 0.0000 0.0000
# 4 0.0000 0.0000 0.0000 8.7098 0.0000 0.0000
# 5 0.0000 0.0000 0.0000 0.0000 8.7098 0.0000
# 6 -4.2708 4.2708 0.0000 0.0000 0.0000 21.8056
#
#
#
# Elastic Compliance Matrix: (Units=1/GPa)
#
#
# Indices 1 2 3 4 5 6 
#
# 1 0.012085 -0.002954 -0.001635 0.000000 0.000000 0.002946
# 2 -0.002954 0.012085 -0.001635 0.000000 0.000000 -0.002946
# 3 -0.001635 -0.001635 0.022693 0.000000 0.000000 0.000000
# 4 0.000000 0.000000 0.000000 0.114813 0.000000 0.000000
# 5 0.000000 0.000000 0.000000 0.000000 0.114813 0.000000
# 6 0.002946 -0.002946 0.000000 0.000000 0.000000 0.047014
#
#
# Mechanical properties :
#
#
# Convention : Reuss Voigt Hill
#
# Bulk Modulus (GPa) = 29.05681 33.60785 31.33233
# Shear Modulus (GPa) = 14.39168 20.34461 17.36815
#
# Velocity S-wave (km/s) = 2.70152 3.21202 2.96777
# Velocity P-wave (km/s) = 4.94632 5.54969 5.25667
#
# Compressibility (1/GPa) = 0.03441534
#
# Stress axis : x y z
#
# Youngs Moduli (GPa) = 82.74738 82.74738 44.06560
#
# Poissons Ratio (x) = 0.24446 0.07204
# Poissons Ratio (y) = 0.24446 0.07204
# Poissons Ratio (z) = 0.13528 0.13528
#
# Static dielectric constant tensor:
#      x y z
#    x 1.785000 0.000000 0.000000 
#    y 0.000000 1.785000 0.000000 
#    z 0.000000 0.000000 1.679280 
# 
# From -- ./inp_files/4199.got.cif
#   From: 2010.05.17/outbox.cif.g08.bks.cpg/sg86_3_cif.got.tgz:4199.got - 2010.06.03 19:03:11.
