data_PCOD9545313
_publ_section_title
;
Structure prediction by ZEFSAII (Michael W. Deem and Ramdas Pophale) SiO2 
 PCOD9545313
Probable space group: P 42/N
;
_chemical_formula_sum "Si O2"
_cell_formula_units_Z 40
_cell_length_a 9.619989
_cell_length_b 9.619989
_cell_length_c 21.239326
_cell_angle_alpha 90.000000
_cell_angle_beta 90.000000
_cell_angle_gamma 90.000000
_cell_volume 1965.576186
_symmetry_space_group_name_H-M "P 42/N"
_symmetry_group_IT_number 86
_space_group.IT_coordinate_system_code '2'
_symmetry_cell_setting 'tetragonal'
loop_
_space_group_symop_operation_xyz
x,y,z
-y,1/2+x,1/2+z
1/2-x,1/2-y,z
1/2+y,-x,1/2+z
-x,-y,-z
y,1/2-x,1/2-z
1/2+x,1/2+y,-z
1/2-y,x,1/2-z
loop_
_atom_site_type_symbol
_atom_site_label
_atom_site_fract_x
_atom_site_fract_y
_atom_site_fract_z
Si Si1 0.404494 0.107657 0.033979
Si Si2 0.489401 0.098416 0.661688
Si Si3 0.907185 0.624416 0.478609
Si Si4 0.233278 0.082510 0.330582
Si Si5 0.165083 0.612499 0.747161
O O1 0.432236 0.142001 0.106208
O O2 0.409654 0.248555 0.993540
O O3 0.249350 0.054504 0.024776
O O4 0.500000 0.000000 0.000000
O O5 0.436290 0.151516 0.594413
O O6 0.544056 0.230020 0.701895
O O7 0.619828 0.992216 0.655053
O O8 0.372974 0.005783 0.696731
O O9 0.000000 0.500000 0.500000
O O10 0.250000 0.250000 0.318873
O O11 0.162870 0.983027 0.277577
O O12 0.250000 0.750000 0.724040
#
# Coordination Sequence:
#
# PCOD9545313 Si02
#       5
#     8   8   8   8   8
#     4  11  23  40  66 100 130 175 228 272 345 408
#     4  11  24  45  68  95 147 176 232 288 346 421
#     4  11  22  44  64  96 134 178 219 279 347 404
#     4  11  22  43  69  99 135 179 236 287 333 417
#     4  10  26  43  69 105 135 186 231 285 358 403
#
# _framework density 20.350265
#
# number of rings (size 3 to 8) (size 9 to 14) (size 15 to 20)
#    0.000    1.200    4.000    1.200    5.600    6.000 
#    3.600    0.000    0.000    0.000    0.000    0.000 
#    0.000    0.000    0.000    0.000    0.000    0.000 
#
# Total GULP energy -223375.602887 kJ/mol
# GULP energy per Si atom -5584.390072 kJ/mol
# Density = 2.030395 g / cm^3
# Si number density = 20.350265 Si / 1000 Ang^3
#
#
#
# Elastic Constant Matrix: (Units=GPa)
#
#
# Indices 1 2 3 4 5 6 
#
# 1 49.0253 40.2213 -5.9640 0.0000 0.0000 -0.0473
# 2 40.2213 49.0253 -5.9640 0.0000 0.0000 0.0473
# 3 -5.9640 -5.9640 56.5232 0.0000 0.0000 0.0000
# 4 0.0000 0.0000 0.0000 32.2027 0.0000 0.0000
# 5 0.0000 0.0000 0.0000 0.0000 32.2027 0.0000
# 6 -0.0473 0.0473 0.0000 0.0000 0.0000 36.7157
#
#
#
# Elastic Compliance Matrix: (Units=1/GPa)
#
#
# Indices 1 2 3 4 5 6 
#
# 1 0.062476 -0.051111 0.001199 0.000000 0.000000 0.000146
# 2 -0.051111 0.062476 0.001199 0.000000 0.000000 -0.000146
# 3 0.001199 0.001199 0.017945 0.000000 0.000000 0.000000
# 4 0.000000 0.000000 0.000000 0.031053 0.000000 0.000000
# 5 0.000000 0.000000 0.000000 0.000000 0.031053 0.000000
# 6 0.000146 -0.000146 0.000000 0.000000 0.000000 0.027237
#
#
# Mechanical properties :
#
#
# Convention : Reuss Voigt Hill
#
# Bulk Modulus (GPa) = 21.99151 23.46224 22.72687
# Shear Modulus (GPa) = 14.50025 28.64291 21.57158
#
# Velocity S-wave (km/s) = 2.67223 3.75573 3.25932
# Velocity P-wave (km/s) = 4.51121 5.51013 5.03550
#
# Compressibility (1/GPa) = 0.04547210
#
# Stress axis : x y z
#
# Youngs Moduli (GPa) = 16.00620 16.00620 55.72607
#
# Poissons Ratio (x) = 0.81809 -0.06683
# Poissons Ratio (y) = 0.81809 -0.06683
# Poissons Ratio (z) = -0.01919 -0.01919
#
# Static dielectric constant tensor:
#      x y z
#    x 1.668680 0.000000 0.000000 
#    y 0.000000 1.668680 0.000000 
#    z 0.000000 0.000000 1.716720 
# 
# From -- ./inp_files/4492.got.cif
#   From: 2010.05.17/outbox.cif.g08.bks.cpg/sg86_3_cif.got.tgz:4492.got - 2010.06.03 19:03:11.
