data_PCOD9545522
_publ_section_title
;
Structure prediction by ZEFSAII (Michael W. Deem and Ramdas Pophale) SiO2 
 PCOD9545522
Probable space group: I 4/M
;
_chemical_formula_sum "Si O2"
_cell_formula_units_Z 36
_cell_length_a 10.127279
_cell_length_b 10.127279
_cell_length_c 11.665271
_cell_angle_alpha 90.000000
_cell_angle_beta 90.000000
_cell_angle_gamma 90.000000
_cell_volume 1196.410957
_symmetry_space_group_name_H-M "I 4/M"
_symmetry_group_IT_number 87
_symmetry_cell_setting 'tetragonal'
loop_
_space_group_symop_operation_xyz
x,y,z
-y,x,z
-x,-y,z
y,-x,z
-x,-y,-z
y,-x,-z
x,y,-z
-y,x,-z
1/2+x,1/2+y,1/2+z
1/2-y,1/2+x,1/2+z
1/2-x,1/2-y,1/2+z
1/2+y,1/2-x,1/2+z
1/2-x,1/2-y,1/2-z
1/2+y,1/2-x,1/2-z
1/2+x,1/2+y,1/2-z
1/2-y,1/2+x,1/2-z
loop_
_atom_site_type_symbol
_atom_site_label
_atom_site_fract_x
_atom_site_fract_y
_atom_site_fract_z
Si Si1 0.176293 0.112480 0.837378
Si Si2 0.447286 0.273976 0.867969
Si Si3 0.500000 0.000000 0.250000
O O1 0.300477 0.193100 0.870991
O O2 0.039036 0.178230 0.874454
O O3 0.140310 0.098166 0.698072
O O4 0.517240 0.136022 0.819267
O O5 0.480933 0.299016 0.000000
#
# Coordination Sequence:
#
# PCOD9545522 Si02
#       3
#    16  16   4
#     4   7  15  30  58  74  77 109 171 219 225 229
#     4  10  18  33  50  69  94 121 159 197 229 266
#     4  12  26  28  36  74 116 136 130 160 252 326
#
# _framework density 30.089994999999998
#
# number of rings (size 3 to 8) (size 9 to 14) (size 15 to 20)
#    2.667    0.444    0.000    2.000    0.000    3.556 
#    0.000    0.000    0.000    0.000    0.000    0.000 
#    0.000    7.111    0.000    0.000    0.000    0.000 
#
# Total GULP energy -100272.416417 kJ/mol
# GULP energy per Si atom -5570.689801 kJ/mol
# Density = 3.002151 g / cm^3
# Si number density = 30.089995 Si / 1000 Ang^3
#
#
#
# Elastic Constant Matrix: (Units=GPa)
#
#
# Indices 1 2 3 4 5 6 
#
# 1 249.4156 62.9119 25.8378 0.0000 0.0000 -34.9227
# 2 62.9119 249.4156 25.8378 0.0000 0.0000 34.9227
# 3 25.8378 25.8378 279.4949 0.0000 0.0000 0.0000
# 4 0.0000 0.0000 0.0000 -11.5620 0.0000 0.0000
# 5 0.0000 0.0000 0.0000 0.0000 -11.5620 0.0000
# 6 -34.9227 34.9227 0.0000 0.0000 0.0000 65.4540
#
#
#
# Elastic Compliance Matrix: (Units=1/GPa)
#
#
# Indices 1 2 3 4 5 6 
#
# 1 0.004976 -0.001725 -0.000301 0.000000 0.000000 0.003575
# 2 -0.001725 0.004976 -0.000301 0.000000 0.000000 -0.003575
# 3 -0.000301 -0.000301 0.003633 0.000000 0.000000 0.000000
# 4 0.000000 0.000000 0.000000 -0.086490 0.000000 0.000000
# 5 0.000000 0.000000 0.000000 0.000000 -0.086490 0.000000
# 6 0.003575 -0.003575 0.000000 0.000000 0.000000 0.019093
#
#
# Mechanical properties :
#
#
# Convention : Reuss Voigt Hill
#
# Bulk Modulus (GPa) = 111.93043 111.94459 111.93751
# Shear Modulus (GPa) = -37.68692 52.71523 7.51415
#
# Velocity S-wave (km/s) = -3.54287 4.19013 1.58198
# Velocity P-wave (km/s) = 4.53248 7.79061 6.37327
#
# Compressibility (1/GPa) = 0.00893412
#
# Stress axis : x y z
#
# Youngs Moduli (GPa) = 200.96040 200.96041 275.21997
#
# Poissons Ratio (x) = 0.34658 0.08273
# Poissons Ratio (y) = 0.34658 0.08273
# Poissons Ratio (z) = 0.06041 0.06041
#
# Static dielectric constant tensor:
#      x y z
#    x 2.434560 0.000000 0.000000 
#    y 0.000000 2.434560 0.000000 
#    z 0.000000 0.000000 2.583990 
# 
# From -- ./inp_files/1915.got.cif
#   From: 2010.05.17/outbox.cif.g08.bks.cpg/sg87_1_cif.got.tgz:1915.got - 2010.06.03 19:07:00.
