data_PCOD9545880
_publ_section_title
;
Structure prediction by ZEFSAII (Michael W. Deem and Ramdas Pophale) SiO2 
 PCOD9545880
Probable space group: I 4/M
;
_chemical_formula_sum "Si O2"
_cell_formula_units_Z 64
_cell_length_a 14.527743
_cell_length_b 14.527743
_cell_length_c 13.149565
_cell_angle_alpha 90.000000
_cell_angle_beta 90.000000
_cell_angle_gamma 90.000000
_cell_volume 2775.285605
_symmetry_space_group_name_H-M "I 4/M"
_symmetry_group_IT_number 87
_symmetry_cell_setting 'tetragonal'
loop_
_space_group_symop_operation_xyz
x,y,z
-y,x,z
-x,-y,z
y,-x,z
-x,-y,-z
y,-x,-z
x,y,-z
-y,x,-z
1/2+x,1/2+y,1/2+z
1/2-y,1/2+x,1/2+z
1/2-x,1/2-y,1/2+z
1/2+y,1/2-x,1/2+z
1/2-x,1/2-y,1/2-z
1/2+y,1/2-x,1/2-z
1/2+x,1/2+y,1/2-z
1/2-y,1/2+x,1/2-z
loop_
_atom_site_type_symbol
_atom_site_label
_atom_site_fract_x
_atom_site_fract_y
_atom_site_fract_z
Si Si1 0.673222 0.242137 0.886280
Si Si2 0.923187 0.876876 0.671781
Si Si3 0.931081 0.795775 0.885501
Si Si4 0.141843 0.463395 0.266023
O O1 0.696801 0.348262 0.863046
O O2 0.759504 0.173973 0.882942
O O3 0.600309 0.204271 0.805203
O O4 0.635654 0.234060 0.000000
O O5 0.027167 0.879132 0.635019
O O6 0.934546 0.867159 0.793263
O O7 0.994726 0.708094 0.852944
O O8 0.953642 0.826074 0.000000
O O9 0.052440 0.401565 0.292003
#
# Coordination Sequence:
#
# PCOD9545880 Si02
#       4
#    16  16  16  16
#     4  10  21  39  63  89 118 152 193 243 297 349
#     4  11  23  40  60  82 115 157 200 242 284 341
#     4  10  21  39  63  89 118 152 193 243 297 349
#     4   9  18  36  63  92 122 152 187 240 300 353
#
# _framework density 23.060690000000001
#
# number of rings (size 3 to 8) (size 9 to 14) (size 15 to 20)
#    0.000    2.000    2.500    0.750    0.000    3.000 
#    0.000    7.500    0.000    0.000    0.000    0.000 
#    0.000    0.000    0.000    0.000    0.000    0.000 
#
# Total GULP energy -178542.021049 kJ/mol
# GULP energy per Si atom -5579.438158 kJ/mol
# Density = 2.300820 g / cm^3
# Si number density = 23.060690 Si / 1000 Ang^3
#
#
#
# Elastic Constant Matrix: (Units=GPa)
#
#
# Indices 1 2 3 4 5 6 
#
# 1 70.3128 -13.3135 -7.8716 0.0000 0.0000 16.3746
# 2 -13.3135 70.3128 -7.8716 0.0000 0.0000 -16.3746
# 3 -7.8716 -7.8716 49.7558 0.0000 0.0000 0.0000
# 4 0.0000 0.0000 0.0000 15.6835 0.0000 0.0000
# 5 0.0000 0.0000 0.0000 0.0000 15.6835 0.0000
# 6 16.3746 -16.3746 0.0000 0.0000 0.0000 6.3624
#
#
#
# Elastic Compliance Matrix: (Units=1/GPa)
#
#
# Indices 1 2 3 4 5 6 
#
# 1 -0.748952 0.767298 0.002902 0.000000 0.000000 3.902325
# 2 0.767298 -0.748952 0.002902 0.000000 0.000000 -3.902325
# 3 0.002902 0.002902 0.021016 0.000000 0.000000 0.000000
# 4 0.000000 0.000000 0.000000 0.063761 0.000000 0.000000
# 5 0.000000 0.000000 0.000000 0.000000 0.063761 0.000000
# 6 3.902325 -3.902325 0.000000 0.000000 0.000000-19.929401
#
#
# Mechanical properties :
#
#
# Convention : Reuss Voigt Hill
#
# Bulk Modulus (GPa) = 14.42640 14.69645 14.56142
# Shear Modulus (GPa) = -0.21928 22.17509 10.97790
#
# Velocity S-wave (km/s) = -0.30870 3.10433 2.18421
# Velocity P-wave (km/s) = 2.47838 4.38588 3.56218
#
# Compressibility (1/GPa) = 0.06931739
#
# Stress axis : x y z
#
# Youngs Moduli (GPa) = -1.33520 -1.33520 47.58166
#
# Poissons Ratio (x) = 1.02450 -0.13810
# Poissons Ratio (y) = 1.02450 -0.13810
# Poissons Ratio (z) = 0.00388 0.00388
#
# Static dielectric constant tensor:
#      x y z
#    x 1.896170 0.000000 0.000000 
#    y 0.000000 1.896170 0.000000 
#    z 0.000000 0.000000 1.839920 
# 
# From -- ./inp_files/2335.got.cif
#   From: 2010.05.17/outbox.cif.g08.bks.cpg/sg87_2_cif.got.tgz:2335.got - 2010.06.03 19:07:00.
