data_PCOD9545567
_publ_section_title
;
Structure prediction by ZEFSAII (Michael W. Deem and Ramdas Pophale) SiO2 
 PCOD9545567
Probable space group: I 4/M
;
_chemical_formula_sum "Si O2"
_cell_formula_units_Z 96
_cell_length_a 23.970620
_cell_length_b 23.970620
_cell_length_c 7.653092
_cell_angle_alpha 90.000000
_cell_angle_beta 90.000000
_cell_angle_gamma 90.000000
_cell_volume 4397.394902
_symmetry_space_group_name_H-M "I 4/M"
_symmetry_group_IT_number 87
_symmetry_cell_setting 'tetragonal'
loop_
_space_group_symop_operation_xyz
x,y,z
-y,x,z
-x,-y,z
y,-x,z
-x,-y,-z
y,-x,-z
x,y,-z
-y,x,-z
1/2+x,1/2+y,1/2+z
1/2-y,1/2+x,1/2+z
1/2-x,1/2-y,1/2+z
1/2+y,1/2-x,1/2+z
1/2-x,1/2-y,1/2-z
1/2+y,1/2-x,1/2-z
1/2+x,1/2+y,1/2-z
1/2-y,1/2+x,1/2-z
loop_
_atom_site_type_symbol
_atom_site_label
_atom_site_fract_x
_atom_site_fract_y
_atom_site_fract_z
Si Si1 0.471584 0.835838 0.789573
Si Si2 0.781063 0.838860 0.203248
Si Si3 0.910782 0.634444 0.709234
Si Si4 0.995848 0.090466 0.713649
Si Si5 0.169869 0.273149 0.711540
Si Si6 0.536827 0.289540 0.799037
O O1 0.415931 0.869524 0.748769
O O2 0.526100 0.868979 0.726089
O O3 0.472883 0.772144 0.721729
O O4 0.473048 0.832045 0.000000
O O5 0.825653 0.789503 0.221874
O O6 0.723973 0.809430 0.269123
O O7 0.796002 0.895982 0.296562
O O8 0.772793 0.852493 0.000000
O O9 0.913133 0.637517 0.500000
O O10 0.883396 0.692236 0.769924
O O11 0.995320 0.091848 0.500000
O O12 0.989473 0.153951 0.777325
O O13 0.051533 0.056787 0.765554
O O14 0.171784 0.270782 0.500000
O O15 0.517123 0.286926 0.000000
#
# Coordination Sequence:
#
# PCOD9545567 Si02
#       6
#    16  16  16  16  16  16
#     4  10  22  37  56  81 106 137 180 227 273 327
#     4  10  19  31  51  79 108 140 174 213 262 319
#     4  10  21  39  58  78 108 143 180 223 274 326
#     4   8  15  29  51  80 110 140 177 221 265 308
#     4   9  18  33  53  76 104 140 174 214 265 317
#     4  10  19  32  53  81 110 140 177 223 268 316
#
# _framework density 21.831106999999999
#
# number of rings (size 3 to 8) (size 9 to 14) (size 15 to 20)
#    0.000    2.500    1.667    1.000    0.000    3.667 
#    0.000    6.667    0.000    3.000    0.000    1.167 
#    0.000    0.000    0.000    0.000    0.000    0.000 
#
# Total GULP energy -267868.459832 kJ/mol
# GULP energy per Si atom -5580.592913 kJ/mol
# Density = 2.178142 g / cm^3
# Si number density = 21.831107 Si / 1000 Ang^3
#
#
#
# Elastic Constant Matrix: (Units=GPa)
#
#
# Indices 1 2 3 4 5 6 
#
# 1 102.7373 45.5975 -1.5839 0.0000 0.0000 14.1568
# 2 45.5975 102.7373 -1.5839 0.0000 0.0000 -14.1568
# 3 -1.5839 -1.5839 35.9528 0.0000 0.0000 0.0000
# 4 0.0000 0.0000 0.0000 10.6089 0.0000 0.0000
# 5 0.0000 0.0000 0.0000 0.0000 10.6089 0.0000
# 6 14.1568 -14.1568 0.0000 0.0000 0.0000 10.1249
#
#
#
# Elastic Compliance Matrix: (Units=1/GPa)
#
#
# Indices 1 2 3 4 5 6 
#
# 1 0.031862 -0.025114 0.000297 0.000000 0.000000 -0.079666
# 2 -0.025114 0.031862 0.000297 0.000000 0.000000 0.079666
# 3 0.000297 0.000297 0.027840 0.000000 0.000000 0.000000
# 4 0.000000 0.000000 0.000000 0.094261 0.000000 0.000000
# 5 0.000000 0.000000 0.000000 0.000000 0.094261 0.000000
# 6 -0.079666 0.079666 0.000000 0.000000 0.000000 0.321549
#
#
# Mechanical properties :
#
#
# Convention : Reuss Voigt Hill
#
# Bulk Modulus (GPa) = 23.51545 36.25409 29.88477
# Shear Modulus (GPa) = 7.52049 19.53503 13.52776
#
# Velocity S-wave (km/s) = 1.85804 2.99461 2.49199
# Velocity P-wave (km/s) = 3.92403 5.34786 4.69029
#
# Compressibility (1/GPa) = 0.04252524
#
# Stress axis : x y z
#
# Youngs Moduli (GPa) = 31.38505 31.38505 35.91899
#
# Poissons Ratio (x) = 0.78822 -0.01068
# Poissons Ratio (y) = 0.78822 -0.01068
# Poissons Ratio (z) = -0.00933 -0.00933
#
# Static dielectric constant tensor:
#      x y z
#    x 1.798520 0.000000 0.000000 
#    y 0.000000 1.798520 0.000000 
#    z 0.000000 0.000000 1.856170 
# 
# From -- ./inp_files/1423.got.cif
#   From: 2010.05.17/outbox.cif.g08.bks.cpg/sg87_1_cif.got.tgz:1423.got - 2010.06.03 19:07:00.
