data_PCOD9545627
_publ_section_title
;
Structure prediction by ZEFSAII (Michael W. Deem and Ramdas Pophale) SiO2 
 PCOD9545627
Probable space group: I 4/M
;
_chemical_formula_sum "Si O2"
_cell_formula_units_Z 48
_cell_length_a 12.873308
_cell_length_b 12.873308
_cell_length_c 14.015675
_cell_angle_alpha 90.000000
_cell_angle_beta 90.000000
_cell_angle_gamma 90.000000
_cell_volume 2322.706517
_symmetry_space_group_name_H-M "I 4/M"
_symmetry_group_IT_number 87
_symmetry_cell_setting 'tetragonal'
loop_
_space_group_symop_operation_xyz
x,y,z
-y,x,z
-x,-y,z
y,-x,z
-x,-y,-z
y,-x,-z
x,y,-z
-y,x,-z
1/2+x,1/2+y,1/2+z
1/2-y,1/2+x,1/2+z
1/2-x,1/2-y,1/2+z
1/2+y,1/2-x,1/2+z
1/2-x,1/2-y,1/2-z
1/2+y,1/2-x,1/2-z
1/2+x,1/2+y,1/2-z
1/2-y,1/2+x,1/2-z
loop_
_atom_site_type_symbol
_atom_site_label
_atom_site_fract_x
_atom_site_fract_y
_atom_site_fract_z
Si Si1 0.209117 0.508984 0.308276
Si Si2 0.565383 0.852337 0.893175
Si Si3 0.684774 0.298334 0.610331
O O1 0.184267 0.499689 0.196724
O O2 0.110979 0.466954 0.368928
O O3 0.239522 0.624872 0.335377
O O4 0.298261 0.428752 0.340666
O O5 0.675411 0.788093 0.889063
O O6 0.522850 0.845426 0.000000
O O7 0.677812 0.330398 0.500000
#
# Coordination Sequence:
#
# PCOD9545627 Si02
#       3
#    16  16  16
#     4  10  19  35  55  80 114 142 175 227 273 321
#     4   9  20  36  55  81 110 144 185 221 270 328
#     4   9  18  34  58  83 109 140 182 227 272 322
#
# _framework density 20.665545999999999
#
# number of rings (size 3 to 8) (size 9 to 14) (size 15 to 20)
#    2.000    0.667    0.000    3.000    0.000    1.333 
#    0.000   10.000    0.000    0.000    0.000    2.333 
#    0.000    0.000    0.000    0.000    0.000    0.000 
#
# Total GULP energy -133665.949002 kJ/mol
# GULP energy per Si atom -5569.414542 kJ/mol
# Density = 2.061851 g / cm^3
# Si number density = 20.665546 Si / 1000 Ang^3
#
#
#
# Elastic Constant Matrix: (Units=GPa)
#
#
# Indices 1 2 3 4 5 6 
#
# 1 45.9559 22.9027 24.5696 0.0000 0.0000 5.4647
# 2 22.9027 45.9559 24.5696 0.0000 0.0000 -5.4647
# 3 24.5696 24.5696 182.7618 0.0000 0.0000 0.0000
# 4 0.0000 0.0000 0.0000 25.7092 0.0000 0.0000
# 5 0.0000 0.0000 0.0000 0.0000 25.7092 0.0000
# 6 5.4647 -5.4647 0.0000 0.0000 0.0000 11.6676
#
#
#
# Elastic Compliance Matrix: (Units=1/GPa)
#
#
# Indices 1 2 3 4 5 6 
#
# 1 0.035911 -0.019848 -0.002160 0.000000 0.000000 -0.026116
# 2 -0.019848 0.035911 -0.002160 0.000000 0.000000 0.026116
# 3 -0.002160 -0.002160 0.006052 0.000000 0.000000 0.000000
# 4 0.000000 0.000000 0.000000 0.038897 0.000000 0.000000
# 5 0.000000 0.000000 0.000000 0.000000 0.038897 0.000000
# 6 -0.026116 0.026116 0.000000 0.000000 0.000000 0.110171
#
#
# Mechanical properties :
#
#
# Convention : Reuss Voigt Hill
#
# Bulk Modulus (GPa) = 33.85082 46.52861 40.18972
# Shear Modulus (GPa) = 15.43115 26.12599 20.77857
#
# Velocity S-wave (km/s) = 2.73556 3.55946 3.17435
# Velocity P-wave (km/s) = 5.13747 6.28147 5.73805
#
# Compressibility (1/GPa) = 0.02954138
#
# Stress axis : x y z
#
# Youngs Moduli (GPa) = 27.84633 27.84634 165.22833
#
# Poissons Ratio (x) = 0.55269 0.35681
# Poissons Ratio (y) = 0.55269 0.35681
# Poissons Ratio (z) = 0.06013 0.06013
#
# Static dielectric constant tensor:
#      x y z
#    x 1.773120 0.000000 0.000000 
#    y 0.000000 1.773120 0.000000 
#    z 0.000000 0.000000 1.730180 
# 
# From -- ./inp_files/553.got.cif
#   From: 2010.05.17/outbox.cif.g08.bks.cpg/sg87_1_cif.got.tgz:553.got - 2010.06.03 19:07:00.
