data_PCOD9545528
_publ_section_title
;
Structure prediction by ZEFSAII (Michael W. Deem and Ramdas Pophale) SiO2 
 PCOD9545528
Probable space group: I 4/M
;
_chemical_formula_sum "Si O2"
_cell_formula_units_Z 120
_cell_length_a 27.647041
_cell_length_b 27.647041
_cell_length_c 7.690867
_cell_angle_alpha 90.000000
_cell_angle_beta 90.000000
_cell_angle_gamma 90.000000
_cell_volume 5878.582456
_symmetry_space_group_name_H-M "I 4/M"
_symmetry_group_IT_number 87
_symmetry_cell_setting 'tetragonal'
loop_
_space_group_symop_operation_xyz
x,y,z
-y,x,z
-x,-y,z
y,-x,z
-x,-y,-z
y,-x,-z
x,y,-z
-y,x,-z
1/2+x,1/2+y,1/2+z
1/2-y,1/2+x,1/2+z
1/2-x,1/2-y,1/2+z
1/2+y,1/2-x,1/2+z
1/2-x,1/2-y,1/2-z
1/2+y,1/2-x,1/2-z
1/2+x,1/2+y,1/2-z
1/2-y,1/2+x,1/2-z
loop_
_atom_site_type_symbol
_atom_site_label
_atom_site_fract_x
_atom_site_fract_y
_atom_site_fract_z
Si Si1 0.544902 0.567313 0.500000
Si Si2 0.448843 0.255146 0.790295
Si Si3 0.028757 0.678169 0.205185
Si Si4 0.681896 0.665161 0.295633
Si Si5 0.923426 0.493830 0.299580
Si Si6 0.132199 0.713764 0.786761
Si Si7 0.158809 0.271341 0.710636
Si Si8 0.424692 0.362033 0.198562
O O1 0.486972 0.564665 0.500000
O O2 0.562640 0.595950 0.330675
O O3 0.492936 0.223177 0.725779
O O4 0.397063 0.233633 0.732482
O O5 0.449285 0.311583 0.740975
O O6 0.449176 0.253926 0.000000
O O7 0.004245 0.629416 0.276938
O O8 0.081745 0.691252 0.274723
O O9 0.035278 0.668268 0.000000
O O10 0.675758 0.654720 0.500000
O O11 0.730656 0.639652 0.232756
O O12 0.685919 0.723081 0.273212
O O13 0.632752 0.648837 0.203637
O O14 0.919235 0.477959 0.500000
O O15 0.956324 0.453947 0.206556
O O16 0.178998 0.683228 0.731872
O O17 0.131865 0.713938 0.000000
O O18 0.159506 0.270250 0.500000
O O19 0.439079 0.372245 0.000000
#
# Coordination Sequence:
#
# PCOD9545528 Si02
#       8
#     8  16  16  16  16  16  16  16
#     4  11  26  46  70 102 132 166 212 255 306 364
#     4   9  20  36  58  86 116 156 200 247 303 366
#     4  10  22  36  54  81 112 151 198 251 306 365
#     4  10  18  33  59  89 120 157 205 248 300 369
#     4  10  21  37  58  79 104 146 198 252 311 368
#     4   9  19  34  52  80 116 156 199 245 305 369
#     4   9  18  34  56  79 112 157 197 242 308 375
#     4  10  22  43  68  96 129 169 211 250 312 371
#
# _framework density 20.413083
#
# number of rings (size 3 to 8) (size 9 to 14) (size 15 to 20)
#    0.000    2.333    0.667    2.400    2.800    3.200 
#    0.000    4.667    0.000    0.000    0.000    0.000 
#    0.000    0.000    0.000    0.000    0.000    0.000 
#
# Total GULP energy -335131.940613 kJ/mol
# GULP energy per Si atom -5585.532344 kJ/mol
# Density = 2.036662 g / cm^3
# Si number density = 20.413083 Si / 1000 Ang^3
#
#
#
# Elastic Constant Matrix: (Units=GPa)
#
#
# Indices 1 2 3 4 5 6 
#
# 1 38.0002 5.7649 7.3483 0.0000 0.0000 -11.8237
# 2 5.7649 38.0002 7.3483 0.0000 0.0000 11.8237
# 3 7.3483 7.3483 51.6451 0.0000 0.0000 0.0000
# 4 0.0000 0.0000 0.0000 13.7309 0.0000 0.0000
# 5 0.0000 0.0000 0.0000 0.0000 13.7309 0.0000
# 6 -11.8237 11.8237 0.0000 0.0000 0.0000 19.1449
#
#
#
# Elastic Compliance Matrix: (Units=1/GPa)
#
#
# Indices 1 2 3 4 5 6 
#
# 1 0.040357 -0.016362 -0.003414 0.000000 0.000000 0.035029
# 2 -0.016362 0.040357 -0.003414 0.000000 0.000000 -0.035029
# 3 -0.003414 -0.003414 0.020335 0.000000 0.000000 0.000000
# 4 0.000000 0.000000 0.000000 0.072828 0.000000 0.000000
# 5 0.000000 0.000000 0.000000 0.000000 0.072828 0.000000
# 6 0.035029 -0.035029 0.000000 0.000000 0.000000 0.095501
#
#
# Mechanical properties :
#
#
# Convention : Reuss Voigt Hill
#
# Bulk Modulus (GPa) = 18.29186 18.72983 18.51085
# Shear Modulus (GPa) = 12.29075 16.46695 14.37885
#
# Velocity S-wave (km/s) = 2.45644 2.84330 2.65692
# Velocity P-wave (km/s) = 4.12623 4.46928 4.30118
#
# Compressibility (1/GPa) = 0.05466913
#
# Stress axis : x y z
#
# Youngs Moduli (GPa) = 24.77861 24.77861 49.17746
#
# Poissons Ratio (x) = 0.40542 0.16790
# Poissons Ratio (y) = 0.40542 0.16790
# Poissons Ratio (z) = 0.08460 0.08460
#
# Static dielectric constant tensor:
#      x y z
#    x 1.704500 0.000000 0.000000 
#    y 0.000000 1.704500 0.000000 
#    z 0.000000 0.000000 1.730870 
# 
# From -- ./inp_files/1692.got.cif
#   From: 2010.05.17/outbox.cif.g08.bks.cpg/sg87_1_cif.got.tgz:1692.got - 2010.06.03 19:07:00.
