data_PCOD9545261
_publ_section_title
;
Structure prediction by ZEFSAII (Michael W. Deem and Ramdas Pophale) SiO2 
 PCOD9545261
Probable space group: P 42/N
;
_chemical_formula_sum "Si O2"
_cell_formula_units_Z 26
_cell_length_a 10.340665
_cell_length_b 10.340665
_cell_length_c 9.210556
_cell_angle_alpha 90.000000
_cell_angle_beta 90.000000
_cell_angle_gamma 90.000000
_cell_volume 984.878791
_symmetry_space_group_name_H-M "P 42/N"
_symmetry_group_IT_number 86
_space_group.IT_coordinate_system_code '2'
_symmetry_cell_setting 'tetragonal'
loop_
_space_group_symop_operation_xyz
x,y,z
-y,1/2+x,1/2+z
1/2-x,1/2-y,z
1/2+y,-x,1/2+z
-x,-y,-z
y,1/2-x,1/2-z
1/2+x,1/2+y,-z
1/2-y,x,1/2-z
loop_
_atom_site_type_symbol
_atom_site_label
_atom_site_fract_x
_atom_site_fract_y
_atom_site_fract_z
Si Si1 0.975496 0.193164 0.262968
Si Si2 0.250000 0.250000 0.250000
Si Si3 0.352856 0.639263 0.015492
Si Si4 0.177629 0.052240 0.773545
O O1 0.974030 0.178974 0.086525
O O2 0.901861 0.321657 0.319314
O O3 0.121282 0.188939 0.319291
O O4 0.891512 0.066889 0.310955
O O5 0.250000 0.750000 0.982335
O O6 0.311553 0.508847 0.932143
O O7 0.092885 0.181332 0.778929
#
# Coordination Sequence:
#
# PCOD9545261 Si02
#       4
#     8   2   8   8
#     4  10  26  47  73 110 156 204 263 320 384 470
#     4  12  28  48  72 120 154 216 256 322 392 468
#     4  10  23  45  75 106 153 205 258 319 388 457
#     4   9  22  44  73 114 153 201 258 318 387 468
#
# _framework density 26.399184999999999
#
# number of rings (size 3 to 8) (size 9 to 14) (size 15 to 20)
#    1.846    0.308    0.000    0.923    4.308    4.923 
#    5.538    0.000    0.000    0.000    0.000    0.000 
#    0.000    0.000    0.000    0.000    0.000    0.000 
#
# Total GULP energy -144781.762364 kJ/mol
# GULP energy per Si atom -5568.529322 kJ/mol
# Density = 2.633910 g / cm^3
# Si number density = 26.399185 Si / 1000 Ang^3
#
#
#
# Elastic Constant Matrix: (Units=GPa)
#
#
# Indices 1 2 3 4 5 6 
#
# 1 171.3129 64.1634 33.4843 0.0000 0.0000 25.8907
# 2 64.1634 171.3129 33.4843 0.0000 0.0000 -25.8907
# 3 33.4843 33.4843 107.0143 0.0000 0.0000 0.0000
# 4 0.0000 0.0000 0.0000 -3.1998 0.0000 0.0000
# 5 0.0000 0.0000 0.0000 0.0000 -3.1998 0.0000
# 6 25.8907 -25.8907 0.0000 0.0000 0.0000 38.6863
#
#
#
# Elastic Compliance Matrix: (Units=1/GPa)
#
#
# Indices 1 2 3 4 5 6 
#
# 1 0.009228 -0.004566 -0.001459 0.000000 0.000000 -0.009232
# 2 -0.004566 0.009228 -0.001459 0.000000 0.000000 0.009232
# 3 -0.001459 -0.001459 0.010257 0.000000 0.000000 0.000000
# 4 0.000000 0.000000 0.000000 -0.312522 0.000000 0.000000
# 5 0.000000 0.000000 0.000000 0.000000 -0.312522 0.000000
# 6 -0.009232 0.009232 0.000000 0.000000 0.000000 0.038205
#
#
# Mechanical properties :
#
#
# Convention : Reuss Voigt Hill
#
# Bulk Modulus (GPa) = 72.74805 79.10047 75.92426
# Shear Modulus (GPa) = -9.28374 27.69122 9.20374
#
# Velocity S-wave (km/s) = -1.87731 3.24225 1.86921
# Velocity P-wave (km/s) = 4.78724 6.63661 5.78629
#
# Compressibility (1/GPa) = 0.01374607
#
# Stress axis : x y z
#
# Youngs Moduli (GPa) = 108.36837 108.36837 97.49147
#
# Poissons Ratio (x) = 0.49484 0.14220
# Poissons Ratio (y) = 0.49484 0.14220
# Poissons Ratio (z) = 0.15806 0.15806
#
# Static dielectric constant tensor:
#      x y z
#    x 2.104750 0.000000 0.000000 
#    y 0.000000 2.104750 0.000000 
#    z 0.000000 0.000000 2.058460 
# 
# From -- ./inp_files/1733.got.cif
#   From: 2010.05.17/outbox.cif.g08.bks.cpg/sg86_1_cif.got.tgz:1733.got - 2010.06.03 19:03:11.
