data_PCOD9545909
_publ_section_title
;
Structure prediction by ZEFSAII (Michael W. Deem and Ramdas Pophale) SiO2 
 PCOD9545909
Probable space group: I 4/M
;
_chemical_formula_sum "Si O2"
_cell_formula_units_Z 96
_cell_length_a 24.567173
_cell_length_b 24.567173
_cell_length_c 8.177113
_cell_angle_alpha 90.000000
_cell_angle_beta 90.000000
_cell_angle_gamma 90.000000
_cell_volume 4935.263754
_symmetry_space_group_name_H-M "I 4/M"
_symmetry_group_IT_number 87
_symmetry_cell_setting 'tetragonal'
loop_
_space_group_symop_operation_xyz
x,y,z
-y,x,z
-x,-y,z
y,-x,z
-x,-y,-z
y,-x,-z
x,y,-z
-y,x,-z
1/2+x,1/2+y,1/2+z
1/2-y,1/2+x,1/2+z
1/2-x,1/2-y,1/2+z
1/2+y,1/2-x,1/2+z
1/2-x,1/2-y,1/2-z
1/2+y,1/2-x,1/2-z
1/2+x,1/2+y,1/2-z
1/2-y,1/2+x,1/2-z
loop_
_atom_site_type_symbol
_atom_site_label
_atom_site_fract_x
_atom_site_fract_y
_atom_site_fract_z
Si Si1 0.792852 0.956717 0.196779
Si Si2 0.732017 0.664760 0.697482
Si Si3 0.508972 0.915997 0.810900
Si Si4 0.456649 0.203262 0.698171
Si Si5 0.230808 0.665030 0.302494
Si Si6 0.513485 0.413299 0.802550
O O1 0.781650 0.895531 0.258261
O O2 0.853197 0.975974 0.240165
O O3 0.747815 0.999596 0.255913
O O4 0.788626 0.955032 0.000000
O O5 0.730015 0.664100 0.500000
O O6 0.689345 0.711074 0.754245
O O7 0.791543 0.685478 0.748640
O O8 0.458350 0.941464 0.713012
O O9 0.526156 0.856559 0.753837
O O10 0.493100 0.914958 0.000000
O O11 0.456126 0.203966 0.500000
O O12 0.395832 0.218453 0.755116
O O13 0.231836 0.664245 0.500000
O O14 0.560323 0.455991 0.750092
O O15 0.513564 0.412428 0.000000
#
# Coordination Sequence:
#
# PCOD9545909 Si02
#       6
#    16  16  16  16  16  16
#     4  10  22  36  58  87 117 148 187 239 288 339
#     4   9  19  36  56  82 112 146 188 232 283 336
#     4  11  23  41  64  88 116 152 192 237 287 344
#     4  10  22  38  56  86 121 152 188 237 288 336
#     4   9  19  36  57  78 111 151 189 232 279 334
#     4   9  20  39  59  81 114 153 192 238 289 342
#
# _framework density 19.451847999999998
#
# number of rings (size 3 to 8) (size 9 to 14) (size 15 to 20)
#    0.000    2.333    0.000    2.500    4.667    2.667 
#    0.000    0.833    0.000    0.000    0.000    0.000 
#    0.000    0.000    0.000    0.000    0.000    0.000 
#
# Total GULP energy -268022.193562 kJ/mol
# GULP energy per Si atom -5583.795699 kJ/mol
# Density = 1.940757 g / cm^3
# Si number density = 19.451848 Si / 1000 Ang^3
#
#
#
# Elastic Constant Matrix: (Units=GPa)
#
#
# Indices 1 2 3 4 5 6 
#
# 1 164.5624 105.8652 1.4452 0.0000 0.0000 0.9907
# 2 105.8652 164.5624 1.4452 0.0000 0.0000 -0.9907
# 3 1.4452 1.4452 7.8679 0.0000 0.0000 0.0000
# 4 0.0000 0.0000 0.0000 24.3227 0.0000 0.0000
# 5 0.0000 0.0000 0.0000 0.0000 24.3227 0.0000
# 6 0.9907 -0.9907 0.0000 0.0000 0.0000 13.6809
#
#
#
# Elastic Compliance Matrix: (Units=1/GPa)
#
#
# Indices 1 2 3 4 5 6 
#
# 1 0.010392 -0.006687 -0.000681 0.000000 0.000000 -0.001237
# 2 -0.006687 0.010392 -0.000681 0.000000 0.000000 0.001237
# 3 -0.000681 -0.000681 0.127349 0.000000 0.000000 0.000000
# 4 0.000000 0.000000 0.000000 0.041114 0.000000 0.000000
# 5 0.000000 0.000000 0.000000 0.000000 0.041114 0.000000
# 6 -0.001237 0.001237 0.000000 0.000000 0.000000 0.073274
#
#
# Mechanical properties :
#
#
# Convention : Reuss Voigt Hill
#
# Bulk Modulus (GPa) = 7.57364 61.61154 34.59259
# Shear Modulus (GPa) = 13.74601 27.68105 20.71353
#
# Velocity S-wave (km/s) = 2.66121 3.77643 3.26676
# Velocity P-wave (km/s) = 3.65304 7.12446 5.66139
#
# Compressibility (1/GPa) = 0.13203695
#
# Stress axis : x y z
#
# Youngs Moduli (GPa) = 96.23042 96.23042 7.85244
#
# Poissons Ratio (x) = 0.64345 0.00534
# Poissons Ratio (y) = 0.64345 0.00534
# Poissons Ratio (z) = 0.06549 0.06549
#
# Static dielectric constant tensor:
#      x y z
#    x 1.657110 0.000000 0.000000 
#    y 0.000000 1.657110 0.000000 
#    z 0.000000 0.000000 1.685690 
# 
# From -- ./inp_files/1376.got.cif
#   From: 2010.05.17/outbox.cif.g08.bks.cpg/sg87_1_cif.got.tgz:1376.got - 2010.06.03 19:07:00.
