data_PCOD9545188
_publ_section_title
;
Structure prediction by ZEFSAII (Michael W. Deem and Ramdas Pophale) SiO2 
 PCOD9545188
Probable space group: P 42/N
;
_chemical_formula_sum "Si O2"
_cell_formula_units_Z 46
_cell_length_a 9.156433
_cell_length_b 9.156433
_cell_length_c 28.110525
_cell_angle_alpha 90.000000
_cell_angle_beta 90.000000
_cell_angle_gamma 90.000000
_cell_volume 2356.793873
_symmetry_space_group_name_H-M "P 42/N"
_symmetry_group_IT_number 86
_space_group.IT_coordinate_system_code '2'
_symmetry_cell_setting 'tetragonal'
loop_
_space_group_symop_operation_xyz
x,y,z
-y,1/2+x,1/2+z
1/2-x,1/2-y,z
1/2+y,-x,1/2+z
-x,-y,-z
y,1/2-x,1/2-z
1/2+x,1/2+y,-z
1/2-y,x,1/2-z
loop_
_atom_site_type_symbol
_atom_site_label
_atom_site_fract_x
_atom_site_fract_y
_atom_site_fract_z
Si Si1 0.250000 0.750000 0.011159
Si Si2 0.805361 0.527081 0.430199
Si Si3 0.956963 0.861681 0.179416
Si Si4 0.913199 0.188828 0.665151
Si Si5 0.689444 0.992644 0.059131
Si Si6 0.861928 0.968351 0.749426
Si Si7 0.750000 0.750000 0.250000
O O1 0.373492 0.677510 0.044098
O O2 0.181091 0.623960 0.978000
O O3 0.800133 0.514513 0.372825
O O4 0.934793 0.642782 0.439727
O O5 0.653661 0.596157 0.448891
O O6 0.891021 0.744735 0.216184
O O7 0.822629 0.977114 0.176326
O O8 0.092498 0.939699 0.204135
O O9 0.750000 0.250000 0.665819
O O10 0.951021 0.144443 0.611346
O O11 0.913274 0.059591 0.703514
O O12 0.939596 0.810993 0.751899
#
# Coordination Sequence:
#
# PCOD9545188 Si02
#       7
#     4   8   8   8   8   8   2
#     4  12  22  42  68  92 122 164 202 252 332 370
#     4  10  24  41  62  96 129 156 206 264 305 364
#     4  11  22  38  61  91 128 162 208 257 301 360
#     4  11  20  38  62  87 116 168 212 245 299 369
#     4  10  22  42  66  91 122 160 210 259 305 371
#     4  11  24  39  58  91 133 167 202 254 316 374
#     4  12  20  36  64  92 112 172 216 252 296 356
#
# _framework density 19.518041
#
# number of rings (size 3 to 8) (size 9 to 14) (size 15 to 20)
#    0.000    1.217    4.348    3.130    0.000    1.391 
#    1.565    0.000    0.000    2.087    0.000    0.000 
#    0.000    0.000    0.000    0.000    0.000    0.000 
#
# Total GULP energy -256960.078895 kJ/mol
# GULP energy per Si atom -5586.088672 kJ/mol
# Density = 1.947362 g / cm^3
# Si number density = 19.518041 Si / 1000 Ang^3
#
#
#
# Elastic Constant Matrix: (Units=GPa)
#
#
# Indices 1 2 3 4 5 6 
#
# 1 60.6006 24.6521 32.1547 0.0000 0.0000 0.2564
# 2 24.6521 60.6006 32.1547 0.0000 0.0000 -0.2564
# 3 32.1547 32.1547 112.5988 0.0000 0.0000 0.0000
# 4 0.0000 0.0000 0.0000 26.2860 0.0000 0.0000
# 5 0.0000 0.0000 0.0000 0.0000 26.2860 0.0000
# 6 0.2564 -0.2564 0.0000 0.0000 0.0000 20.5577
#
#
#
# Elastic Compliance Matrix: (Units=1/GPa)
#
#
# Indices 1 2 3 4 5 6 
#
# 1 0.021386 -0.006436 -0.004269 0.000000 0.000000 -0.000347
# 2 -0.006436 0.021386 -0.004269 0.000000 0.000000 0.000347
# 3 -0.004269 -0.004269 0.011319 0.000000 0.000000 0.000000
# 4 0.000000 0.000000 0.000000 0.038043 0.000000 0.000000
# 5 0.000000 0.000000 0.000000 0.000000 0.038043 0.000000
# 6 -0.000347 0.000347 0.000000 0.000000 0.000000 0.048652
#
#
# Mechanical properties :
#
#
# Convention : Reuss Voigt Hill
#
# Bulk Modulus (GPa) = 41.42021 45.74698 43.58360
# Shear Modulus (GPa) = 23.05977 24.28185 23.67081
#
# Velocity S-wave (km/s) = 3.44096 3.53097 3.48626
# Velocity P-wave (km/s) = 6.08725 6.33347 6.21158
#
# Compressibility (1/GPa) = 0.02414281
#
# Stress axis : x y z
#
# Youngs Moduli (GPa) = 46.75857 46.75857 88.34329
#
# Poissons Ratio (x) = 0.30094 0.37717
# Poissons Ratio (y) = 0.30094 0.37717
# Poissons Ratio (z) = 0.19963 0.19963
#
# Static dielectric constant tensor:
#      x y z
#    x 1.684660 0.000000 0.000000 
#    y 0.000000 1.684660 0.000000 
#    z 0.000000 0.000000 1.676640 
# 
# From -- ./inp_files/5094.got.cif
#   From: 2010.05.17/outbox.cif.g08.bks.cpg/sg86_3_cif.got.tgz:5094.got - 2010.06.03 19:03:11.
