data_PCOD9545704
_publ_section_title
;
Structure prediction by ZEFSAII (Michael W. Deem and Ramdas Pophale) SiO2 
 PCOD9545704
Probable space group: I 4/M
;
_chemical_formula_sum "Si O2"
_cell_formula_units_Z 112
_cell_length_a 15.559331
_cell_length_b 15.559331
_cell_length_c 22.607912
_cell_angle_alpha 90.000000
_cell_angle_beta 90.000000
_cell_angle_gamma 90.000000
_cell_volume 5473.212292
_symmetry_space_group_name_H-M "I 4/M"
_symmetry_group_IT_number 87
_symmetry_cell_setting 'tetragonal'
loop_
_space_group_symop_operation_xyz
x,y,z
-y,x,z
-x,-y,z
y,-x,z
-x,-y,-z
y,-x,-z
x,y,-z
-y,x,-z
1/2+x,1/2+y,1/2+z
1/2-y,1/2+x,1/2+z
1/2-x,1/2-y,1/2+z
1/2+y,1/2-x,1/2+z
1/2-x,1/2-y,1/2-z
1/2+y,1/2-x,1/2-z
1/2+x,1/2+y,1/2-z
1/2-y,1/2+x,1/2-z
loop_
_atom_site_type_symbol
_atom_site_label
_atom_site_fract_x
_atom_site_fract_y
_atom_site_fract_z
Si Si1 0.986225 0.593816 0.600293
Si Si2 0.921819 0.878903 0.805646
Si Si3 0.440411 0.842192 0.304002
Si Si4 0.074030 0.125509 0.672486
Si Si5 0.748748 0.371688 0.064857
Si Si6 0.638195 0.134423 0.821508
Si Si7 0.722197 0.703331 0.362049
O O1 0.929854 0.573399 0.659212
O O2 0.932014 0.666799 0.567664
O O3 0.000000 0.500000 0.571488
O O4 0.077433 0.630677 0.621216
O O5 0.902890 0.843278 0.739150
O O6 0.874500 0.832082 0.859473
O O7 0.023753 0.886573 0.808018
O O8 0.420653 0.852716 0.235495
O O9 0.539907 0.819474 0.313964
O O10 0.369115 0.777222 0.328716
O O11 0.102797 0.187541 0.619675
O O12 0.970510 0.113572 0.668094
O O13 0.777892 0.274005 0.078519
O O14 0.708515 0.379505 0.000000
O O15 0.707154 0.209703 0.827550
#
# Coordination Sequence:
#
# PCOD9545704 Si02
#       7
#    16  16  16  16  16  16  16
#     4   9  21  38  59  85 114 157 205 246 304 358
#     4   9  19  37  63  95 131 156 182 238 310 386
#     4  10  20  34  54  84 123 154 187 237 306 374
#     4   9  21  40  62  90 122 158 195 240 302 367
#     4  11  26  43  59  82 120 164 213 262 292 339
#     4  11  20  34  57  85 120 157 190 241 299 375
#     4  11  24  35  55  91 121 155 200 247 307 360
#
# _framework density 20.463304000000001
#
# number of rings (size 3 to 8) (size 9 to 14) (size 15 to 20)
#    0.000    2.000    1.429    2.143    8.000    2.000 
#    0.000    0.714    0.000    9.429    0.000    1.000 
#    0.000    0.000    0.000    0.000    0.000    0.000 
#
# Total GULP energy -312484.992178 kJ/mol
# GULP energy per Si atom -5580.089146 kJ/mol
# Density = 2.041673 g / cm^3
# Si number density = 20.463304 Si / 1000 Ang^3
#
#
#
# Elastic Constant Matrix: (Units=GPa)
#
#
# Indices 1 2 3 4 5 6 
#
# 1 74.7740 38.6500 20.0171 0.0000 0.0000 -0.9790
# 2 38.6500 74.7740 20.0171 0.0000 0.0000 0.9790
# 3 20.0171 20.0171 46.3351 0.0000 0.0000 0.0000
# 4 0.0000 0.0000 0.0000 6.6824 0.0000 0.0000
# 5 0.0000 0.0000 0.0000 0.0000 6.6824 0.0000
# 6 -0.9790 0.9790 0.0000 0.0000 0.0000 32.5018
#
#
#
# Elastic Compliance Matrix: (Units=1/GPa)
#
#
# Indices 1 2 3 4 5 6 
#
# 1 0.019065 -0.008663 -0.004494 0.000000 0.000000 0.000835
# 2 -0.008663 0.019065 -0.004494 0.000000 0.000000 -0.000835
# 3 -0.004494 -0.004494 0.025465 0.000000 0.000000 0.000000
# 4 0.000000 0.000000 0.000000 0.149646 0.000000 0.000000
# 5 0.000000 0.000000 0.000000 0.000000 0.149646 0.000000
# 6 0.000835 -0.000835 0.000000 0.000000 0.000000 0.030818
#
#
# Mechanical properties :
#
#
# Convention : Reuss Voigt Hill
#
# Bulk Modulus (GPa) = 35.34311 39.25018 37.29665
# Shear Modulus (GPa) = 11.40412 16.98658 14.19535
#
# Velocity S-wave (km/s) = 2.36327 2.88427 2.63667
# Velocity P-wave (km/s) = 4.97551 5.50585 5.24739
#
# Compressibility (1/GPa) = 0.02829405
#
# Stress axis : x y z
#
# Youngs Moduli (GPa) = 52.45149 52.45149 39.26977
#
# Poissons Ratio (x) = 0.45436 0.17648
# Poissons Ratio (y) = 0.45436 0.17648
# Poissons Ratio (z) = 0.23572 0.23572
#
# Static dielectric constant tensor:
#      x y z
#    x 1.774780 0.000000 0.000000 
#    y 0.000000 1.774780 0.000000 
#    z 0.000000 0.000000 1.670740 
# 
# From -- ./inp_files/5902.got.cif
#   From: 2010.05.17/outbox.cif.g08.bks.cpg/sg87_3_cif.got.tgz:5902.got - 2010.06.03 19:07:00.
