data_PCOD9545148
_publ_section_title
;
Structure prediction by ZEFSAII (Michael W. Deem and Ramdas Pophale) SiO2 
 PCOD9545148
Probable space group: P 42/N
;
_chemical_formula_sum "Si O2"
_cell_formula_units_Z 32
_cell_length_a 8.009447
_cell_length_b 8.009447
_cell_length_c 20.457053
_cell_angle_alpha 90.000000
_cell_angle_beta 90.000000
_cell_angle_gamma 90.000000
_cell_volume 1312.345342
_symmetry_space_group_name_H-M "P 42/N"
_symmetry_group_IT_number 86
_space_group.IT_coordinate_system_code '2'
_symmetry_cell_setting 'tetragonal'
loop_
_space_group_symop_operation_xyz
x,y,z
-y,1/2+x,1/2+z
1/2-x,1/2-y,z
1/2+y,-x,1/2+z
-x,-y,-z
y,1/2-x,1/2-z
1/2+x,1/2+y,-z
1/2-y,x,1/2-z
loop_
_atom_site_type_symbol
_atom_site_label
_atom_site_fract_x
_atom_site_fract_y
_atom_site_fract_z
Si Si1 0.447130 0.195819 0.512799
Si Si2 0.542529 0.873099 0.346925
Si Si3 0.746323 0.943908 0.875015
Si Si4 0.933135 0.326326 0.796826
O O1 0.250000 0.250000 0.515945
O O2 0.506671 0.221848 0.587174
O O3 0.520590 0.284719 0.447816
O O4 0.500000 0.000000 0.500000
O O5 0.474300 0.804254 0.278814
O O6 0.478768 0.064770 0.352371
O O7 0.738249 0.920740 0.337161
O O8 0.750000 0.750000 0.885054
O O9 0.603550 0.990339 0.823337
O O10 0.750000 0.250000 0.811370
#
# Coordination Sequence:
#
# PCOD9545148 Si02
#       4
#     8   8   8   8
#     4   9  19  39  61  90 125 174 223 278 342 410
#     4  10  22  37  61  89 129 165 214 268 347 395
#     4   9  20  39  64  88 121 170 224 273 320 406
#     4  10  23  38  58  95 129 167 216 279 336 400
#
# _framework density 24.383824000000001
#
# number of rings (size 3 to 8) (size 9 to 14) (size 15 to 20)
#    0.000    2.500    0.000    0.000   10.500    0.000 
#    0.000   13.750    0.000    0.000    0.000    0.000 
#    0.000    0.000    0.000    0.000    0.000    0.000 
#
# Total GULP energy -178222.312506 kJ/mol
# GULP energy per Si atom -5569.447266 kJ/mol
# Density = 2.432833 g / cm^3
# Si number density = 24.383824 Si / 1000 Ang^3
#
#
#
# Elastic Constant Matrix: (Units=GPa)
#
#
# Indices 1 2 3 4 5 6 
#
# 1 54.2918 7.2943 -1.2896 0.0000 0.0000 3.3523
# 2 7.2943 54.2918 -1.2896 0.0000 0.0000 -3.3523
# 3 -1.2896 -1.2896 92.4797 0.0000 0.0000 0.0000
# 4 0.0000 0.0000 0.0000 19.7257 0.0000 0.0000
# 5 0.0000 0.0000 0.0000 0.0000 19.7257 0.0000
# 6 3.3523 -3.3523 0.0000 0.0000 0.0000 21.5481
#
#
#
# Elastic Compliance Matrix: (Units=1/GPa)
#
#
# Indices 1 2 3 4 5 6 
#
# 1 0.019004 -0.002757 0.000227 0.000000 0.000000 -0.003385
# 2 -0.002757 0.019004 0.000227 0.000000 0.000000 0.003385
# 3 0.000227 0.000227 0.010820 0.000000 0.000000 0.000000
# 4 0.000000 0.000000 0.000000 0.050695 0.000000 0.000000
# 5 0.000000 0.000000 0.000000 0.000000 0.050695 0.000000
# 6 -0.003385 0.003385 0.000000 0.000000 0.000000 0.047461
#
#
# Mechanical properties :
#
#
# Convention : Reuss Voigt Hill
#
# Bulk Modulus (GPa) = 22.61442 23.38816 23.00129
# Shear Modulus (GPa) = 23.03870 25.28979 24.16424
#
# Velocity S-wave (km/s) = 3.07715 3.22398 3.15142
# Velocity P-wave (km/s) = 4.68184 4.84471 4.76397
#
# Compressibility (1/GPa) = 0.04421957
#
# Stress axis : x y z
#
# Youngs Moduli (GPa) = 52.62107 52.62107 92.42567
#
# Poissons Ratio (x) = 0.14507 -0.02094
# Poissons Ratio (y) = 0.14507 -0.02094
# Poissons Ratio (z) = -0.01192 -0.01192
#
# Static dielectric constant tensor:
#      x y z
#    x 2.861110 0.000000 0.000000 
#    y 0.000000 2.861110 0.000000 
#    z 0.000000 0.000000 1.930270 
# 
# From -- ./inp_files/3805.got.cif
#   From: 2010.05.17/outbox.cif.g08.bks.cpg/sg86_2_cif.got.tgz:3805.got - 2010.06.03 19:03:11.
