data_PCOD9545791
_publ_section_title
;
Structure prediction by ZEFSAII (Michael W. Deem and Ramdas Pophale) SiO2 
 PCOD9545791
Probable space group: I 4/M
;
_chemical_formula_sum "Si O2"
_cell_formula_units_Z 112
_cell_length_a 15.001788
_cell_length_b 15.001788
_cell_length_c 20.882786
_cell_angle_alpha 90.000000
_cell_angle_beta 90.000000
_cell_angle_gamma 90.000000
_cell_volume 4699.747069
_symmetry_space_group_name_H-M "I 4/M"
_symmetry_group_IT_number 87
_symmetry_cell_setting 'tetragonal'
loop_
_space_group_symop_operation_xyz
x,y,z
-y,x,z
-x,-y,z
y,-x,z
-x,-y,-z
y,-x,-z
x,y,-z
-y,x,-z
1/2+x,1/2+y,1/2+z
1/2-y,1/2+x,1/2+z
1/2-x,1/2-y,1/2+z
1/2+y,1/2-x,1/2+z
1/2-x,1/2-y,1/2-z
1/2+y,1/2-x,1/2-z
1/2+x,1/2+y,1/2-z
1/2-y,1/2+x,1/2-z
loop_
_atom_site_type_symbol
_atom_site_label
_atom_site_fract_x
_atom_site_fract_y
_atom_site_fract_z
Si Si1 0.273774 0.009566 0.731333
Si Si2 0.180621 0.831212 0.740027
Si Si3 0.633133 0.200969 0.927015
Si Si4 0.909637 0.107396 0.576986
Si Si5 0.797980 0.119665 0.120194
Si Si6 0.470490 0.101185 0.122309
Si Si7 0.565947 0.234175 0.383552
O O1 0.210072 0.091469 0.711082
O O2 0.278683 0.033849 0.807558
O O3 0.230152 0.915403 0.710668
O O4 0.367023 0.999319 0.694168
O O5 0.250000 0.750000 0.750000
O O6 0.159035 0.876223 0.809126
O O7 0.646765 0.304742 0.913565
O O8 0.695142 0.149180 0.877822
O O9 0.531803 0.168322 0.919122
O O10 0.660910 0.180873 0.000000
O O11 0.914234 0.101282 0.500000
O O12 0.011182 0.120648 0.600053
O O13 0.854723 0.201154 0.092499
O O14 0.786250 0.022173 0.090808
O O15 0.366364 0.098707 0.103613
O O16 0.500000 0.000000 0.112117
#
# Coordination Sequence:
#
# PCOD9545791 Si02
#       7
#    16  16  16  16  16  16  16
#     4  10  22  38  64  91 127 166 205 257 317 382
#     4  10  20  38  61  91 126 165 202 260 309 377
#     4  11  24  41  61  87 126 168 212 272 327 384
#     4   8  16  34  59  83 109 151 207 255 305 373
#     4  10  21  42  61  92 125 159 219 258 331 377
#     4  12  25  39  60  93 127 170 214 258 317 388
#     4  10  23  40  67  96 125 168 205 273 322 394
#
# _framework density 23.831071000000001
#
# number of rings (size 3 to 8) (size 9 to 14) (size 15 to 20)
#    0.000    1.857    1.429    3.000    6.000    0.857 
#    0.000    3.571    0.000    0.000    0.000    1.000 
#    0.000    0.000    0.000    0.000    0.000    0.000 
#
# Total GULP energy -311844.750862 kJ/mol
# GULP energy per Si atom -5568.656265 kJ/mol
# Density = 2.377683 g / cm^3
# Si number density = 23.831071 Si / 1000 Ang^3
#
#
#
# Elastic Constant Matrix: (Units=GPa)
#
#
# Indices 1 2 3 4 5 6 
#
# 1 92.6520 70.5687 -5.9773 0.0000 0.0000 -1.7187
# 2 70.5687 92.6520 -5.9773 0.0000 0.0000 1.7188
# 3 -5.9773 -5.9773 40.6703 0.0000 0.0000 0.0000
# 4 0.0000 0.0000 0.0000 13.9146 0.0000 0.0000
# 5 0.0000 0.0000 0.0000 0.0000 13.9146 0.0000
# 6 -1.7187 1.7188 0.0000 0.0000 0.0000 35.8865
#
#
#
# Elastic Compliance Matrix: (Units=1/GPa)
#
#
# Indices 1 2 3 4 5 6 
#
# 1 0.025908 -0.019715 0.000910 0.000000 0.000000 0.002185
# 2 -0.019715 0.025908 0.000910 0.000000 0.000000 -0.002185
# 3 0.000910 0.000910 0.024856 0.000000 0.000000 0.000000
# 4 0.000000 0.000000 0.000000 0.071867 0.000000 0.000000
# 5 0.000000 0.000000 0.000000 0.000000 0.071867 0.000000
# 6 0.002185 -0.002185 0.000000 0.000000 0.000000 0.028075
#
#
# Mechanical properties :
#
#
# Convention : Reuss Voigt Hill
#
# Bulk Modulus (GPa) = 24.45994 38.13360 31.29677
# Shear Modulus (GPa) = 16.78426 23.90048 20.34237
#
# Velocity S-wave (km/s) = 2.65675 3.17031 2.92482
# Velocity P-wave (km/s) = 4.43816 5.42564 4.95655
#
# Compressibility (1/GPa) = 0.04088317
#
# Stress axis : x y z
#
# Youngs Moduli (GPa) = 38.59759 38.59759 40.23248
#
# Poissons Ratio (x) = 0.76095 -0.03662
# Poissons Ratio (y) = 0.76095 -0.03662
# Poissons Ratio (z) = -0.03513 -0.03513
#
# Static dielectric constant tensor:
#      x y z
#    x 1.977070 0.000000 0.000000 
#    y 0.000000 1.977070 0.000000 
#    z 0.000000 0.000000 2.077860 
# 
# From -- ./inp_files/5868.got.cif
#   From: 2010.05.17/outbox.cif.g08.bks.cpg/sg87_3_cif.got.tgz:5868.got - 2010.06.03 19:07:00.
