data_PCOD9545447
_publ_section_title
;
Structure prediction by ZEFSAII (Michael W. Deem and Ramdas Pophale) SiO2 
 PCOD9545447
Probable space group: P 42/N
;
_chemical_formula_sum "Si O2"
_cell_formula_units_Z 20
_cell_length_a 5.453269
_cell_length_b 5.453269
_cell_length_c 26.077249
_cell_angle_alpha 90.000000
_cell_angle_beta 90.000000
_cell_angle_gamma 90.000000
_cell_volume 775.488954
_symmetry_space_group_name_H-M "P 42/N"
_symmetry_group_IT_number 86
_space_group.IT_coordinate_system_code '2'
_symmetry_cell_setting 'tetragonal'
loop_
_space_group_symop_operation_xyz
x,y,z
-y,1/2+x,1/2+z
1/2-x,1/2-y,z
1/2+y,-x,1/2+z
-x,-y,-z
y,1/2-x,1/2-z
1/2+x,1/2+y,-z
1/2-y,x,1/2-z
loop_
_atom_site_type_symbol
_atom_site_label
_atom_site_fract_x
_atom_site_fract_y
_atom_site_fract_z
Si Si1 0.391366 0.028699 0.710216
Si Si2 0.750000 0.750000 0.865052
Si Si3 0.402564 0.000220 0.941826
O O1 0.250000 0.250000 0.680568
O O2 0.143232 0.952360 0.742119
O O3 0.579405 0.911106 0.671990
O O4 0.617024 0.948956 0.901243
O O5 0.250000 0.750000 0.936008
O O6 0.250000 0.250000 0.935018
O O7 0.500000 0.000000 0.000000
#
# Coordination Sequence:
#
# PCOD9545447 Si02
#       3
#     8   4   8
#     4   6  18  45  74 125 172 219 294 365 453 522
#     4  12  22  48  92 121 184 228 299 380 452 556
#     4  12  29  54  86 134 177 235 300 379 468 565
#
# _framework density 25.790182000000001
#
# number of rings (size 3 to 8) (size 9 to 14) (size 15 to 20)
#    2.400    0.000    2.000    1.200    0.000    1.600 
#    7.200    0.000    0.000    4.800    0.000    0.000 
#    0.000    0.000    0.000    0.000    0.000    0.000 
#
# Total GULP energy -111480.422185 kJ/mol
# GULP energy per Si atom -5574.021109 kJ/mol
# Density = 2.573148 g / cm^3
# Si number density = 25.790182 Si / 1000 Ang^3
#
#
#
# Elastic Constant Matrix: (Units=GPa)
#
#
# Indices 1 2 3 4 5 6 
#
# 1 149.8667 82.4113 97.3113 0.0000 0.0000 10.6192
# 2 82.4113 149.8667 97.3113 0.0000 0.0000 -10.6192
# 3 97.3113 97.3113 227.7425 0.0000 0.0000 0.0000
# 4 0.0000 0.0000 0.0000 115.1268 0.0000 0.0000
# 5 0.0000 0.0000 0.0000 0.0000 115.1268 0.0000
# 6 10.6192 -10.6192 0.0000 0.0000 0.0000 82.4962
#
#
#
# Elastic Compliance Matrix: (Units=1/GPa)
#
#
# Indices 1 2 3 4 5 6 
#
# 1 0.011078 -0.004372 -0.002865 0.000000 0.000000 -0.001989
# 2 -0.004372 0.011078 -0.002865 0.000000 0.000000 0.001989
# 3 -0.002865 -0.002865 0.006840 0.000000 0.000000 0.000000
# 4 0.000000 0.000000 0.000000 0.008686 0.000000 0.000000
# 5 0.000000 0.000000 0.000000 0.000000 0.008686 0.000000
# 6 -0.001989 0.001989 0.000000 0.000000 0.000000 0.012634
#
#
# Mechanical properties :
#
#
# Convention : Reuss Voigt Hill
#
# Bulk Modulus (GPa) = 113.76404 120.17152 116.96778
# Shear Modulus (GPa) = 60.87250 79.24609 70.05929
#
# Velocity S-wave (km/s) = 4.86356 5.54923 5.21767
# Velocity P-wave (km/s) = 8.70322 9.36779 9.04162
#
# Compressibility (1/GPa) = 0.00879012
#
# Stress axis : x y z
#
# Youngs Moduli (GPa) = 90.26541 90.26541 146.20667
#
# Poissons Ratio (x) = 0.39467 0.41894
# Poissons Ratio (y) = 0.39467 0.41894
# Poissons Ratio (z) = 0.25865 0.25865
#
# Static dielectric constant tensor:
#      x y z
#    x 1.791810 0.000000 0.000000 
#    y 0.000000 1.791810 0.000000 
#    z 0.000000 0.000000 2.601870 
# 
# From -- ./inp_files/4723.got.cif
#   From: 2010.05.17/outbox.cif.g08.bks.cpg/sg86_3_cif.got.tgz:4723.got - 2010.06.03 19:03:11.
