data_PCOD9545588
_publ_section_title
;
Structure prediction by ZEFSAII (Michael W. Deem and Ramdas Pophale) SiO2 
 PCOD9545588
Probable space group: I 4/M
;
_chemical_formula_sum "Si O2"
_cell_formula_units_Z 112
_cell_length_a 18.770927
_cell_length_b 18.770927
_cell_length_c 15.635645
_cell_angle_alpha 90.000000
_cell_angle_beta 90.000000
_cell_angle_gamma 90.000000
_cell_volume 5509.183561
_symmetry_space_group_name_H-M "I 4/M"
_symmetry_group_IT_number 87
_symmetry_cell_setting 'tetragonal'
loop_
_space_group_symop_operation_xyz
x,y,z
-y,x,z
-x,-y,z
y,-x,z
-x,-y,-z
y,-x,-z
x,y,-z
-y,x,-z
1/2+x,1/2+y,1/2+z
1/2-y,1/2+x,1/2+z
1/2-x,1/2-y,1/2+z
1/2+y,1/2-x,1/2+z
1/2-x,1/2-y,1/2-z
1/2+y,1/2-x,1/2-z
1/2+x,1/2+y,1/2-z
1/2-y,1/2+x,1/2-z
loop_
_atom_site_type_symbol
_atom_site_label
_atom_site_fract_x
_atom_site_fract_y
_atom_site_fract_z
Si Si1 0.842681 0.346143 0.837528
Si Si2 0.337371 0.542247 0.403337
Si Si3 0.179533 0.497824 0.632827
Si Si4 0.275823 0.992394 0.668087
Si Si5 0.502623 0.385096 0.776382
Si Si6 0.869422 0.352128 0.633880
Si Si7 0.198889 0.213152 0.097213
O O1 0.919200 0.348722 0.883858
O O2 0.795005 0.413459 0.863866
O O3 0.857069 0.351145 0.736233
O O4 0.807748 0.269111 0.852042
O O5 0.367052 0.539847 0.500000
O O6 0.257840 0.509553 0.405676
O O7 0.376685 0.501684 0.327141
O O8 0.324613 0.624874 0.375181
O O9 0.191947 0.503111 0.735441
O O10 0.131738 0.565082 0.606846
O O11 0.191979 0.003025 0.681209
O O12 0.311465 0.057260 0.616753
O O13 0.570394 0.432363 0.800064
O O14 0.797619 0.315961 0.598943
O O15 0.210748 0.190141 0.000000
#
# Coordination Sequence:
#
# PCOD9545588 Si02
#       7
#    16  16  16  16  16  16  16
#     4  10  19  32  54  82 107 136 179 226 276 324
#     4   9  19  33  50  72 104 151 184 208 261 320
#     4   8  17  32  48  77 111 131 173 223 260 317
#     4   9  19  32  54  79  98 140 177 219 282 325
#     4  10  22  35  48  75 111 139 179 233 270 314
#     4   9  18  34  55  76 106 144 178 219 274 329
#     4  10  21  34  52  79 106 141 187 226 261 317
#
# _framework density 20.329691
#
# number of rings (size 3 to 8) (size 9 to 14) (size 15 to 20)
#    0.000    2.714    0.000    1.286    8.000    1.714 
#    0.000    4.286    0.000    0.000    0.000    5.000 
#    0.000    1.143    0.000    0.000    0.000    0.000 
#
# Total GULP energy -312442.893343 kJ/mol
# GULP energy per Si atom -5579.337381 kJ/mol
# Density = 2.028342 g / cm^3
# Si number density = 20.329691 Si / 1000 Ang^3
#
#
#
# Elastic Constant Matrix: (Units=GPa)
#
#
# Indices 1 2 3 4 5 6 
#
# 1 88.8943 36.5851 11.8334 0.0000 0.0000 -7.3613
# 2 36.5851 88.8943 11.8334 0.0000 0.0000 7.3613
# 3 11.8334 11.8334 17.8360 0.0000 0.0000 0.0000
# 4 0.0000 0.0000 0.0000 1.5763 0.0000 0.0000
# 5 0.0000 0.0000 0.0000 0.0000 1.5763 0.0000
# 6 -7.3613 7.3613 0.0000 0.0000 0.0000 19.7034
#
#
#
# Elastic Compliance Matrix: (Units=1/GPa)
#
#
# Indices 1 2 3 4 5 6 
#
# 1 0.015236 -0.006127 -0.006044 0.000000 0.000000 0.007982
# 2 -0.006127 0.015236 -0.006044 0.000000 0.000000 -0.007982
# 3 -0.006044 -0.006044 0.064086 0.000000 0.000000 0.000000
# 4 0.000000 0.000000 0.000000 0.634382 0.000000 0.000000
# 5 0.000000 0.000000 0.000000 0.000000 0.634382 0.000000
# 6 0.007982 -0.007982 0.000000 0.000000 0.000000 0.056717
#
#
# Mechanical properties :
#
#
# Convention : Reuss Voigt Hill
#
# Bulk Modulus (GPa) = 17.20282 35.12536 26.16409
# Shear Modulus (GPa) = 3.38789 13.59604 8.49197
#
# Velocity S-wave (km/s) = 1.29232 2.58888 2.04602
# Velocity P-wave (km/s) = 3.27217 5.12365 4.29877
#
# Compressibility (1/GPa) = 0.05813001
#
# Stress axis : x y z
#
# Youngs Moduli (GPa) = 65.63205 65.63205 15.60405
#
# Poissons Ratio (x) = 0.40214 0.09431
# Poissons Ratio (y) = 0.40214 0.09431
# Poissons Ratio (z) = 0.39666 0.39666
#
# Static dielectric constant tensor:
#      x y z
#    x 1.731990 0.000000 0.000000 
#    y 0.000000 1.731990 0.000000 
#    z 0.000000 0.000000 1.769130 
# 
# From -- ./inp_files/5477.got.cif
#   From: 2010.05.17/outbox.cif.g08.bks.cpg/sg87_3_cif.got.tgz:5477.got - 2010.06.03 19:07:00.
