data_PCOD9545691
_publ_section_title
;
Structure prediction by ZEFSAII (Michael W. Deem and Ramdas Pophale) SiO2 
 PCOD9545691
Probable space group: I 4/M
;
_chemical_formula_sum "Si O2"
_cell_formula_units_Z 96
_cell_length_a 24.528886
_cell_length_b 24.528886
_cell_length_c 8.643086
_cell_angle_alpha 90.000000
_cell_angle_beta 90.000000
_cell_angle_gamma 90.000000
_cell_volume 5200.253128
_symmetry_space_group_name_H-M "I 4/M"
_symmetry_group_IT_number 87
_symmetry_cell_setting 'tetragonal'
loop_
_space_group_symop_operation_xyz
x,y,z
-y,x,z
-x,-y,z
y,-x,z
-x,-y,-z
y,-x,-z
x,y,-z
-y,x,-z
1/2+x,1/2+y,1/2+z
1/2-y,1/2+x,1/2+z
1/2-x,1/2-y,1/2+z
1/2+y,1/2-x,1/2+z
1/2-x,1/2-y,1/2-z
1/2+y,1/2-x,1/2-z
1/2+x,1/2+y,1/2-z
1/2-y,1/2+x,1/2-z
loop_
_atom_site_type_symbol
_atom_site_label
_atom_site_fract_x
_atom_site_fract_y
_atom_site_fract_z
Si Si1 0.074327 0.769055 0.684558
Si Si2 0.855896 0.567790 0.813204
Si Si3 0.950084 0.649438 0.186459
Si Si4 0.427967 0.444321 0.173189
Si Si5 0.861353 0.858251 0.822576
Si Si6 0.776345 0.044729 0.813040
O O1 0.071632 0.769705 0.500000
O O2 0.079718 0.706224 0.738234
O O3 0.125181 0.805604 0.738570
O O4 0.015261 0.789786 0.746313
O O5 0.899649 0.612480 0.761050
O O6 0.870161 0.507538 0.754310
O O7 0.855801 0.567493 0.000000
O O8 0.944039 0.713220 0.227818
O O9 0.952865 0.646807 0.000000
O O10 0.490850 0.426975 0.183213
O O11 0.395161 0.414160 0.304399
O O12 0.407648 0.428842 0.000000
O O13 0.904416 0.813560 0.759522
O O14 0.849764 0.844700 0.000000
O O15 0.781528 0.041645 0.000000
#
# Coordination Sequence:
#
# PCOD9545691 Si02
#       6
#    16  16  16  16  16  16
#     4  10  20  34  52  73 100 133 169 210 253 298
#     4   9  19  35  55  80 106 133 166 202 244 297
#     4   9  18  35  57  78 105 137 165 200 247 297
#     4   9  18  31  45  63  89 121 158 203 256 307
#     4  11  21  31  46  69  95 126 169 212 249 295
#     4   9  19  35  53  73  99 134 172 209 251 297
#
# _framework density 18.460639
#
# number of rings (size 3 to 8) (size 9 to 14) (size 15 to 20)
#    0.000    2.500    0.000    2.500    0.000    6.333 
#    0.000    3.333    0.000    0.000    0.000    0.000 
#    0.000    0.000    0.000    0.000    0.000    0.000 
#
# Total GULP energy -267589.863002 kJ/mol
# GULP energy per Si atom -5574.788813 kJ/mol
# Density = 1.841862 g / cm^3
# Si number density = 18.460639 Si / 1000 Ang^3
#
#
#
# Elastic Constant Matrix: (Units=GPa)
#
#
# Indices 1 2 3 4 5 6 
#
# 1 84.6012 61.1008 14.9179 0.0000 0.0000 0.1261
# 2 61.1008 84.6012 14.9179 0.0000 0.0000 -0.1261
# 3 14.9179 14.9179 16.9797 0.0000 0.0000 0.0000
# 4 0.0000 0.0000 0.0000 22.6512 0.0000 0.0000
# 5 0.0000 0.0000 0.0000 0.0000 22.6512 0.0000
# 6 0.1261 -0.1261 0.0000 0.0000 0.0000 39.0472
#
#
#
# Elastic Compliance Matrix: (Units=1/GPa)
#
#
# Indices 1 2 3 4 5 6 
#
# 1 0.025461 -0.017092 -0.007353 0.000000 0.000000 -0.000137
# 2 -0.017092 0.025461 -0.007353 0.000000 0.000000 0.000137
# 3 -0.007353 -0.007353 0.071813 0.000000 0.000000 0.000000
# 4 0.000000 0.000000 0.000000 0.044148 0.000000 0.000000
# 5 0.000000 0.000000 0.000000 0.000000 0.044148 0.000000
# 6 -0.000137 0.000137 0.000000 0.000000 0.000000 0.025611
#
#
# Mechanical properties :
#
#
# Convention : Reuss Voigt Hill
#
# Bulk Modulus (GPa) = 16.90888 40.89503 28.90195
# Shear Modulus (GPa) = 15.62733 23.21961 19.42347
#
# Velocity S-wave (km/s) = 2.91266 3.55038 3.24721
# Velocity P-wave (km/s) = 4.52667 6.24561 5.45428
#
# Compressibility (1/GPa) = 0.05914053
#
# Stress axis : x y z
#
# Youngs Moduli (GPa) = 39.27507 39.27507 13.92497
#
# Poissons Ratio (x) = 0.67131 0.10239
# Poissons Ratio (y) = 0.67131 0.10239
# Poissons Ratio (z) = 0.28878 0.28878
#
# Static dielectric constant tensor:
#      x y z
#    x 1.644110 0.000000 0.000000 
#    y 0.000000 1.644110 0.000000 
#    z 0.000000 0.000000 1.657540 
# 
# From -- ./inp_files/1320.got.cif
#   From: 2010.05.17/outbox.cif.g08.bks.cpg/sg87_1_cif.got.tgz:1320.got - 2010.06.03 19:07:00.
