data_PCOD9545321
_publ_section_title
;
Structure prediction by ZEFSAII (Michael W. Deem and Ramdas Pophale) SiO2 
 PCOD9545321
Probable space group: P 42/N
;
_chemical_formula_sum "Si O2"
_cell_formula_units_Z 40
_cell_length_a 11.072373
_cell_length_b 11.072373
_cell_length_c 13.260759
_cell_angle_alpha 90.000000
_cell_angle_beta 90.000000
_cell_angle_gamma 90.000000
_cell_volume 1625.735157
_symmetry_space_group_name_H-M "P 42/N"
_symmetry_group_IT_number 86
_space_group.IT_coordinate_system_code '2'
_symmetry_cell_setting 'tetragonal'
loop_
_space_group_symop_operation_xyz
x,y,z
-y,1/2+x,1/2+z
1/2-x,1/2-y,z
1/2+y,-x,1/2+z
-x,-y,-z
y,1/2-x,1/2-z
1/2+x,1/2+y,-z
1/2-y,x,1/2-z
loop_
_atom_site_type_symbol
_atom_site_label
_atom_site_fract_x
_atom_site_fract_y
_atom_site_fract_z
Si Si1 0.283137 0.887071 0.488286
Si Si2 0.362020 0.953360 0.277456
Si Si3 0.482700 0.280629 0.733151
Si Si4 0.866906 0.694511 0.078174
Si Si5 0.963866 0.354672 0.351285
O O1 0.250000 0.750000 0.518096
O O2 0.285199 0.899281 0.369117
O O3 0.416639 0.892612 0.538809
O O4 0.205417 0.002156 0.526607
O O5 0.467819 0.855820 0.266259
O O6 0.285858 0.969848 0.176091
O O7 0.415209 0.078116 0.318739
O O8 0.433835 0.329770 0.626801
O O9 0.384614 0.280596 0.823539
O O10 0.589941 0.361688 0.777419
O O11 0.750000 0.750000 0.021439
#
# Coordination Sequence:
#
# PCOD9545321 Si02
#       5
#     8   8   8   8   8
#     4  11  25  45  70 108 147 193 252 316 385 472
#     4  12  25  47  68 104 146 196 244 310 383 460
#     4  11  18  39  70  99 130 181 244 297 359 443
#     4  11  19  37  68 105 134 176 244 311 362 441
#     4  11  24  42  72  97 145 193 240 302 382 452
#
# _framework density 24.604251999999999
#
# number of rings (size 3 to 8) (size 9 to 14) (size 15 to 20)
#    0.000    0.800    4.000    6.000    0.000    0.400 
#    7.200    2.000    0.000    0.000    0.000    0.000 
#    0.000    0.000    0.000    0.000    0.000    0.000 
#
# Total GULP energy -223456.178760 kJ/mol
# GULP energy per Si atom -5586.404469 kJ/mol
# Density = 2.454825 g / cm^3
# Si number density = 24.604252 Si / 1000 Ang^3
#
#
#
# Elastic Constant Matrix: (Units=GPa)
#
#
# Indices 1 2 3 4 5 6 
#
# 1 96.6738 13.1704 -1.0296 0.0000 0.0000 -3.3101
# 2 13.1704 96.6738 -1.0296 0.0000 0.0000 3.3101
# 3 -1.0296 -1.0296 45.2760 0.0000 0.0000 0.0000
# 4 0.0000 0.0000 0.0000 2.2599 0.0000 0.0000
# 5 0.0000 0.0000 0.0000 0.0000 2.2599 0.0000
# 6 -3.3101 3.3101 0.0000 0.0000 0.0000 38.3314
#
#
#
# Elastic Compliance Matrix: (Units=1/GPa)
#
#
# Indices 1 2 3 4 5 6 
#
# 1 0.010583 -0.001475 0.000207 0.000000 0.000000 0.001041
# 2 -0.001475 0.010583 0.000207 0.000000 0.000000 -0.001041
# 3 0.000207 0.000207 0.022096 0.000000 0.000000 0.000000
# 4 0.000000 0.000000 0.000000 0.442498 0.000000 0.000000
# 5 0.000000 0.000000 0.000000 0.000000 0.442498 0.000000
# 6 0.001041 -0.001041 0.000000 0.000000 0.000000 0.026268
#
#
# Mechanical properties :
#
#
# Convention : Reuss Voigt Hill
#
# Bulk Modulus (GPa) = 24.30724 28.98289 26.64506
# Shear Modulus (GPa) = 5.15272 23.73774 14.44523
#
# Velocity S-wave (km/s) = 1.44872 3.10946 2.42565
# Velocity P-wave (km/s) = 3.56358 4.96960 4.32412
#
# Compressibility (1/GPa) = 0.04114001
#
# Stress axis : x y z
#
# Youngs Moduli (GPa) = 94.49206 94.49206 45.25671
#
# Poissons Ratio (x) = 0.13940 -0.00937
# Poissons Ratio (y) = 0.13940 -0.00937
# Poissons Ratio (z) = -0.01957 -0.01957
#
# Static dielectric constant tensor:
#      x y z
#    x 2.025950 0.000000 0.000000 
#    y 0.000000 2.025950 0.000000 
#    z 0.000000 0.000000 1.903440 
# 
# From -- ./inp_files/2906.got.cif
#   From: 2010.05.17/outbox.cif.g08.bks.cpg/sg86_2_cif.got.tgz:2906.got - 2010.06.03 19:03:11.
