data_PCOD9545644
_publ_section_title
;
Structure prediction by ZEFSAII (Michael W. Deem and Ramdas Pophale) SiO2 
 PCOD9545644
Probable space group: I 4/M
;
_chemical_formula_sum "Si O2"
_cell_formula_units_Z 96
_cell_length_a 15.196221
_cell_length_b 15.196221
_cell_length_c 20.580394
_cell_angle_alpha 90.000000
_cell_angle_beta 90.000000
_cell_angle_gamma 90.000000
_cell_volume 4752.530215
_symmetry_space_group_name_H-M "I 4/M"
_symmetry_group_IT_number 87
_symmetry_cell_setting 'tetragonal'
loop_
_space_group_symop_operation_xyz
x,y,z
-y,x,z
-x,-y,z
y,-x,z
-x,-y,-z
y,-x,-z
x,y,-z
-y,x,-z
1/2+x,1/2+y,1/2+z
1/2-y,1/2+x,1/2+z
1/2-x,1/2-y,1/2+z
1/2+y,1/2-x,1/2+z
1/2-x,1/2-y,1/2-z
1/2+y,1/2-x,1/2-z
1/2+x,1/2+y,1/2-z
1/2-y,1/2+x,1/2-z
loop_
_atom_site_type_symbol
_atom_site_label
_atom_site_fract_x
_atom_site_fract_y
_atom_site_fract_z
Si Si1 0.272095 0.005879 0.767280
Si Si2 0.191509 0.677503 0.213686
Si Si3 0.852575 0.659794 0.430111
Si Si4 0.454297 0.637288 0.821805
Si Si5 0.597662 0.026322 0.120024
Si Si6 0.281179 0.051551 0.572164
O O1 0.276212 0.922304 0.720527
O O2 0.317822 0.971658 0.832480
O O3 0.327482 0.094068 0.754839
O O4 0.174924 0.044620 0.752293
O O5 0.250000 0.750000 0.250000
O O6 0.181314 0.697689 0.136920
O O7 0.808952 0.676756 0.500000
O O8 0.880210 0.556878 0.425483
O O9 0.945389 0.710771 0.428662
O O10 0.394977 0.553118 0.833536
O O11 0.424868 0.713484 0.871044
O O12 0.586115 0.120807 0.087273
O O13 0.500000 0.000000 0.149247
O O14 0.253044 0.080474 0.500000
#
# Coordination Sequence:
#
# PCOD9545644 Si02
#       6
#    16  16  16  16  16  16
#     4  11  22  35  59  83 118 151 192 250 314 364
#     4  11  23  37  60  89 121 156 205 257 310 377
#     4   9  18  35  58  86 120 161 194 238 304 371
#     4  11  24  41  57  78 112 159 213 260 300 353
#     4   9  19  34  57  89 120 151 188 238 302 380
#     4  10  19  36  58  83 115 154 199 242 294 364
#
# _framework density 20.199766
#
# number of rings (size 3 to 8) (size 9 to 14) (size 15 to 20)
#    0.000    1.833    1.667    2.500    4.667    2.667 
#    0.000    0.833    0.000    5.000    0.000    0.000 
#    0.000    0.000    0.000   60.167    0.000    0.000 
#
# Total GULP energy -267299.201694 kJ/mol
# GULP energy per Si atom -5568.733369 kJ/mol
# Density = 2.015379 g / cm^3
# Si number density = 20.199766 Si / 1000 Ang^3
#
#
#
# Elastic Constant Matrix: (Units=GPa)
#
#
# Indices 1 2 3 4 5 6 
#
# 1 82.2010 2.8160 28.5012 0.0000 0.0000 -7.6090
# 2 2.8160 82.2010 28.5012 0.0000 0.0000 7.6090
# 3 28.5012 28.5012 131.6382 0.0000 0.0000 0.0000
# 4 0.0000 0.0000 0.0000 10.7198 0.0000 0.0000
# 5 0.0000 0.0000 0.0000 0.0000 10.7198 0.0000
# 6 -7.6090 7.6090 0.0000 0.0000 0.0000 24.1082
#
#
#
# Elastic Compliance Matrix: (Units=1/GPa)
#
#
# Indices 1 2 3 4 5 6 
#
# 1 0.013584 0.000176 -0.002979 0.000000 0.000000 0.004232
# 2 0.000176 0.013584 -0.002979 0.000000 0.000000 -0.004232
# 3 -0.002979 -0.002979 0.008887 0.000000 0.000000 0.000000
# 4 0.000000 0.000000 0.000000 0.093286 0.000000 0.000000
# 5 0.000000 0.000000 0.000000 0.000000 0.093286 0.000000
# 6 0.004232 -0.004232 0.000000 0.000000 0.000000 0.044151
#
#
# Mechanical properties :
#
#
# Convention : Reuss Voigt Hill
#
# Bulk Modulus (GPa) = 40.83361 46.18633 43.50997
# Shear Modulus (GPa) = 17.45171 24.85768 21.15469
#
# Velocity S-wave (km/s) = 2.94250 3.51179 3.23967
# Velocity P-wave (km/s) = 5.63943 6.27359 5.96494
#
# Compressibility (1/GPa) = 0.02448963
#
# Stress axis : x y z
#
# Youngs Moduli (GPa) = 73.61628 73.61628 112.52866
#
# Poissons Ratio (x) = -0.01295 0.33524
# Poissons Ratio (y) = -0.01295 0.33524
# Poissons Ratio (z) = 0.21931 0.21931
#
# Static dielectric constant tensor:
#      x y z
#    x 1.746180 0.000000 0.000000 
#    y 0.000000 1.746180 0.000000 
#    z 0.000000 0.000000 1.787990 
# 
# From -- ./inp_files/5303.got.cif
#   From: 2010.05.17/outbox.cif.g08.bks.cpg/sg87_3_cif.got.tgz:5303.got - 2010.06.03 19:07:00.
