data_PCOD9545698
_publ_section_title
;
Structure prediction by ZEFSAII (Michael W. Deem and Ramdas Pophale) SiO2 
 PCOD9545698
Probable space group: I 4/M
;
_chemical_formula_sum "Si O2"
_cell_formula_units_Z 96
_cell_length_a 24.265748
_cell_length_b 24.265748
_cell_length_c 9.223269
_cell_angle_alpha 90.000000
_cell_angle_beta 90.000000
_cell_angle_gamma 90.000000
_cell_volume 5430.905444
_symmetry_space_group_name_H-M "I 4/M"
_symmetry_group_IT_number 87
_symmetry_cell_setting 'tetragonal'
loop_
_space_group_symop_operation_xyz
x,y,z
-y,x,z
-x,-y,z
y,-x,z
-x,-y,-z
y,-x,-z
x,y,-z
-y,x,-z
1/2+x,1/2+y,1/2+z
1/2-y,1/2+x,1/2+z
1/2-x,1/2-y,1/2+z
1/2+y,1/2-x,1/2+z
1/2-x,1/2-y,1/2-z
1/2+y,1/2-x,1/2-z
1/2+x,1/2+y,1/2-z
1/2-y,1/2+x,1/2-z
loop_
_atom_site_type_symbol
_atom_site_label
_atom_site_fract_x
_atom_site_fract_y
_atom_site_fract_z
Si Si1 0.634778 0.767532 0.672589
Si Si2 0.848564 0.449000 0.828331
Si Si3 0.638461 0.938640 0.167522
Si Si4 0.223342 0.337519 0.329733
Si Si5 0.056508 0.929289 0.674460
Si Si6 0.358279 0.651112 0.673317
O O1 0.635661 0.775887 0.500000
O O2 0.586227 0.802514 0.745228
O O3 0.691879 0.790589 0.739605
O O4 0.627515 0.702822 0.701497
O O5 0.906671 0.418297 0.800627
O O6 0.850748 0.510732 0.771745
O O7 0.838307 0.445587 0.000000
O O8 0.685105 0.891689 0.180363
O O9 0.637796 0.957653 0.000000
O O10 0.225726 0.321046 0.500000
O O11 0.284740 0.353378 0.282376
O O12 0.060086 0.924752 0.500000
O O13 0.094915 0.883875 0.747886
O O14 0.991699 0.924917 0.713699
O O15 0.368170 0.649845 0.500000
#
# Coordination Sequence:
#
# PCOD9545698 Si02
#       6
#    16  16  16  16  16  16
#     4  10  20  34  53  78 108 140 174 215 261 308
#     4  10  21  36  54  76 104 139 176 217 264 311
#     4   9  19  35  53  74 103 138 174 217 263 305
#     4   9  19  36  54  76 109 142 173 214 261 307
#     4   9  20  39  58  77 105 138 173 217 264 308
#     4  10  21  35  55  83 109 137 175 215 257 310
#
# _framework density 17.676611999999999
#
# number of rings (size 3 to 8) (size 9 to 14) (size 15 to 20)
#    0.000    2.500    0.000    3.000    0.000    7.667 
#    0.000    7.500    0.000    0.000    0.000    0.000 
#    0.000    0.000    0.000    0.000    0.000    0.000 
#
# Total GULP energy -267817.581215 kJ/mol
# GULP energy per Si atom -5579.532942 kJ/mol
# Density = 1.763638 g / cm^3
# Si number density = 17.676612 Si / 1000 Ang^3
#
#
#
# Elastic Constant Matrix: (Units=GPa)
#
#
# Indices 1 2 3 4 5 6 
#
# 1 31.1956 13.1774 15.3659 0.0000 0.0000 -3.3585
# 2 13.1774 31.1956 15.3659 0.0000 0.0000 3.3585
# 3 15.3659 15.3659 32.8691 0.0000 0.0000 0.0000
# 4 0.0000 0.0000 0.0000 31.4008 0.0000 0.0000
# 5 0.0000 0.0000 0.0000 0.0000 31.4008 0.0000
# 6 -3.3585 3.3585 0.0000 0.0000 0.0000 19.2495
#
#
#
# Elastic Compliance Matrix: (Units=1/GPa)
#
#
# Indices 1 2 3 4 5 6 
#
# 1 0.046343 -0.013017 -0.015580 0.000000 0.000000 0.010357
# 2 -0.013017 0.046343 -0.015580 0.000000 0.000000 -0.010357
# 3 -0.015580 -0.015580 0.044990 0.000000 0.000000 0.000000
# 4 0.000000 0.000000 0.000000 0.031846 0.000000 0.000000
# 5 0.000000 0.000000 0.000000 0.000000 0.031846 0.000000
# 6 0.010357 -0.010357 0.000000 0.000000 0.000000 0.055563
#
#
# Mechanical properties :
#
#
# Convention : Reuss Voigt Hill
#
# Bulk Modulus (GPa) = 20.27397 20.34210 20.30804
# Shear Modulus (GPa) = 13.82255 19.83360 16.82808
#
# Velocity S-wave (km/s) = 2.79940 3.35330 3.08879
# Velocity P-wave (km/s) = 4.68435 5.15031 4.92285
#
# Compressibility (1/GPa) = 0.04932432
#
# Stress axis : x y z
#
# Youngs Moduli (GPa) = 21.57804 21.57804 22.22695
#
# Poissons Ratio (x) = 0.28088 0.34629
# Poissons Ratio (y) = 0.28088 0.34629
# Poissons Ratio (z) = 0.33618 0.33618
#
# Static dielectric constant tensor:
#      x y z
#    x 1.589030 0.000000 0.000000 
#    y 0.000000 1.589030 0.000000 
#    z 0.000000 0.000000 1.591760 
# 
# From -- ./inp_files/1409.got.cif
#   From: 2010.05.17/outbox.cif.g08.bks.cpg/sg87_1_cif.got.tgz:1409.got - 2010.06.03 19:07:00.
