data_PCOD9545235
_publ_section_title
;
Structure prediction by ZEFSAII (Michael W. Deem and Ramdas Pophale) SiO2 
 PCOD9545235
Probable space group: P 42/N
;
_chemical_formula_sum "Si O2"
_cell_formula_units_Z 48
_cell_length_a 8.868224
_cell_length_b 8.868224
_cell_length_c 28.887361
_cell_angle_alpha 90.000000
_cell_angle_beta 90.000000
_cell_angle_gamma 90.000000
_cell_volume 2271.857972
_symmetry_space_group_name_H-M "P 42/N"
_symmetry_group_IT_number 86
_space_group.IT_coordinate_system_code '2'
_symmetry_cell_setting 'tetragonal'
loop_
_space_group_symop_operation_xyz
x,y,z
-y,1/2+x,1/2+z
1/2-x,1/2-y,z
1/2+y,-x,1/2+z
-x,-y,-z
y,1/2-x,1/2-z
1/2+x,1/2+y,-z
1/2-y,x,1/2-z
loop_
_atom_site_type_symbol
_atom_site_label
_atom_site_fract_x
_atom_site_fract_y
_atom_site_fract_z
Si Si1 0.641361 0.102219 0.185634
Si Si2 0.041902 0.377977 0.264830
Si Si3 0.088802 0.198071 0.143236
Si Si4 0.575199 0.274378 0.958464
Si Si5 0.923799 0.094106 0.056737
Si Si6 0.165920 0.410326 0.906166
O O1 0.750000 0.250000 0.185109
O O2 0.605347 0.056428 0.238823
O O3 0.476860 0.162154 0.171313
O O4 0.674373 0.981645 0.145482
O O5 0.198184 0.449090 0.245013
O O6 0.060600 0.402063 0.320115
O O7 0.250000 0.250000 0.124976
O O8 0.969563 0.174819 0.103352
O O9 0.750000 0.250000 0.950896
O O10 0.525230 0.442407 0.942938
O O11 0.487504 0.141854 0.931478
O O12 0.547325 0.296625 0.013580
O O13 0.755499 0.027957 0.060975
O O14 0.250000 0.250000 0.904451
#
# Coordination Sequence:
#
# PCOD9545235 Si02
#       6
#     8   8   8   8   8   8
#     4  11  21  38  68  96 123 172 210 257 337 388
#     4   9  17  36  59  90 123 154 205 266 305 369
#     4  11  21  37  67  93 125 163 218 266 315 389
#     4  10  24  41  64  91 128 170 219 267 322 388
#     4  10  23  42  61  93 130 170 211 267 331 387
#     4  10  23  44  63  89 136 167 209 276 327 385
#
# _framework density 21.128083
#
# number of rings (size 3 to 8) (size 9 to 14) (size 15 to 20)
#    0.000    1.833    5.000    0.000    4.667    4.000 
#    0.000    7.500    0.000    0.000    0.000    0.000 
#    0.000    0.000    0.000    0.000    0.000    0.000 
#
# Total GULP energy -267220.298423 kJ/mol
# GULP energy per Si atom -5567.089550 kJ/mol
# Density = 2.107999 g / cm^3
# Si number density = 21.128083 Si / 1000 Ang^3
#
#
#
# Elastic Constant Matrix: (Units=GPa)
#
#
# Indices 1 2 3 4 5 6 
#
# 1 51.5423 7.0653 6.1806 0.0000 0.0000 2.2737
# 2 7.0653 51.5423 6.1806 0.0000 0.0000 -2.2737
# 3 6.1806 6.1806 72.3436 0.0000 0.0000 0.0000
# 4 0.0000 0.0000 0.0000 19.2649 0.0000 0.0000
# 5 0.0000 0.0000 0.0000 0.0000 19.2649 0.0000
# 6 2.2737 -2.2737 0.0000 0.0000 0.0000 19.6730
#
#
#
# Elastic Compliance Matrix: (Units=1/GPa)
#
#
# Indices 1 2 3 4 5 6 
#
# 1 0.020064 -0.002688 -0.001484 0.000000 0.000000 -0.002630
# 2 -0.002688 0.020064 -0.001484 0.000000 0.000000 0.002630
# 3 -0.001484 -0.001484 0.014077 0.000000 0.000000 0.000000
# 4 0.000000 0.000000 0.000000 0.051908 0.000000 0.000000
# 5 0.000000 0.000000 0.000000 0.000000 0.051908 0.000000
# 6 -0.002630 0.002630 0.000000 0.000000 0.000000 0.051439
#
#
# Mechanical properties :
#
#
# Convention : Reuss Voigt Hill
#
# Bulk Modulus (GPa) = 23.31540 23.80904 23.56222
# Shear Modulus (GPa) = 21.27018 22.04066 21.65542
#
# Velocity S-wave (km/s) = 3.17634 3.23335 3.20497
# Velocity P-wave (km/s) = 4.95090 5.02323 4.98719
#
# Compressibility (1/GPa) = 0.04289010
#
# Stress axis : x y z
#
# Youngs Moduli (GPa) = 49.84031 49.84031 71.04005
#
# Poissons Ratio (x) = 0.13399 0.10546
# Poissons Ratio (y) = 0.13399 0.10546
# Poissons Ratio (z) = 0.07399 0.07399
#
# Static dielectric constant tensor:
#      x y z
#    x 1.782900 0.000000 0.000000 
#    y 0.000000 1.782900 0.000000 
#    z 0.000000 0.000000 1.932170 
# 
# From -- ./inp_files/5196.got.cif
#   From: 2010.05.17/outbox.cif.g08.bks.cpg/sg86_3_cif.got.tgz:5196.got - 2010.06.03 19:03:11.
