data_PCOD9545649
_publ_section_title
;
Structure prediction by ZEFSAII (Michael W. Deem and Ramdas Pophale) SiO2 
 PCOD9545649
Probable space group: I 4/M
;
_chemical_formula_sum "Si O2"
_cell_formula_units_Z 96
_cell_length_a 24.017065
_cell_length_b 24.017065
_cell_length_c 8.228813
_cell_angle_alpha 90.000000
_cell_angle_beta 90.000000
_cell_angle_gamma 90.000000
_cell_volume 4746.539070
_symmetry_space_group_name_H-M "I 4/M"
_symmetry_group_IT_number 87
_symmetry_cell_setting 'tetragonal'
loop_
_space_group_symop_operation_xyz
x,y,z
-y,x,z
-x,-y,z
y,-x,z
-x,-y,-z
y,-x,-z
x,y,-z
-y,x,-z
1/2+x,1/2+y,1/2+z
1/2-y,1/2+x,1/2+z
1/2-x,1/2-y,1/2+z
1/2+y,1/2-x,1/2+z
1/2-x,1/2-y,1/2-z
1/2+y,1/2-x,1/2-z
1/2+x,1/2+y,1/2-z
1/2-y,1/2+x,1/2-z
loop_
_atom_site_type_symbol
_atom_site_label
_atom_site_fract_x
_atom_site_fract_y
_atom_site_fract_z
Si Si1 0.607769 0.624134 0.500000
Si Si2 0.192955 0.281028 0.803159
Si Si3 0.182054 0.876644 0.678518
Si Si4 0.109045 0.631972 0.693011
Si Si5 0.216189 0.002640 0.674266
Si Si6 0.152384 0.514278 0.811376
Si Si7 0.019225 0.837465 0.000000
O O1 0.637252 0.645742 0.336281
O O2 0.608731 0.557908 0.500000
O O3 0.545699 0.648070 0.500000
O O4 0.250000 0.250000 0.750000
O O5 0.145528 0.243227 0.721299
O O6 0.177948 0.344759 0.752579
O O7 0.189422 0.278634 0.000000
O O8 0.165169 0.855148 0.500000
O O9 0.184631 0.943439 0.668823
O O10 0.103383 0.641416 0.500000
O O11 0.132309 0.570038 0.723519
O O12 0.046010 0.634972 0.759487
O O13 0.206733 0.031562 0.500000
O O14 0.280921 0.988438 0.687793
O O15 0.196579 0.032044 0.837028
O O16 0.133490 0.518525 0.000000
#
# Coordination Sequence:
#
# PCOD9545649 Si02
#       7
#     8  16  16  16  16  16   8
#     4  10  22  39  58  92 120 157 206 247 304 375
#     4  11  22  37  58  88 123 156 200 252 318 376
#     4  10  19  36  61  85 115 160 201 249 306 365
#     4  10  23  39  61  87 120 163 201 254 307 361
#     4   9  19  36  62  86 115 159 209 250 300 368
#     4  10  21  39  59  86 119 156 206 253 305 364
#     4  10  22  37  62  90 122 160 205 250 309 366
#
# _framework density 20.225263999999999
#
# number of rings (size 3 to 8) (size 9 to 14) (size 15 to 20)
#    0.000    2.000    2.500    0.500    1.167    3.833 
#    0.000    3.333    0.000    0.000    0.000    4.667 
#    0.000    0.000    0.000    0.000    0.000    0.000 
#
# Total GULP energy -267386.487030 kJ/mol
# GULP energy per Si atom -5570.551813 kJ/mol
# Density = 2.017923 g / cm^3
# Si number density = 20.225264 Si / 1000 Ang^3
#
#
#
# Elastic Constant Matrix: (Units=GPa)
#
#
# Indices 1 2 3 4 5 6 
#
# 1 26.1026 54.2660 21.2249 0.0000 0.0000 25.7954
# 2 54.2660 26.1026 21.2249 0.0000 0.0000 -25.7954
# 3 21.2249 21.2249 119.7630 0.0000 0.0000 0.0000
# 4 0.0000 0.0000 0.0000 -84.3372 0.0000 0.0000
# 5 0.0000 0.0000 0.0000 0.0000 -84.3372 0.0000
# 6 25.7954 -25.7954 0.0000 0.0000 0.0000 -5.0781
#
#
#
# Elastic Compliance Matrix: (Units=1/GPa)
#
#
# Indices 1 2 3 4 5 6 
#
# 1 0.009001 0.004726 -0.002433 0.000000 0.000000 0.021717
# 2 0.004726 0.009001 -0.002433 0.000000 0.000000 -0.021717
# 3 -0.002433 -0.002433 0.009212 0.000000 0.000000 0.000000
# 4 0.000000 0.000000 0.000000 -0.011857 0.000000 0.000000
# 5 0.000000 0.000000 0.000000 0.000000 -0.011857 0.000000
# 6 0.021717 -0.021717 0.000000 0.000000 0.000000 0.023711
#
#
# Mechanical properties :
#
#
# Convention : Reuss Voigt Hill
#
# Bulk Modulus (GPa) = 37.12502 40.59998 38.86250
# Shear Modulus (GPa) = 137.10129 -29.73368 53.68381
#
# Velocity S-wave (km/s) = 8.24223 -3.83838 5.15757
# Velocity P-wave (km/s) = 10.43909 0.68793 7.39756
#
# Compressibility (1/GPa) = 0.02693601
#
# Stress axis : x y z
#
# Youngs Moduli (GPa) = 111.09302 111.09302 108.55219
#
# Poissons Ratio (x) = -0.52505 0.26409
# Poissons Ratio (y) = -0.52505 0.26409
# Poissons Ratio (z) = 0.27028 0.27028
#
# Static dielectric constant tensor:
#      x y z
#    x 1.720220 0.000000 0.000000 
#    y 0.000000 1.720220 0.000000 
#    z 0.000000 0.000000 1.787920 
# 
# From -- ./inp_files/1511.got.cif
#   From: 2010.05.17/outbox.cif.g08.bks.cpg/sg87_1_cif.got.tgz:1511.got - 2010.06.03 19:07:00.
