data_PCOD9545695
_publ_section_title
;
Structure prediction by ZEFSAII (Michael W. Deem and Ramdas Pophale) SiO2 
 PCOD9545695
Probable space group: I 4/M
;
_chemical_formula_sum "Si O2"
_cell_formula_units_Z 104
_cell_length_a 14.685893
_cell_length_b 14.685893
_cell_length_c 24.766466
_cell_angle_alpha 90.000000
_cell_angle_beta 90.000000
_cell_angle_gamma 90.000000
_cell_volume 5341.518779
_symmetry_space_group_name_H-M "I 4/M"
_symmetry_group_IT_number 87
_symmetry_cell_setting 'tetragonal'
loop_
_space_group_symop_operation_xyz
x,y,z
-y,x,z
-x,-y,z
y,-x,z
-x,-y,-z
y,-x,-z
x,y,-z
-y,x,-z
1/2+x,1/2+y,1/2+z
1/2-y,1/2+x,1/2+z
1/2-x,1/2-y,1/2+z
1/2+y,1/2-x,1/2+z
1/2-x,1/2-y,1/2-z
1/2+y,1/2-x,1/2-z
1/2+x,1/2+y,1/2-z
1/2-y,1/2+x,1/2-z
loop_
_atom_site_type_symbol
_atom_site_label
_atom_site_fract_x
_atom_site_fract_y
_atom_site_fract_z
Si Si1 0.993802 0.151664 0.000000
Si Si2 0.464249 0.235873 0.393853
Si Si3 0.348446 0.516361 0.831289
Si Si4 0.736450 0.761494 0.437075
Si Si5 0.885769 0.603494 0.436914
Si Si6 0.489976 0.345983 0.286290
Si Si7 0.750689 0.524253 0.061160
O O1 0.994519 0.207386 0.055550
O O2 0.909961 0.083469 0.000000
O O3 0.355849 0.241720 0.402505
O O4 0.516430 0.140244 0.401462
O O5 0.487293 0.279522 0.336691
O O6 0.404123 0.422373 0.830754
O O7 0.299787 0.517686 0.772930
O O8 0.297564 0.519804 0.887631
O O9 0.712384 0.745877 0.500000
O O10 0.814101 0.686845 0.424033
O O11 0.764411 0.867714 0.434623
O O12 0.873409 0.579733 0.500000
O O13 0.986604 0.646320 0.433405
O O14 0.581276 0.407234 0.289711
O O15 0.721430 0.495576 0.000000
#
# Coordination Sequence:
#
# PCOD9545695 Si02
#       7
#     8  16  16  16  16  16  16
#     4  11  20  28  46  75 104 136 178 223 262 305
#     4  12  20  32  51  76 110 148 178 212 262 317
#     4   9  18  34  55  79 105 132 172 231 287 331
#     4  10  20  34  52  78 110 141 180 229 270 314
#     4  10  20  34  52  78 110 141 180 229 270 314
#     4   9  18  32  51  76 108 142 175 219 275 329
#     4  10  21  36  55  76 103 141 181 224 276 323
#
# _framework density 19.470116999999998
#
# number of rings (size 3 to 8) (size 9 to 14) (size 15 to 20)
#    0.000    1.923    1.538    4.615    0.000    3.692 
#    0.000    4.615    0.000    5.538    0.000    2.154 
#    0.000    0.000    0.000    0.000    0.000    0.000 
#
# Total GULP energy -289884.757012 kJ/mol
# GULP energy per Si atom -5574.706866 kJ/mol
# Density = 1.942580 g / cm^3
# Si number density = 19.470117 Si / 1000 Ang^3
#
#
#
# Elastic Constant Matrix: (Units=GPa)
#
#
# Indices 1 2 3 4 5 6 
#
# 1 37.3713 2.1760 25.9186 0.0000 0.0000 0.0996
# 2 2.1760 37.3713 25.9186 0.0000 0.0000 -0.0996
# 3 25.9186 25.9186 152.8155 0.0000 0.0000 0.0000
# 4 0.0000 0.0000 0.0000 15.8834 0.0000 0.0000
# 5 0.0000 0.0000 0.0000 0.0000 15.8834 0.0000
# 6 0.0996 -0.0996 0.0000 0.0000 0.0000 29.4326
#
#
#
# Elastic Compliance Matrix: (Units=1/GPa)
#
#
# Indices 1 2 3 4 5 6 
#
# 1 0.030464 0.002051 -0.005515 0.000000 0.000000 -0.000096
# 2 0.002051 0.030464 -0.005515 0.000000 0.000000 0.000096
# 3 -0.005515 -0.005515 0.008415 0.000000 0.000000 0.000000
# 4 0.000000 0.000000 0.000000 0.062959 0.000000 0.000000
# 5 0.000000 0.000000 0.000000 0.000000 0.062959 0.000000
# 6 -0.000096 0.000096 0.000000 0.000000 0.000000 0.033977
#
#
# Mechanical properties :
#
#
# Convention : Reuss Voigt Hill
#
# Bulk Modulus (GPa) = 19.46095 37.28715 28.37405
# Shear Modulus (GPa) = 18.91628 23.80955 21.36292
#
# Velocity S-wave (km/s) = 3.12036 3.50076 3.31602
# Velocity P-wave (km/s) = 4.79575 5.96095 5.40981
#
# Compressibility (1/GPa) = 0.05138494
#
# Stress axis : x y z
#
# Youngs Moduli (GPa) = 32.82562 32.82562 118.84237
#
# Poissons Ratio (x) = -0.06731 0.65538
# Poissons Ratio (y) = -0.06731 0.65538
# Poissons Ratio (z) = 0.18102 0.18102
#
# Static dielectric constant tensor:
#      x y z
#    x 1.721870 0.000000 0.000000 
#    y 0.000000 1.721870 0.000000 
#    z 0.000000 0.000000 1.677160 
# 
# From -- ./inp_files/5892.got.cif
#   From: 2010.05.17/outbox.cif.g08.bks.cpg/sg87_3_cif.got.tgz:5892.got - 2010.06.03 19:07:00.
