data_PCOD9545671
_publ_section_title
;
Structure prediction by ZEFSAII (Michael W. Deem and Ramdas Pophale) SiO2 
 PCOD9545671
Probable space group: I 4/M
;
_chemical_formula_sum "Si O2"
_cell_formula_units_Z 96
_cell_length_a 24.770700
_cell_length_b 24.770700
_cell_length_c 7.673649
_cell_angle_alpha 90.000000
_cell_angle_beta 90.000000
_cell_angle_gamma 90.000000
_cell_volume 4708.455708
_symmetry_space_group_name_H-M "I 4/M"
_symmetry_group_IT_number 87
_symmetry_cell_setting 'tetragonal'
loop_
_space_group_symop_operation_xyz
x,y,z
-y,x,z
-x,-y,z
y,-x,z
-x,-y,-z
y,-x,-z
x,y,-z
-y,x,-z
1/2+x,1/2+y,1/2+z
1/2-y,1/2+x,1/2+z
1/2-x,1/2-y,1/2+z
1/2+y,1/2-x,1/2+z
1/2-x,1/2-y,1/2-z
1/2+y,1/2-x,1/2-z
1/2+x,1/2+y,1/2-z
1/2-y,1/2+x,1/2-z
loop_
_atom_site_type_symbol
_atom_site_label
_atom_site_fract_x
_atom_site_fract_y
_atom_site_fract_z
Si Si1 0.644917 0.141056 0.697622
Si Si2 0.349325 0.554474 0.213718
Si Si3 0.141918 0.065724 0.707489
Si Si4 0.426107 0.767259 0.292445
Si Si5 0.572074 0.952571 0.297809
Si Si6 0.774776 0.450202 0.209909
O O1 0.663966 0.152227 0.500000
O O2 0.623580 0.196897 0.780412
O O3 0.588690 0.108825 0.695784
O O4 0.686560 0.097709 0.778054
O O5 0.388530 0.601801 0.275918
O O6 0.368576 0.495126 0.271882
O O7 0.286860 0.559928 0.267336
O O8 0.348710 0.554711 0.000000
O O9 0.133455 0.064164 0.500000
O O10 0.205045 0.077209 0.736815
O O11 0.421516 0.769420 0.500000
O O12 0.487033 0.787823 0.250433
O O13 0.588419 0.956471 0.500000
O O14 0.511337 0.929988 0.285618
O O15 0.777216 0.447323 0.000000
#
# Coordination Sequence:
#
# PCOD9545671 Si02
#       6
#    16  16  16  16  16  16
#     4  10  20  33  49  69  95 129 169 209 249 294
#     4   8  15  29  52  78 100 126 162 203 246 294
#     4   9  17  32  53  76 102 131 163 200 245 297
#     4  10  20  33  49  72 101 132 166 205 249 296
#     4  11  21  32  46  65  92 123 160 207 258 305
#     4   9  18  34  53  72  97 131 168 208 253 295
#
# _framework density 20.388850000000001
#
# number of rings (size 3 to 8) (size 9 to 14) (size 15 to 20)
#    0.000    2.500    0.000    4.500    0.000    5.000 
#    0.000    5.833    0.000    0.000    0.000    4.667 
#    0.000    0.000    0.000    0.000    0.000    0.000 
#
# Total GULP energy -267614.087630 kJ/mol
# GULP energy per Si atom -5575.293492 kJ/mol
# Density = 2.034244 g / cm^3
# Si number density = 20.388850 Si / 1000 Ang^3
#
#
#
# Elastic Constant Matrix: (Units=GPa)
#
#
# Indices 1 2 3 4 5 6 
#
# 1 94.3452 85.5304 -4.8250 0.0000 0.0000 0.0059
# 2 85.5304 94.3452 -4.8250 0.0000 0.0000 -0.0059
# 3 -4.8250 -4.8250 47.8137 0.0000 0.0000 0.0000
# 4 0.0000 0.0000 0.0000 11.5681 0.0000 0.0000
# 5 0.0000 0.0000 0.0000 0.0000 11.5681 0.0000
# 6 0.0059 -0.0059 0.0000 0.0000 0.0000 45.2104
#
#
#
# Elastic Compliance Matrix: (Units=1/GPa)
#
#
# Indices 1 2 3 4 5 6 
#
# 1 0.059518 -0.053928 0.000564 0.000000 0.000000 -0.000015
# 2 -0.053928 0.059518 0.000564 0.000000 0.000000 0.000015
# 3 0.000564 0.000564 0.021028 0.000000 0.000000 0.000000
# 4 0.000000 0.000000 0.000000 0.086445 0.000000 0.000000
# 5 0.000000 0.000000 0.000000 0.000000 0.086445 0.000000
# 6 -0.000015 0.000015 0.000000 0.000000 0.000000 0.022119
#
#
# Mechanical properties :
#
#
# Convention : Reuss Voigt Hill
#
# Bulk Modulus (GPa) = 29.01581 43.14053 36.07817
# Shear Modulus (GPa) = 11.05801 24.37757 17.71779
#
# Velocity S-wave (km/s) = 2.33138 3.46154 2.95107
# Velocity P-wave (km/s) = 4.63780 6.09764 5.41712
#
# Compressibility (1/GPa) = 0.03446396
#
# Stress axis : x y z
#
# Youngs Moduli (GPa) = 16.80164 16.80164 47.55481
#
# Poissons Ratio (x) = 0.90608 -0.02682
# Poissons Ratio (y) = 0.90608 -0.02682
# Poissons Ratio (z) = -0.00948 -0.00948
#
# Static dielectric constant tensor:
#      x y z
#    x 1.739390 0.000000 0.000000 
#    y 0.000000 1.739390 0.000000 
#    z 0.000000 0.000000 1.780560 
# 
# From -- ./inp_files/1392.got.cif
#   From: 2010.05.17/outbox.cif.g08.bks.cpg/sg87_1_cif.got.tgz:1392.got - 2010.06.03 19:07:00.
