data_PCOD9545619
_publ_section_title
;
Structure prediction by ZEFSAII (Michael W. Deem and Ramdas Pophale) SiO2 
 PCOD9545619
Probable space group: I 4/M
;
_chemical_formula_sum "Si O2"
_cell_formula_units_Z 112
_cell_length_a 15.841222
_cell_length_b 15.841222
_cell_length_c 25.939767
_cell_angle_alpha 90.000000
_cell_angle_beta 90.000000
_cell_angle_gamma 90.000000
_cell_volume 6509.437047
_symmetry_space_group_name_H-M "I 4/M"
_symmetry_group_IT_number 87
_symmetry_cell_setting 'tetragonal'
loop_
_space_group_symop_operation_xyz
x,y,z
-y,x,z
-x,-y,z
y,-x,z
-x,-y,-z
y,-x,-z
x,y,-z
-y,x,-z
1/2+x,1/2+y,1/2+z
1/2-y,1/2+x,1/2+z
1/2-x,1/2-y,1/2+z
1/2+y,1/2-x,1/2+z
1/2-x,1/2-y,1/2-z
1/2+y,1/2-x,1/2-z
1/2+x,1/2+y,1/2-z
1/2-y,1/2+x,1/2-z
loop_
_atom_site_type_symbol
_atom_site_label
_atom_site_fract_x
_atom_site_fract_y
_atom_site_fract_z
Si Si1 0.398689 0.400573 0.220293
Si Si2 0.305155 0.290797 0.867433
Si Si3 0.584844 0.815602 0.059309
Si Si4 0.899353 0.506878 0.604943
Si Si5 0.766291 0.829896 0.213833
Si Si6 0.543252 0.117261 0.275060
Si Si7 0.881719 0.329373 0.559949
O O1 0.498753 0.384722 0.216744
O O2 0.347666 0.351455 0.175409
O O3 0.359022 0.364609 0.273563
O O4 0.378660 0.255099 0.903525
O O5 0.259221 0.209838 0.840883
O O6 0.237759 0.339720 0.902161
O O7 0.483375 0.819891 0.063280
O O8 0.622725 0.905350 0.077650
O O9 0.606880 0.799835 0.000000
O O10 0.884358 0.511644 0.666150
O O11 0.860632 0.423871 0.579330
O O12 0.000000 0.500000 0.598075
O O13 0.750000 0.750000 0.250000
O O14 0.701521 0.903150 0.230822
O O15 0.463426 0.103378 0.237327
O O16 0.857848 0.318111 0.500000
#
# Coordination Sequence:
#
# PCOD9545619 Si02
#       7
#    16  16  16  16  16  16  16
#     4  10  23  40  57  77 108 150 187 228 277 335
#     4  11  21  37  56  84 108 144 187 234 282 326
#     4  10  20  36  57  81 111 145 184 231 284 333
#     4  10  19  34  54  81 111 146 182 220 275 333
#     4  10  24  35  54  82 111 147 186 228 277 333
#     4  11  22  34  56  86 117 152 182 224 283 340
#     4  10  22  36  56  81 112 149 186 233 280 333
#
# _framework density 17.205788999999999
#
# number of rings (size 3 to 8) (size 9 to 14) (size 15 to 20)
#    0.000    1.714    2.857    1.714    8.000    1.714 
#    0.000    0.000    0.000    0.000    0.000    6.000 
#    0.000    0.000    0.000    7.143    0.000    0.000 
#
# Total GULP energy -312305.426612 kJ/mol
# GULP energy per Si atom -5576.882618 kJ/mol
# Density = 1.716663 g / cm^3
# Si number density = 17.205789 Si / 1000 Ang^3
#
#
#
# Elastic Constant Matrix: (Units=GPa)
#
#
# Indices 1 2 3 4 5 6 
#
# 1 71.5887 38.8797 35.0791 0.0000 0.0000 -1.7935
# 2 38.8797 71.5887 35.0791 0.0000 0.0000 1.7935
# 3 35.0791 35.0791 97.2959 0.0000 0.0000 0.0000
# 4 0.0000 0.0000 0.0000 22.2676 0.0000 0.0000
# 5 0.0000 0.0000 0.0000 0.0000 22.2676 0.0000
# 6 -1.7935 1.7935 0.0000 0.0000 0.0000 21.6761
#
#
#
# Elastic Compliance Matrix: (Units=1/GPa)
#
#
# Indices 1 2 3 4 5 6 
#
# 1 0.021297 -0.009556 -0.004233 0.000000 0.000000 0.002553
# 2 -0.009556 0.021297 -0.004233 0.000000 0.000000 -0.002553
# 3 -0.004233 -0.004233 0.013330 0.000000 0.000000 0.000000
# 4 0.000000 0.000000 0.000000 0.044908 0.000000 0.000000
# 5 0.000000 0.000000 0.000000 0.000000 0.044908 0.000000
# 6 0.002553 -0.002553 0.000000 0.000000 0.000000 0.046556
#
#
# Mechanical properties :
#
#
# Convention : Reuss Voigt Hill
#
# Bulk Modulus (GPa) = 50.30255 50.94988 50.62622
# Shear Modulus (GPa) = 21.27960 22.00462 21.64211
#
# Velocity S-wave (km/s) = 3.52059 3.58006 3.55045
# Velocity P-wave (km/s) = 6.76944 6.83853 6.80407
#
# Compressibility (1/GPa) = 0.01987971
#
# Stress axis : x y z
#
# Youngs Moduli (GPa) = 46.95575 46.95575 75.01726
#
# Poissons Ratio (x) = 0.44870 0.31755
# Poissons Ratio (y) = 0.44870 0.31755
# Poissons Ratio (z) = 0.19876 0.19876
#
# Static dielectric constant tensor:
#      x y z
#    x 1.584250 0.000000 0.000000 
#    y 0.000000 1.584250 0.000000 
#    z 0.000000 0.000000 1.590450 
# 
# From -- ./inp_files/6273.got.cif
#   From: 2010.05.17/outbox.cif.g08.bks.cpg/sg87_4_cif.got.tgz:6273.got - 2010.06.03 19:07:00.
