data_PCOD9545664
_publ_section_title
;
Structure prediction by ZEFSAII (Michael W. Deem and Ramdas Pophale) SiO2 
 PCOD9545664
Probable space group: I 4/M
;
_chemical_formula_sum "Si O2"
_cell_formula_units_Z 64
_cell_length_a 10.685985
_cell_length_b 10.685985
_cell_length_c 27.506835
_cell_angle_alpha 90.000000
_cell_angle_beta 90.000000
_cell_angle_gamma 90.000000
_cell_volume 3141.013065
_symmetry_space_group_name_H-M "I 4/M"
_symmetry_group_IT_number 87
_symmetry_cell_setting 'tetragonal'
loop_
_space_group_symop_operation_xyz
x,y,z
-y,x,z
-x,-y,z
y,-x,z
-x,-y,-z
y,-x,-z
x,y,-z
-y,x,-z
1/2+x,1/2+y,1/2+z
1/2-y,1/2+x,1/2+z
1/2-x,1/2-y,1/2+z
1/2+y,1/2-x,1/2+z
1/2-x,1/2-y,1/2-z
1/2+y,1/2-x,1/2-z
1/2+x,1/2+y,1/2-z
1/2-y,1/2+x,1/2-z
loop_
_atom_site_type_symbol
_atom_site_label
_atom_site_fract_x
_atom_site_fract_y
_atom_site_fract_z
Si Si1 0.813442 0.439052 0.843761
Si Si2 0.304101 0.463528 0.678014
Si Si3 0.786240 0.871488 0.718953
Si Si4 0.289024 0.515876 0.946108
O O1 0.915900 0.332184 0.836230
O O2 0.825156 0.562441 0.810809
O O3 0.681214 0.382108 0.821819
O O4 0.799210 0.472764 0.899809
O O5 0.403832 0.357648 0.660835
O O6 0.314325 0.466898 0.736988
O O7 0.750000 0.750000 0.750000
O O8 0.371068 0.389489 0.943042
O O9 0.230572 0.520353 0.000000
#
# Coordination Sequence:
#
# PCOD9545664 Si02
#       4
#    16  16  16  16
#     4  11  19  33  56  78 111 156 184 228 300 350
#     4  10  21  36  54  78 111 150 199 246 281 345
#     4  10  20  31  50  80 109 150 191 221 275 348
#     4   9  17  29  50  83 113 141 187 243 292 355
#
# _framework density 20.375592000000001
#
# number of rings (size 3 to 8) (size 9 to 14) (size 15 to 20)
#    0.000    2.000    5.000    0.750    0.000    0.500 
#    0.000    5.000    0.000    1.500    0.000    5.250 
#    0.000    0.000    0.000    0.000    0.000    0.000 
#
# Total GULP energy -178438.605511 kJ/mol
# GULP energy per Si atom -5576.206422 kJ/mol
# Density = 2.032922 g / cm^3
# Si number density = 20.375592 Si / 1000 Ang^3
#
#
#
# Elastic Constant Matrix: (Units=GPa)
#
#
# Indices 1 2 3 4 5 6 
#
# 1 75.9189 26.2062 26.7317 0.0000 0.0000 12.6468
# 2 26.2062 75.9189 26.7317 0.0000 0.0000 -12.6468
# 3 26.7317 26.7317 138.1656 0.0000 0.0000 0.0000
# 4 0.0000 0.0000 0.0000 19.1970 0.0000 0.0000
# 5 0.0000 0.0000 0.0000 0.0000 19.1970 0.0000
# 6 12.6468 -12.6468 0.0000 0.0000 0.0000 24.7036
#
#
#
# Elastic Compliance Matrix: (Units=1/GPa)
#
#
# Indices 1 2 3 4 5 6 
#
# 1 0.019048 -0.008153 -0.002108 0.000000 0.000000 -0.013925
# 2 -0.008153 0.019048 -0.002108 0.000000 0.000000 0.013925
# 3 -0.002108 -0.002108 0.008053 0.000000 0.000000 0.000000
# 4 0.000000 0.000000 0.000000 0.052092 0.000000 0.000000
# 5 0.000000 0.000000 0.000000 0.000000 0.052092 0.000000
# 6 -0.013925 0.013925 0.000000 0.000000 0.000000 0.054738
#
#
# Mechanical properties :
#
#
# Convention : Reuss Voigt Hill
#
# Bulk Modulus (GPa) = 46.70216 49.92698 48.31457
# Shear Modulus (GPa) = 21.10194 26.64175 23.87184
#
# Velocity S-wave (km/s) = 3.22164 3.61990 3.42656
# Velocity P-wave (km/s) = 6.06704 6.48291 6.27842
#
# Compressibility (1/GPa) = 0.02141228
#
# Stress axis : x y z
#
# Youngs Moduli (GPa) = 52.49877 52.49877 124.17125
#
# Poissons Ratio (x) = 0.42800 0.26175
# Poissons Ratio (y) = 0.42800 0.26175
# Poissons Ratio (z) = 0.11067 0.11067
#
# Static dielectric constant tensor:
#      x y z
#    x 1.824570 0.000000 0.000000 
#    y 0.000000 1.824570 0.000000 
#    z 0.000000 0.000000 1.705310 
# 
# From -- ./inp_files/5660.got.cif
#   From: 2010.05.17/outbox.cif.g08.bks.cpg/sg87_3_cif.got.tgz:5660.got - 2010.06.03 19:07:00.
