data_PCOD9545483
_publ_section_title
;
Structure prediction by ZEFSAII (Michael W. Deem and Ramdas Pophale) SiO2 
 PCOD9545483
Probable space group: I 4/M
;
_chemical_formula_sum "Si O2"
_cell_formula_units_Z 80
_cell_length_a 14.813513
_cell_length_b 14.813513
_cell_length_c 15.396214
_cell_angle_alpha 90.000000
_cell_angle_beta 90.000000
_cell_angle_gamma 90.000000
_cell_volume 3378.547778
_symmetry_space_group_name_H-M "I 4/M"
_symmetry_group_IT_number 87
_symmetry_cell_setting 'tetragonal'
loop_
_space_group_symop_operation_xyz
x,y,z
-y,x,z
-x,-y,z
y,-x,z
-x,-y,-z
y,-x,-z
x,y,-z
-y,x,-z
1/2+x,1/2+y,1/2+z
1/2-y,1/2+x,1/2+z
1/2-x,1/2-y,1/2+z
1/2+y,1/2-x,1/2+z
1/2-x,1/2-y,1/2-z
1/2+y,1/2-x,1/2-z
1/2+x,1/2+y,1/2-z
1/2-y,1/2+x,1/2-z
loop_
_atom_site_type_symbol
_atom_site_label
_atom_site_fract_x
_atom_site_fract_y
_atom_site_fract_z
Si Si1 0.542059 0.097911 0.901909
Si Si2 0.375003 0.416961 0.101762
Si Si3 0.264679 0.369160 0.739801
Si Si4 0.602481 0.612594 0.406363
Si Si5 0.431709 0.188342 0.251572
O O1 0.471370 0.149783 0.840260
O O2 0.626903 0.081867 0.838330
O O3 0.500000 0.000000 0.912968
O O4 0.558001 0.135065 0.000000
O O5 0.475609 0.379899 0.120939
O O6 0.302563 0.371362 0.162650
O O7 0.359068 0.405536 0.000000
O O8 0.345893 0.344622 0.674137
O O9 0.243415 0.476635 0.723483
O O10 0.175462 0.309915 0.726639
O O11 0.494856 0.620111 0.403788
O O12 0.634430 0.647922 0.500000
#
# Coordination Sequence:
#
# PCOD9545483 Si02
#       5
#    16  16  16  16  16
#     4  10  16  30  50  63  95 145 189 226 244 273
#     4   9  19  38  63  84  99 129 186 240 273 310
#     4  11  20  33  55  77 113 145 173 212 266 321
#     4   9  19  37  59  79  98 129 181 232 265 305
#     4  10  21  34  45  80 114 140 185 213 252 324
#
# _framework density 23.678813000000002
#
# number of rings (size 3 to 8) (size 9 to 14) (size 15 to 20)
#    0.000    2.200    4.000    2.400    0.000    6.400 
#    0.000    4.000    0.000    4.800    0.000    0.000 
#    0.000    0.000    0.000    0.000    0.000    0.000 
#
# Total GULP energy -222908.164899 kJ/mol
# GULP energy per Si atom -5572.704122 kJ/mol
# Density = 2.362492 g / cm^3
# Si number density = 23.678813 Si / 1000 Ang^3
#
#
#
# Elastic Constant Matrix: (Units=GPa)
#
#
# Indices 1 2 3 4 5 6 
#
# 1 85.4980 -2.3672 27.6796 0.0000 0.0000 -5.2178
# 2 -2.3672 85.4980 27.6796 0.0000 0.0000 5.2178
# 3 27.6796 27.6796 133.2451 0.0000 0.0000 0.0000
# 4 0.0000 0.0000 0.0000 58.7006 0.0000 0.0000
# 5 0.0000 0.0000 0.0000 0.0000 58.7006 0.0000
# 6 -5.2178 5.2178 0.0000 0.0000 0.0000 8.1615
#
#
#
# Elastic Compliance Matrix: (Units=1/GPa)
#
#
# Indices 1 2 3 4 5 6 
#
# 1 0.013138 0.000822 -0.002900 0.000000 0.000000 0.007874
# 2 0.000822 0.013138 -0.002900 0.000000 0.000000 -0.007874
# 3 -0.002900 -0.002900 0.008710 0.000000 0.000000 0.000000
# 4 0.000000 0.000000 0.000000 0.017036 0.000000 0.000000
# 5 0.000000 0.000000 0.000000 0.000000 0.017036 0.000000
# 6 0.007874 -0.007874 0.000000 0.000000 0.000000 0.132595
#
#
# Mechanical properties :
#
#
# Convention : Reuss Voigt Hill
#
# Bulk Modulus (GPa) = 39.95125 45.58059 42.76592
# Shear Modulus (GPa) = 22.73216 41.86247 32.29732
#
# Velocity S-wave (km/s) = 3.10178 4.20924 3.69721
# Velocity P-wave (km/s) = 5.45315 6.55095 6.02709
#
# Compressibility (1/GPa) = 0.02503051
#
# Stress axis : x y z
#
# Youngs Moduli (GPa) = 76.11291 76.11291 114.81248
#
# Poissons Ratio (x) = -0.06257 0.33296
# Poissons Ratio (y) = -0.06257 0.33296
# Poissons Ratio (z) = 0.22073 0.22073
#
# Static dielectric constant tensor:
#      x y z
#    x 1.962290 0.000000 0.000000 
#    y 0.000000 1.962290 0.000000 
#    z 0.000000 0.000000 1.912220 
# 
# From -- ./inp_files/3526.got.cif
#   From: 2010.05.17/outbox.cif.g08.bks.cpg/sg87_2_cif.got.tgz:3526.got - 2010.06.03 19:07:00.
