data_PCOD9545425
_publ_section_title
;
Structure prediction by ZEFSAII (Michael W. Deem and Ramdas Pophale) SiO2 
 PCOD9545425
Probable space group: P 42/N
;
_chemical_formula_sum "Si O2"
_cell_formula_units_Z 40
_cell_length_a 8.494004
_cell_length_b 8.494004
_cell_length_c 23.372623
_cell_angle_alpha 90.000000
_cell_angle_beta 90.000000
_cell_angle_gamma 90.000000
_cell_volume 1686.290434
_symmetry_space_group_name_H-M "P 42/N"
_symmetry_group_IT_number 86
_space_group.IT_coordinate_system_code '2'
_symmetry_cell_setting 'tetragonal'
loop_
_space_group_symop_operation_xyz
x,y,z
-y,1/2+x,1/2+z
1/2-x,1/2-y,z
1/2+y,-x,1/2+z
-x,-y,-z
y,1/2-x,1/2-z
1/2+x,1/2+y,-z
1/2-y,x,1/2-z
loop_
_atom_site_type_symbol
_atom_site_label
_atom_site_fract_x
_atom_site_fract_y
_atom_site_fract_z
Si Si1 0.063824 0.185072 0.996728
Si Si2 0.550611 0.067170 0.687377
Si Si3 0.786603 0.431128 0.374317
Si Si4 0.198545 0.069610 0.380332
Si Si5 0.069155 0.462925 0.811479
O O1 0.250000 0.250000 0.992903
O O2 0.983861 0.246146 0.938902
O O3 0.009598 0.261150 0.056601
O O4 0.000000 0.000000 0.000000
O O5 0.510646 0.250558 0.683368
O O6 0.471244 0.963847 0.637245
O O7 0.730615 0.035183 0.671229
O O8 0.506747 0.006565 0.750025
O O9 0.750000 0.250000 0.363257
O O10 0.722154 0.548098 0.324745
O O11 0.250000 0.250000 0.375473
O O12 0.018322 0.041578 0.364284
#
# Coordination Sequence:
#
# PCOD9545425 Si02
#       5
#     8   8   8   8   8
#     4  11  25  51  80 107 153 201 255 320 392 470
#     4  12  25  46  71 105 151 194 250 307 382 462
#     4  12  27  46  75 107 147 194 255 313 379 452
#     4  11  27  47  74 110 149 193 250 314 383 449
#     4  12  27  43  74 108 145 201 249 311 379 461
#
# _framework density 23.720708999999999
#
# number of rings (size 3 to 8) (size 9 to 14) (size 15 to 20)
#    0.000    0.400    4.000    3.600    8.400    2.400 
#    0.000    0.000    0.000    0.000    0.000    0.000 
#    0.000    0.000    0.000    0.000    0.000    0.000 
#
# Total GULP energy -223062.586227 kJ/mol
# GULP energy per Si atom -5576.564656 kJ/mol
# Density = 2.366672 g / cm^3
# Si number density = 23.720709 Si / 1000 Ang^3
#
#
#
# Elastic Constant Matrix: (Units=GPa)
#
#
# Indices 1 2 3 4 5 6 
#
# 1 52.4532 27.2657 37.3205 0.0000 0.0000 1.3357
# 2 27.2657 52.4532 37.3205 0.0000 0.0000 -1.3357
# 3 37.3205 37.3205 175.1875 0.0000 0.0000 0.0000
# 4 0.0000 0.0000 0.0000 42.0612 0.0000 0.0000
# 5 0.0000 0.0000 0.0000 0.0000 42.0612 0.0000
# 6 1.3357 -1.3357 0.0000 0.0000 0.0000 54.6618
#
#
#
# Elastic Compliance Matrix: (Units=1/GPa)
#
#
# Indices 1 2 3 4 5 6 
#
# 1 0.027737 -0.012068 -0.003338 0.000000 0.000000 -0.000973
# 2 -0.012068 0.027737 -0.003338 0.000000 0.000000 0.000973
# 3 -0.003338 -0.003338 0.007130 0.000000 0.000000 0.000000
# 4 0.000000 0.000000 0.000000 0.023775 0.000000 0.000000
# 5 0.000000 0.000000 0.000000 0.000000 0.023775 0.000000
# 6 -0.000973 0.000973 0.000000 0.000000 0.000000 0.018342
#
#
# Mechanical properties :
#
#
# Convention : Reuss Voigt Hill
#
# Bulk Modulus (GPa) = 39.81352 53.76747 46.79050
# Shear Modulus (GPa) = 28.67671 39.63598 34.15635
#
# Velocity S-wave (km/s) = 3.48074 4.09215 3.79877
# Velocity P-wave (km/s) = 5.74237 6.71146 6.24574
#
# Compressibility (1/GPa) = 0.02511709
#
# Stress axis : x y z
#
# Youngs Moduli (GPa) = 36.05235 36.05235 140.24423
#
# Poissons Ratio (x) = 0.43508 0.46815
# Poissons Ratio (y) = 0.43508 0.46815
# Poissons Ratio (z) = 0.12035 0.12035
#
# Static dielectric constant tensor:
#      x y z
#    x 1.881550 0.000000 0.000000 
#    y 0.000000 1.881550 0.000000 
#    z 0.000000 0.000000 1.807770 
# 
# From -- ./inp_files/4491.got.cif
#   From: 2010.05.17/outbox.cif.g08.bks.cpg/sg86_3_cif.got.tgz:4491.got - 2010.06.03 19:03:11.
