data_PCOD9545935
_publ_section_title
;
Structure prediction by ZEFSAII (Michael W. Deem and Ramdas Pophale) SiO2 
 PCOD9545935
Probable space group: I 4/M
;
_chemical_formula_sum "Si O2"
_cell_formula_units_Z 120
_cell_length_a 17.307802
_cell_length_b 17.307802
_cell_length_c 19.938311
_cell_angle_alpha 90.000000
_cell_angle_beta 90.000000
_cell_angle_gamma 90.000000
_cell_volume 5972.720644
_symmetry_space_group_name_H-M "I 4/M"
_symmetry_group_IT_number 87
_symmetry_cell_setting 'tetragonal'
loop_
_space_group_symop_operation_xyz
x,y,z
-y,x,z
-x,-y,z
y,-x,z
-x,-y,-z
y,-x,-z
x,y,-z
-y,x,-z
1/2+x,1/2+y,1/2+z
1/2-y,1/2+x,1/2+z
1/2-x,1/2-y,1/2+z
1/2+y,1/2-x,1/2+z
1/2-x,1/2-y,1/2-z
1/2+y,1/2-x,1/2-z
1/2+x,1/2+y,1/2-z
1/2-y,1/2+x,1/2-z
loop_
_atom_site_type_symbol
_atom_site_label
_atom_site_fract_x
_atom_site_fract_y
_atom_site_fract_z
Si Si1 0.598868 0.823242 0.920051
Si Si2 0.277500 0.477327 0.869676
Si Si3 0.937304 0.601938 0.221112
Si Si4 0.127758 0.991690 0.500000
Si Si5 0.215085 0.204395 0.350883
Si Si6 0.406734 0.999120 0.924257
Si Si7 0.478458 0.371570 0.736265
Si Si8 0.757497 0.137179 0.213250
O O1 0.520085 0.803931 0.879739
O O2 0.661004 0.759735 0.895447
O O3 0.620443 0.912899 0.909542
O O4 0.586260 0.816339 0.000000
O O5 0.323291 0.507973 0.933623
O O6 0.275653 0.384710 0.872281
O O7 0.325699 0.508657 0.806317
O O8 0.899708 0.522033 0.245307
O O9 0.886530 0.674254 0.242002
O O10 0.948304 0.611546 0.140931
O O11 0.078474 0.069437 0.500000
O O12 0.177985 0.200350 0.276136
O O13 0.298500 0.243978 0.342642
O O14 0.500000 0.000000 0.926505
O O15 0.380801 0.976227 0.000000
O O16 0.559679 0.415567 0.728959
O O17 0.439696 0.303783 0.691970
#
# Coordination Sequence:
#
# PCOD9545935 Si02
#       8
#    16  16  16   8  16  16  16  16
#     4  11  23  40  62  86 122 164 198 252 308 368
#     4  12  22  36  59  87 126 162 210 243 301 365
#     4  11  23  37  63  93 121 161 215 260 316 382
#     4  11  22  34  52  84 123 166 210 241 277 358
#     4  11  25  39  58  86 125 159 210 248 308 365
#     4  10  22  40  60  88 123 156 202 256 316 373
#     4  11  22  38  58  84 120 165 207 257 313 369
#     4  11  25  40  59  86 119 162 208 261 314 363
#
# _framework density 20.091346000000001
#
# number of rings (size 3 to 8) (size 9 to 14) (size 15 to 20)
#    0.000    1.000    4.667    2.400    4.667    2.133 
#    0.000    0.667    0.000    0.000    0.000    0.000 
#    0.000    0.000    0.000    5.867    0.000    0.000 
#
# Total GULP energy -334870.777448 kJ/mol
# GULP energy per Si atom -5581.179624 kJ/mol
# Density = 2.004562 g / cm^3
# Si number density = 20.091346 Si / 1000 Ang^3
#
#
#
# Elastic Constant Matrix: (Units=GPa)
#
#
# Indices 1 2 3 4 5 6 
#
# 1 55.5595 31.1568 17.7472 0.0000 0.0000 15.6325
# 2 31.1568 55.5595 17.7472 0.0000 0.0000 -15.6325
# 3 17.7472 17.7472 54.0931 0.0000 0.0000 0.0000
# 4 0.0000 0.0000 0.0000 181.6576 0.0000 0.0000
# 5 0.0000 0.0000 0.0000 0.0000 181.6576 0.0000
# 6 15.6325 -15.6325 0.0000 0.0000 0.0000 24.4002
#
#
#
# Elastic Compliance Matrix: (Units=1/GPa)
#
#
# Indices 1 2 3 4 5 6 
#
# 1 0.121021 -0.107700 -0.004370 0.000000 0.000000 -0.146535
# 2 -0.107700 0.121021 -0.004370 0.000000 0.000000 0.146535
# 3 -0.004370 -0.004370 0.021354 0.000000 0.000000 0.000000
# 4 0.000000 0.000000 0.000000 0.005505 0.000000 0.000000
# 5 0.000000 0.000000 0.000000 0.000000 0.005505 0.000000
# 6 -0.146535 0.146535 0.000000 0.000000 0.000000 0.228745
#
#
# Mechanical properties :
#
#
# Convention : Reuss Voigt Hill
#
# Bulk Modulus (GPa) = 32.77140 33.16826 32.96983
# Shear Modulus (GPa) = 6.70058 84.11379 45.40718
#
# Velocity S-wave (km/s) = 1.82819 6.47739 4.75914
# Velocity P-wave (km/s) = 4.56103 8.51391 6.82970
#
# Compressibility (1/GPa) = 0.03051441
#
# Stress axis : x y z
#
# Youngs Moduli (GPa) = 8.26302 8.26302 46.82891
#
# Poissons Ratio (x) = 0.88993 0.20466
# Poissons Ratio (y) = 0.88993 0.20466
# Poissons Ratio (z) = 0.03611 0.03611
#
# Static dielectric constant tensor:
#      x y z
#    x 1.744120 0.000000 0.000000 
#    y 0.000000 1.744120 0.000000 
#    z 0.000000 0.000000 1.732510 
# 
# From -- ./inp_files/5524.got.cif
#   From: 2010.05.17/outbox.cif.g08.bks.cpg/sg87_3_cif.got.tgz:5524.got - 2010.06.03 19:07:00.
