data_PCOD9545637
_publ_section_title
;
Structure prediction by ZEFSAII (Michael W. Deem and Ramdas Pophale) SiO2 
 PCOD9545637
Probable space group: I 4/M
;
_chemical_formula_sum "Si O2"
_cell_formula_units_Z 116
_cell_length_a 17.937335
_cell_length_b 17.937335
_cell_length_c 17.254952
_cell_angle_alpha 90.000000
_cell_angle_beta 90.000000
_cell_angle_gamma 90.000000
_cell_volume 5551.746070
_symmetry_space_group_name_H-M "I 4/M"
_symmetry_group_IT_number 87
_symmetry_cell_setting 'tetragonal'
loop_
_space_group_symop_operation_xyz
x,y,z
-y,x,z
-x,-y,z
y,-x,z
-x,-y,-z
y,-x,-z
x,y,-z
-y,x,-z
1/2+x,1/2+y,1/2+z
1/2-y,1/2+x,1/2+z
1/2-x,1/2-y,1/2+z
1/2+y,1/2-x,1/2+z
1/2-x,1/2-y,1/2-z
1/2+y,1/2-x,1/2-z
1/2+x,1/2+y,1/2-z
1/2-y,1/2+x,1/2-z
loop_
_atom_site_type_symbol
_atom_site_label
_atom_site_fract_x
_atom_site_fract_y
_atom_site_fract_z
Si Si1 0.850958 0.568263 0.680992
Si Si2 0.000000 0.000000 0.736506
Si Si3 0.102731 0.354061 0.172036
Si Si4 0.993338 0.619496 0.589218
Si Si5 0.704834 0.511135 0.909302
Si Si6 0.058796 0.796886 0.090962
Si Si7 0.190427 0.895112 0.155013
Si Si8 0.621587 0.385697 0.814382
O O1 0.846945 0.619743 0.756442
O O2 0.843737 0.481574 0.703858
O O3 0.784446 0.582710 0.621344
O O4 0.930736 0.581349 0.641419
O O5 0.946780 0.073899 0.729090
O O6 0.098818 0.422931 0.113445
O O7 0.124889 0.275694 0.134435
O O8 0.979840 0.600220 0.500000
O O9 0.989670 0.708960 0.598416
O O10 0.655157 0.443022 0.877137
O O11 0.683310 0.584054 0.859074
O O12 0.688630 0.524481 0.000000
O O13 0.126283 0.852461 0.108937
O O14 0.983234 0.818074 0.137030
O O15 0.041709 0.795665 0.000000
O O16 0.180322 0.874326 0.245682
#
# Coordination Sequence:
#
# PCOD9545637 Si02
#       8
#    16   4  16  16  16  16  16  16
#     4  11  23  42  70  98 126 170 217 275 333 390
#     4   8  16  28  53  84 113 144 196 250 300 360
#     4  11  24  41  67  96 130 165 222 275 328 396
#     4  11  24  41  63  94 131 169 215 271 333 393
#     4  10  21  37  59  90 131 169 211 266 326 395
#     4  11  25  45  68  97 136 174 223 272 331 394
#     4  11  25  42  68  97 130 178 219 277 326 385
#     4  10  19  35  60  90 123 164 213 260 317 389
#
# _framework density 20.894328000000002
#
# number of rings (size 3 to 8) (size 9 to 14) (size 15 to 20)
#    0.000    1.379    1.379    4.138    3.862    4.690 
#    2.483    2.759    0.000    0.000    0.000    0.000 
#    0.000    0.000    0.000    0.000    0.000    0.000 
#
# Total GULP energy -323600.991309 kJ/mol
# GULP energy per Si atom -5579.327436 kJ/mol
# Density = 2.084677 g / cm^3
# Si number density = 20.894328 Si / 1000 Ang^3
#
#
#
# Elastic Constant Matrix: (Units=GPa)
#
#
# Indices 1 2 3 4 5 6 
#
# 1 39.9432 -11.6079 20.6913 0.0000 0.0000 7.7462
# 2 -11.6079 39.9432 20.6913 0.0000 0.0000 -7.7462
# 3 20.6913 20.6913 77.0376 0.0000 0.0000 0.0000
# 4 0.0000 0.0000 0.0000 27.1610 0.0000 0.0000
# 5 0.0000 0.0000 0.0000 0.0000 27.1610 0.0000
# 6 7.7462 -7.7462 0.0000 0.0000 0.0000 17.2635
#
#
#
# Elastic Compliance Matrix: (Units=1/GPa)
#
#
# Indices 1 2 3 4 5 6 
#
# 1 0.040246 0.017824 -0.015597 0.000000 0.000000 -0.010061
# 2 0.017824 0.040246 -0.015597 0.000000 0.000000 0.010061
# 3 -0.015597 -0.015597 0.021359 0.000000 0.000000 0.000000
# 4 0.000000 0.000000 0.000000 0.036818 0.000000 0.000000
# 5 0.000000 0.000000 0.000000 0.000000 0.036818 0.000000
# 6 -0.010061 0.010061 0.000000 0.000000 0.000000 0.066954
#
#
# Mechanical properties :
#
#
# Convention : Reuss Voigt Hill
#
# Bulk Modulus (GPa) = 13.31345 24.05259 18.68302
# Shear Modulus (GPa) = 16.99428 22.79371 19.89399
#
# Velocity S-wave (km/s) = 2.85501 3.30647 3.08900
# Velocity P-wave (km/s) = 4.15377 5.11014 4.65657
#
# Compressibility (1/GPa) = 0.07511199
#
# Stress axis : x y z
#
# Youngs Moduli (GPa) = 24.84714 24.84714 46.81875
#
# Poissons Ratio (x) = -0.44288 0.73023
# Poissons Ratio (y) = -0.44288 0.73023
# Poissons Ratio (z) = 0.38754 0.38754
#
# Static dielectric constant tensor:
#      x y z
#    x 1.745680 0.000000 0.000000 
#    y 0.000000 1.745680 0.000000 
#    z 0.000000 0.000000 1.748240 
# 
# From -- ./inp_files/4590.got.cif
#   From: 2010.05.17/outbox.cif.g08.bks.cpg/sg87_3_cif.got.tgz:4590.got - 2010.06.03 19:07:00.
