data_PCOD9545656
_publ_section_title
;
Structure prediction by ZEFSAII (Michael W. Deem and Ramdas Pophale) SiO2 
 PCOD9545656
Probable space group: I 4/M
;
_chemical_formula_sum "Si O2"
_cell_formula_units_Z 88
_cell_length_a 14.709623
_cell_length_b 14.709623
_cell_length_c 20.235841
_cell_angle_alpha 90.000000
_cell_angle_beta 90.000000
_cell_angle_gamma 90.000000
_cell_volume 4378.489803
_symmetry_space_group_name_H-M "I 4/M"
_symmetry_group_IT_number 87
_symmetry_cell_setting 'tetragonal'
loop_
_space_group_symop_operation_xyz
x,y,z
-y,x,z
-x,-y,z
y,-x,z
-x,-y,-z
y,-x,-z
x,y,-z
-y,x,-z
1/2+x,1/2+y,1/2+z
1/2-y,1/2+x,1/2+z
1/2-x,1/2-y,1/2+z
1/2+y,1/2-x,1/2+z
1/2-x,1/2-y,1/2-z
1/2+y,1/2-x,1/2-z
1/2+x,1/2+y,1/2-z
1/2-y,1/2+x,1/2-z
loop_
_atom_site_type_symbol
_atom_site_label
_atom_site_fract_x
_atom_site_fract_y
_atom_site_fract_z
Si Si1 0.257093 0.911601 0.369395
Si Si2 0.351771 0.158523 0.000000
Si Si3 0.141650 0.051782 0.852820
Si Si4 0.984051 0.209910 0.000000
Si Si5 0.796746 0.653460 0.267429
Si Si6 0.321106 0.205773 0.500000
Si Si7 0.612081 0.248184 0.127547
O O1 0.318583 0.904838 0.434311
O O2 0.321148 0.886466 0.307808
O O3 0.181380 0.832786 0.370256
O O4 0.214162 0.010336 0.373165
O O5 0.309545 0.059934 0.000000
O O6 0.264781 0.226280 0.000000
O O7 0.227038 0.093542 0.812514
O O8 0.052725 0.113522 0.837165
O O9 0.161802 0.047851 0.931904
O O10 0.090777 0.230828 0.000000
O O11 0.750000 0.750000 0.250000
O O12 0.809664 0.613635 0.194888
O O13 0.310967 0.144001 0.565159
#
# Coordination Sequence:
#
# PCOD9545656 Si02
#       7
#    16   8  16   8  16   8  16
#     4  10  21  41  63  91 120 161 209 264 316 387
#     4  10  19  39  61  88 120 165 204 249 312 375
#     4  11  24  39  64 103 135 165 215 275 327 392
#     4  12  22  37  71  93 134 173 213 263 328 396
#     4  10  23  39  62  89 130 174 208 255 334 398
#     4  10  23  41  65  93 128 175 210 264 327 396
#     4  10  23  40  66  91 123 165 217 264 326 384
#
# _framework density 20.098251999999999
#
# number of rings (size 3 to 8) (size 9 to 14) (size 15 to 20)
#    0.000    1.636    1.818    2.182   10.182    1.091 
#    0.000    1.818    0.000    3.273    0.000    0.000 
#    0.000    0.000    0.000    0.000    0.000    0.000 
#
# Total GULP energy -245402.488200 kJ/mol
# GULP energy per Si atom -5577.329277 kJ/mol
# Density = 2.005251 g / cm^3
# Si number density = 20.098252 Si / 1000 Ang^3
#
#
#
# Elastic Constant Matrix: (Units=GPa)
#
#
# Indices 1 2 3 4 5 6 
#
# 1 53.7481 19.9927 27.9748 0.0000 0.0000 -5.2140
# 2 19.9927 53.7481 27.9748 0.0000 0.0000 5.2140
# 3 27.9748 27.9748 132.9800 0.0000 0.0000 0.0000
# 4 0.0000 0.0000 0.0000 0.9170 0.0000 0.0000
# 5 0.0000 0.0000 0.0000 0.0000 0.9170 0.0000
# 6 -5.2140 5.2140 0.0000 0.0000 0.0000 14.4827
#
#
#
# Elastic Compliance Matrix: (Units=1/GPa)
#
#
# Indices 1 2 3 4 5 6 
#
# 1 0.024734 -0.008598 -0.003395 0.000000 0.000000 0.012000
# 2 -0.008598 0.024734 -0.003395 0.000000 0.000000 -0.012000
# 3 -0.003395 -0.003395 0.008948 0.000000 0.000000 0.000000
# 4 0.000000 0.000000 0.000000 1.090469 -0.000001 0.000000
# 5 0.000000 0.000000 0.000000 -0.000001 1.090470 0.000000
# 6 0.012000 -0.012000 0.000000 0.000000 0.000000 0.077689
#
#
# Mechanical properties :
#
#
# Convention : Reuss Voigt Hill
#
# Bulk Modulus (GPa) = 36.17568 43.59565 39.88566
# Shear Modulus (GPa) = 2.12131 14.23228 8.17680
#
# Velocity S-wave (km/s) = 1.02848 2.66397 2.01922
# Velocity P-wave (km/s) = 4.41008 5.58575 5.03237
#
# Compressibility (1/GPa) = 0.02764288
#
# Stress axis : x y z
#
# Youngs Moduli (GPa) = 40.42954 40.42954 111.75465
#
# Poissons Ratio (x) = 0.34760 0.37937
# Poissons Ratio (y) = 0.34760 0.37937
# Poissons Ratio (z) = 0.13724 0.13724
#
# Static dielectric constant tensor:
#      x y z
#    x 1.708200 0.000000 0.000000 
#    y 0.000000 1.708200 0.000000 
#    z 0.000000 0.000000 1.769050 
# 
# From -- ./inp_files/5233.got.cif
#   From: 2010.05.17/outbox.cif.g08.bks.cpg/sg87_3_cif.got.tgz:5233.got - 2010.06.03 19:07:00.
