data_PCOD9545290
_publ_section_title
;
Structure prediction by ZEFSAII (Michael W. Deem and Ramdas Pophale) SiO2 
 PCOD9545290
Probable space group: P 42/N
;
_chemical_formula_sum "Si O2"
_cell_formula_units_Z 40
_cell_length_a 9.140450
_cell_length_b 9.140450
_cell_length_c 20.014635
_cell_angle_alpha 90.000000
_cell_angle_beta 90.000000
_cell_angle_gamma 90.000000
_cell_volume 1672.179246
_symmetry_space_group_name_H-M "P 42/N"
_symmetry_group_IT_number 86
_space_group.IT_coordinate_system_code '2'
_symmetry_cell_setting 'tetragonal'
loop_
_space_group_symop_operation_xyz
x,y,z
-y,1/2+x,1/2+z
1/2-x,1/2-y,z
1/2+y,-x,1/2+z
-x,-y,-z
y,1/2-x,1/2-z
1/2+x,1/2+y,-z
1/2-y,x,1/2-z
loop_
_atom_site_type_symbol
_atom_site_label
_atom_site_fract_x
_atom_site_fract_y
_atom_site_fract_z
Si Si1 0.772259 0.547234 0.772880
Si Si2 0.910210 0.029167 0.353049
Si Si3 0.041400 0.932593 0.120411
Si Si4 0.772829 0.571813 0.964966
Si Si5 0.073925 0.767473 0.393754
O O1 0.684301 0.616454 0.710965
O O2 0.879566 0.412229 0.783628
O O3 0.640023 0.499814 0.820560
O O4 0.742733 0.025521 0.377066
O O5 0.007989 0.118090 0.408099
O O6 0.997542 0.880128 0.343247
O O7 0.122912 0.990403 0.054616
O O8 0.887547 0.007855 0.123069
O O9 0.750000 0.750000 0.965808
O O10 0.815380 0.501950 0.035847
O O11 0.250000 0.750000 0.396280
#
# Coordination Sequence:
#
# PCOD9545290 Si02
#       5
#     8   8   8   8   8
#     4  10  24  43  73  93 125 168 236 277 349 410
#     4  11  24  45  68  99 140 177 232 291 353 419
#     4  11  24  45  68  99 140 177 232 291 353 419
#     4  11  22  39  69 101 143 187 231 277 347 430
#     4  12  25  40  68 103 145 185 227 279 349 424
#
# _framework density 23.920881000000001
#
# number of rings (size 3 to 8) (size 9 to 14) (size 15 to 20)
#    0.000    1.000    0.000    7.800   16.800    0.000 
#    7.200    0.000    0.000    0.000    0.000    0.000 
#    0.000    0.000    0.000    0.000    0.000    0.000 
#
# Total GULP energy -222872.894550 kJ/mol
# GULP energy per Si atom -5571.822364 kJ/mol
# Density = 2.386644 g / cm^3
# Si number density = 23.920881 Si / 1000 Ang^3
#
#
#
# Elastic Constant Matrix: (Units=GPa)
#
#
# Indices 1 2 3 4 5 6 
#
# 1 208.2030 53.1895 20.7499 0.0000 0.0000 0.7455
# 2 53.1895 208.2030 20.7499 0.0000 0.0000 -0.7455
# 3 20.7499 20.7499 49.1320 0.0000 0.0000 0.0000
# 4 0.0000 0.0000 0.0000 34.3603 0.0000 0.0000
# 5 0.0000 0.0000 0.0000 0.0000 34.3603 0.0000
# 6 0.7455 -0.7455 0.0000 0.0000 0.0000 37.2471
#
#
#
# Elastic Compliance Matrix: (Units=1/GPa)
#
#
# Indices 1 2 3 4 5 6 
#
# 1 0.005276 -0.001176 -0.001732 0.000000 0.000000 -0.000129
# 2 -0.001176 0.005276 -0.001732 0.000000 0.000000 0.000129
# 3 -0.001732 -0.001732 0.021816 0.000000 0.000000 0.000000
# 4 0.000000 0.000000 0.000000 0.029103 0.000000 0.000000
# 5 0.000000 0.000000 0.000000 0.000000 0.029103 0.000000
# 6 -0.000129 0.000129 0.000000 0.000000 0.000000 0.026853
#
#
# Mechanical properties :
#
#
# Convention : Reuss Voigt Hill
#
# Bulk Modulus (GPa) = 43.30857 72.76851 58.03854
# Shear Modulus (GPa) = 37.20121 45.91680 41.55900
#
# Velocity S-wave (km/s) = 3.94785 4.38599 4.17268
# Velocity P-wave (km/s) = 6.23899 7.49238 6.89423
#
# Compressibility (1/GPa) = 0.02309012
#
# Stress axis : x y z
#
# Youngs Moduli (GPa) = 189.52123 189.52123 45.83764
#
# Poissons Ratio (x) = 0.22285 0.07938
# Poissons Ratio (y) = 0.22285 0.07938
# Poissons Ratio (z) = 0.32821 0.32821
#
# Static dielectric constant tensor:
#      x y z
#    x 2.046870 0.000000 0.000000 
#    y 0.000000 2.046870 0.000000 
#    z 0.000000 0.000000 2.086930 
# 
# From -- ./inp_files/4487.got.cif
#   From: 2010.05.17/outbox.cif.g08.bks.cpg/sg86_3_cif.got.tgz:4487.got - 2010.06.03 19:03:11.
