data_PCOD9545359
_publ_section_title
;
Structure prediction by ZEFSAII (Michael W. Deem and Ramdas Pophale) SiO2 
 PCOD9545359
Probable space group: P 42/N
;
_chemical_formula_sum "Si O2"
_cell_formula_units_Z 44
_cell_length_a 7.566194
_cell_length_b 7.566194
_cell_length_c 27.825751
_cell_angle_alpha 90.000000
_cell_angle_beta 90.000000
_cell_angle_gamma 90.000000
_cell_volume 1592.948883
_symmetry_space_group_name_H-M "P 42/N"
_symmetry_group_IT_number 86
_space_group.IT_coordinate_system_code '2'
_symmetry_cell_setting 'tetragonal'
loop_
_space_group_symop_operation_xyz
x,y,z
-y,1/2+x,1/2+z
1/2-x,1/2-y,z
1/2+y,-x,1/2+z
-x,-y,-z
y,1/2-x,1/2-z
1/2+x,1/2+y,-z
1/2-y,x,1/2-z
loop_
_atom_site_type_symbol
_atom_site_label
_atom_site_fract_x
_atom_site_fract_y
_atom_site_fract_z
Si Si1 0.991991 0.920230 0.742781
Si Si2 0.395320 0.448566 0.539446
Si Si3 0.030176 0.049312 0.362887
Si Si4 0.750000 0.750000 0.526947
Si Si5 0.097940 0.943125 0.082176
Si Si6 0.387984 0.905144 0.342674
O O1 0.984543 0.705506 0.743252
O O2 0.047440 0.984512 0.690099
O O3 0.107894 0.961789 0.789151
O O4 0.250000 0.250000 0.532864
O O5 0.487004 0.424302 0.591309
O O6 0.435433 0.391870 0.482029
O O7 0.222946 0.570204 0.547801
O O8 0.950470 0.230408 0.383755
O O9 0.239700 0.060126 0.350531
O O10 0.873541 0.605479 0.552785
O O11 0.940202 0.959299 0.119956
O O12 0.250000 0.750000 0.350917
#
# Coordination Sequence:
#
# PCOD9545359 Si02
#       6
#     8   8   8   4   8   8
#     4   9  18  37  69 103 141 184 233 291 346 432
#     4  12  27  44  69 102 138 187 242 299 362 424
#     4  11  22  44  71 102 141 184 244 284 357 439
#     4  12  26  46  68 103 139 180 246 296 366 418
#     4  12  23  47  72 100 141 188 239 302 355 440
#     4  11  23  40  70 109 145 183 236 300 369 431
#
# _framework density 27.621729999999999
#
# number of rings (size 3 to 8) (size 9 to 14) (size 15 to 20)
#    0.000    0.909    5.455    1.091    2.545    1.455 
#    0.000    0.000    0.000    0.000    0.000    0.000 
#    0.000    0.000    0.000    0.000    0.000    0.000 
#
# Total GULP energy -245286.652423 kJ/mol
# GULP energy per Si atom -5574.696646 kJ/mol
# Density = 2.755886 g / cm^3
# Si number density = 27.621730 Si / 1000 Ang^3
#
#
#
# Elastic Constant Matrix: (Units=GPa)
#
#
# Indices 1 2 3 4 5 6 
#
# 1 125.9872 -3.0950 64.1017 0.0000 0.0000 -8.3633
# 2 -3.0950 125.9872 64.1017 0.0000 0.0000 8.3633
# 3 64.1017 64.1017 270.2502 0.0000 0.0000 0.0000
# 4 0.0000 0.0000 0.0000 30.8114 0.0000 0.0000
# 5 0.0000 0.0000 0.0000 0.0000 30.8114 0.0000
# 6 -8.3633 8.3633 0.0000 0.0000 0.0000 32.2869
#
#
#
# Elastic Compliance Matrix: (Units=1/GPa)
#
#
# Indices 1 2 3 4 5 6 
#
# 1 0.009414 0.001398 -0.002565 0.000000 0.000000 0.002076
# 2 0.001398 0.009414 -0.002565 0.000000 0.000000 -0.002076
# 3 -0.002565 -0.002565 0.004917 0.000000 0.000000 0.000000
# 4 0.000000 0.000000 0.000000 0.032456 0.000000 0.000000
# 5 0.000000 0.000000 0.000000 0.000000 0.032456 0.000000
# 6 0.002076 -0.002076 0.000000 0.000000 0.000000 0.032048
#
#
# Mechanical properties :
#
#
# Convention : Reuss Voigt Hill
#
# Bulk Modulus (GPa) = 61.41143 85.82684 73.61914
# Shear Modulus (GPa) = 37.42655 45.25633 41.34144
#
# Velocity S-wave (km/s) = 3.68498 4.05215 3.87292
# Velocity P-wave (km/s) = 6.35506 7.28237 6.83446
#
# Compressibility (1/GPa) = 0.01628361
#
# Stress axis : x y z
#
# Youngs Moduli (GPa) = 106.21995 106.21995 203.37804
#
# Poissons Ratio (x) = -0.14853 0.52161
# Poissons Ratio (y) = -0.14853 0.52161
# Poissons Ratio (z) = 0.27243 0.27243
#
# Static dielectric constant tensor:
#      x y z
#    x 3.093980 0.000000 0.000000 
#    y 0.000000 3.093980 0.000000 
#    z 0.000000 0.000000 2.121590 
# 
# From -- ./inp_files/5036.got.cif
#   From: 2010.05.17/outbox.cif.g08.bks.cpg/sg86_3_cif.got.tgz:5036.got - 2010.06.03 19:03:11.
