data_PCOD9545786
_publ_section_title
;
Structure prediction by ZEFSAII (Michael W. Deem and Ramdas Pophale) SiO2 
 PCOD9545786
Probable space group: I 4/M
;
_chemical_formula_sum "Si O2"
_cell_formula_units_Z 112
_cell_length_a 14.393521
_cell_length_b 14.393521
_cell_length_c 24.542443
_cell_angle_alpha 90.000000
_cell_angle_beta 90.000000
_cell_angle_gamma 90.000000
_cell_volume 5084.542509
_symmetry_space_group_name_H-M "I 4/M"
_symmetry_group_IT_number 87
_symmetry_cell_setting 'tetragonal'
loop_
_space_group_symop_operation_xyz
x,y,z
-y,x,z
-x,-y,z
y,-x,z
-x,-y,-z
y,-x,-z
x,y,-z
-y,x,-z
1/2+x,1/2+y,1/2+z
1/2-y,1/2+x,1/2+z
1/2-x,1/2-y,1/2+z
1/2+y,1/2-x,1/2+z
1/2-x,1/2-y,1/2-z
1/2+y,1/2-x,1/2-z
1/2+x,1/2+y,1/2-z
1/2-y,1/2+x,1/2-z
loop_
_atom_site_type_symbol
_atom_site_label
_atom_site_fract_x
_atom_site_fract_y
_atom_site_fract_z
Si Si1 0.558232 0.266204 0.172911
Si Si2 0.101756 0.515194 0.062872
Si Si3 0.583908 0.897465 0.274443
Si Si4 0.274000 0.643193 0.212561
Si Si5 0.255334 0.363409 0.060023
Si Si6 0.352354 0.454831 0.564787
Si Si7 0.295209 0.172045 0.109650
O O1 0.565694 0.153579 0.179282
O O2 0.454850 0.295668 0.184479
O O3 0.628811 0.305275 0.218375
O O4 0.593203 0.300954 0.114227
O O5 0.158372 0.419135 0.059959
O O6 0.155444 0.598126 0.092535
O O7 0.000000 0.500000 0.086620
O O8 0.090503 0.547484 0.000000
O O9 0.471703 0.898282 0.275565
O O10 0.616078 0.793384 0.261557
O O11 0.212531 0.703409 0.170395
O O12 0.252406 0.254020 0.071910
O O13 0.297788 0.378845 0.000000
O O14 0.440859 0.387810 0.575729
O O15 0.331323 0.449336 0.500000
O O16 0.265184 0.419239 0.599066
#
# Coordination Sequence:
#
# PCOD9545786 Si02
#       7
#    16  16  16  16  16  16  16
#     4  10  20  38  58  83 116 149 196 239 287 347
#     4  10  21  34  51  79 112 147 194 249 295 339
#     4   9  19  37  62  90 117 144 181 233 296 360
#     4  10  21  37  58  88 110 155 191 238 296 342
#     4  10  21  36  54  81 117 159 195 238 293 347
#     4   9  19  35  55  79 110 154 202 243 292 359
#     4  11  21  36  56  82 116 153 199 241 297 351
#
# _framework density 22.027546999999998
#
# number of rings (size 3 to 8) (size 9 to 14) (size 15 to 20)
#    0.000    2.143    1.429    2.143    2.000    1.429 
#    2.571    0.000    0.000    0.429    0.000    4.000 
#    0.000    0.000    0.000    0.000    0.000    0.000 
#
# Total GULP energy -312346.428521 kJ/mol
# GULP energy per Si atom -5577.614795 kJ/mol
# Density = 2.197741 g / cm^3
# Si number density = 22.027547 Si / 1000 Ang^3
#
#
#
# Elastic Constant Matrix: (Units=GPa)
#
#
# Indices 1 2 3 4 5 6 
#
# 1 78.4391 20.6075 6.7358 0.0000 0.0000 11.1125
# 2 20.6075 78.4391 6.7358 0.0000 0.0000 -11.1125
# 3 6.7358 6.7358 27.7385 0.0000 0.0000 0.0000
# 4 0.0000 0.0000 0.0000 18.4556 0.0000 0.0000
# 5 0.0000 0.0000 0.0000 0.0000 18.4556 0.0000
# 6 11.1125 -11.1125 0.0000 0.0000 0.0000 33.9518
#
#
#
# Elastic Compliance Matrix: (Units=1/GPa)
#
#
# Indices 1 2 3 4 5 6 
#
# 1 0.015110 -0.004669 -0.002535 0.000000 0.000000 -0.006474
# 2 -0.004669 0.015110 -0.002535 0.000000 0.000000 0.006474
# 3 -0.002535 -0.002535 0.037282 0.000000 0.000000 0.000000
# 4 0.000000 0.000000 0.000000 0.054184 0.000000 0.000000
# 5 0.000000 0.000000 0.000000 0.000000 0.054184 0.000000
# 6 -0.006474 0.006474 0.000000 0.000000 0.000000 0.033691
#
#
# Mechanical properties :
#
#
# Convention : Reuss Voigt Hill
#
# Bulk Modulus (GPa) = 20.82344 28.08611 24.45478
# Shear Modulus (GPa) = 20.40395 24.20842 22.30619
#
# Velocity S-wave (km/s) = 3.04681 3.31872 3.18567
# Velocity P-wave (km/s) = 4.67453 5.24055 4.96561
#
# Compressibility (1/GPa) = 0.04802280
#
# Stress axis : x y z
#
# Youngs Moduli (GPa) = 66.17996 66.17996 26.82235
#
# Poissons Ratio (x) = 0.30901 0.06801
# Poissons Ratio (y) = 0.30901 0.06801
# Poissons Ratio (z) = 0.16780 0.16780
#
# Static dielectric constant tensor:
#      x y z
#    x 1.809030 0.000000 0.000000 
#    y 0.000000 1.809030 0.000000 
#    z 0.000000 0.000000 1.864420 
# 
# From -- ./inp_files/6293.got.cif
#   From: 2010.05.17/outbox.cif.g08.bks.cpg/sg87_4_cif.got.tgz:6293.got - 2010.06.03 19:07:00.
