data_PCOD9545159
_publ_section_title
;
Structure prediction by ZEFSAII (Michael W. Deem and Ramdas Pophale) SiO2 
 PCOD9545159
Probable space group: P 42/N
;
_chemical_formula_sum "Si O2"
_cell_formula_units_Z 48
_cell_length_a 8.875381
_cell_length_b 8.875381
_cell_length_c 29.901800
_cell_angle_alpha 90.000000
_cell_angle_beta 90.000000
_cell_angle_gamma 90.000000
_cell_volume 2355.436188
_symmetry_space_group_name_H-M "P 42/N"
_symmetry_group_IT_number 86
_space_group.IT_coordinate_system_code '2'
_symmetry_cell_setting 'tetragonal'
loop_
_space_group_symop_operation_xyz
x,y,z
-y,1/2+x,1/2+z
1/2-x,1/2-y,z
1/2+y,-x,1/2+z
-x,-y,-z
y,1/2-x,1/2-z
1/2+x,1/2+y,-z
1/2-y,x,1/2-z
loop_
_atom_site_type_symbol
_atom_site_label
_atom_site_fract_x
_atom_site_fract_y
_atom_site_fract_z
Si Si1 0.084490 0.819775 0.954812
Si Si2 0.415463 0.321105 0.952491
Si Si3 0.918528 0.679699 0.137821
Si Si4 0.182418 0.918905 0.364001
Si Si5 0.026643 0.300335 0.231279
Si Si6 0.207774 0.478742 0.733402
O O1 0.250000 0.750000 0.959357
O O2 0.015553 0.741055 0.910942
O O3 0.093997 0.998855 0.946400
O O4 0.999764 0.792091 0.001139
O O5 0.250000 0.250000 0.956408
O O6 0.485954 0.245277 0.908189
O O7 0.750000 0.750000 0.140384
O O8 0.911482 0.499004 0.136626
O O9 0.997548 0.733352 0.183253
O O10 0.250000 0.750000 0.360717
O O11 0.235984 0.011267 0.320869
O O12 0.157589 0.422705 0.240020
O O13 0.872335 0.375937 0.247013
O O14 0.343506 0.415592 0.763930
#
# Coordination Sequence:
#
# PCOD9545159 Si02
#       6
#     8   8   8   8   8   8
#     4  10  22  41  64  93 123 167 203 255 328 373
#     4  10  22  39  63  94 125 159 209 263 307 377
#     4  11  20  35  61 100 121 157 214 259 305 365
#     4  11  23  38  67  90 120 169 208 257 316 376
#     4  11  27  43  58  89 129 169 202 256 318 378
#     4  11  21  38  65  93 121 163 211 266 292 367
#
# _framework density 20.378388999999999
#
# number of rings (size 3 to 8) (size 9 to 14) (size 15 to 20)
#    0.000    1.333    3.333    4.000    7.000    2.667 
#    3.000    1.667    0.000    0.000    0.000    0.000 
#    0.000    0.000    0.000    0.000    0.000    0.000 
#
# Total GULP energy -268320.397663 kJ/mol
# GULP energy per Si atom -5590.008285 kJ/mol
# Density = 2.033201 g / cm^3
# Si number density = 20.378389 Si / 1000 Ang^3
#
#
#
# Elastic Constant Matrix: (Units=GPa)
#
#
# Indices 1 2 3 4 5 6 
#
# 1 58.9660 28.4799 50.1306 0.0000 0.0000 4.6574
# 2 28.4799 58.9660 50.1306 0.0000 0.0000 -4.6574
# 3 50.1306 50.1306 197.3119 0.0000 0.0000 0.0000
# 4 0.0000 0.0000 0.0000 33.6436 0.0000 0.0000
# 5 0.0000 0.0000 0.0000 0.0000 33.6436 0.0000
# 6 4.6574 -4.6574 0.0000 0.0000 0.0000 37.5220
#
#
#
# Elastic Compliance Matrix: (Units=1/GPa)
#
#
# Indices 1 2 3 4 5 6 
#
# 1 0.025116 -0.008979 -0.004100 0.000000 0.000000 -0.004232
# 2 -0.008979 0.025116 -0.004100 0.000000 0.000000 0.004232
# 3 -0.004100 -0.004100 0.007151 0.000000 0.000000 0.000000
# 4 0.000000 0.000000 0.000000 0.029723 0.000000 0.000000
# 5 0.000000 0.000000 0.000000 0.000000 0.029723 0.000000
# 6 -0.004232 0.004232 0.000000 0.000000 0.000000 0.027702
#
#
# Mechanical properties :
#
#
# Convention : Reuss Voigt Hill
#
# Bulk Modulus (GPa) = 43.43132 63.63626 53.53379
# Shear Modulus (GPa) = 26.80057 33.39534 30.09795
#
# Velocity S-wave (km/s) = 3.63043 4.05255 3.84729
# Velocity P-wave (km/s) = 6.23956 7.29333 6.78693
#
# Compressibility (1/GPa) = 0.02302486
#
# Stress axis : x y z
#
# Youngs Moduli (GPa) = 39.81601 39.81601 139.83455
#
# Poissons Ratio (x) = 0.35752 0.57328
# Poissons Ratio (y) = 0.35752 0.57328
# Poissons Ratio (z) = 0.16323 0.16323
#
# Static dielectric constant tensor:
#      x y z
#    x 1.731540 0.000000 0.000000 
#    y 0.000000 1.731540 0.000000 
#    z 0.000000 0.000000 1.746330 
# 
# From -- ./inp_files/5211.got.cif
#   From: 2010.05.17/outbox.cif.g08.bks.cpg/sg86_3_cif.got.tgz:5211.got - 2010.06.03 19:03:11.
