data_PCOD9545967
_publ_section_title
;
Structure prediction by ZEFSAII (Michael W. Deem and Ramdas Pophale) SiO2 
 PCOD9545967
Probable space group: I 4/M
;
_chemical_formula_sum "Si O2"
_cell_formula_units_Z 112
_cell_length_a 15.063648
_cell_length_b 15.063648
_cell_length_c 23.628157
_cell_angle_alpha 90.000000
_cell_angle_beta 90.000000
_cell_angle_gamma 90.000000
_cell_volume 5361.547592
_symmetry_space_group_name_H-M "I 4/M"
_symmetry_group_IT_number 87
_symmetry_cell_setting 'tetragonal'
loop_
_space_group_symop_operation_xyz
x,y,z
-y,x,z
-x,-y,z
y,-x,z
-x,-y,-z
y,-x,-z
x,y,-z
-y,x,-z
1/2+x,1/2+y,1/2+z
1/2-y,1/2+x,1/2+z
1/2-x,1/2-y,1/2+z
1/2+y,1/2-x,1/2+z
1/2-x,1/2-y,1/2-z
1/2+y,1/2-x,1/2-z
1/2+x,1/2+y,1/2-z
1/2-y,1/2+x,1/2-z
loop_
_atom_site_type_symbol
_atom_site_label
_atom_site_fract_x
_atom_site_fract_y
_atom_site_fract_z
Si Si1 0.228599 0.407200 0.062740
Si Si2 0.253512 0.429654 0.388497
Si Si3 0.442862 0.086674 0.067662
Si Si4 0.630021 0.737274 0.595946
Si Si5 0.540725 0.253286 0.745346
Si Si6 0.929555 0.127704 0.346376
Si Si7 0.207965 0.657498 0.273288
O O1 0.171344 0.494353 0.077088
O O2 0.164360 0.322486 0.062418
O O3 0.300847 0.391662 0.110646
O O4 0.267760 0.418488 0.000000
O O5 0.150045 0.410323 0.400206
O O6 0.312731 0.350779 0.413205
O O7 0.276046 0.525887 0.413724
O O8 0.267636 0.439241 0.320834
O O9 0.500000 0.000000 0.083944
O O10 0.425469 0.080783 0.000000
O O11 0.645357 0.764185 0.661727
O O12 0.573774 0.336588 0.782389
O O13 0.436053 0.235993 0.754830
O O14 0.602502 0.172316 0.766235
O O15 0.034106 0.115516 0.356664
O O16 0.250000 0.750000 0.250000
#
# Coordination Sequence:
#
# PCOD9545967 Si02
#       7
#    16  16  16  16  16  16  16
#     4  11  25  44  71 100 131 176 233 291 349 412
#     4  11  25  41  68 101 140 184 230 284 341 411
#     4  10  22  44  70  96 130 174 225 281 346 411
#     4  11  24  43  64  97 136 178 232 287 340 406
#     4  11  24  38  65  96 135 181 222 274 344 411
#     4  11  26  45  67  97 139 187 229 276 345 425
#     4  11  22  41  61  91 132 177 225 282 336 410
#
# _framework density 20.889489999999999
#
# number of rings (size 3 to 8) (size 9 to 14) (size 15 to 20)
#    0.000    1.143    4.286    0.857    6.000    1.714 
#    0.000    0.714    0.000    0.000    0.000    2.000 
#    0.000    0.000    0.000    0.000    0.000    0.000 
#
# Total GULP energy -313064.187655 kJ/mol
# GULP energy per Si atom -5590.431922 kJ/mol
# Density = 2.084194 g / cm^3
# Si number density = 20.889490 Si / 1000 Ang^3
#
#
#
# Elastic Constant Matrix: (Units=GPa)
#
#
# Indices 1 2 3 4 5 6 
#
# 1 111.1441 40.5729 13.0878 0.0000 0.0000 6.9394
# 2 40.5729 111.1441 13.0878 0.0000 0.0000 -6.9394
# 3 13.0878 13.0878 43.7226 0.0000 0.0000 0.0000
# 4 0.0000 0.0000 0.0000 -1.0974 0.0000 0.0000
# 5 0.0000 0.0000 0.0000 0.0000 -1.0974 0.0000
# 6 6.9394 -6.9394 0.0000 0.0000 0.0000 34.5583
#
#
#
# Elastic Compliance Matrix: (Units=1/GPa)
#
#
# Indices 1 2 3 4 5 6 
#
# 1 0.010851 -0.003901 -0.002080 0.000000 0.000000 -0.002962
# 2 -0.003901 0.010851 -0.002080 0.000000 0.000000 0.002962
# 3 -0.002080 -0.002080 0.024117 0.000000 0.000000 0.000000
# 4 0.000000 0.000000 0.000000 -0.911281 0.000000 0.000000
# 5 0.000000 0.000000 0.000000 0.000000 -0.911281 0.000000
# 6 -0.002962 0.002962 0.000000 0.000000 0.000000 0.030126
#
#
# Mechanical properties :
#
#
# Convention : Reuss Voigt Hill
#
# Bulk Modulus (GPa) = 33.67510 44.38977 39.03243
# Shear Modulus (GPa) = -2.90597 19.75687 8.42545
#
# Velocity S-wave (km/s) = -1.18074 3.07869 2.01050
# Velocity P-wave (km/s) = 3.78110 5.82527 4.91073
#
# Compressibility (1/GPa) = 0.02969553
#
# Stress axis : x y z
#
# Youngs Moduli (GPa) = 92.15386 92.15386 41.46454
#
# Poissons Ratio (x) = 0.35952 0.08626
# Poissons Ratio (y) = 0.35952 0.08626
# Poissons Ratio (z) = 0.19172 0.19172
#
# Static dielectric constant tensor:
#      x y z
#    x 1.741570 0.000000 0.000000 
#    y 0.000000 1.741570 0.000000 
#    z 0.000000 0.000000 1.760560 
# 
# From -- ./inp_files/5926.got.cif
#   From: 2010.05.17/outbox.cif.g08.bks.cpg/sg87_3_cif.got.tgz:5926.got - 2010.06.03 19:07:00.
