data_PCOD9545112
_publ_section_title
;
Structure prediction by ZEFSAII (Michael W. Deem and Ramdas Pophale) SiO2 
 PCOD9545112
Probable space group: P 42/N
;
_chemical_formula_sum "Si O2"
_cell_formula_units_Z 54
_cell_length_a 13.535494
_cell_length_b 13.535494
_cell_length_c 12.431505
_cell_angle_alpha 90.000000
_cell_angle_beta 90.000000
_cell_angle_gamma 90.000000
_cell_volume 2277.571031
_symmetry_space_group_name_H-M "P 42/N"
_symmetry_group_IT_number 86
_space_group.IT_coordinate_system_code '2'
_symmetry_cell_setting 'tetragonal'
loop_
_space_group_symop_operation_xyz
x,y,z
-y,1/2+x,1/2+z
1/2-x,1/2-y,z
1/2+y,-x,1/2+z
-x,-y,-z
y,1/2-x,1/2-z
1/2+x,1/2+y,-z
1/2-y,x,1/2-z
loop_
_atom_site_type_symbol
_atom_site_label
_atom_site_fract_x
_atom_site_fract_y
_atom_site_fract_z
Si Si1 0.723611 0.094101 0.625068
Si Si2 0.942369 0.336718 0.917589
Si Si3 0.482113 0.893124 0.442993
Si Si4 0.601376 0.807920 0.244492
Si Si5 0.593610 0.968739 0.791843
Si Si6 0.250000 0.250000 0.250000
Si Si7 0.806664 0.918549 0.858727
Si Si8 0.750000 0.250000 0.798698
O O1 0.804972 0.055554 0.541850
O O2 0.632739 0.142500 0.556006
O O3 0.646797 0.024769 0.691130
O O4 0.773631 0.162504 0.714469
O O5 0.949632 0.450488 0.874997
O O6 0.840974 0.291690 0.867779
O O7 0.033884 0.286122 0.858193
O O8 0.535830 0.871412 0.329016
O O9 0.542236 0.828419 0.526378
O O10 0.500000 0.000000 0.500000
O O11 0.701002 0.865240 0.212230
O O12 0.689558 0.927063 0.850252
O O13 0.534245 0.879462 0.733083
O O14 0.196000 0.323513 0.331153
#
# Coordination Sequence:
#
# PCOD9545112 Si02
#       8
#     8   8   8   8   8   2   8   4
#     4  11  23  39  63  95 127 171 223 269 344 403
#     4  11  23  43  66  95 137 174 223 289 340 408
#     4  12  22  42  70  95 127 180 230 272 342 423
#     4  11  25  45  66  99 140 181 228 287 348 414
#     4  10  22  43  63  98 131 168 227 279 337 411
#     4   8  20  40  56  88 122 156 208 272 312 388
#     4  10  21  39  67  90 126 169 219 269 333 401
#     4  10  22  40  64  92 132 166 224 272 340 406
#
# _framework density 23.709468000000001
#
# number of rings (size 3 to 8) (size 9 to 14) (size 15 to 20)
#    0.000    1.333    4.444    1.333    6.222    1.185 
#    5.333    0.741    0.000    0.000    0.000    0.000 
#    0.000    0.000    0.000    0.000    0.000    0.000 
#
# Total GULP energy -300710.730177 kJ/mol
# GULP energy per Si atom -5568.717226 kJ/mol
# Density = 2.365550 g / cm^3
# Si number density = 23.709468 Si / 1000 Ang^3
#
#
#
# Elastic Constant Matrix: (Units=GPa)
#
#
# Indices 1 2 3 4 5 6 
#
# 1 34.1500 11.2017 -6.3908 0.0000 0.0000 19.3681
# 2 11.2017 34.1500 -6.3908 0.0000 0.0000 -19.3681
# 3 -6.3908 -6.3908 71.2544 0.0000 0.0000 0.0000
# 4 0.0000 0.0000 0.0000 22.1275 0.0000 0.0000
# 5 0.0000 0.0000 0.0000 0.0000 22.1275 0.0000
# 6 19.3681 -19.3681 0.0000 0.0000 0.0000 15.0464
#
#
#
# Elastic Compliance Matrix: (Units=1/GPa)
#
#
# Indices 1 2 3 4 5 6 
#
# 1 -0.007267 0.029888 0.002029 0.000000 0.000000 0.047827
# 2 0.029888 -0.007267 0.002029 0.000000 0.000000 -0.047827
# 3 0.002029 0.002029 0.014398 0.000000 0.000000 0.000000
# 4 0.000000 0.000000 0.000000 0.045193 0.000000 0.000000
# 5 0.000000 0.000000 0.000000 0.000000 0.045193 0.000000
# 6 0.047827 -0.047827 0.000000 0.000000 0.000000 -0.056668
#
#
# Mechanical properties :
#
#
# Convention : Reuss Voigt Hill
#
# Bulk Modulus (GPa) = 14.75856 15.15498 14.95677
# Shear Modulus (GPa) = -426.43920 21.26922 -202.58499
#
# Velocity S-wave (km/s) = -13.42575 2.99837 -9.25366
# Velocity P-wave (km/s) = 15.30020 4.28869 10.38516
#
# Compressibility (1/GPa) = 0.06775727
#
# Stress axis : x y z
#
# Youngs Moduli (GPa) = -137.61341 -137.61341 69.45329
#
# Poissons Ratio (x) = 4.11305 -0.14092
# Poissons Ratio (y) = 4.11305 -0.14092
# Poissons Ratio (z) = 0.27921 0.27921
#
# Static dielectric constant tensor:
#      x y z
#    x 2.218360 0.000000 0.000000 
#    y 0.000000 2.218360 0.000000 
#    z 0.000000 0.000000 1.948460 
# 
# From -- ./inp_files/2417.got.cif
#   From: 2010.05.17/outbox.cif.g08.bks.cpg/sg86_2_cif.got.tgz:2417.got - 2010.06.03 19:03:11.
