data_PCOD9545751
_publ_section_title
;
Structure prediction by ZEFSAII (Michael W. Deem and Ramdas Pophale) SiO2 
 PCOD9545751
Probable space group: I 4/M
;
_chemical_formula_sum "Si O2"
_cell_formula_units_Z 120
_cell_length_a 15.572991
_cell_length_b 15.572991
_cell_length_c 28.194255
_cell_angle_alpha 90.000000
_cell_angle_beta 90.000000
_cell_angle_gamma 90.000000
_cell_volume 6837.615707
_symmetry_space_group_name_H-M "I 4/M"
_symmetry_group_IT_number 87
_symmetry_cell_setting 'tetragonal'
loop_
_space_group_symop_operation_xyz
x,y,z
-y,x,z
-x,-y,z
y,-x,z
-x,-y,-z
y,-x,-z
x,y,-z
-y,x,-z
1/2+x,1/2+y,1/2+z
1/2-y,1/2+x,1/2+z
1/2-x,1/2-y,1/2+z
1/2+y,1/2-x,1/2+z
1/2-x,1/2-y,1/2-z
1/2+y,1/2-x,1/2-z
1/2+x,1/2+y,1/2-z
1/2-y,1/2+x,1/2-z
loop_
_atom_site_type_symbol
_atom_site_label
_atom_site_fract_x
_atom_site_fract_y
_atom_site_fract_z
Si Si1 0.884558 0.085522 0.330260
Si Si2 0.379573 0.424376 0.000000
Si Si3 0.020209 0.597614 0.872861
Si Si4 0.157626 0.537245 0.944665
Si Si5 0.051610 0.626243 0.769109
Si Si6 0.239232 0.161241 0.721484
Si Si7 0.361716 0.828763 0.117133
Si Si8 0.169405 0.196263 0.578364
O O1 0.848413 0.137323 0.285868
O O2 0.830212 0.120963 0.373923
O O3 0.983625 0.115118 0.332594
O O4 0.475095 0.387083 0.000000
O O5 0.334947 0.387314 0.954455
O O6 0.075508 0.583439 0.920163
O O7 0.066342 0.630583 0.825677
O O8 0.000000 0.500000 0.857371
O O9 0.931281 0.647849 0.880475
O O10 0.178730 0.455869 0.909546
O O11 0.229598 0.611525 0.943546
O O12 0.144961 0.510664 0.000000
O O13 0.105032 0.547051 0.745374
O O14 0.084521 0.716051 0.749652
O O15 0.250000 0.250000 0.750000
O O16 0.287394 0.148886 0.669912
O O17 0.293652 0.770508 0.088151
#
# Coordination Sequence:
#
# PCOD9545751 Si02
#       8
#    16   8  16  16  16  16  16  16
#     4  10  22  38  54  76 110 154 187 228 282 340
#     4  11  20  30  48  74 102 142 190 229 266 320
#     4  10  20  36  57  83 111 146 191 235 287 344
#     4  11  23  38  58  83 115 154 194 238 294 343
#     4  11  19  35  62  85 113 147 189 240 286 340
#     4  11  24  36  58  87 115 147 191 236 291 340
#     4  10  22  38  53  82 114 149 190 234 283 344
#     4  11  21  34  54  75 111 143 190 237 275 334
#
# _framework density 17.549976000000001
#
# number of rings (size 3 to 8) (size 9 to 14) (size 15 to 20)
#    0.000    1.400    3.333    4.000    6.533    3.467 
#    0.000    0.000    0.000    0.000    0.000    0.000 
#    0.000    0.533    0.000    1.200    0.000    0.000 
#
# Total GULP energy -334003.354260 kJ/mol
# GULP energy per Si atom -5566.722571 kJ/mol
# Density = 1.751003 g / cm^3
# Si number density = 17.549976 Si / 1000 Ang^3
#
#
#
# Elastic Constant Matrix: (Units=GPa)
#
#
# Indices 1 2 3 4 5 6 
#
# 1 34.4403 4.4166 17.6245 0.0000 0.0000 -5.8852
# 2 4.4166 34.4403 17.6245 0.0000 0.0000 5.8852
# 3 17.6245 17.6245 88.1116 0.0000 0.0000 0.0000
# 4 0.0000 0.0000 0.0000 25.0491 0.0000 0.0000
# 5 0.0000 0.0000 0.0000 0.0000 25.0491 0.0000
# 6 -5.8852 5.8852 0.0000 0.0000 0.0000 18.6140
#
#
#
# Elastic Compliance Matrix: (Units=1/GPa)
#
#
# Indices 1 2 3 4 5 6 
#
# 1 0.034730 -0.003290 -0.006289 0.000000 0.000000 0.012021
# 2 -0.003290 0.034730 -0.006289 0.000000 0.000000 -0.012021
# 3 -0.006289 -0.006289 0.013865 0.000000 0.000000 0.000000
# 4 0.000000 0.000000 0.000000 0.039922 0.000000 0.000000
# 5 0.000000 0.000000 0.000000 0.000000 0.039922 0.000000
# 6 0.012021 -0.012021 0.000000 0.000000 0.000000 0.061324
#
#
# Mechanical properties :
#
#
# Convention : Reuss Voigt Hill
#
# Bulk Modulus (GPa) = 19.38346 26.25816 22.82081
# Shear Modulus (GPa) = 18.28663 21.56423 19.92543
#
# Velocity S-wave (km/s) = 3.23146 3.50913 3.37316
# Velocity P-wave (km/s) = 4.99918 5.60474 5.31060
#
# Compressibility (1/GPa) = 0.05159039
#
# Stress axis : x y z
#
# Youngs Moduli (GPa) = 28.79356 28.79356 72.12365
#
# Poissons Ratio (x) = 0.09472 0.45357
# Poissons Ratio (y) = 0.09472 0.45357
# Poissons Ratio (z) = 0.18108 0.18108
#
# Static dielectric constant tensor:
#      x y z
#    x 1.620790 0.000000 0.000000 
#    y 0.000000 1.620790 0.000000 
#    z 0.000000 0.000000 1.560230 
# 
# From -- ./inp_files/6767.got.cif
#   From: 2010.05.17/outbox.cif.g08.bks.cpg/sg87_4_cif.got.tgz:6767.got - 2010.06.03 19:07:00.
