data_PCOD9545276
_publ_section_title
;
Structure prediction by ZEFSAII (Michael W. Deem and Ramdas Pophale) SiO2 
 PCOD9545276
Probable space group: P 42/N
;
_chemical_formula_sum "Si O2"
_cell_formula_units_Z 40
_cell_length_a 15.007040
_cell_length_b 15.007040
_cell_length_c 7.101426
_cell_angle_alpha 90.000000
_cell_angle_beta 90.000000
_cell_angle_gamma 90.000000
_cell_volume 1599.321023
_symmetry_space_group_name_H-M "P 42/N"
_symmetry_group_IT_number 86
_space_group.IT_coordinate_system_code '2'
_symmetry_cell_setting 'tetragonal'
loop_
_space_group_symop_operation_xyz
x,y,z
-y,1/2+x,1/2+z
1/2-x,1/2-y,z
1/2+y,-x,1/2+z
-x,-y,-z
y,1/2-x,1/2-z
1/2+x,1/2+y,-z
1/2-y,x,1/2-z
loop_
_atom_site_type_symbol
_atom_site_label
_atom_site_fract_x
_atom_site_fract_y
_atom_site_fract_z
Si Si1 0.013672 0.124902 0.007616
Si Si2 0.765111 0.599682 0.226960
Si Si3 0.874691 0.666754 0.739843
Si Si4 0.450963 0.691087 0.589610
Si Si5 0.938213 0.374759 0.211885
O O1 0.957401 0.069271 0.858364
O O2 0.030752 0.216596 0.896690
O O3 0.972146 0.138270 0.214690
O O4 0.115783 0.097261 0.048272
O O5 0.841574 0.677669 0.221777
O O6 0.784921 0.534346 0.049198
O O7 0.634573 0.540393 0.641621
O O8 0.772562 0.635935 0.760264
O O9 0.389391 0.630002 0.458361
O O10 0.416499 0.785749 0.668460
#
# Coordination Sequence:
#
# PCOD9545276 Si02
#       5
#     8   8   8   8   8
#     4  11  25  46  78 112 162 213 265 330 400 483
#     4  10  24  41  71 121 167 207 261 327 407 498
#     4  11  24  44  81 120 159 204 254 328 416 488
#     4  11  26  50  81 114 158 218 276 338 404 475
#     4  11  26  52  77 117 161 212 275 338 399 484
#
# _framework density 25.010612999999999
#
# number of rings (size 3 to 8) (size 9 to 14) (size 15 to 20)
#    0.000    1.200    2.000    1.800    2.800    7.200 
#    0.000    3.000    0.000    0.000    0.000    0.000 
#    0.000    0.000    0.000    0.000    0.000    0.000 
#
# Total GULP energy -222745.036550 kJ/mol
# GULP energy per Si atom -5568.625914 kJ/mol
# Density = 2.495369 g / cm^3
# Si number density = 25.010613 Si / 1000 Ang^3
#
#
#
# Elastic Constant Matrix: (Units=GPa)
#
#
# Indices 1 2 3 4 5 6 
#
# 1 142.9994 85.2994 64.5372 0.0000 0.0000 -7.5626
# 2 85.2994 142.9994 64.5372 0.0000 0.0000 7.5626
# 3 64.5372 64.5372 169.7413 0.0000 0.0000 0.0000
# 4 0.0000 0.0000 0.0000 38.1043 0.0000 0.0000
# 5 0.0000 0.0000 0.0000 0.0000 38.1043 0.0000
# 6 -7.5626 7.5626 0.0000 0.0000 0.0000 53.0999
#
#
#
# Elastic Compliance Matrix: (Units=1/GPa)
#
#
# Indices 1 2 3 4 5 6 
#
# 1 0.011791 -0.006212 -0.002121 0.000000 0.000000 0.002564
# 2 -0.006212 0.011791 -0.002121 0.000000 0.000000 -0.002564
# 3 -0.002121 -0.002121 0.007504 0.000000 0.000000 0.000000
# 4 0.000000 0.000000 0.000000 0.026244 0.000000 0.000000
# 5 0.000000 0.000000 0.000000 0.000000 0.026244 0.000000
# 6 0.002564 -0.002564 0.000000 0.000000 0.000000 0.019563
#
#
# Mechanical properties :
#
#
# Convention : Reuss Voigt Hill
#
# Bulk Modulus (GPa) = 98.25077 98.27643 98.26360
# Shear Modulus (GPa) = 39.23433 41.95280 40.59357
#
# Velocity S-wave (km/s) = 3.96499 4.10005 4.03308
# Velocity P-wave (km/s) = 7.76727 7.86086 7.81420
#
# Compressibility (1/GPa) = 0.01017804
#
# Stress axis : x y z
#
# Youngs Moduli (GPa) = 84.80769 84.80769 133.25357
#
# Poissons Ratio (x) = 0.52680 0.28269
# Poissons Ratio (y) = 0.52680 0.28269
# Poissons Ratio (z) = 0.17991 0.17991
#
# Static dielectric constant tensor:
#      x y z
#    x 2.053500 0.000000 0.000000 
#    y 0.000000 2.053500 0.000000 
#    z 0.000000 0.000000 2.144470 
# 
# From -- ./inp_files/292.got.cif
#   From: 2010.05.17/outbox.cif.g08.bks.cpg/sg86_1_cif.got.tgz:292.got - 2010.06.03 19:03:11.
