data_PCOD9545459
_publ_section_title
;
Structure prediction by ZEFSAII (Michael W. Deem and Ramdas Pophale) SiO2 
 PCOD9545459
Probable space group: P 42/N
;
_chemical_formula_sum "Si O2"
_cell_formula_units_Z 18
_cell_length_a 5.210425
_cell_length_b 5.210425
_cell_length_c 28.641765
_cell_angle_alpha 90.000000
_cell_angle_beta 90.000000
_cell_angle_gamma 90.000000
_cell_volume 777.581779
_symmetry_space_group_name_H-M "P 42/N"
_symmetry_group_IT_number 86
_space_group.IT_coordinate_system_code '2'
_symmetry_cell_setting 'tetragonal'
loop_
_space_group_symop_operation_xyz
x,y,z
-y,1/2+x,1/2+z
1/2-x,1/2-y,z
1/2+y,-x,1/2+z
-x,-y,-z
y,1/2-x,1/2-z
1/2+x,1/2+y,-z
1/2-y,x,1/2-z
loop_
_atom_site_type_symbol
_atom_site_label
_atom_site_fract_x
_atom_site_fract_y
_atom_site_fract_z
Si Si1 0.250000 0.250000 0.875696
Si Si2 0.750000 0.750000 0.750000
Si Si3 0.496971 0.079692 0.445863
Si Si4 0.250000 0.750000 0.187138
O O1 0.341137 0.472358 0.911146
O O2 0.496603 0.195550 0.843674
O O3 0.500306 0.799907 0.718419
O O4 0.750000 0.250000 0.438792
O O5 0.250000 0.250000 0.436048
O O6 0.500000 0.000000 0.500000
#
# Coordination Sequence:
#
# PCOD9545459 Si02
#       4
#     4   2   8   4
#     4  12  28  49  79 120 150 206 265 317 376 476
#     4  12  28  56  78 112 148 196 242 336 424 464
#     4  12  27  46  73 110 161 213 259 312 375 444
#     4  12  28  50  82 110 150 192 258 324 400 482
#
# _framework density 23.148686999999999
#
# number of rings (size 3 to 8) (size 9 to 14) (size 15 to 20)
#    0.000    0.000    4.444    4.000    3.111    3.556 
#    0.000    0.000    0.000    0.000    0.000    0.000 
#    0.000    0.000    0.000    0.000    0.000    0.000 
#
# Total GULP energy -100934.336300 kJ/mol
# GULP energy per Si atom -5607.463128 kJ/mol
# Density = 2.309600 g / cm^3
# Si number density = 23.148687 Si / 1000 Ang^3
#
#
#
# Elastic Constant Matrix: (Units=GPa)
#
#
# Indices 1 2 3 4 5 6 
#
# 1 195.5642 70.0548 73.1838 0.0000 0.0000 -1.5404
# 2 70.0548 195.5642 73.1838 0.0000 0.0000 1.5404
# 3 73.1838 73.1838 157.6066 0.0000 0.0000 0.0000
# 4 0.0000 0.0000 0.0000 20.5696 0.0000 0.0000
# 5 0.0000 0.0000 0.0000 0.0000 20.5696 0.0000
# 6 -1.5404 1.5404 0.0000 0.0000 0.0000 51.4080
#
#
#
# Elastic Compliance Matrix: (Units=1/GPa)
#
#
# Indices 1 2 3 4 5 6 
#
# 1 0.006516 -0.001457 -0.002349 0.000000 0.000000 0.000239
# 2 -0.001457 0.006516 -0.002349 0.000000 0.000000 -0.000239
# 3 -0.002349 -0.002349 0.008527 0.000000 0.000000 0.000000
# 4 0.000000 0.000000 0.000000 0.048616 0.000000 0.000000
# 5 0.000000 0.000000 0.000000 0.000000 0.048616 0.000000
# 6 0.000239 -0.000239 0.000000 0.000000 0.000000 0.019467
#
#
# Mechanical properties :
#
#
# Convention : Reuss Voigt Hill
#
# Bulk Modulus (GPa) = 108.12877 109.06444 108.59660
# Shear Modulus (GPa) = 32.54130 40.66360 36.60245
#
# Velocity S-wave (km/s) = 3.75340 4.19576 3.98073
# Velocity P-wave (km/s) = 8.09914 8.40771 8.25486
#
# Compressibility (1/GPa) = 0.00924823
#
# Stress axis : x y z
#
# Youngs Moduli (GPa) = 153.45967 153.45967 117.27911
#
# Poissons Ratio (x) = 0.22359 0.27552
# Poissons Ratio (y) = 0.22359 0.27552
# Poissons Ratio (z) = 0.36052 0.36052
#
# Static dielectric constant tensor:
#      x y z
#    x 1.876440 0.000000 0.000000 
#    y 0.000000 1.876440 0.000000 
#    z 0.000000 0.000000 1.880930 
# 
# From -- ./inp_files/4309.got.cif
#   From: 2010.05.17/outbox.cif.g08.bks.cpg/sg86_3_cif.got.tgz:4309.got - 2010.06.03 19:03:11.
