data_PCOD9545288
_publ_section_title
;
Structure prediction by ZEFSAII (Michael W. Deem and Ramdas Pophale) SiO2 
 PCOD9545288
Probable space group: P 42/N
;
_chemical_formula_sum "Si O2"
_cell_formula_units_Z 48
_cell_length_a 8.596122
_cell_length_b 8.596122
_cell_length_c 28.421402
_cell_angle_alpha 90.000000
_cell_angle_beta 90.000000
_cell_angle_gamma 90.000000
_cell_volume 2100.151566
_symmetry_space_group_name_H-M "P 42/N"
_symmetry_group_IT_number 86
_space_group.IT_coordinate_system_code '2'
_symmetry_cell_setting 'tetragonal'
loop_
_space_group_symop_operation_xyz
x,y,z
-y,1/2+x,1/2+z
1/2-x,1/2-y,z
1/2+y,-x,1/2+z
-x,-y,-z
y,1/2-x,1/2-z
1/2+x,1/2+y,-z
1/2-y,x,1/2-z
loop_
_atom_site_type_symbol
_atom_site_label
_atom_site_fract_x
_atom_site_fract_y
_atom_site_fract_z
Si Si1 0.404185 0.354704 0.678903
Si Si2 0.277866 0.568513 0.200614
Si Si3 0.250000 0.250000 0.149719
Si Si4 0.250000 0.250000 0.998374
Si Si5 0.593550 0.443884 0.227368
Si Si6 0.002903 0.822174 0.927665
Si Si7 0.498308 0.679443 0.424456
O O1 0.250000 0.250000 0.680754
O O2 0.543396 0.244902 0.696389
O O3 0.383985 0.478365 0.720807
O O4 0.437028 0.390198 0.624664
O O5 0.250000 0.750000 0.185092
O O6 0.210164 0.412793 0.175948
O O7 0.460355 0.534409 0.200423
O O8 0.226609 0.551760 0.255298
O O9 0.101897 0.203274 0.118321
O O10 0.165851 0.373202 0.964648
O O11 0.124073 0.160232 0.030811
O O12 0.136347 0.952126 0.920864
O O13 0.091126 0.659894 0.936732
#
# Coordination Sequence:
#
# PCOD9545288 Si02
#       7
#     8   8   4   4   8   8   8
#     4  12  21  39  60  89 129 168 219 274 319 383
#     4  12  24  41  65  96 134 183 240 277 354 417
#     4  11  24  47  64  99 140 183 222 291 342 415
#     4  11  22  44  70  96 132 166 214 272 342 419
#     4  12  23  39  60  90 132 172 222 284 330 388
#     4  10  24  43  67  96 140 162 213 283 340 407
#     4  11  23  41  70  99 122 177 219 265 342 418
#
# _framework density 22.855492999999999
#
# number of rings (size 3 to 8) (size 9 to 14) (size 15 to 20)
#    0.000    0.667    4.167    4.000    0.000    2.667 
#    3.000    0.000    7.333    0.000    0.000    0.000 
#    0.000    0.000    0.000    0.000    0.000    0.000 
#
# Total GULP energy -268065.169127 kJ/mol
# GULP energy per Si atom -5584.691023 kJ/mol
# Density = 2.280347 g / cm^3
# Si number density = 22.855493 Si / 1000 Ang^3
#
#
#
# Elastic Constant Matrix: (Units=GPa)
#
#
# Indices 1 2 3 4 5 6 
#
# 1 66.6281 0.5626 17.9894 0.0000 0.0000 6.8599
# 2 0.5626 66.6281 17.9894 0.0000 0.0000 -6.8599
# 3 17.9894 17.9894 99.6703 0.0000 0.0000 0.0000
# 4 0.0000 0.0000 0.0000 23.2305 0.0000 0.0000
# 5 0.0000 0.0000 0.0000 0.0000 23.2305 0.0000
# 6 6.8599 -6.8599 0.0000 0.0000 0.0000 36.9204
#
#
#
# Elastic Compliance Matrix: (Units=1/GPa)
#
#
# Indices 1 2 3 4 5 6 
#
# 1 0.016110 0.000366 -0.002974 0.000000 0.000000 -0.002925
# 2 0.000366 0.016110 -0.002974 0.000000 0.000000 0.002925
# 3 -0.002974 -0.002974 0.011106 0.000000 0.000000 0.000000
# 4 0.000000 0.000000 0.000000 0.043047 0.000000 0.000000
# 5 0.000000 0.000000 0.000000 0.000000 0.043047 0.000000
# 6 -0.002925 0.002925 0.000000 0.000000 0.000000 0.028172
#
#
# Mechanical properties :
#
#
# Convention : Reuss Voigt Hill
#
# Bulk Modulus (GPa) = 31.09198 34.00104 32.54651
# Shear Modulus (GPa) = 27.85888 29.76860 28.81374
#
# Velocity S-wave (km/s) = 3.49508 3.61289 3.55447
# Velocity P-wave (km/s) = 5.46998 5.68443 5.57824
#
# Compressibility (1/GPa) = 0.03216263
#
# Stress axis : x y z
#
# Youngs Moduli (GPa) = 62.07465 62.07465 90.03753
#
# Poissons Ratio (x) = -0.02270 0.26774
# Poissons Ratio (y) = -0.02270 0.26774
# Poissons Ratio (z) = 0.18459 0.18459
#
# Static dielectric constant tensor:
#      x y z
#    x 1.953600 0.000000 0.000000 
#    y 0.000000 1.953600 0.000000 
#    z 0.000000 0.000000 1.817860 
# 
# From -- ./inp_files/5224.got.cif
#   From: 2010.05.17/outbox.cif.g08.bks.cpg/sg86_3_cif.got.tgz:5224.got - 2010.06.03 19:03:11.
