data_PCOD9545659
_publ_section_title
;
Structure prediction by ZEFSAII (Michael W. Deem and Ramdas Pophale) SiO2 
 PCOD9545659
Probable space group: I 4/M
;
_chemical_formula_sum "Si O2"
_cell_formula_units_Z 108
_cell_length_a 25.442099
_cell_length_b 25.442099
_cell_length_c 10.469581
_cell_angle_alpha 90.000000
_cell_angle_beta 90.000000
_cell_angle_gamma 90.000000
_cell_volume 6776.963985
_symmetry_space_group_name_H-M "I 4/M"
_symmetry_group_IT_number 87
_symmetry_cell_setting 'tetragonal'
loop_
_space_group_symop_operation_xyz
x,y,z
-y,x,z
-x,-y,z
y,-x,z
-x,-y,-z
y,-x,-z
x,y,-z
-y,x,-z
1/2+x,1/2+y,1/2+z
1/2-y,1/2+x,1/2+z
1/2-x,1/2-y,1/2+z
1/2+y,1/2-x,1/2+z
1/2-x,1/2-y,1/2-z
1/2+y,1/2-x,1/2-z
1/2+x,1/2+y,1/2-z
1/2-y,1/2+x,1/2-z
loop_
_atom_site_type_symbol
_atom_site_label
_atom_site_fract_x
_atom_site_fract_y
_atom_site_fract_z
Si Si1 0.286166 0.218022 0.849961
Si Si2 0.265180 0.392466 0.350452
Si Si3 0.450178 0.575647 0.000000
Si Si4 0.388982 0.523792 0.643428
Si Si5 0.125196 0.119865 0.716249
Si Si6 0.767400 0.008858 0.850097
Si Si7 0.238646 0.901877 0.354133
Si Si8 0.000000 0.000000 0.761483
O O1 0.250000 0.250000 0.750000
O O2 0.273936 0.156261 0.833908
O O3 0.347212 0.231473 0.828586
O O4 0.274320 0.231453 0.000000
O O5 0.282057 0.392354 0.500000
O O6 0.315252 0.382954 0.260803
O O7 0.243724 0.451148 0.326523
O O8 0.430617 0.513965 0.000000
O O9 0.424316 0.607472 0.883428
O O10 0.404676 0.510227 0.500000
O O11 0.384684 0.586247 0.662939
O O12 0.330749 0.502324 0.668402
O O13 0.435990 0.503189 0.728200
O O14 0.112003 0.176717 0.656861
O O15 0.750046 0.053464 0.751049
O O16 0.760078 0.023461 0.000000
O O17 0.249445 0.919037 0.500000
#
# Coordination Sequence:
#
# PCOD9545659 Si02
#       8
#    16  16   8  16  16  16  16   4
#     4  10  20  35  54  78 107 135 171 214 265 320
#     4  10  20  35  55  77  98 126 166 216 265 313
#     4  11  28  40  44  60  92 140 188 228 270 308
#     4  10  20  29  42  62  81 109 152 204 254 291
#     4  11  21  33  50  61  88 122 168 214 255 309
#     4   9  20  36  52  71  95 127 166 206 253 306
#     4  10  20  35  52  76 102 133 168 210 260 315
#     4  12  21  28  40  57  82 109 148 208 261 294
#
# _framework density 15.936339
#
# number of rings (size 3 to 8) (size 9 to 14) (size 15 to 20)
#    0.000    1.852    2.222    2.000    6.222    2.370 
#    0.000    0.000    0.000    0.000    0.000    0.000 
#    0.000    0.593    0.000    7.407    0.000    0.000 
#
# Total GULP energy -300699.363899 kJ/mol
# GULP energy per Si atom -5568.506739 kJ/mol
# Density = 1.590007 g / cm^3
# Si number density = 15.936339 Si / 1000 Ang^3
#
#
#
# Elastic Constant Matrix: (Units=GPa)
#
#
# Indices 1 2 3 4 5 6 
#
# 1 79.5372 45.7661 50.4334 0.0000 0.0000 -1.7773
# 2 45.7661 79.5372 50.4334 0.0000 0.0000 1.7773
# 3 50.4334 50.4334 94.1827 0.0000 0.0000 0.0000
# 4 0.0000 0.0000 0.0000 5.0046 0.0000 0.0000
# 5 0.0000 0.0000 0.0000 0.0000 5.0046 0.0000
# 6 -1.7773 1.7773 0.0000 0.0000 0.0000 24.5060
#
#
#
# Elastic Compliance Matrix: (Units=1/GPa)
#
#
# Indices 1 2 3 4 5 6 
#
# 1 0.021933 -0.007906 -0.007511 0.000000 0.000000 0.002164
# 2 -0.007906 0.021933 -0.007511 0.000000 0.000000 -0.002164
# 3 -0.007511 -0.007511 0.018662 0.000000 0.000000 0.000000
# 4 0.000000 0.000000 0.000000 0.199818 0.000000 0.000000
# 5 0.000000 0.000000 0.000000 0.000000 0.199818 0.000000
# 6 0.002164 -0.002164 0.000000 0.000000 0.000000 0.041120
#
#
# Mechanical properties :
#
#
# Convention : Reuss Voigt Hill
#
# Bulk Modulus (GPa) = 59.98431 60.72478 60.35454
# Shear Modulus (GPa) = 9.01391 14.01130 11.51260
#
# Velocity S-wave (km/s) = 2.38086 2.96835 2.69069
# Velocity P-wave (km/s) = 6.72901 7.06650 6.89982
#
# Compressibility (1/GPa) = 0.01667103
#
# Stress axis : x y z
#
# Youngs Moduli (GPa) = 45.59347 45.59347 53.58477
#
# Poissons Ratio (x) = 0.36046 0.40249
# Poissons Ratio (y) = 0.36046 0.40249
# Poissons Ratio (z) = 0.34247 0.34247
#
# Static dielectric constant tensor:
#      x y z
#    x 1.528050 0.000000 0.000000 
#    y 0.000000 1.528050 0.000000 
#    z 0.000000 0.000000 1.599300 
# 
# From -- ./inp_files/2951.got.cif
#   From: 2010.05.17/outbox.cif.g08.bks.cpg/sg87_2_cif.got.tgz:2951.got - 2010.06.03 19:07:00.
