data_PCOD9545729
_publ_section_title
;
Structure prediction by ZEFSAII (Michael W. Deem and Ramdas Pophale) SiO2 
 PCOD9545729
Probable space group: I 4/M
;
_chemical_formula_sum "Si O2"
_cell_formula_units_Z 80
_cell_length_a 18.651295
_cell_length_b 18.651295
_cell_length_c 12.740089
_cell_angle_alpha 90.000000
_cell_angle_beta 90.000000
_cell_angle_gamma 90.000000
_cell_volume 4431.905018
_symmetry_space_group_name_H-M "I 4/M"
_symmetry_group_IT_number 87
_symmetry_cell_setting 'tetragonal'
loop_
_space_group_symop_operation_xyz
x,y,z
-y,x,z
-x,-y,z
y,-x,z
-x,-y,-z
y,-x,-z
x,y,-z
-y,x,-z
1/2+x,1/2+y,1/2+z
1/2-y,1/2+x,1/2+z
1/2-x,1/2-y,1/2+z
1/2+y,1/2-x,1/2+z
1/2-x,1/2-y,1/2-z
1/2+y,1/2-x,1/2-z
1/2+x,1/2+y,1/2-z
1/2-y,1/2+x,1/2-z
loop_
_atom_site_type_symbol
_atom_site_label
_atom_site_fract_x
_atom_site_fract_y
_atom_site_fract_z
Si Si1 0.800722 0.901044 0.000000
Si Si2 0.741010 0.638545 0.728325
Si Si3 0.818832 0.504258 0.203116
Si Si4 0.130329 0.253586 0.771067
Si Si5 0.791379 0.073674 0.000000
Si Si6 0.045246 0.427077 0.885666
O O1 0.761219 0.870678 0.897237
O O2 0.880358 0.865707 0.000000
O O3 0.800956 0.987646 0.000000
O O4 0.756651 0.559997 0.770594
O O5 0.805872 0.688512 0.767566
O O6 0.667398 0.678235 0.757029
O O7 0.780432 0.428402 0.187528
O O8 0.873308 0.545487 0.126779
O O9 0.872666 0.483829 0.299167
O O10 0.097900 0.246384 0.889670
O O11 0.000000 0.500000 0.878334
O O12 0.034096 0.394444 0.000000
#
# Coordination Sequence:
#
# PCOD9545729 Si02
#       6
#     8  16  16  16   8  16
#     4  10  20  35  56  83 105 145 178 226 278 332
#     4  10  21  35  53  77 108 145 185 220 268 327
#     4  12  19  36  55  76 108 144 183 218 278 327
#     4  10  21  35  53  78 107 144 183 225 267 328
#     4  10  20  35  58  79 109 141 180 224 284 324
#     4  11  22  34  51  80 110 137 175 222 275 336
#
# _framework density 18.050927999999999
#
# number of rings (size 3 to 8) (size 9 to 14) (size 15 to 20)
#    0.000    1.400    6.000    0.000    2.800    0.200 
#    1.800    0.000    0.000    0.600    0.000    0.000 
#    0.000    0.000    0.000    1.800    0.000   11.600 
#
# Total GULP energy -222826.965333 kJ/mol
# GULP energy per Si atom -5570.674133 kJ/mol
# Density = 1.800984 g / cm^3
# Si number density = 18.050928 Si / 1000 Ang^3
#
#
#
# Elastic Constant Matrix: (Units=GPa)
#
#
# Indices 1 2 3 4 5 6 
#
# 1 76.2854 25.7816 14.0842 0.0000 0.0000 8.0141
# 2 25.7816 76.2854 14.0842 0.0000 0.0000 -8.0141
# 3 14.0842 14.0842 44.3647 0.0000 0.0000 0.0000
# 4 0.0000 0.0000 0.0000 7.9889 0.0000 0.0000
# 5 0.0000 0.0000 0.0000 0.0000 7.9889 0.0000
# 6 8.0141 -8.0141 0.0000 0.0000 0.0000 40.2244
#
#
#
# Elastic Compliance Matrix: (Units=1/GPa)
#
#
# Indices 1 2 3 4 5 6 
#
# 1 0.015938 -0.005199 -0.003409 0.000000 0.000000 -0.004211
# 2 -0.005199 0.015938 -0.003409 0.000000 0.000000 0.004211
# 3 -0.003409 -0.003409 0.024705 0.000000 0.000000 0.000000
# 4 0.000000 0.000000 0.000000 0.125174 0.000000 0.000000
# 5 0.000000 0.000000 0.000000 0.000000 0.125174 0.000000
# 6 -0.004211 0.004211 0.000000 0.000000 0.000000 0.026539
#
#
# Mechanical properties :
#
#
# Convention : Reuss Voigt Hill
#
# Bulk Modulus (GPa) = 30.72628 33.87062 32.29845
# Shear Modulus (GPa) = 13.57402 20.77279 17.17341
#
# Velocity S-wave (km/s) = 2.74521 3.39601 3.08780
# Velocity P-wave (km/s) = 5.20646 5.84652 5.53575
#
# Compressibility (1/GPa) = 0.03254543
#
# Stress axis : x y z
#
# Youngs Moduli (GPa) = 62.74452 62.74452 40.47771
#
# Poissons Ratio (x) = 0.32623 0.13799
# Poissons Ratio (y) = 0.32623 0.13799
# Poissons Ratio (z) = 0.21390 0.21390
#
# Static dielectric constant tensor:
#      x y z
#    x 1.648620 0.000000 0.000000 
#    y 0.000000 1.648620 0.000000 
#    z 0.000000 0.000000 1.650830 
# 
# From -- ./inp_files/3571.got.cif
#   From: 2010.05.17/outbox.cif.g08.bks.cpg/sg87_2_cif.got.tgz:3571.got - 2010.06.03 19:07:00.
