data_PCOD9545197
_publ_section_title
;
Structure prediction by ZEFSAII (Michael W. Deem and Ramdas Pophale) SiO2 
 PCOD9545197
Probable space group: P 42/N
;
_chemical_formula_sum "Si O2"
_cell_formula_units_Z 56
_cell_length_a 14.203449
_cell_length_b 14.203449
_cell_length_c 12.339920
_cell_angle_alpha 90.000000
_cell_angle_beta 90.000000
_cell_angle_gamma 90.000000
_cell_volume 2489.430330
_symmetry_space_group_name_H-M "P 42/N"
_symmetry_group_IT_number 86
_space_group.IT_coordinate_system_code '2'
_symmetry_cell_setting 'tetragonal'
loop_
_space_group_symop_operation_xyz
x,y,z
-y,1/2+x,1/2+z
1/2-x,1/2-y,z
1/2+y,-x,1/2+z
-x,-y,-z
y,1/2-x,1/2-z
1/2+x,1/2+y,-z
1/2-y,x,1/2-z
loop_
_atom_site_type_symbol
_atom_site_label
_atom_site_fract_x
_atom_site_fract_y
_atom_site_fract_z
Si Si1 0.351853 0.442956 0.954958
Si Si2 0.971378 0.273322 0.194041
Si Si3 0.319849 0.914260 0.739388
Si Si4 0.959455 0.906051 0.677010
Si Si5 0.455562 0.634019 0.993030
Si Si6 0.357282 0.052694 0.943169
Si Si7 0.519078 0.865222 0.222128
O O1 0.380302 0.553698 0.959996
O O2 0.245961 0.420273 0.987654
O O3 0.350577 0.416819 0.827547
O O4 0.435800 0.397728 0.022976
O O5 0.874363 0.316866 0.241080
O O6 0.944710 0.226140 0.079396
O O7 0.047663 0.357020 0.184682
O O8 0.018812 0.193716 0.268745
O O9 0.355144 0.946759 0.621625
O O10 0.208383 0.933208 0.725589
O O11 0.343179 0.977431 0.846071
O O12 0.986837 0.905277 0.550354
O O13 0.031863 0.975875 0.734152
O O14 0.417982 0.134818 0.886228
#
# Coordination Sequence:
#
# PCOD9545197 Si02
#       7
#     8   8   8   8   8   8   8
#     4  10  22  42  71 103 141 196 244 296 376 446
#     4  12  27  46  74 107 144 203 253 305 385 452
#     4  11  25  43  74 107 139 192 250 303 377 454
#     4  12  26  46  70 101 149 192 244 312 376 449
#     4  11  22  45  74 101 151 195 242 307 375 445
#     4  11  23  42  74 102 142 186 247 304 371 449
#     4  11  22  46  69 103 144 191 241 311 378 441
#
# _framework density 22.495106
#
# number of rings (size 3 to 8) (size 9 to 14) (size 15 to 20)
#    0.000    0.857    4.286    2.143    6.000    0.857 
#    0.000    2.143    0.000    0.000    0.000    0.000 
#    0.000    0.000    0.000    0.000    0.000    0.000 
#
# Total GULP energy -312594.121442 kJ/mol
# GULP energy per Si atom -5582.037883 kJ/mol
# Density = 2.244391 g / cm^3
# Si number density = 22.495106 Si / 1000 Ang^3
#
#
#
# Elastic Constant Matrix: (Units=GPa)
#
#
# Indices 1 2 3 4 5 6 
#
# 1 87.3047 52.1990 11.9140 0.0000 0.0000 -1.1207
# 2 52.1990 87.3047 11.9140 0.0000 0.0000 1.1207
# 3 11.9140 11.9140 102.0859 0.0000 0.0000 0.0000
# 4 0.0000 0.0000 0.0000 29.9853 0.0000 0.0000
# 5 0.0000 0.0000 0.0000 0.0000 29.9853 0.0000
# 6 -1.1207 1.1207 0.0000 0.0000 0.0000 10.7858
#
#
#
# Elastic Compliance Matrix: (Units=1/GPa)
#
#
# Indices 1 2 3 4 5 6 
#
# 1 0.017995 -0.010681 -0.000854 0.000000 0.000000 0.002980
# 2 -0.010681 0.017995 -0.000854 0.000000 0.000000 -0.002980
# 3 -0.000854 -0.000854 0.009995 0.000000 0.000000 0.000000
# 4 0.000000 0.000000 0.000000 0.033350 0.000000 0.000000
# 5 0.000000 0.000000 0.000000 0.000000 0.033350 0.000000
# 6 0.002980 -0.002980 0.000000 0.000000 0.000000 0.093334
#
#
# Mechanical properties :
#
#
# Convention : Reuss Voigt Hill
#
# Bulk Modulus (GPa) = 47.15052 47.63881 47.39467
# Shear Modulus (GPa) = 21.02048 27.52917 24.27483
#
# Velocity S-wave (km/s) = 3.06019 3.50206 3.28855
# Velocity P-wave (km/s) = 5.78724 6.12992 5.96105
#
# Compressibility (1/GPa) = 0.02120867
#
# Stress axis : x y z
#
# Youngs Moduli (GPa) = 55.57135 55.57135 100.05097
#
# Poissons Ratio (x) = 0.59355 0.08540
# Poissons Ratio (y) = 0.59355 0.08540
# Poissons Ratio (z) = 0.04744 0.04744
#
# Static dielectric constant tensor:
#      x y z
#    x 1.873240 0.000000 0.000000 
#    y 0.000000 1.873240 0.000000 
#    z 0.000000 0.000000 1.845250 
# 
# From -- ./inp_files/2375.got.cif
#   From: 2010.05.17/outbox.cif.g08.bks.cpg/sg86_2_cif.got.tgz:2375.got - 2010.06.03 19:03:11.
