data_PCOD9545375
_publ_section_title
;
Structure prediction by ZEFSAII (Michael W. Deem and Ramdas Pophale) SiO2 
 PCOD9545375
Probable space group: P 42/N
;
_chemical_formula_sum "Si O2"
_cell_formula_units_Z 56
_cell_length_a 14.943307
_cell_length_b 14.943307
_cell_length_c 11.437892
_cell_angle_alpha 90.000000
_cell_angle_beta 90.000000
_cell_angle_gamma 90.000000
_cell_volume 2554.109010
_symmetry_space_group_name_H-M "P 42/N"
_symmetry_group_IT_number 86
_space_group.IT_coordinate_system_code '2'
_symmetry_cell_setting 'tetragonal'
loop_
_space_group_symop_operation_xyz
x,y,z
-y,1/2+x,1/2+z
1/2-x,1/2-y,z
1/2+y,-x,1/2+z
-x,-y,-z
y,1/2-x,1/2-z
1/2+x,1/2+y,-z
1/2-y,x,1/2-z
loop_
_atom_site_type_symbol
_atom_site_label
_atom_site_fract_x
_atom_site_fract_y
_atom_site_fract_z
Si Si1 0.907645 0.884321 0.700118
Si Si2 0.618929 0.961995 0.387140
Si Si3 0.811528 0.435949 0.953772
Si Si4 0.650452 0.271739 0.235063
Si Si5 0.414694 0.925177 0.813493
Si Si6 0.932408 0.382519 0.568112
Si Si7 0.728953 0.855766 0.572128
O O1 0.821785 0.896113 0.617281
O O2 0.874520 0.841469 0.822054
O O3 0.979228 0.823609 0.631959
O O4 0.947849 0.982694 0.714035
O O5 0.528914 0.903703 0.378226
O O6 0.691530 0.903645 0.456850
O O7 0.644219 0.006213 0.263648
O O8 0.590365 0.046596 0.467027
O O9 0.808288 0.351448 0.867116
O O10 0.887909 0.433099 0.051414
O O11 0.716936 0.437722 0.017807
O O12 0.750000 0.250000 0.194297
O O13 0.600329 0.177194 0.226131
O O14 0.610257 0.350023 0.156846
O O15 0.750000 0.750000 0.559224
#
# Coordination Sequence:
#
# PCOD9545375 Si02
#       7
#     8   8   8   8   8   8   8
#     4  12  23  44  73 107 145 183 250 305 357 436
#     4  11  24  44  71 103 142 188 239 296 367 432
#     4  12  26  45  70 105 143 187 240 300 365 440
#     4  12  26  44  70 102 145 187 241 299 362 445
#     4  12  26  45  70 105 145 193 236 298 376 431
#     4  11  23  44  71 101 141 189 235 293 363 434
#     4  12  24  43  78 111 139 189 248 305 355 424
#
# _framework density 21.925452
#
# number of rings (size 3 to 8) (size 9 to 14) (size 15 to 20)
#    0.000    0.286    4.286    6.429    2.000    1.143 
#    2.571    0.000    0.000    0.857    0.000    0.000 
#    0.000    0.000    0.000    0.000    0.000    0.000 
#
# Total GULP energy -313447.784712 kJ/mol
# GULP energy per Si atom -5597.281870 kJ/mol
# Density = 2.187555 g / cm^3
# Si number density = 21.925452 Si / 1000 Ang^3
#
#
#
# Elastic Constant Matrix: (Units=GPa)
#
#
# Indices 1 2 3 4 5 6 
#
# 1 81.7339 4.1646 25.1649 0.0000 0.0000 -3.2958
# 2 4.1646 81.7339 25.1649 0.0000 0.0000 3.2958
# 3 25.1649 25.1649 88.0717 0.0000 0.0000 0.0000
# 4 0.0000 0.0000 0.0000 30.3009 0.0000 0.0000
# 5 0.0000 0.0000 0.0000 0.0000 30.3009 0.0000
# 6 -3.2958 3.2958 0.0000 0.0000 0.0000 29.6635
#
#
#
# Elastic Compliance Matrix: (Units=1/GPa)
#
#
# Indices 1 2 3 4 5 6 
#
# 1 0.013499 0.000484 -0.003995 0.000000 0.000000 0.001446
# 2 0.000484 0.013499 -0.003995 0.000000 0.000000 -0.001446
# 3 -0.003995 -0.003995 0.013638 0.000000 0.000000 0.000000
# 4 0.000000 0.000000 0.000000 0.033002 0.000000 0.000000
# 5 0.000000 0.000000 0.000000 0.000000 0.033002 0.000000
# 6 0.001446 -0.001446 0.000000 0.000000 0.000000 0.034033
#
#
# Mechanical properties :
#
#
# Convention : Reuss Voigt Hill
#
# Bulk Modulus (GPa) = 39.02956 40.05868 39.54412
# Shear Modulus (GPa) = 30.44591 31.18941 30.81766
#
# Velocity S-wave (km/s) = 3.73045 3.77572 3.75315
# Velocity P-wave (km/s) = 6.03280 6.10886 6.07095
#
# Compressibility (1/GPa) = 0.02562161
#
# Stress axis : x y z
#
# Youngs Moduli (GPa) = 74.08196 74.08196 73.32700
#
# Poissons Ratio (x) = -0.03586 0.29296
# Poissons Ratio (y) = -0.03586 0.29296
# Poissons Ratio (z) = 0.29598 0.29598
#
# Static dielectric constant tensor:
#      x y z
#    x 1.804200 0.000000 0.000000 
#    y 0.000000 1.804200 0.000000 
#    z 0.000000 0.000000 1.810980 
# 
# From -- ./inp_files/2389.got.cif
#   From: 2010.05.17/outbox.cif.g08.bks.cpg/sg86_2_cif.got.tgz:2389.got - 2010.06.03 19:03:11.
