data_PCOD9545455
_publ_section_title
;
Structure prediction by ZEFSAII (Michael W. Deem and Ramdas Pophale) SiO2 
 PCOD9545455
Probable space group: P 42/N
;
_chemical_formula_sum "Si O2"
_cell_formula_units_Z 50
_cell_length_a 8.945716
_cell_length_b 8.945716
_cell_length_c 28.524788
_cell_angle_alpha 90.000000
_cell_angle_beta 90.000000
_cell_angle_gamma 90.000000
_cell_volume 2282.719971
_symmetry_space_group_name_H-M "P 42/N"
_symmetry_group_IT_number 86
_space_group.IT_coordinate_system_code '2'
_symmetry_cell_setting 'tetragonal'
loop_
_space_group_symop_operation_xyz
x,y,z
-y,1/2+x,1/2+z
1/2-x,1/2-y,z
1/2+y,-x,1/2+z
-x,-y,-z
y,1/2-x,1/2-z
1/2+x,1/2+y,-z
1/2-y,x,1/2-z
loop_
_atom_site_type_symbol
_atom_site_label
_atom_site_fract_x
_atom_site_fract_y
_atom_site_fract_z
Si Si1 0.420995 0.529822 0.120088
Si Si2 0.250000 0.750000 0.547812
Si Si3 0.919640 0.238020 0.618968
Si Si4 0.022842 0.027260 0.701993
Si Si5 0.750000 0.750000 0.911779
Si Si6 0.196023 0.905213 0.215911
Si Si7 0.857028 0.037008 0.529743
Si Si8 0.750000 0.750000 0.250000
O O1 0.323253 0.627457 0.083212
O O2 0.597991 0.494300 0.111930
O O3 0.332205 0.373304 0.119599
O O4 0.411592 0.603786 0.171139
O O5 0.242670 0.885803 0.509970
O O6 0.750000 0.250000 0.637272
O O7 0.994787 0.124777 0.655548
O O8 0.901839 0.155510 0.569446
O O9 0.891707 0.022520 0.741281
O O10 0.164800 0.113806 0.724147
O O11 0.039954 0.851691 0.693358
O O12 0.613748 0.803190 0.945039
O O13 0.250000 0.750000 0.237004
O O14 0.000000 0.000000 0.500000
#
# Coordination Sequence:
#
# PCOD9545455 Si02
#       8
#     8   4   8   8   4   8   8   2
#     4  12  27  46  76 108 150 193 248 306 374 444
#     4  12  26  48  72 108 152 194 244 312 370 446
#     4  12  27  49  74 107 147 201 247 308 371 448
#     4  12  28  47  77 105 150 187 249 300 377 445
#     4  12  24  46  73 107 150 192 256 312 364 446
#     4  12  27  49  74 111 145 192 241 310 370 451
#     4  12  26  46  73 109 147 196 250 305 377 437
#     4  12  24  48  74 112 140 200 238 304 376 452
#
# _framework density 21.903693000000001
#
# number of rings (size 3 to 8) (size 9 to 14) (size 15 to 20)
#    0.000    0.000    6.400    2.400    4.480    1.600 
#    0.000    0.000    0.000    0.000    0.000    0.000 
#    0.000    0.000    0.000    0.000    0.000    0.000 
#
# Total GULP energy -278706.407563 kJ/mol
# GULP energy per Si atom -5574.128151 kJ/mol
# Density = 2.185384 g / cm^3
# Si number density = 21.903693 Si / 1000 Ang^3
#
#
#
# Elastic Constant Matrix: (Units=GPa)
#
#
# Indices 1 2 3 4 5 6 
#
# 1 110.7713 31.5082 30.7231 0.0000 0.0000 -6.0036
# 2 31.5082 110.7713 30.7231 0.0000 0.0000 6.0036
# 3 30.7231 30.7231 96.4911 0.0000 0.0000 0.0000
# 4 0.0000 0.0000 0.0000 40.6798 0.0000 0.0000
# 5 0.0000 0.0000 0.0000 0.0000 40.6798 0.0000
# 6 -6.0036 6.0036 0.0000 0.0000 0.0000 31.8910
#
#
#
# Elastic Compliance Matrix: (Units=1/GPa)
#
#
# Indices 1 2 3 4 5 6 
#
# 1 0.010568 -0.002419 -0.002595 0.000000 0.000000 0.002445
# 2 -0.002419 0.010568 -0.002595 0.000000 0.000000 -0.002445
# 3 -0.002595 -0.002595 0.012016 0.000000 0.000000 0.000000
# 4 0.000000 0.000000 0.000000 0.024582 0.000000 0.000000
# 5 0.000000 0.000000 0.000000 0.000000 0.024582 0.000000
# 6 0.002445 -0.002445 0.000000 0.000000 0.000000 0.032277
#
#
# Mechanical properties :
#
#
# Convention : Reuss Voigt Hill
#
# Bulk Modulus (GPa) = 55.75609 55.99358 55.87483
# Shear Modulus (GPa) = 36.82214 37.65541 37.23878
#
# Velocity S-wave (km/s) = 4.10456 4.15074 4.12772
# Velocity P-wave (km/s) = 6.92630 6.97070 6.94853
#
# Compressibility (1/GPa) = 0.01793526
#
# Stress axis : x y z
#
# Youngs Moduli (GPa) = 94.62739 94.62739 83.22277
#
# Poissons Ratio (x) = 0.22888 0.21593
# Poissons Ratio (y) = 0.22888 0.21593
# Poissons Ratio (z) = 0.24553 0.24553
#
# Static dielectric constant tensor:
#      x y z
#    x 1.884130 0.000000 0.000000 
#    y 0.000000 1.884130 0.000000 
#    z 0.000000 0.000000 1.712940 
# 
# From -- ./inp_files/5274.got.cif
#   From: 2010.05.17/outbox.cif.g08.bks.cpg/sg86_3_cif.got.tgz:5274.got - 2010.06.03 19:03:11.
