data_PCOD9545494
_publ_section_title
;
Structure prediction by ZEFSAII (Michael W. Deem and Ramdas Pophale) SiO2 
 PCOD9545494
Probable space group: I 4/M
;
_chemical_formula_sum "Si O2"
_cell_formula_units_Z 116
_cell_length_a 17.100370
_cell_length_b 17.100370
_cell_length_c 17.767890
_cell_angle_alpha 90.000000
_cell_angle_beta 90.000000
_cell_angle_gamma 90.000000
_cell_volume 5195.733552
_symmetry_space_group_name_H-M "I 4/M"
_symmetry_group_IT_number 87
_symmetry_cell_setting 'tetragonal'
loop_
_space_group_symop_operation_xyz
x,y,z
-y,x,z
-x,-y,z
y,-x,z
-x,-y,-z
y,-x,-z
x,y,-z
-y,x,-z
1/2+x,1/2+y,1/2+z
1/2-y,1/2+x,1/2+z
1/2-x,1/2-y,1/2+z
1/2+y,1/2-x,1/2+z
1/2-x,1/2-y,1/2-z
1/2+y,1/2-x,1/2-z
1/2+x,1/2+y,1/2-z
1/2-y,1/2+x,1/2-z
loop_
_atom_site_type_symbol
_atom_site_label
_atom_site_fract_x
_atom_site_fract_y
_atom_site_fract_z
Si Si1 0.225718 0.143731 0.795512
Si Si2 0.789888 0.877820 0.384552
Si Si3 0.452496 0.324618 0.863427
Si Si4 0.862890 0.710878 0.130144
Si Si5 0.000000 0.000000 0.323244
Si Si6 0.073457 0.557069 0.082219
Si Si7 0.824420 0.407402 0.216954
Si Si8 0.472502 0.759666 0.580366
O O1 0.211377 0.126458 0.707699
O O2 0.176329 0.216088 0.826694
O O3 0.316095 0.169697 0.803817
O O4 0.217703 0.068939 0.849621
O O5 0.869576 0.832507 0.406914
O O6 0.708104 0.837412 0.406645
O O7 0.798824 0.968649 0.406394
O O8 0.468909 0.409419 0.829823
O O9 0.439291 0.261421 0.798611
O O10 0.906189 0.658466 0.194651
O O11 0.934047 0.743421 0.082542
O O12 0.122938 0.546029 0.157893
O O13 0.047990 0.647916 0.083036
O O14 0.000000 0.500000 0.083966
O O15 0.113426 0.544303 0.000000
O O16 0.442538 0.729106 0.500000
#
# Coordination Sequence:
#
# PCOD9545494 Si02
#       8
#    16  16  16  16   4  16  16  16
#     4  10  19  35  55  79 112 155 198 249 308 367
#     4  10  19  31  55  85 119 152 193 250 312 370
#     4  10  17  31  50  82 119 153 187 240 305 365
#     4  11  20  36  58  88 117 151 206 264 314 367
#     4   8  20  28  44  80 121 148 185 228 296 366
#     4   9  20  39  57  80 121 163 195 238 303 384
#     4  10  18  33  57  85 115 151 201 258 304 362
#     4  10  23  39  55  81 118 159 202 251 311 373
#
# _framework density 22.326008000000002
#
# number of rings (size 3 to 8) (size 9 to 14) (size 15 to 20)
#    0.000    2.069    2.759    1.655    1.931    0.552 
#    0.000    0.000    0.000    0.414    0.000    4.345 
#    0.000    0.000    0.000    0.000    0.000    0.000 
#
# Total GULP energy -323175.158204 kJ/mol
# GULP energy per Si atom -5571.985486 kJ/mol
# Density = 2.227519 g / cm^3
# Si number density = 22.326008 Si / 1000 Ang^3
#
#
#
# Elastic Constant Matrix: (Units=GPa)
#
#
# Indices 1 2 3 4 5 6 
#
# 1 82.7199 16.8922 24.2803 0.0000 0.0000 -2.1781
# 2 16.8922 82.7199 24.2803 0.0000 0.0000 2.1781
# 3 24.2803 24.2803 96.1170 0.0000 0.0000 0.0000
# 4 0.0000 0.0000 0.0000 -1.5710 0.0000 0.0000
# 5 0.0000 0.0000 0.0000 0.0000 -1.5710 0.0000
# 6 -2.1781 2.1781 0.0000 0.0000 0.0000 36.1872
#
#
#
# Elastic Compliance Matrix: (Units=1/GPa)
#
#
# Indices 1 2 3 4 5 6 
#
# 1 0.013350 -0.001902 -0.002892 0.000000 0.000000 0.000918
# 2 -0.001902 0.013350 -0.002892 0.000000 0.000000 -0.000918
# 3 -0.002892 -0.002892 0.011865 0.000000 0.000000 0.000000
# 4 0.000000 0.000000 0.000000 -0.636533 0.000000 0.000000
# 5 0.000000 0.000000 0.000000 0.000000 -0.636533 0.000000
# 6 0.000918 -0.000918 0.000000 0.000000 0.000000 0.027745
#
#
# Mechanical properties :
#
#
# Convention : Reuss Voigt Hill
#
# Bulk Modulus (GPa) = 43.11389 43.60691 43.36040
# Shear Modulus (GPa) = -4.22421 19.68262 7.72920
#
# Velocity S-wave (km/s) = -1.37701 2.97240 1.86266
# Velocity P-wave (km/s) = 4.10180 5.59951 4.90812
#
# Compressibility (1/GPa) = 0.02319438
#
# Stress axis : x y z
#
# Youngs Moduli (GPa) = 74.90421 74.90421 84.28044
#
# Poissons Ratio (x) = 0.14243 0.24375
# Poissons Ratio (y) = 0.14243 0.24375
# Poissons Ratio (z) = 0.21663 0.21663
#
# Static dielectric constant tensor:
#      x y z
#    x 1.833510 0.000000 0.000000 
#    y 0.000000 1.833510 0.000000 
#    z 0.000000 0.000000 1.881140 
# 
# From -- ./inp_files/4611.got.cif
#   From: 2010.05.17/outbox.cif.g08.bks.cpg/sg87_3_cif.got.tgz:4611.got - 2010.06.03 19:07:00.
