data_PCOD9545722
_publ_section_title
;
Structure prediction by ZEFSAII (Michael W. Deem and Ramdas Pophale) SiO2 
 PCOD9545722
Probable space group: I 4/M
;
_chemical_formula_sum "Si O2"
_cell_formula_units_Z 96
_cell_length_a 24.460945
_cell_length_b 24.460945
_cell_length_c 8.289894
_cell_angle_alpha 90.000000
_cell_angle_beta 90.000000
_cell_angle_gamma 90.000000
_cell_volume 4960.157189
_symmetry_space_group_name_H-M "I 4/M"
_symmetry_group_IT_number 87
_symmetry_cell_setting 'tetragonal'
loop_
_space_group_symop_operation_xyz
x,y,z
-y,x,z
-x,-y,z
y,-x,z
-x,-y,-z
y,-x,-z
x,y,-z
-y,x,-z
1/2+x,1/2+y,1/2+z
1/2-y,1/2+x,1/2+z
1/2-x,1/2-y,1/2+z
1/2+y,1/2-x,1/2+z
1/2-x,1/2-y,1/2-z
1/2+y,1/2-x,1/2-z
1/2+x,1/2+y,1/2-z
1/2-y,1/2+x,1/2-z
loop_
_atom_site_type_symbol
_atom_site_label
_atom_site_fract_x
_atom_site_fract_y
_atom_site_fract_z
Si Si1 0.226950 0.836546 0.307712
Si Si2 0.553378 0.346867 0.694415
Si Si3 0.428775 0.354824 0.305694
Si Si4 0.135430 0.755166 0.308389
Si Si5 0.570948 0.046667 0.813137
Si Si6 0.639631 0.848719 0.809434
O O1 0.231968 0.828682 0.500000
O O2 0.189485 0.888947 0.272572
O O3 0.191592 0.784515 0.246334
O O4 0.287287 0.849542 0.243010
O O5 0.554765 0.339385 0.500000
O O6 0.490950 0.349096 0.747391
O O7 0.586257 0.402452 0.730309
O O8 0.587607 0.298198 0.773493
O O9 0.426669 0.347648 0.500000
O O10 0.140291 0.746338 0.500000
O O11 0.123472 0.698062 0.223190
O O12 0.510660 0.072079 0.782390
O O13 0.617315 0.090125 0.766218
O O14 0.576137 0.032494 0.000000
O O15 0.629111 0.845273 0.000000
#
# Coordination Sequence:
#
# PCOD9545722 Si02
#       6
#    16  16  16  16  16  16
#     4   9  20  36  54  77 109 143 178 221 272 323
#     4   9  18  33  51  75 105 141 181 224 270 319
#     4   9  18  32  52  75 104 140 180 223 269 317
#     4  10  20  35  54  79 109 143 179 223 275 325
#     4  11  23  42  64  86 113 145 179 221 270 322
#     4  11  22  37  58  84 110 142 182 223 265 321
#
# _framework density 19.354226000000001
#
# number of rings (size 3 to 8) (size 9 to 14) (size 15 to 20)
#    0.000    2.167    0.000    3.500    0.000    4.333 
#    0.000    5.000    0.000    0.000    0.000    4.667 
#    0.000    0.000    0.000    0.000    0.000    0.000 
#
# Total GULP energy -267905.087283 kJ/mol
# GULP energy per Si atom -5581.355985 kJ/mol
# Density = 1.931017 g / cm^3
# Si number density = 19.354226 Si / 1000 Ang^3
#
#
#
# Elastic Constant Matrix: (Units=GPa)
#
#
# Indices 1 2 3 4 5 6 
#
# 1 39.3280 8.2642 -7.8231 0.0000 0.0000 -0.4005
# 2 8.2642 39.3280 -7.8231 0.0000 0.0000 0.4005
# 3 -7.8231 -7.8231 14.3130 0.0000 0.0000 0.0000
# 4 0.0000 0.0000 0.0000 22.4557 0.0000 0.0000
# 5 0.0000 0.0000 0.0000 0.0000 22.4557 0.0000
# 6 -0.4005 0.4005 0.0000 0.0000 0.0000 21.1248
#
#
#
# Elastic Compliance Matrix: (Units=1/GPa)
#
#
# Indices 1 2 3 4 5 6 
#
# 1 0.028911 -0.003297 0.014000 0.000000 0.000000 0.000611
# 2 -0.003297 0.028911 0.014000 0.000000 0.000000 -0.000611
# 3 0.014000 0.014000 0.085170 0.000000 0.000000 0.000000
# 4 0.000000 0.000000 0.000000 0.044532 0.000000 0.000000
# 5 0.000000 0.000000 0.000000 0.000000 0.044532 0.000000
# 6 0.000611 -0.000611 0.000000 0.000000 0.000000 0.047361
#
#
# Mechanical properties :
#
#
# Convention : Reuss Voigt Hill
#
# Bulk Modulus (GPa) = 5.19752 8.68948 6.94350
# Shear Modulus (GPa) = 16.99850 19.89732 18.44791
#
# Velocity S-wave (km/s) = 2.96680 3.20982 3.09070
# Velocity P-wave (km/s) = 3.79831 4.27044 4.04128
#
# Compressibility (1/GPa) = 0.19239943
#
# Stress axis : x y z
#
# Youngs Moduli (GPa) = 34.58896 34.58896 11.74116
#
# Poissons Ratio (x) = 0.11403 -0.16438
# Poissons Ratio (y) = 0.11403 -0.16438
# Poissons Ratio (z) = -0.48425 -0.48425
#
# Static dielectric constant tensor:
#      x y z
#    x 1.667900 0.000000 0.000000 
#    y 0.000000 1.667900 0.000000 
#    z 0.000000 0.000000 1.680200 
# 
# From -- ./inp_files/1355.got.cif
#   From: 2010.05.17/outbox.cif.g08.bks.cpg/sg87_1_cif.got.tgz:1355.got - 2010.06.03 19:07:00.
