data_PCOD9545780
_publ_section_title
;
Structure prediction by ZEFSAII (Michael W. Deem and Ramdas Pophale) SiO2 
 PCOD9545780
Probable space group: I 4/M
;
_chemical_formula_sum "Si O2"
_cell_formula_units_Z 128
_cell_length_a 22.992176
_cell_length_b 22.992176
_cell_length_c 11.287465
_cell_angle_alpha 90.000000
_cell_angle_beta 90.000000
_cell_angle_gamma 90.000000
_cell_volume 5967.007272
_symmetry_space_group_name_H-M "I 4/M"
_symmetry_group_IT_number 87
_symmetry_cell_setting 'tetragonal'
loop_
_space_group_symop_operation_xyz
x,y,z
-y,x,z
-x,-y,z
y,-x,z
-x,-y,-z
y,-x,-z
x,y,-z
-y,x,-z
1/2+x,1/2+y,1/2+z
1/2-y,1/2+x,1/2+z
1/2-x,1/2-y,1/2+z
1/2+y,1/2-x,1/2+z
1/2-x,1/2-y,1/2-z
1/2+y,1/2-x,1/2-z
1/2+x,1/2+y,1/2-z
1/2-y,1/2+x,1/2-z
loop_
_atom_site_type_symbol
_atom_site_label
_atom_site_fract_x
_atom_site_fract_y
_atom_site_fract_z
Si Si1 0.999085 0.767354 0.628171
Si Si2 0.880882 0.543733 0.624108
Si Si3 0.622243 0.679700 0.199076
Si Si4 0.541144 0.855390 0.805489
Si Si5 0.711124 0.128780 0.865201
Si Si6 0.243469 0.071659 0.863198
Si Si7 0.067705 0.068999 0.640209
Si Si8 0.683869 0.253310 0.207868
O O1 0.025885 0.784612 0.500000
O O2 0.032884 0.780601 0.751835
O O3 0.934463 0.794746 0.633854
O O4 0.989878 0.697709 0.628687
O O5 0.893507 0.512559 0.500000
O O6 0.894116 0.506305 0.739005
O O7 0.915350 0.603688 0.625435
O O8 0.811880 0.555828 0.630173
O O9 0.630677 0.724241 0.308137
O O10 0.604506 0.613044 0.219157
O O11 0.685710 0.678896 0.138711
O O12 0.580725 0.823901 0.706757
O O13 0.677668 0.190725 0.853993
O O14 0.716158 0.111798 0.000000
O O15 0.240913 0.137779 0.815001
O O16 0.221020 0.065022 0.000000
O O17 0.078698 0.080299 0.500000
O O18 0.998973 0.079268 0.660393
O O19 0.750000 0.250000 0.250000
#
# Coordination Sequence:
#
# PCOD9545780 Si02
#       8
#    16  16  16  16  16  16  16  16
#     4  10  22  39  61  92 126 164 214 270 319 375
#     4  10  20  37  61  83 114 158 205 256 309 371
#     4  10  22  37  62  91 128 162 209 264 321 390
#     4  10  20  38  57  86 117 159 208 257 315 376
#     4  10  21  39  60  87 127 168 206 257 325 392
#     4  10  22  42  66  92 126 173 217 259 321 392
#     4   9  19  37  61  88 121 165 211 267 333 389
#     4  10  22  40  61  97 127 164 210 263 319 389
#
# _framework density 21.451288999999999
#
# number of rings (size 3 to 8) (size 9 to 14) (size 15 to 20)
#    0.000    2.125    1.250    1.500    1.750    6.750 
#    0.000    4.375    0.000    0.000    0.000    0.875 
#    0.000    0.000    0.000    0.000    0.000    0.000 
#
# Total GULP energy -356707.507880 kJ/mol
# GULP energy per Si atom -5573.554811 kJ/mol
# Density = 2.140247 g / cm^3
# Si number density = 21.451289 Si / 1000 Ang^3
#
#
#
# Elastic Constant Matrix: (Units=GPa)
#
#
# Indices 1 2 3 4 5 6 
#
# 1 91.8490 24.1371 34.8221 0.0000 0.0000 -3.3109
# 2 24.1371 91.8490 34.8221 0.0000 0.0000 3.3109
# 3 34.8221 34.8221 147.0638 0.0000 0.0000 0.0000
# 4 0.0000 0.0000 0.0000 -10.6134 0.0000 0.0000
# 5 0.0000 0.0000 0.0000 0.0000 -10.6134 0.0000
# 6 -3.3109 3.3109 0.0000 0.0000 0.0000 37.6173
#
#
#
# Elastic Compliance Matrix: (Units=1/GPa)
#
#
# Indices 1 2 3 4 5 6 
#
# 1 0.012474 -0.002423 -0.002380 0.000000 0.000000 0.001311
# 2 -0.002423 0.012474 -0.002380 0.000000 0.000000 -0.001311
# 3 -0.002380 -0.002380 0.007927 0.000000 0.000000 0.000000
# 4 0.000000 0.000000 0.000000 -0.094220 0.000000 0.000000
# 5 0.000000 0.000000 0.000000 0.000000 -0.094220 0.000000
# 6 0.001311 -0.001311 0.000000 0.000000 0.000000 0.026814
#
#
# Mechanical properties :
#
#
# Convention : Reuss Voigt Hill
#
# Bulk Modulus (GPa) = 54.02816 57.59159 55.80987
# Shear Modulus (GPa) = -46.20356 19.07677 -13.56339
#
# Velocity S-wave (km/s) = -4.64603 2.98536 -2.51726
# Velocity P-wave (km/s) = 1.88140 6.22809 4.19818
#
# Compressibility (1/GPa) = 0.01850887
#
# Stress axis : x y z
#
# Youngs Moduli (GPa) = 80.16874 80.16874 126.15473
#
# Poissons Ratio (x) = 0.19425 0.30023
# Poissons Ratio (y) = 0.19425 0.30023
# Poissons Ratio (z) = 0.19079 0.19079
#
# Static dielectric constant tensor:
#      x y z
#    x 1.809920 0.000000 0.000000 
#    y 0.000000 1.809920 0.000000 
#    z 0.000000 0.000000 1.829030 
# 
# From -- ./inp_files/2965.got.cif
#   From: 2010.05.17/outbox.cif.g08.bks.cpg/sg87_2_cif.got.tgz:2965.got - 2010.06.03 19:07:00.
