data_PCOD9545232
_publ_section_title
;
Structure prediction by ZEFSAII (Michael W. Deem and Ramdas Pophale) SiO2 
 PCOD9545232
Probable space group: P 42/N
;
_chemical_formula_sum "Si O2"
_cell_formula_units_Z 40
_cell_length_a 11.082541
_cell_length_b 11.082541
_cell_length_c 14.735491
_cell_angle_alpha 90.000000
_cell_angle_beta 90.000000
_cell_angle_gamma 90.000000
_cell_volume 1809.853012
_symmetry_space_group_name_H-M "P 42/N"
_symmetry_group_IT_number 86
_space_group.IT_coordinate_system_code '2'
_symmetry_cell_setting 'tetragonal'
loop_
_space_group_symop_operation_xyz
x,y,z
-y,1/2+x,1/2+z
1/2-x,1/2-y,z
1/2+y,-x,1/2+z
-x,-y,-z
y,1/2-x,1/2-z
1/2+x,1/2+y,-z
1/2-y,x,1/2-z
loop_
_atom_site_type_symbol
_atom_site_label
_atom_site_fract_x
_atom_site_fract_y
_atom_site_fract_z
Si Si1 0.628172 0.904190 0.251966
Si Si2 0.024654 0.635292 0.655613
Si Si3 0.957989 0.038548 0.596949
Si Si4 0.876569 0.294644 0.534433
Si Si5 0.712246 0.003866 0.675256
O O1 0.767549 0.900310 0.219748
O O2 0.603647 0.014874 0.321010
O O3 0.537165 0.937514 0.170773
O O4 0.041736 0.667247 0.550347
O O5 0.054166 0.742628 0.727068
O O6 0.886392 0.600340 0.677941
O O7 0.922543 0.178553 0.588060
O O8 0.838918 0.968814 0.628213
O O9 0.000000 0.000000 0.500000
O O10 0.750000 0.250000 0.492064
O O11 0.848038 0.397226 0.608255
#
# Coordination Sequence:
#
# PCOD9545232 Si02
#       5
#     8   8   8   8   8
#     4  10  23  41  65  96 129 172 223 271 339 411
#     4  11  24  42  72  94 139 181 226 296 350 411
#     4  10  23  43  65  94 135 171 223 283 335 416
#     4  10  23  41  67  99 134 186 230 279 349 419
#     4  10  24  43  64 101 133 175 237 280 349 422
#
# _framework density 22.101243
#
# number of rings (size 3 to 8) (size 9 to 14) (size 15 to 20)
#    0.000    1.800    0.000    1.800   11.200    6.000 
#    3.600    0.000    0.000    0.000    0.000    0.000 
#    0.000    0.000    0.000    0.000    0.000    0.000 
#
# Total GULP energy -223306.338682 kJ/mol
# GULP energy per Si atom -5582.658467 kJ/mol
# Density = 2.205094 g / cm^3
# Si number density = 22.101243 Si / 1000 Ang^3
#
#
#
# Elastic Constant Matrix: (Units=GPa)
#
#
# Indices 1 2 3 4 5 6 
#
# 1 76.9295 26.8359 26.1231 0.0000 0.0000 7.0387
# 2 26.8359 76.9295 26.1231 0.0000 0.0000 -7.0387
# 3 26.1231 26.1231 94.6599 0.0000 0.0000 0.0000
# 4 0.0000 0.0000 0.0000 28.6005 0.0000 0.0000
# 5 0.0000 0.0000 0.0000 0.0000 28.6005 0.0000
# 6 7.0387 -7.0387 0.0000 0.0000 0.0000 23.4016
#
#
#
# Elastic Compliance Matrix: (Units=1/GPa)
#
#
# Indices 1 2 3 4 5 6 
#
# 1 0.016499 -0.005307 -0.003089 0.000000 0.000000 -0.006559
# 2 -0.005307 0.016499 -0.003089 0.000000 0.000000 0.006559
# 3 -0.003089 -0.003089 0.012269 0.000000 0.000000 0.000000
# 4 0.000000 0.000000 0.000000 0.034964 0.000000 0.000000
# 5 0.000000 0.000000 0.000000 0.000000 0.034964 0.000000
# 6 -0.006559 0.006559 0.000000 0.000000 0.000000 0.046678
#
#
# Mechanical properties :
#
#
# Convention : Reuss Voigt Hill
#
# Bulk Modulus (GPa) = 44.84581 45.18704 45.01642
# Shear Modulus (GPa) = 26.00445 27.41629 26.71037
#
# Velocity S-wave (km/s) = 3.43389 3.52587 3.48019
# Velocity P-wave (km/s) = 6.00477 6.08815 6.04660
#
# Compressibility (1/GPa) = 0.02229863
#
# Stress axis : x y z
#
# Youngs Moduli (GPa) = 60.60957 60.60957 81.50675
#
# Poissons Ratio (x) = 0.32164 0.25175
# Poissons Ratio (y) = 0.32164 0.25175
# Poissons Ratio (z) = 0.18721 0.18721
#
# Static dielectric constant tensor:
#      x y z
#    x 1.916570 0.000000 0.000000 
#    y 0.000000 1.916570 0.000000 
#    z 0.000000 0.000000 1.793910 
# 
# From -- ./inp_files/2879.got.cif
#   From: 2010.05.17/outbox.cif.g08.bks.cpg/sg86_2_cif.got.tgz:2879.got - 2010.06.03 19:03:11.
