data_PCOD9545526
_publ_section_title
;
Structure prediction by ZEFSAII (Michael W. Deem and Ramdas Pophale) SiO2 
 PCOD9545526
Probable space group: I 4/M
;
_chemical_formula_sum "Si O2"
_cell_formula_units_Z 64
_cell_length_a 11.883732
_cell_length_b 11.883732
_cell_length_c 19.068701
_cell_angle_alpha 90.000000
_cell_angle_beta 90.000000
_cell_angle_gamma 90.000000
_cell_volume 2692.940806
_symmetry_space_group_name_H-M "I 4/M"
_symmetry_group_IT_number 87
_symmetry_cell_setting 'tetragonal'
loop_
_space_group_symop_operation_xyz
x,y,z
-y,x,z
-x,-y,z
y,-x,z
-x,-y,-z
y,-x,-z
x,y,-z
-y,x,-z
1/2+x,1/2+y,1/2+z
1/2-y,1/2+x,1/2+z
1/2-x,1/2-y,1/2+z
1/2+y,1/2-x,1/2+z
1/2-x,1/2-y,1/2-z
1/2+y,1/2-x,1/2-z
1/2+x,1/2+y,1/2-z
1/2-y,1/2+x,1/2-z
loop_
_atom_site_type_symbol
_atom_site_label
_atom_site_fract_x
_atom_site_fract_y
_atom_site_fract_z
Si Si1 0.020965 0.306593 0.649549
Si Si2 0.297939 0.054619 0.079708
Si Si3 0.311407 0.715485 0.079500
Si Si4 0.314480 0.523538 0.713291
O O1 0.084256 0.413309 0.617068
O O2 0.092546 0.202919 0.614766
O O3 0.894376 0.291949 0.624087
O O4 0.033072 0.287901 0.732197
O O5 0.246144 0.181321 0.076420
O O6 0.225920 0.983462 0.133563
O O7 0.309890 0.012390 0.000000
O O8 0.353678 0.708102 0.000000
O O9 0.378610 0.404983 0.726152
#
# Coordination Sequence:
#
# PCOD9545526 Si02
#       4
#    16  16  16  16
#     4  10  18  33  58  88 122 154 198 260 316 364
#     4   9  21  38  57  87 125 164 204 254 317 373
#     4   9  17  31  55  86 121 154 191 246 313 371
#     4  11  22  37  59  89 124 162 212 265 306 366
#
# _framework density 23.765841000000002
#
# number of rings (size 3 to 8) (size 9 to 14) (size 15 to 20)
#    1.500    0.750    2.500    1.500    0.000    5.500 
#    0.000    2.500    0.000    5.250    0.000   10.500 
#    0.000    0.000    0.000    0.000    0.000    0.000 
#
# Total GULP energy -178642.951372 kJ/mol
# GULP energy per Si atom -5582.592230 kJ/mol
# Density = 2.371175 g / cm^3
# Si number density = 23.765841 Si / 1000 Ang^3
#
#
#
# Elastic Constant Matrix: (Units=GPa)
#
#
# Indices 1 2 3 4 5 6 
#
# 1 46.4335 12.9609 23.2131 0.0000 0.0000 8.2810
# 2 12.9609 46.4335 23.2131 0.0000 0.0000 -8.2810
# 3 23.2131 23.2131 179.6436 0.0000 0.0000 0.0000
# 4 0.0000 0.0000 0.0000 27.6671 0.0000 0.0000
# 5 0.0000 0.0000 0.0000 0.0000 27.6671 0.0000
# 6 8.2810 -8.2810 0.0000 0.0000 0.0000 25.9158
#
#
#
# Elastic Compliance Matrix: (Units=1/GPa)
#
#
# Indices 1 2 3 4 5 6 
#
# 1 0.027107 -0.008379 -0.002420 0.000000 0.000000 -0.011339
# 2 -0.008379 0.027107 -0.002420 0.000000 0.000000 0.011339
# 3 -0.002420 -0.002420 0.006192 0.000000 0.000000 0.000000
# 4 0.000000 0.000000 0.000000 0.036144 0.000000 0.000000
# 5 0.000000 0.000000 0.000000 0.000000 0.036144 0.000000
# 6 -0.011339 0.011339 0.000000 0.000000 0.000000 0.045833
#
#
# Mechanical properties :
#
#
# Convention : Reuss Voigt Hill
#
# Bulk Modulus (GPa) = 29.43911 43.47607 36.45759
# Shear Modulus (GPa) = 23.11745 30.45824 26.78784
#
# Velocity S-wave (km/s) = 3.12223 3.58382 3.36096
# Velocity P-wave (km/s) = 5.04101 5.95469 5.51679
#
# Compressibility (1/GPa) = 0.03396842
#
# Stress axis : x y z
#
# Youngs Moduli (GPa) = 36.89099 36.89099 161.49888
#
# Poissons Ratio (x) = 0.30910 0.39083
# Poissons Ratio (y) = 0.30910 0.39083
# Poissons Ratio (z) = 0.08928 0.08928
#
# Static dielectric constant tensor:
#      x y z
#    x 1.934600 0.000000 0.000000 
#    y 0.000000 1.934600 0.000000 
#    z 0.000000 0.000000 1.865740 
# 
# From -- ./inp_files/4162.got.cif
#   From: 2010.05.17/outbox.cif.g08.bks.cpg/sg87_3_cif.got.tgz:4162.got - 2010.06.03 19:07:00.
