data_PCOD9545204
_publ_section_title
;
Structure prediction by ZEFSAII (Michael W. Deem and Ramdas Pophale) SiO2 
 PCOD9545204
Probable space group: P 42/N
;
_chemical_formula_sum "Si O2"
_cell_formula_units_Z 48
_cell_length_a 9.250664
_cell_length_b 9.250664
_cell_length_c 28.315455
_cell_angle_alpha 90.000000
_cell_angle_beta 90.000000
_cell_angle_gamma 90.000000
_cell_volume 2423.088958
_symmetry_space_group_name_H-M "P 42/N"
_symmetry_group_IT_number 86
_space_group.IT_coordinate_system_code '2'
_symmetry_cell_setting 'tetragonal'
loop_
_space_group_symop_operation_xyz
x,y,z
-y,1/2+x,1/2+z
1/2-x,1/2-y,z
1/2+y,-x,1/2+z
-x,-y,-z
y,1/2-x,1/2-z
1/2+x,1/2+y,-z
1/2-y,x,1/2-z
loop_
_atom_site_type_symbol
_atom_site_label
_atom_site_fract_x
_atom_site_fract_y
_atom_site_fract_z
Si Si1 0.032049 0.443321 0.296176
Si Si2 0.037646 0.889890 0.692448
Si Si3 0.404408 0.321898 0.033341
Si Si4 0.600839 0.341463 0.942024
Si Si5 0.082232 0.210457 0.846088
Si Si6 0.580669 0.780722 0.870776
O O1 0.067824 0.460529 0.241400
O O2 0.174825 0.456485 0.328020
O O3 0.959096 0.285828 0.306504
O O4 0.932971 0.571824 0.314744
O O5 0.940716 0.934564 0.647824
O O6 0.178823 0.984698 0.684499
O O7 0.250000 0.250000 0.022813
O O8 0.373522 0.486914 0.050032
O O9 0.484838 0.250898 0.078473
O O10 0.505302 0.304587 0.987958
O O11 0.750000 0.250000 0.939091
O O12 0.504732 0.315879 0.895056
O O13 0.250000 0.250000 0.853631
O O14 0.750000 0.750000 0.878598
#
# Coordination Sequence:
#
# PCOD9545204 Si02
#       6
#     8   8   8   8   8   8
#     4  11  21  41  67  96 131 171 224 266 325 390
#     4  11  23  40  69  97 131 174 222 272 324 390
#     4  10  22  43  69 100 135 165 220 282 327 393
#     4  11  24  45  71  98 130 179 218 269 341 403
#     4  12  28  45  62  94 139 179 216 271 334 394
#     4   9  19  38  66  99 124 165 216 276 319 377
#
# _framework density 19.809426999999999
#
# number of rings (size 3 to 8) (size 9 to 14) (size 15 to 20)
#    0.000    1.333    3.333    2.000    7.000    0.667 
#    6.000    0.833    0.000    0.000    0.000    0.000 
#    0.000    0.000    0.000    0.000    0.000    0.000 
#
# Total GULP energy -267762.479134 kJ/mol
# GULP energy per Si atom -5578.384982 kJ/mol
# Density = 1.976434 g / cm^3
# Si number density = 19.809427 Si / 1000 Ang^3
#
#
#
# Elastic Constant Matrix: (Units=GPa)
#
#
# Indices 1 2 3 4 5 6 
#
# 1 69.2404 39.1785 19.9002 0.0000 0.0000 -0.3699
# 2 39.1785 69.2404 19.9002 0.0000 0.0000 0.3699
# 3 19.9002 19.9002 104.2564 0.0000 0.0000 0.0000
# 4 0.0000 0.0000 0.0000 -158.7055 0.0000 0.0000
# 5 0.0000 0.0000 0.0000 0.0000 -158.7055 0.0000
# 6 -0.3699 0.3699 0.0000 0.0000 0.0000 21.3040
#
#
#
# Elastic Compliance Matrix: (Units=1/GPa)
#
#
# Indices 1 2 3 4 5 6 
#
# 1 0.021599 -0.011680 -0.001893 0.000000 0.000000 0.000578
# 2 -0.011680 0.021599 -0.001893 0.000000 0.000000 -0.000578
# 3 -0.001893 -0.001893 0.010314 0.000000 0.000000 0.000000
# 4 0.000000 0.000000 0.000000 -0.006301 0.000000 0.000000
# 5 0.000000 0.000000 0.000000 0.000000 -0.006301 0.000000
# 6 0.000578 -0.000578 0.000000 0.000000 0.000000 0.046960
#
#
# Mechanical properties :
#
#
# Convention : Reuss Voigt Hill
#
# Bulk Modulus (GPa) = 44.28973 44.52164 44.40568
# Shear Modulus (GPa) = 39.57915 -48.30418 -4.36251
#
# Velocity S-wave (km/s) = 4.47474 -4.94342 -1.48561
# Velocity P-wave (km/s) = 7.00744 3.17166 4.41842
#
# Compressibility (1/GPa) = 0.02257860
#
# Stress axis : x y z
#
# Youngs Moduli (GPa) = 46.29905 46.29905 96.95109
#
# Poissons Ratio (x) = 0.54078 0.18355
# Poissons Ratio (y) = 0.54078 0.18355
# Poissons Ratio (z) = 0.08765 0.08765
#
# Static dielectric constant tensor:
#      x y z
#    x 1.713150 0.000000 0.000000 
#    y 0.000000 1.713150 0.000000 
#    z 0.000000 0.000000 1.722730 
# 
# From -- ./inp_files/5138.got.cif
#   From: 2010.05.17/outbox.cif.g08.bks.cpg/sg86_3_cif.got.tgz:5138.got - 2010.06.03 19:03:11.
