data_PCOD9545504
_publ_section_title
;
Structure prediction by ZEFSAII (Michael W. Deem and Ramdas Pophale) SiO2 
 PCOD9545504
Probable space group: I 4/M
;
_chemical_formula_sum "Si O2"
_cell_formula_units_Z 72
_cell_length_a 23.913288
_cell_length_b 23.913288
_cell_length_c 7.816687
_cell_angle_alpha 90.000000
_cell_angle_beta 90.000000
_cell_angle_gamma 90.000000
_cell_volume 4469.936058
_symmetry_space_group_name_H-M "I 4/M"
_symmetry_group_IT_number 87
_symmetry_cell_setting 'tetragonal'
loop_
_space_group_symop_operation_xyz
x,y,z
-y,x,z
-x,-y,z
y,-x,z
-x,-y,-z
y,-x,-z
x,y,-z
-y,x,-z
1/2+x,1/2+y,1/2+z
1/2-y,1/2+x,1/2+z
1/2-x,1/2-y,1/2+z
1/2+y,1/2-x,1/2+z
1/2-x,1/2-y,1/2-z
1/2+y,1/2-x,1/2-z
1/2+x,1/2+y,1/2-z
1/2-y,1/2+x,1/2-z
loop_
_atom_site_type_symbol
_atom_site_label
_atom_site_fract_x
_atom_site_fract_y
_atom_site_fract_z
Si Si1 0.021546 0.909879 0.500000
Si Si2 0.123864 0.196294 0.793104
Si Si3 0.996186 0.170828 0.803949
Si Si4 0.292091 0.800260 0.205308
Si Si5 0.111249 0.775468 0.703850
O O1 0.064650 0.959884 0.500000
O O2 0.026826 0.874291 0.671084
O O3 0.145850 0.257374 0.733385
O O4 0.168531 0.149332 0.733608
O O5 0.059253 0.186090 0.747745
O O6 0.126482 0.195286 0.000000
O O7 0.948961 0.218560 0.790901
O O8 0.998650 0.150832 0.000000
O O9 0.250000 0.750000 0.250000
O O10 0.351762 0.777279 0.267331
O O11 0.296830 0.804600 0.000000
O O12 0.103114 0.770649 0.500000
#
# Coordination Sequence:
#
# PCOD9545504 Si02
#       5
#     8  16  16  16  16
#     4  11  24  38  50  66  90 124 170 211 238 272
#     4   9  18  31  47  67  92 122 157 192 235 288
#     4  11  22  34  50  69  93 126 160 200 242 281
#     4   8  15  28  45  67  91 116 147 187 235 286
#     4  10  18  29  48  69  93 122 154 194 239 284
#
# _framework density 16.107613000000001
#
# number of rings (size 3 to 8) (size 9 to 14) (size 15 to 20)
#    0.000    2.333    1.111    2.000    1.556    3.556 
#    0.000    1.111    0.000    0.000    0.000    0.000 
#    0.000    0.889    0.000   11.111    0.000    0.000 
#
# Total GULP energy -200470.448471 kJ/mol
# GULP energy per Si atom -5568.623569 kJ/mol
# Density = 1.607095 g / cm^3
# Si number density = 16.107613 Si / 1000 Ang^3
#
#
#
# Elastic Constant Matrix: (Units=GPa)
#
#
# Indices 1 2 3 4 5 6 
#
# 1 53.7868 20.8632 9.1125 0.0000 0.0000 16.3017
# 2 20.8632 53.7868 9.1125 0.0000 0.0000 -16.3017
# 3 9.1125 9.1125 46.2567 0.0000 0.0000 0.0000
# 4 0.0000 0.0000 0.0000 0.8557 0.0000 0.0000
# 5 0.0000 0.0000 0.0000 0.0000 0.8557 0.0000
# 6 16.3017 -16.3017 0.0000 0.0000 0.0000 211.4787
#
#
#
# Elastic Compliance Matrix: (Units=1/GPa)
#
#
# Indices 1 2 3 4 5 6 
#
# 1 0.023478 -0.009405 -0.002772 0.000000 0.000000 -0.002535
# 2 -0.009405 0.023478 -0.002772 0.000000 0.000000 0.002535
# 3 -0.002772 -0.002772 0.022711 0.000000 0.000000 0.000000
# 4 0.000000 0.000000 0.000000 1.168662 0.000000 0.000000
# 5 0.000000 0.000000 0.000000 0.000000 1.168662 0.000000
# 6 -0.002535 0.002535 0.000000 0.000000 0.000000 0.005119
#
#
# Mechanical properties :
#
#
# Convention : Reuss Voigt Hill
#
# Bulk Modulus (GPa) = 25.14650 25.77850 25.46250
# Shear Modulus (GPa) = 2.03644 50.28750 26.16197
#
# Velocity S-wave (km/s) = 1.12562 5.59352 4.03451
# Velocity P-wave (km/s) = 4.16351 7.59969 6.12740
#
# Compressibility (1/GPa) = 0.03976697
#
# Stress axis : x y z
#
# Youngs Moduli (GPa) = 42.59294 42.59294 44.03199
#
# Poissons Ratio (x) = 0.40060 0.12207
# Poissons Ratio (y) = 0.40060 0.12207
# Poissons Ratio (z) = 0.11808 0.11808
#
# Static dielectric constant tensor:
#      x y z
#    x 1.563320 0.000000 0.000000 
#    y 0.000000 1.563320 0.000000 
#    z 0.000000 0.000000 1.586180 
# 
# From -- ./inp_files/1175.got.cif
#   From: 2010.05.17/outbox.cif.g08.bks.cpg/sg87_1_cif.got.tgz:1175.got - 2010.06.03 19:07:00.
