data_PCOD9545260
_publ_section_title
;
Structure prediction by ZEFSAII (Michael W. Deem and Ramdas Pophale) SiO2 
 PCOD9545260
Probable space group: P 42/N
;
_chemical_formula_sum "Si O2"
_cell_formula_units_Z 40
_cell_length_a 9.343937
_cell_length_b 9.343937
_cell_length_c 19.399174
_cell_angle_alpha 90.000000
_cell_angle_beta 90.000000
_cell_angle_gamma 90.000000
_cell_volume 1693.725561
_symmetry_space_group_name_H-M "P 42/N"
_symmetry_group_IT_number 86
_space_group.IT_coordinate_system_code '2'
_symmetry_cell_setting 'tetragonal'
loop_
_space_group_symop_operation_xyz
x,y,z
-y,1/2+x,1/2+z
1/2-x,1/2-y,z
1/2+y,-x,1/2+z
-x,-y,-z
y,1/2-x,1/2-z
1/2+x,1/2+y,-z
1/2-y,x,1/2-z
loop_
_atom_site_type_symbol
_atom_site_label
_atom_site_fract_x
_atom_site_fract_y
_atom_site_fract_z
Si Si1 0.750000 0.250000 0.862144
Si Si2 0.080878 0.714635 0.898152
Si Si3 0.433607 0.480084 0.684617
Si Si4 0.403854 0.380451 0.214215
Si Si5 0.147442 0.522135 0.538807
Si Si6 0.750000 0.750000 0.374216
O O1 0.618820 0.168993 0.824251
O O2 0.658938 0.357080 0.910838
O O3 0.250000 0.750000 0.883484
O O4 0.030403 0.559312 0.872695
O O5 0.976640 0.818532 0.853323
O O6 0.054797 0.737489 0.978891
O O7 0.507355 0.486922 0.758809
O O8 0.359482 0.330621 0.673755
O O9 0.415770 0.262580 0.277235
O O10 0.186085 0.377075 0.578816
O O11 0.000000 0.500000 0.500000
#
# Coordination Sequence:
#
# PCOD9545260 Si02
#       6
#     4   8   8   8   8   4
#     4  10  24  40  64  94 130 176 214 278 334 394
#     4  11  23  41  67  98 136 180 227 281 341 415
#     4  10  23  45  67  97 137 173 233 278 345 406
#     4   9  21  41  69  97 125 173 230 282 334 406
#     4  11  24  39  63  98 133 171 224 272 343 408
#     4  10  24  40  66  99 133 184 220 286 348 402
#
# _framework density 23.616578000000001
#
# number of rings (size 3 to 8) (size 9 to 14) (size 15 to 20)
#    0.000    1.800    1.000    1.200    7.000    3.200 
#    0.000    0.000    0.000    1.200    0.000    0.000 
#    0.000    0.000    0.000    0.000    0.000    0.000 
#
# Total GULP energy -223508.329010 kJ/mol
# GULP energy per Si atom -5587.708225 kJ/mol
# Density = 2.356283 g / cm^3
# Si number density = 23.616578 Si / 1000 Ang^3
#
#
#
# Elastic Constant Matrix: (Units=GPa)
#
#
# Indices 1 2 3 4 5 6 
#
# 1 102.6936 23.9205 16.0229 0.0000 0.0000 7.1713
# 2 23.9205 102.6936 16.0229 0.0000 0.0000 -7.1713
# 3 16.0229 16.0229 37.2334 0.0000 0.0000 0.0000
# 4 0.0000 0.0000 0.0000 17.3356 0.0000 0.0000
# 5 0.0000 0.0000 0.0000 0.0000 17.3356 0.0000
# 6 7.1713 -7.1713 0.0000 0.0000 0.0000 36.5269
#
#
#
# Elastic Compliance Matrix: (Units=1/GPa)
#
#
# Indices 1 2 3 4 5 6 
#
# 1 0.011014 -0.002151 -0.003814 0.000000 0.000000 -0.002585
# 2 -0.002151 0.011014 -0.003814 0.000000 0.000000 0.002585
# 3 -0.003814 -0.003814 0.030140 0.000000 0.000000 0.000000
# 4 0.000000 0.000000 0.000000 0.057685 0.000000 0.000000
# 5 0.000000 0.000000 0.000000 0.000000 0.057685 0.000000
# 6 -0.002585 0.002585 0.000000 0.000000 0.000000 0.028392
#
#
# Mechanical properties :
#
#
# Convention : Reuss Voigt Hill
#
# Bulk Modulus (GPa) = 30.66523 39.39481 35.03002
# Shear Modulus (GPa) = 22.08873 26.68324 24.38598
#
# Velocity S-wave (km/s) = 3.06160 3.36497 3.21686
# Velocity P-wave (km/s) = 5.05080 5.64044 5.35375
#
# Compressibility (1/GPa) = 0.03261023
#
# Stress axis : x y z
#
# Youngs Moduli (GPa) = 90.79068 90.79068 33.17807
#
# Poissons Ratio (x) = 0.19529 0.12655
# Poissons Ratio (y) = 0.19529 0.12655
# Poissons Ratio (z) = 0.34630 0.34630
#
# Static dielectric constant tensor:
#      x y z
#    x 1.931170 0.000000 0.000000 
#    y 0.000000 1.931170 0.000000 
#    z 0.000000 0.000000 1.900000 
# 
# From -- ./inp_files/4533.got.cif
#   From: 2010.05.17/outbox.cif.g08.bks.cpg/sg86_3_cif.got.tgz:4533.got - 2010.06.03 19:03:11.
