data_PCOD9545200
_publ_section_title
;
Structure prediction by ZEFSAII (Michael W. Deem and Ramdas Pophale) SiO2 
 PCOD9545200
Probable space group: P 42/N
;
_chemical_formula_sum "Si O2"
_cell_formula_units_Z 56
_cell_length_a 12.953980
_cell_length_b 12.953980
_cell_length_c 12.668751
_cell_angle_alpha 90.000000
_cell_angle_beta 90.000000
_cell_angle_gamma 90.000000
_cell_volume 2125.887335
_symmetry_space_group_name_H-M "P 42/N"
_symmetry_group_IT_number 86
_space_group.IT_coordinate_system_code '2'
_symmetry_cell_setting 'tetragonal'
loop_
_space_group_symop_operation_xyz
x,y,z
-y,1/2+x,1/2+z
1/2-x,1/2-y,z
1/2+y,-x,1/2+z
-x,-y,-z
y,1/2-x,1/2-z
1/2+x,1/2+y,-z
1/2-y,x,1/2-z
loop_
_atom_site_type_symbol
_atom_site_label
_atom_site_fract_x
_atom_site_fract_y
_atom_site_fract_z
Si Si1 0.346673 0.329801 0.103948
Si Si2 0.842066 0.441759 0.900032
Si Si3 0.857463 0.943006 0.672030
Si Si4 0.433978 0.373314 0.892031
Si Si5 0.671280 0.164533 0.337503
Si Si6 0.140581 0.061564 0.676168
Si Si7 0.328748 0.942780 0.864244
O O1 0.250000 0.250000 0.097865
O O2 0.442232 0.250453 0.112981
O O3 0.347318 0.392174 0.212776
O O4 0.374432 0.394050 0.000363
O O5 0.870480 0.561439 0.890312
O O6 0.748643 0.418669 0.820511
O O7 0.951869 0.385696 0.879113
O O8 0.803042 0.416392 0.017307
O O9 0.907416 0.054401 0.663763
O O10 0.560411 0.370051 0.894569
O O11 0.390567 0.447143 0.799920
O O12 0.409036 0.256455 0.853742
O O13 0.750000 0.250000 0.385946
O O14 0.725021 0.117235 0.231769
O O15 0.065541 0.154982 0.640916
#
# Coordination Sequence:
#
# PCOD9545200 Si02
#       7
#     8   8   8   8   8   8   8
#     4  12  24  42  66 102 138 182 233 293 359 412
#     4  11  22  44  74  99 136 191 227 293 359 419
#     4  11  21  43  69  99 138 181 238 286 344 436
#     4  11  25  44  67 101 145 185 236 292 354 424
#     4  11  24  45  68 102 138 175 240 295 347 424
#     4  10  22  43  66 101 137 185 235 279 345 438
#     4  10  23  43  70 101 137 182 236 287 358 423
#
# _framework density 26.341942
#
# number of rings (size 3 to 8) (size 9 to 14) (size 15 to 20)
#    0.000    1.143    2.857    4.286    2.000    0.571 
#    2.571    6.429    0.000    0.000    0.000    0.000 
#    0.000    0.000    0.000    0.000    0.000    0.000 
#
# Total GULP energy -313037.223411 kJ/mol
# GULP energy per Si atom -5589.950418 kJ/mol
# Density = 2.628199 g / cm^3
# Si number density = 26.341942 Si / 1000 Ang^3
#
#
#
# Elastic Constant Matrix: (Units=GPa)
#
#
# Indices 1 2 3 4 5 6 
#
# 1 101.4649 1.6614 8.4518 0.0000 0.0000 4.4748
# 2 1.6614 101.4649 8.4518 0.0000 0.0000 -4.4748
# 3 8.4518 8.4518 151.8341 0.0000 0.0000 0.0000
# 4 0.0000 0.0000 0.0000 28.8807 0.0000 0.0000
# 5 0.0000 0.0000 0.0000 0.0000 28.8807 0.0000
# 6 4.4748 -4.4748 0.0000 0.0000 0.0000 29.3163
#
#
#
# Elastic Compliance Matrix: (Units=1/GPa)
#
#
# Indices 1 2 3 4 5 6 
#
# 1 0.009972 -0.000186 -0.000545 0.000000 0.000000 -0.001551
# 2 -0.000186 0.009972 -0.000545 0.000000 0.000000 0.001551
# 3 -0.000545 -0.000545 0.006647 0.000000 0.000000 0.000000
# 4 0.000000 0.000000 0.000000 0.034625 0.000000 0.000000
# 5 0.000000 0.000000 0.000000 0.000000 0.034625 0.000000
# 6 -0.001551 0.001551 0.000000 0.000000 0.000000 0.034584
#
#
# Mechanical properties :
#
#
# Convention : Reuss Voigt Hill
#
# Bulk Modulus (GPa) = 41.59720 43.54376 42.57048
# Shear Modulus (GPa) = 35.46324 39.82880 37.64602
#
# Velocity S-wave (km/s) = 3.67313 3.89265 3.78448
# Velocity P-wave (km/s) = 5.81504 6.06381 5.94073
#
# Compressibility (1/GPa) = 0.02404008
#
# Stress axis : x y z
#
# Youngs Moduli (GPa) = 100.27644 100.27644 150.44872
#
# Poissons Ratio (x) = 0.01868 0.08196
# Poissons Ratio (y) = 0.01868 0.08196
# Poissons Ratio (z) = 0.05462 0.05462
#
# Static dielectric constant tensor:
#      x y z
#    x 2.189060 0.000000 0.000000 
#    y 0.000000 2.189060 0.000000 
#    z 0.000000 0.000000 2.114720 
# 
# From -- ./inp_files/2381.got.cif
#   From: 2010.05.17/outbox.cif.g08.bks.cpg/sg86_2_cif.got.tgz:2381.got - 2010.06.03 19:03:11.
