data_PCOD9545624
_publ_section_title
;
Structure prediction by ZEFSAII (Michael W. Deem and Ramdas Pophale) SiO2 
 PCOD9545624
Probable space group: I 4/M
;
_chemical_formula_sum "Si O2"
_cell_formula_units_Z 96
_cell_length_a 23.500977
_cell_length_b 23.500977
_cell_length_c 9.154088
_cell_angle_alpha 90.000000
_cell_angle_beta 90.000000
_cell_angle_gamma 90.000000
_cell_volume 5055.765453
_symmetry_space_group_name_H-M "I 4/M"
_symmetry_group_IT_number 87
_symmetry_cell_setting 'tetragonal'
loop_
_space_group_symop_operation_xyz
x,y,z
-y,x,z
-x,-y,z
y,-x,z
-x,-y,-z
y,-x,-z
x,y,-z
-y,x,-z
1/2+x,1/2+y,1/2+z
1/2-y,1/2+x,1/2+z
1/2-x,1/2-y,1/2+z
1/2+y,1/2-x,1/2+z
1/2-x,1/2-y,1/2-z
1/2+y,1/2-x,1/2-z
1/2+x,1/2+y,1/2-z
1/2-y,1/2+x,1/2-z
loop_
_atom_site_type_symbol
_atom_site_label
_atom_site_fract_x
_atom_site_fract_y
_atom_site_fract_z
Si Si1 0.482011 0.841085 0.826171
Si Si2 0.787807 0.833559 0.170930
Si Si3 0.907659 0.633908 0.826970
Si Si4 0.998594 0.091930 0.322499
Si Si5 0.164414 0.272531 0.670256
Si Si6 0.544219 0.287094 0.823427
O O1 0.420158 0.867543 0.797243
O O2 0.529663 0.874133 0.736723
O O3 0.481785 0.774289 0.785574
O O4 0.492992 0.845583 0.000000
O O5 0.827450 0.787334 0.249641
O O6 0.724160 0.807009 0.181589
O O7 0.790542 0.893674 0.251460
O O8 0.801428 0.839258 0.000000
O O9 0.881903 0.688524 0.746988
O O10 0.908880 0.642739 0.000000
O O11 0.999414 0.091577 0.500000
O O12 0.991816 0.157399 0.277822
O O13 0.054394 0.056469 0.276440
O O14 0.151498 0.263930 0.500000
O O15 0.550452 0.288218 0.000000
#
# Coordination Sequence:
#
# PCOD9545624 Si02
#       6
#    16  16  16  16  16  16
#     4  10  23  40  58  83 114 148 192 244 297 358
#     4  10  20  33  54  84 116 149 186 230 284 343
#     4  11  23  40  61  84 115 150 192 244 295 350
#     4   8  15  29  51  81 114 148 189 234 277 326
#     4  10  20  35  57  82 112 150 189 230 285 347
#     4  10  19  34  57  84 116 151 192 240 288 342
#
# _framework density 18.988223000000001
#
# number of rings (size 3 to 8) (size 9 to 14) (size 15 to 20)
#    0.000    2.167    1.667    2.000    0.000    5.000 
#    0.000    5.000    0.000    1.000    0.000    1.167 
#    0.000    0.000    0.000    0.000    0.000    0.000 
#
# Total GULP energy -267963.878431 kJ/mol
# GULP energy per Si atom -5582.580801 kJ/mol
# Density = 1.894500 g / cm^3
# Si number density = 18.988223 Si / 1000 Ang^3
#
#
#
# Elastic Constant Matrix: (Units=GPa)
#
#
# Indices 1 2 3 4 5 6 
#
# 1 68.9796 19.8120 27.3769 0.0000 0.0000 11.8322
# 2 19.8120 68.9796 27.3769 0.0000 0.0000 -11.8322
# 3 27.3769 27.3769 35.1605 0.0000 0.0000 0.0000
# 4 0.0000 0.0000 0.0000 26.6014 0.0000 0.0000
# 5 0.0000 0.0000 0.0000 0.0000 26.6014 0.0000
# 6 11.8322 -11.8322 0.0000 0.0000 0.0000 8.7760
#
#
#
# Elastic Compliance Matrix: (Units=1/GPa)
#
#
# Indices 1 2 3 4 5 6 
#
# 1 0.039797 -0.018133 -0.016868 0.000000 0.000000 -0.078105
# 2 -0.018133 0.039797 -0.016868 0.000000 0.000000 0.078105
# 3 -0.016868 -0.016868 0.054709 0.000000 0.000000 0.000000
# 4 0.000000 0.000000 0.000000 0.037592 0.000000 0.000000
# 5 0.000000 0.000000 0.000000 0.000000 0.037592 0.000000
# 6 -0.078105 0.078105 0.000000 0.000000 0.000000 0.324556
#
#
# Mechanical properties :
#
#
# Convention : Reuss Voigt Hill
#
# Bulk Modulus (GPa) = 32.71781 35.80571 34.26176
# Shear Modulus (GPa) = 7.71638 18.96603 13.34120
#
# Velocity S-wave (km/s) = 2.01807 3.16386 2.65354
# Velocity P-wave (km/s) = 4.76425 5.67841 5.24130
#
# Compressibility (1/GPa) = 0.03056439
#
# Stress axis : x y z
#
# Youngs Moduli (GPa) = 25.12727 25.12727 18.27837
#
# Poissons Ratio (x) = 0.45563 0.30833
# Poissons Ratio (y) = 0.45563 0.30833
# Poissons Ratio (z) = 0.42386 0.42386
#
# Static dielectric constant tensor:
#      x y z
#    x 1.658950 0.000000 0.000000 
#    y 0.000000 1.658950 0.000000 
#    z 0.000000 0.000000 1.629030 
# 
# From -- ./inp_files/1420.got.cif
#   From: 2010.05.17/outbox.cif.g08.bks.cpg/sg87_1_cif.got.tgz:1420.got - 2010.06.03 19:07:00.
