data_PCOD9545462
_publ_section_title
;
Structure prediction by ZEFSAII (Michael W. Deem and Ramdas Pophale) SiO2 
 PCOD9545462
Probable space group: P 42/N
;
_chemical_formula_sum "Si O2"
_cell_formula_units_Z 26
_cell_length_a 10.410392
_cell_length_b 10.410392
_cell_length_c 9.075240
_cell_angle_alpha 90.000000
_cell_angle_beta 90.000000
_cell_angle_gamma 90.000000
_cell_volume 983.540584
_symmetry_space_group_name_H-M "P 42/N"
_symmetry_group_IT_number 86
_space_group.IT_coordinate_system_code '2'
_symmetry_cell_setting 'tetragonal'
loop_
_space_group_symop_operation_xyz
x,y,z
-y,1/2+x,1/2+z
1/2-x,1/2-y,z
1/2+y,-x,1/2+z
-x,-y,-z
y,1/2-x,1/2-z
1/2+x,1/2+y,-z
1/2-y,x,1/2-z
loop_
_atom_site_type_symbol
_atom_site_label
_atom_site_fract_x
_atom_site_fract_y
_atom_site_fract_z
Si Si1 0.250000 0.250000 0.250000
Si Si2 0.292613 0.431056 0.523378
Si Si3 0.453353 0.026748 0.710202
Si Si4 0.252951 0.603024 0.295681
O O1 0.298660 0.353348 0.369748
O O2 0.152093 0.415259 0.596873
O O3 0.406759 0.406671 0.636781
O O4 0.301395 0.575080 0.462184
O O5 0.604339 0.058952 0.703750
O O6 0.445332 0.872648 0.697067
O O7 0.250000 0.750000 0.264287
#
# Coordination Sequence:
#
# PCOD9545462 Si02
#       4
#     2   8   8   8
#     4  12  28  50  88 128 172 230 308 364 428 534
#     4  12  27  52  85 123 175 230 293 358 442 524
#     4  12  27  56  88 125 176 234 287 362 450 531
#     4  12  28  49  86 127 173 222 293 361 439 517
#
# _framework density 26.435106999999999
#
# number of rings (size 3 to 8) (size 9 to 14) (size 15 to 20)
#    0.000    0.000    3.077    5.538    4.308    0.615 
#    0.000    0.000    0.000    0.000    0.000    0.000 
#    0.000    0.000    0.000    0.000    0.000    0.000 
#
# Total GULP energy -145239.601517 kJ/mol
# GULP energy per Si atom -5586.138520 kJ/mol
# Density = 2.637494 g / cm^3
# Si number density = 26.435107 Si / 1000 Ang^3
#
#
#
# Elastic Constant Matrix: (Units=GPa)
#
#
# Indices 1 2 3 4 5 6 
#
# 1 148.0406 39.7462 28.4988 0.0000 0.0000 0.5563
# 2 39.7462 148.0406 28.4988 0.0000 0.0000 -0.5563
# 3 28.4988 28.4988 152.8790 0.0000 0.0000 0.0000
# 4 0.0000 0.0000 0.0000 52.9064 0.0000 0.0000
# 5 0.0000 0.0000 0.0000 0.0000 52.9064 0.0000
# 6 0.5563 -0.5563 0.0000 0.0000 0.0000 26.8309
#
#
#
# Elastic Compliance Matrix: (Units=1/GPa)
#
#
# Indices 1 2 3 4 5 6 
#
# 1 0.007440 -0.001796 -0.001052 0.000000 0.000000 -0.000191
# 2 -0.001796 0.007440 -0.001052 0.000000 0.000000 0.000191
# 3 -0.001052 -0.001052 0.006933 0.000000 0.000000 0.000000
# 4 0.000000 0.000000 0.000000 0.018901 0.000000 0.000000
# 5 0.000000 0.000000 0.000000 0.000000 0.018901 0.000000
# 6 -0.000191 0.000191 0.000000 0.000000 0.000000 0.037278
#
#
# Mechanical properties :
#
#
# Convention : Reuss Voigt Hill
#
# Bulk Modulus (GPa) = 71.35903 71.38308 71.37106
# Shear Modulus (GPa) = 45.71778 50.00983 47.86381
#
# Velocity S-wave (km/s) = 4.16316 4.35420 4.25975
# Velocity P-wave (km/s) = 7.08250 7.23467 7.15899
#
# Compressibility (1/GPa) = 0.01401364
#
# Stress axis : x y z
#
# Youngs Moduli (GPa) = 134.40302 134.40302 144.22901
#
# Poissons Ratio (x) = 0.24135 0.15176
# Poissons Ratio (y) = 0.24135 0.15176
# Poissons Ratio (z) = 0.14142 0.14142
#
# Static dielectric constant tensor:
#      x y z
#    x 2.207090 0.000000 0.000000 
#    y 0.000000 2.207090 0.000000 
#    z 0.000000 0.000000 2.092730 
# 
# From -- ./inp_files/784.got.cif
#   From: 2010.05.17/outbox.cif.g08.bks.cpg/sg86_1_cif.got.tgz:784.got - 2010.06.03 19:03:11.
