data_PCOD9545910
_publ_section_title
;
Structure prediction by ZEFSAII (Michael W. Deem and Ramdas Pophale) SiO2 
 PCOD9545910
Probable space group: I 4/M
;
_chemical_formula_sum "Si O2"
_cell_formula_units_Z 96
_cell_length_a 24.389425
_cell_length_b 24.389425
_cell_length_c 8.550790
_cell_angle_alpha 90.000000
_cell_angle_beta 90.000000
_cell_angle_gamma 90.000000
_cell_volume 5086.386570
_symmetry_space_group_name_H-M "I 4/M"
_symmetry_group_IT_number 87
_symmetry_cell_setting 'tetragonal'
loop_
_space_group_symop_operation_xyz
x,y,z
-y,x,z
-x,-y,z
y,-x,z
-x,-y,-z
y,-x,-z
x,y,-z
-y,x,-z
1/2+x,1/2+y,1/2+z
1/2-y,1/2+x,1/2+z
1/2-x,1/2-y,1/2+z
1/2+y,1/2-x,1/2+z
1/2-x,1/2-y,1/2-z
1/2+y,1/2-x,1/2-z
1/2+x,1/2+y,1/2-z
1/2-y,1/2+x,1/2-z
loop_
_atom_site_type_symbol
_atom_site_label
_atom_site_fract_x
_atom_site_fract_y
_atom_site_fract_z
Si Si1 0.014429 0.087240 0.690473
Si Si2 0.209229 0.954752 0.310499
Si Si3 0.475643 0.919014 0.684162
Si Si4 0.045269 0.701432 0.313548
Si Si5 0.266288 0.162301 0.186446
Si Si6 0.238795 0.835220 0.812834
O O1 0.014172 0.087658 0.500000
O O2 0.026003 0.148837 0.742515
O O3 0.956156 0.061320 0.739095
O O4 0.208660 0.951929 0.500000
O O5 0.223303 0.895252 0.244536
O O6 0.255304 0.998697 0.264278
O O7 0.467481 0.925881 0.500000
O O8 0.537469 0.936610 0.728515
O O9 0.463684 0.857269 0.734293
O O10 0.041703 0.694387 0.500000
O O11 0.104613 0.724786 0.268985
O O12 0.208940 0.191648 0.229863
O O13 0.313285 0.205237 0.236321
O O14 0.267605 0.154775 0.000000
O O15 0.244939 0.834145 0.000000
#
# Coordination Sequence:
#
# PCOD9545910 Si02
#       6
#    16  16  16  16  16  16
#     4   8  15  30  54  84 116 151 193 241 290 339
#     4  10  22  36  58  89 120 155 198 245 293 350
#     4  11  23  42  66  90 120 158 199 247 299 358
#     4  11  24  39  59  91 124 158 199 247 300 357
#     4  10  22  41  63  87 116 156 201 248 299 357
#     4  10  22  40  62  87 118 157 197 245 304 359
#
# _framework density 18.873909999999999
#
# number of rings (size 3 to 8) (size 9 to 14) (size 15 to 20)
#    0.000    2.000    0.000    4.000    4.667    3.333 
#    0.000    0.000    0.000    0.000    0.000    1.167 
#    0.000    0.000    0.000    0.000    0.000    0.000 
#
# Total GULP energy -268181.999450 kJ/mol
# GULP energy per Si atom -5587.124989 kJ/mol
# Density = 1.883095 g / cm^3
# Si number density = 18.873910 Si / 1000 Ang^3
#
#
#
# Elastic Constant Matrix: (Units=GPa)
#
#
# Indices 1 2 3 4 5 6 
#
# 1 86.2723 30.6496 -3.8378 0.0000 0.0000 -0.3444
# 2 30.6496 86.2723 -3.8378 0.0000 0.0000 0.3444
# 3 -3.8378 -3.8378 12.8575 0.0000 0.0000 0.0000
# 4 0.0000 0.0000 0.0000 21.0327 0.0000 0.0000
# 5 0.0000 0.0000 0.0000 0.0000 21.0327 0.0000
# 6 -0.3444 0.3444 0.0000 0.0000 0.0000 12.7428
#
#
#
# Elastic Compliance Matrix: (Units=1/GPa)
#
#
# Indices 1 2 3 4 5 6 
#
# 1 0.013354 -0.004630 0.002604 0.000000 0.000000 0.000486
# 2 -0.004630 0.013354 0.002604 0.000000 0.000000 -0.000486
# 3 0.002604 0.002604 0.079330 0.000000 0.000000 0.000000
# 4 0.000000 0.000000 0.000000 0.047545 0.000000 0.000000
# 5 0.000000 0.000000 0.000000 0.000000 0.047545 0.000000
# 6 0.000486 -0.000486 0.000000 0.000000 0.000000 0.078502
#
#
# Mechanical properties :
#
#
# Convention : Reuss Voigt Hill
#
# Bulk Modulus (GPa) = 9.32893 25.70554 17.51724
# Shear Modulus (GPa) = 15.91312 21.79019 18.85165
#
# Velocity S-wave (km/s) = 2.90682 3.40150 3.16384
# Velocity P-wave (km/s) = 4.02736 5.39223 4.75898
#
# Compressibility (1/GPa) = 0.10719340
#
# Stress axis : x y z
#
# Youngs Moduli (GPa) = 74.88404 74.88404 12.60552
#
# Poissons Ratio (x) = 0.34674 -0.03282
# Poissons Ratio (y) = 0.34674 -0.03282
# Poissons Ratio (z) = -0.19499 -0.19499
#
# Static dielectric constant tensor:
#      x y z
#    x 1.627820 0.000000 0.000000 
#    y 0.000000 1.627820 0.000000 
#    z 0.000000 0.000000 1.639970 
# 
# From -- ./inp_files/1377.got.cif
#   From: 2010.05.17/outbox.cif.g08.bks.cpg/sg87_1_cif.got.tgz:1377.got - 2010.06.03 19:07:00.
