data_PCOD9545431
_publ_section_title
;
Structure prediction by ZEFSAII (Michael W. Deem and Ramdas Pophale) SiO2 
 PCOD9545431
Probable space group: P 42/N
;
_chemical_formula_sum "Si O2"
_cell_formula_units_Z 24
_cell_length_a 8.565016
_cell_length_b 8.565016
_cell_length_c 13.843216
_cell_angle_alpha 90.000000
_cell_angle_beta 90.000000
_cell_angle_gamma 90.000000
_cell_volume 1015.531391
_symmetry_space_group_name_H-M "P 42/N"
_symmetry_group_IT_number 86
_space_group.IT_coordinate_system_code '2'
_symmetry_cell_setting 'tetragonal'
loop_
_space_group_symop_operation_xyz
x,y,z
-y,1/2+x,1/2+z
1/2-x,1/2-y,z
1/2+y,-x,1/2+z
-x,-y,-z
y,1/2-x,1/2-z
1/2+x,1/2+y,-z
1/2-y,x,1/2-z
loop_
_atom_site_type_symbol
_atom_site_label
_atom_site_fract_x
_atom_site_fract_y
_atom_site_fract_z
Si Si1 0.295153 0.481469 0.712497
Si Si2 0.067175 0.815968 0.001895
Si Si3 0.475173 0.287429 0.205651
O O1 0.422697 0.345268 0.720964
O O2 0.245398 0.504158 0.603286
O O3 0.368743 0.633653 0.758285
O O4 0.250000 0.750000 0.998642
O O5 0.989947 0.742508 0.905551
O O6 0.000000 0.000000 0.000000
O O7 0.419825 0.156435 0.279779
#
# Coordination Sequence:
#
# PCOD9545431 Si02
#       3
#     8   8   8
#     4  11  26  46  77 111 158 203 271 329 410 481
#     4  12  27  49  82 117 161 219 275 338 421 495
#     4  11  27  49  79 115 159 206 270 335 410 489
#
# _framework density 23.632943999999998
#
# number of rings (size 3 to 8) (size 9 to 14) (size 15 to 20)
#    0.000    0.667    3.333    2.000    4.667    6.667 
#    0.000    0.000    0.000    0.000    0.000    0.000 
#    0.000    0.000    0.000    0.000    0.000    0.000 
#
# Total GULP energy -134020.195196 kJ/mol
# GULP energy per Si atom -5584.174800 kJ/mol
# Density = 2.357915 g / cm^3
# Si number density = 23.632944 Si / 1000 Ang^3
#
#
#
# Elastic Constant Matrix: (Units=GPa)
#
#
# Indices 1 2 3 4 5 6 
#
# 1 66.8695 115.9844 40.4121 0.0000 0.0000 -14.9543
# 2 115.9844 66.8695 40.4121 0.0000 0.0000 14.9543
# 3 40.4121 40.4121 198.6045 0.0000 0.0000 0.0000
# 4 0.0000 0.0000 0.0000 36.1172 0.0000 0.0000
# 5 0.0000 0.0000 0.0000 0.0000 36.1172 0.0000
# 6 -14.9543 14.9543 0.0000 0.0000 0.0000 66.8633
#
#
#
# Elastic Compliance Matrix: (Units=1/GPa)
#
#
# Indices 1 2 3 4 5 6 
#
# 1 -0.005955 0.011965 -0.001223 0.000000 0.000000 -0.004008
# 2 0.011965 -0.005955 -0.001223 0.000000 0.000000 0.004008
# 3 -0.001223 -0.001223 0.005533 0.000000 0.000000 0.000000
# 4 0.000000 0.000000 0.000000 0.027688 0.000000 0.000000
# 5 0.000000 0.000000 0.000000 0.000000 0.027688 0.000000
# 6 -0.004008 0.004008 0.000000 0.000000 0.000000 0.013163
#
#
# Mechanical properties :
#
#
# Convention : Reuss Voigt Hill
#
# Bulk Modulus (GPa) = 78.98707 80.66230 79.82468
# Shear Modulus (GPa) = 105.61264 36.85518 71.23391
#
# Velocity S-wave (km/s) = 6.69222 3.95331 5.49611
# Velocity P-wave (km/s) = 9.65450 7.41914 8.60967
#
# Compressibility (1/GPa) = 0.01266030
#
# Stress axis : x y z
#
# Youngs Moduli (GPa) = -167.91914 -167.91914 180.74173
#
# Poissons Ratio (x) = 2.00908 0.22101
# Poissons Ratio (y) = 2.00908 0.22101
# Poissons Ratio (z) = -0.20533 -0.20533
#
# Static dielectric constant tensor:
#      x y z
#    x 2.059450 0.000000 0.000000 
#    y 0.000000 2.059450 0.000000 
#    z 0.000000 0.000000 1.774370 
# 
# From -- ./inp_files/2614.got.cif
#   From: 2010.05.17/outbox.cif.g08.bks.cpg/sg86_2_cif.got.tgz:2614.got - 2010.06.03 19:03:11.
