data_PCOD9545442
_publ_section_title
;
Structure prediction by ZEFSAII (Michael W. Deem and Ramdas Pophale) SiO2 
 PCOD9545442
Probable space group: P 42/N
;
_chemical_formula_sum "Si O2"
_cell_formula_units_Z 30
_cell_length_a 7.957375
_cell_length_b 7.957375
_cell_length_c 21.008774
_cell_angle_alpha 90.000000
_cell_angle_beta 90.000000
_cell_angle_gamma 90.000000
_cell_volume 1330.271723
_symmetry_space_group_name_H-M "P 42/N"
_symmetry_group_IT_number 86
_space_group.IT_coordinate_system_code '2'
_symmetry_cell_setting 'tetragonal'
loop_
_space_group_symop_operation_xyz
x,y,z
-y,1/2+x,1/2+z
1/2-x,1/2-y,z
1/2+y,-x,1/2+z
-x,-y,-z
y,1/2-x,1/2-z
1/2+x,1/2+y,-z
1/2-y,x,1/2-z
loop_
_atom_site_type_symbol
_atom_site_label
_atom_site_fract_x
_atom_site_fract_y
_atom_site_fract_z
Si Si1 0.250000 0.750000 0.396617
Si Si2 0.071821 0.537431 0.300929
Si Si3 0.557044 0.216816 0.836045
Si Si4 0.750000 0.750000 0.750000
Si Si5 0.078551 0.142523 0.546428
O O1 0.220909 0.598999 0.346473
O O2 0.415781 0.756103 0.439280
O O3 0.061780 0.637336 0.234602
O O4 0.106409 0.341964 0.288589
O O5 0.890749 0.545175 0.332226
O O6 0.750000 0.250000 0.855777
O O7 0.457308 0.111591 0.887920
O O8 0.250000 0.250000 0.529262
O O9 0.000000 0.000000 0.500000
#
# Coordination Sequence:
#
# PCOD9545442 Si02
#       5
#     4   8   8   2   8
#     4  12  26  50  76 110 150 198 246 322 390 464
#     4  12  23  42  73 113 154 189 242 313 399 458
#     4  12  25  43  73 110 149 190 243 308 382 459
#     4  12  20  36  64 116 160 188 228 296 380 482
#     4  12  30  53  77 106 148 206 262 315 374 460
#
# _framework density 22.551780999999998
#
# number of rings (size 3 to 8) (size 9 to 14) (size 15 to 20)
#    0.000    0.000    6.667    3.200    1.867    3.200 
#    2.400    0.000    0.000    0.000    0.000    0.000 
#    0.000    0.000    0.000    0.000    0.000    0.000 
#
# Total GULP energy -167483.636767 kJ/mol
# GULP energy per Si atom -5582.787892 kJ/mol
# Density = 2.250045 g / cm^3
# Si number density = 22.551781 Si / 1000 Ang^3
#
#
#
# Elastic Constant Matrix: (Units=GPa)
#
#
# Indices 1 2 3 4 5 6 
#
# 1 115.3170 22.6979 28.2844 0.0000 0.0000 4.0900
# 2 22.6979 115.3170 28.2844 0.0000 0.0000 -4.0900
# 3 28.2844 28.2844 59.2495 0.0000 0.0000 0.0000
# 4 0.0000 0.0000 0.0000 21.0320 0.0000 0.0000
# 5 0.0000 0.0000 0.0000 0.0000 21.0320 0.0000
# 6 4.0900 -4.0900 0.0000 0.0000 0.0000 44.0626
#
#
#
# Elastic Compliance Matrix: (Units=1/GPa)
#
#
# Indices 1 2 3 4 5 6 
#
# 1 0.009947 -0.000939 -0.004300 0.000000 0.000000 -0.001010
# 2 -0.000939 0.009947 -0.004300 0.000000 0.000000 0.001010
# 3 -0.004300 -0.004300 0.020984 0.000000 0.000000 0.000000
# 4 0.000000 0.000000 0.000000 0.047547 0.000000 0.000000
# 5 0.000000 0.000000 0.000000 0.000000 0.047547 0.000000
# 6 -0.001010 0.001010 0.000000 0.000000 0.000000 0.022883
#
#
# Mechanical properties :
#
#
# Convention : Reuss Voigt Hill
#
# Bulk Modulus (GPa) = 45.87438 49.82410 47.84924
# Shear Modulus (GPa) = 26.99798 31.26644 29.13221
#
# Velocity S-wave (km/s) = 3.46375 3.72752 3.59805
# Velocity P-wave (km/s) = 6.03181 6.37707 6.20684
#
# Compressibility (1/GPa) = 0.02179866
#
# Stress axis : x y z
#
# Youngs Moduli (GPa) = 100.53118 100.53118 47.65647
#
# Poissons Ratio (x) = 0.09440 0.20494
# Poissons Ratio (y) = 0.09440 0.20494
# Poissons Ratio (z) = 0.43231 0.43231
#
# Static dielectric constant tensor:
#      x y z
#    x 1.946000 0.000000 0.000000 
#    y 0.000000 1.946000 0.000000 
#    z 0.000000 0.000000 1.834330 
# 
# From -- ./inp_files/3769.got.cif
#   From: 2010.05.17/outbox.cif.g08.bks.cpg/sg86_2_cif.got.tgz:3769.got - 2010.06.03 19:03:11.
