data_PCOD9545438
_publ_section_title
;
Structure prediction by ZEFSAII (Michael W. Deem and Ramdas Pophale) SiO2 
 PCOD9545438
Probable space group: P 42/N
;
_chemical_formula_sum "Si O2"
_cell_formula_units_Z 40
_cell_length_a 14.980831
_cell_length_b 14.980831
_cell_length_c 6.478833
_cell_angle_alpha 90.000000
_cell_angle_beta 90.000000
_cell_angle_gamma 90.000000
_cell_volume 1454.014023
_symmetry_space_group_name_H-M "P 42/N"
_symmetry_group_IT_number 86
_space_group.IT_coordinate_system_code '2'
_symmetry_cell_setting 'tetragonal'
loop_
_space_group_symop_operation_xyz
x,y,z
-y,1/2+x,1/2+z
1/2-x,1/2-y,z
1/2+y,-x,1/2+z
-x,-y,-z
y,1/2-x,1/2-z
1/2+x,1/2+y,-z
1/2-y,x,1/2-z
loop_
_atom_site_type_symbol
_atom_site_label
_atom_site_fract_x
_atom_site_fract_y
_atom_site_fract_z
Si Si1 0.469352 0.987744 0.733921
Si Si2 0.560494 0.346726 0.347846
Si Si3 0.201995 0.004199 0.402496
Si Si4 0.641908 0.238565 0.732526
Si Si5 0.147534 0.161310 0.682567
O O1 0.554127 0.025267 0.864820
O O2 0.383623 0.053230 0.755995
O O3 0.500000 0.000000 0.500000
O O4 0.228010 0.934208 0.587379
O O5 0.604924 0.298536 0.546250
O O6 0.487046 0.282525 0.255932
O O7 0.635316 0.354340 0.169731
O O8 0.117807 0.964101 0.278089
O O9 0.177732 0.100047 0.492504
O O10 0.750000 0.250000 0.780861
O O11 0.143613 0.268280 0.662050
#
# Coordination Sequence:
#
# PCOD9545438 Si02
#       5
#     8   8   8   8   8
#     4  12  28  53  83 124 168 223 285 362 435 519
#     4  12  26  48  78 123 163 216 280 351 429 526
#     4  12  28  50  80 120 169 217 282 350 437 520
#     4  12  27  47  77 120 170 218 271 349 441 523
#     4  11  27  52  82 114 163 227 284 345 416 509
#
# _framework density 27.510054
#
# number of rings (size 3 to 8) (size 9 to 14) (size 15 to 20)
#    0.000    0.200    2.000    6.000    2.800    4.000 
#    3.600    0.000    0.000    2.400    0.000    0.000 
#    0.000    0.000    0.000    0.000    0.000    0.000 
#
# Total GULP energy -223630.339822 kJ/mol
# GULP energy per Si atom -5590.758496 kJ/mol
# Density = 2.744744 g / cm^3
# Si number density = 27.510054 Si / 1000 Ang^3
#
#
#
# Elastic Constant Matrix: (Units=GPa)
#
#
# Indices 1 2 3 4 5 6 
#
# 1 180.7744 53.3361 59.2226 0.0000 0.0000 3.2480
# 2 53.3361 180.7744 59.2226 0.0000 0.0000 -3.2480
# 3 59.2226 59.2226 99.5134 0.0000 0.0000 0.0000
# 4 0.0000 0.0000 0.0000 39.6775 0.0000 0.0000
# 5 0.0000 0.0000 0.0000 0.0000 39.6775 0.0000
# 6 3.2480 -3.2480 0.0000 0.0000 0.0000 51.6737
#
#
#
# Elastic Compliance Matrix: (Units=1/GPa)
#
#
# Indices 1 2 3 4 5 6 
#
# 1 0.006992 -0.000880 -0.003637 0.000000 0.000000 -0.000495
# 2 -0.000880 0.006992 -0.003637 0.000000 0.000000 0.000495
# 3 -0.003637 -0.003637 0.014378 0.000000 0.000000 0.000000
# 4 0.000000 0.000000 0.000000 0.025203 0.000000 0.000000
# 5 0.000000 0.000000 0.000000 0.000000 0.025203 0.000000
# 6 -0.000495 0.000495 0.000000 0.000000 0.000000 0.019414
#
#
# Mechanical properties :
#
#
# Convention : Reuss Voigt Hill
#
# Bulk Modulus (GPa) = 82.96947 89.40275 86.18611
# Shear Modulus (GPa) = 42.19069 45.49110 43.84090
#
# Velocity S-wave (km/s) = 3.92043 4.07088 3.99636
# Velocity P-wave (km/s) = 7.12167 7.39357 7.25889
#
# Compressibility (1/GPa) = 0.01205263
#
# Stress axis : x y z
#
# Youngs Moduli (GPa) = 143.02223 143.02223 69.55048
#
# Poissons Ratio (x) = 0.12589 0.25297
# Poissons Ratio (y) = 0.12589 0.25297
# Poissons Ratio (z) = 0.52020 0.52020
#
# Static dielectric constant tensor:
#      x y z
#    x 2.196700 0.000000 0.000000 
#    y 0.000000 2.196700 0.000000 
#    z 0.000000 0.000000 2.310020 
# 
# From -- ./inp_files/2112.got.cif
#   From: 2010.05.17/outbox.cif.g08.bks.cpg/sg86_2_cif.got.tgz:2112.got - 2010.06.03 19:03:11.
