data_PCOD9545457
_publ_section_title
;
Structure prediction by ZEFSAII (Michael W. Deem and Ramdas Pophale) SiO2 
 PCOD9545457
Probable space group: P 42/N
;
_chemical_formula_sum "Si O2"
_cell_formula_units_Z 26
_cell_length_a 8.505249
_cell_length_b 8.505249
_cell_length_c 13.151153
_cell_angle_alpha 90.000000
_cell_angle_beta 90.000000
_cell_angle_gamma 90.000000
_cell_volume 951.344683
_symmetry_space_group_name_H-M "P 42/N"
_symmetry_group_IT_number 86
_space_group.IT_coordinate_system_code '2'
_symmetry_cell_setting 'tetragonal'
loop_
_space_group_symop_operation_xyz
x,y,z
-y,1/2+x,1/2+z
1/2-x,1/2-y,z
1/2+y,-x,1/2+z
-x,-y,-z
y,1/2-x,1/2-z
1/2+x,1/2+y,-z
1/2-y,x,1/2-z
loop_
_atom_site_type_symbol
_atom_site_label
_atom_site_fract_x
_atom_site_fract_y
_atom_site_fract_z
Si Si1 0.250000 0.250000 0.750000
Si Si2 0.887297 0.354354 0.084225
Si Si3 0.571485 0.313758 0.872192
Si Si4 0.570989 0.720703 0.586025
O O1 0.415040 0.275046 0.810733
O O2 0.750000 0.250000 0.135490
O O3 0.042343 0.432669 0.133674
O O4 0.945972 0.249176 0.987811
O O5 0.799407 0.495104 0.025308
O O6 0.750000 0.250000 0.847014
O O7 0.622382 0.494827 0.867951
O O8 0.750000 0.750000 0.583151
#
# Coordination Sequence:
#
# PCOD9545457 Si02
#       4
#     2   8   8   8
#     4  12  24  48  68  80 128 196 224 284 314 368
#     4   8  17  34  56  92 136 159 193 261 339 405
#     4   9  22  43  61  92 127 169 227 266 322 402
#     4   9  17  34  59  95 127 155 201 262 329 402
#
# _framework density 27.329734999999999
#
# number of rings (size 3 to 8) (size 9 to 14) (size 15 to 20)
#    0.000    3.692    0.000    0.000    2.154    4.923 
#   22.154    0.000    0.000    0.000    0.000    0.000 
#    0.000    0.000    0.000    0.000    0.000    0.000 
#
# Total GULP energy -144920.039533 kJ/mol
# GULP energy per Si atom -5573.847674 kJ/mol
# Density = 2.726753 g / cm^3
# Si number density = 27.329735 Si / 1000 Ang^3
#
#
#
# Elastic Constant Matrix: (Units=GPa)
#
#
# Indices 1 2 3 4 5 6 
#
# 1 190.7554 50.0252 30.5412 0.0000 0.0000 11.3461
# 2 50.0252 190.7554 30.5412 0.0000 0.0000 -11.3461
# 3 30.5412 30.5412 98.4913 0.0000 0.0000 0.0000
# 4 0.0000 0.0000 0.0000 -727.5149 0.0000 0.0000
# 5 0.0000 0.0000 0.0000 0.0000 -727.5149 0.0000
# 6 11.3461 -11.3461 0.0000 0.0000 0.0000 71.1216
#
#
#
# Elastic Compliance Matrix: (Units=1/GPa)
#
#
# Indices 1 2 3 4 5 6 
#
# 1 0.005901 -0.001393 -0.001398 0.000000 0.000000 -0.001164
# 2 -0.001393 0.005901 -0.001398 0.000000 0.000000 0.001164
# 3 -0.001398 -0.001398 0.011020 0.000000 0.000000 0.000000
# 4 0.000000 0.000000 0.000000 -0.001375 0.000000 0.000000
# 5 0.000000 0.000000 0.000000 0.000000 -0.001375 0.000000
# 6 -0.001164 0.001164 0.000000 0.000000 0.000000 0.014432
#
#
# Mechanical properties :
#
#
# Convention : Reuss Voigt Hill
#
# Bulk Modulus (GPa) = 69.23126 78.02417 73.62772
# Shear Modulus (GPa) = 104.83168 -252.18868 -73.67850
#
# Velocity S-wave (km/s) = 6.20011 -9.61648 -5.19785
# Velocity P-wave (km/s) = 8.75454 9.73093 3.00408
#
# Compressibility (1/GPa) = 0.01444434
#
# Stress axis : x y z
#
# Youngs Moduli (GPa) = 169.47471 169.47471 90.74348
#
# Poissons Ratio (x) = 0.23605 0.12684
# Poissons Ratio (y) = 0.23605 0.12684
# Poissons Ratio (z) = 0.23689 0.23689
#
# Static dielectric constant tensor:
#      x y z
#    x 1.347420 0.000000 0.000000 
#    y 0.000000 1.347420 0.000000 
#    z 0.000000 0.000000 2.207800 
# 
# From -- ./inp_files/3295.got.cif
#   From: 2010.05.17/outbox.cif.g08.bks.cpg/sg86_2_cif.got.tgz:3295.got - 2010.06.03 19:03:11.
