data_PCOD9545242
_publ_section_title
;
Structure prediction by ZEFSAII (Michael W. Deem and Ramdas Pophale) SiO2 
 PCOD9545242
Probable space group: P 42/N
;
_chemical_formula_sum "Si O2"
_cell_formula_units_Z 48
_cell_length_a 8.950893
_cell_length_b 8.950893
_cell_length_c 29.605895
_cell_angle_alpha 90.000000
_cell_angle_beta 90.000000
_cell_angle_gamma 90.000000
_cell_volume 2371.979469
_symmetry_space_group_name_H-M "P 42/N"
_symmetry_group_IT_number 86
_space_group.IT_coordinate_system_code '2'
_symmetry_cell_setting 'tetragonal'
loop_
_space_group_symop_operation_xyz
x,y,z
-y,1/2+x,1/2+z
1/2-x,1/2-y,z
1/2+y,-x,1/2+z
-x,-y,-z
y,1/2-x,1/2-z
1/2+x,1/2+y,-z
1/2-y,x,1/2-z
loop_
_atom_site_type_symbol
_atom_site_label
_atom_site_fract_x
_atom_site_fract_y
_atom_site_fract_z
Si Si1 0.319755 0.912956 0.455349
Si Si2 0.704435 0.530129 0.269271
Si Si3 0.585468 0.681027 0.864662
Si Si4 0.586811 0.680065 0.046171
Si Si5 0.300543 0.020206 0.265874
Si Si6 0.914120 0.178825 0.862689
O O1 0.250000 0.750000 0.456267
O O2 0.499888 0.901487 0.454621
O O3 0.274169 0.999571 0.409935
O O4 0.274656 0.003124 0.500189
O O5 0.582802 0.662332 0.263760
O O6 0.624752 0.378253 0.254141
O O7 0.767477 0.508763 0.319395
O O8 0.750000 0.750000 0.864541
O O9 0.505570 0.733475 0.818700
O O10 0.595141 0.501042 0.862877
O O11 0.750000 0.750000 0.047923
O O12 0.493230 0.724069 0.090519
O O13 0.155928 0.079542 0.239555
O O14 0.750000 0.250000 0.860054
#
# Coordination Sequence:
#
# PCOD9545242 Si02
#       6
#     8   8   8   8   8   8
#     4  10  23  43  64  99 130 166 216 268 327 393
#     4  11  25  41  61  89 130 171 212 273 322 389
#     4  11  22  42  64  91 129 163 216 269 325 384
#     4  10  23  42  69  94 133 170 211 271 328 392
#     4  11  22  41  63  91 125 172 218 270 321 387
#     4  11  24  42  65  95 126 173 218 266 327 395
#
# _framework density 20.236263000000001
#
# number of rings (size 3 to 8) (size 9 to 14) (size 15 to 20)
#    0.000    1.333    3.333    2.000    2.333    2.000 
#    3.000    0.000    0.000    0.000    0.000    0.000 
#    0.000    0.000    0.000    0.000    0.000    0.000 
#
# Total GULP energy -268499.386503 kJ/mol
# GULP energy per Si atom -5593.737219 kJ/mol
# Density = 2.019020 g / cm^3
# Si number density = 20.236263 Si / 1000 Ang^3
#
#
#
# Elastic Constant Matrix: (Units=GPa)
#
#
# Indices 1 2 3 4 5 6 
#
# 1 57.8240 41.4464 52.4831 0.0000 0.0000 4.4519
# 2 41.4464 57.8240 52.4831 0.0000 0.0000 -4.4519
# 3 52.4831 52.4831 198.2320 0.0000 0.0000 0.0000
# 4 0.0000 0.0000 0.0000 51.1223 0.0000 0.0000
# 5 0.0000 0.0000 0.0000 0.0000 51.1223 0.0000
# 6 4.4519 -4.4519 0.0000 0.0000 0.0000 49.4288
#
#
#
# Elastic Compliance Matrix: (Units=1/GPa)
#
#
# Indices 1 2 3 4 5 6 
#
# 1 0.039096 -0.025106 -0.003704 0.000000 0.000000 -0.005783
# 2 -0.025106 0.039096 -0.003704 0.000000 0.000000 0.005783
# 3 -0.003704 -0.003704 0.007006 0.000000 0.000000 0.000000
# 4 0.000000 0.000000 0.000000 0.019561 0.000000 0.000000
# 5 0.000000 0.000000 0.000000 0.000000 0.019561 0.000000
# 6 -0.005783 0.005783 0.000000 0.000000 0.000000 0.021273
#
#
# Mechanical properties :
#
#
# Convention : Reuss Voigt Hill
#
# Bulk Modulus (GPa) = 49.57849 67.41170 58.49509
# Shear Modulus (GPa) = 23.00491 41.49919 32.25205
#
# Velocity S-wave (km/s) = 3.37533 4.53342 3.99654
# Velocity P-wave (km/s) = 6.30424 7.79661 7.08980
#
# Compressibility (1/GPa) = 0.02017004
#
# Stress axis : x y z
#
# Youngs Moduli (GPa) = 25.57786 25.57786 142.73765
#
# Poissons Ratio (x) = 0.64217 0.52869
# Poissons Ratio (y) = 0.64217 0.52869
# Poissons Ratio (z) = 0.09474 0.09474
#
# Static dielectric constant tensor:
#      x y z
#    x 1.707800 0.000000 0.000000 
#    y 0.000000 1.707800 0.000000 
#    z 0.000000 0.000000 1.702220 
# 
# From -- ./inp_files/5195.got.cif
#   From: 2010.05.17/outbox.cif.g08.bks.cpg/sg86_3_cif.got.tgz:5195.got - 2010.06.03 19:03:11.
