data_PCOD9545259
_publ_section_title
;
Structure prediction by ZEFSAII (Michael W. Deem and Ramdas Pophale) SiO2 
 PCOD9545259
Probable space group: P 42/N
;
_chemical_formula_sum "Si O2"
_cell_formula_units_Z 40
_cell_length_a 12.365707
_cell_length_b 12.365707
_cell_length_c 9.128913
_cell_angle_alpha 90.000000
_cell_angle_beta 90.000000
_cell_angle_gamma 90.000000
_cell_volume 1395.908565
_symmetry_space_group_name_H-M "P 42/N"
_symmetry_group_IT_number 86
_space_group.IT_coordinate_system_code '2'
_symmetry_cell_setting 'tetragonal'
loop_
_space_group_symop_operation_xyz
x,y,z
-y,1/2+x,1/2+z
1/2-x,1/2-y,z
1/2+y,-x,1/2+z
-x,-y,-z
y,1/2-x,1/2-z
1/2+x,1/2+y,-z
1/2-y,x,1/2-z
loop_
_atom_site_type_symbol
_atom_site_label
_atom_site_fract_x
_atom_site_fract_y
_atom_site_fract_z
Si Si1 0.653114 0.827893 0.433236
Si Si2 0.139927 0.431616 0.117438
Si Si3 0.403548 0.891469 0.902404
Si Si4 0.944829 0.421654 0.623794
Si Si5 0.918037 0.209822 0.898899
O O1 0.750000 0.750000 0.389313
O O2 0.616333 0.760076 0.582823
O O3 0.544534 0.844418 0.335289
O O4 0.697105 0.951784 0.427810
O O5 0.120179 0.510826 0.256188
O O6 0.028266 0.364150 0.138339
O O7 0.112517 0.486983 0.960191
O O8 0.382569 0.826249 0.050311
O O9 0.333577 0.881679 0.756953
O O10 0.861902 0.359194 0.523289
O O11 0.000000 0.500000 0.500000
#
# Coordination Sequence:
#
# PCOD9545259 Si02
#       5
#     8   8   8   8   8
#     4  11  23  45  76 121 162 231 300 355 450 552
#     4  11  24  42  73 112 168 221 284 366 441 534
#     4  11  25  46  73 113 169 228 284 373 454 541
#     4  10  23  45  67 108 167 215 284 367 435 528
#     4  11  25  48  76 115 171 228 298 377 455 554
#
# _framework density 28.655169999999998
#
# number of rings (size 3 to 8) (size 9 to 14) (size 15 to 20)
#    0.000    1.200    6.000    0.000    5.600    0.000 
#    0.000    1.000    0.000    0.000    0.000    0.000 
#    0.000    0.000    0.000    0.000    0.000    0.000 
#
# Total GULP energy -223016.821198 kJ/mol
# GULP energy per Si atom -5575.420530 kJ/mol
# Density = 2.858995 g / cm^3
# Si number density = 28.655170 Si / 1000 Ang^3
#
#
#
# Elastic Constant Matrix: (Units=GPa)
#
#
# Indices 1 2 3 4 5 6 
#
# 1 154.5241 43.1841 67.0983 0.0000 0.0000 -18.3208
# 2 43.1841 154.5241 67.0983 0.0000 0.0000 18.3208
# 3 67.0983 67.0983 216.1306 0.0000 0.0000 0.0000
# 4 0.0000 0.0000 0.0000 17.3195 0.0000 0.0000
# 5 0.0000 0.0000 0.0000 0.0000 17.3195 0.0000
# 6 -18.3208 18.3208 0.0000 0.0000 0.0000 41.0552
#
#
#
# Elastic Compliance Matrix: (Units=1/GPa)
#
#
# Indices 1 2 3 4 5 6 
#
# 1 0.008468 -0.002060 -0.001989 0.000000 0.000000 0.004698
# 2 -0.002060 0.008468 -0.001989 0.000000 0.000000 -0.004698
# 3 -0.001989 -0.001989 0.005862 0.000000 0.000000 0.000000
# 4 0.000000 0.000000 0.000000 0.057738 0.000000 0.000000
# 5 0.000000 0.000000 0.000000 0.000000 0.057738 0.000000
# 6 0.004698 -0.004698 0.000000 0.000000 0.000000 0.028550
#
#
# Mechanical properties :
#
#
# Convention : Reuss Voigt Hill
#
# Bulk Modulus (GPa) = 93.27614 97.77114 95.52364
# Shear Modulus (GPa) = 27.40092 38.32540 32.86316
#
# Velocity S-wave (km/s) = 3.09565 3.66111 3.39019
# Velocity P-wave (km/s) = 6.73790 7.21565 6.98086
#
# Compressibility (1/GPa) = 0.01072086
#
# Stress axis : x y z
#
# Youngs Moduli (GPa) = 118.09230 118.09230 170.58698
#
# Poissons Ratio (x) = 0.24322 0.33938
# Poissons Ratio (y) = 0.24322 0.33938
# Poissons Ratio (z) = 0.23494 0.23494
#
# Static dielectric constant tensor:
#      x y z
#    x 2.646720 0.000000 0.000000 
#    y 0.000000 2.646720 0.000000 
#    z 0.000000 0.000000 2.239000 
# 
# From -- ./inp_files/2917.got.cif
#   From: 2010.05.17/outbox.cif.g08.bks.cpg/sg86_2_cif.got.tgz:2917.got - 2010.06.03 19:03:11.
