data_PCOD9545796
_publ_section_title
;
Structure prediction by ZEFSAII (Michael W. Deem and Ramdas Pophale) SiO2 
 PCOD9545796
Probable space group: I 4/M
;
_chemical_formula_sum "Si O2"
_cell_formula_units_Z 112
_cell_length_a 14.784404
_cell_length_b 14.784404
_cell_length_c 24.061115
_cell_angle_alpha 90.000000
_cell_angle_beta 90.000000
_cell_angle_gamma 90.000000
_cell_volume 5259.244870
_symmetry_space_group_name_H-M "I 4/M"
_symmetry_group_IT_number 87
_symmetry_cell_setting 'tetragonal'
loop_
_space_group_symop_operation_xyz
x,y,z
-y,x,z
-x,-y,z
y,-x,z
-x,-y,-z
y,-x,-z
x,y,-z
-y,x,-z
1/2+x,1/2+y,1/2+z
1/2-y,1/2+x,1/2+z
1/2-x,1/2-y,1/2+z
1/2+y,1/2-x,1/2+z
1/2-x,1/2-y,1/2-z
1/2+y,1/2-x,1/2-z
1/2+x,1/2+y,1/2-z
1/2-y,1/2+x,1/2-z
loop_
_atom_site_type_symbol
_atom_site_label
_atom_site_fract_x
_atom_site_fract_y
_atom_site_fract_z
Si Si1 0.675953 0.938383 0.322404
Si Si2 0.304320 0.249231 0.436640
Si Si3 0.534019 0.156207 0.058945
Si Si4 0.866707 0.073375 0.143296
Si Si5 0.405506 0.226819 0.260090
Si Si6 0.800012 0.168938 0.345813
Si Si7 0.353448 0.523385 0.920079
O O1 0.629856 0.984739 0.376690
O O2 0.617446 0.855258 0.300476
O O3 0.768940 0.887982 0.339600
O O4 0.698147 0.004581 0.272346
O O5 0.288632 0.280081 0.500000
O O6 0.331939 0.143238 0.440070
O O7 0.381832 0.305119 0.404780
O O8 0.215033 0.252263 0.397440
O O9 0.486740 0.254329 0.055851
O O10 0.511051 0.109050 0.000000
O O11 0.816114 0.090093 0.201946
O O12 0.965581 0.118717 0.139217
O O13 0.333855 0.243089 0.210363
O O14 0.831302 0.066853 0.359287
O O15 0.402092 0.429204 0.934814
#
# Coordination Sequence:
#
# PCOD9545796 Si02
#       7
#    16  16  16  16  16  16  16
#     4  11  23  40  63  94 124 179 217 271 320 382
#     4  10  22  42  65  90 127 174 225 271 327 404
#     4  10  20  39  60  88 129 175 220 258 324 402
#     4  11  25  43  69 103 133 169 215 280 352 406
#     4  12  23  40  66  94 135 170 220 268 328 403
#     4  11  20  39  61  90 131 178 219 259 330 399
#     4  11  20  33  55  91 138 178 216 268 327 389
#
# _framework density 21.295832000000001
#
# number of rings (size 3 to 8) (size 9 to 14) (size 15 to 20)
#    0.000    1.143    7.143    1.286    2.000    2.000 
#    0.000    2.857    0.000    0.000    0.000    1.000 
#    0.000    0.286    0.000    0.000    0.000    0.000 
#
# Total GULP energy -311855.540175 kJ/mol
# GULP energy per Si atom -5568.848932 kJ/mol
# Density = 2.124736 g / cm^3
# Si number density = 21.295832 Si / 1000 Ang^3
#
#
#
# Elastic Constant Matrix: (Units=GPa)
#
#
# Indices 1 2 3 4 5 6 
#
# 1 67.7502 48.8273 47.6436 0.0000 0.0000 -4.2267
# 2 48.8273 67.7502 47.6436 0.0000 0.0000 4.2267
# 3 47.6436 47.6436 149.5187 0.0000 0.0000 0.0000
# 4 0.0000 0.0000 0.0000 -34.0442 0.0000 0.0000
# 5 0.0000 0.0000 0.0000 0.0000 -34.0442 0.0000
# 6 -4.2267 4.2267 0.0000 0.0000 0.0000 26.7414
#
#
#
# Elastic Compliance Matrix: (Units=1/GPa)
#
#
# Indices 1 2 3 4 5 6 
#
# 1 0.034230 -0.022631 -0.003696 0.000000 0.000000 0.008987
# 2 -0.022631 0.034230 -0.003696 0.000000 0.000000 -0.008987
# 3 -0.003696 -0.003696 0.009044 0.000000 0.000000 0.000000
# 4 0.000000 0.000000 0.000000 -0.029374 0.000000 0.000000
# 5 0.000000 0.000000 0.000000 0.000000 -0.029374 0.000000
# 6 0.008987 -0.008987 0.000000 0.000000 0.000000 0.040236
#
#
# Mechanical properties :
#
#
# Convention : Reuss Voigt Hill
#
# Bulk Modulus (GPa) = 57.28167 63.69424 60.48796
# Shear Modulus (GPa) = 40.04568 1.12423 20.58496
#
# Velocity S-wave (km/s) = 4.34112 0.72736 3.11242
# Velocity P-wave (km/s) = 7.21689 5.53892 6.43285
#
# Compressibility (1/GPa) = 0.01745759
#
# Stress axis : x y z
#
# Youngs Moduli (GPa) = 29.21423 29.21423 110.57623
#
# Poissons Ratio (x) = 0.66115 0.40869
# Poissons Ratio (y) = 0.66115 0.40869
# Poissons Ratio (z) = 0.10797 0.10797
#
# Static dielectric constant tensor:
#      x y z
#    x 1.791900 0.000000 0.000000 
#    y 0.000000 1.791900 0.000000 
#    z 0.000000 0.000000 1.892020 
# 
# From -- ./inp_files/5925.got.cif
#   From: 2010.05.17/outbox.cif.g08.bks.cpg/sg87_3_cif.got.tgz:5925.got - 2010.06.03 19:07:00.
