data_PCOD9545543
_publ_section_title
;
Structure prediction by ZEFSAII (Michael W. Deem and Ramdas Pophale) SiO2 
 PCOD9545543
Probable space group: I 4/M
;
_chemical_formula_sum "Si O2"
_cell_formula_units_Z 96
_cell_length_a 24.547111
_cell_length_b 24.547111
_cell_length_c 8.720167
_cell_angle_alpha 90.000000
_cell_angle_beta 90.000000
_cell_angle_gamma 90.000000
_cell_volume 5254.429569
_symmetry_space_group_name_H-M "I 4/M"
_symmetry_group_IT_number 87
_symmetry_cell_setting 'tetragonal'
loop_
_space_group_symop_operation_xyz
x,y,z
-y,x,z
-x,-y,z
y,-x,z
-x,-y,-z
y,-x,-z
x,y,-z
-y,x,-z
1/2+x,1/2+y,1/2+z
1/2-y,1/2+x,1/2+z
1/2-x,1/2-y,1/2+z
1/2+y,1/2-x,1/2+z
1/2-x,1/2-y,1/2-z
1/2+y,1/2-x,1/2-z
1/2+x,1/2+y,1/2-z
1/2-y,1/2+x,1/2-z
loop_
_atom_site_type_symbol
_atom_site_label
_atom_site_fract_x
_atom_site_fract_y
_atom_site_fract_z
Si Si1 0.845732 0.946943 0.815029
Si Si2 0.646858 0.429166 0.315518
Si Si3 0.725446 0.953370 0.685061
Si Si4 0.359298 0.856201 0.822726
Si Si5 0.540296 0.934822 0.670817
Si Si6 0.922645 0.733083 0.316972
O O1 0.887710 0.900240 0.766824
O O2 0.786909 0.941306 0.737173
O O3 0.866558 0.007877 0.778836
O O4 0.838997 0.943850 0.000000
O O5 0.652084 0.425385 0.500000
O O6 0.705411 0.416660 0.242806
O O7 0.721078 0.953496 0.500000
O O8 0.686554 0.904051 0.740413
O O9 0.713671 0.016123 0.736665
O O10 0.390492 0.913693 0.820244
O O11 0.303853 0.872250 0.738169
O O12 0.347529 0.841515 0.000000
O O13 0.516474 0.934472 0.500000
O O14 0.492633 0.931101 0.794249
O O15 0.923992 0.732464 0.500000
#
# Coordination Sequence:
#
# PCOD9545543 Si02
#       6
#    16  16  16  16  16  16
#     4   9  18  33  55  81 107 135 165 200 245 299
#     4   9  18  34  55  80 109 136 164 200 245 299
#     4   9  19  35  52  72 102 136 170 212 258 300
#     4  10  20  33  49  69  95 131 172 213 256 300
#     4  10  19  30  44  64  92 124 161 208 262 311
#     4  10  20  34  53  76 102 134 172 213 256 302
#
# _framework density 18.270299000000001
#
# number of rings (size 3 to 8) (size 9 to 14) (size 15 to 20)
#    0.000    2.500    0.000    2.500    0.000    5.000 
#    0.000    2.500    0.000    0.000    0.000    4.667 
#    0.000    0.000    0.000    0.000    0.000    0.000 
#
# Total GULP energy -267470.660965 kJ/mol
# GULP energy per Si atom -5572.305437 kJ/mol
# Density = 1.822871 g / cm^3
# Si number density = 18.270299 Si / 1000 Ang^3
#
#
#
# Elastic Constant Matrix: (Units=GPa)
#
#
# Indices 1 2 3 4 5 6 
#
# 1 68.3485 81.2079 16.7662 0.0000 0.0000 -1.6968
# 2 81.2079 68.3485 16.7662 0.0000 0.0000 1.6968
# 3 16.7662 16.7662 14.3819 0.0000 0.0000 0.0000
# 4 0.0000 0.0000 0.0000 19.1595 0.0000 0.0000
# 5 0.0000 0.0000 0.0000 0.0000 19.1595 0.0000
# 6 -1.6968 1.6968 0.0000 0.0000 0.0000 38.2088
#
#
#
# Elastic Compliance Matrix: (Units=1/GPa)
#
#
# Indices 1 2 3 4 5 6 
#
# 1 -0.033905 0.042958 -0.010553 0.000000 0.000000 -0.003413
# 2 0.042958 -0.033905 -0.010553 0.000000 0.000000 0.003413
# 3 -0.010553 -0.010553 0.094138 0.000000 0.000000 0.000000
# 4 0.000000 0.000000 0.000000 0.052193 0.000000 0.000000
# 5 0.000000 0.000000 0.000000 0.000000 0.052193 0.000000
# 6 -0.003413 0.003413 0.000000 0.000000 0.000000 0.025869
#
#
# Mechanical properties :
#
#
# Convention : Reuss Voigt Hill
#
# Bulk Modulus (GPa) = 14.27973 42.28440 28.28206
# Shear Modulus (GPa) = 36.70444 17.72816 27.21630
#
# Velocity S-wave (km/s) = 4.48701 3.11839 3.86378
# Velocity P-wave (km/s) = 5.88873 6.01330 5.95134
#
# Compressibility (1/GPa) = 0.07002935
#
# Stress axis : x y z
#
# Youngs Moduli (GPa) = -29.49384 -29.49384 10.62272
#
# Poissons Ratio (x) = 1.26700 0.11211
# Poissons Ratio (y) = 1.26700 0.11211
# Poissons Ratio (z) = -0.31126 -0.31126
#
# Static dielectric constant tensor:
#      x y z
#    x 1.634620 0.000000 0.000000 
#    y 0.000000 1.634620 0.000000 
#    z 0.000000 0.000000 1.642880 
# 
# From -- ./inp_files/1357.got.cif
#   From: 2010.05.17/outbox.cif.g08.bks.cpg/sg87_1_cif.got.tgz:1357.got - 2010.06.03 19:07:00.
