data_PCOD9545053
_publ_section_title
;
Structure prediction by ZEFSAII (Michael W. Deem and Ramdas Pophale) SiO2 
 PCOD9545053
Probable space group: P 42/N
;
_chemical_formula_sum "Si O2"
_cell_formula_units_Z 42
_cell_length_a 13.779480
_cell_length_b 13.779480
_cell_length_c 8.893028
_cell_angle_alpha 90.000000
_cell_angle_beta 90.000000
_cell_angle_gamma 90.000000
_cell_volume 1688.555413
_symmetry_space_group_name_H-M "P 42/N"
_symmetry_group_IT_number 86
_space_group.IT_coordinate_system_code '2'
_symmetry_cell_setting 'tetragonal'
loop_
_space_group_symop_operation_xyz
x,y,z
-y,1/2+x,1/2+z
1/2-x,1/2-y,z
1/2+y,-x,1/2+z
-x,-y,-z
y,1/2-x,1/2-z
1/2+x,1/2+y,-z
1/2-y,x,1/2-z
loop_
_atom_site_type_symbol
_atom_site_label
_atom_site_fract_x
_atom_site_fract_y
_atom_site_fract_z
Si Si1 0.619423 0.523019 0.377547
Si Si2 0.184630 0.846939 0.049842
Si Si3 0.022014 0.857809 0.803195
Si Si4 0.467355 0.693778 0.303749
Si Si5 0.440786 0.159803 0.209492
Si Si6 0.750000 0.750000 0.750000
O O1 0.576298 0.423834 0.314083
O O2 0.547744 0.611612 0.337333
O O3 0.725130 0.522493 0.299377
O O4 0.623310 0.514311 0.556342
O O5 0.250000 0.750000 0.061985
O O6 0.124815 0.850898 0.209627
O O7 0.090941 0.838256 0.941172
O O8 0.250226 0.922015 0.948863
O O9 0.922047 0.916890 0.831688
O O10 0.994038 0.754738 0.734719
O O11 0.334960 0.200287 0.156975
#
# Coordination Sequence:
#
# PCOD9545053 Si02
#       6
#     8   8   8   8   8   2
#     4  11  25  46  70 108 152 204 260 327 397 478
#     4  11  25  49  73 111 151 202 258 323 397 478
#     4  10  23  42  73 105 145 189 257 316 389 471
#     4  11  27  47  77 110 159 206 264 332 400 484
#     4  10  20  43  69 104 146 192 256 316 394 472
#     4   8  20  36  64 110 140 208 248 320 390 480
#
# _framework density 24.873331
#
# number of rings (size 3 to 8) (size 9 to 14) (size 15 to 20)
#    0.000    1.524    1.905    1.143    2.667    9.524 
#   10.286    0.000    0.000    0.000    0.000    0.000 
#    0.000    0.000    0.000    0.000    0.000    0.000 
#
# Total GULP energy -234730.912286 kJ/mol
# GULP energy per Si atom -5588.831245 kJ/mol
# Density = 2.481672 g / cm^3
# Si number density = 24.873331 Si / 1000 Ang^3
#
#
#
# Elastic Constant Matrix: (Units=GPa)
#
#
# Indices 1 2 3 4 5 6 
#
# 1 136.5891 74.9178 64.6219 0.0000 0.0000 -8.8300
# 2 74.9178 136.5891 64.6219 0.0000 0.0000 8.8300
# 3 64.6219 64.6219 126.9969 0.0000 0.0000 0.0000
# 4 0.0000 0.0000 0.0000 31.1276 0.0000 0.0000
# 5 0.0000 0.0000 0.0000 0.0000 31.1276 0.0000
# 6 -8.8300 8.8300 0.0000 0.0000 0.0000 70.4317
#
#
#
# Elastic Compliance Matrix: (Units=1/GPa)
#
#
# Indices 1 2 3 4 5 6 
#
# 1 0.011840 -0.004979 -0.003491 0.000000 0.000000 0.002109
# 2 -0.004979 0.011840 -0.003491 0.000000 0.000000 -0.002109
# 3 -0.003491 -0.003491 0.011427 0.000000 0.000000 0.000000
# 4 0.000000 0.000000 0.000000 0.032126 0.000000 0.000000
# 5 0.000000 0.000000 0.000000 0.000000 0.032126 0.000000
# 6 0.002109 -0.002109 0.000000 0.000000 0.000000 0.014727
#
#
# Mechanical properties :
#
#
# Convention : Reuss Voigt Hill
#
# Bulk Modulus (GPa) = 89.40854 89.83314 89.62084
# Shear Modulus (GPa) = 35.27647 39.60493 37.44070
#
# Velocity S-wave (km/s) = 3.77004 3.99465 3.88397
# Velocity P-wave (km/s) = 7.41448 7.58096 7.49818
#
# Compressibility (1/GPa) = 0.01118461
#
# Stress axis : x y z
#
# Youngs Moduli (GPa) = 84.45854 84.45854 87.50885
#
# Poissons Ratio (x) = 0.42049 0.30553
# Poissons Ratio (y) = 0.42049 0.30553
# Poissons Ratio (z) = 0.29488 0.29488
#
# Static dielectric constant tensor:
#      x y z
#    x 2.074730 0.000000 0.000000 
#    y 0.000000 2.074730 0.000000 
#    z 0.000000 0.000000 1.943310 
# 
# From -- ./inp_files/1192.got.cif
#   From: 2010.05.17/outbox.cif.g08.bks.cpg/sg86_1_cif.got.tgz:1192.got - 2010.06.03 19:03:11.
