data_PCOD9545673
_publ_section_title
;
Structure prediction by ZEFSAII (Michael W. Deem and Ramdas Pophale) SiO2 
 PCOD9545673
Probable space group: I 4/M
;
_chemical_formula_sum "Si O2"
_cell_formula_units_Z 64
_cell_length_a 11.577985
_cell_length_b 11.577985
_cell_length_c 27.865097
_cell_angle_alpha 90.000000
_cell_angle_beta 90.000000
_cell_angle_gamma 90.000000
_cell_volume 3735.308915
_symmetry_space_group_name_H-M "I 4/M"
_symmetry_group_IT_number 87
_symmetry_cell_setting 'tetragonal'
loop_
_space_group_symop_operation_xyz
x,y,z
-y,x,z
-x,-y,z
y,-x,z
-x,-y,-z
y,-x,-z
x,y,-z
-y,x,-z
1/2+x,1/2+y,1/2+z
1/2-y,1/2+x,1/2+z
1/2-x,1/2-y,1/2+z
1/2+y,1/2-x,1/2+z
1/2-x,1/2-y,1/2-z
1/2+y,1/2-x,1/2-z
1/2+x,1/2+y,1/2-z
1/2-y,1/2+x,1/2-z
loop_
_atom_site_type_symbol
_atom_site_label
_atom_site_fract_x
_atom_site_fract_y
_atom_site_fract_z
Si Si1 0.558666 0.683582 0.556779
Si Si2 0.680797 0.562417 0.311532
Si Si3 0.127340 0.543566 0.632991
Si Si4 0.926960 0.337284 0.269968
O O1 0.427682 0.639190 0.566790
O O2 0.566487 0.707545 0.500000
O O3 0.585262 0.794503 0.588927
O O4 0.569144 0.638900 0.320834
O O5 0.797272 0.560925 0.342956
O O6 0.717817 0.593096 0.257106
O O7 0.107390 0.638234 0.675368
O O8 0.000000 0.500000 0.619263
O O9 0.862985 0.438522 0.240157
#
# Coordination Sequence:
#
# PCOD9545673 Si02
#       4
#    16  16  16  16
#     4   9  19  37  58  79 102 127 164 216 265 305
#     4  10  20  33  51  73  99 137 183 216 246 289
#     4  11  19  31  49  75 106 136 168 201 255 309
#     4   9  16  32  45  68 104 139 166 199 253 292
#
# _framework density 17.133790000000001
#
# number of rings (size 3 to 8) (size 9 to 14) (size 15 to 20)
#    0.000    2.250    5.000    2.250    0.000    6.500 
#    4.500    0.000    0.000    0.000    0.000    0.000 
#    0.000    0.000    0.000   24.750    0.000    0.000 
#
# Total GULP energy -178138.620572 kJ/mol
# GULP energy per Si atom -5566.831893 kJ/mol
# Density = 1.709479 g / cm^3
# Si number density = 17.133790 Si / 1000 Ang^3
#
#
#
# Elastic Constant Matrix: (Units=GPa)
#
#
# Indices 1 2 3 4 5 6 
#
# 1 69.8324 23.0718 32.2759 0.0000 0.0000 2.8741
# 2 23.0718 69.8324 32.2759 0.0000 0.0000 -2.8741
# 3 32.2759 32.2759 93.6470 0.0000 0.0000 0.0000
# 4 0.0000 0.0000 0.0000 27.8533 0.0000 0.0000
# 5 0.0000 0.0000 0.0000 0.0000 27.8533 0.0000
# 6 2.8741 -2.8741 0.0000 0.0000 0.0000 -4.6069
#
#
#
# Elastic Compliance Matrix: (Units=1/GPa)
#
#
# Indices 1 2 3 4 5 6 
#
# 1 0.017008 -0.002855 -0.004878 0.000000 0.000000 0.012391
# 2 -0.002855 0.017008 -0.004878 0.000000 0.000000 -0.012391
# 3 -0.004878 -0.004878 0.014041 0.000000 0.000000 0.000000
# 4 0.000000 0.000000 0.000000 0.035902 0.000000 0.000000
# 5 0.000000 0.000000 0.000000 0.000000 0.035902 0.000000
# 6 0.012391 -0.012391 0.000000 0.000000 0.000000 -0.201603
#
#
# Mechanical properties :
#
#
# Convention : Reuss Voigt Hill
#
# Bulk Modulus (GPa) = 43.79198 45.39543 44.59371
# Shear Modulus (GPa) = -102.22937 19.93248 -41.14844
#
# Velocity S-wave (km/s) = -7.73272 3.41448 -4.90592
# Velocity P-wave (km/s) = 7.35610 6.48823 2.45103
#
# Compressibility (1/GPa) = 0.02283523
#
# Stress axis : x y z
#
# Youngs Moduli (GPa) = 58.79698 58.79698 71.22104
#
# Poissons Ratio (x) = 0.16784 0.34741
# Poissons Ratio (y) = 0.16784 0.34741
# Poissons Ratio (z) = 0.28681 0.28681
#
# Static dielectric constant tensor:
#      x y z
#    x 1.607590 0.000000 0.000000 
#    y 0.000000 1.607590 0.000000 
#    z 0.000000 0.000000 1.646440 
# 
# From -- ./inp_files/6123.got.cif
#   From: 2010.05.17/outbox.cif.g08.bks.cpg/sg87_4_cif.got.tgz:6123.got - 2010.06.03 19:07:00.
