data_PCOD9545177
_publ_section_title
;
Structure prediction by ZEFSAII (Michael W. Deem and Ramdas Pophale) SiO2 
 PCOD9545177
Probable space group: P 42/N
;
_chemical_formula_sum "Si O2"
_cell_formula_units_Z 40
_cell_length_a 8.425466
_cell_length_b 8.425466
_cell_length_c 25.053527
_cell_angle_alpha 90.000000
_cell_angle_beta 90.000000
_cell_angle_gamma 90.000000
_cell_volume 1778.511733
_symmetry_space_group_name_H-M "P 42/N"
_symmetry_group_IT_number 86
_space_group.IT_coordinate_system_code '2'
_symmetry_cell_setting 'tetragonal'
loop_
_space_group_symop_operation_xyz
x,y,z
-y,1/2+x,1/2+z
1/2-x,1/2-y,z
1/2+y,-x,1/2+z
-x,-y,-z
y,1/2-x,1/2-z
1/2+x,1/2+y,-z
1/2-y,x,1/2-z
loop_
_atom_site_type_symbol
_atom_site_label
_atom_site_fract_x
_atom_site_fract_y
_atom_site_fract_z
Si Si1 0.682808 0.928070 0.117187
Si Si2 0.789565 0.992296 0.231007
Si Si3 0.971415 0.782528 0.723582
Si Si4 0.564063 0.312895 0.503774
Si Si5 0.701594 0.066547 0.887532
O O1 0.750000 0.750000 0.122323
O O2 0.742676 0.017737 0.169985
O O3 0.490632 0.936223 0.117673
O O4 0.741215 0.993621 0.060230
O O5 0.921510 0.853655 0.234479
O O6 0.865905 0.138062 0.260666
O O7 0.919365 0.658838 0.768219
O O8 0.975670 0.725970 0.662975
O O9 0.750000 0.250000 0.504891
O O10 0.500000 0.500000 0.500000
O O11 0.505318 0.249340 0.446148
O O12 0.750000 0.250000 0.884277
#
# Coordination Sequence:
#
# PCOD9545177 Si02
#       5
#     8   8   8   8   8
#     4  11  21  38  64 100 123 159 223 273 311 398
#     4  11  21  38  62  92 125 159 215 263 314 382
#     4  11  26  41  58  92 129 164 210 261 327 396
#     4   9  21  42  63  91 128 171 220 269 332 404
#     4  10  22  41  67  84 128 174 204 258 336 389
#
# _framework density 22.490715999999999
#
# number of rings (size 3 to 8) (size 9 to 14) (size 15 to 20)
#    0.000    1.600    4.000    0.000    5.600    3.200 
#    3.600    9.000    0.000    0.000    0.000    0.000 
#    0.000    0.000    0.000    0.000    0.000    0.000 
#
# Total GULP energy -223028.926553 kJ/mol
# GULP energy per Si atom -5575.723164 kJ/mol
# Density = 2.243953 g / cm^3
# Si number density = 22.490716 Si / 1000 Ang^3
#
#
#
# Elastic Constant Matrix: (Units=GPa)
#
#
# Indices 1 2 3 4 5 6 
#
# 1 23.5250 43.4919 14.5027 0.0000 0.0000 -20.4945
# 2 43.4919 23.5250 14.5027 0.0000 0.0000 20.4945
# 3 14.5027 14.5027 232.7183 0.0000 0.0000 0.0000
# 4 0.0000 0.0000 0.0000 19.2179 0.0000 0.0000
# 5 0.0000 0.0000 0.0000 0.0000 19.2179 0.0000
# 6 -20.4945 20.4945 0.0000 0.0000 0.0000 38.6959
#
#
#
# Elastic Compliance Matrix: (Units=1/GPa)
#
#
# Indices 1 2 3 4 5 6 
#
# 1 -0.004330 0.019665 -0.000956 0.000000 0.000000 -0.012708
# 2 0.019665 -0.004330 -0.000956 0.000000 0.000000 0.012708
# 3 -0.000956 -0.000956 0.004416 0.000000 0.000000 0.000000
# 4 0.000000 0.000000 0.000000 0.052035 0.000000 0.000000
# 5 0.000000 0.000000 0.000000 0.000000 0.052035 0.000000
# 6 -0.012708 0.012708 0.000000 0.000000 0.000000 0.012381
#
#
# Mechanical properties :
#
#
# Convention : Reuss Voigt Hill
#
# Bulk Modulus (GPa) = 31.98577 47.19590 39.59084
# Shear Modulus (GPa) = 57.39111 29.24440 43.31776
#
# Velocity S-wave (km/s) = 5.05698 3.60986 4.39342
# Velocity P-wave (km/s) = 6.95342 6.19718 6.58616
#
# Compressibility (1/GPa) = 0.03126390
#
# Stress axis : x y z
#
# Youngs Moduli (GPa) = -230.95877 -230.95877 226.44137
#
# Poissons Ratio (x) = 4.54180 0.21640
# Poissons Ratio (y) = 4.54180 0.21640
# Poissons Ratio (z) = -0.22072 -0.22072
#
# Static dielectric constant tensor:
#      x y z
#    x 1.970690 0.000000 0.000000 
#    y 0.000000 1.970690 0.000000 
#    z 0.000000 0.000000 1.815870 
# 
# From -- ./inp_files/4464.got.cif
#   From: 2010.05.17/outbox.cif.g08.bks.cpg/sg86_3_cif.got.tgz:4464.got - 2010.06.03 19:03:11.
