data_PCOD9545034
_publ_section_title
;
Structure prediction by ZEFSAII (Michael W. Deem and Ramdas Pophale) SiO2 
 PCOD9545034
Probable space group: P 42/N
;
_chemical_formula_sum "Si O2"
_cell_formula_units_Z 48
_cell_length_a 8.148610
_cell_length_b 8.148610
_cell_length_c 33.743133
_cell_angle_alpha 90.000000
_cell_angle_beta 90.000000
_cell_angle_gamma 90.000000
_cell_volume 2240.538799
_symmetry_space_group_name_H-M "P 42/N"
_symmetry_group_IT_number 86
_space_group.IT_coordinate_system_code '2'
_symmetry_cell_setting 'tetragonal'
loop_
_space_group_symop_operation_xyz
x,y,z
-y,1/2+x,1/2+z
1/2-x,1/2-y,z
1/2+y,-x,1/2+z
-x,-y,-z
y,1/2-x,1/2-z
1/2+x,1/2+y,-z
1/2-y,x,1/2-z
loop_
_atom_site_type_symbol
_atom_site_label
_atom_site_fract_x
_atom_site_fract_y
_atom_site_fract_z
Si Si1 0.503175 0.141430 0.255037
Si Si2 0.527784 0.518918 0.839887
Si Si3 0.250000 0.250000 0.385322
Si Si4 0.750000 0.250000 0.194004
Si Si5 0.416887 0.150600 0.583984
Si Si6 0.739005 0.438132 0.474166
Si Si7 0.546922 0.113461 0.060749
O O1 0.334654 0.047465 0.243597
O O2 0.645007 0.129952 0.222484
O O3 0.558930 0.074671 0.297792
O O4 0.688073 0.608158 0.856469
O O5 0.384572 0.650988 0.830602
O O6 0.461449 0.420758 0.877237
O O7 0.311999 0.405569 0.411151
O O8 0.250000 0.250000 0.587792
O O9 0.569154 0.276348 0.580191
O O10 0.386797 0.042002 0.544687
O O11 0.750000 0.250000 0.462439
O O12 0.724942 0.447714 0.521487
O O13 0.566484 0.497836 0.455902
#
# Coordination Sequence:
#
# PCOD9545034 Si02
#       7
#     8   8   4   4   8   8   8
#     4   9  19  39  64  93 121 161 205 250 312 387
#     4  11  22  40  64  94 125 162 200 268 309 380
#     4  12  24  38  63  98 120 164 214 258 325 370
#     4  10  20  40  66  92 122 162 200 248 312 390
#     4  10  23  43  59  90 127 165 211 266 325 369
#     4  10  22  40  62  83 122 170 213 266 314 382
#     4  10  24  38  60  90 121 167 215 265 313 387
#
# _framework density 21.423416
#
# number of rings (size 3 to 8) (size 9 to 14) (size 15 to 20)
#    0.000    1.833    0.000    4.000    8.167    0.667 
#   13.500    0.000    0.000    0.000    0.000    0.000 
#    0.000    0.000    0.000    0.000    0.000    0.000 
#
# Total GULP energy -268081.635633 kJ/mol
# GULP energy per Si atom -5585.034076 kJ/mol
# Density = 2.137465 g / cm^3
# Si number density = 21.423416 Si / 1000 Ang^3
#
#
#
# Elastic Constant Matrix: (Units=GPa)
#
#
# Indices 1 2 3 4 5 6 
#
# 1 70.1401 14.1570 25.1066 0.0000 0.0000 0.1982
# 2 14.1570 70.1401 25.1066 0.0000 0.0000 -0.1982
# 3 25.1066 25.1066 105.0313 0.0000 0.0000 0.0000
# 4 0.0000 0.0000 0.0000 -428.6754 0.0000 0.0000
# 5 0.0000 0.0000 0.0000 0.0000 -428.6754 0.0000
# 6 0.1982 -0.1982 0.0000 0.0000 0.0000 29.5062
#
#
#
# Elastic Compliance Matrix: (Units=1/GPa)
#
#
# Indices 1 2 3 4 5 6 
#
# 1 0.015848 -0.002016 -0.003306 0.000000 0.000000 -0.000120
# 2 -0.002016 0.015848 -0.003306 0.000000 0.000000 0.000120
# 3 -0.003306 -0.003306 0.011102 0.000000 0.000000 0.000000
# 4 0.000000 0.000000 0.000000 -0.002333 0.000000 0.000000
# 5 0.000000 0.000000 0.000000 0.000000 -0.002333 0.000000
# 6 -0.000120 0.000120 0.000000 0.000000 0.000000 0.033893
#
#
# Mechanical properties :
#
#
# Convention : Reuss Voigt Hill
#
# Bulk Modulus (GPa) = 39.15343 41.56134 40.35739
# Shear Modulus (GPa) = 51.12729 -153.50617 -51.18944
#
# Velocity S-wave (km/s) = 4.89050 -8.47402 -4.89347
# Velocity P-wave (km/s) = 7.08554 8.73517 3.61236
#
# Compressibility (1/GPa) = 0.02554054
#
# Stress axis : x y z
#
# Youngs Moduli (GPa) = 63.09997 63.09997 90.07611
#
# Poissons Ratio (x) = 0.12718 0.29783
# Poissons Ratio (y) = 0.12718 0.29783
# Poissons Ratio (z) = 0.20864 0.20864
#
# Static dielectric constant tensor:
#      x y z
#    x 1.784160 0.000000 0.000000 
#    y 0.000000 1.784160 0.000000 
#    z 0.000000 0.000000 1.771060 
# 
# From -- ./inp_files/5223.got.cif
#   From: 2010.05.17/outbox.cif.g08.bks.cpg/sg86_3_cif.got.tgz:5223.got - 2010.06.03 19:03:11.
