data_PCOD9545820
_publ_section_title
;
Structure prediction by ZEFSAII (Michael W. Deem and Ramdas Pophale) SiO2 
 PCOD9545820
Probable space group: I 4/M
;
_chemical_formula_sum "Si O2"
_cell_formula_units_Z 96
_cell_length_a 24.724447
_cell_length_b 24.724447
_cell_length_c 8.589455
_cell_angle_alpha 90.000000
_cell_angle_beta 90.000000
_cell_angle_gamma 90.000000
_cell_volume 5250.719063
_symmetry_space_group_name_H-M "I 4/M"
_symmetry_group_IT_number 87
_symmetry_cell_setting 'tetragonal'
loop_
_space_group_symop_operation_xyz
x,y,z
-y,x,z
-x,-y,z
y,-x,z
-x,-y,-z
y,-x,-z
x,y,-z
-y,x,-z
1/2+x,1/2+y,1/2+z
1/2-y,1/2+x,1/2+z
1/2-x,1/2-y,1/2+z
1/2+y,1/2-x,1/2+z
1/2-x,1/2-y,1/2-z
1/2+y,1/2-x,1/2-z
1/2+x,1/2+y,1/2-z
1/2-y,1/2+x,1/2-z
loop_
_atom_site_type_symbol
_atom_site_label
_atom_site_fract_x
_atom_site_fract_y
_atom_site_fract_z
Si Si1 0.856110 0.233353 0.814038
Si Si2 0.648600 0.148312 0.187022
Si Si3 0.439212 0.637882 0.315956
Si Si4 0.143929 0.942302 0.316572
Si Si5 0.560741 0.059494 0.812013
Si Si6 0.772265 0.144875 0.188824
O O1 0.865229 0.290804 0.736068
O O2 0.904629 0.191709 0.780328
O O3 0.801555 0.201231 0.764555
O O4 0.853330 0.241187 0.000000
O O5 0.605384 0.103419 0.240098
O O6 0.710435 0.139501 0.240884
O O7 0.649207 0.145425 0.000000
O O8 0.433169 0.627416 0.500000
O O9 0.411372 0.589063 0.223751
O O10 0.500888 0.645325 0.270448
O O11 0.148958 0.950503 0.500000
O O12 0.191268 0.903119 0.255389
O O13 0.500787 0.073502 0.749739
O O14 0.559212 0.058088 0.000000
O O15 0.774404 0.142674 0.000000
#
# Coordination Sequence:
#
# PCOD9545820 Si02
#       6
#    16  16  16  16  16  16
#     4   9  19  34  55  80 108 143 182 219 264 319
#     4  10  21  35  56  83 110 140 180 223 267 322
#     4  10  21  39  58  78 109 150 185 220 274 336
#     4  11  22  36  56  84 111 140 184 236 274 311
#     4  10  21  38  57  78 104 138 174 218 269 318
#     4   9  19  37  55  77 112 151 181 213 267 331
#
# _framework density 18.283211000000001
#
# number of rings (size 3 to 8) (size 9 to 14) (size 15 to 20)
#    0.000    2.167    0.000    4.500    0.000    7.000 
#    0.000    6.667    0.000    0.000    0.000    0.000 
#    0.000    0.000    0.000    0.000    0.000    0.000 
#
# Total GULP energy -267947.000988 kJ/mol
# GULP energy per Si atom -5582.229187 kJ/mol
# Density = 1.824160 g / cm^3
# Si number density = 18.283211 Si / 1000 Ang^3
#
#
#
# Elastic Constant Matrix: (Units=GPa)
#
#
# Indices 1 2 3 4 5 6 
#
# 1 156.6200 23.3760 8.0517 0.0000 0.0000 1.1447
# 2 23.3760 156.6200 8.0517 0.0000 0.0000 -1.1447
# 3 8.0517 8.0517 14.1450 0.0000 0.0000 0.0000
# 4 0.0000 0.0000 0.0000 26.0989 0.0000 0.0000
# 5 0.0000 0.0000 0.0000 0.0000 26.0989 0.0000
# 6 1.1447 -1.1447 0.0000 0.0000 0.0000 24.0091
#
#
#
# Elastic Compliance Matrix: (Units=1/GPa)
#
#
# Indices 1 2 3 4 5 6 
#
# 1 0.006682 -0.000829 -0.003332 0.000000 0.000000 -0.000358
# 2 -0.000829 0.006682 -0.003332 0.000000 0.000000 0.000358
# 3 -0.003332 -0.003332 0.074490 0.000000 0.000000 0.000000
# 4 0.000000 0.000000 0.000000 0.038316 0.000000 0.000000
# 5 0.000000 0.000000 0.000000 0.000000 0.038316 0.000000
# 6 -0.000358 0.000358 0.000000 0.000000 0.000000 0.041685
#
#
# Mechanical properties :
#
#
# Convention : Reuss Voigt Hill
#
# Bulk Modulus (GPa) = 13.72332 45.14932 29.43632
# Shear Modulus (GPa) = 20.37104 34.43511 27.40307
#
# Velocity S-wave (km/s) = 3.34158 4.34456 3.87565
# Velocity P-wave (km/s) = 4.73397 7.06505 6.01354
#
# Compressibility (1/GPa) = 0.07286867
#
# Stress axis : x y z
#
# Youngs Moduli (GPa) = 149.64497 149.64497 13.42470
#
# Poissons Ratio (x) = 0.12401 0.04473
# Poissons Ratio (y) = 0.12401 0.04473
# Poissons Ratio (z) = 0.49864 0.49864
#
# Static dielectric constant tensor:
#      x y z
#    x 1.613190 0.000000 0.000000 
#    y 0.000000 1.613190 0.000000 
#    z 0.000000 0.000000 1.618400 
# 
# From -- ./inp_files/1369.got.cif
#   From: 2010.05.17/outbox.cif.g08.bks.cpg/sg87_1_cif.got.tgz:1369.got - 2010.06.03 19:07:00.
