data_PCOD9545191
_publ_section_title
;
Structure prediction by ZEFSAII (Michael W. Deem and Ramdas Pophale) SiO2 
 PCOD9545191
Probable space group: P 42/N
;
_chemical_formula_sum "Si O2"
_cell_formula_units_Z 38
_cell_length_a 8.505438
_cell_length_b 8.505438
_cell_length_c 24.209110
_cell_angle_alpha 90.000000
_cell_angle_beta 90.000000
_cell_angle_gamma 90.000000
_cell_volume 1751.346949
_symmetry_space_group_name_H-M "P 42/N"
_symmetry_group_IT_number 86
_space_group.IT_coordinate_system_code '2'
_symmetry_cell_setting 'tetragonal'
loop_
_space_group_symop_operation_xyz
x,y,z
-y,1/2+x,1/2+z
1/2-x,1/2-y,z
1/2+y,-x,1/2+z
-x,-y,-z
y,1/2-x,1/2-z
1/2+x,1/2+y,-z
1/2-y,x,1/2-z
loop_
_atom_site_type_symbol
_atom_site_label
_atom_site_fract_x
_atom_site_fract_y
_atom_site_fract_z
Si Si1 0.574824 0.308007 0.557300
Si Si2 0.926229 0.797207 0.329964
Si Si3 0.750000 0.250000 0.736907
Si Si4 0.573409 0.688441 0.557457
Si Si5 0.489807 0.660087 0.676941
Si Si6 0.250000 0.250000 0.250000
O O1 0.750000 0.250000 0.568994
O O2 0.460465 0.251504 0.606206
O O3 0.575352 0.498166 0.557954
O O4 0.520361 0.256764 0.496472
O O5 0.750000 0.750000 0.312638
O O6 0.085013 0.741229 0.297180
O O7 0.922991 0.986073 0.327466
O O8 0.761757 0.107242 0.780028
O O9 0.750000 0.750000 0.554098
O O10 0.501805 0.735453 0.616589
O O11 0.657660 0.642796 0.706483
#
# Coordination Sequence:
#
# PCOD9545191 Si02
#       6
#     8   8   4   8   8   2
#     4  10  22  43  68 100 138 178 235 298 364 428
#     4  11  25  45  70 101 143 190 236 302 366 439
#     4  12  26  42  66 104 136 186 238 290 368 442
#     4  10  22  42  67  97 133 180 231 294 364 435
#     4  11  25  42  67  98 136 179 235 298 361 436
#     4  12  20  44  68  92 132 184 224 296 366 428
#
# _framework density 21.697586000000001
#
# number of rings (size 3 to 8) (size 9 to 14) (size 15 to 20)
#    0.000    1.263    4.211    0.632    4.421    0.842 
#    3.789    0.000    0.000    0.000    0.000    0.000 
#    0.000    0.000    0.000    0.000    0.000    0.000 
#
# Total GULP energy -212067.613572 kJ/mol
# GULP energy per Si atom -5580.726673 kJ/mol
# Density = 2.164820 g / cm^3
# Si number density = 21.697586 Si / 1000 Ang^3
#
#
#
# Elastic Constant Matrix: (Units=GPa)
#
#
# Indices 1 2 3 4 5 6 
#
# 1 68.5087 18.6980 44.7478 0.0000 0.0000 5.4447
# 2 18.6980 68.5087 44.7478 0.0000 0.0000 -5.4447
# 3 44.7478 44.7478 191.7440 0.0000 0.0000 0.0000
# 4 0.0000 0.0000 0.0000 46.6531 0.0000 0.0000
# 5 0.0000 0.0000 0.0000 0.0000 46.6531 0.0000
# 6 5.4447 -5.4447 0.0000 0.0000 0.0000 31.6250
#
#
#
# Elastic Compliance Matrix: (Units=1/GPa)
#
#
# Indices 1 2 3 4 5 6 
#
# 1 0.017970 -0.002891 -0.003519 0.000000 0.000000 -0.003592
# 2 -0.002891 0.017970 -0.003519 0.000000 0.000000 0.003592
# 3 -0.003519 -0.003519 0.006858 0.000000 0.000000 0.000000
# 4 0.000000 0.000000 0.000000 0.021435 0.000000 0.000000
# 5 0.000000 0.000000 0.000000 0.000000 0.021435 0.000000
# 6 -0.003592 0.003592 0.000000 0.000000 0.000000 0.032857
#
#
# Mechanical properties :
#
#
# Convention : Reuss Voigt Hill
#
# Bulk Modulus (GPa) = 43.59440 60.57210 52.08325
# Shear Modulus (GPa) = 34.23992 39.69077 36.96534
#
# Velocity S-wave (km/s) = 3.97678 4.28164 4.13202
# Velocity P-wave (km/s) = 6.42042 7.24019 6.84259
#
# Compressibility (1/GPa) = 0.02293872
#
# Stress axis : x y z
#
# Youngs Moduli (GPa) = 55.64929 55.64929 145.82164
#
# Poissons Ratio (x) = 0.16091 0.51312
# Poissons Ratio (y) = 0.16091 0.51312
# Poissons Ratio (z) = 0.19582 0.19582
#
# Static dielectric constant tensor:
#      x y z
#    x 1.639790 0.000000 0.000000 
#    y 0.000000 1.639790 0.000000 
#    z 0.000000 0.000000 1.815370 
# 
# From -- ./inp_files/4552.got.cif
#   From: 2010.05.17/outbox.cif.g08.bks.cpg/sg86_3_cif.got.tgz:4552.got - 2010.06.03 19:03:11.
