data_PCOD9545941
_publ_section_title
;
Structure prediction by ZEFSAII (Michael W. Deem and Ramdas Pophale) SiO2 
 PCOD9545941
Probable space group: I 4/M
;
_chemical_formula_sum "Si O2"
_cell_formula_units_Z 104
_cell_length_a 17.880750
_cell_length_b 17.880750
_cell_length_c 17.793861
_cell_angle_alpha 90.000000
_cell_angle_beta 90.000000
_cell_angle_gamma 90.000000
_cell_volume 5689.074957
_symmetry_space_group_name_H-M "I 4/M"
_symmetry_group_IT_number 87
_symmetry_cell_setting 'tetragonal'
loop_
_space_group_symop_operation_xyz
x,y,z
-y,x,z
-x,-y,z
y,-x,z
-x,-y,-z
y,-x,-z
x,y,-z
-y,x,-z
1/2+x,1/2+y,1/2+z
1/2-y,1/2+x,1/2+z
1/2-x,1/2-y,1/2+z
1/2+y,1/2-x,1/2+z
1/2-x,1/2-y,1/2-z
1/2+y,1/2-x,1/2-z
1/2+x,1/2+y,1/2-z
1/2-y,1/2+x,1/2-z
loop_
_atom_site_type_symbol
_atom_site_label
_atom_site_fract_x
_atom_site_fract_y
_atom_site_fract_z
Si Si1 0.120162 0.510926 0.348064
Si Si2 0.686861 0.206134 0.814506
Si Si3 0.663888 0.655478 0.708414
Si Si4 0.578988 0.856823 0.807119
Si Si5 0.845728 0.549880 0.911583
Si Si6 0.487623 0.296813 0.345115
Si Si7 0.621786 0.474781 0.500000
O O1 0.110979 0.527394 0.259575
O O2 0.107446 0.423779 0.359330
O O3 0.066729 0.566129 0.393888
O O4 0.208632 0.524316 0.356486
O O5 0.669129 0.288562 0.783837
O O6 0.772572 0.193850 0.839491
O O7 0.674630 0.148907 0.742259
O O8 0.626178 0.188134 0.877356
O O9 0.574745 0.669302 0.711442
O O10 0.684127 0.572768 0.678666
O O11 0.519649 0.815282 0.861171
O O12 0.833886 0.540234 0.000000
O O13 0.468350 0.332736 0.424402
O O14 0.584718 0.556054 0.500000
#
# Coordination Sequence:
#
# PCOD9545941 Si02
#       7
#    16  16  16  16  16  16   8
#     4  11  21  33  57  85 118 161 195 241 294 345
#     4  10  22  40  63  87 122 157 200 247 301 352
#     4  11  22  38  63  90 109 151 205 248 289 359
#     4  11  18  35  57  83 117 157 194 237 293 351
#     4  11  23  36  58  90 121 158 197 240 295 358
#     4  12  22  38  57  85 116 156 206 245 296 361
#     4  11  24  38  52  76 121 164 192 250 319 352
#
# _framework density 18.280653000000001
#
# number of rings (size 3 to 8) (size 9 to 14) (size 15 to 20)
#    0.000    1.000    9.231    0.462    1.077    1.538 
#    1.385    0.000    1.692    0.923    0.000    0.000 
#    0.000    1.231    0.000    0.000    0.000    0.000 
#
# Total GULP energy -289476.924370 kJ/mol
# GULP energy per Si atom -5566.863930 kJ/mol
# Density = 1.823905 g / cm^3
# Si number density = 18.280653 Si / 1000 Ang^3
#
#
#
# Elastic Constant Matrix: (Units=GPa)
#
#
# Indices 1 2 3 4 5 6 
#
# 1 92.5466 15.2443 24.7217 0.0000 0.0000 -0.2323
# 2 15.2443 92.5466 24.7217 0.0000 0.0000 0.2323
# 3 24.7217 24.7217 80.3584 0.0000 0.0000 0.0000
# 4 0.0000 0.0000 0.0000 26.5661 0.0000 0.0000
# 5 0.0000 0.0000 0.0000 0.0000 26.5661 0.0000
# 6 -0.2323 0.2323 0.0000 0.0000 0.0000 27.5025
#
#
#
# Elastic Compliance Matrix: (Units=1/GPa)
#
#
# Indices 1 2 3 4 5 6 
#
# 1 0.011869 -0.001068 -0.003323 0.000000 0.000000 0.000109
# 2 -0.001068 0.011869 -0.003323 0.000000 0.000000 -0.000109
# 3 -0.003323 -0.003323 0.014489 0.000000 0.000000 0.000000
# 4 0.000000 0.000000 0.000000 0.037642 0.000000 0.000000
# 5 0.000000 0.000000 0.000000 0.000000 0.037642 0.000000
# 6 0.000109 -0.000109 0.000000 0.000000 0.000000 0.036362
#
#
# Mechanical properties :
#
#
# Convention : Reuss Voigt Hill
#
# Bulk Modulus (GPa) = 43.86001 43.86964 43.86483
# Shear Modulus (GPa) = 28.91833 29.51119 29.21476
#
# Velocity S-wave (km/s) = 3.98164 4.02224 4.00199
# Velocity P-wave (km/s) = 6.72180 6.75435 6.73809
#
# Compressibility (1/GPa) = 0.02279981
#
# Stress axis : x y z
#
# Youngs Moduli (GPa) = 84.25184 84.25184 69.01865
#
# Poissons Ratio (x) = 0.08996 0.22935
# Poissons Ratio (y) = 0.08996 0.22935
# Poissons Ratio (z) = 0.27997 0.27997
#
# Static dielectric constant tensor:
#      x y z
#    x 1.702340 0.000000 0.000000 
#    y 0.000000 1.702340 0.000000 
#    z 0.000000 0.000000 1.586740 
# 
# From -- ./inp_files/4530.got.cif
#   From: 2010.05.17/outbox.cif.g08.bks.cpg/sg87_3_cif.got.tgz:4530.got - 2010.06.03 19:07:00.
