data_PCOD9545377
_publ_section_title
;
Structure prediction by ZEFSAII (Michael W. Deem and Ramdas Pophale) SiO2 
 PCOD9545377
Probable space group: P 42/N
;
_chemical_formula_sum "Si O2"
_cell_formula_units_Z 34
_cell_length_a 12.202185
_cell_length_b 12.202185
_cell_length_c 10.356746
_cell_angle_alpha 90.000000
_cell_angle_beta 90.000000
_cell_angle_gamma 90.000000
_cell_volume 1542.050284
_symmetry_space_group_name_H-M "P 42/N"
_symmetry_group_IT_number 86
_space_group.IT_coordinate_system_code '2'
_symmetry_cell_setting 'tetragonal'
loop_
_space_group_symop_operation_xyz
x,y,z
-y,1/2+x,1/2+z
1/2-x,1/2-y,z
1/2+y,-x,1/2+z
-x,-y,-z
y,1/2-x,1/2-z
1/2+x,1/2+y,-z
1/2-y,x,1/2-z
loop_
_atom_site_type_symbol
_atom_site_label
_atom_site_fract_x
_atom_site_fract_y
_atom_site_fract_z
Si Si1 0.750000 0.750000 0.750000
Si Si2 0.489212 0.140319 0.862593
Si Si3 0.013959 0.187375 0.335180
Si Si4 0.010307 0.217683 0.610397
Si Si5 0.377599 0.784749 0.900600
O O1 0.804221 0.643592 0.816235
O O2 0.484765 0.192424 0.720498
O O3 0.364127 0.113261 0.896862
O O4 0.566316 0.032570 0.863181
O O5 0.551728 0.216101 0.967595
O O6 0.989018 0.257815 0.464377
O O7 0.944074 0.224133 0.211392
O O8 0.909062 0.139374 0.645048
O O9 0.250000 0.750000 0.918712
#
# Coordination Sequence:
#
# PCOD9545377 Si02
#       5
#     2   8   8   8   8
#     4  12  24  44  72  98 148 180 240 286 356 428
#     4  11  25  44  67 103 143 185 233 294 361 418
#     4  11  24  44  68 102 132 190 232 292 350 423
#     4  11  25  43  68 102 146 182 238 294 352 427
#     4  11  23  44  73 103 139 183 241 298 356 423
#
# _framework density 22.048566999999998
#
# number of rings (size 3 to 8) (size 9 to 14) (size 15 to 20)
#    0.000    0.941    2.353    5.647    6.588    4.235 
#    0.000    3.529    0.000    0.000    0.000    0.000 
#    0.000    0.000    0.000    0.000    0.000    0.000 
#
# Total GULP energy -189677.178556 kJ/mol
# GULP energy per Si atom -5578.740546 kJ/mol
# Density = 2.199838 g / cm^3
# Si number density = 22.048567 Si / 1000 Ang^3
#
#
#
# Elastic Constant Matrix: (Units=GPa)
#
#
# Indices 1 2 3 4 5 6 
#
# 1 85.6388 22.0337 54.5807 0.0000 0.0000 22.2119
# 2 22.0337 85.6388 54.5807 0.0000 0.0000 -22.2119
# 3 54.5807 54.5807 135.4753 0.0000 0.0000 0.0000
# 4 0.0000 0.0000 0.0000 27.5961 0.0000 0.0000
# 5 0.0000 0.0000 0.0000 0.0000 27.5961 0.0000
# 6 22.2119 -22.2119 0.0000 0.0000 0.0000 37.3734
#
#
#
# Elastic Compliance Matrix: (Units=1/GPa)
#
#
# Indices 1 2 3 4 5 6 
#
# 1 0.021290 -0.005590 -0.006325 0.000000 0.000000 -0.015975
# 2 -0.005590 0.021290 -0.006325 0.000000 0.000000 0.015975
# 3 -0.006325 -0.006325 0.012478 0.000000 0.000000 0.000000
# 4 0.000000 0.000000 0.000000 0.036237 0.000000 0.000000
# 5 0.000000 0.000000 0.000000 0.000000 0.036237 0.000000
# 6 -0.015975 0.015975 0.000000 0.000000 0.000000 0.045746
#
#
# Mechanical properties :
#
#
# Convention : Reuss Voigt Hill
#
# Bulk Modulus (GPa) = 53.82932 63.23812 58.53372
# Shear Modulus (GPa) = 23.15344 30.21698 26.68521
#
# Velocity S-wave (km/s) = 3.24406 3.70601 3.48270
# Velocity P-wave (km/s) = 6.20474 6.85975 6.54045
#
# Compressibility (1/GPa) = 0.01857724
#
# Stress axis : x y z
#
# Youngs Moduli (GPa) = 46.97069 46.97069 80.13983
#
# Poissons Ratio (x) = 0.26255 0.50691
# Poissons Ratio (y) = 0.26255 0.50691
# Poissons Ratio (z) = 0.29711 0.29711
#
# Static dielectric constant tensor:
#      x y z
#    x 1.886020 0.000000 0.000000 
#    y 0.000000 1.886020 0.000000 
#    z 0.000000 0.000000 1.832030 
# 
# From -- ./inp_files/1960.got.cif
#   From: 2010.05.17/outbox.cif.g08.bks.cpg/sg86_1_cif.got.tgz:1960.got - 2010.06.03 19:03:11.
