data_PCOD9545536
_publ_section_title
;
Structure prediction by ZEFSAII (Michael W. Deem and Ramdas Pophale) SiO2 
 PCOD9545536
Probable space group: I 4/M
;
_chemical_formula_sum "Si O2"
_cell_formula_units_Z 72
_cell_length_a 21.537014
_cell_length_b 21.537014
_cell_length_c 7.905334
_cell_angle_alpha 90.000000
_cell_angle_beta 90.000000
_cell_angle_gamma 90.000000
_cell_volume 3666.833617
_symmetry_space_group_name_H-M "I 4/M"
_symmetry_group_IT_number 87
_symmetry_cell_setting 'tetragonal'
loop_
_space_group_symop_operation_xyz
x,y,z
-y,x,z
-x,-y,z
y,-x,z
-x,-y,-z
y,-x,-z
x,y,-z
-y,x,-z
1/2+x,1/2+y,1/2+z
1/2-y,1/2+x,1/2+z
1/2-x,1/2-y,1/2+z
1/2+y,1/2-x,1/2+z
1/2-x,1/2-y,1/2-z
1/2+y,1/2-x,1/2-z
1/2+x,1/2+y,1/2-z
1/2-y,1/2+x,1/2-z
loop_
_atom_site_type_symbol
_atom_site_label
_atom_site_fract_x
_atom_site_fract_y
_atom_site_fract_z
Si Si1 0.621560 0.656450 0.197392
Si Si2 0.406806 0.966933 0.303081
Si Si3 0.054222 0.088737 0.000000
Si Si4 0.797132 0.389251 0.700166
Si Si5 0.757095 0.677748 0.202067
O O1 0.577302 0.623495 0.331170
O O2 0.609948 0.730792 0.208867
O O3 0.693288 0.645755 0.258646
O O4 0.614754 0.637607 0.000000
O O5 0.406301 0.952528 0.500000
O O6 0.461740 0.926583 0.220052
O O7 0.340481 0.948144 0.229687
O O8 0.980258 0.082417 0.000000
O O9 0.784310 0.382607 0.500000
O O10 0.835733 0.327516 0.757748
O O11 0.750000 0.750000 0.250000
O O12 0.755523 0.671380 0.000000
#
# Coordination Sequence:
#
# PCOD9545536 Si02
#       5
#    16  16   8  16  16
#     4  10  20  40  65  94 125 156 200 259 315 376
#     4  11  22  38  55  78 116 168 215 253 299 358
#     4  11  26  48  68  90 122 163 209 259 323 391
#     4  10  18  35  60  90 126 164 202 257 309 363
#     4   8  16  29  54  86 119 154 191 237 303 359
#
# _framework density 19.635469000000001
#
# number of rings (size 3 to 8) (size 9 to 14) (size 15 to 20)
#    0.000    2.111    1.111    3.333    1.556    1.778 
#    4.000    1.111    0.000    0.000    0.000    0.000 
#    0.000    0.000    0.000    0.000    0.000    0.000 
#
# Total GULP energy -200686.674569 kJ/mol
# GULP energy per Si atom -5574.629849 kJ/mol
# Density = 1.959078 g / cm^3
# Si number density = 19.635469 Si / 1000 Ang^3
#
#
#
# Elastic Constant Matrix: (Units=GPa)
#
#
# Indices 1 2 3 4 5 6 
#
# 1 57.1718 43.6078 24.9508 0.0000 0.0000 -0.4319
# 2 43.6078 57.1718 24.9508 0.0000 0.0000 0.4319
# 3 24.9508 24.9508 80.4231 0.0000 0.0000 0.0000
# 4 0.0000 0.0000 0.0000 24.1384 0.0000 0.0000
# 5 0.0000 0.0000 0.0000 0.0000 24.1384 0.0000
# 6 -0.4319 0.4319 0.0000 0.0000 0.0000 26.3012
#
#
#
# Elastic Compliance Matrix: (Units=1/GPa)
#
#
# Indices 1 2 3 4 5 6 
#
# 1 0.042763 -0.031039 -0.003637 0.000000 0.000000 0.001212
# 2 -0.031039 0.042763 -0.003637 0.000000 0.000000 -0.001212
# 3 -0.003637 -0.003637 0.014691 0.000000 0.000000 0.000000
# 4 0.000000 0.000000 0.000000 0.041428 0.000000 0.000000
# 5 0.000000 0.000000 0.000000 0.000000 0.041428 0.000000
# 6 0.001212 -0.001212 0.000000 0.000000 0.000000 0.038061
#
#
# Mechanical properties :
#
#
# Convention : Reuss Voigt Hill
#
# Bulk Modulus (GPa) = 42.39162 42.42061 42.40611
# Shear Modulus (GPa) = 16.36002 21.66607 19.01304
#
# Velocity S-wave (km/s) = 2.88963 3.32537 3.11513
# Velocity P-wave (km/s) = 5.72446 6.03284 5.88067
#
# Compressibility (1/GPa) = 0.02358957
#
# Stress axis : x y z
#
# Youngs Moduli (GPa) = 23.38486 23.38486 68.06852
#
# Poissons Ratio (x) = 0.72584 0.24758
# Poissons Ratio (y) = 0.72584 0.24758
# Poissons Ratio (z) = 0.08506 0.08506
#
# Static dielectric constant tensor:
#      x y z
#    x 1.714610 0.000000 0.000000 
#    y 0.000000 1.714610 0.000000 
#    z 0.000000 0.000000 1.685970 
# 
# From -- ./inp_files/1079.got.cif
#   From: 2010.05.17/outbox.cif.g08.bks.cpg/sg87_1_cif.got.tgz:1079.got - 2010.06.03 19:07:00.
