data_PCOD9545640
_publ_section_title
;
Structure prediction by ZEFSAII (Michael W. Deem and Ramdas Pophale) SiO2 
 PCOD9545640
Probable space group: I 4/M
;
_chemical_formula_sum "Si O2"
_cell_formula_units_Z 64
_cell_length_a 13.438824
_cell_length_b 13.438824
_cell_length_c 13.692352
_cell_angle_alpha 90.000000
_cell_angle_beta 90.000000
_cell_angle_gamma 90.000000
_cell_volume 2472.866026
_symmetry_space_group_name_H-M "I 4/M"
_symmetry_group_IT_number 87
_symmetry_cell_setting 'tetragonal'
loop_
_space_group_symop_operation_xyz
x,y,z
-y,x,z
-x,-y,z
y,-x,z
-x,-y,-z
y,-x,-z
x,y,-z
-y,x,-z
1/2+x,1/2+y,1/2+z
1/2-y,1/2+x,1/2+z
1/2-x,1/2-y,1/2+z
1/2+y,1/2-x,1/2+z
1/2-x,1/2-y,1/2-z
1/2+y,1/2-x,1/2-z
1/2+x,1/2+y,1/2-z
1/2-y,1/2+x,1/2-z
loop_
_atom_site_type_symbol
_atom_site_label
_atom_site_fract_x
_atom_site_fract_y
_atom_site_fract_z
Si Si1 0.193449 0.831952 0.182791
Si Si2 0.020705 0.352715 0.606385
Si Si3 0.017133 0.693409 0.834511
Si Si4 0.566414 0.644178 0.869390
O O1 0.250000 0.750000 0.250000
O O2 0.101044 0.774209 0.136361
O O3 0.144740 0.914285 0.254397
O O4 0.273428 0.906110 0.134149
O O5 0.969123 0.354633 0.500000
O O6 0.090766 0.447849 0.618832
O O7 0.092532 0.254397 0.599057
O O8 0.975647 0.328573 0.715336
O O9 0.452616 0.626972 0.899167
#
# Coordination Sequence:
#
# PCOD9545640 Si02
#       4
#    16  16  16  16
#     4  11  19  37  67  98 140 195 233 299 366 426
#     4  11  25  45  71 104 145 193 238 304 378 435
#     4  11  23  43  71 100 150 186 252 300 361 456
#     4  10  19  35  66 108 147 184 236 300 372 438
#
# _framework density 25.880901000000001
#
# number of rings (size 3 to 8) (size 9 to 14) (size 15 to 20)
#    0.000    1.250   10.000    0.000    0.000    2.000 
#    0.000    5.000    0.000    0.000    0.000    1.750 
#    0.000    0.000    0.000    0.000    0.000    0.000 
#
# Total GULP energy -178207.745038 kJ/mol
# GULP energy per Si atom -5568.992032 kJ/mol
# Density = 2.582200 g / cm^3
# Si number density = 25.880901 Si / 1000 Ang^3
#
#
#
# Elastic Constant Matrix: (Units=GPa)
#
#
# Indices 1 2 3 4 5 6 
#
# 1 140.4486 70.7253 5.3982 0.0000 0.0000 -24.4708
# 2 70.7253 140.4486 5.3982 0.0000 0.0000 24.4708
# 3 5.3982 5.3982 95.8925 0.0000 0.0000 0.0000
# 4 0.0000 0.0000 0.0000 -27.8902 0.0000 0.0000
# 5 0.0000 0.0000 0.0000 0.0000 -27.8902 0.0000
# 6 -24.4708 24.4708 0.0000 0.0000 0.0000 36.5401
#
#
#
# Elastic Compliance Matrix: (Units=1/GPa)
#
#
# Indices 1 2 3 4 5 6 
#
# 1 0.015907 -0.011158 -0.000267 0.000000 0.000000 0.018126
# 2 -0.011158 0.015907 -0.000267 0.000000 0.000000 -0.018126
# 3 -0.000267 -0.000267 0.010458 0.000000 0.000000 0.000000
# 4 0.000000 0.000000 0.000000 -0.035855 0.000000 0.000000
# 5 0.000000 0.000000 0.000000 0.000000 -0.035855 0.000000
# 6 0.018126 -0.018126 0.000000 0.000000 0.000000 0.051644
#
#
# Mechanical properties :
#
#
# Convention : Reuss Voigt Hill
#
# Bulk Modulus (GPa) = 52.94572 59.98144 56.46358
# Shear Modulus (GPa) = 96.35908 15.83649 56.09778
#
# Velocity S-wave (km/s) = 6.10840 2.47634 4.66073
# Velocity P-wave (km/s) = 8.38164 5.60380 7.12933
#
# Compressibility (1/GPa) = 0.01888727
#
# Stress axis : x y z
#
# Youngs Moduli (GPa) = 62.86427 62.86427 95.61649
#
# Poissons Ratio (x) = 0.70145 0.02556
# Poissons Ratio (y) = 0.70145 0.02556
# Poissons Ratio (z) = 0.01681 0.01681
#
# Static dielectric constant tensor:
#      x y z
#    x 2.117590 0.000000 0.000000 
#    y 0.000000 2.117590 0.000000 
#    z 0.000000 0.000000 2.107550 
# 
# From -- ./inp_files/3368.got.cif
#   From: 2010.05.17/outbox.cif.g08.bks.cpg/sg87_2_cif.got.tgz:3368.got - 2010.06.03 19:07:00.
