data_PCOD9545585
_publ_section_title
;
Structure prediction by ZEFSAII (Michael W. Deem and Ramdas Pophale) SiO2 
 PCOD9545585
Probable space group: I 4/M
;
_chemical_formula_sum "Si O2"
_cell_formula_units_Z 112
_cell_length_a 16.304016
_cell_length_b 16.304016
_cell_length_c 23.936491
_cell_angle_alpha 90.000000
_cell_angle_beta 90.000000
_cell_angle_gamma 90.000000
_cell_volume 6362.820484
_symmetry_space_group_name_H-M "I 4/M"
_symmetry_group_IT_number 87
_symmetry_cell_setting 'tetragonal'
loop_
_space_group_symop_operation_xyz
x,y,z
-y,x,z
-x,-y,z
y,-x,z
-x,-y,-z
y,-x,-z
x,y,-z
-y,x,-z
1/2+x,1/2+y,1/2+z
1/2-y,1/2+x,1/2+z
1/2-x,1/2-y,1/2+z
1/2+y,1/2-x,1/2+z
1/2-x,1/2-y,1/2-z
1/2+y,1/2-x,1/2-z
1/2+x,1/2+y,1/2-z
1/2-y,1/2+x,1/2-z
loop_
_atom_site_type_symbol
_atom_site_label
_atom_site_fract_x
_atom_site_fract_y
_atom_site_fract_z
Si Si1 0.895452 0.446929 0.220354
Si Si2 0.558654 0.184377 0.564418
Si Si3 0.123430 0.334165 0.895063
Si Si4 0.405999 0.988806 0.408582
Si Si5 0.886951 0.071427 0.824924
Si Si6 0.158746 0.849261 0.936294
Si Si7 0.731679 0.161020 0.225282
O O1 0.895932 0.523733 0.262626
O O2 0.904277 0.480117 0.158275
O O3 0.816741 0.391716 0.229145
O O4 0.530470 0.191465 0.500000
O O5 0.476480 0.176361 0.601911
O O6 0.613664 0.102042 0.569566
O O7 0.611790 0.264622 0.577570
O O8 0.138998 0.425042 0.919809
O O9 0.159059 0.256761 0.928525
O O10 0.156006 0.323053 0.831683
O O11 0.500000 0.000000 0.428193
O O12 0.869218 0.084633 0.890748
O O13 0.815906 0.117809 0.792360
O O14 0.975512 0.109339 0.812246
O O15 0.140338 0.872047 0.000000
O O16 0.750000 0.250000 0.250000
#
# Coordination Sequence:
#
# PCOD9545585 Si02
#       7
#    16  16  16  16  16  16  16
#     4  11  19  34  56  81 108 139 176 224 269 318
#     4  10  21  35  55  80 109 143 175 218 275 323
#     4  10  20  35  49  78 106 138 179 216 262 318
#     4  10  19  32  53  78 106 137 174 215 265 325
#     4  10  23  39  54  75 106 143 181 225 267 316
#     4  10  20  34  54  77 106 142 180 221 261 315
#     4  11  24  35  55  79 106 142 182 221 271 314
#
# _framework density 17.602257000000002
#
# number of rings (size 3 to 8) (size 9 to 14) (size 15 to 20)
#    0.000    1.714    2.857    3.000    6.000    4.857 
#    0.000    0.714    0.000    0.000    0.000    0.000 
#    0.000    0.571    0.000    3.143    0.000    0.000 
#
# Total GULP energy -312361.288037 kJ/mol
# GULP energy per Si atom -5577.880144 kJ/mol
# Density = 1.756219 g / cm^3
# Si number density = 17.602257 Si / 1000 Ang^3
#
#
#
# Elastic Constant Matrix: (Units=GPa)
#
#
# Indices 1 2 3 4 5 6 
#
# 1 78.9524 48.3047 11.4136 0.0000 0.0000 4.8559
# 2 48.3047 78.9524 11.4136 0.0000 0.0000 -4.8559
# 3 11.4136 11.4136 35.1231 0.0000 0.0000 0.0000
# 4 0.0000 0.0000 0.0000 15.7462 0.0000 0.0000
# 5 0.0000 0.0000 0.0000 0.0000 15.7462 0.0000
# 6 4.8559 -4.8559 0.0000 0.0000 0.0000 13.9555
#
#
#
# Elastic Compliance Matrix: (Units=1/GPa)
#
#
# Indices 1 2 3 4 5 6 
#
# 1 0.022508 -0.014164 -0.002712 0.000000 0.000000 -0.012760
# 2 -0.014164 0.022508 -0.002712 0.000000 0.000000 0.012760
# 3 -0.002712 -0.002712 0.030234 0.000000 0.000000 0.000000
# 4 0.000000 0.000000 0.000000 0.063507 0.000000 0.000000
# 5 0.000000 0.000000 0.000000 0.000000 0.063507 0.000000
# 6 -0.012760 0.012760 0.000000 0.000000 0.000000 0.080536
#
#
# Mechanical properties :
#
#
# Convention : Reuss Voigt Hill
#
# Bulk Modulus (GPa) = 27.71916 37.25465 32.48690
# Shear Modulus (GPa) = 14.97001 17.21598 16.09300
#
# Velocity S-wave (km/s) = 2.91943 3.13078 3.02695
# Velocity P-wave (km/s) = 5.21016 5.85489 5.54191
#
# Compressibility (1/GPa) = 0.03607613
#
# Stress axis : x y z
#
# Youngs Moduli (GPa) = 44.42786 44.42786 33.07571
#
# Poissons Ratio (x) = 0.62927 0.08969
# Poissons Ratio (y) = 0.62927 0.08969
# Poissons Ratio (z) = 0.12047 0.12047
#
# Static dielectric constant tensor:
#      x y z
#    x 1.617230 0.000000 0.000000 
#    y 0.000000 1.617230 0.000000 
#    z 0.000000 0.000000 1.622590 
# 
# From -- ./inp_files/5862.got.cif
#   From: 2010.05.17/outbox.cif.g08.bks.cpg/sg87_3_cif.got.tgz:5862.got - 2010.06.03 19:07:00.
