data_PCOD9545928
_publ_section_title
;
Structure prediction by ZEFSAII (Michael W. Deem and Ramdas Pophale) SiO2 
 PCOD9545928
Probable space group: I 4/M
;
_chemical_formula_sum "Si O2"
_cell_formula_units_Z 96
_cell_length_a 25.835993
_cell_length_b 25.835993
_cell_length_c 7.808276
_cell_angle_alpha 90.000000
_cell_angle_beta 90.000000
_cell_angle_gamma 90.000000
_cell_volume 5212.012785
_symmetry_space_group_name_H-M "I 4/M"
_symmetry_group_IT_number 87
_symmetry_cell_setting 'tetragonal'
loop_
_space_group_symop_operation_xyz
x,y,z
-y,x,z
-x,-y,z
y,-x,z
-x,-y,-z
y,-x,-z
x,y,-z
-y,x,-z
1/2+x,1/2+y,1/2+z
1/2-y,1/2+x,1/2+z
1/2-x,1/2-y,1/2+z
1/2+y,1/2-x,1/2+z
1/2-x,1/2-y,1/2-z
1/2+y,1/2-x,1/2-z
1/2+x,1/2+y,1/2-z
1/2-y,1/2+x,1/2-z
loop_
_atom_site_type_symbol
_atom_site_label
_atom_site_fract_x
_atom_site_fract_y
_atom_site_fract_z
Si Si1 0.792536 0.792536 0.796271
Si Si2 0.798849 0.500000 0.208186
Si Si3 0.588179 0.719607 0.702215
Si Si4 0.642938 0.556948 0.000000
Si Si5 1.000000 0.583847 0.297415
Si Si6 0.142938 0.943052 0.500000
Si Si7 0.088179 0.780393 0.797785
O O1 0.750000 0.750000 0.750000
O O2 0.851152 0.776968 0.743260
O O3 0.776968 0.851152 0.743260
O O4 0.794183 0.794183 0.000000
O O5 0.769635 0.448214 0.271627
O O6 0.857993 0.500000 0.270726
O O7 0.769635 0.551786 0.271627
O O8 0.796458 0.500000 0.000000
O O9 0.586475 0.705594 0.500000
O O10 0.564117 0.677768 0.830750
O O11 0.677768 0.564117 0.169250
O O12 0.620151 0.500000 0.000000
O O13 0.600347 0.600347 0.000000
O O14 1.000000 0.588477 0.500000
O O15 0.949986 0.550014 0.250000
O O16 0.086475 0.794406 0.000000
#
# Coordination Sequence:
#
# PCOD9545928 Si02
#       7
#    16  16  16   8  16   8  16
#     4  10  24  38  58  90 124 165 207 251 317 373
#     4  11  22  38  63  93 120 159 214 264 317 375
#     4  11  22  39  62  91 122 167 210 250 312 379
#     4  12  24  41  68  94 126 166 206 258 312 372
#     4  10  22  39  60  84 121 165 212 265 328 380
#     4  12  24  41  68  94 126 166 206 258 312 372
#     4  11  22  39  62  91 122 167 210 250 312 379
#
# _framework density 18.418987999999999
#
# number of rings (size 3 to 8) (size 9 to 14) (size 15 to 20)
#    0.000    1.167    5.000    1.500    2.333    4.167 
#    0.000    6.667    0.000    0.000    0.000    2.333 
#    0.000    0.000    0.000    0.000    0.000    0.000 
#
# Total GULP energy -267821.751779 kJ/mol
# GULP energy per Si atom -5579.619829 kJ/mol
# Density = 1.837707 g / cm^3
# Si number density = 18.418988 Si / 1000 Ang^3
#
#
#
# Elastic Constant Matrix: (Units=GPa)
#
#
# Indices 1 2 3 4 5 6 
#
# 1 158.6073 77.1045 22.9112 0.0000 0.0000 0.0000
# 2 77.1045 158.6073 22.9112 0.0000 0.0000 0.0000
# 3 22.9112 22.9112 85.9539 0.0000 0.0000 0.0000
# 4 0.0000 0.0000 0.0000 35.2071 0.0000 0.0000
# 5 0.0000 0.0000 0.0000 0.0000 35.2071 0.0000
# 6 0.0000 0.0000 0.0000 0.0000 0.0000 22.1596
#
#
#
# Elastic Compliance Matrix: (Units=1/GPa)
#
#
# Indices 1 2 3 4 5 6 
#
# 1 0.008372 -0.003898 -0.001193 0.000000 0.000000 0.000000
# 2 -0.003898 0.008372 -0.001193 0.000000 0.000000 0.000000
# 3 -0.001193 -0.001193 0.012270 0.000000 0.000000 0.000000
# 4 0.000000 0.000000 0.000000 0.028403 0.000000 0.000000
# 5 0.000000 0.000000 0.000000 0.000000 0.028403 0.000000
# 6 0.000000 0.000000 0.000000 0.000000 0.000000 0.045127
#
#
# Mechanical properties :
#
#
# Convention : Reuss Voigt Hill
#
# Bulk Modulus (GPa) = 60.79760 72.11360 66.45560
# Shear Modulus (GPa) = 33.55793 37.19752 35.37773
#
# Velocity S-wave (km/s) = 4.27303 4.49878 4.38736
# Velocity P-wave (km/s) = 7.57791 8.13770 7.86279
#
# Compressibility (1/GPa) = 0.01644802
#
# Stress axis : x y z
#
# Youngs Moduli (GPa) = 119.44689 119.44689 81.50000
#
# Poissons Ratio (x) = 0.46556 0.09720
# Poissons Ratio (y) = 0.46556 0.09720
# Poissons Ratio (z) = 0.14246 0.14246
#
# Static dielectric constant tensor:
#      x y z
#    x 1.655300 0.000000 0.000000 
#    y 0.000000 1.655300 0.000000 
#    z 0.000000 0.000000 1.665990 
# 
# From -- ./inp_files/1456.got.cif
#   From: 2010.05.17/outbox.cif.g08.bks.cpg/sg87_1_cif.got.tgz:1456.got - 2010.06.03 19:07:00.
