data_PCOD9545846
_publ_section_title
;
Structure prediction by ZEFSAII (Michael W. Deem and Ramdas Pophale) SiO2 
 PCOD9545846
Probable space group: I 4/M
;
_chemical_formula_sum "Si O2"
_cell_formula_units_Z 96
_cell_length_a 24.243564
_cell_length_b 24.243564
_cell_length_c 8.803459
_cell_angle_alpha 90.000000
_cell_angle_beta 90.000000
_cell_angle_gamma 90.000000
_cell_volume 5174.236508
_symmetry_space_group_name_H-M "I 4/M"
_symmetry_group_IT_number 87
_symmetry_cell_setting 'tetragonal'
loop_
_space_group_symop_operation_xyz
x,y,z
-y,x,z
-x,-y,z
y,-x,z
-x,-y,-z
y,-x,-z
x,y,-z
-y,x,-z
1/2+x,1/2+y,1/2+z
1/2-y,1/2+x,1/2+z
1/2-x,1/2-y,1/2+z
1/2+y,1/2-x,1/2+z
1/2-x,1/2-y,1/2-z
1/2+y,1/2-x,1/2-z
1/2+x,1/2+y,1/2-z
1/2-y,1/2+x,1/2-z
loop_
_atom_site_type_symbol
_atom_site_label
_atom_site_fract_x
_atom_site_fract_y
_atom_site_fract_z
Si Si1 0.443551 0.429021 0.683035
Si Si2 0.952632 0.353826 0.177093
Si Si3 0.145352 0.153414 0.680667
Si Si4 0.930824 0.646060 0.322038
Si Si5 0.259947 0.139350 0.179185
Si Si6 0.342266 0.225303 0.319974
O O1 0.508480 0.424877 0.723136
O O2 0.439597 0.424081 0.500000
O O3 0.405074 0.383377 0.758641
O O4 0.915139 0.407366 0.208001
O O5 0.911015 0.302589 0.197284
O O6 0.005497 0.349988 0.281931
O O7 0.969879 0.354871 0.000000
O O8 0.142989 0.157336 0.500000
O O9 0.203344 0.127641 0.734924
O O10 0.147247 0.214414 0.752518
O O11 0.919771 0.657694 0.500000
O O12 0.895016 0.687989 0.222463
O O13 0.290501 0.193474 0.244627
O O14 0.249530 0.147135 0.000000
O O15 0.334218 0.228216 0.500000
#
# Coordination Sequence:
#
# PCOD9545846 Si02
#       6
#    16  16  16  16  16  16
#     4   9  20  41  65  86 112 147 185 228 280 333
#     4   9  20  37  56  80 111 149 189 232 282 333
#     4  12  24  37  58  88 117 148 188 228 272 332
#     4  10  21  37  57  82 113 148 189 236 282 332
#     4  10  21  39  59  82 115 150 187 232 282 334
#     4  11  22  38  59  82 113 150 187 231 283 335
#
# _framework density 18.553460999999999
#
# number of rings (size 3 to 8) (size 9 to 14) (size 15 to 20)
#    0.000    1.833    0.000    6.000    0.000    6.333 
#    0.000    4.167    0.000    0.000    0.000    0.000 
#    0.000    0.000    0.000    0.000    0.000    0.000 
#
# Total GULP energy -268182.651780 kJ/mol
# GULP energy per Si atom -5587.138579 kJ/mol
# Density = 1.851123 g / cm^3
# Si number density = 18.553461 Si / 1000 Ang^3
#
#
#
# Elastic Constant Matrix: (Units=GPa)
#
#
# Indices 1 2 3 4 5 6 
#
# 1 152.9966 -129.9050 2.1094 0.0000 0.0000 -58.4840
# 2 -129.9050 152.9966 2.1094 0.0000 0.0000 58.4840
# 3 2.1094 2.1094 59.4719 0.0000 0.0000 0.0000
# 4 0.0000 0.0000 0.0000 33.8191 0.0000 0.0000
# 5 0.0000 0.0000 0.0000 0.0000 33.8191 0.0000
# 6 -58.4840 58.4840 0.0000 0.0000 0.0000 52.1483
#
#
#
# Elastic Compliance Matrix: (Units=1/GPa)
#
#
# Indices 1 2 3 4 5 6 
#
# 1 0.025090 0.018499 -0.001546 0.000000 0.000000 0.007392
# 2 0.018499 0.025090 -0.001546 0.000000 0.000000 -0.007392
# 3 -0.001546 -0.001546 0.016924 0.000000 0.000000 0.000000
# 4 0.000000 0.000000 0.000000 0.029569 0.000000 0.000000
# 5 0.000000 0.000000 0.000000 0.000000 0.029569 0.000000
# 6 0.007392 -0.007392 0.000000 0.000000 0.000000 0.035756
#
#
# Mechanical properties :
#
#
# Convention : Reuss Voigt Hill
#
# Bulk Modulus (GPa) = 10.21275 12.67696 11.44485
# Shear Modulus (GPa) = 30.52073 56.70073 43.61073
#
# Velocity S-wave (km/s) = 4.06028 5.53417 4.85350
# Velocity P-wave (km/s) = 5.24382 6.90533 6.13112
#
# Compressibility (1/GPa) = 0.09791685
#
# Stress axis : x y z
#
# Youngs Moduli (GPa) = 39.85709 39.85709 59.08655
#
# Poissons Ratio (x) = -0.73730 0.09135
# Poissons Ratio (y) = -0.73730 0.09135
# Poissons Ratio (z) = 0.06162 0.06162
#
# Static dielectric constant tensor:
#      x y z
#    x 1.628160 0.000000 0.000000 
#    y 0.000000 1.628160 0.000000 
#    z 0.000000 0.000000 1.624350 
# 
# From -- ./inp_files/1326.got.cif
#   From: 2010.05.17/outbox.cif.g08.bks.cpg/sg87_1_cif.got.tgz:1326.got - 2010.06.03 19:07:00.
