data_PCOD9545129
_publ_section_title
;
Structure prediction by ZEFSAII (Michael W. Deem and Ramdas Pophale) SiO2 
 PCOD9545129
Probable space group: P 42/N
;
_chemical_formula_sum "Si O2"
_cell_formula_units_Z 50
_cell_length_a 8.894666
_cell_length_b 8.894666
_cell_length_c 32.862419
_cell_angle_alpha 90.000000
_cell_angle_beta 90.000000
_cell_angle_gamma 90.000000
_cell_volume 2599.913015
_symmetry_space_group_name_H-M "P 42/N"
_symmetry_group_IT_number 86
_space_group.IT_coordinate_system_code '2'
_symmetry_cell_setting 'tetragonal'
loop_
_space_group_symop_operation_xyz
x,y,z
-y,1/2+x,1/2+z
1/2-x,1/2-y,z
1/2+y,-x,1/2+z
-x,-y,-z
y,1/2-x,1/2-z
1/2+x,1/2+y,-z
1/2-y,x,1/2-z
loop_
_atom_site_type_symbol
_atom_site_label
_atom_site_fract_x
_atom_site_fract_y
_atom_site_fract_z
Si Si1 0.920668 0.197054 0.201849
Si Si2 0.070426 0.779270 0.888094
Si Si3 0.750000 0.750000 0.410845
Si Si4 0.984651 0.436418 0.871040
Si Si5 0.006533 0.468698 0.779610
Si Si6 0.493701 0.462976 0.952598
Si Si7 0.750000 0.250000 0.921877
Si Si8 0.750000 0.750000 0.250000
O O1 0.750000 0.250000 0.197411
O O2 0.962550 0.145017 0.156282
O O3 0.997608 0.351986 0.215204
O O4 0.935819 0.082730 0.238547
O O5 0.250000 0.750000 0.893416
O O6 0.001147 0.611829 0.883368
O O7 0.011890 0.888012 0.923833
O O8 0.648739 0.638903 0.383378
O O9 0.861750 0.648621 0.438179
O O10 0.949802 0.414680 0.823398
O O11 0.853757 0.357780 0.895425
O O12 0.165918 0.382824 0.774528
O O13 0.638800 0.359216 0.945642
O O14 0.500000 0.500000 0.000000
#
# Coordination Sequence:
#
# PCOD9545129 Si02
#       8
#     8   8   4   8   8   8   4   2
#     4  10  22  39  57  89 126 162 215 262 312 368
#     4  10  21  41  67  90 124 174 216 258 324 398
#     4  10  21  42  64  97 132 164 214 273 322 384
#     4  10  22  40  64  92 130 173 212 259 325 385
#     4  11  23  37  60  90 123 171 213 259 311 370
#     4  11  25  43  70  96 128 168 211 270 333 396
#     4  10  26  42  60 100 132 158 210 272 328 376
#     4  12  22  32  56  88 116 160 220 264 296 352
#
# _framework density 19.23141
#
# number of rings (size 3 to 8) (size 9 to 14) (size 15 to 20)
#    0.000    1.600    3.200    0.480    2.240    6.080 
#    0.000    6.400    0.000    0.000    0.000    0.000 
#    0.000    0.000    0.000    0.000    0.000    0.000 
#
# Total GULP energy -278776.567713 kJ/mol
# GULP energy per Si atom -5575.531354 kJ/mol
# Density = 1.918764 g / cm^3
# Si number density = 19.231410 Si / 1000 Ang^3
#
#
#
# Elastic Constant Matrix: (Units=GPa)
#
#
# Indices 1 2 3 4 5 6 
#
# 1 84.1195 35.8911 69.1538 0.0000 0.0000 -0.1557
# 2 35.8911 84.1195 69.1538 0.0000 0.0000 0.1557
# 3 69.1538 69.1538 194.5986 0.0000 0.0000 0.0000
# 4 0.0000 0.0000 0.0000 -9.8283 0.0000 0.0000
# 5 0.0000 0.0000 0.0000 0.0000 -9.8283 0.0000
# 6 -0.1557 0.1557 0.0000 0.0000 0.0000 15.8072
#
#
#
# Elastic Compliance Matrix: (Units=1/GPa)
#
#
# Indices 1 2 3 4 5 6 
#
# 1 0.017424 -0.003312 -0.005015 0.000000 0.000000 0.000204
# 2 -0.003312 0.017424 -0.005015 0.000000 0.000000 -0.000204
# 3 -0.005015 -0.005015 0.008703 0.000000 0.000000 0.000000
# 4 0.000000 0.000000 0.000000 -0.101747 0.000000 0.000000
# 5 0.000000 0.000000 0.000000 0.000000 -0.101747 0.000000
# 6 0.000204 -0.000204 0.000000 0.000000 0.000000 0.063266
#
#
# Mechanical properties :
#
#
# Convention : Reuss Voigt Hill
#
# Bulk Modulus (GPa) = 59.28561 79.02609 69.15585
# Shear Modulus (GPa) = -77.67593 11.80604 -32.93495
#
# Velocity S-wave (km/s) = -6.36222 2.48038 -4.14280
# Velocity P-wave (km/s) = 4.80375 7.02740 3.62687
#
# Compressibility (1/GPa) = 0.01686750
#
# Stress axis : x y z
#
# Youngs Moduli (GPa) = 57.39180 57.39180 114.90151
#
# Poissons Ratio (x) = 0.19008 0.57623
# Poissons Ratio (y) = 0.19008 0.57623
# Poissons Ratio (z) = 0.28782 0.28782
#
# Static dielectric constant tensor:
#      x y z
#    x 1.700540 0.000000 0.000000 
#    y 0.000000 1.700540 0.000000 
#    z 0.000000 0.000000 1.681190 
# 
# From -- ./inp_files/5287.got.cif
#   From: 2010.05.17/outbox.cif.g08.bks.cpg/sg86_3_cif.got.tgz:5287.got - 2010.06.03 19:03:11.
