data_PCOD9545428
_publ_section_title
;
Structure prediction by ZEFSAII (Michael W. Deem and Ramdas Pophale) SiO2 
 PCOD9545428
Probable space group: P 42/N
;
_chemical_formula_sum "Si O2"
_cell_formula_units_Z 40
_cell_length_a 18.093973
_cell_length_b 18.093973
_cell_length_c 4.981596
_cell_angle_alpha 90.000000
_cell_angle_beta 90.000000
_cell_angle_gamma 90.000000
_cell_volume 1630.933975
_symmetry_space_group_name_H-M "P 42/N"
_symmetry_group_IT_number 86
_space_group.IT_coordinate_system_code '2'
_symmetry_cell_setting 'tetragonal'
loop_
_space_group_symop_operation_xyz
x,y,z
-y,1/2+x,1/2+z
1/2-x,1/2-y,z
1/2+y,-x,1/2+z
-x,-y,-z
y,1/2-x,1/2-z
1/2+x,1/2+y,-z
1/2-y,x,1/2-z
loop_
_atom_site_type_symbol
_atom_site_label
_atom_site_fract_x
_atom_site_fract_y
_atom_site_fract_z
Si Si1 0.559947 0.325575 0.888328
Si Si2 0.668397 0.432085 0.562444
Si Si3 0.545866 0.032035 0.744448
Si Si4 0.407460 0.290860 0.640329
Si Si5 0.196701 0.099478 0.351582
O O1 0.618725 0.377668 0.739230
O O2 0.494921 0.303960 0.680849
O O3 0.595830 0.249935 0.992644
O O4 0.520604 0.370588 0.131555
O O5 0.619507 0.450401 0.299865
O O6 0.680025 0.512999 0.683332
O O7 0.500000 0.000000 0.500000
O O8 0.500000 0.000000 0.000000
O O9 0.371787 0.362213 0.500339
O O10 0.380364 0.226222 0.440542
O O11 0.386688 0.263198 0.937552
#
# Coordination Sequence:
#
# PCOD9545428 Si02
#       5
#     8   8   8   8   8
#     4  11  28  51  80 117 163 211 280 340 405 494
#     4  11  28  48  81 111 160 209 276 330 410 475
#     4  12  26  48  82 117 151 210 266 328 405 483
#     4  11  26  46  76 113 157 205 263 333 405 490
#     4  11  26  45  75 112 154 204 264 329 406 489
#
# _framework density 24.525825000000001
#
# number of rings (size 3 to 8) (size 9 to 14) (size 15 to 20)
#    0.000    0.800    2.000    2.400   11.200    4.000 
#    0.000    3.000    0.000    0.000    0.000    0.000 
#    0.000    0.000    0.000    0.000    0.000    0.000 
#
# Total GULP energy -223425.622673 kJ/mol
# GULP energy per Si atom -5585.640567 kJ/mol
# Density = 2.447000 g / cm^3
# Si number density = 24.525825 Si / 1000 Ang^3
#
#
#
# Elastic Constant Matrix: (Units=GPa)
#
#
# Indices 1 2 3 4 5 6 
#
# 1 121.8255 63.1146 53.1290 0.0000 0.0000 4.7069
# 2 63.1146 121.8255 53.1290 0.0000 0.0000 -4.7069
# 3 53.1290 53.1290 171.9243 0.0000 0.0000 0.0000
# 4 0.0000 0.0000 0.0000 31.2364 0.0000 0.0000
# 5 0.0000 0.0000 0.0000 0.0000 31.2364 0.0000
# 6 4.7069 -4.7069 0.0000 0.0000 0.0000 47.3329
#
#
#
# Elastic Compliance Matrix: (Units=1/GPa)
#
#
# Indices 1 2 3 4 5 6 
#
# 1 0.011942 -0.005367 -0.002032 0.000000 0.000000 -0.001721
# 2 -0.005367 0.011942 -0.002032 0.000000 0.000000 0.001721
# 3 -0.002032 -0.002032 0.007072 0.000000 0.000000 0.000000
# 4 0.000000 0.000000 0.000000 0.032014 0.000000 0.000000
# 5 0.000000 0.000000 0.000000 0.000000 0.032014 0.000000
# 6 -0.001721 0.001721 0.000000 0.000000 0.000000 0.021469
#
#
# Mechanical properties :
#
#
# Convention : Reuss Voigt Hill
#
# Bulk Modulus (GPa) = 82.68282 83.81340 83.24811
# Shear Modulus (GPa) = 35.88221 38.37463 37.12842
#
# Velocity S-wave (km/s) = 3.82912 3.95987 3.89504
# Velocity P-wave (km/s) = 7.30310 7.42665 7.36514
#
# Compressibility (1/GPa) = 0.01209441
#
# Stress axis : x y z
#
# Youngs Moduli (GPa) = 83.74135 83.74135 141.39876
#
# Poissons Ratio (x) = 0.44945 0.28728
# Poissons Ratio (y) = 0.44945 0.28728
# Poissons Ratio (z) = 0.17014 0.17014
#
# Static dielectric constant tensor:
#      x y z
#    x 1.811650 0.000000 0.000000 
#    y 0.000000 1.811650 0.000000 
#    z 0.000000 0.000000 2.455900 
# 
# From -- ./inp_files/308.got.cif
#   From: 2010.05.17/outbox.cif.g08.bks.cpg/sg86_1_cif.got.tgz:308.got - 2010.06.03 19:03:11.
