data_PCOD9545525
_publ_section_title
;
Structure prediction by ZEFSAII (Michael W. Deem and Ramdas Pophale) SiO2 
 PCOD9545525
Probable space group: I 4/M
;
_chemical_formula_sum "Si O2"
_cell_formula_units_Z 116
_cell_length_a 18.538426
_cell_length_b 18.538426
_cell_length_c 18.186782
_cell_angle_alpha 90.000000
_cell_angle_beta 90.000000
_cell_angle_gamma 90.000000
_cell_volume 6250.310269
_symmetry_space_group_name_H-M "I 4/M"
_symmetry_group_IT_number 87
_symmetry_cell_setting 'tetragonal'
loop_
_space_group_symop_operation_xyz
x,y,z
-y,x,z
-x,-y,z
y,-x,z
-x,-y,-z
y,-x,-z
x,y,-z
-y,x,-z
1/2+x,1/2+y,1/2+z
1/2-y,1/2+x,1/2+z
1/2-x,1/2-y,1/2+z
1/2+y,1/2-x,1/2+z
1/2-x,1/2-y,1/2-z
1/2+y,1/2-x,1/2-z
1/2+x,1/2+y,1/2-z
1/2-y,1/2+x,1/2-z
loop_
_atom_site_type_symbol
_atom_site_label
_atom_site_fract_x
_atom_site_fract_y
_atom_site_fract_z
Si Si1 0.018145 0.617766 0.765684
Si Si2 0.500000 0.500000 0.276761
Si Si3 0.743874 0.573723 0.188946
Si Si4 0.563834 0.348044 0.325503
Si Si5 0.662831 0.837836 0.583636
Si Si6 0.513785 0.914970 0.418145
Si Si7 0.483469 0.619228 0.087567
Si Si8 0.309158 0.577001 0.412403
O O1 0.078784 0.558738 0.745680
O O2 0.026707 0.688834 0.718014
O O3 0.023203 0.629167 0.853159
O O4 0.528427 0.416198 0.284189
O O5 0.702258 0.596834 0.262543
O O6 0.777229 0.638333 0.141147
O O7 0.688941 0.530181 0.136753
O O8 0.498896 0.309991 0.369764
O O9 0.622680 0.378423 0.382071
O O10 0.691346 0.833669 0.500000
O O11 0.598719 0.897259 0.583726
O O12 0.622554 0.763256 0.601366
O O13 0.487901 0.896406 0.500000
O O14 0.500000 0.000000 0.405405
O O15 0.421814 0.558881 0.102911
O O16 0.481295 0.635140 0.000000
O O17 0.315022 0.565107 0.500000
#
# Coordination Sequence:
#
# PCOD9545525 Si02
#       8
#    16   4  16  16  16  16  16  16
#     4  11  20  37  57  86 123 161 202 253 298 351
#     4   8  20  40  53  84 121 148 196 246 296 348
#     4  12  23  34  61  91 123 154 200 252 300 371
#     4  10  22  35  62  92 116 157 200 252 298 352
#     4  10  21  37  57  83 120 162 193 240 305 364
#     4  10  18  33  57  82 111 156 208 249 295 351
#     4   9  21  42  67  91 118 156 203 258 314 370
#     4  10  21  41  62  85 121 159 204 245 297 364
#
# _framework density 18.559080000000002
#
# number of rings (size 3 to 8) (size 9 to 14) (size 15 to 20)
#    0.000    1.793    2.759    2.069    3.862    0.552 
#    0.000    4.828    0.000    0.000    0.000    7.724 
#    0.000    0.000    0.000    0.000    0.000    0.000 
#
# Total GULP energy -323167.762418 kJ/mol
# GULP energy per Si atom -5571.857973 kJ/mol
# Density = 1.851684 g / cm^3
# Si number density = 18.559080 Si / 1000 Ang^3
#
#
#
# Elastic Constant Matrix: (Units=GPa)
#
#
# Indices 1 2 3 4 5 6 
#
# 1 91.9781 35.2201 56.2617 0.0000 0.0000 2.2278
# 2 35.2201 91.9781 56.2617 0.0000 0.0000 -2.2278
# 3 56.2617 56.2617 136.0849 0.0000 0.0000 0.0000
# 4 0.0000 0.0000 0.0000 29.9208 0.0000 0.0000
# 5 0.0000 0.0000 0.0000 0.0000 29.9208 0.0000
# 6 2.2278 -2.2278 0.0000 0.0000 0.0000 22.0981
#
#
#
# Elastic Compliance Matrix: (Units=1/GPa)
#
#
# Indices 1 2 3 4 5 6 
#
# 1 0.015077 -0.002682 -0.005124 0.000000 0.000000 -0.001790
# 2 -0.002682 0.015077 -0.005124 0.000000 0.000000 0.001790
# 3 -0.005124 -0.005124 0.011586 0.000000 0.000000 0.000000
# 4 0.000000 0.000000 0.000000 0.033422 0.000000 0.000000
# 5 0.000000 0.000000 0.000000 0.000000 0.033422 0.000000
# 6 -0.001790 0.001790 0.000000 0.000000 0.000000 0.045614
#
#
# Mechanical properties :
#
#
# Convention : Reuss Voigt Hill
#
# Bulk Modulus (GPa) = 62.98143 68.39202 65.68673
# Shear Modulus (GPa) = 26.97579 27.87445 27.42512
#
# Velocity S-wave (km/s) = 3.81663 3.87968 3.84828
# Velocity P-wave (km/s) = 7.30969 7.54985 7.43074
#
# Compressibility (1/GPa) = 0.01587770
#
# Stress axis : x y z
#
# Youngs Moduli (GPa) = 66.32573 66.32573 86.31406
#
# Poissons Ratio (x) = 0.17789 0.44232
# Poissons Ratio (y) = 0.17789 0.44232
# Poissons Ratio (z) = 0.33989 0.33989
#
# Static dielectric constant tensor:
#      x y z
#    x 1.624990 0.000000 0.000000 
#    y 0.000000 1.624990 0.000000 
#    z 0.000000 0.000000 1.696930 
# 
# From -- ./inp_files/4617.got.cif
#   From: 2010.05.17/outbox.cif.g08.bks.cpg/sg87_3_cif.got.tgz:4617.got - 2010.06.03 19:07:00.
