data_PCOD9545487
_publ_section_title
;
Structure prediction by ZEFSAII (Michael W. Deem and Ramdas Pophale) SiO2 
 PCOD9545487
Probable space group: I 4/M
;
_chemical_formula_sum "Si O2"
_cell_formula_units_Z 96
_cell_length_a 15.086965
_cell_length_b 15.086965
_cell_length_c 17.852208
_cell_angle_alpha 90.000000
_cell_angle_beta 90.000000
_cell_angle_gamma 90.000000
_cell_volume 4063.457333
_symmetry_space_group_name_H-M "I 4/M"
_symmetry_group_IT_number 87
_symmetry_cell_setting 'tetragonal'
loop_
_space_group_symop_operation_xyz
x,y,z
-y,x,z
-x,-y,z
y,-x,z
-x,-y,-z
y,-x,-z
x,y,-z
-y,x,-z
1/2+x,1/2+y,1/2+z
1/2-y,1/2+x,1/2+z
1/2-x,1/2-y,1/2+z
1/2+y,1/2-x,1/2+z
1/2-x,1/2-y,1/2-z
1/2+y,1/2-x,1/2-z
1/2+x,1/2+y,1/2-z
1/2-y,1/2+x,1/2-z
loop_
_atom_site_type_symbol
_atom_site_label
_atom_site_fract_x
_atom_site_fract_y
_atom_site_fract_z
Si Si1 0.282133 0.422595 0.080922
Si Si2 0.148558 0.594488 0.587174
Si Si3 0.715187 0.166513 0.414828
Si Si4 0.536445 0.704878 0.795822
Si Si5 0.185552 0.201363 0.189385
Si Si6 0.632628 0.982048 0.785601
O O1 0.175210 0.421718 0.092301
O O2 0.301720 0.318064 0.078638
O O3 0.338340 0.470017 0.144954
O O4 0.301935 0.462849 0.000000
O O5 0.170913 0.584452 0.500000
O O6 0.229827 0.628982 0.638283
O O7 0.120264 0.503140 0.626852
O O8 0.684817 0.148464 0.500000
O O9 0.731098 0.089057 0.354922
O O10 0.662850 0.245469 0.371928
O O11 0.607945 0.659579 0.741121
O O12 0.475474 0.767534 0.743460
O O13 0.250000 0.250000 0.250000
O O14 0.593492 0.072020 0.748303
#
# Coordination Sequence:
#
# PCOD9545487 Si02
#       6
#    16  16  16  16  16  16
#     4   9  16  27  43  64  89 116 152 191 229 277
#     4   9  16  28  43  59  85 120 151 184 229 276
#     4   9  17  29  45  67  92 118 153 195 234 274
#     4  10  17  28  46  66  88 119 158 189 235 277
#     4   8  15  25  41  63  85 109 145 187 223 274
#     4  10  19  31  44  64  92 125 161 198 232 277
#
# _framework density 23.625201000000001
#
# number of rings (size 3 to 8) (size 9 to 14) (size 15 to 20)
#    0.000    2.833    1.667    2.000    0.000    0.000 
#    0.000    3.333    0.000    0.500    0.000    2.333 
#    0.000    0.000    0.000    0.000    0.000    1.667 
#
# Total GULP energy -267371.247876 kJ/mol
# GULP energy per Si atom -5570.234331 kJ/mol
# Density = 2.357143 g / cm^3
# Si number density = 23.625201 Si / 1000 Ang^3
#
#
#
# Elastic Constant Matrix: (Units=GPa)
#
#
# Indices 1 2 3 4 5 6 
#
# 1 43.7019 -3.2371 30.6137 0.0000 0.0000 -5.8594
# 2 -3.2371 43.7019 30.6137 0.0000 0.0000 5.8594
# 3 30.6137 30.6137 189.9250 0.0000 0.0000 0.0000
# 4 0.0000 0.0000 0.0000 35.9401 0.0000 0.0000
# 5 0.0000 0.0000 0.0000 0.0000 35.9401 0.0000
# 6 -5.8594 5.8594 0.0000 0.0000 0.0000 16.8977
#
#
#
# Elastic Compliance Matrix: (Units=1/GPa)
#
#
# Indices 1 2 3 4 5 6 
#
# 1 0.028004 0.004680 -0.005268 0.000000 0.000000 0.008088
# 2 0.004680 0.028004 -0.005268 0.000000 0.000000 -0.008088
# 3 -0.005268 -0.005268 0.006964 0.000000 0.000000 0.000000
# 4 0.000000 0.000000 0.000000 0.027824 0.000000 0.000000
# 5 0.000000 0.000000 0.000000 0.000000 0.027824 0.000000
# 6 0.008088 -0.008088 0.000000 0.000000 0.000000 0.064789
#
#
# Mechanical properties :
#
#
# Convention : Reuss Voigt Hill
#
# Bulk Modulus (GPa) = 19.50877 43.70102 31.60490
# Shear Modulus (GPa) = 23.56194 32.37816 27.97005
#
# Velocity S-wave (km/s) = 3.16147 3.70603 3.44453
# Velocity P-wave (km/s) = 4.64780 6.07048 5.40614
#
# Compressibility (1/GPa) = 0.05125901
#
# Stress axis : x y z
#
# Youngs Moduli (GPa) = 35.70937 35.70937 143.60347
#
# Poissons Ratio (x) = -0.16714 0.75655
# Poissons Ratio (y) = -0.16714 0.75655
# Poissons Ratio (z) = 0.18813 0.18813
#
# Static dielectric constant tensor:
#      x y z
#    x 2.042140 0.000000 0.000000 
#    y 0.000000 2.042140 0.000000 
#    z 0.000000 0.000000 2.016060 
# 
# From -- ./inp_files/3779.got.cif
#   From: 2010.05.17/outbox.cif.g08.bks.cpg/sg87_2_cif.got.tgz:3779.got - 2010.06.03 19:07:00.
