data_PCOD9545738
_publ_section_title
;
Structure prediction by ZEFSAII (Michael W. Deem and Ramdas Pophale) SiO2 
 PCOD9545738
Probable space group: I 4/M
;
_chemical_formula_sum "Si O2"
_cell_formula_units_Z 72
_cell_length_a 20.823984
_cell_length_b 20.823984
_cell_length_c 8.331390
_cell_angle_alpha 90.000000
_cell_angle_beta 90.000000
_cell_angle_gamma 90.000000
_cell_volume 3612.809876
_symmetry_space_group_name_H-M "I 4/M"
_symmetry_group_IT_number 87
_symmetry_cell_setting 'tetragonal'
loop_
_space_group_symop_operation_xyz
x,y,z
-y,x,z
-x,-y,z
y,-x,z
-x,-y,-z
y,-x,-z
x,y,-z
-y,x,-z
1/2+x,1/2+y,1/2+z
1/2-y,1/2+x,1/2+z
1/2-x,1/2-y,1/2+z
1/2+y,1/2-x,1/2+z
1/2-x,1/2-y,1/2-z
1/2+y,1/2-x,1/2-z
1/2+x,1/2+y,1/2-z
1/2-y,1/2+x,1/2-z
loop_
_atom_site_type_symbol
_atom_site_label
_atom_site_fract_x
_atom_site_fract_y
_atom_site_fract_z
Si Si1 0.304515 0.901699 0.315582
Si Si2 0.732292 0.821085 0.689048
Si Si3 0.624604 0.652111 0.188397
Si Si4 0.488668 0.095045 0.320264
Si Si5 0.564711 0.585609 0.500000
O O1 0.315522 0.917720 0.500000
O O2 0.338474 0.833505 0.276533
O O3 0.228402 0.890451 0.293229
O O4 0.335960 0.958330 0.214128
O O5 0.718590 0.818537 0.500000
O O6 0.750000 0.750000 0.750000
O O7 0.798641 0.859187 0.710834
O O8 0.589442 0.617414 0.334559
O O9 0.609293 0.635726 0.000000
O O10 0.513873 0.091017 0.500000
O O11 0.544089 0.069435 0.203795
O O12 0.487965 0.586980 0.500000
#
# Coordination Sequence:
#
# PCOD9545738 Si02
#       5
#    16  16  16  16   8
#     4  10  20  35  58  90 122 160 203 252 303 357
#     4   9  17  30  54  87 119 155 192 237 302 356
#     4   9  21  40  64  92 125 155 196 257 311 371
#     4  11  22  38  57  78 117 167 209 247 289 349
#     4  11  26  46  68  92 120 159 209 255 317 389
#
# _framework density 19.929086000000002
#
# number of rings (size 3 to 8) (size 9 to 14) (size 15 to 20)
#    0.000    2.111    0.000    5.333    9.333    0.889 
#    4.000    1.111    0.000    0.000    0.000    0.000 
#    0.000    0.000    0.000    0.000    0.000    0.000 
#
# Total GULP energy -200759.478690 kJ/mol
# GULP energy per Si atom -5576.652186 kJ/mol
# Density = 1.988373 g / cm^3
# Si number density = 19.929086 Si / 1000 Ang^3
#
#
#
# Elastic Constant Matrix: (Units=GPa)
#
#
# Indices 1 2 3 4 5 6 
#
# 1 289.9526 -224.3980 44.8819 0.0000 0.0000 163.6537
# 2 -224.3980 289.9526 44.8819 0.0000 0.0000 -163.6537
# 3 44.8819 44.8819 118.7387 0.0000 0.0000 0.0000
# 4 0.0000 0.0000 0.0000 25.9839 0.0000 0.0000
# 5 0.0000 0.0000 0.0000 0.0000 25.9839 0.0000
# 6 163.6537 -163.6537 0.0000 0.0000 0.0000 136.3604
#
#
#
# Elastic Compliance Matrix: (Units=1/GPa)
#
#
# Indices 1 2 3 4 5 6 
#
# 1 0.019924 0.011696 -0.011952 0.000000 0.000000 -0.009875
# 2 0.011696 0.019924 -0.011952 0.000000 0.000000 0.009875
# 3 -0.011952 -0.011952 0.017457 0.000000 0.000000 0.000000
# 4 0.000000 0.000000 0.000000 0.038485 0.000000 0.000000
# 5 0.000000 0.000000 0.000000 0.000000 0.038485 0.000000
# 6 -0.009875 0.009875 0.000000 0.000000 0.000000 0.031037
#
#
# Mechanical properties :
#
#
# Convention : Reuss Voigt Hill
#
# Bulk Modulus (GPa) = 30.40462 47.70838 39.05650
# Shear Modulus (GPa) = 24.91351 93.21752 59.06552
#
# Velocity S-wave (km/s) = 3.53952 6.84662 5.44997
# Velocity P-wave (km/s) = 5.65631 9.30014 7.69696
#
# Compressibility (1/GPa) = 0.03288974
#
# Stress axis : x y z
#
# Youngs Moduli (GPa) = 50.18955 50.18955 57.28211
#
# Poissons Ratio (x) = -0.58702 0.68465
# Poissons Ratio (y) = -0.58702 0.68465
# Poissons Ratio (z) = 0.59988 0.59988
#
# Static dielectric constant tensor:
#      x y z
#    x 1.711010 0.000000 0.000000 
#    y 0.000000 1.711010 0.000000 
#    z 0.000000 0.000000 1.723840 
# 
# From -- ./inp_files/1077.got.cif
#   From: 2010.05.17/outbox.cif.g08.bks.cpg/sg87_1_cif.got.tgz:1077.got - 2010.06.03 19:07:00.
