data_PCOD9545933
_publ_section_title
;
Structure prediction by ZEFSAII (Michael W. Deem and Ramdas Pophale) SiO2 
 PCOD9545933
Probable space group: I 4/M
;
_chemical_formula_sum "Si O2"
_cell_formula_units_Z 120
_cell_length_a 25.364019
_cell_length_b 25.364019
_cell_length_c 8.287273
_cell_angle_alpha 90.000000
_cell_angle_beta 90.000000
_cell_angle_gamma 90.000000
_cell_volume 5331.480012
_symmetry_space_group_name_H-M "I 4/M"
_symmetry_group_IT_number 87
_symmetry_cell_setting 'tetragonal'
loop_
_space_group_symop_operation_xyz
x,y,z
-y,x,z
-x,-y,z
y,-x,z
-x,-y,-z
y,-x,-z
x,y,-z
-y,x,-z
1/2+x,1/2+y,1/2+z
1/2-y,1/2+x,1/2+z
1/2-x,1/2-y,1/2+z
1/2+y,1/2-x,1/2+z
1/2-x,1/2-y,1/2-z
1/2+y,1/2-x,1/2-z
1/2+x,1/2+y,1/2-z
1/2-y,1/2+x,1/2-z
loop_
_atom_site_type_symbol
_atom_site_label
_atom_site_fract_x
_atom_site_fract_y
_atom_site_fract_z
Si Si1 0.255160 0.372255 0.190881
Si Si2 0.216408 0.013116 0.808152
Si Si3 0.790558 0.418937 0.697556
Si Si4 0.437151 0.561510 0.000000
Si Si5 0.874927 0.069898 0.819569
Si Si6 0.423697 0.015663 0.818887
Si Si7 0.393959 0.861668 0.194621
Si Si8 0.835546 0.790567 0.180466
O O1 0.281347 0.428194 0.239282
O O2 0.195141 0.374012 0.251462
O O3 0.286609 0.320615 0.244317
O O4 0.253274 0.371195 0.000000
O O5 0.262213 0.972750 0.746815
O O6 0.161686 0.981327 0.785568
O O7 0.223479 0.018421 0.000000
O O8 0.785980 0.419218 0.500000
O O9 0.850805 0.406387 0.736476
O O10 0.757576 0.367835 0.757261
O O11 0.428406 0.498795 0.000000
O O12 0.412049 0.580469 0.832248
O O13 0.834895 0.118759 0.829265
O O14 0.899332 0.064251 0.000000
O O15 0.471472 0.057702 0.805149
O O16 0.373473 0.049356 0.770264
O O17 0.419485 0.994255 0.000000
O O18 0.398724 0.861354 0.000000
O O19 0.820131 0.773751 0.000000
#
# Coordination Sequence:
#
# PCOD9545933 Si02
#       8
#    16  16  16   8  16  16  16  16
#     4  11  24  35  54  91 127 153 192 249 302 352
#     4   9  19  37  60  86 110 150 207 249 297 359
#     4   8  17  38  63  81 111 158 200 242 297 356
#     4  11  26  40  56  86 122 162 202 250 309 377
#     4   9  21  39  62  88 115 156 205 255 312 367
#     4  11  23  41  65  91 120 160 204 247 298 357
#     4  10  22  40  59  89 127 161 196 244 298 352
#     4   9  19  38  61  85 111 152 206 249 296 362
#
# _framework density 22.507821
#
# number of rings (size 3 to 8) (size 9 to 14) (size 15 to 20)
#    0.000    2.333    0.000    3.600    5.600    2.133 
#    0.000    1.333    0.000    0.000    0.000    0.000 
#    0.000    0.000    0.000    0.000    0.000    0.000 
#
# Total GULP energy -335032.326604 kJ/mol
# GULP energy per Si atom -5583.872110 kJ/mol
# Density = 2.245659 g / cm^3
# Si number density = 22.507821 Si / 1000 Ang^3
#
#
#
# Elastic Constant Matrix: (Units=GPa)
#
#
# Indices 1 2 3 4 5 6 
#
# 1 0.5730 58.0816 7.0264 0.0000 0.0000 -77.8250
# 2 58.0816 0.5730 7.0264 0.0000 0.0000 77.8250
# 3 7.0264 7.0264 45.7232 0.0000 0.0000 0.0000
# 4 0.0000 0.0000 0.0000 12.7150 0.0000 0.0000
# 5 0.0000 0.0000 0.0000 0.0000 12.7150 0.0000
# 6 -77.8250 77.8250 0.0000 0.0000 0.0000 -71.7271
#
#
#
# Elastic Compliance Matrix: (Units=1/GPa)
#
#
# Indices 1 2 3 4 5 6 
#
# 1 0.013340 0.004361 -0.002720 0.000000 0.000000 -0.009742
# 2 0.004361 0.013340 -0.002720 0.000000 0.000000 0.009742
# 3 -0.002720 -0.002720 0.022707 0.000000 0.000000 0.000000
# 4 0.000000 0.000000 0.000000 0.078648 0.000000 0.000000
# 5 0.000000 0.000000 0.000000 0.000000 0.078648 0.000000
# 6 -0.009742 0.009742 0.000000 0.000000 0.000000 0.007199
#
#
# Mechanical properties :
#
#
# Convention : Reuss Voigt Hill
#
# Bulk Modulus (GPa) = 21.17404 21.23755 21.20579
# Shear Modulus (GPa) = 21.57206 -10.94377 5.31415
#
# Velocity S-wave (km/s) = 3.09920 -2.20743 1.53823
# Velocity P-wave (km/s) = 4.71536 1.72020 3.54920
#
# Compressibility (1/GPa) = 0.04722765
#
# Stress axis : x y z
#
# Youngs Moduli (GPa) = 74.96412 74.96412 44.03981
#
# Poissons Ratio (x) = -0.32692 0.11979
# Poissons Ratio (y) = -0.32692 0.11979
# Poissons Ratio (z) = 0.20391 0.20391
#
# Static dielectric constant tensor:
#      x y z
#    x 1.866670 0.000000 0.000000 
#    y 0.000000 1.866670 0.000000 
#    z 0.000000 0.000000 1.820900 
# 
# From -- ./inp_files/1702.got.cif
#   From: 2010.05.17/outbox.cif.g08.bks.cpg/sg87_1_cif.got.tgz:1702.got - 2010.06.03 19:07:00.
