data_PCOD9545891
_publ_section_title
;
Structure prediction by ZEFSAII (Michael W. Deem and Ramdas Pophale) SiO2 
 PCOD9545891
Probable space group: I 4/M
;
_chemical_formula_sum "Si O2"
_cell_formula_units_Z 112
_cell_length_a 15.341596
_cell_length_b 15.341596
_cell_length_c 21.651153
_cell_angle_alpha 90.000000
_cell_angle_beta 90.000000
_cell_angle_gamma 90.000000
_cell_volume 5095.914269
_symmetry_space_group_name_H-M "I 4/M"
_symmetry_group_IT_number 87
_symmetry_cell_setting 'tetragonal'
loop_
_space_group_symop_operation_xyz
x,y,z
-y,x,z
-x,-y,z
y,-x,z
-x,-y,-z
y,-x,-z
x,y,-z
-y,x,-z
1/2+x,1/2+y,1/2+z
1/2-y,1/2+x,1/2+z
1/2-x,1/2-y,1/2+z
1/2+y,1/2-x,1/2+z
1/2-x,1/2-y,1/2-z
1/2+y,1/2-x,1/2-z
1/2+x,1/2+y,1/2-z
1/2-y,1/2+x,1/2-z
loop_
_atom_site_type_symbol
_atom_site_label
_atom_site_fract_x
_atom_site_fract_y
_atom_site_fract_z
Si Si1 0.373234 0.557332 0.074328
Si Si2 0.563879 0.815677 0.883408
Si Si3 0.816128 0.545591 0.569883
Si Si4 0.164059 0.182009 0.926311
Si Si5 0.651183 0.786985 0.246001
Si Si6 0.364062 0.860601 0.126583
Si Si7 0.631620 0.442420 0.686771
O O1 0.389014 0.457561 0.095205
O O2 0.281429 0.589309 0.097132
O O3 0.373613 0.557851 0.000000
O O4 0.604015 0.887908 0.927533
O O5 0.610825 0.825044 0.816691
O O6 0.459832 0.826867 0.888924
O O7 0.797657 0.516339 0.500000
O O8 0.736203 0.608737 0.589730
O O9 0.845330 0.460926 0.607719
O O10 0.188233 0.280605 0.904744
O O11 0.080468 0.158620 0.884004
O O12 0.151177 0.179659 0.000000
O O13 0.750000 0.750000 0.250000
O O14 0.646768 0.857297 0.300059
O O15 0.591005 0.706985 0.268736
O O16 0.610429 0.542710 0.697304
#
# Coordination Sequence:
#
# PCOD9545891 Si02
#       7
#    16  16  16  16  16  16  16
#     4   9  21  41  65  98 138 175 220 281 341 407
#     4  12  26  41  72  97 133 181 233 281 346 415
#     4  11  25  46  69 102 142 181 227 286 353 418
#     4  10  21  40  69  98 134 180 227 282 347 419
#     4  11  27  44  67  93 139 176 234 281 342 402
#     4  11  26  44  67 100 135 179 230 288 340 410
#     4  10  22  40  64  95 134 176 224 284 345 405
#
# _framework density 21.978390999999998
#
# number of rings (size 3 to 8) (size 9 to 14) (size 15 to 20)
#    0.000    1.429    0.000    5.143    8.000    4.571 
#    0.000    2.143    0.000    0.000    0.000    0.000 
#    0.000    0.000    0.000    0.000    0.000    0.000 
#
# Total GULP energy -312871.155732 kJ/mol
# GULP energy per Si atom -5586.984924 kJ/mol
# Density = 2.192837 g / cm^3
# Si number density = 21.978391 Si / 1000 Ang^3
#
#
#
# Elastic Constant Matrix: (Units=GPa)
#
#
# Indices 1 2 3 4 5 6 
#
# 1 90.4659 -4.6835 3.8171 0.0000 0.0000 -7.6141
# 2 -4.6835 90.4659 3.8171 0.0000 0.0000 7.6141
# 3 3.8171 3.8171 57.2015 0.0000 0.0000 0.0000
# 4 0.0000 0.0000 0.0000 -3.0023 0.0000 0.0000
# 5 0.0000 0.0000 0.0000 0.0000 -3.0023 0.0000
# 6 -7.6141 7.6141 0.0000 0.0000 0.0000 22.1768
#
#
#
# Elastic Compliance Matrix: (Units=1/GPa)
#
#
# Indices 1 2 3 4 5 6 
#
# 1 0.011424 0.000303 -0.000783 0.000000 0.000000 0.003818
# 2 0.000303 0.011424 -0.000783 0.000000 0.000000 -0.003818
# 3 -0.000783 -0.000783 0.017586 0.000000 0.000000 0.000000
# 4 0.000000 0.000000 0.000000 -0.333073 0.000000 0.000000
# 5 0.000000 0.000000 0.000000 0.000000 -0.333073 0.000000
# 6 0.003818 -0.003818 0.000000 0.000000 0.000000 0.047714
#
#
# Mechanical properties :
#
#
# Convention : Reuss Voigt Hill
#
# Bulk Modulus (GPa) = 26.37802 27.11498 26.74650
# Shear Modulus (GPa) = -8.88356 18.91327 5.01486
#
# Velocity S-wave (km/s) = -2.01264 2.93668 1.51218
# Velocity P-wave (km/s) = 2.57427 4.88494 3.90446
#
# Compressibility (1/GPa) = 0.03791035
#
# Stress axis : x y z
#
# Youngs Moduli (GPa) = 87.53535 87.53535 56.86183
#
# Poissons Ratio (x) = -0.02653 0.04450
# Poissons Ratio (y) = -0.02653 0.04450
# Poissons Ratio (z) = 0.06850 0.06850
#
# Static dielectric constant tensor:
#      x y z
#    x 1.811250 0.000000 0.000000 
#    y 0.000000 1.811250 0.000000 
#    z 0.000000 0.000000 1.832720 
# 
# From -- ./inp_files/5922.got.cif
#   From: 2010.05.17/outbox.cif.g08.bks.cpg/sg87_3_cif.got.tgz:5922.got - 2010.06.03 19:07:00.
