data_PCOD9545632
_publ_section_title
;
Structure prediction by ZEFSAII (Michael W. Deem and Ramdas Pophale) SiO2 
 PCOD9545632
Probable space group: I 4/M
;
_chemical_formula_sum "Si O2"
_cell_formula_units_Z 88
_cell_length_a 17.522514
_cell_length_b 17.522514
_cell_length_c 14.494116
_cell_angle_alpha 90.000000
_cell_angle_beta 90.000000
_cell_angle_gamma 90.000000
_cell_volume 4450.251590
_symmetry_space_group_name_H-M "I 4/M"
_symmetry_group_IT_number 87
_symmetry_cell_setting 'tetragonal'
loop_
_space_group_symop_operation_xyz
x,y,z
-y,x,z
-x,-y,z
y,-x,z
-x,-y,-z
y,-x,-z
x,y,-z
-y,x,-z
1/2+x,1/2+y,1/2+z
1/2-y,1/2+x,1/2+z
1/2-x,1/2-y,1/2+z
1/2+y,1/2-x,1/2+z
1/2-x,1/2-y,1/2-z
1/2+y,1/2-x,1/2-z
1/2+x,1/2+y,1/2-z
1/2-y,1/2+x,1/2-z
loop_
_atom_site_type_symbol
_atom_site_label
_atom_site_fract_x
_atom_site_fract_y
_atom_site_fract_z
Si Si1 0.877698 0.966803 0.391004
Si Si2 0.285247 0.809631 0.000000
Si Si3 0.888986 0.467472 0.294043
Si Si4 0.205165 0.641147 0.808920
Si Si5 0.663441 0.021820 0.000000
Si Si6 0.355777 0.733279 0.819599
Si Si7 0.685572 0.848360 0.000000
O O1 0.859137 0.961223 0.500000
O O2 0.805948 0.936807 0.334263
O O3 0.949175 0.910078 0.374129
O O4 0.331144 0.781682 0.090332
O O5 0.284297 0.901649 0.000000
O O6 0.205902 0.761268 0.000000
O O7 0.910119 0.544941 0.241134
O O8 0.812011 0.430613 0.254877
O O9 0.884599 0.475273 0.404255
O O10 0.292286 0.667008 0.811278
O O11 0.158273 0.712774 0.766771
O O12 0.174240 0.634914 0.911854
O O13 0.702733 0.938440 0.000000
#
# Coordination Sequence:
#
# PCOD9545632 Si02
#       7
#    16   8  16  16   8  16   8
#     4   9  18  33  53  82 120 156 188 235 303 366
#     4  10  20  36  63  92 116 151 204 243 298 364
#     4  11  24  39  58  89 125 163 206 241 302 368
#     4  10  21  37  57  85 114 154 200 252 299 355
#     4  12  22  42  68  87 126 163 198 258 305 355
#     4  10  19  35  58  85 118 147 200 253 294 361
#     4  10  22  41  62  84 117 159 199 246 308 349
#
# _framework density 19.774162
#
# number of rings (size 3 to 8) (size 9 to 14) (size 15 to 20)
#    0.000    1.818    4.545    0.545    0.000    3.636 
#    0.000    0.000    0.000    0.273    0.000    0.000 
#    0.000    0.000    0.000    0.000    0.000    0.000 
#
# Total GULP energy -245535.271364 kJ/mol
# GULP energy per Si atom -5580.347076 kJ/mol
# Density = 1.972916 g / cm^3
# Si number density = 19.774162 Si / 1000 Ang^3
#
#
#
# Elastic Constant Matrix: (Units=GPa)
#
#
# Indices 1 2 3 4 5 6 
#
# 1 5.9479 58.3105 16.6754 0.0000 0.0000 9.8147
# 2 58.3105 5.9479 16.6754 0.0000 0.0000 -9.8147
# 3 16.6754 16.6754 140.6332 0.0000 0.0000 0.0000
# 4 0.0000 0.0000 0.0000 18.1243 0.0000 0.0000
# 5 0.0000 0.0000 0.0000 0.0000 18.1243 0.0000
# 6 9.8147 -9.8147 0.0000 0.0000 0.0000 24.3700
#
#
#
# Elastic Compliance Matrix: (Units=1/GPa)
#
#
# Indices 1 2 3 4 5 6 
#
# 1 -0.000005 0.016588 -0.001966 0.000000 0.000000 0.006682
# 2 0.016588 -0.000005 -0.001966 0.000000 0.000000 -0.006682
# 3 -0.001966 -0.001966 0.007577 0.000000 0.000000 0.000000
# 4 0.000000 0.000000 0.000000 0.055174 0.000000 0.000000
# 5 0.000000 0.000000 0.000000 0.000000 0.055174 0.000000
# 6 0.006682 -0.006682 0.000000 0.000000 0.000000 0.035652
#
#
# Mechanical properties :
#
#
# Convention : Reuss Voigt Hill
#
# Bulk Modulus (GPa) = 30.41615 37.31684 33.86649
# Shear Modulus (GPa) = 35.91526 16.18158 26.04842
#
# Velocity S-wave (km/s) = 4.26640 2.86373 3.63339
# Velocity P-wave (km/s) = 6.29958 5.46325 5.89626
#
# Compressibility (1/GPa) = 0.03287727
#
# Stress axis : x y z
#
# Youngs Moduli (GPa) = -202984.17540 -202985.75310 131.97858
#
# Poissons Ratio (x) = 3367.04569 0.25950
# Poissons Ratio (y) = 3367.01952 0.25950
# Poissons Ratio (z) = -399.12031 -399.12341
#
# Static dielectric constant tensor:
#      x y z
#    x 1.724450 0.000000 0.000000 
#    y 0.000000 1.724450 0.000000 
#    z 0.000000 0.000000 1.695130 
# 
# From -- ./inp_files/3669.got.cif
#   From: 2010.05.17/outbox.cif.g08.bks.cpg/sg87_2_cif.got.tgz:3669.got - 2010.06.03 19:07:00.
