data_PCOD9545762
_publ_section_title
;
Structure prediction by ZEFSAII (Michael W. Deem and Ramdas Pophale) SiO2 
 PCOD9545762
Probable space group: I 4/M
;
_chemical_formula_sum "Si O2"
_cell_formula_units_Z 120
_cell_length_a 20.773207
_cell_length_b 20.773207
_cell_length_c 15.658714
_cell_angle_alpha 90.000000
_cell_angle_beta 90.000000
_cell_angle_gamma 90.000000
_cell_volume 6757.144239
_symmetry_space_group_name_H-M "I 4/M"
_symmetry_group_IT_number 87
_symmetry_cell_setting 'tetragonal'
loop_
_space_group_symop_operation_xyz
x,y,z
-y,x,z
-x,-y,z
y,-x,z
-x,-y,-z
y,-x,-z
x,y,-z
-y,x,-z
1/2+x,1/2+y,1/2+z
1/2-y,1/2+x,1/2+z
1/2-x,1/2-y,1/2+z
1/2+y,1/2-x,1/2+z
1/2-x,1/2-y,1/2-z
1/2+y,1/2-x,1/2-z
1/2+x,1/2+y,1/2-z
1/2-y,1/2+x,1/2-z
loop_
_atom_site_type_symbol
_atom_site_label
_atom_site_fract_x
_atom_site_fract_y
_atom_site_fract_z
Si Si1 0.429187 0.304534 0.159821
Si Si2 0.037355 0.103205 0.500000
Si Si3 0.320017 0.494000 0.664029
Si Si4 0.796836 0.584187 0.693694
Si Si5 0.867507 0.125837 0.098350
Si Si6 0.090589 0.341999 0.600849
Si Si7 0.507502 0.093246 0.217423
Si Si8 0.295043 0.312105 0.743123
O O1 0.446749 0.352877 0.083016
O O2 0.477770 0.315510 0.239652
O O3 0.428280 0.229882 0.130732
O O4 0.356355 0.314632 0.194841
O O5 0.962587 0.079862 0.500000
O O6 0.251420 0.461552 0.641372
O O7 0.339281 0.554636 0.607383
O O8 0.369381 0.435440 0.648691
O O9 0.842195 0.632757 0.640910
O O10 0.842856 0.539637 0.748503
O O11 0.750743 0.626460 0.753615
O O12 0.820348 0.174585 0.148333
O O13 0.876807 0.143257 0.000000
O O14 0.094556 0.343428 0.500000
O O15 0.036309 0.390377 0.637131
O O16 0.459828 0.063244 0.289301
O O17 0.250000 0.250000 0.750000
#
# Coordination Sequence:
#
# PCOD9545762 Si02
#       8
#    16   8  16  16  16  16  16  16
#     4  11  22  41  62  92 122 166 209 253 314 365
#     4  11  28  44  62  90 134 167 216 270 301 365
#     4  10  22  38  61  88 118 158 200 245 305 379
#     4  10  20  36  62  86 112 157 199 246 299 368
#     4  10  22  38  60  87 117 153 196 254 300 357
#     4  11  21  36  61  92 120 155 202 259 307 362
#     4   9  19  36  57  83 116 157 198 238 296 368
#     4  10  21  38  60  87 121 156 202 247 307 381
#
# _framework density 17.758980999999999
#
# number of rings (size 3 to 8) (size 9 to 14) (size 15 to 20)
#    0.000    1.800    3.333    0.400    5.600    2.933 
#    1.200    6.000    0.000    1.600    0.000    0.000 
#    0.000    0.000    0.000    0.000    0.000    0.000 
#
# Total GULP energy -334384.041182 kJ/mol
# GULP energy per Si atom -5573.067353 kJ/mol
# Density = 1.771856 g / cm^3
# Si number density = 17.758981 Si / 1000 Ang^3
#
#
#
# Elastic Constant Matrix: (Units=GPa)
#
#
# Indices 1 2 3 4 5 6 
#
# 1 107.4779 57.5997 38.8948 0.0000 0.0000 -11.7837
# 2 57.5997 107.4779 38.8948 0.0000 0.0000 11.7837
# 3 38.8948 38.8948 107.0715 0.0000 0.0000 0.0000
# 4 0.0000 0.0000 0.0000 15.9989 0.0000 0.0000
# 5 0.0000 0.0000 0.0000 0.0000 15.9989 0.0000
# 6 -11.7837 11.7837 0.0000 0.0000 0.0000 41.8499
#
#
#
# Elastic Compliance Matrix: (Units=1/GPa)
#
#
# Indices 1 2 3 4 5 6 
#
# 1 0.015217 -0.007908 -0.002655 0.000000 0.000000 0.006511
# 2 -0.007908 0.015217 -0.002655 0.000000 0.000000 -0.006511
# 3 -0.002655 -0.002655 0.011268 0.000000 0.000000 0.000000
# 4 0.000000 0.000000 0.000000 0.062504 0.000000 0.000000
# 5 0.000000 0.000000 0.000000 0.000000 0.062504 0.000000
# 6 0.006511 -0.006511 0.000000 0.000000 0.000000 0.027562
#
#
# Mechanical properties :
#
#
# Convention : Reuss Voigt Hill
#
# Bulk Modulus (GPa) = 65.50441 65.86733 65.68587
# Shear Modulus (GPa) = 22.14364 27.21209 24.67787
#
# Velocity S-wave (km/s) = 3.53498 3.91871 3.73178
# Velocity P-wave (km/s) = 7.32303 7.59244 7.45895
#
# Compressibility (1/GPa) = 0.01526615
#
# Stress axis : x y z
#
# Youngs Moduli (GPa) = 65.71530 65.71530 88.74311
#
# Poissons Ratio (x) = 0.51969 0.23562
# Poissons Ratio (y) = 0.51969 0.23562
# Poissons Ratio (z) = 0.17448 0.17448
#
# Static dielectric constant tensor:
#      x y z
#    x 1.631000 0.000000 0.000000 
#    y 0.000000 1.631000 0.000000 
#    z 0.000000 0.000000 1.577380 
# 
# From -- ./inp_files/3872.got.cif
#   From: 2010.05.17/outbox.cif.g08.bks.cpg/sg87_2_cif.got.tgz:3872.got - 2010.06.03 19:07:00.
