data_PCOD9545708
_publ_section_title
;
Structure prediction by ZEFSAII (Michael W. Deem and Ramdas Pophale) SiO2 
 PCOD9545708
Probable space group: I 4/M
;
_chemical_formula_sum "Si O2"
_cell_formula_units_Z 116
_cell_length_a 28.008151
_cell_length_b 28.008151
_cell_length_c 8.563574
_cell_angle_alpha 90.000000
_cell_angle_beta 90.000000
_cell_angle_gamma 90.000000
_cell_volume 6717.751480
_symmetry_space_group_name_H-M "I 4/M"
_symmetry_group_IT_number 87
_symmetry_cell_setting 'tetragonal'
loop_
_space_group_symop_operation_xyz
x,y,z
-y,x,z
-x,-y,z
y,-x,z
-x,-y,-z
y,-x,-z
x,y,-z
-y,x,-z
1/2+x,1/2+y,1/2+z
1/2-y,1/2+x,1/2+z
1/2-x,1/2-y,1/2+z
1/2+y,1/2-x,1/2+z
1/2-x,1/2-y,1/2-z
1/2+y,1/2-x,1/2-z
1/2+x,1/2+y,1/2-z
1/2-y,1/2+x,1/2-z
loop_
_atom_site_type_symbol
_atom_site_label
_atom_site_fract_x
_atom_site_fract_y
_atom_site_fract_z
Si Si1 0.000000 0.000000 0.788737
Si Si2 0.667179 0.400512 0.184411
Si Si3 0.237363 0.561677 0.312322
Si Si4 0.549883 0.131707 0.813340
Si Si5 0.549716 0.235420 0.312524
Si Si6 0.443292 0.129324 0.688690
Si Si7 0.003887 0.106688 0.315035
Si Si8 0.586444 0.337103 0.685750
O O1 0.990590 0.942128 0.778914
O O2 0.721594 0.406639 0.237031
O O3 0.640896 0.451196 0.216296
O O4 0.636939 0.360116 0.271431
O O5 0.664309 0.392006 0.000000
O O6 0.240954 0.565463 0.500000
O O7 0.245387 0.505801 0.270693
O O8 0.182893 0.572503 0.264527
O O9 0.563676 0.185317 0.763078
O O10 0.497113 0.121808 0.747338
O O11 0.588612 0.093091 0.757633
O O12 0.547767 0.129501 0.000000
O O13 0.551189 0.229558 0.500000
O O14 0.580422 0.281640 0.269027
O O15 0.444616 0.128974 0.500000
O O16 0.003630 0.093849 0.500000
O O17 0.955041 0.133194 0.272047
O O18 0.578013 0.340521 0.500000
#
# Coordination Sequence:
#
# PCOD9545708 Si02
#       8
#     4  16  16  16  16  16  16  16
#     4  12  21  36  49  62  97 144 173 198 273 336
#     4  11  22  33  49  74 101 130 172 226 273 312
#     4   9  17  34  55  73 101 139 176 216 262 315
#     4  10  20  34  57  86 113 146 181 212 252 306
#     4   9  19  35  54  76 105 139 177 224 270 315
#     4   9  20  37  55  82 118 148 176 212 255 305
#     4  11  21  33  48  66  95 133 171 217 267 319
#     4  11  22  35  51  71  98 134 177 220 269 323
#
# _framework density 17.267682000000001
#
# number of rings (size 3 to 8) (size 9 to 14) (size 15 to 20)
#    0.000    1.931    2.759    2.690    0.000    5.241 
#    0.000    1.724    0.000    0.828    0.000    0.000 
#    0.000    0.000    0.000    0.000    0.000    0.000 
#
# Total GULP energy -323235.406014 kJ/mol
# GULP energy per Si atom -5573.024242 kJ/mol
# Density = 1.722838 g / cm^3
# Si number density = 17.267682 Si / 1000 Ang^3
#
#
#
# Elastic Constant Matrix: (Units=GPa)
#
#
# Indices 1 2 3 4 5 6 
#
# 1 92.1799 59.1643 17.6602 0.0000 0.0000 -0.0667
# 2 59.1643 92.1799 17.6602 0.0000 0.0000 0.0667
# 3 17.6602 17.6602 11.1271 0.0000 0.0000 0.0000
# 4 0.0000 0.0000 0.0000 17.3453 0.0000 0.0000
# 5 0.0000 0.0000 0.0000 0.0000 17.3453 0.0000
# 6 -0.0667 0.0667 0.0000 0.0000 0.0000 23.3378
#
#
#
# Elastic Compliance Matrix: (Units=1/GPa)
#
#
# Indices 1 2 3 4 5 6 
#
# 1 0.020392 -0.009897 -0.016656 0.000000 0.000000 0.000087
# 2 -0.009897 0.020392 -0.016656 0.000000 0.000000 -0.000087
# 3 -0.016656 -0.016656 0.142742 0.000000 0.000000 0.000000
# 4 0.000000 0.000000 0.000000 0.057653 0.000000 0.000000
# 5 0.000000 0.000000 0.000000 0.000000 0.057653 0.000000
# 6 0.000087 -0.000087 0.000000 0.000000 0.000000 0.042849
#
#
# Mechanical properties :
#
#
# Convention : Reuss Voigt Hill
#
# Bulk Modulus (GPa) = 10.29806 42.71738 26.50772
# Shear Modulus (GPa) = 10.85851 18.33917 14.59884
#
# Velocity S-wave (km/s) = 2.51038 3.26245 2.91080
# Velocity P-wave (km/s) = 3.79202 6.24367 5.16541
#
# Compressibility (1/GPa) = 0.09710564
#
# Stress axis : x y z
#
# Youngs Moduli (GPa) = 49.03916 49.03916 7.00566
#
# Poissons Ratio (x) = 0.48535 0.11669
# Poissons Ratio (y) = 0.48535 0.11669
# Poissons Ratio (z) = 0.81681 0.81681
#
# Static dielectric constant tensor:
#      x y z
#    x 1.573090 0.000000 0.000000 
#    y 0.000000 1.573090 0.000000 
#    z 0.000000 0.000000 1.608710 
# 
# From -- ./inp_files/1729.got.cif
#   From: 2010.05.17/outbox.cif.g08.bks.cpg/sg87_1_cif.got.tgz:1729.got - 2010.06.03 19:07:00.
