data_PCOD9545309
_publ_section_title
;
Structure prediction by ZEFSAII (Michael W. Deem and Ramdas Pophale) SiO2 
 PCOD9545309
Probable space group: P 42/N
;
_chemical_formula_sum "Si O2"
_cell_formula_units_Z 26
_cell_length_a 11.272536
_cell_length_b 11.272536
_cell_length_c 8.502523
_cell_angle_alpha 90.000000
_cell_angle_beta 90.000000
_cell_angle_gamma 90.000000
_cell_volume 1080.416175
_symmetry_space_group_name_H-M "P 42/N"
_symmetry_group_IT_number 86
_space_group.IT_coordinate_system_code '2'
_symmetry_cell_setting 'tetragonal'
loop_
_space_group_symop_operation_xyz
x,y,z
-y,1/2+x,1/2+z
1/2-x,1/2-y,z
1/2+y,-x,1/2+z
-x,-y,-z
y,1/2-x,1/2-z
1/2+x,1/2+y,-z
1/2-y,x,1/2-z
loop_
_atom_site_type_symbol
_atom_site_label
_atom_site_fract_x
_atom_site_fract_y
_atom_site_fract_z
Si Si1 0.583167 0.400805 0.421748
Si Si2 0.297500 0.881753 0.763596
Si Si3 0.056838 0.425557 0.357576
Si Si4 0.750000 0.750000 0.750000
O O1 0.500000 0.500000 0.500000
O O2 0.714167 0.445964 0.366515
O O3 0.584169 0.295927 0.551316
O O4 0.520865 0.379471 0.255645
O O5 0.250000 0.750000 0.750667
O O6 0.435415 0.883788 0.724441
O O7 0.154200 0.320210 0.359415
O O8 0.000000 0.500000 0.500000
#
# Coordination Sequence:
#
# PCOD9545309 Si02
#       4
#     8   8   8   2
#     4  10  25  45  73 115 157 213 275 341 425 503
#     4  11  24  45  75 111 155 209 274 334 421 506
#     4  11  28  49  78 118 165 214 276 350 426 509
#     4  12  28  48  80 118 172 216 288 346 432 508
#
# _framework density 24.064800999999999
#
# number of rings (size 3 to 8) (size 9 to 14) (size 15 to 20)
#    0.000    1.231    0.000    2.769   21.538    0.000 
#    0.000    0.000    0.000   12.923    0.000    0.000 
#    0.000    0.000    0.000    0.000    0.000    0.000 
#
# Total GULP energy -144938.885487 kJ/mol
# GULP energy per Si atom -5574.572519 kJ/mol
# Density = 2.401003 g / cm^3
# Si number density = 24.064801 Si / 1000 Ang^3
#
#
#
# Elastic Constant Matrix: (Units=GPa)
#
#
# Indices 1 2 3 4 5 6 
#
# 1 144.1314 57.7453 58.9714 0.0000 0.0000 -5.7941
# 2 57.7453 144.1314 58.9714 0.0000 0.0000 5.7941
# 3 58.9714 58.9714 161.6189 0.0000 0.0000 0.0000
# 4 0.0000 0.0000 0.0000 41.9019 0.0000 0.0000
# 5 0.0000 0.0000 0.0000 0.0000 41.9019 0.0000
# 6 -5.7941 5.7941 0.0000 0.0000 0.0000 53.7920
#
#
#
# Elastic Compliance Matrix: (Units=1/GPa)
#
#
# Indices 1 2 3 4 5 6 
#
# 1 0.009021 -0.002725 -0.002297 0.000000 0.000000 0.001265
# 2 -0.002725 0.009021 -0.002297 0.000000 0.000000 -0.001265
# 3 -0.002297 -0.002297 0.007864 0.000000 0.000000 0.000000
# 4 0.000000 0.000000 0.000000 0.023865 0.000000 0.000000
# 5 0.000000 0.000000 0.000000 0.000000 0.023865 0.000000
# 6 0.001265 -0.001265 0.000000 0.000000 0.000000 0.018863
#
#
# Mechanical properties :
#
#
# Convention : Reuss Voigt Hill
#
# Bulk Modulus (GPa) = 88.75958 89.02865 88.89411
# Shear Modulus (GPa) = 45.08885 45.79875 45.44380
#
# Velocity S-wave (km/s) = 4.33326 4.36724 4.35028
# Velocity P-wave (km/s) = 7.87399 7.90607 7.89005
#
# Compressibility (1/GPa) = 0.01126639
#
# Stress axis : x y z
#
# Youngs Moduli (GPa) = 110.85727 110.85727 127.16590
#
# Poissons Ratio (x) = 0.30209 0.29212
# Poissons Ratio (y) = 0.30209 0.29212
# Poissons Ratio (z) = 0.25465 0.25465
#
# Static dielectric constant tensor:
#      x y z
#    x 2.021360 0.000000 0.000000 
#    y 0.000000 2.021360 0.000000 
#    z 0.000000 0.000000 2.135820 
# 
# From -- ./inp_files/772.got.cif
#   From: 2010.05.17/outbox.cif.g08.bks.cpg/sg86_1_cif.got.tgz:772.got - 2010.06.03 19:03:11.
