data_PCOD9545348
_publ_section_title
;
Structure prediction by ZEFSAII (Michael W. Deem and Ramdas Pophale) SiO2 
 PCOD9545348
Probable space group: P 42/N
;
_chemical_formula_sum "Si O2"
_cell_formula_units_Z 40
_cell_length_a 8.882760
_cell_length_b 8.882760
_cell_length_c 23.315954
_cell_angle_alpha 90.000000
_cell_angle_beta 90.000000
_cell_angle_gamma 90.000000
_cell_volume 1839.708633
_symmetry_space_group_name_H-M "P 42/N"
_symmetry_group_IT_number 86
_space_group.IT_coordinate_system_code '2'
_symmetry_cell_setting 'tetragonal'
loop_
_space_group_symop_operation_xyz
x,y,z
-y,1/2+x,1/2+z
1/2-x,1/2-y,z
1/2+y,-x,1/2+z
-x,-y,-z
y,1/2-x,1/2-z
1/2+x,1/2+y,-z
1/2-y,x,1/2-z
loop_
_atom_site_type_symbol
_atom_site_label
_atom_site_fract_x
_atom_site_fract_y
_atom_site_fract_z
Si Si1 0.436918 0.622107 0.115038
Si Si2 0.906424 0.309722 0.641514
Si Si3 0.303331 0.082196 0.057625
Si Si4 0.752705 0.996804 0.261013
Si Si5 0.410225 0.398773 0.569613
O O1 0.529381 0.466267 0.122215
O O2 0.287089 0.557065 0.085972
O O3 0.433691 0.700033 0.178356
O O4 0.520915 0.748776 0.076807
O O5 0.750000 0.250000 0.616121
O O6 0.894889 0.300928 0.709813
O O7 0.047696 0.208804 0.621566
O O8 0.250000 0.250000 0.075593
O O9 0.476066 0.041279 0.070299
O O10 0.301920 0.078737 0.988376
O O11 0.894867 0.884623 0.262636
#
# Coordination Sequence:
#
# PCOD9545348 Si02
#       5
#     8   8   8   8   8
#     4  11  22  42  67  91 128 176 222 275 326 404
#     4  11  22  37  64  96 128 161 217 280 329 387
#     4  11  25  42  64  95 134 171 219 274 335 396
#     4   9  18  37  65  93 123 166 221 269 323 395
#     4  11  24  42  65  93 127 175 221 265 330 410
#
# _framework density 21.742576
#
# number of rings (size 3 to 8) (size 9 to 14) (size 15 to 20)
#    0.000    1.400    2.000    3.600    0.000    8.000 
#    0.000    0.000    0.000    0.000    0.000    0.000 
#    0.000    0.000    0.000    0.000    0.000    0.000 
#
# Total GULP energy -223015.076366 kJ/mol
# GULP energy per Si atom -5575.376909 kJ/mol
# Density = 2.169309 g / cm^3
# Si number density = 21.742576 Si / 1000 Ang^3
#
#
#
# Elastic Constant Matrix: (Units=GPa)
#
#
# Indices 1 2 3 4 5 6 
#
# 1 74.9325 -2.6894 9.8167 0.0000 0.0000 3.8018
# 2 -2.6894 74.9325 9.8167 0.0000 0.0000 -3.8018
# 3 9.8167 9.8167 96.8692 0.0000 0.0000 0.0000
# 4 0.0000 0.0000 0.0000 14.9590 0.0000 0.0000
# 5 0.0000 0.0000 0.0000 0.0000 14.9590 0.0000
# 6 3.8018 -3.8018 0.0000 0.0000 0.0000 38.1050
#
#
#
# Elastic Compliance Matrix: (Units=1/GPa)
#
#
# Indices 1 2 3 4 5 6 
#
# 1 0.013622 0.000612 -0.001442 0.000000 0.000000 -0.001298
# 2 0.000612 0.013622 -0.001442 0.000000 0.000000 0.001298
# 3 -0.001442 -0.001442 0.010616 0.000000 0.000000 0.000000
# 4 0.000000 0.000000 0.000000 0.066849 0.000000 0.000000
# 5 0.000000 0.000000 0.000000 0.000000 0.066849 0.000000
# 6 -0.001298 0.001298 0.000000 0.000000 0.000000 0.026502
#
#
# Mechanical properties :
#
#
# Convention : Reuss Voigt Hill
#
# Bulk Modulus (GPa) = 30.01747 31.18027 30.59887
# Shear Modulus (GPa) = 23.39602 28.92393 26.15998
#
# Velocity S-wave (km/s) = 3.28387 3.65127 3.47243
# Velocity P-wave (km/s) = 5.31171 5.66988 5.49371
#
# Compressibility (1/GPa) = 0.03331394
#
# Stress axis : x y z
#
# Youngs Moduli (GPa) = 73.40987 73.40987 94.20131
#
# Poissons Ratio (x) = -0.04493 0.13588
# Poissons Ratio (y) = -0.04493 0.13588
# Poissons Ratio (z) = 0.10589 0.10589
#
# Static dielectric constant tensor:
#      x y z
#    x 1.813150 0.000000 0.000000 
#    y 0.000000 1.813150 0.000000 
#    z 0.000000 0.000000 1.818650 
# 
# From -- ./inp_files/4461.got.cif
#   From: 2010.05.17/outbox.cif.g08.bks.cpg/sg86_3_cif.got.tgz:4461.got - 2010.06.03 19:03:11.
