data_PCOD9545492
_publ_section_title
;
Structure prediction by ZEFSAII (Michael W. Deem and Ramdas Pophale) SiO2 
 PCOD9545492
Probable space group: I 4/M
;
_chemical_formula_sum "Si O2"
_cell_formula_units_Z 120
_cell_length_a 14.861835
_cell_length_b 14.861835
_cell_length_c 26.734012
_cell_angle_alpha 90.000000
_cell_angle_beta 90.000000
_cell_angle_gamma 90.000000
_cell_volume 5904.851898
_symmetry_space_group_name_H-M "I 4/M"
_symmetry_group_IT_number 87
_symmetry_cell_setting 'tetragonal'
loop_
_space_group_symop_operation_xyz
x,y,z
-y,x,z
-x,-y,z
y,-x,z
-x,-y,-z
y,-x,-z
x,y,-z
-y,x,-z
1/2+x,1/2+y,1/2+z
1/2-y,1/2+x,1/2+z
1/2-x,1/2-y,1/2+z
1/2+y,1/2-x,1/2+z
1/2-x,1/2-y,1/2-z
1/2+y,1/2-x,1/2-z
1/2+x,1/2+y,1/2-z
1/2-y,1/2+x,1/2-z
loop_
_atom_site_type_symbol
_atom_site_label
_atom_site_fract_x
_atom_site_fract_y
_atom_site_fract_z
Si Si1 0.774069 0.645257 0.556915
Si Si2 0.577352 0.695732 0.944769
Si Si3 0.356288 0.243848 0.386213
Si Si4 0.463433 0.809358 0.651435
Si Si5 0.268340 0.788002 0.304370
Si Si6 0.645239 0.941680 0.557100
Si Si7 0.371551 0.570007 0.835391
Si Si8 0.000000 0.500000 0.865504
O O1 0.768068 0.615237 0.500000
O O2 0.839923 0.732405 0.558234
O O3 0.678585 0.672878 0.580948
O O4 0.813804 0.572139 0.594201
O O5 0.487226 0.756794 0.942225
O O6 0.578461 0.635872 0.895657
O O7 0.582538 0.652740 0.000000
O O8 0.448778 0.252576 0.355082
O O9 0.278906 0.226512 0.345533
O O10 0.357822 0.160472 0.424370
O O11 0.375186 0.787683 0.683532
O O12 0.495915 0.908884 0.665689
O O13 0.250000 0.750000 0.250000
O O14 0.216910 0.882324 0.312930
O O15 0.612031 0.950607 0.500000
O O16 0.585159 0.992257 0.597827
O O17 0.381278 0.465127 0.820992
#
# Coordination Sequence:
#
# PCOD9545492 Si02
#       8
#    16  16  16  16  16  16  16   8
#     4  10  19  34  53  81 121 165 208 248 293 353
#     4  10  19  32  53  83 124 172 211 242 284 347
#     4  10  21  37  56  85 117 155 204 254 311 369
#     4  10  21  37  60  90 120 161 203 254 314 377
#     4  11  24  45  68  87 118 156 201 264 329 379
#     4  10  18  28  50  83 122 164 202 241 288 352
#     4  11  23  40  63  92 126 166 207 248 304 376
#     4  10  17  30  52  85 128 158 198 241 295 362
#
# _framework density 20.322272000000002
#
# number of rings (size 3 to 8) (size 9 to 14) (size 15 to 20)
#    0.000    1.733    4.000    1.400    0.000    5.333 
#    0.000    0.667    0.000    7.200    0.000    3.733 
#    0.000    0.000    0.000    0.000    0.000    0.000 
#
# Total GULP energy -334743.141967 kJ/mol
# GULP energy per Si atom -5579.052366 kJ/mol
# Density = 2.027602 g / cm^3
# Si number density = 20.322272 Si / 1000 Ang^3
#
#
#
# Elastic Constant Matrix: (Units=GPa)
#
#
# Indices 1 2 3 4 5 6 
#
# 1 59.8311 18.6837 -0.7720 0.0000 0.0000 -4.1427
# 2 18.6837 59.8311 -0.7720 0.0000 0.0000 4.1427
# 3 -0.7720 -0.7720 63.3470 0.0000 0.0000 0.0000
# 4 0.0000 0.0000 0.0000 5.3316 0.0000 0.0000
# 5 0.0000 0.0000 0.0000 0.0000 5.3316 0.0000
# 6 -4.1427 4.1427 0.0000 0.0000 0.0000 23.0070
#
#
#
# Elastic Compliance Matrix: (Units=1/GPa)
#
#
# Indices 1 2 3 4 5 6 
#
# 1 0.018978 -0.006239 0.000155 0.000000 0.000000 0.004541
# 2 -0.006239 0.018978 0.000155 0.000000 0.000000 -0.004541
# 3 0.000155 0.000155 0.015790 0.000000 0.000000 0.000000
# 4 0.000000 0.000000 0.000000 0.187560 0.000000 0.000000
# 5 0.000000 0.000000 0.000000 0.000000 0.187560 0.000000
# 6 0.004541 -0.004541 0.000000 0.000000 0.000000 0.045100
#
#
# Mechanical properties :
#
#
# Convention : Reuss Voigt Hill
#
# Bulk Modulus (GPa) = 23.87211 24.14318 24.00764
# Shear Modulus (GPa) = 10.00426 17.79202 13.89814
#
# Velocity S-wave (km/s) = 2.22115 2.96208 2.61796
# Velocity P-wave (km/s) = 4.28372 4.85845 4.58011
#
# Compressibility (1/GPa) = 0.04188988
#
# Stress axis : x y z
#
# Youngs Moduli (GPa) = 52.69164 52.69164 63.33186
#
# Poissons Ratio (x) = 0.32873 -0.00983
# Poissons Ratio (y) = 0.32873 -0.00983
# Poissons Ratio (z) = -0.00818 -0.00818
#
# Static dielectric constant tensor:
#      x y z
#    x 1.781340 0.000000 0.000000 
#    y 0.000000 1.781340 0.000000 
#    z 0.000000 0.000000 1.703390 
# 
# From -- ./inp_files/6763.got.cif
#   From: 2010.05.17/outbox.cif.g08.bks.cpg/sg87_4_cif.got.tgz:6763.got - 2010.06.03 19:07:00.
