data_PCOD9545952
_publ_section_title
;
Structure prediction by ZEFSAII (Michael W. Deem and Ramdas Pophale) SiO2 
 PCOD9545952
Probable space group: I 4/M
;
_chemical_formula_sum "Si O2"
_cell_formula_units_Z 88
_cell_length_a 15.731538
_cell_length_b 15.731538
_cell_length_c 18.751175
_cell_angle_alpha 90.000000
_cell_angle_beta 90.000000
_cell_angle_gamma 90.000000
_cell_volume 4640.564938
_symmetry_space_group_name_H-M "I 4/M"
_symmetry_group_IT_number 87
_symmetry_cell_setting 'tetragonal'
loop_
_space_group_symop_operation_xyz
x,y,z
-y,x,z
-x,-y,z
y,-x,z
-x,-y,-z
y,-x,-z
x,y,-z
-y,x,-z
1/2+x,1/2+y,1/2+z
1/2-y,1/2+x,1/2+z
1/2-x,1/2-y,1/2+z
1/2+y,1/2-x,1/2+z
1/2-x,1/2-y,1/2-z
1/2+y,1/2-x,1/2-z
1/2+x,1/2+y,1/2-z
1/2-y,1/2+x,1/2-z
loop_
_atom_site_type_symbol
_atom_site_label
_atom_site_fract_x
_atom_site_fract_y
_atom_site_fract_z
Si Si1 0.056627 0.200839 0.225304
Si Si2 0.872776 0.055963 0.380362
Si Si3 0.863620 0.960519 0.000000
Si Si4 0.613819 0.297130 0.358732
Si Si5 0.873483 0.687866 0.416216
Si Si6 0.443127 0.118748 0.780062
O O1 0.058294 0.140816 0.294684
O O2 0.118537 0.163468 0.165386
O O3 0.090102 0.292712 0.249020
O O4 0.959953 0.214109 0.199872
O O5 0.784995 0.093185 0.411075
O O6 0.957496 0.108663 0.399969
O O7 0.811883 0.939054 0.930274
O O8 0.945087 0.898982 0.000000
O O9 0.674459 0.218001 0.377506
O O10 0.869967 0.664388 0.500000
O O11 0.933141 0.628823 0.365477
O O12 0.539516 0.105463 0.754164
#
# Coordination Sequence:
#
# PCOD9545952 Si02
#       6
#    16  16   8  16  16  16
#     4  11  22  36  64  94 121 158 210 268 319 377
#     4  10  22  41  66  96 128 166 217 272 326 377
#     4  11  22  34  56  88 127 170 205 257 334 399
#     4  12  22  37  60  91 128 164 210 263 321 385
#     4  11  25  42  65  94 131 171 214 263 325 392
#     4  10  22  43  67  90 119 162 213 263 312 375
#
# _framework density 18.963207000000001
#
# number of rings (size 3 to 8) (size 9 to 14) (size 15 to 20)
#    0.000    1.182    6.364    0.000    0.000    6.909 
#    0.000    2.727    4.000    0.000    0.000    0.000 
#    0.000    0.000    0.000    0.000    0.000    0.000 
#
# Total GULP energy -245331.622354 kJ/mol
# GULP energy per Si atom -5575.718690 kJ/mol
# Density = 1.892005 g / cm^3
# Si number density = 18.963207 Si / 1000 Ang^3
#
#
#
# Elastic Constant Matrix: (Units=GPa)
#
#
# Indices 1 2 3 4 5 6 
#
# 1 97.2246 27.0963 19.8336 0.0000 0.0000 -5.2311
# 2 27.0963 97.2247 19.8336 0.0000 0.0000 5.2311
# 3 19.8336 19.8336 82.8567 0.0000 0.0000 0.0000
# 4 0.0000 0.0000 0.0000 22.0511 0.0000 0.0000
# 5 0.0000 0.0000 0.0000 0.0000 22.0511 0.0000
# 6 -5.2311 5.2311 0.0000 0.0000 0.0000 33.6085
#
#
#
# Elastic Compliance Matrix: (Units=1/GPa)
#
#
# Indices 1 2 3 4 5 6 
#
# 1 0.011654 -0.002945 -0.002085 0.000000 0.000000 0.002272
# 2 -0.002945 0.011654 -0.002085 0.000000 0.000000 -0.002272
# 3 -0.002085 -0.002085 0.013067 0.000000 0.000000 0.000000
# 4 0.000000 0.000000 0.000000 0.045349 0.000000 0.000000
# 5 0.000000 0.000000 0.000000 0.000000 0.045349 0.000000
# 6 0.002272 -0.002272 0.000000 0.000000 0.000000 0.030462
#
#
# Mechanical properties :
#
#
# Convention : Reuss Voigt Hill
#
# Bulk Modulus (GPa) = 45.15465 45.64812 45.40139
# Shear Modulus (GPa) = 27.91035 29.57830 28.74433
#
# Velocity S-wave (km/s) = 3.84059 3.95368 3.89754
# Velocity P-wave (km/s) = 6.59774 6.70569 6.65194
#
# Compressibility (1/GPa) = 0.02214611
#
# Stress axis : x y z
#
# Youngs Moduli (GPa) = 85.80965 85.80965 76.52833
#
# Poissons Ratio (x) = 0.25270 0.15954
# Poissons Ratio (y) = 0.25270 0.15954
# Poissons Ratio (z) = 0.17888 0.17888
#
# Static dielectric constant tensor:
#      x y z
#    x 1.652870 0.000000 0.000000 
#    y 0.000000 1.652870 0.000000 
#    z 0.000000 0.000000 1.677740 
# 
# From -- ./inp_files/5207.got.cif
#   From: 2010.05.17/outbox.cif.g08.bks.cpg/sg87_3_cif.got.tgz:5207.got - 2010.06.03 19:07:00.
