data_PCOD9545725
_publ_section_title
;
Structure prediction by ZEFSAII (Michael W. Deem and Ramdas Pophale) SiO2 
 PCOD9545725
Probable space group: I 4/M
;
_chemical_formula_sum "Si O2"
_cell_formula_units_Z 120
_cell_length_a 27.536644
_cell_length_b 27.536644
_cell_length_c 7.759622
_cell_angle_alpha 90.000000
_cell_angle_beta 90.000000
_cell_angle_gamma 90.000000
_cell_volume 5883.863454
_symmetry_space_group_name_H-M "I 4/M"
_symmetry_group_IT_number 87
_symmetry_cell_setting 'tetragonal'
loop_
_space_group_symop_operation_xyz
x,y,z
-y,x,z
-x,-y,z
y,-x,z
-x,-y,-z
y,-x,-z
x,y,-z
-y,x,-z
1/2+x,1/2+y,1/2+z
1/2-y,1/2+x,1/2+z
1/2-x,1/2-y,1/2+z
1/2+y,1/2-x,1/2+z
1/2-x,1/2-y,1/2-z
1/2+y,1/2-x,1/2-z
1/2+x,1/2+y,1/2-z
1/2-y,1/2+x,1/2-z
loop_
_atom_site_type_symbol
_atom_site_label
_atom_site_fract_x
_atom_site_fract_y
_atom_site_fract_z
Si Si1 0.943374 0.368797 0.291503
Si Si2 0.654775 0.509138 0.794156
Si Si3 0.444388 0.135441 0.702844
Si Si4 0.819677 0.100878 0.710762
Si Si5 0.635541 0.207723 0.796392
Si Si6 0.421317 0.483108 0.500000
Si Si7 0.188086 0.112874 0.292144
Si Si8 0.368753 0.214410 0.800622
O O1 0.944657 0.367536 0.500000
O O2 0.913949 0.417307 0.238747
O O3 0.909495 0.324416 0.228352
O O4 0.998448 0.366154 0.231480
O O5 0.672726 0.455495 0.742576
O O6 0.609508 0.521164 0.673661
O O7 0.689920 0.555014 0.761338
O O8 0.643989 0.508780 0.000000
O O9 0.434330 0.140276 0.500000
O O10 0.416693 0.180789 0.787135
O O11 0.819303 0.100747 0.500000
O O12 0.861212 0.138636 0.769844
O O13 0.767437 0.120097 0.772458
O O14 0.636815 0.262244 0.725696
O O15 0.683581 0.175461 0.776080
O O16 0.626723 0.212553 0.000000
O O17 0.463842 0.444531 0.500000
O O18 0.186265 0.118757 0.500000
O O19 0.356525 0.221095 0.000000
#
# Coordination Sequence:
#
# PCOD9545725 Si02
#       8
#    16  16  16  16  16   8  16  16
#     4   9  19  34  52  75 105 142 181 224 274 326
#     4  10  21  40  64  88 121 162 201 248 308 366
#     4  10  21  36  54  78 108 143 186 229 276 337
#     4   9  19  35  58  87 113 147 195 239 288 352
#     4   9  19  36  56  80 114 152 191 233 286 345
#     4  11  24  40  60  90 126 160 202 256 305 360
#     4   9  18  35  60  85 113 151 193 240 289 346
#     4  10  20  35  55  80 115 150 187 237 289 343
#
# _framework density 20.394762
#
# number of rings (size 3 to 8) (size 9 to 14) (size 15 to 20)
#    0.000    2.467    0.000    2.400    1.867    5.067 
#    3.600    2.000    0.000    0.000    0.000    0.000 
#    0.000    0.000    0.000    0.000    0.000    0.000 
#
# Total GULP energy -334665.377793 kJ/mol
# GULP energy per Si atom -5577.756297 kJ/mol
# Density = 2.034834 g / cm^3
# Si number density = 20.394762 Si / 1000 Ang^3
#
#
#
# Elastic Constant Matrix: (Units=GPa)
#
#
# Indices 1 2 3 4 5 6 
#
# 1 117.3735 35.8544 2.5729 0.0000 0.0000 -2.0019
# 2 35.8544 117.3735 2.5729 0.0000 0.0000 2.0019
# 3 2.5729 2.5729 32.4970 0.0000 0.0000 0.0000
# 4 0.0000 0.0000 0.0000 81.0937 0.0000 0.0000
# 5 0.0000 0.0000 0.0000 0.0000 81.0937 0.0000
# 6 -2.0019 2.0019 0.0000 0.0000 0.0000 27.3439
#
#
#
# Elastic Compliance Matrix: (Units=1/GPa)
#
#
# Indices 1 2 3 4 5 6 
#
# 1 0.009427 -0.002884 -0.000518 0.000000 0.000000 0.000901
# 2 -0.002884 0.009427 -0.000518 0.000000 0.000000 -0.000901
# 3 -0.000518 -0.000518 0.030854 0.000000 0.000000 0.000000
# 4 0.000000 0.000000 0.000000 0.012331 0.000000 0.000000
# 5 0.000000 0.000000 0.000000 0.000000 0.012331 0.000000
# 6 0.000901 -0.000901 0.000000 0.000000 0.000000 0.036703
#
#
# Mechanical properties :
#
#
# Convention : Reuss Voigt Hill
#
# Bulk Modulus (GPa) = 23.88398 38.80492 31.34445
# Shear Modulus (GPa) = 37.63033 52.98917 45.30975
#
# Velocity S-wave (km/s) = 4.30012 5.10276 4.71854
# Velocity P-wave (km/s) = 6.03249 7.33388 6.71479
#
# Compressibility (1/GPa) = 0.04186907
#
# Stress axis : x y z
#
# Youngs Moduli (GPa) = 106.07292 106.07292 32.41057
#
# Poissons Ratio (x) = 0.30590 0.01679
# Poissons Ratio (y) = 0.30590 0.01679
# Poissons Ratio (z) = 0.05495 0.05495
#
# Static dielectric constant tensor:
#      x y z
#    x 1.715920 0.000000 0.000000 
#    y 0.000000 1.715920 0.000000 
#    z 0.000000 0.000000 10.309050 
# 
# From -- ./inp_files/1723.got.cif
#   From: 2010.05.17/outbox.cif.g08.bks.cpg/sg87_1_cif.got.tgz:1723.got - 2010.06.03 19:07:00.
