data_PCOD9545993
_publ_section_title
;
Structure prediction by ZEFSAII (Michael W. Deem and Ramdas Pophale) SiO2 
 PCOD9545993
Probable space group: I 4/M
;
_chemical_formula_sum "Si O2"
_cell_formula_units_Z 56
_cell_length_a 18.012852
_cell_length_b 18.012852
_cell_length_c 8.058163
_cell_angle_alpha 90.000000
_cell_angle_beta 90.000000
_cell_angle_gamma 90.000000
_cell_volume 2614.574429
_symmetry_space_group_name_H-M "I 4/M"
_symmetry_group_IT_number 87
_symmetry_cell_setting 'tetragonal'
loop_
_space_group_symop_operation_xyz
x,y,z
-y,x,z
-x,-y,z
y,-x,z
-x,-y,-z
y,-x,-z
x,y,-z
-y,x,-z
1/2+x,1/2+y,1/2+z
1/2-y,1/2+x,1/2+z
1/2-x,1/2-y,1/2+z
1/2+y,1/2-x,1/2+z
1/2-x,1/2-y,1/2-z
1/2+y,1/2-x,1/2-z
1/2+x,1/2+y,1/2-z
1/2-y,1/2+x,1/2-z
loop_
_atom_site_type_symbol
_atom_site_label
_atom_site_fract_x
_atom_site_fract_y
_atom_site_fract_z
Si Si1 0.387899 0.191367 0.305192
Si Si2 0.848727 0.841860 0.688263
Si Si3 0.944398 0.295447 0.697462
Si Si4 0.604676 0.435337 0.500000
O O1 0.368270 0.198511 0.500000
O O2 0.341193 0.253126 0.205513
O O3 0.363580 0.108842 0.252898
O O4 0.475630 0.204081 0.282171
O O5 0.873255 0.858685 0.500000
O O6 0.777230 0.892822 0.724213
O O7 0.907827 0.858363 0.831392
O O8 0.959049 0.298889 0.500000
O O9 0.598485 0.522807 0.500000
#
# Coordination Sequence:
#
# PCOD9545993 Si02
#       4
#    16  16  16   8
#     4  11  23  41  66  95 131 174 221 274 329 391
#     4  11  23  42  67  93 131 171 218 271 328 385
#     4  10  24  42  63  96 132 173 221 272 333 390
#     4  11  24  40  62  96 130 168 220 265 322 398
#
# _framework density 21.418399999999998
#
# number of rings (size 3 to 8) (size 9 to 14) (size 15 to 20)
#    0.000    1.286    1.429    3.429    2.000    6.286 
#    0.000    4.286    0.000    0.000    0.000    0.000 
#    0.000    0.000    0.000    0.000    0.000    0.000 
#
# Total GULP energy -156474.906949 kJ/mol
# GULP energy per Si atom -5588.389534 kJ/mol
# Density = 2.136965 g / cm^3
# Si number density = 21.418400 Si / 1000 Ang^3
#
#
#
# Elastic Constant Matrix: (Units=GPa)
#
#
# Indices 1 2 3 4 5 6 
#
# 1 95.6044 28.8554 28.6793 0.0000 0.0000 -1.9438
# 2 28.8554 95.6044 28.6793 0.0000 0.0000 1.9438
# 3 28.6793 28.6793 86.3033 0.0000 0.0000 0.0000
# 4 0.0000 0.0000 0.0000 10.8488 0.0000 0.0000
# 5 0.0000 0.0000 0.0000 0.0000 10.8488 0.0000
# 6 -1.9438 1.9438 0.0000 0.0000 0.0000 34.1602
#
#
#
# Elastic Compliance Matrix: (Units=1/GPa)
#
#
# Indices 1 2 3 4 5 6 
#
# 1 0.012260 -0.002772 -0.003153 0.000000 0.000000 0.000855
# 2 -0.002772 0.012260 -0.003153 0.000000 0.000000 -0.000855
# 3 -0.003153 -0.003153 0.013682 0.000000 0.000000 0.000000
# 4 0.000000 0.000000 0.000000 0.092176 0.000000 0.000000
# 5 0.000000 0.000000 0.000000 0.000000 0.092176 0.000000
# 6 0.000855 -0.000855 0.000000 0.000000 0.000000 0.029371
#
#
# Mechanical properties :
#
#
# Convention : Reuss Voigt Hill
#
# Bulk Modulus (GPa) = 49.88387 49.99333 49.93860
# Shear Modulus (GPa) = 18.06604 23.92475 20.99540
#
# Velocity S-wave (km/s) = 2.90743 3.34581 3.13429
# Velocity P-wave (km/s) = 5.88316 6.19014 6.03860
#
# Compressibility (1/GPa) = 0.02004656
#
# Stress axis : x y z
#
# Youngs Moduli (GPa) = 81.56917 81.56917 73.08616
#
# Poissons Ratio (x) = 0.22609 0.23043
# Poissons Ratio (y) = 0.22609 0.23043
# Poissons Ratio (z) = 0.25718 0.25718
#
# Static dielectric constant tensor:
#      x y z
#    x 1.780720 0.000000 0.000000 
#    y 0.000000 1.780720 0.000000 
#    z 0.000000 0.000000 1.786680 
# 
# From -- ./inp_files/711.got.cif
#   From: 2010.05.17/outbox.cif.g08.bks.cpg/sg87_1_cif.got.tgz:711.got - 2010.06.03 19:07:00.
