data_PCOD9545901
_publ_section_title
;
Structure prediction by ZEFSAII (Michael W. Deem and Ramdas Pophale) SiO2 
 PCOD9545901
Probable space group: I 4/M
;
_chemical_formula_sum "Si O2"
_cell_formula_units_Z 96
_cell_length_a 13.868183
_cell_length_b 13.868183
_cell_length_c 24.033063
_cell_angle_alpha 90.000000
_cell_angle_beta 90.000000
_cell_angle_gamma 90.000000
_cell_volume 4622.194884
_symmetry_space_group_name_H-M "I 4/M"
_symmetry_group_IT_number 87
_symmetry_cell_setting 'tetragonal'
loop_
_space_group_symop_operation_xyz
x,y,z
-y,x,z
-x,-y,z
y,-x,z
-x,-y,-z
y,-x,-z
x,y,-z
-y,x,-z
1/2+x,1/2+y,1/2+z
1/2-y,1/2+x,1/2+z
1/2-x,1/2-y,1/2+z
1/2+y,1/2-x,1/2+z
1/2-x,1/2-y,1/2-z
1/2+y,1/2-x,1/2-z
1/2+x,1/2+y,1/2-z
1/2-y,1/2+x,1/2-z
loop_
_atom_site_type_symbol
_atom_site_label
_atom_site_fract_x
_atom_site_fract_y
_atom_site_fract_z
Si Si1 0.296417 0.801655 0.620049
Si Si2 0.547609 0.223748 0.000000
Si Si3 0.179901 0.240365 0.500000
Si Si4 0.668135 0.688535 0.281855
Si Si5 0.894352 0.510482 0.105161
Si Si6 0.615328 0.605552 0.170243
Si Si7 0.446749 0.122933 0.717488
O O1 0.287658 0.776510 0.555316
O O2 0.339446 0.718984 0.660185
O O3 0.186872 0.820300 0.641499
O O4 0.350567 0.905652 0.621234
O O5 0.434574 0.245425 0.000000
O O6 0.625866 0.306555 0.000000
O O7 0.561588 0.168101 0.941899
O O8 0.750000 0.750000 0.250000
O O9 0.633771 0.611343 0.236634
O O10 0.582830 0.766840 0.286817
O O11 0.913478 0.572841 0.160414
O O12 0.000000 0.500000 0.079158
O O13 0.505148 0.631971 0.154799
O O14 0.558060 0.108368 0.735599
#
# Coordination Sequence:
#
# PCOD9545901 Si02
#       7
#    16   8   8  16  16  16  16
#     4  10  23  38  59  87 116 157 197 250 293 361
#     4  10  23  39  60  82 114 156 196 247 291 359
#     4  10  22  39  58  84 118 151 202 240 298 348
#     4  10  22  33  57  77 116 150 196 239 297 341
#     4  11  22  38  58  83 116 150 198 245 302 349
#     4  10  23  38  56  82 121 157 196 240 291 355
#     4  11  21  33  54  83 113 147 193 242 288 354
#
# _framework density 20.769354
#
# number of rings (size 3 to 8) (size 9 to 14) (size 15 to 20)
#    0.000    1.667    1.667    3.250   14.000    0.167 
#    0.000    0.000    0.000    0.000    0.000    0.000 
#    0.000    1.333    0.000    0.000    0.000    0.000 
#
# Total GULP energy -267988.870096 kJ/mol
# GULP energy per Si atom -5583.101460 kJ/mol
# Density = 2.072208 g / cm^3
# Si number density = 20.769354 Si / 1000 Ang^3
#
#
#
# Elastic Constant Matrix: (Units=GPa)
#
#
# Indices 1 2 3 4 5 6 
#
# 1 36.0836 5.8698 14.9842 0.0000 0.0000 4.9869
# 2 5.8698 36.0836 14.9842 0.0000 0.0000 -4.9869
# 3 14.9842 14.9842 139.5703 0.0000 0.0000 0.0000
# 4 0.0000 0.0000 0.0000 20.8485 0.0000 0.0000
# 5 0.0000 0.0000 0.0000 0.0000 20.8485 0.0000
# 6 4.9869 -4.9869 0.0000 0.0000 0.0000 20.2955
#
#
#
# Elastic Compliance Matrix: (Units=1/GPa)
#
#
# Indices 1 2 3 4 5 6 
#
# 1 0.030917 -0.005102 -0.002772 0.000000 0.000000 -0.008850
# 2 -0.005102 0.030917 -0.002772 0.000000 0.000000 0.008850
# 3 -0.002772 -0.002772 0.007760 0.000000 0.000000 0.000000
# 4 0.000000 0.000000 0.000000 0.047965 0.000000 0.000000
# 5 0.000000 0.000000 0.000000 0.000000 0.047965 0.000000
# 6 -0.008850 0.008850 0.000000 0.000000 0.000000 0.053621
#
#
# Mechanical properties :
#
#
# Convention : Reuss Voigt Hill
#
# Bulk Modulus (GPa) = 20.70169 31.49043 26.09606
# Shear Modulus (GPa) = 19.49033 24.12514 21.80773
#
# Velocity S-wave (km/s) = 3.06668 3.41188 3.24388
# Velocity P-wave (km/s) = 4.74641 5.54222 5.15968
#
# Compressibility (1/GPa) = 0.04830525
#
# Stress axis : x y z
#
# Youngs Moduli (GPa) = 32.34422 32.34422 128.86674
#
# Poissons Ratio (x) = 0.16501 0.35716
# Poissons Ratio (y) = 0.16501 0.35716
# Poissons Ratio (z) = 0.08964 0.08964
#
# Static dielectric constant tensor:
#      x y z
#    x 1.788970 0.000000 0.000000 
#    y 0.000000 1.788970 0.000000 
#    z 0.000000 0.000000 1.800290 
# 
# From -- ./inp_files/5331.got.cif
#   From: 2010.05.17/outbox.cif.g08.bks.cpg/sg87_3_cif.got.tgz:5331.got - 2010.06.03 19:07:00.
