data_PCOD9545638
_publ_section_title
;
Structure prediction by ZEFSAII (Michael W. Deem and Ramdas Pophale) SiO2 
 PCOD9545638
Probable space group: I 4/M
;
_chemical_formula_sum "Si O2"
_cell_formula_units_Z 112
_cell_length_a 23.696908
_cell_length_b 23.696908
_cell_length_c 9.809263
_cell_angle_alpha 90.000000
_cell_angle_beta 90.000000
_cell_angle_gamma 90.000000
_cell_volume 5508.327375
_symmetry_space_group_name_H-M "I 4/M"
_symmetry_group_IT_number 87
_symmetry_cell_setting 'tetragonal'
loop_
_space_group_symop_operation_xyz
x,y,z
-y,x,z
-x,-y,z
y,-x,z
-x,-y,-z
y,-x,-z
x,y,-z
-y,x,-z
1/2+x,1/2+y,1/2+z
1/2-y,1/2+x,1/2+z
1/2-x,1/2-y,1/2+z
1/2+y,1/2-x,1/2+z
1/2-x,1/2-y,1/2-z
1/2+y,1/2-x,1/2-z
1/2+x,1/2+y,1/2-z
1/2-y,1/2+x,1/2-z
loop_
_atom_site_type_symbol
_atom_site_label
_atom_site_fract_x
_atom_site_fract_y
_atom_site_fract_z
Si Si1 0.134494 0.410384 0.336971
Si Si2 0.551967 0.720311 0.248955
Si Si3 0.869499 0.971647 0.658602
Si Si4 0.261459 0.162507 0.156190
Si Si5 0.675858 0.717092 0.851325
Si Si6 0.897163 0.069933 0.846127
Si Si7 0.040752 0.347710 0.159105
O O1 0.129182 0.399406 0.500000
O O2 0.196391 0.386711 0.296432
O O3 0.086508 0.377782 0.254243
O O4 0.130909 0.477273 0.314612
O O5 0.499354 0.692656 0.169055
O O6 0.608935 0.722202 0.161426
O O7 0.566544 0.670489 0.355109
O O8 0.540878 0.780794 0.311628
O O9 0.884331 0.963084 0.500000
O O10 0.793006 0.821716 0.757560
O O11 0.877519 0.918172 0.756407
O O12 0.200905 0.280231 0.339150
O O13 0.245256 0.151043 0.000000
O O14 0.690917 0.694578 0.000000
O O15 0.907843 0.017509 0.741877
O O16 0.920747 0.068125 0.000000
O O17 0.054267 0.357187 0.000000
#
# Coordination Sequence:
#
# PCOD9545638 Si02
#       7
#    16  16  16  16  16  16  16
#     4  10  23  44  68  96 132 169 209 264 325 385
#     4  10  23  39  65  91 131 169 219 263 328 375
#     4  10  22  39  62  91 127 168 217 269 322 375
#     4   9  19  36  58  90 126 163 203 252 313 373
#     4  10  19  35  60  90 124 166 209 253 308 377
#     4  10  22  39  61  88 125 168 219 270 320 374
#     4  11  24  44  70  97 127 167 216 266 323 395
#
# _framework density 20.332851000000002
#
# number of rings (size 3 to 8) (size 9 to 14) (size 15 to 20)
#    0.857    1.143    1.429    1.714    0.000    4.571 
#    0.000    4.286    0.000    0.000    0.000    0.000 
#    0.000    0.000    0.000    0.000    0.000    0.000 
#
# Total GULP energy -312064.207067 kJ/mol
# GULP energy per Si atom -5572.575126 kJ/mol
# Density = 2.028657 g / cm^3
# Si number density = 20.332851 Si / 1000 Ang^3
#
#
#
# Elastic Constant Matrix: (Units=GPa)
#
#
# Indices 1 2 3 4 5 6 
#
# 1 63.1315 43.3490 35.4181 0.0000 0.0000 1.6293
# 2 43.3490 63.1315 35.4181 0.0000 0.0000 -1.6293
# 3 35.4181 35.4181 112.7656 0.0000 0.0000 0.0000
# 4 0.0000 0.0000 0.0000 14.3812 0.0000 0.0000
# 5 0.0000 0.0000 0.0000 0.0000 14.3812 0.0000
# 6 1.6293 -1.6293 0.0000 0.0000 0.0000 25.2869
#
#
#
# Elastic Compliance Matrix: (Units=1/GPa)
#
#
# Indices 1 2 3 4 5 6 
#
# 1 0.031482 -0.019610 -0.003729 0.000000 0.000000 -0.003292
# 2 -0.019610 0.031482 -0.003729 0.000000 0.000000 0.003292
# 3 -0.003729 -0.003729 0.011210 0.000000 0.000000 0.000000
# 4 0.000000 0.000000 0.000000 0.069535 0.000000 0.000000
# 5 0.000000 0.000000 0.000000 0.000000 0.069535 0.000000
# 6 -0.003292 0.003292 0.000000 0.000000 0.000000 0.039970
#
#
# Mechanical properties :
#
#
# Convention : Reuss Voigt Hill
#
# Bulk Modulus (GPa) = 49.90274 51.93321 50.91797
# Shear Modulus (GPa) = 15.92205 19.13276 17.52741
#
# Velocity S-wave (km/s) = 2.80137 3.07086 2.93921
# Velocity P-wave (km/s) = 5.92113 6.17823 6.05105
#
# Compressibility (1/GPa) = 0.02003898
#
# Stress axis : x y z
#
# Youngs Moduli (GPa) = 31.76414 31.76414 89.20371
#
# Poissons Ratio (x) = 0.62290 0.33262
# Poissons Ratio (y) = 0.62290 0.33262
# Poissons Ratio (z) = 0.11844 0.11844
#
# Static dielectric constant tensor:
#      x y z
#    x 1.759580 0.000000 0.000000 
#    y 0.000000 1.759580 0.000000 
#    z 0.000000 0.000000 1.736190 
# 
# From -- ./inp_files/2914.got.cif
#   From: 2010.05.17/outbox.cif.g08.bks.cpg/sg87_2_cif.got.tgz:2914.got - 2010.06.03 19:07:00.
