data_PCOD9545745
_publ_section_title
;
Structure prediction by ZEFSAII (Michael W. Deem and Ramdas Pophale) SiO2 
 PCOD9545745
Probable space group: I 4/M
;
_chemical_formula_sum "Si O2"
_cell_formula_units_Z 72
_cell_length_a 21.717745
_cell_length_b 21.717745
_cell_length_c 7.712816
_cell_angle_alpha 90.000000
_cell_angle_beta 90.000000
_cell_angle_gamma 90.000000
_cell_volume 3637.830249
_symmetry_space_group_name_H-M "I 4/M"
_symmetry_group_IT_number 87
_symmetry_cell_setting 'tetragonal'
loop_
_space_group_symop_operation_xyz
x,y,z
-y,x,z
-x,-y,z
y,-x,z
-x,-y,-z
y,-x,-z
x,y,-z
-y,x,-z
1/2+x,1/2+y,1/2+z
1/2-y,1/2+x,1/2+z
1/2-x,1/2-y,1/2+z
1/2+y,1/2-x,1/2+z
1/2-x,1/2-y,1/2-z
1/2+y,1/2-x,1/2-z
1/2+x,1/2+y,1/2-z
1/2-y,1/2+x,1/2-z
loop_
_atom_site_type_symbol
_atom_site_label
_atom_site_fract_x
_atom_site_fract_y
_atom_site_fract_z
Si Si1 0.626702 0.660190 0.211284
Si Si2 0.483318 0.096240 0.200509
Si Si3 0.084062 0.940688 0.000000
Si Si4 0.801897 0.395567 0.203789
Si Si5 0.762131 0.678503 0.205272
O O1 0.584109 0.617661 0.327559
O O2 0.612467 0.731469 0.263060
O O3 0.698433 0.646322 0.258049
O O4 0.620285 0.654800 0.000000
O O5 0.431753 0.042413 0.205744
O O6 0.450774 0.156859 0.276781
O O7 0.501066 0.106492 0.000000
O O8 0.014200 0.917225 0.000000
O O9 0.835729 0.329540 0.223353
O O10 0.797475 0.407644 0.000000
O O11 0.750000 0.750000 0.250000
O O12 0.766495 0.672322 0.000000
#
# Coordination Sequence:
#
# PCOD9545745 Si02
#       5
#    16  16   8  16  16
#     4   9  20  40  62  90 123 150 189 250 304 360
#     4  10  20  36  52  74 112 159 203 235 278 335
#     4  11  26  46  66  90 116 155 205 247 307 377
#     4   9  19  34  55  85 118 155 195 244 297 346
#     4   9  17  29  53  85 115 149 185 228 295 346
#
# _framework density 19.792017999999999
#
# number of rings (size 3 to 8) (size 9 to 14) (size 15 to 20)
#    0.000    2.556    0.000    3.333    7.778    2.667 
#    4.000    1.111    0.000    0.000    0.000    0.000 
#    0.000    0.000    0.000    0.000    0.000    0.000 
#
# Total GULP energy -200578.356691 kJ/mol
# GULP energy per Si atom -5571.621019 kJ/mol
# Density = 1.974697 g / cm^3
# Si number density = 19.792018 Si / 1000 Ang^3
#
#
#
# Elastic Constant Matrix: (Units=GPa)
#
#
# Indices 1 2 3 4 5 6 
#
# 1 56.1780 51.6923 21.7106 0.0000 0.0000 -5.4982
# 2 51.6923 56.1780 21.7106 0.0000 0.0000 5.4982
# 3 21.7106 21.7106 52.0167 0.0000 0.0000 0.0000
# 4 0.0000 0.0000 0.0000 23.0417 0.0000 0.0000
# 5 0.0000 0.0000 0.0000 0.0000 23.0417 0.0000
# 6 -5.4982 5.4982 0.0000 0.0000 0.0000 28.1949
#
#
#
# Elastic Compliance Matrix: (Units=1/GPa)
#
#
# Indices 1 2 3 4 5 6 
#
# 1 0.219123 -0.207981 -0.004651 0.000000 0.000000 0.083288
# 2 -0.207981 0.219123 -0.004651 0.000000 0.000000 -0.083288
# 3 -0.004651 -0.004651 0.023107 0.000000 0.000000 0.000000
# 4 0.000000 0.000000 0.000000 0.043400 0.000000 0.000000
# 5 0.000000 0.000000 0.000000 0.000000 0.043400 0.000000
# 6 0.083288 -0.083288 0.000000 0.000000 0.000000 0.067951
#
#
# Mechanical properties :
#
#
# Convention : Reuss Voigt Hill
#
# Bulk Modulus (GPa) = 37.32856 39.39998 38.36427
# Shear Modulus (GPa) = 4.71878 19.47292 12.09585
#
# Velocity S-wave (km/s) = 1.54576 3.14009 2.47482
# Velocity P-wave (km/s) = 4.69970 5.75300 5.25282
#
# Compressibility (1/GPa) = 0.02678914
#
# Stress axis : x y z
#
# Youngs Moduli (GPa) = 4.56365 4.56365 43.27751
#
# Poissons Ratio (x) = 0.94915 0.20127
# Poissons Ratio (y) = 0.94915 0.20127
# Poissons Ratio (z) = 0.02122 0.02122
#
# Static dielectric constant tensor:
#      x y z
#    x 1.716530 0.000000 0.000000 
#    y 0.000000 1.716530 0.000000 
#    z 0.000000 0.000000 1.702400 
# 
# From -- ./inp_files/1076.got.cif
#   From: 2010.05.17/outbox.cif.g08.bks.cpg/sg87_1_cif.got.tgz:1076.got - 2010.06.03 19:07:00.
