data_PCOD9545038
_publ_section_title
;
Structure prediction by ZEFSAII (Michael W. Deem and Ramdas Pophale) SiO2 
 PCOD9545038
Probable space group: P 42/N
;
_chemical_formula_sum "Si O2"
_cell_formula_units_Z 40
_cell_length_a 7.963202
_cell_length_b 7.963202
_cell_length_c 25.193990
_cell_angle_alpha 90.000000
_cell_angle_beta 90.000000
_cell_angle_gamma 90.000000
_cell_volume 1597.616060
_symmetry_space_group_name_H-M "P 42/N"
_symmetry_group_IT_number 86
_space_group.IT_coordinate_system_code '2'
_symmetry_cell_setting 'tetragonal'
loop_
_space_group_symop_operation_xyz
x,y,z
-y,1/2+x,1/2+z
1/2-x,1/2-y,z
1/2+y,-x,1/2+z
-x,-y,-z
y,1/2-x,1/2-z
1/2+x,1/2+y,-z
1/2-y,x,1/2-z
loop_
_atom_site_type_symbol
_atom_site_label
_atom_site_fract_x
_atom_site_fract_y
_atom_site_fract_z
Si Si1 0.947896 0.803572 0.984793
Si Si2 0.655804 0.928523 0.182194
Si Si3 0.456772 0.093819 0.270404
Si Si4 0.056092 0.712456 0.091555
Si Si5 0.570951 0.056762 0.621715
O O1 0.750000 0.750000 0.983226
O O2 0.021974 0.798165 0.924916
O O3 0.030436 0.680797 0.028785
O O4 0.000000 0.000000 0.000000
O O5 0.750000 0.750000 0.184878
O O6 0.509660 0.906496 0.138097
O O7 0.596902 0.988344 0.239849
O O8 0.776131 0.068284 0.156517
O O9 0.283497 0.024817 0.247280
O O10 0.438046 0.085432 0.333312
O O11 0.250000 0.750000 0.099996
O O12 0.947083 0.882558 0.097790
#
# Coordination Sequence:
#
# PCOD9545038 Si02
#       5
#     8   8   8   8   8
#     4  10  21  42  70 100 146 196 249 315 388 474
#     4  10  23  43  72 101 140 191 256 310 373 461
#     4  11  26  45  68 101 144 188 239 307 384 452
#     4  10  20  40  68 102 138 185 248 304 373 453
#     4  10  23  41  67  97 139 190 241 306 380 446
#
# _framework density 25.037306000000001
#
# number of rings (size 3 to 8) (size 9 to 14) (size 15 to 20)
#    0.000    1.800    0.000    4.200    8.400    0.800 
#    3.600    5.000    0.000    0.000    0.000    0.000 
#    0.000    0.000    0.000    0.000    0.000    0.000 
#
# Total GULP energy -223388.332775 kJ/mol
# GULP energy per Si atom -5584.708319 kJ/mol
# Density = 2.498032 g / cm^3
# Si number density = 25.037306 Si / 1000 Ang^3
#
#
#
# Elastic Constant Matrix: (Units=GPa)
#
#
# Indices 1 2 3 4 5 6 
#
# 1 116.9364 -13.1286 9.7057 0.0000 0.0000 10.6735
# 2 -13.1286 116.9364 9.7057 0.0000 0.0000 -10.6735
# 3 9.7057 9.7057 138.7674 0.0000 0.0000 0.0000
# 4 0.0000 0.0000 0.0000 8.6340 0.0000 0.0000
# 5 0.0000 0.0000 0.0000 0.0000 8.6340 0.0000
# 6 10.6735 -10.6735 0.0000 0.0000 0.0000 28.0781
#
#
#
# Elastic Compliance Matrix: (Units=1/GPa)
#
#
# Indices 1 2 3 4 5 6 
#
# 1 0.008980 0.000780 -0.000683 0.000000 0.000000 -0.003117
# 2 0.000780 0.008980 -0.000683 0.000000 0.000000 0.003117
# 3 -0.000683 -0.000683 0.007302 0.000000 0.000000 0.000000
# 4 0.000000 0.000000 0.000000 0.115821 0.000000 0.000000
# 5 0.000000 0.000000 0.000000 0.000000 0.115821 0.000000
# 6 -0.003117 0.003117 0.000000 0.000000 0.000000 0.037985
#
#
# Mechanical properties :
#
#
# Convention : Reuss Voigt Hill
#
# Bulk Modulus (GPa) = 41.50632 42.80064 42.15348
# Shear Modulus (GPa) = 16.44244 33.49303 24.96773
#
# Velocity S-wave (km/s) = 2.56543 3.66146 3.16131
# Velocity P-wave (km/s) = 5.03875 5.91666 5.49527
#
# Compressibility (1/GPa) = 0.02409272
#
# Stress axis : x y z
#
# Youngs Moduli (GPa) = 111.35290 111.35290 136.95247
#
# Poissons Ratio (x) = -0.08690 0.09350
# Poissons Ratio (y) = -0.08690 0.09350
# Poissons Ratio (z) = 0.07602 0.07602
#
# Static dielectric constant tensor:
#      x y z
#    x 2.054550 0.000000 0.000000 
#    y 0.000000 2.054550 0.000000 
#    z 0.000000 0.000000 2.095240 
# 
# From -- ./inp_files/4482.got.cif
#   From: 2010.05.17/outbox.cif.g08.bks.cpg/sg86_3_cif.got.tgz:4482.got - 2010.06.03 19:03:11.
