data_PCOD9545267
_publ_section_title
;
Structure prediction by ZEFSAII (Michael W. Deem and Ramdas Pophale) SiO2 
 PCOD9545267
Probable space group: P 42/N
;
_chemical_formula_sum "Si O2"
_cell_formula_units_Z 34
_cell_length_a 10.797220
_cell_length_b 10.797220
_cell_length_c 12.212869
_cell_angle_alpha 90.000000
_cell_angle_beta 90.000000
_cell_angle_gamma 90.000000
_cell_volume 1423.775776
_symmetry_space_group_name_H-M "P 42/N"
_symmetry_group_IT_number 86
_space_group.IT_coordinate_system_code '2'
_symmetry_cell_setting 'tetragonal'
loop_
_space_group_symop_operation_xyz
x,y,z
-y,1/2+x,1/2+z
1/2-x,1/2-y,z
1/2+y,-x,1/2+z
-x,-y,-z
y,1/2-x,1/2-z
1/2+x,1/2+y,-z
1/2-y,x,1/2-z
loop_
_atom_site_type_symbol
_atom_site_label
_atom_site_fract_x
_atom_site_fract_y
_atom_site_fract_z
Si Si1 0.816622 0.935578 0.585283
Si Si2 0.306200 0.111588 0.880560
Si Si3 0.468436 0.122318 0.436542
Si Si4 0.632276 0.343813 0.737235
Si Si5 0.250000 0.250000 0.250000
O O1 0.858819 0.924507 0.459043
O O2 0.850414 0.824483 0.672107
O O3 0.671255 0.910325 0.597240
O O4 0.851603 0.066021 0.633573
O O5 0.250000 0.250000 0.862871
O O6 0.225768 0.039623 0.971026
O O7 0.305173 0.014090 0.779654
O O8 0.357855 0.569807 0.156380
O O9 0.500000 0.000000 0.500000
O O10 0.750000 0.250000 0.737994
#
# Coordination Sequence:
#
# PCOD9545267 Si02
#       5
#     8   8   8   8   2
#     4  11  20  43  75  99 137 192 263 305 378 473
#     4  10  23  48  73 111 153 204 257 325 398 473
#     4  11  24  44  67 104 153 196 250 324 387 471
#     4  12  26  44  75 114 153 203 262 329 399 478
#     4  12  16  40  76  92 122 192 252 296 372 464
#
# _framework density 23.880165000000002
#
# number of rings (size 3 to 8) (size 9 to 14) (size 15 to 20)
#    0.000    0.941    5.882    2.118    0.000    2.824 
#   16.941    0.000    0.000    0.000    0.000    0.000 
#    0.000    0.000    0.000    0.000    0.000    0.000 
#
# Total GULP energy -189414.680171 kJ/mol
# GULP energy per Si atom -5571.020005 kJ/mol
# Density = 2.382581 g / cm^3
# Si number density = 23.880165 Si / 1000 Ang^3
#
#
#
# Elastic Constant Matrix: (Units=GPa)
#
#
# Indices 1 2 3 4 5 6 
#
# 1 102.4293 67.2670 44.1116 0.0000 0.0000 6.3321
# 2 67.2670 102.4293 44.1116 0.0000 0.0000 -6.3321
# 3 44.1116 44.1116 116.3878 0.0000 0.0000 0.0000
# 4 0.0000 0.0000 0.0000 33.5851 0.0000 0.0000
# 5 0.0000 0.0000 0.0000 0.0000 33.5851 0.0000
# 6 6.3321 -6.3321 0.0000 0.0000 0.0000 25.5305
#
#
#
# Elastic Compliance Matrix: (Units=1/GPa)
#
#
# Indices 1 2 3 4 5 6 
#
# 1 0.019284 -0.011945 -0.002782 0.000000 0.000000 -0.007745
# 2 -0.011945 0.019284 -0.002782 0.000000 0.000000 0.007745
# 3 -0.002782 -0.002782 0.010700 0.000000 0.000000 0.000000
# 4 0.000000 0.000000 0.000000 0.029775 0.000000 0.000000
# 5 0.000000 0.000000 0.000000 0.000000 0.029775 0.000000
# 6 -0.007745 0.007745 0.000000 0.000000 0.000000 0.043011
#
#
# Mechanical properties :
#
#
# Convention : Reuss Voigt Hill
#
# Bulk Modulus (GPa) = 70.16423 70.24739 70.20581
# Shear Modulus (GPa) = 26.09651 29.59057 27.84354
#
# Velocity S-wave (km/s) = 3.30936 3.52394 3.41833
# Velocity P-wave (km/s) = 6.63687 6.78513 6.71141
#
# Compressibility (1/GPa) = 0.01425228
#
# Stress axis : x y z
#
# Youngs Moduli (GPa) = 51.85634 51.85634 93.45467
#
# Poissons Ratio (x) = 0.61943 0.25994
# Poissons Ratio (y) = 0.61943 0.25994
# Poissons Ratio (z) = 0.14424 0.14424
#
# Static dielectric constant tensor:
#      x y z
#    x 0.338480 0.000000 0.000000 
#    y 0.000000 0.338480 0.000000 
#    z 0.000000 0.000000 0.903740 
# 
# From -- ./inp_files/2793.got.cif
#   From: 2010.05.17/outbox.cif.g08.bks.cpg/sg86_2_cif.got.tgz:2793.got - 2010.06.03 19:03:11.
