data_PCOD9545603
_publ_section_title
;
Structure prediction by ZEFSAII (Michael W. Deem and Ramdas Pophale) SiO2 
 PCOD9545603
Probable space group: I 4/M
;
_chemical_formula_sum "Si O2"
_cell_formula_units_Z 112
_cell_length_a 24.071881
_cell_length_b 24.071881
_cell_length_c 10.978144
_cell_angle_alpha 90.000000
_cell_angle_beta 90.000000
_cell_angle_gamma 90.000000
_cell_volume 6361.345425
_symmetry_space_group_name_H-M "I 4/M"
_symmetry_group_IT_number 87
_symmetry_cell_setting 'tetragonal'
loop_
_space_group_symop_operation_xyz
x,y,z
-y,x,z
-x,-y,z
y,-x,z
-x,-y,-z
y,-x,-z
x,y,-z
-y,x,-z
1/2+x,1/2+y,1/2+z
1/2-y,1/2+x,1/2+z
1/2-x,1/2-y,1/2+z
1/2+y,1/2-x,1/2+z
1/2-x,1/2-y,1/2-z
1/2+y,1/2-x,1/2-z
1/2+x,1/2+y,1/2-z
1/2-y,1/2+x,1/2-z
loop_
_atom_site_type_symbol
_atom_site_label
_atom_site_fract_x
_atom_site_fract_y
_atom_site_fract_z
Si Si1 0.591250 0.885217 0.142287
Si Si2 0.668641 0.517270 0.358137
Si Si3 0.893635 0.869529 0.860198
Si Si4 0.197121 0.692687 0.865456
Si Si5 0.236573 0.057949 0.631323
Si Si6 0.959971 0.366753 0.638240
Si Si7 0.677423 0.298937 0.802913
O O1 0.634870 0.834378 0.162524
O O2 0.603267 0.930195 0.248161
O O3 0.526774 0.867954 0.151520
O O4 0.599779 0.903878 0.000000
O O5 0.688985 0.519000 0.500000
O O6 0.641934 0.457612 0.334654
O O7 0.623633 0.566345 0.346122
O O8 0.713509 0.529294 0.253306
O O9 0.852015 0.833593 0.780870
O O10 0.883593 0.854333 0.000000
O O11 0.263934 0.689474 0.866118
O O12 0.183161 0.741882 0.773176
O O13 0.177703 0.709823 0.000000
O O14 0.223097 0.030364 0.500000
O O15 0.302944 0.059817 0.640731
O O16 0.211063 0.119774 0.628032
O O17 0.947152 0.388533 0.500000
#
# Coordination Sequence:
#
# PCOD9545603 Si02
#       7
#    16  16  16  16  16  16  16
#     4  10  22  40  61  85 114 149 187 229 281 335
#     4   9  19  34  53  77 108 145 186 227 273 323
#     4   9  18  33  52  78 107 141 184 231 274 320
#     4  10  20  34  54  81 109 143 183 223 272 331
#     4  10  20  36  56  81 112 147 184 226 276 329
#     4  10  22  40  60  83 114 147 186 232 278 335
#     4  10  19  33  55  79 111 145 180 225 279 328
#
# _framework density 17.606338999999998
#
# number of rings (size 3 to 8) (size 9 to 14) (size 15 to 20)
#    0.000    2.286    1.429    0.857    2.000    2.286 
#    0.000    6.429    0.000    0.000    0.000    4.000 
#    0.000    0.000    0.000    0.000    0.000    0.000 
#
# Total GULP energy -311768.164587 kJ/mol
# GULP energy per Si atom -5567.288653 kJ/mol
# Density = 1.756627 g / cm^3
# Si number density = 17.606339 Si / 1000 Ang^3
#
#
#
# Elastic Constant Matrix: (Units=GPa)
#
#
# Indices 1 2 3 4 5 6 
#
# 1 57.9457 16.6022 50.1335 0.0000 0.0000 -4.1051
# 2 16.6022 57.9457 50.1335 0.0000 0.0000 4.1051
# 3 50.1335 50.1335 102.5408 0.0000 0.0000 0.0000
# 4 0.0000 0.0000 0.0000 22.7647 0.0000 0.0000
# 5 0.0000 0.0000 0.0000 0.0000 22.7647 0.0000
# 6 -4.1051 4.1051 0.0000 0.0000 0.0000 2.0225
#
#
#
# Elastic Compliance Matrix: (Units=1/GPa)
#
#
# Indices 1 2 3 4 5 6 
#
# 1 0.039848 -0.000672 -0.019153 0.000000 0.000000 0.082245
# 2 -0.000672 0.039848 -0.019153 0.000000 0.000000 -0.082245
# 3 -0.019153 -0.019153 0.028481 0.000000 0.000000 0.000000
# 4 0.000000 0.000000 0.000000 0.043928 0.000000 0.000000
# 5 0.000000 0.000000 0.000000 0.000000 0.043928 0.000000
# 6 0.082245 -0.082245 0.000000 0.000000 0.000000 0.828311
#
#
# Mechanical properties :
#
#
# Convention : Reuss Voigt Hill
#
# Bulk Modulus (GPa) = 33.09249 50.24117 41.66683
# Shear Modulus (GPa) = 4.49489 16.28126 10.38808
#
# Velocity S-wave (km/s) = 1.59954 3.04425 2.43167
# Velocity P-wave (km/s) = 4.71678 6.39956 5.62149
#
# Compressibility (1/GPa) = 0.03021834
#
# Stress axis : x y z
#
# Youngs Moduli (GPa) = 25.09549 25.09549 35.11120
#
# Poissons Ratio (x) = 0.01687 0.67250
# Poissons Ratio (y) = 0.01687 0.67250
# Poissons Ratio (z) = 0.48066 0.48066
#
# Static dielectric constant tensor:
#      x y z
#    x 1.579380 0.000000 0.000000 
#    y 0.000000 1.579380 0.000000 
#    z 0.000000 0.000000 1.653880 
# 
# From -- ./inp_files/2902.got.cif
#   From: 2010.05.17/outbox.cif.g08.bks.cpg/sg87_2_cif.got.tgz:2902.got - 2010.06.03 19:07:00.
