data_PCOD9545822
_publ_section_title
;
Structure prediction by ZEFSAII (Michael W. Deem and Ramdas Pophale) SiO2 
 PCOD9545822
Probable space group: I 4/M
;
_chemical_formula_sum "Si O2"
_cell_formula_units_Z 116
_cell_length_a 19.338397
_cell_length_b 19.338397
_cell_length_c 15.869912
_cell_angle_alpha 90.000000
_cell_angle_beta 90.000000
_cell_angle_gamma 90.000000
_cell_volume 5934.928099
_symmetry_space_group_name_H-M "I 4/M"
_symmetry_group_IT_number 87
_symmetry_cell_setting 'tetragonal'
loop_
_space_group_symop_operation_xyz
x,y,z
-y,x,z
-x,-y,z
y,-x,z
-x,-y,-z
y,-x,-z
x,y,-z
-y,x,-z
1/2+x,1/2+y,1/2+z
1/2-y,1/2+x,1/2+z
1/2-x,1/2-y,1/2+z
1/2+y,1/2-x,1/2+z
1/2-x,1/2-y,1/2-z
1/2+y,1/2-x,1/2-z
1/2+x,1/2+y,1/2-z
1/2-y,1/2+x,1/2-z
loop_
_atom_site_type_symbol
_atom_site_label
_atom_site_fract_x
_atom_site_fract_y
_atom_site_fract_z
Si Si1 0.229430 0.109991 0.819627
Si Si2 0.585080 0.572848 0.101455
Si Si3 0.606543 0.044622 0.742878
Si Si4 0.081124 0.125537 0.095903
Si Si5 0.000000 0.000000 0.836839
Si Si6 0.860701 0.666007 0.402221
Si Si7 0.544149 0.750010 0.688521
Si Si8 0.837066 0.805877 0.312215
O O1 0.159720 0.118009 0.873534
O O2 0.295594 0.118523 0.878579
O O3 0.225905 0.169086 0.747179
O O4 0.234268 0.033542 0.781315
O O5 0.506950 0.593506 0.127103
O O6 0.638360 0.625100 0.141106
O O7 0.588229 0.575331 0.000000
O O8 0.535988 0.085569 0.763970
O O9 0.640229 0.077045 0.658087
O O10 0.667481 0.052810 0.811669
O O11 0.032729 0.078448 0.154265
O O12 0.056937 0.204902 0.105158
O O13 0.073407 0.100820 0.000000
O O14 0.879039 0.663471 0.500000
O O15 0.833337 0.742674 0.376982
O O16 0.601218 0.718630 0.750961
#
# Coordination Sequence:
#
# PCOD9545822 Si02
#       8
#    16  16  16  16   4  16  16  16
#     4  11  21  37  57  85 118 157 201 243 295 360
#     4   9  17  31  52  80 116 155 197 247 294 334
#     4  10  21  43  68  90 117 153 198 256 318 373
#     4  11  22  35  54  83 125 166 201 246 296 349
#     4  12  21  32  52  80 120 164 201 242 281 336
#     4  11  23  40  64  90 117 153 200 251 308 369
#     4  10  21  36  57  86 115 159 202 245 301 358
#     4  10  21  35  56  84 117 157 198 241 292 363
#
# _framework density 19.545309
#
# number of rings (size 3 to 8) (size 9 to 14) (size 15 to 20)
#    0.000    1.655    2.759    3.103    0.000    0.552 
#    0.000    2.069    0.000    0.828    0.000    0.000 
#    0.000    0.000    0.000    0.000    0.000    0.000 
#
# Total GULP energy -323095.620120 kJ/mol
# GULP energy per Si atom -5570.614140 kJ/mol
# Density = 1.950082 g / cm^3
# Si number density = 19.545309 Si / 1000 Ang^3
#
#
#
# Elastic Constant Matrix: (Units=GPa)
#
#
# Indices 1 2 3 4 5 6 
#
# 1 69.7257 -3.8333 12.5554 0.0000 0.0000 0.1473
# 2 -3.8333 69.7257 12.5554 0.0000 0.0000 -0.1473
# 3 12.5554 12.5554 47.1426 0.0000 0.0000 0.0000
# 4 0.0000 0.0000 0.0000 13.7444 0.0000 0.0000
# 5 0.0000 0.0000 0.0000 0.0000 13.7444 0.0000
# 6 0.1473 -0.1473 0.0000 0.0000 0.0000 24.9321
#
#
#
# Elastic Compliance Matrix: (Units=1/GPa)
#
#
# Indices 1 2 3 4 5 6 
#
# 1 0.015243 0.001648 -0.004498 0.000000 0.000000 -0.000080
# 2 0.001648 0.015243 -0.004498 0.000000 0.000000 0.000080
# 3 -0.004498 -0.004498 0.023608 0.000000 0.000000 0.000000
# 4 0.000000 0.000000 0.000000 0.072757 0.000000 0.000000
# 5 0.000000 0.000000 0.000000 0.000000 0.072757 0.000000
# 6 -0.000080 0.000080 0.000000 0.000000 0.000000 0.040110
#
#
# Mechanical properties :
#
#
# Convention : Reuss Voigt Hill
#
# Bulk Modulus (GPa) = 25.38344 25.46098 25.42221
# Shear Modulus (GPa) = 18.68832 21.50530 20.09681
#
# Velocity S-wave (km/s) = 3.09553 3.32064 3.21006
# Velocity P-wave (km/s) = 5.07854 5.26851 5.17439
#
# Compressibility (1/GPa) = 0.03939577
#
# Stress axis : x y z
#
# Youngs Moduli (GPa) = 65.60515 65.60515 42.35794
#
# Poissons Ratio (x) = -0.10811 0.19054
# Poissons Ratio (y) = -0.10811 0.19054
# Poissons Ratio (z) = 0.29512 0.29512
#
# Static dielectric constant tensor:
#      x y z
#    x 1.704390 0.000000 0.000000 
#    y 0.000000 1.704390 0.000000 
#    z 0.000000 0.000000 1.710050 
# 
# From -- ./inp_files/4588.got.cif
#   From: 2010.05.17/outbox.cif.g08.bks.cpg/sg87_3_cif.got.tgz:4588.got - 2010.06.03 19:07:00.
