data_PCOD9545423
_publ_section_title
;
Structure prediction by ZEFSAII (Michael W. Deem and Ramdas Pophale) SiO2 
 PCOD9545423
Probable space group: P 42/N
;
_chemical_formula_sum "Si O2"
_cell_formula_units_Z 26
_cell_length_a 10.329261
_cell_length_b 10.329261
_cell_length_c 9.137353
_cell_angle_alpha 90.000000
_cell_angle_beta 90.000000
_cell_angle_gamma 90.000000
_cell_volume 974.897386
_symmetry_space_group_name_H-M "P 42/N"
_symmetry_group_IT_number 86
_space_group.IT_coordinate_system_code '2'
_symmetry_cell_setting 'tetragonal'
loop_
_space_group_symop_operation_xyz
x,y,z
-y,1/2+x,1/2+z
1/2-x,1/2-y,z
1/2+y,-x,1/2+z
-x,-y,-z
y,1/2-x,1/2-z
1/2+x,1/2+y,-z
1/2-y,x,1/2-z
loop_
_atom_site_type_symbol
_atom_site_label
_atom_site_fract_x
_atom_site_fract_y
_atom_site_fract_z
Si Si1 0.375377 0.419821 0.236769
Si Si2 0.250000 0.250000 0.750000
Si Si3 0.869100 0.160035 0.979067
Si Si4 0.013119 0.648255 0.227881
O O1 0.409386 0.269957 0.201447
O O2 0.371367 0.522557 0.104066
O O3 0.020426 0.498410 0.175927
O O4 0.300266 0.386239 0.814133
O O5 0.750000 0.250000 0.937269
O O6 0.976619 0.253575 0.907401
O O7 0.850555 0.124429 0.148519
#
# Coordination Sequence:
#
# PCOD9545423 Si02
#       4
#     8   2   8   8
#     4  11  25  48  77 120 165 219 278 343 418 507
#     4  12  28  48  84 132 166 224 296 354 424 504
#     4  12  26  51  84 113 171 226 283 351 426 506
#     4  12  27  52  80 124 172 226 287 354 428 509
#
# _framework density 26.669473
#
# number of rings (size 3 to 8) (size 9 to 14) (size 15 to 20)
#    0.000    0.308    6.154    1.846    0.000    2.462 
#    0.000    4.615    0.000    0.000    0.000    0.000 
#    0.000    0.000    0.000    0.000    0.000    0.000 
#
# Total GULP energy -144788.716593 kJ/mol
# GULP energy per Si atom -5568.796792 kJ/mol
# Density = 2.660877 g / cm^3
# Si number density = 26.669473 Si / 1000 Ang^3
#
#
#
# Elastic Constant Matrix: (Units=GPa)
#
#
# Indices 1 2 3 4 5 6 
#
# 1 187.8215 43.5536 56.1196 0.0000 0.0000 -5.6934
# 2 43.5536 187.8215 56.1196 0.0000 0.0000 5.6934
# 3 56.1196 56.1196 132.9891 0.0000 0.0000 0.0000
# 4 0.0000 0.0000 0.0000 12.2278 0.0000 0.0000
# 5 0.0000 0.0000 0.0000 0.0000 12.2278 0.0000
# 6 -5.6934 5.6934 0.0000 0.0000 0.0000 52.8815
#
#
#
# Elastic Compliance Matrix: (Units=1/GPa)
#
#
# Indices 1 2 3 4 5 6 
#
# 1 0.006213 -0.000778 -0.002293 0.000000 0.000000 0.000753
# 2 -0.000778 0.006213 -0.002293 0.000000 0.000000 -0.000753
# 3 -0.002293 -0.002293 0.009455 0.000000 0.000000 0.000000
# 4 0.000000 0.000000 0.000000 0.081781 0.000000 0.000000
# 5 0.000000 0.000000 0.000000 0.000000 0.081781 0.000000
# 6 0.000753 -0.000753 0.000000 0.000000 0.000000 0.019072
#
#
# Mechanical properties :
#
#
# Convention : Reuss Voigt Hill
#
# Bulk Modulus (GPa) = 89.68050 91.13534 90.40792
# Shear Modulus (GPa) = 22.83520 38.99005 30.91262
#
# Velocity S-wave (km/s) = 2.92931 3.82772 3.40825
# Velocity P-wave (km/s) = 6.71869 7.33360 7.03287
#
# Compressibility (1/GPa) = 0.01115070
#
# Stress axis : x y z
#
# Youngs Moduli (GPa) = 160.96072 160.96072 105.76565
#
# Poissons Ratio (x) = 0.12527 0.24255
# Poissons Ratio (y) = 0.12527 0.24255
# Poissons Ratio (z) = 0.36912 0.36912
#
# Static dielectric constant tensor:
#      x y z
#    x 2.183470 0.000000 0.000000 
#    y 0.000000 2.183470 0.000000 
#    z 0.000000 0.000000 2.042500 
# 
# From -- ./inp_files/1738.got.cif
#   From: 2010.05.17/outbox.cif.g08.bks.cpg/sg86_1_cif.got.tgz:1738.got - 2010.06.03 19:03:11.
