data_PCOD9545287
_publ_section_title
;
Structure prediction by ZEFSAII (Michael W. Deem and Ramdas Pophale) SiO2 
 PCOD9545287
Probable space group: P 42/N
;
_chemical_formula_sum "Si O2"
_cell_formula_units_Z 48
_cell_length_a 9.522791
_cell_length_b 9.522791
_cell_length_c 27.713414
_cell_angle_alpha 90.000000
_cell_angle_beta 90.000000
_cell_angle_gamma 90.000000
_cell_volume 2513.150721
_symmetry_space_group_name_H-M "P 42/N"
_symmetry_group_IT_number 86
_space_group.IT_coordinate_system_code '2'
_symmetry_cell_setting 'tetragonal'
loop_
_space_group_symop_operation_xyz
x,y,z
-y,1/2+x,1/2+z
1/2-x,1/2-y,z
1/2+y,-x,1/2+z
-x,-y,-z
y,1/2-x,1/2-z
1/2+x,1/2+y,-z
1/2-y,x,1/2-z
loop_
_atom_site_type_symbol
_atom_site_label
_atom_site_fract_x
_atom_site_fract_y
_atom_site_fract_z
Si Si1 0.259720 0.911226 0.637027
Si Si2 0.890259 0.327866 0.036690
Si Si3 0.892253 0.660508 0.049413
Si Si4 0.913213 0.276996 0.145406
Si Si5 0.902178 0.959442 0.806731
Si Si6 0.500647 0.571894 0.700237
O O1 0.250000 0.750000 0.618922
O O2 0.415686 0.935912 0.656241
O O3 0.160573 0.919748 0.684322
O O4 0.207236 0.016932 0.595972
O O5 0.750000 0.250000 0.019223
O O6 0.863281 0.492945 0.047633
O O7 0.929280 0.260807 0.088171
O O8 0.012354 0.312435 0.997744
O O9 0.750000 0.750000 0.048196
O O10 0.750000 0.250000 0.157459
O O11 0.016851 0.174792 0.173642
O O12 0.967657 0.427986 0.162095
O O13 0.961873 0.983698 0.753100
O O14 0.733157 0.944406 0.803593
#
# Coordination Sequence:
#
# PCOD9545287 Si02
#       6
#     8   8   8   8   8   8
#     4  10  24  43  63  93 131 170 206 266 326 380
#     4  10  24  46  66  97 130 167 209 265 320 383
#     4  11  24  44  70  96 129 165 212 263 322 386
#     4  11  24  40  65  94 130 167 211 268 313 375
#     4  11  24  38  66  93 127 174 217 263 318 377
#     4  11  22  41  62  93 129 168 221 261 316 380
#
# _framework density 19.099530000000001
#
# number of rings (size 3 to 8) (size 9 to 14) (size 15 to 20)
#    0.000    1.333    3.333    1.000    7.000    2.000 
#    3.000    0.000    0.000    0.000    0.000    0.000 
#    0.000    0.000    0.000    0.000    0.000    0.000 
#
# Total GULP energy -268020.479455 kJ/mol
# GULP energy per Si atom -5583.759989 kJ/mol
# Density = 1.905606 g / cm^3
# Si number density = 19.099530 Si / 1000 Ang^3
#
#
#
# Elastic Constant Matrix: (Units=GPa)
#
#
# Indices 1 2 3 4 5 6 
#
# 1 67.8997 45.0408 28.2152 0.0000 0.0000 -2.5138
# 2 45.0408 67.8997 28.2152 0.0000 0.0000 2.5138
# 3 28.2152 28.2152 71.9814 0.0000 0.0000 0.0000
# 4 0.0000 0.0000 0.0000 19.3328 0.0000 0.0000
# 5 0.0000 0.0000 0.0000 0.0000 19.3328 0.0000
# 6 -2.5138 2.5138 0.0000 0.0000 0.0000 26.8536
#
#
#
# Elastic Compliance Matrix: (Units=1/GPa)
#
#
# Indices 1 2 3 4 5 6 
#
# 1 0.027838 -0.016828 -0.004316 0.000000 0.000000 0.004181
# 2 -0.016828 0.027838 -0.004316 0.000000 0.000000 -0.004181
# 3 -0.004316 -0.004316 0.017276 0.000000 0.000000 0.000000
# 4 0.000000 0.000000 0.000000 0.051726 0.000000 0.000000
# 5 0.000000 0.000000 0.000000 0.000000 0.051726 0.000000
# 6 0.004181 -0.004181 0.000000 0.000000 0.000000 0.038022
#
#
# Mechanical properties :
#
#
# Convention : Reuss Voigt Hill
#
# Bulk Modulus (GPa) = 45.38535 45.63590 45.51063
# Shear Modulus (GPa) = 18.33584 20.19114 19.26349
#
# Velocity S-wave (km/s) = 3.10177 3.25492 3.17927
# Velocity P-wave (km/s) = 6.05327 6.17022 6.11203
#
# Compressibility (1/GPa) = 0.02203354
#
# Stress axis : x y z
#
# Youngs Moduli (GPa) = 35.92152 35.92152 57.88379
#
# Poissons Ratio (x) = 0.60448 0.24982
# Poissons Ratio (y) = 0.60448 0.24982
# Poissons Ratio (z) = 0.15504 0.15504
#
# Static dielectric constant tensor:
#      x y z
#    x 1.648560 0.000000 0.000000 
#    y 0.000000 1.648560 0.000000 
#    z 0.000000 0.000000 1.634410 
# 
# From -- ./inp_files/5121.got.cif
#   From: 2010.05.17/outbox.cif.g08.bks.cpg/sg86_3_cif.got.tgz:5121.got - 2010.06.03 19:03:11.
