data_PCOD9545943
_publ_section_title
;
Structure prediction by ZEFSAII (Michael W. Deem and Ramdas Pophale) SiO2 
 PCOD9545943
Probable space group: I 4/M
;
_chemical_formula_sum "Si O2"
_cell_formula_units_Z 72
_cell_length_a 15.075576
_cell_length_b 15.075576
_cell_length_c 16.427794
_cell_angle_alpha 90.000000
_cell_angle_beta 90.000000
_cell_angle_gamma 90.000000
_cell_volume 3733.593890
_symmetry_space_group_name_H-M "I 4/M"
_symmetry_group_IT_number 87
_symmetry_cell_setting 'tetragonal'
loop_
_space_group_symop_operation_xyz
x,y,z
-y,x,z
-x,-y,z
y,-x,z
-x,-y,-z
y,-x,-z
x,y,-z
-y,x,-z
1/2+x,1/2+y,1/2+z
1/2-y,1/2+x,1/2+z
1/2-x,1/2-y,1/2+z
1/2+y,1/2-x,1/2+z
1/2-x,1/2-y,1/2-z
1/2+y,1/2-x,1/2-z
1/2+x,1/2+y,1/2-z
1/2-y,1/2+x,1/2-z
loop_
_atom_site_type_symbol
_atom_site_label
_atom_site_fract_x
_atom_site_fract_y
_atom_site_fract_z
Si Si1 0.904537 0.112173 0.315805
Si Si2 0.967408 0.145689 0.000000
Si Si3 0.583141 0.120731 0.761737
Si Si4 0.326667 0.779248 0.905070
Si Si5 0.787039 0.874161 0.151599
O O1 0.853920 0.181540 0.372915
O O2 0.885031 0.139847 0.222509
O O3 0.010219 0.121031 0.329169
O O4 0.946834 0.200010 0.918523
O O5 0.063879 0.102309 0.000000
O O6 0.476730 0.117859 0.759632
O O7 0.619096 0.152641 0.848795
O O8 0.615913 0.193515 0.697264
O O9 0.222820 0.792924 0.887399
O O10 0.345218 0.789049 0.000000
#
# Coordination Sequence:
#
# PCOD9545943 Si02
#       5
#    16   8  16  16  16
#     4  10  22  40  65  92 122 167 212 258 318 387
#     4  11  24  40  64  99 133 160 203 268 326 381
#     4  10  24  45  66  90 122 172 218 260 310 375
#     4  11  25  41  63  96 128 166 206 266 322 378
#     4  11  23  39  66  91 128 166 208 264 319 379
#
# _framework density 19.284368000000001
#
# number of rings (size 3 to 8) (size 9 to 14) (size 15 to 20)
#    0.000    1.444    1.111    4.000   15.556    2.667 
#    2.000    2.222    0.000    0.000    0.000    0.000 
#    0.000    0.000    0.000    0.000    0.000    0.000 
#
# Total GULP energy -201364.657226 kJ/mol
# GULP energy per Si atom -5593.462701 kJ/mol
# Density = 1.924048 g / cm^3
# Si number density = 19.284368 Si / 1000 Ang^3
#
#
#
# Elastic Constant Matrix: (Units=GPa)
#
#
# Indices 1 2 3 4 5 6 
#
# 1 55.8610 17.0918 22.5261 0.0000 0.0000 -6.1958
# 2 17.0918 55.8610 22.5261 0.0002 0.0000 6.1958
# 3 22.5261 22.5261 130.6295 0.0001 0.0000 0.0000
# 4 0.0000 0.0002 0.0001 188.3621 0.0004 0.0000
# 5 0.0000 0.0000 0.0000 0.0004 188.3654 0.0000
# 6 -6.1958 6.1958 0.0000 0.0000 0.0000 28.6685
#
#
#
# Elastic Compliance Matrix: (Units=1/GPa)
#
#
# Indices 1 2 3 4 5 6 
#
# 1 0.021524 -0.006183 -0.002645 0.000000 0.000000 0.005988
# 2 -0.006183 0.021524 -0.002645 0.000000 0.000000 -0.005988
# 3 -0.002645 -0.002645 0.008568 0.000000 0.000000 0.000000
# 4 0.000000 0.000000 0.000000 0.005309 0.000000 0.000000
# 5 0.000000 0.000000 0.000000 0.000000 0.005309 0.000000
# 6 0.005988 -0.005988 0.000000 0.000000 0.000000 0.037470
#
#
# Mechanical properties :
#
#
# Convention : Reuss Voigt Hill
#
# Bulk Modulus (GPa) = 34.88193 40.73771 37.80982
# Shear Modulus (GPa) = 37.81909 93.09303 65.45606
#
# Velocity S-wave (km/s) = 4.43327 6.95547 5.83234
# Velocity P-wave (km/s) = 6.65827 9.25610 8.06251
#
# Compressibility (1/GPa) = 0.02866814
#
# Stress axis : x y z
#
# Youngs Moduli (GPa) = 46.45889 46.45888 116.71850
#
# Poissons Ratio (x) = 0.28726 0.30878
# Poissons Ratio (y) = 0.28726 0.30878
# Poissons Ratio (z) = 0.12291 0.12291
#
# Static dielectric constant tensor:
#      x y z
#    x 1.660830 0.000000 0.000000 
#    y 0.000000 1.660830 0.000000 
#    z 0.000000 0.000000 1.637160 
# 
# From -- ./inp_files/4246.got.cif
#   From: 2010.05.17/outbox.cif.g08.bks.cpg/sg87_3_cif.got.tgz:4246.got - 2010.06.03 19:07:00.
