data_PCOD9545523
_publ_section_title
;
Structure prediction by ZEFSAII (Michael W. Deem and Ramdas Pophale) SiO2 
 PCOD9545523
Probable space group: I 4/M
;
_chemical_formula_sum "Si O2"
_cell_formula_units_Z 88
_cell_length_a 18.647142
_cell_length_b 18.647142
_cell_length_c 14.886108
_cell_angle_alpha 90.000000
_cell_angle_beta 90.000000
_cell_angle_gamma 90.000000
_cell_volume 5176.136512
_symmetry_space_group_name_H-M "I 4/M"
_symmetry_group_IT_number 87
_symmetry_cell_setting 'tetragonal'
loop_
_space_group_symop_operation_xyz
x,y,z
-y,x,z
-x,-y,z
y,-x,z
-x,-y,-z
y,-x,-z
x,y,-z
-y,x,-z
1/2+x,1/2+y,1/2+z
1/2-y,1/2+x,1/2+z
1/2-x,1/2-y,1/2+z
1/2+y,1/2-x,1/2+z
1/2-x,1/2-y,1/2-z
1/2+y,1/2-x,1/2-z
1/2+x,1/2+y,1/2-z
1/2-y,1/2+x,1/2-z
loop_
_atom_site_type_symbol
_atom_site_label
_atom_site_fract_x
_atom_site_fract_y
_atom_site_fract_z
Si Si1 0.774092 0.554477 0.609415
Si Si2 0.925467 0.906485 0.000000
Si Si3 0.778191 0.831103 0.750385
Si Si4 0.146873 0.669619 0.395245
Si Si5 0.094781 0.202974 0.152107
Si Si6 0.522685 0.921742 0.609015
O O1 0.765358 0.558609 0.500000
O O2 0.751396 0.625211 0.663333
O O3 0.727828 0.487618 0.648447
O O4 0.856734 0.531887 0.628776
O O5 0.898637 0.863522 0.914615
O O6 0.011503 0.903677 0.000000
O O7 0.750000 0.750000 0.750000
O O8 0.740388 0.864675 0.663448
O O9 0.864059 0.822773 0.758575
O O10 0.133234 0.682174 0.500000
O O11 0.228227 0.639015 0.384873
O O12 0.099312 0.602749 0.360982
O O13 0.526224 0.923707 0.500000
O O14 0.500000 0.000000 0.641010
#
# Coordination Sequence:
#
# PCOD9545523 Si02
#       6
#    16   8  16  16  16  16
#     4  10  19  33  55  79 106 144 176 215 284 333
#     4  11  20  28  48  82 105 130 164 206 273 335
#     4  10  22  33  50  79 106 136 186 225 260 325
#     4   9  17  34  53  72 102 147 181 216 270 313
#     4  10  18  33  53  75 106 134 171 222 274 330
#     4   8  15  31  53  76 105 140 181 225 267 322
#
# _framework density 17.001097000000001
#
# number of rings (size 3 to 8) (size 9 to 14) (size 15 to 20)
#    0.000    2.455    1.818    2.182    1.273    0.727 
#    9.818    0.000    0.000    1.091    0.000    0.000 
#    0.000    0.000    0.000    5.636    0.000    0.000 
#
# Total GULP energy -245000.207908 kJ/mol
# GULP energy per Si atom -5568.186543 kJ/mol
# Density = 1.696240 g / cm^3
# Si number density = 17.001097 Si / 1000 Ang^3
#
#
#
# Elastic Constant Matrix: (Units=GPa)
#
#
# Indices 1 2 3 4 5 6 
#
# 1 107.3833 30.0137 44.1039 0.0000 0.0000 3.6024
# 2 30.0137 107.3833 44.1039 0.0000 0.0000 -3.6024
# 3 44.1039 44.1039 59.7940 0.0000 0.0000 0.0000
# 4 0.0000 0.0000 0.0000 20.9745 0.0000 0.0000
# 5 0.0000 0.0000 0.0000 0.0000 20.9745 0.0000
# 6 3.6024 -3.6024 0.0000 0.0000 0.0000 11.9988
#
#
#
# Elastic Compliance Matrix: (Units=1/GPa)
#
#
# Indices 1 2 3 4 5 6 
#
# 1 0.013561 0.000264 -0.010197 0.000000 0.000000 -0.003992
# 2 0.000264 0.013561 -0.010197 0.000000 0.000000 0.003992
# 3 -0.010197 -0.010197 0.031767 0.000000 0.000000 0.000000
# 4 0.000000 0.000000 0.000000 0.047677 0.000000 0.000000
# 5 0.000000 0.000000 0.000000 0.000000 0.047677 0.000000
# 6 -0.003992 0.003992 0.000000 0.000000 0.000000 0.085739
#
#
# Mechanical properties :
#
#
# Convention : Reuss Voigt Hill
#
# Bulk Modulus (GPa) = 53.68299 56.77816 55.23058
# Shear Modulus (GPa) = 17.45507 21.21217 19.33362
#
# Velocity S-wave (km/s) = 3.20770 3.53610 3.37590
# Velocity P-wave (km/s) = 6.73527 7.08105 6.91032
#
# Compressibility (1/GPa) = 0.01862787
#
# Stress axis : x y z
#
# Youngs Moduli (GPa) = 73.74295 73.74295 31.47964
#
# Poissons Ratio (x) = -0.01946 0.32100
# Poissons Ratio (y) = -0.01946 0.32100
# Poissons Ratio (z) = 0.75195 0.75195
#
# Static dielectric constant tensor:
#      x y z
#    x 1.606930 0.000000 0.000000 
#    y 0.000000 1.606930 0.000000 
#    z 0.000000 0.000000 1.585660 
# 
# From -- ./inp_files/3613.got.cif
#   From: 2010.05.17/outbox.cif.g08.bks.cpg/sg87_2_cif.got.tgz:3613.got - 2010.06.03 19:07:00.
