data_PCOD9545213
_publ_section_title
;
Structure prediction by ZEFSAII (Michael W. Deem and Ramdas Pophale) SiO2 
 PCOD9545213
Probable space group: P 42/N
;
_chemical_formula_sum "Si O2"
_cell_formula_units_Z 32
_cell_length_a 10.320151
_cell_length_b 10.320151
_cell_length_c 12.123760
_cell_angle_alpha 90.000000
_cell_angle_beta 90.000000
_cell_angle_gamma 90.000000
_cell_volume 1291.247323
_symmetry_space_group_name_H-M "P 42/N"
_symmetry_group_IT_number 86
_space_group.IT_coordinate_system_code '2'
_symmetry_cell_setting 'tetragonal'
loop_
_space_group_symop_operation_xyz
x,y,z
-y,1/2+x,1/2+z
1/2-x,1/2-y,z
1/2+y,-x,1/2+z
-x,-y,-z
y,1/2-x,1/2-z
1/2+x,1/2+y,-z
1/2-y,x,1/2-z
loop_
_atom_site_type_symbol
_atom_site_label
_atom_site_fract_x
_atom_site_fract_y
_atom_site_fract_z
Si Si1 0.497279 0.864816 0.259228
Si Si2 0.250000 0.250000 0.750000
Si Si3 0.250000 0.750000 0.144077
Si Si4 0.750000 0.750000 0.750000
Si Si5 0.453939 0.720131 0.476737
Si Si6 0.466420 0.121482 0.130855
O O1 0.617594 0.798656 0.194391
O O2 0.365695 0.804007 0.215794
O O3 0.508392 0.817415 0.385106
O O4 0.495334 0.013922 0.225235
O O5 0.293010 0.631293 0.066955
O O6 0.762496 0.883373 0.681606
O O7 0.558095 0.632386 0.542028
O O8 0.361443 0.607487 0.423076
#
# Coordination Sequence:
#
# PCOD9545213 Si02
#       6
#     8   2   4   2   8   8
#     4  11  23  44  73  97 144 186 239 296 369 431
#     4  12  24  42  72 108 140 190 236 298 364 432
#     4  10  24  40  72 100 134 194 238 298 364 432
#     4  12  28  46  72 100 158 188 240 302 376 432
#     4  10  22  44  69  97 138 181 241 296 355 436
#     4  10  25  45  66 105 139 187 236 300 359 436
#
# _framework density 24.782242
#
# number of rings (size 3 to 8) (size 9 to 14) (size 15 to 20)
#    0.000    1.500    2.500    0.750   10.500    1.000 
#    0.000    2.500    0.000    0.000    0.000    0.000 
#    0.000    0.000    0.000    0.000    0.000    0.000 
#
# Total GULP energy -178877.716858 kJ/mol
# GULP energy per Si atom -5589.928652 kJ/mol
# Density = 2.472584 g / cm^3
# Si number density = 24.782242 Si / 1000 Ang^3
#
#
#
# Elastic Constant Matrix: (Units=GPa)
#
#
# Indices 1 2 3 4 5 6 
#
# 1 48.6721 4.6796 2.0890 0.0000 0.0000 4.6510
# 2 4.6796 48.6721 2.0890 0.0000 0.0000 -4.6510
# 3 2.0890 2.0890 76.8822 0.0000 0.0000 0.0000
# 4 0.0000 0.0000 0.0000 24.7098 0.0000 0.0000
# 5 0.0000 0.0000 0.0000 0.0000 24.7098 0.0000
# 6 4.6510 -4.6510 0.0000 0.0000 0.0000 39.9213
#
#
#
# Elastic Compliance Matrix: (Units=1/GPa)
#
#
# Indices 1 2 3 4 5 6 
#
# 1 0.021044 -0.002261 -0.000510 0.000000 0.000000 -0.002715
# 2 -0.002261 0.021044 -0.000510 0.000000 0.000000 0.002715
# 3 -0.000510 -0.000510 0.013035 0.000000 0.000000 0.000000
# 4 0.000000 0.000000 0.000000 0.040470 0.000000 0.000000
# 5 0.000000 0.000000 0.000000 0.000000 0.040470 0.000000
# 6 -0.002715 0.002715 0.000000 0.000000 0.000000 0.025682
#
#
# Mechanical properties :
#
#
# Convention : Reuss Voigt Hill
#
# Bulk Modulus (GPa) = 20.59300 21.32684 20.95992
# Shear Modulus (GPa) = 27.10102 28.89277 27.99689
#
# Velocity S-wave (km/s) = 3.31050 3.41818 3.36477
# Velocity P-wave (km/s) = 4.78959 4.91965 4.85506
#
# Compressibility (1/GPa) = 0.04856018
#
# Stress axis : x y z
#
# Youngs Moduli (GPa) = 47.51858 47.51858 76.71864
#
# Poissons Ratio (x) = 0.10743 0.03915
# Poissons Ratio (y) = 0.10743 0.03915
# Poissons Ratio (z) = 0.02425 0.02425
#
# Static dielectric constant tensor:
#      x y z
#    x 1.958970 0.000000 0.000000 
#    y 0.000000 1.958970 0.000000 
#    z 0.000000 0.000000 2.036510 
# 
# From -- ./inp_files/2773.got.cif
#   From: 2010.05.17/outbox.cif.g08.bks.cpg/sg86_2_cif.got.tgz:2773.got - 2010.06.03 19:03:11.
