data_PCOD9545489
_publ_section_title
;
Structure prediction by ZEFSAII (Michael W. Deem and Ramdas Pophale) SiO2 
 PCOD9545489
Probable space group: I 4/M
;
_chemical_formula_sum "Si O2"
_cell_formula_units_Z 112
_cell_length_a 15.550776
_cell_length_b 15.550776
_cell_length_c 33.069977
_cell_angle_alpha 90.000000
_cell_angle_beta 90.000000
_cell_angle_gamma 90.000000
_cell_volume 7997.201231
_symmetry_space_group_name_H-M "I 4/M"
_symmetry_group_IT_number 87
_symmetry_cell_setting 'tetragonal'
loop_
_space_group_symop_operation_xyz
x,y,z
-y,x,z
-x,-y,z
y,-x,z
-x,-y,-z
y,-x,-z
x,y,-z
-y,x,-z
1/2+x,1/2+y,1/2+z
1/2-y,1/2+x,1/2+z
1/2-x,1/2-y,1/2+z
1/2+y,1/2-x,1/2+z
1/2-x,1/2-y,1/2-z
1/2+y,1/2-x,1/2-z
1/2+x,1/2+y,1/2-z
1/2-y,1/2+x,1/2-z
loop_
_atom_site_type_symbol
_atom_site_label
_atom_site_fract_x
_atom_site_fract_y
_atom_site_fract_z
Si Si1 0.192598 0.553804 0.295698
Si Si2 0.127574 0.936783 0.767978
Si Si3 0.620329 0.684806 0.821730
Si Si4 0.134640 0.054188 0.455678
Si Si5 0.277409 0.451292 0.128617
Si Si6 0.465031 0.913165 0.849984
Si Si7 0.129421 0.620290 0.790273
O O1 0.290573 0.585406 0.295598
O O2 0.130591 0.575305 0.332681
O O3 0.151678 0.595957 0.255551
O O4 0.185330 0.450267 0.291069
O O5 0.152484 0.916403 0.721384
O O6 0.037806 0.889600 0.774477
O O7 0.693251 0.622702 0.839735
O O8 0.540355 0.684820 0.853073
O O9 0.649072 0.783023 0.812750
O O10 0.174903 0.070413 0.500000
O O11 0.187731 0.071371 0.415484
O O12 0.045864 0.107091 0.454191
O O13 0.175569 0.465091 0.126384
O O14 0.532493 0.900099 0.812819
O O15 0.500000 0.000000 0.870698
#
# Coordination Sequence:
#
# PCOD9545489 Si02
#       7
#    16  16  16  16  16  16  16
#     4  10  17  29  43  53  74 106 143 186 210 248
#     4  10  20  30  38  53  79 108 139 176 223 254
#     4  10  19  26  39  61  83 111 138 170 210 246
#     4   9  17  28  44  67  93 118 138 157 191 244
#     4  11  18  29  44  62  87 111 133 171 207 246
#     4   9  19  30  43  60  78 107 143 178 213 242
#     4   9  17  27  40  58  77 104 146 180 213 240
#
# _framework density 14.004899999999999
#
# number of rings (size 3 to 8) (size 9 to 14) (size 15 to 20)
#    0.000    2.286    4.286    0.429    0.000    1.429 
#    0.000    2.857    0.000    0.429    0.000    0.000 
#    0.000    0.000    0.000    0.000    0.000    0.000 
#
# Total GULP energy -311844.696733 kJ/mol
# GULP energy per Si atom -5568.655299 kJ/mol
# Density = 1.397302 g / cm^3
# Si number density = 14.004900 Si / 1000 Ang^3
#
#
#
# Elastic Constant Matrix: (Units=GPa)
#
#
# Indices 1 2 3 4 5 6 
#
# 1 50.9596 4.7235 7.6104 0.0000 0.0000 0.6618
# 2 4.7235 50.9596 7.6104 0.0000 0.0000 -0.6618
# 3 7.6104 7.6104 33.8458 0.0000 0.0000 0.0000
# 4 0.0000 0.0000 0.0000 8.1049 0.0000 0.0000
# 5 0.0000 0.0000 0.0000 0.0000 8.1049 0.0000
# 6 0.6618 -0.6618 0.0000 0.0000 0.0000 10.0808
#
#
#
# Elastic Compliance Matrix: (Units=1/GPa)
#
#
# Indices 1 2 3 4 5 6 
#
# 1 0.020402 -0.001267 -0.004303 0.000000 0.000000 -0.001423
# 2 -0.001267 0.020402 -0.004303 0.000000 0.000000 0.001423
# 3 -0.004303 -0.004303 0.031481 0.000000 0.000000 0.000000
# 4 0.000000 0.000000 0.000000 0.123383 0.000000 0.000000
# 5 0.000000 0.000000 0.000000 0.000000 0.123383 0.000000
# 6 -0.001423 0.001423 0.000000 0.000000 0.000000 0.099385
#
#
# Mechanical properties :
#
#
# Convention : Reuss Voigt Hill
#
# Bulk Modulus (GPa) = 19.03309 19.51707 19.27508
# Shear Modulus (GPa) = 10.97231 12.97949 11.97590
#
# Velocity S-wave (km/s) = 2.80208 3.04761 2.92742
# Velocity P-wave (km/s) = 4.90802 5.13323 5.02189
#
# Compressibility (1/GPa) = 0.05254008
#
# Stress axis : x y z
#
# Youngs Moduli (GPa) = 49.01510 49.01510 31.76550
#
# Poissons Ratio (x) = 0.06210 0.13667
# Poissons Ratio (y) = 0.06210 0.13667
# Poissons Ratio (z) = 0.21089 0.21089
#
# Static dielectric constant tensor:
#      x y z
#    x 1.481040 0.000000 0.000000 
#    y 0.000000 1.481040 0.000000 
#    z 0.000000 0.000000 1.427620 
# 
# From -- ./inp_files/6714.got.cif
#   From: 2010.05.17/outbox.cif.g08.bks.cpg/sg87_4_cif.got.tgz:6714.got - 2010.06.03 19:07:00.
