data_PCOD9545122
_publ_section_title
;
Structure prediction by ZEFSAII (Michael W. Deem and Ramdas Pophale) SiO2 
 PCOD9545122
Probable space group: P 42/N
;
_chemical_formula_sum "Si O2"
_cell_formula_units_Z 58
_cell_length_a 16.672456
_cell_length_b 16.672456
_cell_length_c 9.011013
_cell_angle_alpha 90.000000
_cell_angle_beta 90.000000
_cell_angle_gamma 90.000000
_cell_volume 2504.798394
_symmetry_space_group_name_H-M "P 42/N"
_symmetry_group_IT_number 86
_space_group.IT_coordinate_system_code '2'
_symmetry_cell_setting 'tetragonal'
loop_
_space_group_symop_operation_xyz
x,y,z
-y,1/2+x,1/2+z
1/2-x,1/2-y,z
1/2+y,-x,1/2+z
-x,-y,-z
y,1/2-x,1/2-z
1/2+x,1/2+y,-z
1/2-y,x,1/2-z
loop_
_atom_site_type_symbol
_atom_site_label
_atom_site_fract_x
_atom_site_fract_y
_atom_site_fract_z
Si Si1 0.997652 0.817556 0.809403
Si Si2 0.479826 0.841884 0.969930
Si Si3 0.250000 0.250000 0.750000
Si Si4 0.137378 0.555039 0.595461
Si Si5 0.302710 0.830814 0.852963
Si Si6 0.921197 0.980474 0.808642
Si Si7 0.930685 0.732083 0.209104
Si Si8 0.238161 0.984774 0.008545
O O1 0.977632 0.730904 0.877351
O O2 0.013580 0.806022 0.636241
O O3 0.934089 0.887497 0.828213
O O4 0.067577 0.848655 0.920110
O O5 0.384426 0.823827 0.953380
O O6 0.499723 0.916261 0.866211
O O7 0.763023 0.945691 0.114840
O O8 0.264897 0.336618 0.671837
O O9 0.164858 0.630388 0.697735
O O10 0.193878 0.481795 0.645485
O O11 0.049085 0.521275 0.629338
O O12 0.250000 0.750000 0.836918
O O13 0.250200 0.901296 0.924379
O O14 0.843166 0.007267 0.900439
O O15 0.979385 0.659240 0.130089
#
# Coordination Sequence:
#
# PCOD9545122 Si02
#       8
#     8   8   2   8   8   8   8   8
#     4  10  21  41  63  95 139 180 233 295 358 428
#     4   9  22  44  63 100 139 177 236 299 364 434
#     4  12  28  44  72  94 140 188 256 302 356 416
#     4   9  21  44  64 100 136 180 233 288 362 438
#     4  10  22  45  71 102 148 184 233 293 360 452
#     4  10  21  41  68  93 139 187 238 289 365 440
#     4  10  24  45  65  98 136 178 242 300 357 421
#     4  10  24  42  66 106 138 182 249 294 369 435
#
# _framework density 23.155557000000002
#
# number of rings (size 3 to 8) (size 9 to 14) (size 15 to 20)
#    0.000    2.207    0.000    0.414    9.655    1.103 
#   22.345    2.759    0.000    5.793    0.000    0.000 
#    0.000    0.000    0.000    0.000    0.000    0.000 
#
# Total GULP energy -323097.341189 kJ/mol
# GULP energy per Si atom -5570.643814 kJ/mol
# Density = 2.310285 g / cm^3
# Si number density = 23.155557 Si / 1000 Ang^3
#
#
#
# Elastic Constant Matrix: (Units=GPa)
#
#
# Indices 1 2 3 4 5 6 
#
# 1 75.7748 18.8980 23.4158 0.0000 0.0000 9.5203
# 2 18.8980 75.7748 23.4158 0.0000 0.0000 -9.5203
# 3 23.4158 23.4158 137.8161 0.0000 0.0000 0.0000
# 4 0.0000 0.0000 0.0000 21.2366 0.0000 0.0000
# 5 0.0000 0.0000 0.0000 0.0000 21.2366 0.0000
# 6 9.5203 -9.5203 0.0000 0.0000 0.0000 27.4118
#
#
#
# Elastic Compliance Matrix: (Units=1/GPa)
#
#
# Indices 1 2 3 4 5 6 
#
# 1 0.015713 -0.004182 -0.001959 0.000000 0.000000 -0.006910
# 2 -0.004182 0.015713 -0.001959 0.000000 0.000000 0.006910
# 3 -0.001959 -0.001959 0.007922 0.000000 0.000000 0.000000
# 4 0.000000 0.000000 0.000000 0.047089 0.000000 0.000000
# 5 0.000000 0.000000 0.000000 0.000000 0.047089 0.000000
# 6 -0.006910 0.006910 0.000000 0.000000 0.000000 0.041280
#
#
# Mechanical properties :
#
#
# Convention : Reuss Voigt Hill
#
# Bulk Modulus (GPa) = 43.19972 46.75836 44.97904
# Shear Modulus (GPa) = 25.16072 28.88608 27.02340
#
# Velocity S-wave (km/s) = 3.29993 3.53580 3.41990
# Velocity P-wave (km/s) = 5.76335 6.07504 5.92125
#
# Compressibility (1/GPa) = 0.02314830
#
# Stress axis : x y z
#
# Youngs Moduli (GPa) = 63.63973 63.63973 126.23298
#
# Poissons Ratio (x) = 0.26611 0.24733
# Poissons Ratio (y) = 0.26611 0.24733
# Poissons Ratio (z) = 0.12469 0.12469
#
# Static dielectric constant tensor:
#      x y z
#    x 1.960360 0.000000 0.000000 
#    y 0.000000 1.960360 0.000000 
#    z 0.000000 0.000000 1.989400 
# 
# From -- ./inp_files/1481.got.cif
#   From: 2010.05.17/outbox.cif.g08.bks.cpg/sg86_1_cif.got.tgz:1481.got - 2010.06.03 19:03:11.
