data_PCOD9545382
_publ_section_title
;
Structure prediction by ZEFSAII (Michael W. Deem and Ramdas Pophale) SiO2 
 PCOD9545382
Probable space group: P 42/N
;
_chemical_formula_sum "Si O2"
_cell_formula_units_Z 42
_cell_length_a 13.943672
_cell_length_b 13.943672
_cell_length_c 9.361858
_cell_angle_alpha 90.000000
_cell_angle_beta 90.000000
_cell_angle_gamma 90.000000
_cell_volume 1820.188499
_symmetry_space_group_name_H-M "P 42/N"
_symmetry_group_IT_number 86
_space_group.IT_coordinate_system_code '2'
_symmetry_cell_setting 'tetragonal'
loop_
_space_group_symop_operation_xyz
x,y,z
-y,1/2+x,1/2+z
1/2-x,1/2-y,z
1/2+y,-x,1/2+z
-x,-y,-z
y,1/2-x,1/2-z
1/2+x,1/2+y,-z
1/2-y,x,1/2-z
loop_
_atom_site_type_symbol
_atom_site_label
_atom_site_fract_x
_atom_site_fract_y
_atom_site_fract_z
Si Si1 0.845560 0.508707 0.205062
Si Si2 0.296922 0.010159 0.467610
Si Si3 0.426567 0.971967 0.204061
Si Si4 0.750000 0.750000 0.750000
Si Si5 0.334471 0.827874 0.993696
Si Si6 0.862546 0.831891 0.528024
O O1 0.824671 0.491821 0.369383
O O2 0.812901 0.416069 0.113291
O O3 0.959093 0.533799 0.202064
O O4 0.796670 0.599063 0.123813
O O5 0.384163 0.003501 0.356834
O O6 0.226182 0.924393 0.423969
O O7 0.234015 0.106485 0.474183
O O8 0.398292 0.054801 0.092560
O O9 0.374017 0.877761 0.139445
O O10 0.842734 0.753367 0.649051
O O11 0.250000 0.750000 0.014371
#
# Coordination Sequence:
#
# PCOD9545382 Si02
#       6
#     8   8   8   2   8   8
#     4  11  25  47  70 101 149 190 226 301 374 427
#     4  12  25  41  73 102 136 183 249 288 353 434
#     4  11  23  48  72  95 146 195 224 289 378 429
#     4  12  24  44  74 100 128 184 254 296 336 432
#     4  11  26  43  70 107 145 182 234 301 356 426
#     4  11  23  46  69  96 135 187 235 293 353 429
#
# _framework density 23.074535000000001
#
# number of rings (size 3 to 8) (size 9 to 14) (size 15 to 20)
#    0.000    0.762    5.714    1.714    5.333    1.524 
#    0.000    0.000    0.000    0.000    0.000    0.000 
#    0.000    0.000    0.000    0.000    0.000    0.000 
#
# Total GULP energy -234678.546137 kJ/mol
# GULP energy per Si atom -5587.584432 kJ/mol
# Density = 2.302202 g / cm^3
# Si number density = 23.074535 Si / 1000 Ang^3
#
#
#
# Elastic Constant Matrix: (Units=GPa)
#
#
# Indices 1 2 3 4 5 6 
#
# 1 65.9650 47.3327 25.4427 0.0000 0.0000 5.1662
# 2 47.3327 65.9650 25.4427 0.0000 0.0000 -5.1662
# 3 25.4427 25.4427 128.0964 0.0000 0.0000 0.0000
# 4 0.0000 0.0000 0.0000 25.9762 0.0000 0.0000
# 5 0.0000 0.0000 0.0000 0.0000 25.9762 0.0000
# 6 5.1662 -5.1662 0.0000 0.0000 0.0000 33.3947
#
#
#
# Elastic Compliance Matrix: (Units=1/GPa)
#
#
# Indices 1 2 3 4 5 6 
#
# 1 0.034199 -0.024508 -0.001925 0.000000 0.000000 -0.009082
# 2 -0.024508 0.034199 -0.001925 0.000000 0.000000 0.009082
# 3 -0.001925 -0.001925 0.008571 0.000000 0.000000 0.000000
# 4 0.000000 0.000000 0.000000 0.038497 0.000000 0.000000
# 5 0.000000 0.000000 0.000000 0.000000 0.038497 0.000000
# 6 -0.009082 0.009082 0.000000 0.000000 0.000000 0.032755
#
#
# Mechanical properties :
#
#
# Convention : Reuss Voigt Hill
#
# Bulk Modulus (GPa) = 49.37392 50.71809 50.04601
# Shear Modulus (GPa) = 19.98534 27.85665 23.92099
#
# Velocity S-wave (km/s) = 2.94619 3.47831 3.22325
# Velocity P-wave (km/s) = 5.74608 6.17733 5.96560
#
# Compressibility (1/GPa) = 0.02025361
#
# Stress axis : x y z
#
# Youngs Moduli (GPa) = 29.24085 29.24085 116.66927
#
# Poissons Ratio (x) = 0.71663 0.22457
# Poissons Ratio (y) = 0.71663 0.22457
# Poissons Ratio (z) = 0.05628 0.05628
#
# Static dielectric constant tensor:
#      x y z
#    x 1.894390 0.000000 0.000000 
#    y 0.000000 1.894390 0.000000 
#    z 0.000000 0.000000 1.907380 
# 
# From -- ./inp_files/1156.got.cif
#   From: 2010.05.17/outbox.cif.g08.bks.cpg/sg86_1_cif.got.tgz:1156.got - 2010.06.03 19:03:11.
