data_PCOD9545774
_publ_section_title
;
Structure prediction by ZEFSAII (Michael W. Deem and Ramdas Pophale) SiO2 
 PCOD9545774
Probable space group: I 4/M
;
_chemical_formula_sum "Si O2"
_cell_formula_units_Z 72
_cell_length_a 19.489010
_cell_length_b 19.489010
_cell_length_c 10.559283
_cell_angle_alpha 90.000000
_cell_angle_beta 90.000000
_cell_angle_gamma 90.000000
_cell_volume 4010.642822
_symmetry_space_group_name_H-M "I 4/M"
_symmetry_group_IT_number 87
_symmetry_cell_setting 'tetragonal'
loop_
_space_group_symop_operation_xyz
x,y,z
-y,x,z
-x,-y,z
y,-x,z
-x,-y,-z
y,-x,-z
x,y,-z
-y,x,-z
1/2+x,1/2+y,1/2+z
1/2-y,1/2+x,1/2+z
1/2-x,1/2-y,1/2+z
1/2+y,1/2-x,1/2+z
1/2-x,1/2-y,1/2-z
1/2+y,1/2-x,1/2-z
1/2+x,1/2+y,1/2-z
1/2-y,1/2+x,1/2-z
loop_
_atom_site_type_symbol
_atom_site_label
_atom_site_fract_x
_atom_site_fract_y
_atom_site_fract_z
Si Si1 0.579286 0.169096 0.350983
Si Si2 0.884392 0.981625 0.500000
Si Si3 0.825450 0.083695 0.141887
Si Si4 0.162881 0.582554 0.646436
Si Si5 0.676964 0.560681 0.258709
O O1 0.600391 0.166809 0.500000
O O2 0.498889 0.148898 0.347000
O O3 0.622038 0.122056 0.255103
O O4 0.582469 0.246667 0.297355
O O5 0.835983 0.971091 0.620942
O O6 0.945630 0.924541 0.500000
O O7 0.744627 0.091148 0.168573
O O8 0.874935 0.127100 0.229305
O O9 0.842079 0.003048 0.150818
O O10 0.837799 0.108863 0.000000
O O11 0.148270 0.604650 0.500000
#
# Coordination Sequence:
#
# PCOD9545774 Si02
#       5
#    16   8  16  16  16
#     4  10  22  41  62  88 116 148 196 243 291 350
#     4  11  22  38  54  86 126 155 197 245 283 337
#     4  10  20  37  58  83 115 153 197 236 286 344
#     4   9  21  40  60  86 117 148 188 243 295 353
#     4  11  21  37  57  82 118 157 191 241 286 336
#
# _framework density 17.952234000000001
#
# number of rings (size 3 to 8) (size 9 to 14) (size 15 to 20)
#    0.000    1.889    2.222    3.333    1.556    2.667 
#    8.000    3.333    0.000    0.000    0.000    0.000 
#    0.000    0.000    0.000    0.000    0.000    0.000 
#
# Total GULP energy -200688.051403 kJ/mol
# GULP energy per Si atom -5574.668095 kJ/mol
# Density = 1.791137 g / cm^3
# Si number density = 17.952234 Si / 1000 Ang^3
#
#
#
# Elastic Constant Matrix: (Units=GPa)
#
#
# Indices 1 2 3 4 5 6 
#
# 1 54.8339 42.0533 48.7776 0.0000 0.0000 4.0346
# 2 42.0533 54.8339 48.7776 0.0000 0.0000 -4.0346
# 3 48.7776 48.7776 124.8207 0.0000 0.0000 0.0000
# 4 0.0000 0.0000 0.0000 32.5046 0.0000 0.0000
# 5 0.0000 0.0000 0.0000 0.0000 32.5046 0.0000
# 6 4.0346 -4.0346 0.0000 0.0000 0.0000 32.4891
#
#
#
# Elastic Compliance Matrix: (Units=1/GPa)
#
#
# Indices 1 2 3 4 5 6 
#
# 1 0.050958 -0.033941 -0.006650 0.000000 0.000000 -0.010543
# 2 -0.033941 0.050958 -0.006650 0.000000 0.000000 0.010543
# 3 -0.006650 -0.006650 0.013209 0.000000 0.000000 0.000000
# 4 0.000000 0.000000 0.000000 0.030765 0.000000 0.000000
# 5 0.000000 0.000000 0.000000 0.000000 0.030765 0.000000
# 6 -0.010543 0.010543 0.000000 0.000000 0.000000 0.033398
#
#
# Mechanical properties :
#
#
# Convention : Reuss Voigt Hill
#
# Bulk Modulus (GPa) = 48.44213 57.07840 52.76027
# Shear Modulus (GPa) = 16.05565 25.82500 20.94032
#
# Velocity S-wave (km/s) = 2.99382 3.79692 3.41903
# Velocity P-wave (km/s) = 6.24444 7.14743 6.71114
#
# Compressibility (1/GPa) = 0.02064319
#
# Stress axis : x y z
#
# Youngs Moduli (GPa) = 19.62387 19.62387 75.70667
#
# Poissons Ratio (x) = 0.66606 0.50345
# Poissons Ratio (y) = 0.66606 0.50345
# Poissons Ratio (z) = 0.13050 0.13050
#
# Static dielectric constant tensor:
#      x y z
#    x 1.595740 0.000000 0.000000 
#    y 0.000000 1.595740 0.000000 
#    z 0.000000 0.000000 1.624260 
# 
# From -- ./inp_files/1064.got.cif
#   From: 2010.05.17/outbox.cif.g08.bks.cpg/sg87_1_cif.got.tgz:1064.got - 2010.06.03 19:07:00.
