data_PCOD9545135
_publ_section_title
;
Structure prediction by ZEFSAII (Michael W. Deem and Ramdas Pophale) SiO2 
 PCOD9545135
Probable space group: P 42/N
;
_chemical_formula_sum "Si O2"
_cell_formula_units_Z 64
_cell_length_a 17.944119
_cell_length_b 17.944119
_cell_length_c 11.128190
_cell_angle_alpha 90.000000
_cell_angle_beta 90.000000
_cell_angle_gamma 90.000000
_cell_volume 3583.181552
_symmetry_space_group_name_H-M "P 42/N"
_symmetry_group_IT_number 86
_space_group.IT_coordinate_system_code '2'
_symmetry_cell_setting 'tetragonal'
loop_
_space_group_symop_operation_xyz
x,y,z
-y,1/2+x,1/2+z
1/2-x,1/2-y,z
1/2+y,-x,1/2+z
-x,-y,-z
y,1/2-x,1/2-z
1/2+x,1/2+y,-z
1/2-y,x,1/2-z
loop_
_atom_site_type_symbol
_atom_site_label
_atom_site_fract_x
_atom_site_fract_y
_atom_site_fract_z
Si Si1 0.056458 0.438177 0.558562
Si Si2 0.547396 0.425744 0.476307
Si Si3 0.049374 0.172736 0.318314
Si Si4 0.066103 0.345270 0.320762
Si Si5 0.309513 0.908901 0.356442
Si Si6 0.599190 0.145018 0.212556
Si Si7 0.039422 0.806416 0.129172
Si Si8 0.849158 0.044574 0.245865
O O1 0.077555 0.385229 0.447861
O O2 0.129270 0.476910 0.615428
O O3 0.000000 0.500000 0.500000
O O4 0.013909 0.390573 0.659557
O O5 0.500000 0.500000 0.500000
O O6 0.491007 0.360439 0.435779
O O7 0.597879 0.405582 0.589992
O O8 0.600513 0.441392 0.363187
O O9 0.075795 0.257063 0.332003
O O10 0.115927 0.120043 0.275205
O O11 0.985477 0.171452 0.214826
O O12 0.981807 0.358342 0.275317
O O13 0.230846 0.880960 0.307512
O O14 0.295010 0.931532 0.493733
O O15 0.377548 0.852757 0.329542
O O16 0.657578 0.106641 0.298187
O O17 0.020234 0.731010 0.201640
#
# Coordination Sequence:
#
# PCOD9545135 Si02
#       8
#     8   8   8   8   8   8   8   8
#     4  12  21  42  69  92 122 169 223 259 311 388
#     4  11  20  37  61  92 124 156 207 265 307 370
#     4  10  22  36  62  89 122 161 208 263 310 372
#     4  11  21  39  62  89 121 164 211 263 306 377
#     4  10  21  43  59  89 129 163 210 258 315 381
#     4  11  22  36  62  93 124 164 208 255 323 377
#     4  12  23  40  67  92 128 173 207 265 321 376
#     4  11  24  40  65  96 125 167 213 259 321 384
#
# _framework density 17.861222000000001
#
# number of rings (size 3 to 8) (size 9 to 14) (size 15 to 20)
#    0.000    1.000    6.250    1.500    1.750    0.750 
#    2.250    1.250    0.000    0.375    0.000    0.000 
#    0.000    0.000    0.000    0.000    0.000    0.000 
#
# Total GULP energy -357330.235114 kJ/mol
# GULP energy per Si atom -5583.284924 kJ/mol
# Density = 1.782057 g / cm^3
# Si number density = 17.861222 Si / 1000 Ang^3
#
#
#
# Elastic Constant Matrix: (Units=GPa)
#
#
# Indices 1 2 3 4 5 6 
#
# 1 94.3061 51.8778 28.2179 0.0000 0.0000 2.3378
# 2 51.8778 94.3061 28.2179 0.0000 0.0000 -2.3378
# 3 28.2179 28.2179 62.3729 0.0000 0.0000 0.0000
# 4 0.0000 0.0000 0.0000 32.9757 0.0000 0.0000
# 5 0.0000 0.0000 0.0000 0.0000 32.9757 0.0000
# 6 2.3378 -2.3378 0.0000 0.0000 0.0000 -5.9730
#
#
#
# Elastic Compliance Matrix: (Units=1/GPa)
#
#
# Indices 1 2 3 4 5 6 
#
# 1 0.015441 -0.007153 -0.003750 0.000000 0.000000 0.008843
# 2 -0.007153 0.015441 -0.003750 0.000000 0.000000 -0.008843
# 3 -0.003750 -0.003750 0.019425 0.000000 0.000000 0.000000
# 4 0.000000 0.000000 0.000000 0.030325 0.000000 0.000000
# 5 0.000000 0.000000 0.000000 0.000000 0.030325 0.000000
# 6 0.008843 -0.008843 0.000000 0.000000 0.000000 -0.160496
#
#
# Mechanical properties :
#
#
# Convention : Reuss Voigt Hill
#
# Bulk Modulus (GPa) = 47.61168 51.95691 49.78429
# Shear Modulus (GPa) = -377.89652 21.50711 -178.19470
#
# Velocity S-wave (km/s) = -14.56135 3.47381 -9.99914
# Velocity P-wave (km/s) = 15.99989 6.72623 10.26533
#
# Compressibility (1/GPa) = 0.02100325
#
# Stress axis : x y z
#
# Youngs Moduli (GPa) = 64.76065 64.76065 51.47915
#
# Poissons Ratio (x) = 0.46324 0.19303
# Poissons Ratio (y) = 0.46324 0.19303
# Poissons Ratio (z) = 0.24283 0.24283
#
# Static dielectric constant tensor:
#      x y z
#    x 1.516260 0.000000 0.000000 
#    y 0.000000 1.516260 0.000000 
#    z 0.000000 0.000000 1.661510 
# 
# From -- ./inp_files/2488.got.cif
#   From: 2010.05.17/outbox.cif.g08.bks.cpg/sg86_2_cif.got.tgz:2488.got - 2010.06.03 19:03:11.
