data_PCOD9545986
_publ_section_title
;
Structure prediction by ZEFSAII (Michael W. Deem and Ramdas Pophale) SiO2 
 PCOD9545986
Probable space group: I 4/M
;
_chemical_formula_sum "Si O2"
_cell_formula_units_Z 88
_cell_length_a 12.277861
_cell_length_b 12.277861
_cell_length_c 29.164479
_cell_angle_alpha 90.000000
_cell_angle_beta 90.000000
_cell_angle_gamma 90.000000
_cell_volume 4396.424781
_symmetry_space_group_name_H-M "I 4/M"
_symmetry_group_IT_number 87
_symmetry_cell_setting 'tetragonal'
loop_
_space_group_symop_operation_xyz
x,y,z
-y,x,z
-x,-y,z
y,-x,z
-x,-y,-z
y,-x,-z
x,y,-z
-y,x,-z
1/2+x,1/2+y,1/2+z
1/2-y,1/2+x,1/2+z
1/2-x,1/2-y,1/2+z
1/2+y,1/2-x,1/2+z
1/2-x,1/2-y,1/2-z
1/2+y,1/2-x,1/2-z
1/2+x,1/2+y,1/2-z
1/2-y,1/2+x,1/2-z
loop_
_atom_site_type_symbol
_atom_site_label
_atom_site_fract_x
_atom_site_fract_y
_atom_site_fract_z
Si Si1 0.560272 0.331403 0.500000
Si Si2 0.264797 0.739558 0.552631
Si Si3 0.408549 0.167103 0.884082
Si Si4 0.416497 0.149488 0.376403
Si Si5 0.656398 0.074599 0.768031
Si Si6 0.833100 0.075370 0.698279
O O1 0.633418 0.439387 0.500000
O O2 0.604946 0.269572 0.543403
O O3 0.218961 0.732734 0.500000
O O4 0.258590 0.856556 0.576080
O O5 0.229672 0.647323 0.588880
O O6 0.533469 0.134467 0.891043
O O7 0.397090 0.242508 0.839527
O O8 0.353427 0.048001 0.878757
O O9 0.396276 0.159066 0.321701
O O10 0.553820 0.132814 0.742849
O O11 0.772354 0.100302 0.745740
O O12 0.946955 0.138183 0.694029
#
# Coordination Sequence:
#
# PCOD9545986 Si02
#       6
#     8  16  16  16  16  16
#     4   9  18  38  60  84 124 163 198 262 340 399
#     4  10  24  39  61  94 125 165 217 271 344 392
#     4  11  21  40  64  92 128 173 217 276 335 386
#     4  11  22  39  68  97 128 169 230 276 325 404
#     4  11  20  40  64  98 133 174 221 274 328 387
#     4  11  24  40  61  94 137 180 223 269 331 400
#
# _framework density 20.016264
#
# number of rings (size 3 to 8) (size 9 to 14) (size 15 to 20)
#    0.545    0.818    3.636    3.273    0.000    2.909 
#    0.000    1.818    0.000    2.182    0.000    3.818 
#    0.000    0.000    0.000    0.000    0.000    0.000 
#
# Total GULP energy -244955.084746 kJ/mol
# GULP energy per Si atom -5567.161017 kJ/mol
# Density = 1.997071 g / cm^3
# Si number density = 20.016264 Si / 1000 Ang^3
#
#
#
# Elastic Constant Matrix: (Units=GPa)
#
#
# Indices 1 2 3 4 5 6 
#
# 1 70.4222 17.4552 55.7016 0.0000 0.0000 -4.3644
# 2 17.4552 70.4222 55.7016 0.0000 0.0000 4.3644
# 3 55.7016 55.7016 140.1452 0.0000 0.0000 0.0000
# 4 0.0000 0.0000 0.0000 20.4909 0.0000 0.0000
# 5 0.0000 0.0000 0.0000 0.0000 20.4909 0.0000
# 6 -4.3644 4.3644 0.0000 0.0000 0.0000 20.7771
#
#
#
# Elastic Compliance Matrix: (Units=1/GPa)
#
#
# Indices 1 2 3 4 5 6 
#
# 1 0.021246 0.001690 -0.009116 0.000000 0.000000 0.004108
# 2 0.001690 0.021246 -0.009116 0.000000 0.000000 -0.004108
# 3 -0.009116 -0.009116 0.014382 0.000000 0.000000 0.000000
# 4 0.000000 0.000000 0.000000 0.048802 0.000000 0.000000
# 5 0.000000 0.000000 0.000000 0.000000 0.048802 0.000000
# 6 0.004108 -0.004108 0.000000 0.000000 0.000000 0.049856
#
#
# Mechanical properties :
#
#
# Convention : Reuss Voigt Hill
#
# Bulk Modulus (GPa) = 42.03495 59.85626 50.94560
# Shear Modulus (GPa) = 20.37910 22.49387 21.43649
#
# Velocity S-wave (km/s) = 3.19427 3.35592 3.27609
# Velocity P-wave (km/s) = 5.88647 6.70708 6.31013
#
# Compressibility (1/GPa) = 0.02378973
#
# Stress axis : x y z
#
# Youngs Moduli (GPa) = 47.06691 47.06691 69.53169
#
# Poissons Ratio (x) = -0.07953 0.63386
# Poissons Ratio (y) = -0.07953 0.63386
# Poissons Ratio (z) = 0.42907 0.42907
#
# Static dielectric constant tensor:
#      x y z
#    x 1.719800 0.000000 0.000000 
#    y 0.000000 1.719800 0.000000 
#    z 0.000000 0.000000 1.856620 
# 
# From -- ./inp_files/6576.got.cif
#   From: 2010.05.17/outbox.cif.g08.bks.cpg/sg87_4_cif.got.tgz:6576.got - 2010.06.03 19:07:00.
