data_PCOD9545473
_publ_section_title
;
Structure prediction by ZEFSAII (Michael W. Deem and Ramdas Pophale) SiO2 
 PCOD9545473
Probable space group: P 42/N
;
_chemical_formula_sum "Si O2"
_cell_formula_units_Z 54
_cell_length_a 15.000000
_cell_length_b 15.000000
_cell_length_c 12.000000
_cell_angle_alpha 90.000000
_cell_angle_beta 90.000000
_cell_angle_gamma 90.000000
_cell_volume 2700.000000
_symmetry_space_group_name_H-M "P 42/N"
_symmetry_group_IT_number 86
_space_group.IT_coordinate_system_code '2'
_symmetry_cell_setting 'tetragonal'
loop_
_space_group_symop_operation_xyz
x,y,z
-y,1/2+x,1/2+z
1/2-x,1/2-y,z
1/2+y,-x,1/2+z
-x,-y,-z
y,1/2-x,1/2-z
1/2+x,1/2+y,-z
1/2-y,x,1/2-z
loop_
_atom_site_type_symbol
_atom_site_label
_atom_site_fract_x
_atom_site_fract_y
_atom_site_fract_z
Si Si1 0.050049 0.538972 0.746166
Si Si2 0.765931 0.077095 0.664876
Si Si3 0.250000 0.250000 0.750000
Si Si4 0.250000 0.750000 0.207653
Si Si5 0.651006 0.581407 0.358541
Si Si6 0.841304 0.714314 0.928226
Si Si7 0.420816 0.344050 0.225514
Si Si8 0.566176 0.288355 0.907846
O O1 0.074909 0.627020 0.819338
O O2 0.065760 0.446745 0.810923
O O3 0.113746 0.539531 0.637252
O O4 0.945560 0.549154 0.720437
O O5 0.729138 0.168576 0.711740
O O6 0.732442 0.063260 0.539138
O O7 0.723698 0.001945 0.745152
O O8 0.331156 0.197024 0.808140
O O9 0.333516 0.726218 0.132165
O O10 0.653507 0.602051 0.490111
O O11 0.717009 0.497582 0.345840
O O12 0.750000 0.750000 0.978398
O O13 0.830471 0.655363 0.817597
O O14 0.885231 0.807034 0.891374
#
# Coordination Sequence:
#
# PCOD9545473 Si02
#       8
#     8   8   2   4   8   8   8   8
#     4  11  25  41  68  96 132 173 223 274 330 396
#     4  11  23  43  64  97 129 173 224 274 331 400
#     4  12  24  44  68  98 140 172 208 276 336 398
#     4  10  24  42  64  88 134 172 214 274 326 396
#     4  12  24  43  68  99 130 173 218 274 335 399
#     4  12  22  39  69  97 133 168 217 278 338 387
#     4  12  21  42  64  95 133 170 221 276 328 392
#     4  11  23  43  65  94 131 171 220 270 326 394
#
# _framework density 20.0
#
# number of rings (size 3 to 8) (size 9 to 14) (size 15 to 20)
#    0.000    0.593    6.667    1.333    0.000    4.148 
#    0.000    4.444    0.000    0.000    0.000    0.000 
#    0.000    0.000    0.000    0.000    0.000    0.000 
#
# Total GULP energy -301086.706653 kJ/mol
# GULP energy per Si atom -5575.679753 kJ/mol
# Density = 1.995448 g / cm^3
# Si number density = 20.000000 Si / 1000 Ang^3
#
#
#
# Elastic Constant Matrix: (Units=GPa)
#
#
# Indices 1 2 3 4 5 6 
#
# 1 115.9970 11.6019 39.1246 0.0000 0.0000 -3.4412
# 2 11.6019 115.9970 39.1246 0.0000 0.0000 3.4412
# 3 39.1246 39.1246 84.3265 0.0000 0.0000 0.0000
# 4 0.0000 0.0000 0.0000 14.8072 0.0000 0.0000
# 5 0.0000 0.0000 0.0000 0.0000 14.8072 0.0000
# 6 -3.4412 3.4412 0.0000 0.0000 0.0000 34.0404
#
#
#
# Elastic Compliance Matrix: (Units=1/GPa)
#
#
# Indices 1 2 3 4 5 6 
#
# 1 0.010298 0.000655 -0.005082 0.000000 0.000000 0.000975
# 2 0.000655 0.010298 -0.005082 0.000000 0.000000 -0.000975
# 3 -0.005082 -0.005082 0.016575 0.000000 0.000000 0.000000
# 4 0.000000 0.000000 0.000000 0.067535 0.000000 0.000000
# 5 0.000000 0.000000 0.000000 0.000000 0.067535 0.000000
# 6 0.000975 -0.000975 0.000000 0.000000 0.000000 0.029574
#
#
# Mechanical properties :
#
#
# Convention : Reuss Voigt Hill
#
# Bulk Modulus (GPa) = 55.08629 55.11365 55.09997
# Shear Modulus (GPa) = 22.03765 27.82891 24.93328
#
# Velocity S-wave (km/s) = 3.32306 3.73426 3.53464
# Velocity P-wave (km/s) = 6.50589 6.79776 6.65343
#
# Compressibility (1/GPa) = 0.01815334
#
# Stress axis : x y z
#
# Youngs Moduli (GPa) = 97.10203 97.10203 60.33351
#
# Poissons Ratio (x) = -0.06362 0.30662
# Poissons Ratio (y) = -0.06362 0.30662
# Poissons Ratio (z) = 0.49348 0.49348
#
# Static dielectric constant tensor:
#      x y z
#    x 1.758200 0.000000 0.000000 
#    y 0.000000 1.758200 0.000000 
#    z 0.000000 0.000000 1.725000 
# 
# From -- ./inp_files/2408.got.cif
#   From: 2010.05.17/outbox.ucp.g08.bks.cvg/sg86_2_cif.got.tgz:2408.got - 2010.06.11 10:35:13.
