data_PCOD9545195
_publ_section_title
;
Structure prediction by ZEFSAII (Michael W. Deem and Ramdas Pophale) SiO2 
 PCOD9545195
Probable space group: P 42/N
;
_chemical_formula_sum "Si O2"
_cell_formula_units_Z 38
_cell_length_a 14.895839
_cell_length_b 14.895839
_cell_length_c 7.993781
_cell_angle_alpha 90.000000
_cell_angle_beta 90.000000
_cell_angle_gamma 90.000000
_cell_volume 1773.708247
_symmetry_space_group_name_H-M "P 42/N"
_symmetry_group_IT_number 86
_space_group.IT_coordinate_system_code '2'
_symmetry_cell_setting 'tetragonal'
loop_
_space_group_symop_operation_xyz
x,y,z
-y,1/2+x,1/2+z
1/2-x,1/2-y,z
1/2+y,-x,1/2+z
-x,-y,-z
y,1/2-x,1/2-z
1/2+x,1/2+y,-z
1/2-y,x,1/2-z
loop_
_atom_site_type_symbol
_atom_site_label
_atom_site_fract_x
_atom_site_fract_y
_atom_site_fract_z
Si Si1 0.750000 0.250000 0.214767
Si Si2 0.604742 0.291899 0.969981
Si Si3 0.501895 0.104574 0.547802
Si Si4 0.684015 0.564706 0.400111
Si Si5 0.620441 0.827141 0.747686
Si Si6 0.250000 0.250000 0.750000
O O1 0.750238 0.160101 0.319434
O O2 0.654828 0.243558 0.122084
O O3 0.627977 0.395348 0.003050
O O4 0.502436 0.267302 0.935257
O O5 0.435527 0.153341 0.418603
O O6 0.500000 0.000000 0.500000
O O7 0.870915 0.972866 0.238799
O O8 0.636918 0.573269 0.581907
O O9 0.717369 0.664702 0.356328
O O10 0.719846 0.868125 0.735291
#
# Coordination Sequence:
#
# PCOD9545195 Si02
#       6
#     4   8   8   8   8   2
#     4  10  22  42  70  92 140 182 242 290 354 424
#     4  11  22  43  66  99 135 187 232 297 356 423
#     4  12  26  43  68 106 141 180 241 298 353 436
#     4  12  24  45  71 100 144 186 237 296 364 427
#     4  11  24  44  69  98 135 182 235 291 361 433
#     4  12  24  44  74 100 140 194 224 296 366 428
#
# _framework density 21.424043000000001
#
# number of rings (size 3 to 8) (size 9 to 14) (size 15 to 20)
#    0.000    0.632    2.105    7.579    0.000    0.842 
#    0.000    0.000    0.000    0.000    0.000    0.000 
#    0.000    0.000    0.000    0.000    0.000    0.000 
#
# Total GULP energy -212113.591665 kJ/mol
# GULP energy per Si atom -5581.936623 kJ/mol
# Density = 2.137528 g / cm^3
# Si number density = 21.424043 Si / 1000 Ang^3
#
#
#
# Elastic Constant Matrix: (Units=GPa)
#
#
# Indices 1 2 3 4 5 6 
#
# 1 81.3619 0.8028 33.9898 0.0000 0.0000 -0.9132
# 2 0.8028 81.3619 33.9898 0.0000 0.0000 0.9132
# 3 33.9898 33.9898 155.4629 0.0000 0.0000 0.0000
# 4 0.0000 0.0000 0.0000 40.7168 0.0000 0.0000
# 5 0.0000 0.0000 0.0000 0.0000 40.7168 0.0000
# 6 -0.9132 0.9132 0.0000 0.0000 0.0000 24.0564
#
#
#
# Elastic Compliance Matrix: (Units=1/GPa)
#
#
# Indices 1 2 3 4 5 6 
#
# 1 0.013641 0.001217 -0.003249 0.000000 0.000000 0.000472
# 2 0.001217 0.013641 -0.003249 0.000000 0.000000 -0.000472
# 3 -0.003249 -0.003249 0.007853 0.000000 0.000000 0.000000
# 4 0.000000 0.000000 0.000000 0.024560 0.000000 0.000000
# 5 0.000000 0.000000 0.000000 0.000000 0.024560 0.000000
# 6 0.000472 -0.000472 0.000000 0.000000 0.000000 0.041605
#
#
# Mechanical properties :
#
#
# Convention : Reuss Voigt Hill
#
# Bulk Modulus (GPa) = 40.69108 50.63907 45.66507
# Shear Modulus (GPa) = 34.57540 37.72496 36.15018
#
# Velocity S-wave (km/s) = 4.02165 4.20082 4.11221
# Velocity P-wave (km/s) = 6.37175 6.87147 6.62633
#
# Compressibility (1/GPa) = 0.02457541
#
# Stress axis : x y z
#
# Youngs Moduli (GPa) = 73.30740 73.30740 127.34113
#
# Poissons Ratio (x) = -0.08923 0.41368
# Poissons Ratio (y) = -0.08923 0.41368
# Poissons Ratio (z) = 0.23815 0.23815
#
# Static dielectric constant tensor:
#      x y z
#    x 1.842110 0.000000 0.000000 
#    y 0.000000 1.842110 0.000000 
#    z 0.000000 0.000000 1.829770 
# 
# From -- ./inp_files/1086.got.cif
#   From: 2010.05.17/outbox.cif.g08.bks.cpg/sg86_1_cif.got.tgz:1086.got - 2010.06.03 19:03:11.
