data_PCOD9545930
_publ_section_title
;
Structure prediction by ZEFSAII (Michael W. Deem and Ramdas Pophale) SiO2 
 PCOD9545930
Probable space group: I 4/M
;
_chemical_formula_sum "Si O2"
_cell_formula_units_Z 56
_cell_length_a 12.108210
_cell_length_b 12.108210
_cell_length_c 18.225643
_cell_angle_alpha 90.000000
_cell_angle_beta 90.000000
_cell_angle_gamma 90.000000
_cell_volume 2672.038727
_symmetry_space_group_name_H-M "I 4/M"
_symmetry_group_IT_number 87
_symmetry_cell_setting 'tetragonal'
loop_
_space_group_symop_operation_xyz
x,y,z
-y,x,z
-x,-y,z
y,-x,z
-x,-y,-z
y,-x,-z
x,y,-z
-y,x,-z
1/2+x,1/2+y,1/2+z
1/2-y,1/2+x,1/2+z
1/2-x,1/2-y,1/2+z
1/2+y,1/2-x,1/2+z
1/2-x,1/2-y,1/2-z
1/2+y,1/2-x,1/2-z
1/2+x,1/2+y,1/2-z
1/2-y,1/2+x,1/2-z
loop_
_atom_site_type_symbol
_atom_site_label
_atom_site_fract_x
_atom_site_fract_y
_atom_site_fract_z
Si Si1 0.172572 0.061339 0.326237
Si Si2 0.860132 0.120251 0.000000
Si Si3 0.626968 0.840708 0.583000
Si Si4 0.533247 0.160472 0.285334
O O1 0.271441 0.098141 0.379226
O O2 0.221920 0.073074 0.243908
O O3 0.064477 0.134957 0.337386
O O4 0.788272 0.158815 0.930403
O O5 0.986964 0.149699 0.000000
O O6 0.606217 0.881629 0.500000
O O7 0.520281 0.845976 0.634898
O O8 0.431938 0.124701 0.230880
#
# Coordination Sequence:
#
# PCOD9545930 Si02
#       4
#    16   8  16  16
#     4  10  22  39  61  88 122 169 215 255 301 365
#     4   9  20  38  60  91 126 154 194 250 312 371
#     4   9  21  39  61  91 125 165 201 257 318 369
#     4   9  19  38  61  88 123 160 210 260 309 371
#
# _framework density 20.957778999999999
#
# number of rings (size 3 to 8) (size 9 to 14) (size 15 to 20)
#    0.857    1.857    0.000    0.000    0.000   10.286 
#    0.000   15.714    0.000    0.000    0.000    0.000 
#    0.000    0.000    0.000    0.000    0.000    0.000 
#
# Total GULP energy -156116.499215 kJ/mol
# GULP energy per Si atom -5575.589258 kJ/mol
# Density = 2.091008 g / cm^3
# Si number density = 20.957779 Si / 1000 Ang^3
#
#
#
# Elastic Constant Matrix: (Units=GPa)
#
#
# Indices 1 2 3 4 5 6 
#
# 1 82.5655 30.7366 46.6675 0.0000 0.0000 -5.2078
# 2 30.7366 82.5655 46.6674 0.0000 0.0000 5.2078
# 3 46.6675 46.6674 133.4972 0.0000 0.0000 0.0000
# 4 0.0000 0.0000 0.0000 24.2160 0.0000 0.0000
# 5 0.0000 0.0000 0.0000 0.0000 24.2160 0.0000
# 6 -5.2078 5.2078 0.0000 0.0000 0.0000 14.3764
#
#
#
# Elastic Compliance Matrix: (Units=1/GPa)
#
#
# Indices 1 2 3 4 5 6 
#
# 1 0.016602 -0.004207 -0.004333 0.000000 0.000000 0.007538
# 2 -0.004207 0.016602 -0.004333 0.000000 0.000000 -0.007538
# 3 -0.004333 -0.004333 0.010520 0.000000 0.000000 0.000000
# 4 0.000000 0.000000 0.000000 0.041295 0.000000 0.000000
# 5 0.000000 0.000000 0.000000 0.000000 0.041295 0.000000
# 6 0.007538 -0.007538 0.000000 0.000000 0.000000 0.075020
#
#
# Mechanical properties :
#
#
# Convention : Reuss Voigt Hill
#
# Bulk Modulus (GPa) = 55.62154 60.75237 58.18695
# Shear Modulus (GPa) = 21.45243 24.19880 22.82561
#
# Velocity S-wave (km/s) = 3.20285 3.40169 3.30377
# Velocity P-wave (km/s) = 6.34627 6.66930 6.50979
#
# Compressibility (1/GPa) = 0.01797865
#
# Stress axis : x y z
#
# Youngs Moduli (GPa) = 60.23264 60.23265 95.05401
#
# Poissons Ratio (x) = 0.25339 0.41188
# Poissons Ratio (y) = 0.25339 0.41188
# Poissons Ratio (z) = 0.26100 0.26100
#
# Static dielectric constant tensor:
#      x y z
#    x 1.778650 0.000000 0.000000 
#    y 0.000000 1.778650 0.000000 
#    z 0.000000 0.000000 1.762390 
# 
# From -- ./inp_files/4887.got.cif
#   From: 2010.05.17/outbox.cif.g08.bks.cpg/sg87_3_cif.got.tgz:4887.got - 2010.06.03 19:07:00.
