data_PCOD9545893
_publ_section_title
;
Structure prediction by ZEFSAII (Michael W. Deem and Ramdas Pophale) SiO2 
 PCOD9545893
Probable space group: I 4/M
;
_chemical_formula_sum "Si O2"
_cell_formula_units_Z 88
_cell_length_a 12.248480
_cell_length_b 12.248480
_cell_length_c 26.524216
_cell_angle_alpha 90.000000
_cell_angle_beta 90.000000
_cell_angle_gamma 90.000000
_cell_volume 3979.302463
_symmetry_space_group_name_H-M "I 4/M"
_symmetry_group_IT_number 87
_symmetry_cell_setting 'tetragonal'
loop_
_space_group_symop_operation_xyz
x,y,z
-y,x,z
-x,-y,z
y,-x,z
-x,-y,-z
y,-x,-z
x,y,-z
-y,x,-z
1/2+x,1/2+y,1/2+z
1/2-y,1/2+x,1/2+z
1/2-x,1/2-y,1/2+z
1/2+y,1/2-x,1/2+z
1/2-x,1/2-y,1/2-z
1/2+y,1/2-x,1/2-z
1/2+x,1/2+y,1/2-z
1/2-y,1/2+x,1/2-z
loop_
_atom_site_type_symbol
_atom_site_label
_atom_site_fract_x
_atom_site_fract_y
_atom_site_fract_z
Si Si1 0.500027 0.180440 0.257761
Si Si2 0.771053 0.426021 0.154980
Si Si3 0.249460 0.359574 0.104933
Si Si4 0.968705 0.179757 0.859313
Si Si5 0.888244 0.506390 0.601456
Si Si6 0.144236 0.116368 0.500000
O O1 0.598822 0.103874 0.237492
O O2 0.463821 0.253964 0.211011
O O3 0.529530 0.250959 0.306776
O O4 0.722177 0.309252 0.142583
O O5 0.718545 0.516004 0.118628
O O6 0.902115 0.428118 0.142825
O O7 0.119577 0.358792 0.111384
O O8 0.293253 0.339461 0.049088
O O9 0.950078 0.265327 0.905460
O O10 0.085304 0.120185 0.860991
O O11 0.000000 0.500000 0.568468
O O12 0.016421 0.148445 0.500000
#
# Coordination Sequence:
#
# PCOD9545893 Si02
#       6
#    16  16  16  16  16   8
#     4  11  23  39  60  88 128 175 220 265 314 368
#     4  11  23  39  60  95 123 169 216 256 320 375
#     4  11  23  40  68  92 124 165 204 264 321 398
#     4  11  24  40  58  87 124 171 220 265 310 368
#     4  10  21  41  61  87 124 161 212 254 307 371
#     4  11  22  44  67  99 133 156 199 260 351 401
#
# _framework density 22.114429000000001
#
# number of rings (size 3 to 8) (size 9 to 14) (size 15 to 20)
#    0.000    1.182    3.636    3.273    5.091    1.091 
#    0.000    5.000    0.000    0.000    0.000    0.000 
#    0.000    4.364    0.000    0.000    0.000    0.000 
#
# Total GULP energy -244991.830542 kJ/mol
# GULP energy per Si atom -5567.996149 kJ/mol
# Density = 2.206410 g / cm^3
# Si number density = 22.114429 Si / 1000 Ang^3
#
#
#
# Elastic Constant Matrix: (Units=GPa)
#
#
# Indices 1 2 3 4 5 6 
#
# 1 95.8930 16.4837 8.6733 0.0000 0.0000 -6.2655
# 2 16.4837 95.8930 8.6733 0.0000 0.0000 6.2655
# 3 8.6733 8.6733 63.1218 0.0000 0.0000 0.0000
# 4 0.0000 0.0000 0.0000 10.8698 0.0000 0.0000
# 5 0.0000 0.0000 0.0000 0.0000 10.8698 0.0000
# 6 -6.2655 6.2655 0.0000 0.0000 0.0000 38.5025
#
#
#
# Elastic Compliance Matrix: (Units=1/GPa)
#
#
# Indices 1 2 3 4 5 6 
#
# 1 0.011008 -0.001917 -0.001249 0.000000 0.000000 0.002103
# 2 -0.001917 0.011008 -0.001249 0.000000 0.000000 -0.002103
# 3 -0.001249 -0.001249 0.016186 0.000000 0.000000 0.000000
# 4 0.000000 0.000000 0.000000 0.091998 0.000000 0.000000
# 5 0.000000 0.000000 0.000000 0.000000 0.091998 0.000000
# 6 0.002103 -0.002103 0.000000 0.000000 0.000000 0.026657
#
#
# Mechanical properties :
#
#
# Convention : Reuss Voigt Hill
#
# Bulk Modulus (GPa) = 34.04631 35.84092 34.94361
# Shear Modulus (GPa) = 18.69330 26.78694 22.74012
#
# Velocity S-wave (km/s) = 2.91056 3.48413 3.21018
# Velocity P-wave (km/s) = 5.16953 5.69454 5.43837
#
# Compressibility (1/GPa) = 0.02937176
#
# Stress axis : x y z
#
# Youngs Moduli (GPa) = 90.84155 90.84155 61.78302
#
# Poissons Ratio (x) = 0.17412 0.07718
# Poissons Ratio (y) = 0.17412 0.07718
# Poissons Ratio (z) = 0.11348 0.11348
#
# Static dielectric constant tensor:
#      x y z
#    x 1.865220 0.000000 0.000000 
#    y 0.000000 1.865220 0.000000 
#    z 0.000000 0.000000 1.814990 
# 
# From -- ./inp_files/6567.got.cif
#   From: 2010.05.17/outbox.cif.g08.bks.cpg/sg87_4_cif.got.tgz:6567.got - 2010.06.03 19:07:00.
