data_PCOD9545513
_publ_section_title
;
Structure prediction by ZEFSAII (Michael W. Deem and Ramdas Pophale) SiO2 
 PCOD9545513
Probable space group: I 4/M
;
_chemical_formula_sum "Si O2"
_cell_formula_units_Z 120
_cell_length_a 16.383937
_cell_length_b 16.383937
_cell_length_c 22.955068
_cell_angle_alpha 90.000000
_cell_angle_beta 90.000000
_cell_angle_gamma 90.000000
_cell_volume 6161.906758
_symmetry_space_group_name_H-M "I 4/M"
_symmetry_group_IT_number 87
_symmetry_cell_setting 'tetragonal'
loop_
_space_group_symop_operation_xyz
x,y,z
-y,x,z
-x,-y,z
y,-x,z
-x,-y,-z
y,-x,-z
x,y,-z
-y,x,-z
1/2+x,1/2+y,1/2+z
1/2-y,1/2+x,1/2+z
1/2-x,1/2-y,1/2+z
1/2+y,1/2-x,1/2+z
1/2-x,1/2-y,1/2-z
1/2+y,1/2-x,1/2-z
1/2+x,1/2+y,1/2-z
1/2-y,1/2+x,1/2-z
loop_
_atom_site_type_symbol
_atom_site_label
_atom_site_fract_x
_atom_site_fract_y
_atom_site_fract_z
Si Si1 0.133104 0.522983 0.755119
Si Si2 0.375551 0.195986 0.567760
Si Si3 0.202167 0.581757 0.130233
Si Si4 0.827091 0.192304 0.702091
Si Si5 0.752733 0.133415 0.190138
Si Si6 0.272943 0.424975 0.901180
Si Si7 0.464176 0.913258 0.568421
Si Si8 0.392515 0.416701 0.000000
O O1 0.090503 0.438382 0.740886
O O2 0.172032 0.521478 0.818488
O O3 0.200644 0.554867 0.710091
O O4 0.364282 0.221543 0.500000
O O5 0.367704 0.261477 0.620370
O O6 0.307815 0.127474 0.583829
O O7 0.463557 0.152328 0.572765
O O8 0.256873 0.649189 0.162353
O O9 0.252296 0.519809 0.089793
O O10 0.119804 0.611554 0.099370
O O11 0.826933 0.148165 0.764733
O O12 0.802198 0.287205 0.706616
O O13 0.907845 0.192562 0.663379
O O14 0.341682 0.391553 0.944001
O O15 0.446042 0.926322 0.500000
O O16 0.500000 0.000000 0.591753
O O17 0.485198 0.391912 0.000000
#
# Coordination Sequence:
#
# PCOD9545513 Si02
#       8
#    16  16  16  16  16  16  16   8
#     4  10  19  28  46  76 102 134 168 212 267 316
#     4  10  18  31  52  77 103 139 172 207 258 323
#     4  11  21  32  51  71 102 136 177 223 266 315
#     4   9  20  35  49  71  94 137 176 219 271 310
#     4   9  18  34  49  67 107 135 172 218 255 318
#     4  11  20  35  53  73  97 135 183 225 262 319
#     4  10  20  31  47  76 108 138 167 210 262 317
#     4  11  24  38  52  73 102 136 180 239 274 296
#
# _framework density 19.474491
#
# number of rings (size 3 to 8) (size 9 to 14) (size 15 to 20)
#    0.000    1.933    2.000    3.200    2.800    0.000 
#    1.200    0.000    0.000    0.000    0.000    0.000 
#    0.000    0.000    0.000    0.000    0.000   14.800 
#
# Total GULP energy -334519.599870 kJ/mol
# GULP energy per Si atom -5575.326664 kJ/mol
# Density = 1.943017 g / cm^3
# Si number density = 19.474491 Si / 1000 Ang^3
#
#
#
# Elastic Constant Matrix: (Units=GPa)
#
#
# Indices 1 2 3 4 5 6 
#
# 1 44.5734 20.0739 21.7608 0.0000 0.0000 -3.5091
# 2 20.0739 44.5734 21.7608 0.0000 0.0000 3.5091
# 3 21.7608 21.7608 121.7987 0.0000 0.0000 0.0000
# 4 0.0000 0.0000 0.0000 17.2455 0.0000 0.0000
# 5 0.0000 0.0000 0.0000 0.0000 17.2455 0.0000
# 6 -3.5091 3.5091 0.0000 0.0000 0.0000 24.8082
#
#
#
# Elastic Compliance Matrix: (Units=1/GPa)
#
#
# Indices 1 2 3 4 5 6 
#
# 1 0.030062 -0.012479 -0.003142 0.000000 0.000000 0.006017
# 2 -0.012479 0.030062 -0.003142 0.000000 0.000000 -0.006017
# 3 -0.003142 -0.003142 0.009333 0.000000 0.000000 0.000000
# 4 0.000000 0.000000 0.000000 0.057986 0.000000 0.000000
# 5 0.000000 0.000000 0.000000 0.000000 0.057986 0.000000
# 6 0.006017 -0.006017 0.000000 0.000000 0.000000 0.042012
#
#
# Mechanical properties :
#
#
# Convention : Reuss Voigt Hill
#
# Bulk Modulus (GPa) = 31.31486 37.57074 34.44280
# Shear Modulus (GPa) = 18.14163 21.68316 19.91240
#
# Velocity S-wave (km/s) = 3.05546 3.34040 3.20110
# Velocity P-wave (km/s) = 5.34440 5.84909 5.60243
#
# Compressibility (1/GPa) = 0.03193372
#
# Stress axis : x y z
#
# Youngs Moduli (GPa) = 33.26441 33.26440 107.14893
#
# Poissons Ratio (x) = 0.41510 0.33661
# Poissons Ratio (y) = 0.41510 0.33661
# Poissons Ratio (z) = 0.10450 0.10450
#
# Static dielectric constant tensor:
#      x y z
#    x 1.669470 0.000000 0.000000 
#    y 0.000000 1.669470 0.000000 
#    z 0.000000 0.000000 1.766860 
# 
# From -- ./inp_files/5538.got.cif
#   From: 2010.05.17/outbox.cif.g08.bks.cpg/sg87_3_cif.got.tgz:5538.got - 2010.06.03 19:07:00.
