data_PCOD9545404
_publ_section_title
;
Structure prediction by ZEFSAII (Michael W. Deem and Ramdas Pophale) SiO2 
 PCOD9545404
Probable space group: P 42/N
;
_chemical_formula_sum "Si O2"
_cell_formula_units_Z 42
_cell_length_a 14.495919
_cell_length_b 14.495919
_cell_length_c 8.312401
_cell_angle_alpha 90.000000
_cell_angle_beta 90.000000
_cell_angle_gamma 90.000000
_cell_volume 1746.698684
_symmetry_space_group_name_H-M "P 42/N"
_symmetry_group_IT_number 86
_space_group.IT_coordinate_system_code '2'
_symmetry_cell_setting 'tetragonal'
loop_
_space_group_symop_operation_xyz
x,y,z
-y,1/2+x,1/2+z
1/2-x,1/2-y,z
1/2+y,-x,1/2+z
-x,-y,-z
y,1/2-x,1/2-z
1/2+x,1/2+y,-z
1/2-y,x,1/2-z
loop_
_atom_site_type_symbol
_atom_site_label
_atom_site_fract_x
_atom_site_fract_y
_atom_site_fract_z
Si Si1 0.567477 0.776913 0.107668
Si Si2 0.187920 0.619731 0.210014
Si Si3 0.529662 0.133331 0.167957
Si Si4 0.588309 0.964059 0.597517
Si Si5 0.281203 0.927326 0.842694
Si Si6 0.750000 0.750000 0.250000
O O1 0.519218 0.767808 0.280714
O O2 0.673311 0.795159 0.138278
O O3 0.518192 0.855583 0.003155
O O4 0.555802 0.679642 0.009237
O O5 0.276475 0.593826 0.315434
O O6 0.115467 0.543409 0.273465
O O7 0.147738 0.721262 0.241844
O O8 0.220003 0.601048 0.028358
O O9 0.450657 0.122397 0.300620
O O10 0.609911 0.058979 0.191950
O O11 0.500000 0.000000 0.500000
#
# Coordination Sequence:
#
# PCOD9545404 Si02
#       6
#     8   8   8   8   8   2
#     4  11  28  47  72 111 143 204 248 324 381 452
#     4  11  27  41  75 108 153 194 243 324 378 470
#     4  11  25  45  73 107 146 194 247 309 382 454
#     4  11  24  46  72 105 151 195 251 310 385 463
#     4  12  24  45  73 112 149 191 253 308 399 450
#     4  12  32  48  78 100 156 188 274 312 368 468
#
# _framework density 24.045362000000001
#
# number of rings (size 3 to 8) (size 9 to 14) (size 15 to 20)
#    0.000    0.762    3.810    1.714   10.667    3.810 
#    0.000    0.000    0.000    0.000    0.000    0.000 
#    0.000    0.000    0.000    0.000    0.000    0.000 
#
# Total GULP energy -234711.732142 kJ/mol
# GULP energy per Si atom -5588.374575 kJ/mol
# Density = 2.399063 g / cm^3
# Si number density = 24.045362 Si / 1000 Ang^3
#
#
#
# Elastic Constant Matrix: (Units=GPa)
#
#
# Indices 1 2 3 4 5 6 
#
# 1 76.2605 -0.1545 19.7607 0.0000 0.0000 5.1343
# 2 -0.1545 76.2605 19.7607 0.0000 0.0000 -5.1343
# 3 19.7607 19.7607 119.7771 0.0000 0.0000 0.0000
# 4 0.0000 0.0000 0.0000 38.9461 0.0000 0.0000
# 5 0.0000 0.0000 0.0000 0.0000 38.9461 0.0000
# 6 5.1343 -5.1343 0.0000 0.0000 0.0000 29.3768
#
#
#
# Elastic Compliance Matrix: (Units=1/GPa)
#
#
# Indices 1 2 3 4 5 6 
#
# 1 0.013886 0.000485 -0.002371 0.000000 0.000000 -0.002342
# 2 0.000485 0.013886 -0.002371 0.000000 0.000000 0.002342
# 3 -0.002371 -0.002371 0.009131 0.000000 0.000000 0.000000
# 4 0.000000 0.000000 0.000000 0.025677 0.000000 0.000000
# 5 0.000000 0.000000 0.000000 0.000000 0.025677 0.000000
# 6 -0.002342 0.002342 0.000000 0.000000 0.000000 0.034859
#
#
# Mechanical properties :
#
#
# Convention : Reuss Voigt Hill
#
# Bulk Modulus (GPa) = 35.22471 39.00354 37.11413
# Shear Modulus (GPa) = 35.43780 36.98254 36.21017
#
# Velocity S-wave (km/s) = 3.84316 3.92603 3.88482
# Velocity P-wave (km/s) = 5.86296 6.06693 5.96582
#
# Compressibility (1/GPa) = 0.02838916
#
# Stress axis : x y z
#
# Youngs Moduli (GPa) = 72.01511 72.01511 109.51545
#
# Poissons Ratio (x) = -0.03491 0.25965
# Poissons Ratio (y) = -0.03491 0.25965
# Poissons Ratio (z) = 0.17074 0.17074
#
# Static dielectric constant tensor:
#      x y z
#    x 1.968230 0.000000 0.000000 
#    y 0.000000 1.968230 0.000000 
#    z 0.000000 0.000000 1.945570 
# 
# From -- ./inp_files/1181.got.cif
#   From: 2010.05.17/outbox.cif.g08.bks.cpg/sg86_1_cif.got.tgz:1181.got - 2010.06.03 19:03:11.
