data_PCOD9545003
_publ_section_title
;
Structure prediction by ZEFSAII (Michael W. Deem and Ramdas Pophale) SiO2 
 PCOD9545003
Probable space group: P 42/N
;
_chemical_formula_sum "Si O2"
_cell_formula_units_Z 40
_cell_length_a 10.448804
_cell_length_b 10.448804
_cell_length_c 14.769909
_cell_angle_alpha 90.000000
_cell_angle_beta 90.000000
_cell_angle_gamma 90.000000
_cell_volume 1612.541814
_symmetry_space_group_name_H-M "P 42/N"
_symmetry_group_IT_number 86
_space_group.IT_coordinate_system_code '2'
_symmetry_cell_setting 'tetragonal'
loop_
_space_group_symop_operation_xyz
x,y,z
-y,1/2+x,1/2+z
1/2-x,1/2-y,z
1/2+y,-x,1/2+z
-x,-y,-z
y,1/2-x,1/2-z
1/2+x,1/2+y,-z
1/2-y,x,1/2-z
loop_
_atom_site_type_symbol
_atom_site_label
_atom_site_fract_x
_atom_site_fract_y
_atom_site_fract_z
Si Si1 0.873163 0.583337 0.724987
Si Si2 0.630183 0.085785 0.000641
Si Si3 0.257135 0.023726 0.623994
Si Si4 0.616585 0.998692 0.185604
Si Si5 0.162711 0.122031 0.033531
O O1 0.728582 0.578769 0.758150
O O2 0.879595 0.565449 0.617670
O O3 0.967915 0.500844 0.784750
O O4 0.649035 0.101816 0.108528
O O5 0.746526 0.000779 0.965315
O O6 0.592009 0.203314 0.937598
O O7 0.500000 0.000000 0.000000
O O8 0.142604 0.126661 0.642027
O O9 0.307615 0.985280 0.721906
O O10 0.361886 0.091402 0.561222
O O11 0.250000 0.250000 0.047903
#
# Coordination Sequence:
#
# PCOD9545003 Si02
#       5
#     8   8   8   8   8
#     4  11  22  38  65  94 126 176 233 286 334 426
#     4  10  20  37  63  97 134 172 228 295 349 414
#     4  11  24  39  68 100 140 182 231 298 355 427
#     4  11  23  40  64 100 134 177 231 284 360 426
#     4  12  20  38  66  95 128 174 229 286 353 417
#
# _framework density 24.805558999999999
#
# number of rings (size 3 to 8) (size 9 to 14) (size 15 to 20)
#    0.000    1.000    6.000    4.800    0.000    0.800 
#    0.000    4.000    0.000    4.800    0.000    0.000 
#    0.000    0.000    0.000    0.000    0.000    0.000 
#
# Total GULP energy -223985.703915 kJ/mol
# GULP energy per Si atom -5599.642598 kJ/mol
# Density = 2.474910 g / cm^3
# Si number density = 24.805559 Si / 1000 Ang^3
#
#
#
# Elastic Constant Matrix: (Units=GPa)
#
#
# Indices 1 2 3 4 5 6 
#
# 1 47.5119 41.4273 29.2291 0.0000 0.0000 -4.1533
# 2 41.4273 47.5119 29.2291 0.0000 0.0000 4.1533
# 3 29.2291 29.2291 216.3767 0.0000 0.0000 0.0000
# 4 0.0000 0.0000 0.0000 39.0636 0.0000 0.0000
# 5 0.0000 0.0000 0.0000 0.0000 39.0636 0.0000
# 6 -4.1533 4.1533 0.0000 0.0000 0.0000 41.0302
#
#
#
# Elastic Compliance Matrix: (Units=1/GPa)
#
#
# Indices 1 2 3 4 5 6 
#
# 1 0.101521 -0.089182 -0.001667 0.000000 0.000000 0.019304
# 2 -0.089182 0.101521 -0.001667 0.000000 0.000000 -0.019304
# 3 -0.001667 -0.001667 0.005072 0.000000 0.000000 0.000000
# 4 0.000000 0.000000 0.000000 0.025599 0.000000 0.000000
# 5 0.000000 0.000000 0.000000 0.000000 0.025599 0.000000
# 6 0.019304 -0.019304 0.000000 0.000000 0.000000 0.028280
#
#
# Mechanical properties :
#
#
# Convention : Reuss Voigt Hill
#
# Bulk Modulus (GPa) = 43.32197 56.79684 50.05940
# Shear Modulus (GPa) = 10.40977 37.93247 24.17112
#
# Velocity S-wave (km/s) = 2.05077 3.91473 3.12496
# Velocity P-wave (km/s) = 4.80729 6.58635 5.76585
#
# Compressibility (1/GPa) = 0.02308298
#
# Stress axis : x y z
#
# Youngs Moduli (GPa) = 9.85018 9.85018 197.16491
#
# Poissons Ratio (x) = 0.87846 0.32864
# Poissons Ratio (y) = 0.87846 0.32864
# Poissons Ratio (z) = 0.01642 0.01642
#
# Static dielectric constant tensor:
#      x y z
#    x 1.985810 0.000000 0.000000 
#    y 0.000000 1.985810 0.000000 
#    z 0.000000 0.000000 2.002700 
# 
# From -- ./inp_files/2856.got.cif
#   From: 2010.05.17/outbox.cif.g08.bks.cpg/sg86_2_cif.got.tgz:2856.got - 2010.06.03 19:03:11.
