data_PCOD9545680
_publ_section_title
;
Structure prediction by ZEFSAII (Michael W. Deem and Ramdas Pophale) SiO2 
 PCOD9545680
Probable space group: I 4/M
;
_chemical_formula_sum "Si O2"
_cell_formula_units_Z 96
_cell_length_a 23.916505
_cell_length_b 23.916505
_cell_length_c 9.313689
_cell_angle_alpha 90.000000
_cell_angle_beta 90.000000
_cell_angle_gamma 90.000000
_cell_volume 5327.422763
_symmetry_space_group_name_H-M "I 4/M"
_symmetry_group_IT_number 87
_symmetry_cell_setting 'tetragonal'
loop_
_space_group_symop_operation_xyz
x,y,z
-y,x,z
-x,-y,z
y,-x,z
-x,-y,-z
y,-x,-z
x,y,-z
-y,x,-z
1/2+x,1/2+y,1/2+z
1/2-y,1/2+x,1/2+z
1/2-x,1/2-y,1/2+z
1/2+y,1/2-x,1/2+z
1/2-x,1/2-y,1/2-z
1/2+y,1/2-x,1/2-z
1/2+x,1/2+y,1/2-z
1/2-y,1/2+x,1/2-z
loop_
_atom_site_type_symbol
_atom_site_label
_atom_site_fract_x
_atom_site_fract_y
_atom_site_fract_z
Si Si1 0.359292 0.505471 0.164549
Si Si2 0.808536 0.809320 0.835657
Si Si3 0.871405 0.699727 0.828983
Si Si4 0.517212 0.771198 0.166311
Si Si5 0.111758 0.720669 0.671041
Si Si6 0.103786 0.094988 0.162761
O O1 0.295692 0.526174 0.167779
O O2 0.360881 0.444820 0.234541
O O3 0.397198 0.544267 0.263660
O O4 0.378411 0.504917 0.000000
O O5 0.828723 0.749150 0.777847
O O6 0.765052 0.847189 0.747763
O O7 0.865020 0.845902 0.841508
O O8 0.787751 0.802250 0.000000
O O9 0.931498 0.702949 0.754020
O O10 0.839133 0.641521 0.808361
O O11 0.878458 0.709183 0.000000
O O12 0.453146 0.779858 0.219517
O O13 0.519327 0.789953 0.000000
O O14 0.110994 0.733675 0.500000
O O15 0.100716 0.073489 0.000000
#
# Coordination Sequence:
#
# PCOD9545680 Si02
#       6
#    16  16  16  16  16  16
#     4  11  22  37  56  78 106 147 192 231 275 325
#     4  10  20  33  53  83 114 144 179 222 274 329
#     4  10  21  37  57  83 114 146 182 224 272 327
#     4  10  21  36  56  81 110 144 181 223 271 325
#     4  10  21  37  57  83 114 146 182 224 272 327
#     4  11  22  36  55  79 109 144 187 235 276 324
#
# _framework density 18.019970000000001
#
# number of rings (size 3 to 8) (size 9 to 14) (size 15 to 20)
#    0.000    1.667    3.333    1.500    0.000    3.667 
#    0.000    1.667    0.000    0.500    0.000    3.500 
#    0.000    0.000    0.000    0.000    0.000    0.000 
#
# Total GULP energy -267688.602125 kJ/mol
# GULP energy per Si atom -5576.845878 kJ/mol
# Density = 1.797896 g / cm^3
# Si number density = 18.019970 Si / 1000 Ang^3
#
#
#
# Elastic Constant Matrix: (Units=GPa)
#
#
# Indices 1 2 3 4 5 6 
#
# 1 72.6847 39.2847 30.9132 0.0000 0.0000 4.5080
# 2 39.2847 72.6847 30.9132 0.0000 0.0000 -4.5080
# 3 30.9132 30.9132 37.8291 0.0000 0.0000 0.0000
# 4 0.0000 0.0000 0.0000 25.2512 0.0000 0.0000
# 5 0.0000 0.0000 0.0000 0.0000 25.2512 0.0000
# 6 4.5080 -4.5080 0.0000 0.0000 0.0000 23.2996
#
#
#
# Elastic Compliance Matrix: (Units=1/GPa)
#
#
# Indices 1 2 3 4 5 6 
#
# 1 0.023932 -0.007658 -0.013299 0.000000 0.000000 -0.006112
# 2 -0.007658 0.023932 -0.013299 0.000000 0.000000 0.006112
# 3 -0.013299 -0.013299 0.048170 0.000000 0.000000 0.000000
# 4 0.000000 0.000000 0.000000 0.039602 0.000000 0.000000
# 5 0.000000 0.000000 0.000000 0.000000 0.039602 0.000000
# 6 -0.006112 0.006112 0.000000 0.000000 0.000000 0.045284
#
#
# Mechanical properties :
#
#
# Convention : Reuss Voigt Hill
#
# Bulk Modulus (GPa) = 36.33386 42.82455 39.57920
# Shear Modulus (GPa) = 16.76673 20.23289 18.49981
#
# Velocity S-wave (km/s) = 3.05364 3.35446 3.20758
# Velocity P-wave (km/s) = 5.71313 6.23056 5.97745
#
# Compressibility (1/GPa) = 0.02752254
#
# Stress axis : x y z
#
# Youngs Moduli (GPa) = 41.78471 41.78471 20.75968
#
# Poissons Ratio (x) = 0.31998 0.27609
# Poissons Ratio (y) = 0.31998 0.27609
# Poissons Ratio (z) = 0.55570 0.55570
#
# Static dielectric constant tensor:
#      x y z
#    x 1.626240 0.000000 0.000000 
#    y 0.000000 1.626240 0.000000 
#    z 0.000000 0.000000 1.627830 
# 
# From -- ./inp_files/1413.got.cif
#   From: 2010.05.17/outbox.cif.g08.bks.cpg/sg87_1_cif.got.tgz:1413.got - 2010.06.03 19:07:00.
