data_PCOD9545152
_publ_section_title
;
Structure prediction by ZEFSAII (Michael W. Deem and Ramdas Pophale) SiO2 
 PCOD9545152
Probable space group: P 42/N
;
_chemical_formula_sum "Si O2"
_cell_formula_units_Z 40
_cell_length_a 13.712786
_cell_length_b 13.712786
_cell_length_c 7.818277
_cell_angle_alpha 90.000000
_cell_angle_beta 90.000000
_cell_angle_gamma 90.000000
_cell_volume 1470.152715
_symmetry_space_group_name_H-M "P 42/N"
_symmetry_group_IT_number 86
_space_group.IT_coordinate_system_code '2'
_symmetry_cell_setting 'tetragonal'
loop_
_space_group_symop_operation_xyz
x,y,z
-y,1/2+x,1/2+z
1/2-x,1/2-y,z
1/2+y,-x,1/2+z
-x,-y,-z
y,1/2-x,1/2-z
1/2+x,1/2+y,-z
1/2-y,x,1/2-z
loop_
_atom_site_type_symbol
_atom_site_label
_atom_site_fract_x
_atom_site_fract_y
_atom_site_fract_z
Si Si1 0.382601 0.995781 0.619613
Si Si2 0.158463 0.065884 0.604321
Si Si3 0.750000 0.250000 0.101039
Si Si4 0.420461 0.377794 0.249478
Si Si5 0.250000 0.250000 0.250000
Si Si6 0.583532 0.234216 0.351715
Si Si7 0.250000 0.250000 0.750000
O O1 0.261370 0.007024 0.634250
O O2 0.435763 0.070402 0.754965
O O3 0.407464 0.024821 0.424078
O O4 0.412524 0.883038 0.646310
O O5 0.118077 0.056599 0.409865
O O6 0.191482 0.176995 0.631187
O O7 0.651001 0.268754 0.198007
O O8 0.730768 0.149565 0.006850
O O9 0.328517 0.321620 0.167836
O O10 0.486922 0.296398 0.342307
#
# Coordination Sequence:
#
# PCOD9545152 Si02
#       7
#     8   8   4   8   2   8   2
#     4  11  24  43  71 110 144 196 261 322 385 465
#     4  10  22  38  70 101 144 192 249 308 383 456
#     4  10  22  44  76  96 154 204 244 312 396 462
#     4  12  24  44  75 107 146 202 256 312 386 468
#     4  12  26  44  78 106 156 206 258 320 402 450
#     4  11  23  46  71 110 145 199 261 317 388 468
#     4   8  18  36  66  94 128 190 246 292 366 458
#
# _framework density 27.208055999999999
#
# number of rings (size 3 to 8) (size 9 to 14) (size 15 to 20)
#    0.000    1.200    4.000    1.800    5.600    0.000 
#    0.000    6.000    0.000    0.000    0.000    0.000 
#    0.000    0.000    0.000    0.000    0.000    0.000 
#
# Total GULP energy -223589.036766 kJ/mol
# GULP energy per Si atom -5589.725919 kJ/mol
# Density = 2.714613 g / cm^3
# Si number density = 27.208056 Si / 1000 Ang^3
#
#
#
# Elastic Constant Matrix: (Units=GPa)
#
#
# Indices 1 2 3 4 5 6 
#
# 1 101.2734 -4.3632 30.4810 0.0000 0.0000 2.6831
# 2 -4.3632 101.2734 30.4810 0.0000 0.0000 -2.6831
# 3 30.4810 30.4810 149.8733 0.0000 0.0000 0.0000
# 4 0.0000 0.0000 0.0000 51.6753 0.0000 0.0000
# 5 0.0000 0.0000 0.0000 0.0000 51.6753 0.0000
# 6 2.6831 -2.6831 0.0000 0.0000 0.0000 54.1556
#
#
#
# Elastic Compliance Matrix: (Units=1/GPa)
#
#
# Indices 1 2 3 4 5 6 
#
# 1 0.010661 0.001171 -0.002407 0.000000 0.000000 -0.000470
# 2 0.001171 0.010661 -0.002407 0.000000 0.000000 0.000470
# 3 -0.002407 -0.002407 0.007651 0.000000 0.000000 0.000000
# 4 0.000000 0.000000 0.000000 0.019352 0.000000 0.000000
# 5 0.000000 0.000000 0.000000 0.000000 0.019352 0.000000
# 6 -0.000470 0.000470 0.000000 0.000000 0.000000 0.018512
#
#
# Mechanical properties :
#
#
# Convention : Reuss Voigt Hill
#
# Bulk Modulus (GPa) = 46.10325 51.73531 48.91928
# Shear Modulus (GPa) = 49.65092 51.22265 50.43679
#
# Velocity S-wave (km/s) = 4.27647 4.34363 4.31018
# Velocity P-wave (km/s) = 6.43162 6.64922 6.54133
#
# Compressibility (1/GPa) = 0.02169045
#
# Stress axis : x y z
#
# Youngs Moduli (GPa) = 93.79564 93.79564 130.69904
#
# Poissons Ratio (x) = -0.10985 0.31453
# Poissons Ratio (y) = -0.10985 0.31453
# Poissons Ratio (z) = 0.22572 0.22572
#
# Static dielectric constant tensor:
#      x y z
#    x 2.165950 0.000000 0.000000 
#    y 0.000000 2.165950 0.000000 
#    z 0.000000 0.000000 2.245980 
# 
# From -- ./inp_files/1211.got.cif
#   From: 2010.05.17/outbox.cif.g08.bks.cpg/sg86_1_cif.got.tgz:1211.got - 2010.06.03 19:03:11.
