data_PCOD9545558
_publ_section_title
;
Structure prediction by ZEFSAII (Michael W. Deem and Ramdas Pophale) SiO2 
 PCOD9545558
Probable space group: I 4/M
;
_chemical_formula_sum "Si O2"
_cell_formula_units_Z 96
_cell_length_a 25.882450
_cell_length_b 25.882450
_cell_length_c 9.135302
_cell_angle_alpha 90.000000
_cell_angle_beta 90.000000
_cell_angle_gamma 90.000000
_cell_volume 6119.749937
_symmetry_space_group_name_H-M "I 4/M"
_symmetry_group_IT_number 87
_symmetry_cell_setting 'tetragonal'
loop_
_space_group_symop_operation_xyz
x,y,z
-y,x,z
-x,-y,z
y,-x,z
-x,-y,-z
y,-x,-z
x,y,-z
-y,x,-z
1/2+x,1/2+y,1/2+z
1/2-y,1/2+x,1/2+z
1/2-x,1/2-y,1/2+z
1/2+y,1/2-x,1/2+z
1/2-x,1/2-y,1/2-z
1/2+y,1/2-x,1/2-z
1/2+x,1/2+y,1/2-z
1/2-y,1/2+x,1/2-z
loop_
_atom_site_type_symbol
_atom_site_label
_atom_site_fract_x
_atom_site_fract_y
_atom_site_fract_z
Si Si1 0.560974 0.642932 0.324385
Si Si2 0.065169 0.247401 0.667280
Si Si3 0.942973 0.638998 0.676191
Si Si4 0.856625 0.553793 0.325041
Si Si5 0.939697 0.250969 0.668560
Si Si6 0.558933 0.355025 0.323139
O O1 0.561861 0.645444 0.500000
O O2 0.579657 0.697777 0.261426
O O3 0.598219 0.596304 0.278920
O O4 0.500958 0.635022 0.280951
O O5 0.082344 0.240112 0.500000
O O6 0.080226 0.304818 0.718684
O O7 0.002493 0.249513 0.668285
O O8 0.952170 0.641343 0.500000
O O9 0.903087 0.593261 0.706193
O O10 0.997522 0.632056 0.756733
O O11 0.850465 0.549363 0.500000
O O12 0.803290 0.573787 0.253825
O O13 0.922575 0.252251 0.500000
O O14 0.923622 0.198625 0.750037
O O15 0.560475 0.349933 0.500000
#
# Coordination Sequence:
#
# PCOD9545558 Si02
#       6
#    16  16  16  16  16  16
#     4   9  17  28  44  67  93 120 151 186 224 270
#     4   8  15  29  46  62  85 117 151 186 222 263
#     4   9  19  33  47  68  96 123 152 187 228 271
#     4  10  19  31  49  70  93 122 153 187 227 270
#     4   9  17  30  47  66  89 118 154 192 227 267
#     4   9  17  29  45  67  94 122 152 186 226 271
#
# _framework density 15.686915000000001
#
# number of rings (size 3 to 8) (size 9 to 14) (size 15 to 20)
#    0.000    3.000    0.000    2.000    0.000    6.667 
#    0.000    3.333    0.000    1.000    0.000    4.667 
#    0.000    0.000    0.000    0.000    0.000    0.000 
#
# Total GULP energy -267249.688133 kJ/mol
# GULP energy per Si atom -5567.701836 kJ/mol
# Density = 1.565121 g / cm^3
# Si number density = 15.686915 Si / 1000 Ang^3
#
#
#
# Elastic Constant Matrix: (Units=GPa)
#
#
# Indices 1 2 3 4 5 6 
#
# 1 104.9921 73.2420 46.6053 0.0000 0.0000 -0.3917
# 2 73.2420 104.9921 46.6053 0.0000 0.0000 0.3917
# 3 46.6053 46.6053 43.0982 0.0000 0.0000 0.0000
# 4 0.0000 0.0000 0.0000 21.6384 0.0000 0.0000
# 5 0.0000 0.0000 0.0000 0.0000 21.6384 0.0000
# 6 -0.3917 0.3917 0.0000 0.0000 0.0000 -1.0341
#
#
#
# Elastic Compliance Matrix: (Units=1/GPa)
#
#
# Indices 1 2 3 4 5 6 
#
# 1 0.022059 -0.009145 -0.013964 0.000000 0.000000 -0.011819
# 2 -0.009145 0.022059 -0.013964 0.000000 0.000000 0.011819
# 3 -0.013964 -0.013964 0.053404 0.000000 0.000000 0.000000
# 4 0.000000 0.000000 0.000000 0.046214 0.000000 0.000000
# 5 0.000000 0.000000 0.000000 0.000000 0.046214 0.000000
# 6 -0.011819 0.011819 0.000000 0.000000 0.000000 -0.958041
#
#
# Mechanical properties :
#
#
# Convention : Reuss Voigt Hill
#
# Bulk Modulus (GPa) = 42.78284 65.10971 53.94627
# Shear Modulus (GPa) = -7.28702 14.22387 3.46843
#
# Velocity S-wave (km/s) = -2.15763 3.01447 1.48857
# Velocity P-wave (km/s) = 4.59619 7.32884 6.11706
#
# Compressibility (1/GPa) = 0.02337386
#
# Stress axis : x y z
#
# Youngs Moduli (GPa) = 45.33315 45.33315 18.72517
#
# Poissons Ratio (x) = 0.41459 0.26148
# Poissons Ratio (y) = 0.41459 0.26148
# Poissons Ratio (z) = 0.63304 0.63304
#
# Static dielectric constant tensor:
#      x y z
#    x 1.516690 0.000000 0.000000 
#    y 0.000000 1.516690 0.000000 
#    z 0.000000 0.000000 1.532380 
# 
# From -- ./inp_files/1398.got.cif
#   From: 2010.05.17/outbox.cif.g08.bks.cpg/sg87_1_cif.got.tgz:1398.got - 2010.06.03 19:07:00.
