data_PCOD9545586
_publ_section_title
;
Structure prediction by ZEFSAII (Michael W. Deem and Ramdas Pophale) SiO2 
 PCOD9545586
Probable space group: I 4/M
;
_chemical_formula_sum "Si O2"
_cell_formula_units_Z 120
_cell_length_a 27.676883
_cell_length_b 27.676883
_cell_length_c 7.618202
_cell_angle_alpha 90.000000
_cell_angle_beta 90.000000
_cell_angle_gamma 90.000000
_cell_volume 5835.617791
_symmetry_space_group_name_H-M "I 4/M"
_symmetry_group_IT_number 87
_symmetry_cell_setting 'tetragonal'
loop_
_space_group_symop_operation_xyz
x,y,z
-y,x,z
-x,-y,z
y,-x,z
-x,-y,-z
y,-x,-z
x,y,-z
-y,x,-z
1/2+x,1/2+y,1/2+z
1/2-y,1/2+x,1/2+z
1/2-x,1/2-y,1/2+z
1/2+y,1/2-x,1/2+z
1/2-x,1/2-y,1/2-z
1/2+y,1/2-x,1/2-z
1/2+x,1/2+y,1/2-z
1/2-y,1/2+x,1/2-z
loop_
_atom_site_type_symbol
_atom_site_label
_atom_site_fract_x
_atom_site_fract_y
_atom_site_fract_z
Si Si1 0.420291 0.485034 0.500000
Si Si2 0.694095 0.832012 0.797976
Si Si3 0.329357 0.460606 0.298062
Si Si4 0.140797 0.236110 0.203892
Si Si5 0.856151 0.198757 0.215984
Si Si6 0.007105 0.358857 0.212634
Si Si7 0.098450 0.608796 0.295798
Si Si8 0.967225 0.748464 0.784698
O O1 0.462695 0.445322 0.500000
O O2 0.384355 0.477477 0.333269
O O3 0.673477 0.783769 0.711369
O O4 0.745491 0.850437 0.729053
O O5 0.653488 0.873315 0.788830
O O6 0.701931 0.818667 0.000000
O O7 0.311061 0.455279 0.500000
O O8 0.323212 0.407183 0.223040
O O9 0.293807 0.500916 0.222731
O O10 0.168175 0.189780 0.279266
O O11 0.087917 0.247433 0.278926
O O12 0.132384 0.224388 0.000000
O O13 0.855273 0.197681 0.000000
O O14 0.958549 0.383758 0.278219
O O15 0.056691 0.384322 0.271905
O O16 0.009879 0.302734 0.266621
O O17 0.005504 0.360733 0.000000
O O18 0.112637 0.610394 0.500000
O O19 0.965554 0.747924 0.000000
#
# Coordination Sequence:
#
# PCOD9545586 Si02
#       8
#     8  16  16  16  16  16  16  16
#     4   9  18  26  38  68 110 144 182 223 278 330
#     4  11  21  35  53  78 112 144 176 226 285 328
#     4   8  16  25  45  67  97 139 182 214 264 319
#     4  10  19  32  54  77 105 141 188 230 272 329
#     4   9  18  30  48  75 104 139 186 228 268 331
#     4  10  21  38  57  78 107 136 177 223 273 319
#     4  11  23  39  59  82 106 141 181 225 271 327
#     4   9  16  30  51  74  99 137 179 225 262 324
#
# _framework density 20.563376000000002
#
# number of rings (size 3 to 8) (size 9 to 14) (size 15 to 20)
#    0.400    1.933    1.333    2.000    1.867    3.467 
#    0.000    2.000    0.000    0.000    0.000    0.000 
#    0.000    0.000    0.000    0.000    0.000    1.333 
#
# Total GULP energy -334628.573665 kJ/mol
# GULP energy per Si atom -5577.142894 kJ/mol
# Density = 2.051657 g / cm^3
# Si number density = 20.563376 Si / 1000 Ang^3
#
#
#
# Elastic Constant Matrix: (Units=GPa)
#
#
# Indices 1 2 3 4 5 6 
#
# 1 136.8521 68.8805 -3.8038 0.0000 0.0000 -3.7449
# 2 68.8805 136.8521 -3.8038 0.0000 0.0000 3.7449
# 3 -3.8038 -3.8038 35.0096 0.0000 0.0000 0.0000
# 4 0.0000 0.0000 0.0000 5.2974 0.0000 0.0000
# 5 0.0000 0.0000 0.0000 0.0000 5.2974 0.0000
# 6 -3.7449 3.7449 0.0000 0.0000 0.0000 26.4581
#
#
#
# Elastic Compliance Matrix: (Units=1/GPa)
#
#
# Indices 1 2 3 4 5 6 
#
# 1 0.009913 -0.005032 0.000530 0.000000 0.000000 0.002115
# 2 -0.005032 0.009913 0.000530 0.000000 0.000000 -0.002115
# 3 0.000530 0.000530 0.028679 0.000000 0.000000 0.000000
# 4 0.000000 0.000000 0.000000 0.188772 0.000000 0.000000
# 5 0.000000 0.000000 0.000000 0.000000 0.188772 0.000000
# 6 0.002115 -0.002115 0.000000 0.000000 0.000000 0.038394
#
#
# Mechanical properties :
#
#
# Convention : Reuss Voigt Hill
#
# Bulk Modulus (GPa) = 24.65458 47.91771 36.28615
# Shear Modulus (GPa) = 10.29005 23.90663 17.09834
#
# Velocity S-wave (km/s) = 2.23940 3.41337 2.88669
# Velocity P-wave (km/s) = 4.32460 6.23601 5.36610
#
# Compressibility (1/GPa) = 0.04056041
#
# Stress axis : x y z
#
# Youngs Moduli (GPa) = 100.88063 100.88063 34.86891
#
# Poissons Ratio (x) = 0.50767 -0.01849
# Poissons Ratio (y) = 0.50767 -0.01849
# Poissons Ratio (z) = -0.05349 -0.05349
#
# Static dielectric constant tensor:
#      x y z
#    x 1.715460 0.000000 0.000000 
#    y 0.000000 1.715460 0.000000 
#    z 0.000000 0.000000 1.922870 
# 
# From -- ./inp_files/1725.got.cif
#   From: 2010.05.17/outbox.cif.g08.bks.cpg/sg87_1_cif.got.tgz:1725.got - 2010.06.03 19:07:00.
