data_PCOD9545190
_publ_section_title
;
Structure prediction by ZEFSAII (Michael W. Deem and Ramdas Pophale) SiO2 
 PCOD9545190
Probable space group: P 42/N
;
_chemical_formula_sum "Si O2"
_cell_formula_units_Z 48
_cell_length_a 8.836623
_cell_length_b 8.836623
_cell_length_c 28.103655
_cell_angle_alpha 90.000000
_cell_angle_beta 90.000000
_cell_angle_gamma 90.000000
_cell_volume 2194.499364
_symmetry_space_group_name_H-M "P 42/N"
_symmetry_group_IT_number 86
_space_group.IT_coordinate_system_code '2'
_symmetry_cell_setting 'tetragonal'
loop_
_space_group_symop_operation_xyz
x,y,z
-y,1/2+x,1/2+z
1/2-x,1/2-y,z
1/2+y,-x,1/2+z
-x,-y,-z
y,1/2-x,1/2-z
1/2+x,1/2+y,-z
1/2-y,x,1/2-z
loop_
_atom_site_type_symbol
_atom_site_label
_atom_site_fract_x
_atom_site_fract_y
_atom_site_fract_z
Si Si1 0.709197 0.920039 0.531891
Si Si2 0.437162 0.062298 0.179675
Si Si3 0.630794 0.118111 0.089824
Si Si4 0.827072 0.082765 0.772556
Si Si5 0.081093 0.412308 0.573127
Si Si6 0.926790 0.769606 0.172697
O O1 0.750000 0.750000 0.546485
O O2 0.670307 0.917000 0.476220
O O3 0.838958 0.043541 0.541786
O O4 0.565786 0.983949 0.561831
O O5 0.498781 0.114459 0.128917
O O6 0.508942 0.165205 0.220803
O O7 0.262777 0.029628 0.191992
O O8 0.505606 0.893938 0.182720
O O9 0.750000 0.250000 0.102592
O O10 0.740133 0.974254 0.084121
O O11 0.750000 0.250000 0.770728
O O12 0.995215 0.111000 0.792218
O O13 0.174282 0.462794 0.619162
O O14 0.750000 0.750000 0.179314
#
# Coordination Sequence:
#
# PCOD9545190 Si02
#       6
#     8   8   8   8   8   8
#     4  10  23  40  67  96 135 180 223 287 358 406
#     4  11  24  44  66  94 139 177 217 292 339 420
#     4  10  22  42  67  96 131 182 224 276 353 414
#     4  10  26  43  65 105 133 171 234 281 354 417
#     4  10  22  44  63 101 135 173 238 287 336 433
#     4  11  23  40  72  96 127 178 227 282 339 418
#
# _framework density 21.872872000000001
#
# number of rings (size 3 to 8) (size 9 to 14) (size 15 to 20)
#    0.000    1.667    1.667    1.000    7.000    3.667 
#    0.000    5.833    0.000    0.000    0.000    0.000 
#    0.000    0.000    0.000    0.000    0.000    0.000 
#
# Total GULP energy -268146.423432 kJ/mol
# GULP energy per Si atom -5586.383822 kJ/mol
# Density = 2.182309 g / cm^3
# Si number density = 21.872872 Si / 1000 Ang^3
#
#
#
# Elastic Constant Matrix: (Units=GPa)
#
#
# Indices 1 2 3 4 5 6 
#
# 1 64.9845 9.3087 29.2616 0.0000 0.0000 12.3247
# 2 9.3087 64.9845 29.2616 0.0000 0.0000 -12.3247
# 3 29.2616 29.2616 93.6720 0.0000 0.0000 0.0000
# 4 0.0000 0.0000 0.0000 31.0766 0.0000 0.0000
# 5 0.0000 0.0000 0.0000 0.0000 31.0766 0.0000
# 6 12.3247 -12.3247 0.0000 0.0000 0.0000 19.6274
#
#
#
# Elastic Compliance Matrix: (Units=1/GPa)
#
#
# Indices 1 2 3 4 5 6 
#
# 1 0.021365 -0.003512 -0.005577 0.000000 0.000000 -0.015621
# 2 -0.003512 0.021365 -0.005577 0.000000 0.000000 0.015621
# 3 -0.005577 -0.005577 0.014160 0.000000 0.000000 0.000000
# 4 0.000000 0.000000 0.000000 0.032179 0.000000 0.000000
# 5 0.000000 0.000000 0.000000 0.000000 0.032179 0.000000
# 6 -0.015621 0.015621 0.000000 0.000000 0.000000 0.070567
#
#
# Mechanical properties :
#
#
# Convention : Reuss Voigt Hill
#
# Bulk Modulus (GPa) = 36.28660 39.92275 38.10467
# Shear Modulus (GPa) = 21.70770 26.74339 24.22554
#
# Velocity S-wave (km/s) = 3.15373 3.50047 3.33161
# Velocity P-wave (km/s) = 5.46692 5.88468 5.67964
#
# Compressibility (1/GPa) = 0.02755838
#
# Stress axis : x y z
#
# Youngs Moduli (GPa) = 46.80489 46.80489 70.62165
#
# Poissons Ratio (x) = 0.16437 0.39387
# Poissons Ratio (y) = 0.16437 0.39387
# Poissons Ratio (z) = 0.26104 0.26104
#
# Static dielectric constant tensor:
#      x y z
#    x 1.827150 0.000000 0.000000 
#    y 0.000000 1.827150 0.000000 
#    z 0.000000 0.000000 1.776430 
# 
# From -- ./inp_files/5173.got.cif
#   From: 2010.05.17/outbox.cif.g08.bks.cpg/sg86_3_cif.got.tgz:5173.got - 2010.06.03 19:03:11.
