data_PCOD9545776
_publ_section_title
;
Structure prediction by ZEFSAII (Michael W. Deem and Ramdas Pophale) SiO2 
 PCOD9545776
Probable space group: I 4/M
;
_chemical_formula_sum "Si O2"
_cell_formula_units_Z 80
_cell_length_a 16.763186
_cell_length_b 16.763186
_cell_length_c 13.889202
_cell_angle_alpha 90.000000
_cell_angle_beta 90.000000
_cell_angle_gamma 90.000000
_cell_volume 3902.926942
_symmetry_space_group_name_H-M "I 4/M"
_symmetry_group_IT_number 87
_symmetry_cell_setting 'tetragonal'
loop_
_space_group_symop_operation_xyz
x,y,z
-y,x,z
-x,-y,z
y,-x,z
-x,-y,-z
y,-x,-z
x,y,-z
-y,x,-z
1/2+x,1/2+y,1/2+z
1/2-y,1/2+x,1/2+z
1/2-x,1/2-y,1/2+z
1/2+y,1/2-x,1/2+z
1/2-x,1/2-y,1/2-z
1/2+y,1/2-x,1/2-z
1/2+x,1/2+y,1/2-z
1/2-y,1/2+x,1/2-z
loop_
_atom_site_type_symbol
_atom_site_label
_atom_site_fract_x
_atom_site_fract_y
_atom_site_fract_z
Si Si1 0.646109 0.684466 0.616745
Si Si2 0.843437 0.267585 0.384022
Si Si3 0.398381 0.421139 0.882835
Si Si4 0.971689 0.235597 0.115630
Si Si5 0.379801 0.054036 0.751009
O O1 0.642804 0.683939 0.500000
O O2 0.709211 0.753068 0.642784
O O3 0.558716 0.709451 0.650841
O O4 0.673374 0.596597 0.644771
O O5 0.850843 0.274658 0.500000
O O6 0.868661 0.178057 0.356047
O O7 0.901252 0.331277 0.332925
O O8 0.486015 0.390968 0.852469
O O9 0.399677 0.421206 0.000000
O O10 0.948744 0.320646 0.158747
O O11 0.973519 0.239907 0.000000
O O12 0.462671 0.098204 0.773264
#
# Coordination Sequence:
#
# PCOD9545776 Si02
#       5
#    16  16  16  16  16
#     4   9  19  37  63  90 116 154 197 246 305 356
#     4  10  20  37  59  86 120 155 198 245 293 358
#     4   8  15  30  53  81 115 152 188 232 286 346
#     4  10  21  41  64  88 120 154 199 252 300 353
#     4  11  24  40  59  87 119 157 200 241 297 358
#
# _framework density 20.497437999999999
#
# number of rings (size 3 to 8) (size 9 to 14) (size 15 to 20)
#    0.000    2.400    2.000    0.600    0.000    3.600 
#    3.600    8.000    0.000    0.000    0.000    0.000 
#    0.000    0.000    0.000    0.000    0.000    0.000 
#
# Total GULP energy -223448.523014 kJ/mol
# GULP energy per Si atom -5586.213075 kJ/mol
# Density = 2.045079 g / cm^3
# Si number density = 20.497438 Si / 1000 Ang^3
#
#
#
# Elastic Constant Matrix: (Units=GPa)
#
#
# Indices 1 2 3 4 5 6 
#
# 1 117.5335 54.7942 3.4766 0.0000 0.0000 6.5617
# 2 54.7942 117.5335 3.4766 0.0000 0.0000 -6.5617
# 3 3.4766 3.4766 57.3861 0.0000 0.0000 0.0000
# 4 0.0000 0.0000 0.0000 18.1902 0.0000 0.0000
# 5 0.0000 0.0000 0.0000 0.0000 18.1902 0.0000
# 6 6.5617 -6.5617 0.0000 0.0000 0.0000 36.1215
#
#
#
# Elastic Compliance Matrix: (Units=1/GPa)
#
#
# Indices 1 2 3 4 5 6 
#
# 1 0.011193 -0.005376 -0.000352 0.000000 0.000000 -0.003010
# 2 -0.005376 0.011193 -0.000352 0.000000 0.000000 0.003010
# 3 -0.000352 -0.000352 0.017469 0.000000 0.000000 0.000000
# 4 0.000000 0.000000 0.000000 0.054975 0.000000 0.000000
# 5 0.000000 0.000000 0.000000 0.000000 0.054975 0.000000
# 6 -0.003010 0.003010 0.000000 0.000000 0.000000 0.028778
#
#
# Mechanical properties :
#
#
# Convention : Reuss Voigt Hill
#
# Bulk Modulus (GPa) = 36.11007 46.21641 41.16324
# Shear Modulus (GPa) = 25.00335 29.88078 27.44207
#
# Velocity S-wave (km/s) = 3.49639 3.82223 3.66294
# Velocity P-wave (km/s) = 5.82707 6.48657 6.16565
#
# Compressibility (1/GPa) = 0.02769311
#
# Stress axis : x y z
#
# Youngs Moduli (GPa) = 89.34299 89.34299 57.24584
#
# Poissons Ratio (x) = 0.48028 0.02017
# Poissons Ratio (y) = 0.48028 0.02017
# Poissons Ratio (z) = 0.03149 0.03149
#
# Static dielectric constant tensor:
#      x y z
#    x 1.707880 0.000000 0.000000 
#    y 0.000000 1.707880 0.000000 
#    z 0.000000 0.000000 1.734880 
# 
# From -- ./inp_files/3488.got.cif
#   From: 2010.05.17/outbox.cif.g08.bks.cpg/sg87_2_cif.got.tgz:3488.got - 2010.06.03 19:07:00.
