data_PCOD9545756
_publ_section_title
;
Structure prediction by ZEFSAII (Michael W. Deem and Ramdas Pophale) SiO2 
 PCOD9545756
Probable space group: I 4/M
;
_chemical_formula_sum "Si O2"
_cell_formula_units_Z 96
_cell_length_a 21.138390
_cell_length_b 21.138390
_cell_length_c 10.789189
_cell_angle_alpha 90.000000
_cell_angle_beta 90.000000
_cell_angle_gamma 90.000000
_cell_volume 4820.949848
_symmetry_space_group_name_H-M "I 4/M"
_symmetry_group_IT_number 87
_symmetry_cell_setting 'tetragonal'
loop_
_space_group_symop_operation_xyz
x,y,z
-y,x,z
-x,-y,z
y,-x,z
-x,-y,-z
y,-x,-z
x,y,-z
-y,x,-z
1/2+x,1/2+y,1/2+z
1/2-y,1/2+x,1/2+z
1/2-x,1/2-y,1/2+z
1/2+y,1/2-x,1/2+z
1/2-x,1/2-y,1/2-z
1/2+y,1/2-x,1/2-z
1/2+x,1/2+y,1/2-z
1/2-y,1/2+x,1/2-z
loop_
_atom_site_type_symbol
_atom_site_label
_atom_site_fract_x
_atom_site_fract_y
_atom_site_fract_z
Si Si1 0.496843 0.846966 0.863717
Si Si2 0.799823 0.827382 0.361056
Si Si3 0.923926 0.627612 0.865140
Si Si4 0.008556 0.106631 0.859936
Si Si5 0.334832 0.245087 0.363190
Si Si6 0.520545 0.301100 0.859444
O O1 0.424171 0.868606 0.861516
O O2 0.531539 0.880528 0.751450
O O3 0.500571 0.771630 0.849920
O O4 0.522583 0.864086 0.000000
O O5 0.824146 0.812201 0.500000
O O6 0.728997 0.797766 0.354306
O O7 0.836092 0.793887 0.249107
O O8 0.800351 0.902882 0.347444
O O9 0.892218 0.696271 0.857704
O O10 0.955859 0.621157 0.000000
O O11 0.008270 0.156606 0.749245
O O12 0.065333 0.055964 0.849713
O O13 0.010681 0.134090 0.000000
O O14 0.333796 0.275811 0.500000
O O15 0.505616 0.323711 0.000000
#
# Coordination Sequence:
#
# PCOD9545756 Si02
#       6
#    16  16  16  16  16  16
#     4  10  22  40  59  80 110 145 181 228 280 329
#     4   9  17  31  52  78 108 141 175 214 265 323
#     4  10  21  39  59  79 109 146 184 226 275 330
#     4   9  20  39  59  80 112 152 189 227 270 317
#     4   9  17  32  53  76 105 141 176 215 266 322
#     4  10  20  36  58  83 113 147 183 226 276 327
#
# _framework density 19.913088999999999
#
# number of rings (size 3 to 8) (size 9 to 14) (size 15 to 20)
#    0.000    2.500    1.667    0.500    0.000    5.000 
#    0.000    9.167    0.000    0.000    0.000    0.000 
#    0.000    0.000    0.000    0.000    0.000    0.000 
#
# Total GULP energy -267915.196672 kJ/mol
# GULP energy per Si atom -5581.566597 kJ/mol
# Density = 1.986777 g / cm^3
# Si number density = 19.913089 Si / 1000 Ang^3
#
#
#
# Elastic Constant Matrix: (Units=GPa)
#
#
# Indices 1 2 3 4 5 6 
#
# 1 41.7306 -5.3628 44.5414 0.0000 0.0000 12.1554
# 2 -5.3628 41.7306 44.5414 0.0000 0.0000 -12.1554
# 3 44.5414 44.5414 178.4918 0.0000 0.0000 0.0000
# 4 0.0000 0.0000 0.0000 23.8379 0.0000 0.0000
# 5 0.0000 0.0000 0.0000 0.0000 23.8379 0.0000
# 6 12.1554 -12.1554 0.0000 0.0000 0.0000 8.7354
#
#
#
# Elastic Compliance Matrix: (Units=1/GPa)
#
#
# Indices 1 2 3 4 5 6 
#
# 1 0.073061 -0.002329 -0.017651 0.000000 0.000000 -0.104907
# 2 -0.002329 0.073061 -0.017651 0.000000 0.000000 0.104907
# 3 -0.017651 -0.017651 0.014412 0.000000 0.000000 0.000000
# 4 0.000000 0.000000 0.000000 0.041950 0.000000 0.000000
# 5 0.000000 0.000000 0.000000 0.000000 0.041950 0.000000
# 6 -0.104907 0.104907 0.000000 0.000000 0.000000 0.406437
#
#
# Mechanical properties :
#
#
# Convention : Reuss Voigt Hill
#
# Bulk Modulus (GPa) = 11.72698 47.71032 29.71865
# Shear Modulus (GPa) = 6.62641 23.16445 14.89543
#
# Velocity S-wave (km/s) = 1.82617 3.41439 2.73797
# Velocity P-wave (km/s) = 3.21689 6.28930 4.99518
#
# Compressibility (1/GPa) = 0.08527346
#
# Stress axis : x y z
#
# Youngs Moduli (GPa) = 13.68714 13.68714 69.38784
#
# Poissons Ratio (x) = 0.03188 1.22475
# Poissons Ratio (y) = 0.03188 1.22475
# Poissons Ratio (z) = 0.24159 0.24159
#
# Static dielectric constant tensor:
#      x y z
#    x 1.685530 0.000000 0.000000 
#    y 0.000000 1.685530 0.000000 
#    z 0.000000 0.000000 1.726760 
# 
# From -- ./inp_files/1421.got.cif
#   From: 2010.05.17/outbox.cif.g08.bks.cpg/sg87_1_cif.got.tgz:1421.got - 2010.06.03 19:07:00.
