data_PCOD9545795
_publ_section_title
;
Structure prediction by ZEFSAII (Michael W. Deem and Ramdas Pophale) SiO2 
 PCOD9545795
Probable space group: I 4/M
;
_chemical_formula_sum "Si O2"
_cell_formula_units_Z 112
_cell_length_a 15.218573
_cell_length_b 15.218573
_cell_length_c 23.650896
_cell_angle_alpha 90.000000
_cell_angle_beta 90.000000
_cell_angle_gamma 90.000000
_cell_volume 5477.664920
_symmetry_space_group_name_H-M "I 4/M"
_symmetry_group_IT_number 87
_symmetry_cell_setting 'tetragonal'
loop_
_space_group_symop_operation_xyz
x,y,z
-y,x,z
-x,-y,z
y,-x,z
-x,-y,-z
y,-x,-z
x,y,-z
-y,x,-z
1/2+x,1/2+y,1/2+z
1/2-y,1/2+x,1/2+z
1/2-x,1/2-y,1/2+z
1/2+y,1/2-x,1/2+z
1/2-x,1/2-y,1/2-z
1/2+y,1/2-x,1/2-z
1/2+x,1/2+y,1/2-z
1/2-y,1/2+x,1/2-z
loop_
_atom_site_type_symbol
_atom_site_label
_atom_site_fract_x
_atom_site_fract_y
_atom_site_fract_z
Si Si1 0.689751 0.073140 0.935448
Si Si2 0.190724 0.474908 0.936143
Si Si3 0.303849 0.266980 0.661744
Si Si4 0.044327 0.866511 0.374036
Si Si5 0.383536 0.701826 0.766010
Si Si6 0.153512 0.385963 0.392876
Si Si7 0.374204 0.034101 0.773809
O O1 0.589347 0.107485 0.930660
O O2 0.738213 0.122798 0.883653
O O3 0.691061 0.968543 0.927277
O O4 0.719231 0.095767 0.000000
O O5 0.269694 0.440664 0.897578
O O6 0.163620 0.574006 0.922805
O O7 0.222919 0.468771 0.000000
O O8 0.336786 0.330953 0.712432
O O9 0.253670 0.188576 0.695284
O O10 0.229055 0.319728 0.627163
O O11 0.062930 0.861120 0.307135
O O12 0.945999 0.892949 0.392188
O O13 0.451038 0.774508 0.742918
O O14 0.113107 0.428441 0.335965
O O15 0.435638 0.092175 0.732770
#
# Coordination Sequence:
#
# PCOD9545795 Si02
#       7
#    16  16  16  16  16  16  16
#     4  11  24  41  62  91 127 166 214 272 326 382
#     4  11  24  40  63  89 125 171 216 266 322 384
#     4  10  22  39  64  92 122 167 209 265 321 387
#     4  11  24  41  63  91 129 174 215 263 318 384
#     4  10  20  39  60  87 127 165 210 259 313 381
#     4  11  23  39  62  91 125 166 214 266 326 384
#     4  10  21  31  55  91 125 165 201 258 316 379
#
# _framework density 20.446669
#
# number of rings (size 3 to 8) (size 9 to 14) (size 15 to 20)
#    0.000    1.429    1.429    3.429    4.000    7.429 
#    0.000    0.714    0.000    0.429    0.000    1.000 
#    0.000    0.000    0.000    0.000    0.000    0.000 
#
# Total GULP energy -312760.988895 kJ/mol
# GULP energy per Si atom -5585.017659 kJ/mol
# Density = 2.040013 g / cm^3
# Si number density = 20.446669 Si / 1000 Ang^3
#
#
#
# Elastic Constant Matrix: (Units=GPa)
#
#
# Indices 1 2 3 4 5 6 
#
# 1 35.5609 5.8117 18.3142 0.0000 0.0000 1.0497
# 2 5.8117 35.5609 18.3142 0.0000 0.0000 -1.0497
# 3 18.3142 18.3142 80.8430 0.0000 0.0000 0.0000
# 4 0.0000 0.0000 0.0000 12.1377 0.0000 0.0000
# 5 0.0000 0.0000 0.0000 0.0000 12.1377 0.0000
# 6 1.0497 -1.0497 0.0000 0.0000 0.0000 27.3189
#
#
#
# Elastic Compliance Matrix: (Units=1/GPa)
#
#
# Indices 1 2 3 4 5 6 
#
# 1 0.031970 -0.001736 -0.006849 0.000000 0.000000 -0.001295
# 2 -0.001736 0.031970 -0.006849 0.000000 0.000000 0.001295
# 3 -0.006849 -0.006849 0.015473 0.000000 0.000000 0.000000
# 4 0.000000 0.000000 0.000000 0.082388 0.000000 0.000000
# 5 0.000000 0.000000 0.000000 0.000000 0.082388 0.000000
# 6 -0.001295 0.001295 0.000000 0.000000 0.000000 0.036704
#
#
# Mechanical properties :
#
#
# Convention : Reuss Voigt Hill
#
# Bulk Modulus (GPa) = 20.59957 26.31610 23.45784
# Shear Modulus (GPa) = 15.24654 17.62051 16.43353
#
# Velocity S-wave (km/s) = 2.73367 2.93879 2.83808
# Velocity P-wave (km/s) = 4.47890 4.94104 4.71564
#
# Compressibility (1/GPa) = 0.04854469
#
# Stress axis : x y z
#
# Youngs Moduli (GPa) = 31.27920 31.27920 64.62892
#
# Poissons Ratio (x) = 0.05429 0.44267
# Poissons Ratio (y) = 0.05429 0.44267
# Poissons Ratio (z) = 0.21424 0.21424
#
# Static dielectric constant tensor:
#      x y z
#    x 1.715450 0.000000 0.000000 
#    y 0.000000 1.715450 0.000000 
#    z 0.000000 0.000000 1.773560 
# 
# From -- ./inp_files/5898.got.cif
#   From: 2010.05.17/outbox.cif.g08.bks.cpg/sg87_3_cif.got.tgz:5898.got - 2010.06.03 19:07:00.
