data_PCOD9545508
_publ_section_title
;
Structure prediction by ZEFSAII (Michael W. Deem and Ramdas Pophale) SiO2 
 PCOD9545508
Probable space group: I 4/M
;
_chemical_formula_sum "Si O2"
_cell_formula_units_Z 96
_cell_length_a 16.875408
_cell_length_b 16.875408
_cell_length_c 19.579036
_cell_angle_alpha 90.000000
_cell_angle_beta 90.000000
_cell_angle_gamma 90.000000
_cell_volume 5575.706030
_symmetry_space_group_name_H-M "I 4/M"
_symmetry_group_IT_number 87
_symmetry_cell_setting 'tetragonal'
loop_
_space_group_symop_operation_xyz
x,y,z
-y,x,z
-x,-y,z
y,-x,z
-x,-y,-z
y,-x,-z
x,y,-z
-y,x,-z
1/2+x,1/2+y,1/2+z
1/2-y,1/2+x,1/2+z
1/2-x,1/2-y,1/2+z
1/2+y,1/2-x,1/2+z
1/2-x,1/2-y,1/2-z
1/2+y,1/2-x,1/2-z
1/2+x,1/2+y,1/2-z
1/2-y,1/2+x,1/2-z
loop_
_atom_site_type_symbol
_atom_site_label
_atom_site_fract_x
_atom_site_fract_y
_atom_site_fract_z
Si Si1 0.747435 0.336653 0.216385
Si Si2 0.049231 0.660850 0.078977
Si Si3 0.725099 0.229250 0.576779
Si Si4 0.565615 0.612367 0.708946
Si Si5 0.710948 0.413257 0.420810
Si Si6 0.087178 0.574819 0.784533
O O1 0.750000 0.250000 0.250000
O O2 0.735754 0.322084 0.135827
O O3 0.679829 0.390310 0.248705
O O4 0.832115 0.378092 0.227019
O O5 0.130480 0.712248 0.081808
O O6 0.058142 0.595601 0.138530
O O7 0.975639 0.718980 0.094228
O O8 0.041659 0.632195 0.000000
O O9 0.749858 0.208505 0.500000
O O10 0.738842 0.322532 0.587967
O O11 0.472410 0.604802 0.722911
O O12 0.573896 0.638558 0.630185
O O13 0.688442 0.423608 0.500000
O O14 0.099972 0.482428 0.767788
#
# Coordination Sequence:
#
# PCOD9545508 Si02
#       6
#    16  16  16  16  16  16
#     4  11  22  36  61  83 108 152 192 232 290 338
#     4   9  18  33  54  78 112 154 190 232 284 335
#     4   9  18  33  53  82 109 141 191 233 276 337
#     4  11  24  38  55  85 120 149 187 236 285 345
#     4  10  18  30  52  81 117 154 188 225 274 342
#     4  10  22  37  55  82 114 148 192 241 283 336
#
# _framework density 17.217551
#
# number of rings (size 3 to 8) (size 9 to 14) (size 15 to 20)
#    0.000    2.000    1.667    2.000    4.667    2.000 
#    0.000    2.500    0.000    3.000    0.000    1.167 
#    0.000    0.000    0.000    0.000    0.000    0.000 
#
# Total GULP energy -267779.329992 kJ/mol
# GULP energy per Si atom -5578.736041 kJ/mol
# Density = 1.717836 g / cm^3
# Si number density = 17.217551 Si / 1000 Ang^3
#
#
#
# Elastic Constant Matrix: (Units=GPa)
#
#
# Indices 1 2 3 4 5 6 
#
# 1 93.5164 68.5170 67.5160 0.0000 0.0000 -6.8251
# 2 68.5170 93.5164 67.5160 0.0000 0.0000 6.8251
# 3 67.5160 67.5160 114.3981 0.0000 0.0000 0.0000
# 4 0.0000 0.0000 0.0000 27.6649 0.0000 0.0000
# 5 0.0000 0.0000 0.0000 0.0000 27.6649 0.0000
# 6 -6.8251 6.8251 0.0000 0.0000 0.0000 22.7155
#
#
#
# Elastic Compliance Matrix: (Units=1/GPa)
#
#
# Indices 1 2 3 4 5 6 
#
# 1 0.029998 -0.017853 -0.007168 0.000000 0.000000 0.014377
# 2 -0.017853 0.029998 -0.007168 0.000000 0.000000 -0.014377
# 3 -0.007168 -0.007168 0.017202 0.000000 0.000000 0.000000
# 4 0.000000 0.000000 0.000000 0.036147 0.000000 0.000000
# 5 0.000000 0.000000 0.000000 0.000000 0.036147 0.000000
# 6 0.014377 -0.014377 0.000000 0.000000 0.000000 0.052663
#
#
# Mechanical properties :
#
#
# Convention : Reuss Voigt Hill
#
# Bulk Modulus (GPa) = 77.99812 78.72542 78.36177
# Shear Modulus (GPa) = 18.46346 22.13451 20.29899
#
# Velocity S-wave (km/s) = 3.27825 3.58939 3.43734
# Velocity P-wave (km/s) = 7.72846 7.93735 7.83360
#
# Compressibility (1/GPa) = 0.01282082
#
# Stress axis : x y z
#
# Youngs Moduli (GPa) = 33.33552 33.33552 58.13301
#
# Poissons Ratio (x) = 0.59515 0.41668
# Poissons Ratio (y) = 0.59515 0.41668
# Poissons Ratio (z) = 0.23894 0.23894
#
# Static dielectric constant tensor:
#      x y z
#    x 1.571540 0.000000 0.000000 
#    y 0.000000 1.571540 0.000000 
#    z 0.000000 0.000000 1.614260 
# 
# From -- ./inp_files/5263.got.cif
#   From: 2010.05.17/outbox.cif.g08.bks.cpg/sg87_3_cif.got.tgz:5263.got - 2010.06.03 19:07:00.
