data_PCOD9545178
_publ_section_title
;
Structure prediction by ZEFSAII (Michael W. Deem and Ramdas Pophale) SiO2 
 PCOD9545178
Probable space group: P 42/N
;
_chemical_formula_sum "Si O2"
_cell_formula_units_Z 48
_cell_length_a 9.645514
_cell_length_b 9.645514
_cell_length_c 27.141147
_cell_angle_alpha 90.000000
_cell_angle_beta 90.000000
_cell_angle_gamma 90.000000
_cell_volume 2525.102133
_symmetry_space_group_name_H-M "P 42/N"
_symmetry_group_IT_number 86
_space_group.IT_coordinate_system_code '2'
_symmetry_cell_setting 'tetragonal'
loop_
_space_group_symop_operation_xyz
x,y,z
-y,1/2+x,1/2+z
1/2-x,1/2-y,z
1/2+y,-x,1/2+z
-x,-y,-z
y,1/2-x,1/2-z
1/2+x,1/2+y,-z
1/2-y,x,1/2-z
loop_
_atom_site_type_symbol
_atom_site_label
_atom_site_fract_x
_atom_site_fract_y
_atom_site_fract_z
Si Si1 0.521097 0.401420 0.809952
Si Si2 0.405770 0.237104 0.623623
Si Si3 0.835142 0.390574 0.038300
Si Si4 0.086692 0.020562 0.703416
Si Si5 0.089400 0.221441 0.338569
Si Si6 0.113580 0.163601 0.453423
O O1 0.416781 0.424983 0.855476
O O2 0.442123 0.444171 0.759966
O O3 0.548866 0.237137 0.804752
O O4 0.656107 0.493206 0.818170
O O5 0.250000 0.250000 0.602382
O O6 0.519420 0.282736 0.584563
O O7 0.410574 0.341294 0.670199
O O8 0.750000 0.250000 0.034551
O O9 0.998438 0.359320 0.044981
O O10 0.813257 0.486120 0.990310
O O11 0.966197 0.920460 0.684469
O O12 0.250000 0.250000 0.326745
O O13 0.077652 0.208323 0.397736
O O14 0.250000 0.250000 0.468304
#
# Coordination Sequence:
#
# PCOD9545178 Si02
#       6
#     8   8   8   8   8   8
#     4  11  24  40  67  94 128 174 219 266 318 377
#     4  10  22  41  67  95 129 166 216 268 316 375
#     4  11  24  43  71  99 123 169 217 262 323 384
#     4  11  22  43  63  94 130 169 222 261 320 380
#     4  11  26  44  63  95 134 172 206 268 327 382
#     4  10  24  47  65  95 136 163 208 267 325 389
#
# _framework density 19.009132000000001
#
# number of rings (size 3 to 8) (size 9 to 14) (size 15 to 20)
#    0.000    1.333    3.333    1.000    7.000    2.000 
#    3.000    0.000    0.000    0.000    0.000    0.000 
#    0.000    0.000    0.000    0.000    0.000    0.000 
#
# Total GULP energy -268309.024096 kJ/mol
# GULP energy per Si atom -5589.771335 kJ/mol
# Density = 1.896587 g / cm^3
# Si number density = 19.009132 Si / 1000 Ang^3
#
#
#
# Elastic Constant Matrix: (Units=GPa)
#
#
# Indices 1 2 3 4 5 6 
#
# 1 89.7751 53.2977 37.6070 0.0000 0.0000 -4.6756
# 2 53.2977 89.7751 37.6070 0.0000 0.0000 4.6756
# 3 37.6070 37.6070 68.3336 0.0000 0.0000 0.0000
# 4 0.0000 0.0000 0.0000 21.8090 0.0000 0.0000
# 5 0.0000 0.0000 0.0000 0.0000 21.8090 0.0000
# 6 -4.6756 4.6756 0.0000 0.0000 0.0000 32.5319
#
#
#
# Elastic Compliance Matrix: (Units=1/GPa)
#
#
# Indices 1 2 3 4 5 6 
#
# 1 0.019149 -0.009314 -0.005413 0.000000 0.000000 0.004091
# 2 -0.009314 0.019149 -0.005413 0.000000 0.000000 -0.004091
# 3 -0.005413 -0.005413 0.020592 0.000000 0.000000 0.000000
# 4 0.000000 0.000000 0.000000 0.045853 0.000000 0.000000
# 5 0.000000 0.000000 0.000000 0.000000 0.045853 0.000000
# 6 0.004091 -0.004091 0.000000 0.000000 0.000000 0.031915
#
#
# Mechanical properties :
#
#
# Convention : Reuss Voigt Hill
#
# Bulk Modulus (GPa) = 53.73132 56.10078 54.91605
# Shear Modulus (GPa) = 21.83488 23.18814 22.51151
#
# Velocity S-wave (km/s) = 3.39285 3.49641 3.44502
# Velocity P-wave (km/s) = 6.60878 6.77322 6.69151
#
# Compressibility (1/GPa) = 0.01861112
#
# Stress axis : x y z
#
# Youngs Moduli (GPa) = 52.22242 52.22242 48.56350
#
# Poissons Ratio (x) = 0.48640 0.26285
# Poissons Ratio (y) = 0.48640 0.26285
# Poissons Ratio (z) = 0.28266 0.28266
#
# Static dielectric constant tensor:
#      x y z
#    x 1.633390 0.000000 0.000000 
#    y 0.000000 1.633390 0.000000 
#    z 0.000000 0.000000 1.643840 
# 
# From -- ./inp_files/5123.got.cif
#   From: 2010.05.17/outbox.cif.g08.bks.cpg/sg86_3_cif.got.tgz:5123.got - 2010.06.03 19:03:11.
