data_PCOD9545516
_publ_section_title
;
Structure prediction by ZEFSAII (Michael W. Deem and Ramdas Pophale) SiO2 
 PCOD9545516
Probable space group: I 4/M
;
_chemical_formula_sum "Si O2"
_cell_formula_units_Z 112
_cell_length_a 18.036914
_cell_length_b 18.036914
_cell_length_c 18.507784
_cell_angle_alpha 90.000000
_cell_angle_beta 90.000000
_cell_angle_gamma 90.000000
_cell_volume 6021.142304
_symmetry_space_group_name_H-M "I 4/M"
_symmetry_group_IT_number 87
_symmetry_cell_setting 'tetragonal'
loop_
_space_group_symop_operation_xyz
x,y,z
-y,x,z
-x,-y,z
y,-x,z
-x,-y,-z
y,-x,-z
x,y,-z
-y,x,-z
1/2+x,1/2+y,1/2+z
1/2-y,1/2+x,1/2+z
1/2-x,1/2-y,1/2+z
1/2+y,1/2-x,1/2+z
1/2-x,1/2-y,1/2-z
1/2+y,1/2-x,1/2-z
1/2+x,1/2+y,1/2-z
1/2-y,1/2+x,1/2-z
loop_
_atom_site_type_symbol
_atom_site_label
_atom_site_fract_x
_atom_site_fract_y
_atom_site_fract_z
Si Si1 0.225330 0.581835 0.413715
Si Si2 0.084013 0.492241 0.412990
Si Si3 0.788490 0.246610 0.583725
Si Si4 0.586569 0.581509 0.719325
Si Si5 0.040990 0.834626 0.917951
Si Si6 0.133113 0.694330 0.875429
Si Si7 0.163740 0.768948 0.266211
O O1 0.226121 0.568061 0.500000
O O2 0.145175 0.552874 0.387170
O O3 0.237476 0.668355 0.404243
O O4 0.291436 0.530601 0.385595
O O5 0.080463 0.499398 0.500000
O O6 0.122425 0.413811 0.395320
O O7 0.000000 0.500000 0.385313
O O8 0.811547 0.239298 0.500000
O O9 0.718869 0.193390 0.601080
O O10 0.847579 0.237308 0.647954
O O11 0.503851 0.600968 0.743744
O O12 0.600849 0.569608 0.633423
O O13 0.648865 0.638401 0.744689
O O14 0.099136 0.766032 0.916254
O O15 0.029765 0.859043 0.000000
O O16 0.124165 0.713951 0.790445
O O17 0.250000 0.750000 0.250000
#
# Coordination Sequence:
#
# PCOD9545516 Si02
#       7
#    16  16  16  16  16  16  16
#     4   8  16  28  46  75 105 138 176 220 265 315
#     4   9  16  29  50  72 103 145 184 223 272 326
#     4  10  18  31  55  80 103 136 187 236 277 321
#     4  10  22  37  53  77 111 150 184 223 278 331
#     4   9  17  28  48  78 114 150 182 210 249 314
#     4   9  17  31  49  76 109 144 180 220 272 327
#     4   9  20  36  56  79 105 144 187 229 276 331
#
# _framework density 18.601120999999999
#
# number of rings (size 3 to 8) (size 9 to 14) (size 15 to 20)
#    0.000    2.857    0.000    2.143    6.000    0.571 
#    0.000    3.571    0.000    2.571    0.000    1.000 
#    0.000    0.000    0.000    0.000    0.000    0.000 
#
# Total GULP energy -311778.986886 kJ/mol
# GULP energy per Si atom -5567.481909 kJ/mol
# Density = 1.855878 g / cm^3
# Si number density = 18.601121 Si / 1000 Ang^3
#
#
#
# Elastic Constant Matrix: (Units=GPa)
#
#
# Indices 1 2 3 4 5 6 
#
# 1 84.3712 37.9349 7.9678 0.0000 0.0000 -3.1607
# 2 37.9349 84.3712 7.9678 0.0000 0.0000 3.1607
# 3 7.9678 7.9678 88.8403 0.0000 0.0000 0.0000
# 4 0.0000 0.0000 0.0000 18.1311 0.0000 0.0000
# 5 0.0000 0.0000 0.0000 0.0000 18.1311 0.0000
# 6 -3.1607 3.1607 0.0000 0.0000 0.0000 26.4242
#
#
#
# Elastic Compliance Matrix: (Units=1/GPa)
#
#
# Indices 1 2 3 4 5 6 
#
# 1 0.015082 -0.006809 -0.000742 0.000000 0.000000 0.002619
# 2 -0.006809 0.015082 -0.000742 0.000000 0.000000 -0.002619
# 3 -0.000742 -0.000742 0.011389 0.000000 0.000000 0.000000
# 4 0.000000 0.000000 0.000000 0.055154 0.000000 0.000000
# 5 0.000000 0.000000 0.000000 0.000000 0.055154 0.000000
# 6 0.002619 -0.002619 0.000000 0.000000 0.000000 0.038471
#
#
# Mechanical properties :
#
#
# Convention : Reuss Voigt Hill
#
# Bulk Modulus (GPa) = 40.05263 40.59149 40.32206
# Shear Modulus (GPa) = 23.22982 26.11808 24.67395
#
# Velocity S-wave (km/s) = 3.53773 3.75121 3.64603
# Velocity P-wave (km/s) = 6.18599 6.37429 6.28085
#
# Compressibility (1/GPa) = 0.02496715
#
# Stress axis : x y z
#
# Youngs Moduli (GPa) = 66.30369 66.30369 87.80213
#
# Poissons Ratio (x) = 0.45148 0.06515
# Poissons Ratio (y) = 0.45148 0.06515
# Poissons Ratio (z) = 0.04920 0.04920
#
# Static dielectric constant tensor:
#      x y z
#    x 1.681830 0.000000 0.000000 
#    y 0.000000 1.681830 0.000000 
#    z 0.000000 0.000000 1.689150 
# 
# From -- ./inp_files/5454.got.cif
#   From: 2010.05.17/outbox.cif.g08.bks.cpg/sg87_3_cif.got.tgz:5454.got - 2010.06.03 19:07:00.
