data_PCOD9545937
_publ_section_title
;
Structure prediction by ZEFSAII (Michael W. Deem and Ramdas Pophale) SiO2 
 PCOD9545937
Probable space group: I 4/M
;
_chemical_formula_sum "Si O2"
_cell_formula_units_Z 96
_cell_length_a 14.022065
_cell_length_b 14.022065
_cell_length_c 21.497345
_cell_angle_alpha 90.000000
_cell_angle_beta 90.000000
_cell_angle_gamma 90.000000
_cell_volume 4226.771576
_symmetry_space_group_name_H-M "I 4/M"
_symmetry_group_IT_number 87
_symmetry_cell_setting 'tetragonal'
loop_
_space_group_symop_operation_xyz
x,y,z
-y,x,z
-x,-y,z
y,-x,z
-x,-y,-z
y,-x,-z
x,y,-z
-y,x,-z
1/2+x,1/2+y,1/2+z
1/2-y,1/2+x,1/2+z
1/2-x,1/2-y,1/2+z
1/2+y,1/2-x,1/2+z
1/2-x,1/2-y,1/2-z
1/2+y,1/2-x,1/2-z
1/2+x,1/2+y,1/2-z
1/2-y,1/2+x,1/2-z
loop_
_atom_site_type_symbol
_atom_site_label
_atom_site_fract_x
_atom_site_fract_y
_atom_site_fract_z
Si Si1 0.653666 0.518333 0.738478
Si Si2 0.026490 0.260782 0.571180
Si Si3 0.268596 0.310285 0.075440
Si Si4 0.412332 0.060154 0.869076
Si Si5 0.845678 0.316253 0.249729
Si Si6 0.760746 0.422340 0.362869
O O1 0.578680 0.601074 0.756028
O O2 0.750587 0.562630 0.764374
O O3 0.676819 0.488754 0.665808
O O4 0.022716 0.228467 0.500000
O O5 0.124535 0.216117 0.596708
O O6 0.044306 0.372283 0.578822
O O7 0.920413 0.243069 0.595383
O O8 0.179912 0.248830 0.103486
O O9 0.263436 0.302254 0.000000
O O10 0.364749 0.124788 0.815136
O O11 0.500000 0.000000 0.842223
O O12 0.331938 0.992091 0.898310
O O13 0.750000 0.250000 0.250000
O O14 0.820521 0.393094 0.301289
#
# Coordination Sequence:
#
# PCOD9545937 Si02
#       6
#    16  16  16  16  16  16
#     4  10  22  40  61  87 122 168 213 257 314 383
#     4  10  22  41  65  92 126 167 215 269 324 385
#     4  10  22  42  65  92 127 167 216 270 328 386
#     4  11  24  37  60  93 125 163 207 260 319 380
#     4  11  23  40  61  87 128 166 209 262 315 378
#     4  11  23  38  63  90 126 167 209 263 319 387
#
# _framework density 22.712368999999999
#
# number of rings (size 3 to 8) (size 9 to 14) (size 15 to 20)
#    0.000    1.500    3.333    1.000    7.000    1.333 
#    3.000    1.667    0.000    0.000    0.000    1.167 
#    0.000    0.000    0.000    0.000    0.000    0.000 
#
# Total GULP energy -267388.353511 kJ/mol
# GULP energy per Si atom -5570.590698 kJ/mol
# Density = 2.266068 g / cm^3
# Si number density = 22.712369 Si / 1000 Ang^3
#
#
#
# Elastic Constant Matrix: (Units=GPa)
#
#
# Indices 1 2 3 4 5 6 
#
# 1 78.3967 29.6130 3.1244 0.0000 0.0000 1.1075
# 2 29.6130 78.3967 3.1244 0.0000 0.0000 -1.1075
# 3 3.1244 3.1244 36.8716 0.0000 0.0000 0.0000
# 4 0.0000 0.0000 0.0000 22.4994 0.0000 0.0000
# 5 0.0000 0.0000 0.0000 0.0000 22.4994 0.0000
# 6 1.1075 -1.1075 0.0000 0.0000 0.0000 51.3566
#
#
#
# Elastic Compliance Matrix: (Units=1/GPa)
#
#
# Indices 1 2 3 4 5 6 
#
# 1 0.014911 -0.005607 -0.000788 0.000000 0.000000 -0.000442
# 2 -0.005607 0.014911 -0.000788 0.000000 0.000000 0.000442
# 3 -0.000788 -0.000788 0.027255 0.000000 0.000000 0.000000
# 4 0.000000 0.000000 0.000000 0.044446 0.000000 0.000000
# 5 0.000000 0.000000 0.000000 0.000000 0.044446 0.000000
# 6 -0.000442 0.000442 0.000000 0.000000 0.000000 0.019491
#
#
# Mechanical properties :
#
#
# Convention : Reuss Voigt Hill
#
# Bulk Modulus (GPa) = 23.41411 29.48759 26.45085
# Shear Modulus (GPa) = 25.76467 29.79131 27.77799
#
# Velocity S-wave (km/s) = 3.37172 3.62564 3.50098
# Velocity P-wave (km/s) = 5.04870 5.52614 5.29281
#
# Compressibility (1/GPa) = 0.04270929
#
# Stress axis : x y z
#
# Youngs Moduli (GPa) = 67.06285 67.06285 36.69085
#
# Poissons Ratio (x) = 0.37604 0.02893
# Poissons Ratio (y) = 0.37604 0.02893
# Poissons Ratio (z) = 0.05287 0.05287
#
# Static dielectric constant tensor:
#      x y z
#    x 1.907780 0.000000 0.000000 
#    y 0.000000 1.907780 0.000000 
#    z 0.000000 0.000000 1.900750 
# 
# From -- ./inp_files/5297.got.cif
#   From: 2010.05.17/outbox.cif.g08.bks.cpg/sg87_3_cif.got.tgz:5297.got - 2010.06.03 19:07:00.
