data_PCOD9545783
_publ_section_title
;
Structure prediction by ZEFSAII (Michael W. Deem and Ramdas Pophale) SiO2 
 PCOD9545783
Probable space group: I 4/M
;
_chemical_formula_sum "Si O2"
_cell_formula_units_Z 96
_cell_length_a 13.974898
_cell_length_b 13.974898
_cell_length_c 18.891697
_cell_angle_alpha 90.000000
_cell_angle_beta 90.000000
_cell_angle_gamma 90.000000
_cell_volume 3689.506373
_symmetry_space_group_name_H-M "I 4/M"
_symmetry_group_IT_number 87
_symmetry_cell_setting 'tetragonal'
loop_
_space_group_symop_operation_xyz
x,y,z
-y,x,z
-x,-y,z
y,-x,z
-x,-y,-z
y,-x,-z
x,y,-z
-y,x,-z
1/2+x,1/2+y,1/2+z
1/2-y,1/2+x,1/2+z
1/2-x,1/2-y,1/2+z
1/2+y,1/2-x,1/2+z
1/2-x,1/2-y,1/2-z
1/2+y,1/2-x,1/2-z
1/2+x,1/2+y,1/2-z
1/2-y,1/2+x,1/2-z
loop_
_atom_site_type_symbol
_atom_site_label
_atom_site_fract_x
_atom_site_fract_y
_atom_site_fract_z
Si Si1 0.389378 0.604714 0.896384
Si Si2 0.113577 0.116508 0.919550
Si Si3 0.731576 0.878962 0.814449
Si Si4 0.390653 0.004287 0.082585
Si Si5 0.443672 0.250618 0.209856
Si Si6 0.299370 0.087140 0.419294
O O1 0.375009 0.497494 0.921287
O O2 0.356838 0.590122 0.814957
O O3 0.345011 0.705582 0.916702
O O4 0.171571 0.156687 0.851915
O O5 0.999145 0.130369 0.915292
O O6 0.142664 0.146600 0.000000
O O7 0.654299 0.808068 0.777568
O O8 0.670360 0.917195 0.880216
O O9 0.748364 0.973702 0.767499
O O10 0.355532 0.896312 0.094532
O O11 0.500000 0.000000 0.109024
O O12 0.392078 0.023325 0.000000
O O13 0.503601 0.210911 0.140225
O O14 0.309291 0.049167 0.500000
#
# Coordination Sequence:
#
# PCOD9545783 Si02
#       6
#    16  16  16  16  16  16
#     4   9  21  43  65  90 129 172 222 284 342 403
#     4   9  21  44  71  97 126 167 225 289 350 408
#     4  12  24  40  67  96 138 183 223 279 348 408
#     4  10  20  37  63  96 134 176 223 280 343 407
#     4  11  25  40  62  98 135 180 235 279 337 420
#     4  10  21  40  65  93 129 175 230 285 346 413
#
# _framework density 26.019739999999999
#
# number of rings (size 3 to 8) (size 9 to 14) (size 15 to 20)
#    0.000    1.833    1.667    2.000    0.000    7.333 
#    0.000   13.333    0.000    0.000    0.000    0.000 
#    0.000    0.000    0.000    0.000    0.000    0.000 
#
# Total GULP energy -267737.837323 kJ/mol
# GULP energy per Si atom -5577.871611 kJ/mol
# Density = 2.596052 g / cm^3
# Si number density = 26.019740 Si / 1000 Ang^3
#
#
#
# Elastic Constant Matrix: (Units=GPa)
#
#
# Indices 1 2 3 4 5 6 
#
# 1 99.3972 -3.3480 30.4021 0.0000 0.0000 -1.4519
# 2 -3.3480 99.3972 30.4021 0.0000 0.0000 1.4519
# 3 30.4021 30.4021 94.0896 0.0000 0.0000 0.0000
# 4 0.0000 0.0000 0.0000 74.1322 0.0000 0.0000
# 5 0.0000 0.0000 0.0000 0.0000 74.1321 0.0000
# 6 -1.4519 1.4519 0.0000 0.0000 0.0000 26.1441
#
#
#
# Elastic Compliance Matrix: (Units=1/GPa)
#
#
# Indices 1 2 3 4 5 6 
#
# 1 0.011418 0.001670 -0.004229 0.000000 0.000000 0.000541
# 2 0.001670 0.011418 -0.004229 0.000000 0.000000 -0.000541
# 3 -0.004229 -0.004229 0.013361 0.000000 0.000000 0.000000
# 4 0.000000 0.000000 0.000000 0.013489 0.000000 0.000000
# 5 0.000000 0.000000 0.000000 0.000000 0.013489 0.000000
# 6 0.000541 -0.000541 0.000000 0.000000 0.000000 0.038310
#
#
# Mechanical properties :
#
#
# Convention : Reuss Voigt Hill
#
# Bulk Modulus (GPa) = 44.20522 45.31068 44.75795
# Shear Modulus (GPa) = 40.78195 50.57686 45.67941
#
# Velocity S-wave (km/s) = 3.96327 4.41362 4.19449
# Velocity P-wave (km/s) = 6.16192 6.58978 6.37944
#
# Compressibility (1/GPa) = 0.02262177
#
# Stress axis : x y z
#
# Youngs Moduli (GPa) = 87.57821 87.57821 74.84350
#
# Poissons Ratio (x) = -0.14628 0.31653
# Poissons Ratio (y) = -0.14628 0.31653
# Poissons Ratio (z) = 0.37038 0.37038
#
# Static dielectric constant tensor:
#      x y z
#    x 2.126820 0.000000 0.000000 
#    y 0.000000 2.126820 0.000000 
#    z 0.000000 0.000000 2.059240 
# 
# From -- ./inp_files/5257.got.cif
#   From: 2010.05.17/outbox.cif.g08.bks.cpg/sg87_3_cif.got.tgz:5257.got - 2010.06.03 19:07:00.
