data_PCOD9545616
_publ_section_title
;
Structure prediction by ZEFSAII (Michael W. Deem and Ramdas Pophale) SiO2 
 PCOD9545616
Probable space group: I 4/M
;
_chemical_formula_sum "Si O2"
_cell_formula_units_Z 80
_cell_length_a 16.786398
_cell_length_b 16.786398
_cell_length_c 15.245653
_cell_angle_alpha 90.000000
_cell_angle_beta 90.000000
_cell_angle_gamma 90.000000
_cell_volume 4295.968245
_symmetry_space_group_name_H-M "I 4/M"
_symmetry_group_IT_number 87
_symmetry_cell_setting 'tetragonal'
loop_
_space_group_symop_operation_xyz
x,y,z
-y,x,z
-x,-y,z
y,-x,z
-x,-y,-z
y,-x,-z
x,y,-z
-y,x,-z
1/2+x,1/2+y,1/2+z
1/2-y,1/2+x,1/2+z
1/2-x,1/2-y,1/2+z
1/2+y,1/2-x,1/2+z
1/2-x,1/2-y,1/2-z
1/2+y,1/2-x,1/2-z
1/2+x,1/2+y,1/2-z
1/2-y,1/2+x,1/2-z
loop_
_atom_site_type_symbol
_atom_site_label
_atom_site_fract_x
_atom_site_fract_y
_atom_site_fract_z
Si Si1 0.092418 0.443591 0.700180
Si Si2 0.693715 0.026234 0.399731
Si Si3 0.870719 0.036649 0.901908
Si Si4 0.623323 0.720354 0.745356
Si Si5 0.371222 0.774764 0.204052
O O1 0.087130 0.537764 0.716397
O O2 0.052347 0.398135 0.619589
O O3 0.181725 0.414495 0.713812
O O4 0.714242 0.041321 0.500000
O O5 0.742398 0.079458 0.329736
O O6 0.710810 0.934636 0.373195
O O7 0.812905 0.060727 0.824056
O O8 0.947669 0.094604 0.895507
O O9 0.836104 0.046446 0.000000
O O10 0.684168 0.651978 0.777607
O O11 0.677302 0.788030 0.698348
#
# Coordination Sequence:
#
# PCOD9545616 Si02
#       5
#    16  16  16  16  16
#     4   8  15  32  53  71  97 131 166 208 252 296
#     4  10  20  33  51  75 105 139 172 205 248 305
#     4   9  18  33  54  79 103 129 166 211 258 306
#     4  10  19  34  54  74 103 137 169 211 257 298
#     4   9  19  33  51  73  98 133 172 208 248 294
#
# _framework density 18.622111
#
# number of rings (size 3 to 8) (size 9 to 14) (size 15 to 20)
#    0.000    2.800    0.000    1.800    0.000    1.600 
#    0.000   16.000    0.000   15.600    0.000    4.200 
#    0.000    0.000    0.000    0.000    0.000    0.000 
#
# Total GULP energy -222686.996005 kJ/mol
# GULP energy per Si atom -5567.174900 kJ/mol
# Density = 1.857973 g / cm^3
# Si number density = 18.622111 Si / 1000 Ang^3
#
#
#
# Elastic Constant Matrix: (Units=GPa)
#
#
# Indices 1 2 3 4 5 6 
#
# 1 57.5176 19.6359 32.9022 0.0000 0.0000 -4.8741
# 2 19.6359 57.5176 32.9022 0.0000 0.0000 4.8741
# 3 32.9022 32.9022 122.2665 0.0000 0.0000 0.0000
# 4 0.0000 0.0000 0.0000 20.5466 0.0000 0.0000
# 5 0.0000 0.0000 0.0000 0.0000 20.5466 0.0000
# 6 -4.8741 4.8741 0.0000 0.0000 0.0000 34.1095
#
#
#
# Elastic Compliance Matrix: (Units=1/GPa)
#
#
# Indices 1 2 3 4 5 6 
#
# 1 0.022114 -0.005292 -0.004527 0.000000 0.000000 0.003916
# 2 -0.005292 0.022114 -0.004527 0.000000 0.000000 -0.003916
# 3 -0.004527 -0.004527 0.010615 0.000000 0.000000 0.000000
# 4 0.000000 0.000000 0.000000 0.048670 0.000000 0.000000
# 5 0.000000 0.000000 0.000000 0.000000 0.048670 0.000000
# 6 0.003916 -0.003916 0.000000 0.000000 0.000000 0.030437
#
#
# Mechanical properties :
#
#
# Convention : Reuss Voigt Hill
#
# Bulk Modulus (GPa) = 38.23795 45.35359 41.79577
# Shear Modulus (GPa) = 22.72441 25.16464 23.94452
#
# Velocity S-wave (km/s) = 3.49706 3.68003 3.58971
# Velocity P-wave (km/s) = 6.07323 6.51647 6.29875
#
# Compressibility (1/GPa) = 0.02615203
#
# Stress axis : x y z
#
# Youngs Moduli (GPa) = 45.22034 45.22034 94.20415
#
# Poissons Ratio (x) = 0.23930 0.42645
# Poissons Ratio (y) = 0.23930 0.42645
# Poissons Ratio (z) = 0.20471 0.20471
#
# Static dielectric constant tensor:
#      x y z
#    x 1.689000 0.000000 0.000000 
#    y 0.000000 1.689000 0.000000 
#    z 0.000000 0.000000 1.608460 
# 
# From -- ./inp_files/3490.got.cif
#   From: 2010.05.17/outbox.cif.g08.bks.cpg/sg87_2_cif.got.tgz:3490.got - 2010.06.03 19:07:00.
