data_PCOD9545088
_publ_section_title
;
Structure prediction by ZEFSAII (Michael W. Deem and Ramdas Pophale) SiO2 
 PCOD9545088
Probable space group: P 42/N
;
_chemical_formula_sum "Si O2"
_cell_formula_units_Z 34
_cell_length_a 11.526738
_cell_length_b 11.526738
_cell_length_c 10.933449
_cell_angle_alpha 90.000000
_cell_angle_beta 90.000000
_cell_angle_gamma 90.000000
_cell_volume 1452.680234
_symmetry_space_group_name_H-M "P 42/N"
_symmetry_group_IT_number 86
_space_group.IT_coordinate_system_code '2'
_symmetry_cell_setting 'tetragonal'
loop_
_space_group_symop_operation_xyz
x,y,z
-y,1/2+x,1/2+z
1/2-x,1/2-y,z
1/2+y,-x,1/2+z
-x,-y,-z
y,1/2-x,1/2-z
1/2+x,1/2+y,-z
1/2-y,x,1/2-z
loop_
_atom_site_type_symbol
_atom_site_label
_atom_site_fract_x
_atom_site_fract_y
_atom_site_fract_z
Si Si1 0.750000 0.750000 0.750000
Si Si2 0.427480 0.576735 0.902925
Si Si3 0.678572 0.428126 0.489154
Si Si4 0.126076 0.456238 0.142638
Si Si5 0.061053 0.268951 0.749114
O O1 0.636726 0.727446 0.667025
O O2 0.501506 0.585746 0.777003
O O3 0.311870 0.509170 0.866219
O O4 0.500000 0.500000 0.000000
O O5 0.391164 0.707554 0.937790
O O6 0.613575 0.524876 0.571889
O O7 0.574834 0.350900 0.432362
O O8 0.737845 0.484051 0.368816
O O9 0.153730 0.369417 0.777010
#
# Coordination Sequence:
#
# PCOD9545088 Si02
#       5
#     2   8   8   8   8
#     4  12  20  40  72 108 130 200 256 296 356 474
#     4  11  21  40  67 102 143 190 238 300 377 452
#     4  10  21  42  64 102 148 181 240 316 359 443
#     4  10  23  38  68 107 139 182 251 302 364 432
#     4  10  21  37  64 103 140 188 243 302 375 450
#
# _framework density 23.405011999999999
#
# number of rings (size 3 to 8) (size 9 to 14) (size 15 to 20)
#    0.000    1.647    4.706    0.000    0.000    3.765 
#    0.000    0.000    0.000   28.235    0.000    0.000 
#    0.000    0.000    0.000    0.000    0.000    1.412 
#
# Total GULP energy -190058.839953 kJ/mol
# GULP energy per Si atom -5589.965881 kJ/mol
# Density = 2.335174 g / cm^3
# Si number density = 23.405012 Si / 1000 Ang^3
#
#
#
# Elastic Constant Matrix: (Units=GPa)
#
#
# Indices 1 2 3 4 5 6 
#
# 1 80.1516 45.5677 17.1133 0.0000 0.0000 -10.0695
# 2 45.5677 80.1516 17.1133 0.0000 0.0000 10.0695
# 3 17.1133 17.1133 96.7663 0.0000 0.0000 0.0000
# 4 0.0000 0.0000 0.0000 34.9646 0.0000 0.0000
# 5 0.0000 0.0000 0.0000 0.0000 34.9646 0.0000
# 6 -10.0695 10.0695 0.0000 0.0000 0.0000 20.2960
#
#
#
# Elastic Compliance Matrix: (Units=1/GPa)
#
#
# Indices 1 2 3 4 5 6 
#
# 1 0.024510 -0.016153 -0.001478 0.000000 0.000000 0.020174
# 2 -0.016153 0.024510 -0.001478 0.000000 0.000000 -0.020174
# 3 -0.001478 -0.001478 0.010857 0.000000 0.000000 0.000000
# 4 0.000000 0.000000 0.000000 0.028600 0.000000 0.000000
# 5 0.000000 0.000000 0.000000 0.000000 0.028600 0.000000
# 6 0.020174 -0.020174 0.000000 0.000000 0.000000 0.069289
#
#
# Mechanical properties :
#
#
# Convention : Reuss Voigt Hill
#
# Bulk Modulus (GPa) = 46.17115 46.29536 46.23326
# Shear Modulus (GPa) = 21.56993 29.86337 25.71665
#
# Velocity S-wave (km/s) = 3.03907 3.57590 3.31836
# Velocity P-wave (km/s) = 5.66432 6.07227 5.87184
#
# Compressibility (1/GPa) = 0.02165854
#
# Stress axis : x y z
#
# Youngs Moduli (GPa) = 40.79984 40.79984 92.10723
#
# Poissons Ratio (x) = 0.65905 0.13612
# Poissons Ratio (y) = 0.65905 0.13612
# Poissons Ratio (z) = 0.06030 0.06030
#
# Static dielectric constant tensor:
#      x y z
#    x 1.918220 0.000000 0.000000 
#    y 0.000000 1.918220 0.000000 
#    z 0.000000 0.000000 1.873010 
# 
# From -- ./inp_files/1940.got.cif
#   From: 2010.05.17/outbox.cif.g08.bks.cpg/sg86_1_cif.got.tgz:1940.got - 2010.06.03 19:03:11.
