data_PCOD9545102
_publ_section_title
;
Structure prediction by ZEFSAII (Michael W. Deem and Ramdas Pophale) SiO2 
 PCOD9545102
Probable space group: P 42/N
;
_chemical_formula_sum "Si O2"
_cell_formula_units_Z 40
_cell_length_a 8.907850
_cell_length_b 8.907850
_cell_length_c 25.080983
_cell_angle_alpha 90.000000
_cell_angle_beta 90.000000
_cell_angle_gamma 90.000000
_cell_volume 1990.170775
_symmetry_space_group_name_H-M "P 42/N"
_symmetry_group_IT_number 86
_space_group.IT_coordinate_system_code '2'
_symmetry_cell_setting 'tetragonal'
loop_
_space_group_symop_operation_xyz
x,y,z
-y,1/2+x,1/2+z
1/2-x,1/2-y,z
1/2+y,-x,1/2+z
-x,-y,-z
y,1/2-x,1/2-z
1/2+x,1/2+y,-z
1/2-y,x,1/2-z
loop_
_atom_site_type_symbol
_atom_site_label
_atom_site_fract_x
_atom_site_fract_y
_atom_site_fract_z
Si Si1 0.421098 0.444724 0.174981
Si Si2 0.332765 0.587518 0.286069
Si Si3 0.311019 0.585260 0.957847
Si Si4 0.670104 0.589740 0.938674
Si Si5 0.752432 0.926259 0.148786
O O1 0.353728 0.515685 0.228135
O O2 0.469035 0.270741 0.182294
O O3 0.320060 0.462668 0.122582
O O4 0.582082 0.522444 0.166547
O O5 0.250000 0.750000 0.282712
O O6 0.486579 0.627788 0.316503
O O7 0.250000 0.750000 0.948232
O O8 0.490802 0.596933 0.949942
O O9 0.242975 0.476885 0.912756
O O10 0.272022 0.524107 0.016353
O O11 0.750000 0.750000 0.944897
O O12 0.750000 0.750000 0.154960
#
# Coordination Sequence:
#
# PCOD9545102 Si02
#       5
#     8   8   8   8   8
#     4  10  23  39  59  89 126 164 209 266 315 380
#     4  10  23  39  59  90 127 166 213 262 322 380
#     4  10  21  42  63  92 129 162 210 267 318 377
#     4  10  22  39  62  90 123 164 213 254 316 386
#     4  10  21  38  66  91 122 166 212 263 317 386
#
# _framework density 20.098779
#
# number of rings (size 3 to 8) (size 9 to 14) (size 15 to 20)
#    0.000    2.000    0.000    3.600    8.400    1.600 
#    0.000    6.000    0.000    0.000    0.000    0.000 
#    0.000    0.000    0.000    0.000    0.000    0.000 
#
# Total GULP energy -223407.651624 kJ/mol
# GULP energy per Si atom -5585.191291 kJ/mol
# Density = 2.005303 g / cm^3
# Si number density = 20.098779 Si / 1000 Ang^3
#
#
#
# Elastic Constant Matrix: (Units=GPa)
#
#
# Indices 1 2 3 4 5 6 
#
# 1 66.5078 5.0428 33.6696 0.0000 0.0000 0.9759
# 2 5.0428 66.5078 33.6696 0.0000 0.0000 -0.9759
# 3 33.6696 33.6696 130.1507 0.0000 0.0000 0.0000
# 4 0.0000 0.0000 0.0000 20.0028 0.0000 0.0000
# 5 0.0000 0.0000 0.0000 0.0000 20.0028 0.0000
# 6 0.9759 -0.9759 0.0000 0.0000 0.0000 17.4729
#
#
#
# Elastic Compliance Matrix: (Units=1/GPa)
#
#
# Indices 1 2 3 4 5 6 
#
# 1 0.017386 0.001088 -0.004779 0.000000 0.000000 -0.000910
# 2 0.001088 0.017386 -0.004779 0.000000 0.000000 0.000910
# 3 -0.004779 -0.004779 0.010156 0.000000 0.000000 0.000000
# 4 0.000000 0.000000 0.000000 0.049993 0.000000 0.000000
# 5 0.000000 0.000000 0.000000 0.000000 0.049993 0.000000
# 6 -0.000910 0.000910 0.000000 0.000000 0.000000 0.057333
#
#
# Mechanical properties :
#
#
# Convention : Reuss Voigt Hill
#
# Bulk Modulus (GPa) = 35.73035 45.32559 40.52797
# Shear Modulus (GPa) = 21.88011 24.21463 23.04737
#
# Velocity S-wave (km/s) = 3.30302 3.47476 3.38998
# Velocity P-wave (km/s) = 5.68881 6.22085 5.96077
#
# Compressibility (1/GPa) = 0.02798741
#
# Stress axis : x y z
#
# Youngs Moduli (GPa) = 57.51703 57.51703 98.46289
#
# Poissons Ratio (x) = -0.06257 0.47057
# Poissons Ratio (y) = -0.06257 0.47057
# Poissons Ratio (z) = 0.27488 0.27488
#
# Static dielectric constant tensor:
#      x y z
#    x 1.697400 0.000000 0.000000 
#    y 0.000000 1.697400 0.000000 
#    z 0.000000 0.000000 1.733530 
# 
# From -- ./inp_files/4463.got.cif
#   From: 2010.05.17/outbox.cif.g08.bks.cpg/sg86_3_cif.got.tgz:4463.got - 2010.06.03 19:03:11.
