data_PCOD9545346
_publ_section_title
;
Structure prediction by ZEFSAII (Michael W. Deem and Ramdas Pophale) SiO2 
 PCOD9545346
Probable space group: P 42/N
;
_chemical_formula_sum "Si O2"
_cell_formula_units_Z 60
_cell_length_a 10.637299
_cell_length_b 10.637299
_cell_length_c 22.117491
_cell_angle_alpha 90.000000
_cell_angle_beta 90.000000
_cell_angle_gamma 90.000000
_cell_volume 2502.641217
_symmetry_space_group_name_H-M "P 42/N"
_symmetry_group_IT_number 86
_space_group.IT_coordinate_system_code '2'
_symmetry_cell_setting 'tetragonal'
loop_
_space_group_symop_operation_xyz
x,y,z
-y,1/2+x,1/2+z
1/2-x,1/2-y,z
1/2+y,-x,1/2+z
-x,-y,-z
y,1/2-x,1/2-z
1/2+x,1/2+y,-z
1/2-y,x,1/2-z
loop_
_atom_site_type_symbol
_atom_site_label
_atom_site_fract_x
_atom_site_fract_y
_atom_site_fract_z
Si Si1 0.170387 0.124060 0.017207
Si Si2 0.556522 0.129908 0.375024
Si Si3 0.014028 0.657948 0.393026
Si Si4 0.250000 0.750000 0.539602
Si Si5 0.935026 0.255153 0.055225
Si Si6 0.105966 0.306229 0.163724
Si Si7 0.951157 0.720528 0.267443
Si Si8 0.049146 0.822292 0.731371
O O1 0.250000 0.250000 0.015442
O O2 0.194310 0.047677 0.956437
O O3 0.023356 0.159910 0.017225
O O4 0.187891 0.052334 0.080938
O O5 0.675561 0.161452 0.415430
O O6 0.570217 0.199923 0.311108
O O7 0.529851 0.982289 0.373407
O O8 0.976162 0.746529 0.338164
O O9 0.162072 0.647048 0.403566
O O10 0.321087 0.653946 0.493730
O O11 0.035204 0.318939 0.099529
O O12 0.250000 0.250000 0.165093
O O13 0.106343 0.441245 0.194416
O O14 0.019170 0.218117 0.206405
O O15 0.844336 0.611763 0.260859
O O16 0.082756 0.665091 0.241796
#
# Coordination Sequence:
#
# PCOD9545346 Si02
#       8
#     8   8   8   4   8   8   8   8
#     4  11  22  40  70  99 130 181 229 272 338 407
#     4  11  24  43  70 102 136 175 230 287 340 405
#     4  11  21  46  70  94 132 186 233 267 340 415
#     4  12  24  44  64 100 144 174 226 292 340 406
#     4  11  22  42  68  99 136 179 223 278 340 402
#     4  12  22  42  74 108 139 171 230 293 341 400
#     4  11  28  48  67  97 139 182 230 282 339 418
#     4  12  23  43  72 103 135 177 224 288 345 400
#
# _framework density 23.974668999999999
#
# number of rings (size 3 to 8) (size 9 to 14) (size 15 to 20)
#    0.000    0.667    5.333    4.400    3.733    1.600 
#    0.000    1.333    0.000    0.000    0.000    0.000 
#    0.000    0.000    0.000    0.000    0.000    0.000 
#
# Total GULP energy -335375.538876 kJ/mol
# GULP energy per Si atom -5589.592315 kJ/mol
# Density = 2.392010 g / cm^3
# Si number density = 23.974669 Si / 1000 Ang^3
#
#
#
# Elastic Constant Matrix: (Units=GPa)
#
#
# Indices 1 2 3 4 5 6 
#
# 1 56.6641 21.1800 24.5603 0.0000 0.0000 -5.9088
# 2 21.1800 56.6641 24.5603 0.0000 0.0000 5.9088
# 3 24.5603 24.5603 118.6275 0.0000 0.0000 0.0000
# 4 0.0000 0.0000 0.0000 -93.3018 0.0000 0.0000
# 5 0.0000 0.0000 0.0000 0.0000 -93.3018 0.0000
# 6 -5.9088 5.9088 0.0000 0.0000 0.0000 41.2530
#
#
#
# Elastic Compliance Matrix: (Units=1/GPa)
#
#
# Indices 1 2 3 4 5 6 
#
# 1 0.022185 -0.007408 -0.003059 0.000000 0.000000 0.004239
# 2 -0.007408 0.022185 -0.003059 0.000000 0.000000 -0.004239
# 3 -0.003059 -0.003059 0.009697 0.000000 0.000000 0.000000
# 4 0.000000 0.000000 0.000000 -0.010718 0.000000 0.000000
# 5 0.000000 0.000000 0.000000 0.000000 -0.010718 0.000000
# 6 0.004239 -0.004239 0.000000 0.000000 0.000000 0.025455
#
#
# Mechanical properties :
#
#
# Convention : Reuss Voigt Hill
#
# Bulk Modulus (GPa) = 37.01977 41.39519 39.20748
# Shear Modulus (GPa) = 53.11033 -18.29309 17.40862
#
# Velocity S-wave (km/s) = 4.71177 -2.76527 2.69760
# Velocity P-wave (km/s) = 6.71385 2.66609 5.10802
#
# Compressibility (1/GPa) = 0.02701260
#
# Stress axis : x y z
#
# Youngs Moduli (GPa) = 45.07555 45.07555 103.12967
#
# Poissons Ratio (x) = 0.33393 0.31551
# Poissons Ratio (y) = 0.33393 0.31551
# Poissons Ratio (z) = 0.13790 0.13790
#
# Static dielectric constant tensor:
#      x y z
#    x 1.974370 0.000000 0.000000 
#    y 0.000000 1.974370 0.000000 
#    z 0.000000 0.000000 1.921330 
# 
# From -- ./inp_files/4260.got.cif
#   From: 2010.05.17/outbox.cif.g08.bks.cpg/sg86_3_cif.got.tgz:4260.got - 2010.06.03 19:03:11.
