data_PCOD9545498
_publ_section_title
;
Structure prediction by ZEFSAII (Michael W. Deem and Ramdas Pophale) SiO2 
 PCOD9545498
Probable space group: I 4/M
;
_chemical_formula_sum "Si O2"
_cell_formula_units_Z 104
_cell_length_a 26.790834
_cell_length_b 26.790834
_cell_length_c 7.423816
_cell_angle_alpha 90.000000
_cell_angle_beta 90.000000
_cell_angle_gamma 90.000000
_cell_volume 5328.434925
_symmetry_space_group_name_H-M "I 4/M"
_symmetry_group_IT_number 87
_symmetry_cell_setting 'tetragonal'
loop_
_space_group_symop_operation_xyz
x,y,z
-y,x,z
-x,-y,z
y,-x,z
-x,-y,-z
y,-x,-z
x,y,-z
-y,x,-z
1/2+x,1/2+y,1/2+z
1/2-y,1/2+x,1/2+z
1/2-x,1/2-y,1/2+z
1/2+y,1/2-x,1/2+z
1/2-x,1/2-y,1/2-z
1/2+y,1/2-x,1/2-z
1/2+x,1/2+y,1/2-z
1/2-y,1/2+x,1/2-z
loop_
_atom_site_type_symbol
_atom_site_label
_atom_site_fract_x
_atom_site_fract_y
_atom_site_fract_z
Si Si1 0.005389 0.084240 0.500000
Si Si2 0.517141 0.333137 0.716990
Si Si3 0.012020 0.279219 0.780648
Si Si4 0.126522 0.797469 0.780903
Si Si5 0.811437 0.595033 0.284277
Si Si6 0.181499 0.616832 0.285656
Si Si7 0.764276 0.192781 0.784443
O O1 0.005060 0.120965 0.327474
O O2 0.050934 0.045155 0.500000
O O3 0.513508 0.339746 0.500000
O O4 0.492077 0.279636 0.764177
O O5 0.575769 0.325940 0.767626
O O6 0.961712 0.306925 0.719379
O O7 0.062015 0.305811 0.715817
O O8 0.011422 0.280382 0.000000
O O9 0.121820 0.739667 0.721406
O O10 0.179658 0.817842 0.718060
O O11 0.126940 0.797225 0.000000
O O12 0.808297 0.593634 0.500000
O O13 0.859866 0.627046 0.240714
O O14 0.188682 0.614203 0.500000
O O15 0.221822 0.656311 0.212241
O O16 0.750000 0.250000 0.750000
O O17 0.765572 0.186650 0.000000
#
# Coordination Sequence:
#
# PCOD9545498 Si02
#       7
#     8  16  16  16  16  16  16
#     4  11  26  44  60  86 120 144 190 259 298 336
#     4   9  19  40  65  83 108 153 196 233 292 347
#     4   8  17  35  56  77 105 144 187 228 269 331
#     4   8  15  30  52  75 103 143 182 214 258 335
#     4   9  16  31  51  69 100 139 175 214 264 322
#     4  10  19  30  48  76 105 135 173 221 271 322
#     4  10  18  28  43  70 107 137 165 207 262 330
#
# _framework density 19.517927
#
# number of rings (size 3 to 8) (size 9 to 14) (size 15 to 20)
#    0.000    2.846    1.538    1.846    0.000    1.846 
#    8.308    3.846    0.000    0.462    0.000    3.231 
#    0.000    0.000    0.000    0.000    0.000    0.000 
#
# Total GULP energy -290059.578364 kJ/mol
# GULP energy per Si atom -5578.068815 kJ/mol
# Density = 1.947350 g / cm^3
# Si number density = 19.517927 Si / 1000 Ang^3
#
#
#
# Elastic Constant Matrix: (Units=GPa)
#
#
# Indices 1 2 3 4 5 6 
#
# 1 123.5899 67.0626 17.7917 0.0000 0.0000 10.0932
# 2 67.0626 123.5899 17.7917 0.0000 0.0000 -10.0932
# 3 17.7917 17.7917 73.5309 0.0000 0.0000 0.0000
# 4 0.0000 0.0000 0.0000 15.1581 0.0000 0.0000
# 5 0.0000 0.0000 0.0000 0.0000 15.1581 0.0000
# 6 10.0932 -10.0932 0.0000 0.0000 0.0000 25.2843
#
#
#
# Elastic Compliance Matrix: (Units=1/GPa)
#
#
# Indices 1 2 3 4 5 6 
#
# 1 0.013062 -0.007569 -0.001329 0.000000 0.000000 -0.008236
# 2 -0.007569 0.013062 -0.001329 0.000000 0.000000 0.008236
# 3 -0.001329 -0.001329 0.014243 0.000000 0.000000 0.000000
# 4 0.000000 0.000000 0.000000 0.065971 0.000000 0.000000
# 5 0.000000 0.000000 0.000000 0.000000 0.065971 0.000000
# 6 -0.008236 0.008236 0.000000 0.000000 0.000000 0.046126
#
#
# Mechanical properties :
#
#
# Convention : Reuss Voigt Hill
#
# Bulk Modulus (GPa) = 50.21908 58.44478 54.33193
# Shear Modulus (GPa) = 20.36418 25.65772 23.01095
#
# Velocity S-wave (km/s) = 3.23361 3.62964 3.43733
# Velocity P-wave (km/s) = 6.30295 6.89745 6.60689
#
# Compressibility (1/GPa) = 0.01991275
#
# Stress axis : x y z
#
# Youngs Moduli (GPa) = 76.55526 76.55526 70.21026
#
# Poissons Ratio (x) = 0.57947 0.09332
# Poissons Ratio (y) = 0.57947 0.09332
# Poissons Ratio (z) = 0.10175 0.10175
#
# Static dielectric constant tensor:
#      x y z
#    x 1.687950 0.000000 0.000000 
#    y 0.000000 1.687950 0.000000 
#    z 0.000000 0.000000 1.714430 
# 
# From -- ./inp_files/1641.got.cif
#   From: 2010.05.17/outbox.cif.g08.bks.cpg/sg87_1_cif.got.tgz:1641.got - 2010.06.03 19:07:00.
