data_PCOD9545086
_publ_section_title
;
Structure prediction by ZEFSAII (Michael W. Deem and Ramdas Pophale) SiO2 
 PCOD9545086
Probable space group: P 42/N
;
_chemical_formula_sum "Si O2"
_cell_formula_units_Z 48
_cell_length_a 10.914234
_cell_length_b 10.914234
_cell_length_c 20.533880
_cell_angle_alpha 90.000000
_cell_angle_beta 90.000000
_cell_angle_gamma 90.000000
_cell_volume 2446.006131
_symmetry_space_group_name_H-M "P 42/N"
_symmetry_group_IT_number 86
_space_group.IT_coordinate_system_code '2'
_symmetry_cell_setting 'tetragonal'
loop_
_space_group_symop_operation_xyz
x,y,z
-y,1/2+x,1/2+z
1/2-x,1/2-y,z
1/2+y,-x,1/2+z
-x,-y,-z
y,1/2-x,1/2-z
1/2+x,1/2+y,-z
1/2-y,x,1/2-z
loop_
_atom_site_type_symbol
_atom_site_label
_atom_site_fract_x
_atom_site_fract_y
_atom_site_fract_z
Si Si1 0.678911 0.582389 0.778282
Si Si2 0.755732 0.029504 0.916422
Si Si3 0.585054 0.610269 0.474257
Si Si4 0.935840 0.243735 0.910351
Si Si5 0.616701 0.980441 0.286310
Si Si6 0.603207 0.739489 0.344435
O O1 0.602874 0.708554 0.771281
O O2 0.728808 0.546054 0.849644
O O3 0.587615 0.472007 0.763788
O O4 0.874409 0.114740 0.930712
O O5 0.654699 0.138915 0.910418
O O6 0.714343 0.934979 0.971908
O O7 0.500000 0.500000 0.500000
O O8 0.715427 0.547934 0.456600
O O9 0.546312 0.669377 0.405380
O O10 0.969916 0.221243 0.834859
O O11 0.553560 0.875913 0.330751
O O12 0.668238 0.918882 0.222089
O O13 0.750000 0.750000 0.354625
#
# Coordination Sequence:
#
# PCOD9545086 Si02
#       6
#     8   8   8   8   8   8
#     4  10  24  43  60  87 128 177 221 252 318 393
#     4   9  20  39  63  87 127 172 217 257 317 398
#     4  10  21  37  62  90 127 170 205 259 327 394
#     4   9  18  37  66  93 122 167 210 265 330 376
#     4  11  21  38  68  94 129 157 211 283 318 378
#     4  12  21  37  63 103 123 151 211 270 331 371
#
# _framework density 19.623826000000001
#
# number of rings (size 3 to 8) (size 9 to 14) (size 15 to 20)
#    0.000    1.833    3.333    0.000    7.000    0.000 
#    3.000    6.667    7.333    0.000    0.000    0.000 
#    0.000    0.000    0.000    0.000    0.000    0.000 
#
# Total GULP energy -267332.489661 kJ/mol
# GULP energy per Si atom -5569.426868 kJ/mol
# Density = 1.957916 g / cm^3
# Si number density = 19.623826 Si / 1000 Ang^3
#
#
#
# Elastic Constant Matrix: (Units=GPa)
#
#
# Indices 1 2 3 4 5 6 
#
# 1 72.4966 42.2032 57.9944 0.0000 0.0000 10.7139
# 2 42.2032 72.4966 57.9944 0.0000 0.0000 -10.7139
# 3 57.9944 57.9944 113.1326 0.0000 0.0000 0.0000
# 4 0.0000 0.0000 0.0000 33.5668 0.0000 0.0000
# 5 0.0000 0.0000 0.0000 0.0000 33.5668 0.0000
# 6 10.7139 -10.7139 0.0000 0.0000 0.0000 27.6529
#
#
#
# Elastic Compliance Matrix: (Units=1/GPa)
#
#
# Indices 1 2 3 4 5 6 
#
# 1 0.031787 -0.013685 -0.009280 0.000000 0.000000 -0.017618
# 2 -0.013685 0.031787 -0.009280 0.000000 0.000000 0.017618
# 3 -0.009280 -0.009280 0.018353 0.000000 0.000000 0.000000
# 4 0.000000 0.000000 0.000000 0.029791 0.000000 0.000000
# 5 0.000000 0.000000 0.000000 0.000000 0.029791 0.000000
# 6 -0.017618 0.017618 0.000000 0.000000 0.000000 0.049814
#
#
# Mechanical properties :
#
#
# Convention : Reuss Voigt Hill
#
# Bulk Modulus (GPa) = 57.34230 63.83443 60.58836
# Shear Modulus (GPa) = 19.11120 25.61956 22.36538
#
# Velocity S-wave (km/s) = 3.12409 3.61714 3.37961
# Velocity P-wave (km/s) = 6.50365 7.07422 6.79492
#
# Compressibility (1/GPa) = 0.01743913
#
# Stress axis : x y z
#
# Youngs Moduli (GPa) = 31.45907 31.45907 54.48654
#
# Poissons Ratio (x) = 0.43052 0.50562
# Poissons Ratio (y) = 0.43052 0.50562
# Poissons Ratio (z) = 0.29193 0.29193
#
# Static dielectric constant tensor:
#      x y z
#    x 1.740720 0.000000 0.000000 
#    y 0.000000 1.740720 0.000000 
#    z 0.000000 0.000000 1.662960 
# 
# From -- ./inp_files/3533.got.cif
#   From: 2010.05.17/outbox.cif.g08.bks.cpg/sg86_2_cif.got.tgz:3533.got - 2010.06.03 19:03:11.
