data_PCOD9545621
_publ_section_title
;
Structure prediction by ZEFSAII (Michael W. Deem and Ramdas Pophale) SiO2 
 PCOD9545621
Probable space group: I 4/M
;
_chemical_formula_sum "Si O2"
_cell_formula_units_Z 96
_cell_length_a 24.606630
_cell_length_b 24.606630
_cell_length_c 7.700687
_cell_angle_alpha 90.000000
_cell_angle_beta 90.000000
_cell_angle_gamma 90.000000
_cell_volume 4662.660017
_symmetry_space_group_name_H-M "I 4/M"
_symmetry_group_IT_number 87
_symmetry_cell_setting 'tetragonal'
loop_
_space_group_symop_operation_xyz
x,y,z
-y,x,z
-x,-y,z
y,-x,z
-x,-y,-z
y,-x,-z
x,y,-z
-y,x,-z
1/2+x,1/2+y,1/2+z
1/2-y,1/2+x,1/2+z
1/2-x,1/2-y,1/2+z
1/2+y,1/2-x,1/2+z
1/2-x,1/2-y,1/2-z
1/2+y,1/2-x,1/2-z
1/2+x,1/2+y,1/2-z
1/2-y,1/2+x,1/2-z
loop_
_atom_site_type_symbol
_atom_site_label
_atom_site_fract_x
_atom_site_fract_y
_atom_site_fract_z
Si Si1 0.109823 0.390140 0.705826
Si Si2 0.718224 0.611788 0.213113
Si Si3 0.805738 0.129855 0.293868
Si Si4 0.495769 0.154812 0.706871
Si Si5 0.225733 0.987412 0.300611
Si Si6 0.189990 0.303459 0.805032
O O1 0.117904 0.383071 0.500000
O O2 0.139841 0.444128 0.764419
O O3 0.135553 0.339223 0.802272
O O4 0.046464 0.391820 0.745963
O O5 0.662378 0.641130 0.265293
O O6 0.720302 0.548948 0.274227
O O7 0.765824 0.653968 0.272799
O O8 0.722675 0.610156 0.000000
O O9 0.810363 0.122952 0.500000
O O10 0.798185 0.068591 0.221316
O O11 0.754110 0.170473 0.269646
O O12 0.496125 0.163086 0.500000
O O13 0.477452 0.209789 0.797879
O O14 0.206227 0.991341 0.500000
O O15 0.208914 0.291530 0.000000
#
# Coordination Sequence:
#
# PCOD9545621 Si02
#       6
#    16  16  16  16  16  16
#     4  11  23  37  54  77 106 142 183 225 270 320
#     4   9  19  34  52  79 110 142 180 222 269 323
#     4  10  20  34  54  79 108 143 183 221 268 327
#     4  11  23  37  55  78 105 140 185 230 265 314
#     4  10  19  34  56  77 105 144 179 219 271 323
#     4  11  20  32  53  79 110 142 176 223 272 321
#
# _framework density 20.589103999999999
#
# number of rings (size 3 to 8) (size 9 to 14) (size 15 to 20)
#    0.000    1.667    3.333    2.000    0.000    2.333 
#    0.000    3.333    0.000    0.500    0.000    3.500 
#    0.000    0.000    0.000    3.000    0.000    3.333 
#
# Total GULP energy -267661.834806 kJ/mol
# GULP energy per Si atom -5576.288225 kJ/mol
# Density = 2.054224 g / cm^3
# Si number density = 20.589104 Si / 1000 Ang^3
#
#
#
# Elastic Constant Matrix: (Units=GPa)
#
#
# Indices 1 2 3 4 5 6 
#
# 1 98.7789 67.2592 1.5816 0.0000 0.0000 -4.6140
# 2 67.2592 98.7789 1.5816 0.0000 0.0000 4.6140
# 3 1.5816 1.5816 37.8926 0.0000 0.0000 0.0000
# 4 0.0000 0.0000 0.0000 10.2310 0.0000 0.0000
# 5 0.0000 0.0000 0.0000 0.0000 10.2310 0.0000
# 6 -4.6140 4.6140 0.0000 0.0000 0.0000 31.8513
#
#
#
# Elastic Compliance Matrix: (Units=1/GPa)
#
#
# Indices 1 2 3 4 5 6 
#
# 1 0.019579 -0.013552 -0.000252 0.000000 0.000000 0.004799
# 2 -0.013552 0.019579 -0.000252 0.000000 0.000000 -0.004799
# 3 -0.000252 -0.000252 0.026411 0.000000 0.000000 0.000000
# 4 0.000000 0.000000 0.000000 0.097742 0.000000 0.000000
# 5 0.000000 0.000000 0.000000 0.000000 0.097742 0.000000
# 6 0.004799 -0.004799 0.000000 0.000000 0.000000 0.032786
#
#
# Mechanical properties :
#
#
# Convention : Reuss Voigt Hill
#
# Bulk Modulus (GPa) = 26.69507 41.81057 34.25282
# Shear Modulus (GPa) = 14.95045 21.46452 18.20749
#
# Velocity S-wave (km/s) = 2.69761 3.23231 2.97699
# Velocity P-wave (km/s) = 4.76409 5.85505 5.33752
#
# Compressibility (1/GPa) = 0.03746009
#
# Stress axis : x y z
#
# Youngs Moduli (GPa) = 51.07399 51.07399 37.86245
#
# Poissons Ratio (x) = 0.69215 0.00953
# Poissons Ratio (y) = 0.69215 0.00953
# Poissons Ratio (z) = 0.01285 0.01285
#
# Static dielectric constant tensor:
#      x y z
#    x 1.742930 0.000000 0.000000 
#    y 0.000000 1.742930 0.000000 
#    z 0.000000 0.000000 1.809050 
# 
# From -- ./inp_files/1343.got.cif
#   From: 2010.05.17/outbox.cif.g08.bks.cpg/sg87_1_cif.got.tgz:1343.got - 2010.06.03 19:07:00.
