data_PCOD9545521
_publ_section_title
;
Structure prediction by ZEFSAII (Michael W. Deem and Ramdas Pophale) SiO2 
 PCOD9545521
Probable space group: I 4/M
;
_chemical_formula_sum "Si O2"
_cell_formula_units_Z 96
_cell_length_a 17.870572
_cell_length_b 17.870572
_cell_length_c 12.958274
_cell_angle_alpha 90.000000
_cell_angle_beta 90.000000
_cell_angle_gamma 90.000000
_cell_volume 4138.319962
_symmetry_space_group_name_H-M "I 4/M"
_symmetry_group_IT_number 87
_symmetry_cell_setting 'tetragonal'
loop_
_space_group_symop_operation_xyz
x,y,z
-y,x,z
-x,-y,z
y,-x,z
-x,-y,-z
y,-x,-z
x,y,-z
-y,x,-z
1/2+x,1/2+y,1/2+z
1/2-y,1/2+x,1/2+z
1/2-x,1/2-y,1/2+z
1/2+y,1/2-x,1/2+z
1/2-x,1/2-y,1/2-z
1/2+y,1/2-x,1/2-z
1/2+x,1/2+y,1/2-z
1/2-y,1/2+x,1/2-z
loop_
_atom_site_type_symbol
_atom_site_label
_atom_site_fract_x
_atom_site_fract_y
_atom_site_fract_z
Si Si1 0.838769 0.004511 0.111481
Si Si2 0.706845 0.888974 0.110194
Si Si3 0.937262 0.597382 0.272195
Si Si4 0.043744 0.887651 0.664475
Si Si5 0.774379 0.835370 0.326612
Si Si6 0.756803 0.367551 0.314962
O O1 0.810712 0.089323 0.129938
O O2 0.760256 0.960528 0.104737
O O3 0.880445 0.969776 0.210729
O O4 0.876130 0.996345 0.000000
O O5 0.619841 0.904643 0.132246
O O6 0.738474 0.852830 0.214244
O O7 0.714402 0.849099 0.000000
O O8 0.912728 0.524673 0.205575
O O9 0.921228 0.674182 0.212892
O O10 0.088960 0.812896 0.632505
O O11 0.959137 0.906576 0.631323
O O12 0.703867 0.792204 0.374614
O O13 0.840881 0.779632 0.294259
#
# Coordination Sequence:
#
# PCOD9545521 Si02
#       6
#    16  16  16  16  16  16
#     4  10  19  31  47  70 103 139 173 210 255 309
#     4   9  18  33  50  70  97 129 164 209 260 308
#     4  10  19  32  51  74  97 132 174 212 259 307
#     4  10  19  32  49  74 106 138 173 217 261 312
#     4   9  19  31  51  71  96 136 180 211 256 308
#     4  10  18  33  49  70  98 137 176 217 254 305
#
# _framework density 23.197818999999999
#
# number of rings (size 3 to 8) (size 9 to 14) (size 15 to 20)
#    0.000    2.333    3.333    0.000    0.000    1.333 
#    0.000    3.333    0.000    0.000    0.000    0.000 
#    0.000    0.000    0.000    2.167    0.000    3.333 
#
# Total GULP energy -267266.880369 kJ/mol
# GULP energy per Si atom -5568.060008 kJ/mol
# Density = 2.314502 g / cm^3
# Si number density = 23.197819 Si / 1000 Ang^3
#
#
#
# Elastic Constant Matrix: (Units=GPa)
#
#
# Indices 1 2 3 4 5 6 
#
# 1 87.6424 21.9208 13.8628 0.0000 0.0000 3.4165
# 2 21.9208 87.6424 13.8628 0.0000 0.0000 -3.4165
# 3 13.8628 13.8628 53.0553 0.0000 0.0000 0.0000
# 4 0.0000 0.0000 0.0000 2.7998 0.0000 0.0000
# 5 0.0000 0.0000 0.0000 0.0000 2.7998 0.0000
# 6 3.4165 -3.4165 0.0000 0.0000 0.0000 58.3489
#
#
#
# Elastic Compliance Matrix: (Units=1/GPa)
#
#
# Indices 1 2 3 4 5 6 
#
# 1 0.012541 -0.002768 -0.002554 0.000000 0.000000 -0.000896
# 2 -0.002768 0.012541 -0.002554 0.000000 0.000000 0.000896
# 3 -0.002554 -0.002554 0.020183 0.000000 0.000000 0.000000
# 4 0.000000 0.000000 0.000000 0.357166 0.000000 0.000000
# 5 0.000000 0.000000 0.000000 0.000000 0.357166 0.000000
# 6 -0.000896 0.000896 0.000000 0.000000 0.000000 0.017243
#
#
# Mechanical properties :
#
#
# Convention : Reuss Voigt Hill
#
# Bulk Modulus (GPa) = 33.88133 36.40366 35.14250
# Shear Modulus (GPa) = 6.23108 24.70262 15.46685
#
# Velocity S-wave (km/s) = 1.64070 3.26677 2.58493
# Velocity P-wave (km/s) = 4.26923 5.47319 4.90827
#
# Compressibility (1/GPa) = 0.02951478
#
# Stress axis : x y z
#
# Youngs Moduli (GPa) = 79.73760 79.73760 49.54719
#
# Poissons Ratio (x) = 0.22069 0.12653
# Poissons Ratio (y) = 0.22069 0.12653
# Poissons Ratio (z) = 0.20363 0.20363
#
# Static dielectric constant tensor:
#      x y z
#    x 1.950320 0.000000 0.000000 
#    y 0.000000 1.950320 0.000000 
#    z 0.000000 0.000000 1.905310 
# 
# From -- ./inp_files/4403.got.cif
#   From: 2010.05.17/outbox.cif.g08.bks.cpg/sg87_3_cif.got.tgz:4403.got - 2010.06.03 19:07:00.
