data_PCOD9545268
_publ_section_title
;
Structure prediction by ZEFSAII (Michael W. Deem and Ramdas Pophale) SiO2 
 PCOD9545268
Probable space group: P 42/N
;
_chemical_formula_sum "Si O2"
_cell_formula_units_Z 34
_cell_length_a 13.016567
_cell_length_b 13.016567
_cell_length_c 7.135884
_cell_angle_alpha 90.000000
_cell_angle_beta 90.000000
_cell_angle_gamma 90.000000
_cell_volume 1209.040079
_symmetry_space_group_name_H-M "P 42/N"
_symmetry_group_IT_number 86
_space_group.IT_coordinate_system_code '2'
_symmetry_cell_setting 'tetragonal'
loop_
_space_group_symop_operation_xyz
x,y,z
-y,1/2+x,1/2+z
1/2-x,1/2-y,z
1/2+y,-x,1/2+z
-x,-y,-z
y,1/2-x,1/2-z
1/2+x,1/2+y,-z
1/2-y,x,1/2-z
loop_
_atom_site_type_symbol
_atom_site_label
_atom_site_fract_x
_atom_site_fract_y
_atom_site_fract_z
Si Si1 0.500048 0.701036 0.320470
Si Si2 0.113192 0.093193 0.013924
Si Si3 0.602857 0.043347 0.812940
Si Si4 0.289423 0.637790 0.413278
Si Si5 0.250000 0.250000 0.250000
O O1 0.511168 0.814499 0.409088
O O2 0.568226 0.665836 0.149153
O O3 0.524919 0.629814 0.503820
O O4 0.383328 0.669438 0.277473
O O5 0.188051 0.167114 0.129769
O O6 0.030478 0.047907 0.163305
O O7 0.705403 0.073712 0.696506
O O8 0.577259 0.149828 0.922752
O O9 0.250000 0.750000 0.477009
#
# Coordination Sequence:
#
# PCOD9545268 Si02
#       5
#     8   8   8   8   2
#     4  10  26  42  74 112 144 197 247 308 370 442
#     4  12  23  46  73 111 152 190 255 310 372 440
#     4  10  25  44  75 110 142 194 250 303 368 442
#     4  10  23  48  75 104 143 199 247 297 374 455
#     4  12  20  42  80  96 154 208 240 294 388 460
#
# _framework density 28.121480999999999
#
# number of rings (size 3 to 8) (size 9 to 14) (size 15 to 20)
#    1.412    0.000    2.353    2.118    6.588    0.000 
#    0.000    5.882    0.000    0.000    0.000    0.000 
#    0.000    0.000    0.000    0.000    0.000    0.000 
#
# Total GULP energy -190415.965447 kJ/mol
# GULP energy per Si atom -5600.469572 kJ/mol
# Density = 2.805748 g / cm^3
# Si number density = 28.121481 Si / 1000 Ang^3
#
#
#
# Elastic Constant Matrix: (Units=GPa)
#
#
# Indices 1 2 3 4 5 6 
#
# 1 109.1981 29.2348 30.8213 0.0000 0.0000 6.5115
# 2 29.2348 109.1981 30.8213 0.0000 0.0000 -6.5115
# 3 30.8213 30.8213 143.3423 0.0000 0.0000 0.0000
# 4 0.0000 0.0000 0.0000 62.4765 0.0000 0.0000
# 5 0.0000 0.0000 0.0000 0.0000 62.4765 0.0000
# 6 6.5115 -6.5115 0.0000 0.0000 0.0000 35.6831
#
#
#
# Elastic Compliance Matrix: (Units=1/GPa)
#
#
# Indices 1 2 3 4 5 6 
#
# 1 0.010439 -0.002450 -0.001718 0.000000 0.000000 -0.002352
# 2 -0.002450 0.010439 -0.001718 0.000000 0.000000 0.002352
# 3 -0.001718 -0.001718 0.007715 0.000000 0.000000 0.000000
# 4 0.000000 0.000000 0.000000 0.016006 0.000000 0.000000
# 5 0.000000 0.000000 0.000000 0.000000 0.016006 0.000000
# 6 -0.002352 0.002352 0.000000 0.000000 0.000000 0.028883
#
#
# Mechanical properties :
#
#
# Convention : Reuss Voigt Hill
#
# Bulk Modulus (GPa) = 59.44817 60.38812 59.91814
# Shear Modulus (GPa) = 46.78783 50.18461 48.48622
#
# Velocity S-wave (km/s) = 4.08337 4.22899 4.15682
# Velocity P-wave (km/s) = 6.58920 6.73547 6.66273
#
# Compressibility (1/GPa) = 0.01682138
#
# Stress axis : x y z
#
# Youngs Moduli (GPa) = 95.79747 95.79747 129.61791
#
# Poissons Ratio (x) = 0.23471 0.22264
# Poissons Ratio (y) = 0.23471 0.22264
# Poissons Ratio (z) = 0.16455 0.16455
#
# Static dielectric constant tensor:
#      x y z
#    x 2.237760 0.000000 0.000000 
#    y 0.000000 2.237760 0.000000 
#    z 0.000000 0.000000 2.178660 
# 
# From -- ./inp_files/969.got.cif
#   From: 2010.05.17/outbox.cif.g08.bks.cpg/sg86_1_cif.got.tgz:969.got - 2010.06.03 19:03:11.
