data_PCOD9545465
_publ_section_title
;
Structure prediction by ZEFSAII (Michael W. Deem and Ramdas Pophale) SiO2 
 PCOD9545465
Probable space group: P 42/N
;
_chemical_formula_sum "Si O2"
_cell_formula_units_Z 32
_cell_length_a 6.925189
_cell_length_b 6.925189
_cell_length_c 22.382081
_cell_angle_alpha 90.000000
_cell_angle_beta 90.000000
_cell_angle_gamma 90.000000
_cell_volume 1073.405272
_symmetry_space_group_name_H-M "P 42/N"
_symmetry_group_IT_number 86
_space_group.IT_coordinate_system_code '2'
_symmetry_cell_setting 'tetragonal'
loop_
_space_group_symop_operation_xyz
x,y,z
-y,1/2+x,1/2+z
1/2-x,1/2-y,z
1/2+y,-x,1/2+z
-x,-y,-z
y,1/2-x,1/2-z
1/2+x,1/2+y,-z
1/2-y,x,1/2-z
loop_
_atom_site_type_symbol
_atom_site_label
_atom_site_fract_x
_atom_site_fract_y
_atom_site_fract_z
Si Si1 0.022028 0.767626 0.452162
Si Si2 0.969516 0.469086 0.301841
Si Si3 0.585403 0.982223 0.175275
Si Si4 0.034549 0.679117 0.577912
O O1 0.250000 0.750000 0.457759
O O2 0.948019 0.790982 0.520321
O O3 0.992091 0.914047 0.396962
O O4 0.953435 0.550810 0.436390
O O5 0.000064 0.409588 0.233306
O O6 0.035981 0.687062 0.315684
O O7 0.736847 0.513389 0.310355
O O8 0.042121 0.326011 0.353960
O O9 0.250000 0.750000 0.583188
#
# Coordination Sequence:
#
# PCOD9545465 Si02
#       4
#     8   8   8   8
#     4   9  17  29  44  64  92 123 155 195 248 310
#     4   8  14  26  45  67  88 115 160 213 252 287
#     4   8  14  26  45  67  88 115 160 213 252 287
#     4   9  17  29  44  64  92 123 155 195 248 310
#
# _framework density 29.811665000000001
#
# number of rings (size 3 to 8) (size 9 to 14) (size 15 to 20)
#    0.000    3.500    0.000    1.500    0.000    1.000 
#    0.000    5.000    0.000    4.500    0.000    3.500 
#    0.000   24.000    0.000    0.000    0.000    0.000 
#
# Total GULP energy -178631.835484 kJ/mol
# GULP energy per Si atom -5582.244859 kJ/mol
# Density = 2.974381 g / cm^3
# Si number density = 29.811665 Si / 1000 Ang^3
#
#
#
# Elastic Constant Matrix: (Units=GPa)
#
#
# Indices 1 2 3 4 5 6 
#
# 1 115.0390 33.6049 67.4683 0.0000 0.0000 -5.2984
# 2 33.6049 115.0390 67.4683 0.0000 0.0000 5.2984
# 3 67.4683 67.4683 428.1690 0.0000 0.0000 0.0000
# 4 0.0000 0.0000 0.0000 30.8086 0.0000 0.0000
# 5 0.0000 0.0000 0.0000 0.0000 30.8086 0.0000
# 6 -5.2984 5.2984 0.0000 0.0000 0.0000 35.6971
#
#
#
# Elastic Compliance Matrix: (Units=1/GPa)
#
#
# Indices 1 2 3 4 5 6 
#
# 1 0.010186 -0.002336 -0.001237 0.000000 0.000000 0.001859
# 2 -0.002336 0.010186 -0.001237 0.000000 0.000000 -0.001859
# 3 -0.001237 -0.001237 0.002725 0.000000 0.000000 0.000000
# 4 0.000000 0.000000 0.000000 0.032458 0.000000 0.000000
# 5 0.000000 0.000000 0.000000 0.000000 0.032458 0.000000
# 6 0.001859 -0.001859 0.000000 0.000000 0.000000 0.028565
#
#
# Mechanical properties :
#
#
# Convention : Reuss Voigt Hill
#
# Bulk Modulus (GPa) = 74.19414 110.59221 92.39317
# Shear Modulus (GPa) = 38.25798 52.10991 45.18394
#
# Velocity S-wave (km/s) = 3.58624 4.18541 3.89735
# Velocity P-wave (km/s) = 6.48766 7.78038 7.16324
#
# Compressibility (1/GPa) = 0.01347815
#
# Stress axis : x y z
#
# Youngs Moduli (GPa) = 98.17324 98.17324 366.92231
#
# Poissons Ratio (x) = 0.22930 0.45389
# Poissons Ratio (y) = 0.22930 0.45389
# Poissons Ratio (z) = 0.12144 0.12144
#
# Static dielectric constant tensor:
#      x y z
#    x 2.317430 0.000000 0.000000 
#    y 0.000000 2.317430 0.000000 
#    z 0.000000 0.000000 2.435380 
# 
# From -- ./inp_files/3820.got.cif
#   From: 2010.05.17/outbox.cif.g08.bks.cpg/sg86_2_cif.got.tgz:3820.got - 2010.06.03 19:03:11.
