data_PCOD9545448
_publ_section_title
;
Structure prediction by ZEFSAII (Michael W. Deem and Ramdas Pophale) SiO2 
 PCOD9545448
Probable space group: P 42/N
;
_chemical_formula_sum "Si O2"
_cell_formula_units_Z 34
_cell_length_a 18.699635
_cell_length_b 18.699635
_cell_length_c 5.074091
_cell_angle_alpha 90.000000
_cell_angle_beta 90.000000
_cell_angle_gamma 90.000000
_cell_volume 1774.289616
_symmetry_space_group_name_H-M "P 42/N"
_symmetry_group_IT_number 86
_space_group.IT_coordinate_system_code '2'
_symmetry_cell_setting 'tetragonal'
loop_
_space_group_symop_operation_xyz
x,y,z
-y,1/2+x,1/2+z
1/2-x,1/2-y,z
1/2+y,-x,1/2+z
-x,-y,-z
y,1/2-x,1/2-z
1/2+x,1/2+y,-z
1/2-y,x,1/2-z
loop_
_atom_site_type_symbol
_atom_site_label
_atom_site_fract_x
_atom_site_fract_y
_atom_site_fract_z
Si Si1 0.250000 0.250000 0.750000
Si Si2 0.553857 0.066081 0.036629
Si Si3 0.497213 0.854358 0.461614
Si Si4 0.194506 0.476978 0.996342
Si Si5 0.167376 0.381053 0.495028
O O1 0.210296 0.309466 0.571289
O O2 0.529899 0.125548 0.827565
O O3 0.631664 0.034495 0.980292
O O4 0.543349 0.096153 0.328900
O O5 0.500000 0.000000 0.000000
O O6 0.487947 0.771578 0.527881
O O7 0.582406 0.868657 0.481473
O O8 0.184256 0.413828 0.210167
O O9 0.189227 0.440007 0.711139
#
# Coordination Sequence:
#
# PCOD9545448 Si02
#       5
#     2   8   8   8   8
#     4  12  28  38  60  98 152 178 196 242 328 418
#     4  12  23  43  68  94 125 172 226 269 312 383
#     4  12  24  41  65  95 128 169 218 269 323 371
#     4  12  26  41  65  94 130 169 218 269 319 380
#     4  12  24  39  61  93 133 179 209 244 311 402
#
# _framework density 19.162599
#
# number of rings (size 3 to 8) (size 9 to 14) (size 15 to 20)
#    0.000    0.000    7.059    3.529    3.294    0.941 
#    0.000    0.000    0.000    4.235    0.000    0.000 
#    0.000    0.000    0.000    0.000    0.000    0.000 
#
# Total GULP energy -190423.008604 kJ/mol
# GULP energy per Si atom -5600.676724 kJ/mol
# Density = 1.911898 g / cm^3
# Si number density = 19.162599 Si / 1000 Ang^3
#
#
#
# Elastic Constant Matrix: (Units=GPa)
#
#
# Indices 1 2 3 4 5 6 
#
# 1 61.2765 45.5108 -11.4336 0.0000 0.0000 11.5697
# 2 45.5108 61.2765 -11.4336 0.0000 0.0000 -11.5697
# 3 -11.4336 -11.4336 46.3062 0.0000 0.0000 0.0000
# 4 0.0000 0.0000 0.0000 18.4434 0.0000 0.0000
# 5 0.0000 0.0000 0.0000 0.0000 18.4434 0.0000
# 6 11.5697 -11.5697 0.0000 0.0000 0.0000 5.6054
#
#
#
# Elastic Compliance Matrix: (Units=1/GPa)
#
#
# Indices 1 2 3 4 5 6 
#
# 1 -0.010684 0.020571 0.002441 0.000000 0.000000 0.064512
# 2 0.020571 -0.010684 0.002441 0.000000 0.000000 -0.064512
# 3 0.002441 0.002441 0.022801 0.000000 0.000000 0.000000
# 4 0.000000 0.000000 0.000000 0.054220 0.000000 0.000000
# 5 0.000000 0.000000 0.000000 0.000000 0.054220 0.000000
# 6 0.064512 -0.064512 0.000000 0.000000 0.000000 -0.087908
#
#
# Mechanical properties :
#
#
# Convention : Reuss Voigt Hill
#
# Bulk Modulus (GPa) = 19.10572 23.79405 21.44989
# Shear Modulus (GPa) = -434.92485 18.24616 -208.33934
#
# Velocity S-wave (km/s) = -15.08172 3.08908 -10.43829
# Velocity P-wave (km/s) = 17.12558 5.01668 11.57840
#
# Compressibility (1/GPa) = 0.05234033
#
# Stress axis : x y z
#
# Youngs Moduli (GPa) = -93.59735 -93.59735 43.85789
#
# Poissons Ratio (x) = 1.92541 -0.10707
# Poissons Ratio (y) = 1.92541 -0.10707
# Poissons Ratio (z) = 0.22850 0.22850
#
# Static dielectric constant tensor:
#      x y z
#    x 1.671620 0.000000 0.000000 
#    y 0.000000 1.671620 0.000000 
#    z 0.000000 0.000000 1.656680 
# 
# From -- ./inp_files/262.got.cif
#   From: 2010.05.17/outbox.cif.g08.bks.cpg/sg86_1_cif.got.tgz:262.got - 2010.06.03 19:03:11.
