data_PCOD9545813
_publ_section_title
;
Structure prediction by ZEFSAII (Michael W. Deem and Ramdas Pophale) SiO2 
 PCOD9545813
Probable space group: I 4/M
;
_chemical_formula_sum "Si O2"
_cell_formula_units_Z 96
_cell_length_a 24.561921
_cell_length_b 24.561921
_cell_length_c 8.309410
_cell_angle_alpha 90.000000
_cell_angle_beta 90.000000
_cell_angle_gamma 90.000000
_cell_volume 5012.967034
_symmetry_space_group_name_H-M "I 4/M"
_symmetry_group_IT_number 87
_symmetry_cell_setting 'tetragonal'
loop_
_space_group_symop_operation_xyz
x,y,z
-y,x,z
-x,-y,z
y,-x,z
-x,-y,-z
y,-x,-z
x,y,-z
-y,x,-z
1/2+x,1/2+y,1/2+z
1/2-y,1/2+x,1/2+z
1/2-x,1/2-y,1/2+z
1/2+y,1/2-x,1/2+z
1/2-x,1/2-y,1/2-z
1/2+y,1/2-x,1/2-z
1/2+x,1/2+y,1/2-z
1/2-y,1/2+x,1/2-z
loop_
_atom_site_type_symbol
_atom_site_label
_atom_site_fract_x
_atom_site_fract_y
_atom_site_fract_z
Si Si1 0.955667 0.297328 0.695130
Si Si2 0.042893 0.207852 0.306136
Si Si3 0.086459 0.983933 0.303612
Si Si4 0.732852 0.336253 0.307789
Si Si5 0.236052 0.334670 0.194553
Si Si6 0.022175 0.581411 0.812466
O O1 0.956223 0.298548 0.500000
O O2 0.895091 0.279800 0.746818
O O3 0.969791 0.357154 0.756836
O O4 0.999920 0.253065 0.750459
O O5 0.039338 0.206395 0.500000
O O6 0.027953 0.147279 0.246658
O O7 0.104032 0.223578 0.260388
O O8 0.087251 0.983793 0.500000
O O9 0.042349 0.938270 0.254735
O O10 0.734294 0.339432 0.500000
O O11 0.685660 0.294418 0.255860
O O12 0.789472 0.308186 0.252400
O O13 0.237602 0.333972 0.000000
O O14 0.060814 0.539266 0.718319
O O15 0.034881 0.576043 0.000000
#
# Coordination Sequence:
#
# PCOD9545813 Si02
#       6
#    16  16  16  16  16  16
#     4  10  22  38  58  89 119 151 195 243 292 345
#     4  10  21  34  56  85 114 147 188 237 286 339
#     4   8  15  29  52  82 111 141 183 233 281 330
#     4  10  21  37  57  83 114 151 190 232 288 345
#     4   9  20  39  61  82 111 150 192 238 287 338
#     4  11  23  41  64  88 117 154 194 240 291 348
#
# _framework density 19.150334999999998
#
# number of rings (size 3 to 8) (size 9 to 14) (size 15 to 20)
#    0.000    2.333    0.000    3.000    4.667    2.000 
#    0.000    0.000    0.000    0.000    0.000    1.167 
#    0.000    0.000    0.000    0.000    0.000    0.000 
#
# Total GULP energy -268016.309033 kJ/mol
# GULP energy per Si atom -5583.673105 kJ/mol
# Density = 1.910675 g / cm^3
# Si number density = 19.150335 Si / 1000 Ang^3
#
#
#
# Elastic Constant Matrix: (Units=GPa)
#
#
# Indices 1 2 3 4 5 6 
#
# 1 157.6737 98.5122 5.2351 0.0000 0.0000 -1.1658
# 2 98.5122 157.6737 5.2351 0.0000 0.0000 1.1658
# 3 5.2351 5.2351 8.5186 0.0000 0.0000 0.0000
# 4 0.0000 0.0000 0.0000 17.9619 0.0000 0.0000
# 5 0.0000 0.0000 0.0000 0.0000 17.9619 0.0000
# 6 -1.1658 1.1658 0.0000 0.0000 0.0000 13.2924
#
#
#
# Elastic Compliance Matrix: (Units=1/GPa)
#
#
# Indices 1 2 3 4 5 6 
#
# 1 0.010483 -0.006479 -0.002461 0.000000 0.000000 0.001488
# 2 -0.006479 0.010483 -0.002461 0.000000 0.000000 -0.001488
# 3 -0.002461 -0.002461 0.120415 0.000000 0.000000 0.000000
# 4 0.000000 0.000000 0.000000 0.055673 0.000000 0.000000
# 5 0.000000 0.000000 0.000000 0.000000 0.055673 0.000000
# 6 0.001488 -0.001488 0.000000 0.000000 0.000000 0.075492
#
#
# Mechanical properties :
#
#
# Convention : Reuss Voigt Hill
#
# Bulk Modulus (GPa) = 8.43312 60.20343 34.31828
# Shear Modulus (GPa) = 12.80260 24.16881 18.48571
#
# Velocity S-wave (km/s) = 2.58840 3.55640 3.11029
# Velocity P-wave (km/s) = 3.65326 6.95482 5.55499
#
# Compressibility (1/GPa) = 0.11858002
#
# Stress axis : x y z
#
# Youngs Moduli (GPa) = 95.39482 95.39482 8.30464
#
# Poissons Ratio (x) = 0.61804 0.02043
# Poissons Ratio (y) = 0.61804 0.02043
# Poissons Ratio (z) = 0.23473 0.23473
#
# Static dielectric constant tensor:
#      x y z
#    x 1.643220 0.000000 0.000000 
#    y 0.000000 1.643220 0.000000 
#    z 0.000000 0.000000 1.665420 
# 
# From -- ./inp_files/1386.got.cif
#   From: 2010.05.17/outbox.cif.g08.bks.cpg/sg87_1_cif.got.tgz:1386.got - 2010.06.03 19:07:00.
