data_PCOD9545706
_publ_section_title
;
Structure prediction by ZEFSAII (Michael W. Deem and Ramdas Pophale) SiO2 
 PCOD9545706
Probable space group: I 4/M
;
_chemical_formula_sum "Si O2"
_cell_formula_units_Z 96
_cell_length_a 22.556639
_cell_length_b 22.556639
_cell_length_c 7.590215
_cell_angle_alpha 90.000000
_cell_angle_beta 90.000000
_cell_angle_gamma 90.000000
_cell_volume 3861.916291
_symmetry_space_group_name_H-M "I 4/M"
_symmetry_group_IT_number 87
_symmetry_cell_setting 'tetragonal'
loop_
_space_group_symop_operation_xyz
x,y,z
-y,x,z
-x,-y,z
y,-x,z
-x,-y,-z
y,-x,-z
x,y,-z
-y,x,-z
1/2+x,1/2+y,1/2+z
1/2-y,1/2+x,1/2+z
1/2-x,1/2-y,1/2+z
1/2+y,1/2-x,1/2+z
1/2-x,1/2-y,1/2-z
1/2+y,1/2-x,1/2-z
1/2+x,1/2+y,1/2-z
1/2-y,1/2+x,1/2-z
loop_
_atom_site_type_symbol
_atom_site_label
_atom_site_fract_x
_atom_site_fract_y
_atom_site_fract_z
Si Si1 0.592924 0.252294 0.210429
Si Si2 0.802493 0.157181 0.799891
Si Si3 0.142738 0.328371 0.216627
Si Si4 0.962333 0.589280 0.204575
Si Si5 0.787085 0.023126 0.289216
Si Si6 0.982151 0.090653 0.713011
O O1 0.640212 0.307586 0.231363
O O2 0.628938 0.195318 0.269798
O O3 0.524553 0.240055 0.275844
O O4 0.584562 0.250695 0.000000
O O5 0.736807 0.162520 0.717390
O O6 0.804489 0.085270 0.793721
O O7 0.798205 0.177409 0.000000
O O8 0.079937 0.357131 0.274283
O O9 0.140136 0.325361 0.000000
O O10 0.925157 0.526933 0.215116
O O11 0.972912 0.601425 0.000000
O O12 0.784315 0.034627 0.500000
O O13 0.841767 0.978473 0.246819
O O14 0.981383 0.086932 0.500000
O O15 0.933744 0.045171 0.776829
#
# Coordination Sequence:
#
# PCOD9545706 Si02
#       6
#    16  16  16  16  16  16
#     4  10  21  40  63  86 114 153 202 248 290 345
#     4  11  23  39  58  84 121 159 193 239 301 357
#     4   9  21  39  60  85 120 158 196 245 296 349
#     4  10  20  37  60  89 124 161 200 246 300 356
#     4  10  20  34  57  84 110 145 193 244 286 338
#     4   8  13  23  42  70 101 130 164 212 268 319
#
# _framework density 24.858125000000001
#
# number of rings (size 3 to 8) (size 9 to 14) (size 15 to 20)
#    0.000    2.333    0.000    3.500    2.333    3.333 
#    0.000    5.000    0.000    0.000    0.000    3.500 
#    0.000    0.000    0.000    0.000    0.000    0.000 
#
# Total GULP energy -267234.542850 kJ/mol
# GULP energy per Si atom -5567.386309 kJ/mol
# Density = 2.480155 g / cm^3
# Si number density = 24.858125 Si / 1000 Ang^3
#
#
#
# Elastic Constant Matrix: (Units=GPa)
#
#
# Indices 1 2 3 4 5 6 
#
# 1 78.6724 14.0136 -5.8311 0.0000 0.0000 -12.7200
# 2 14.0136 78.6724 -5.8311 0.0000 0.0000 12.7200
# 3 -5.8311 -5.8311 55.5965 0.0000 0.0000 0.0000
# 4 0.0000 0.0000 0.0000 10.0448 0.0000 0.0000
# 5 0.0000 0.0000 0.0000 0.0000 10.0448 0.0000
# 6 -12.7200 12.7200 0.0000 0.0000 0.0000 32.3760
#
#
#
# Elastic Compliance Matrix: (Units=1/GPa)
#
#
# Indices 1 2 3 4 5 6 
#
# 1 0.014614 -0.003680 0.001147 0.000000 0.000000 0.007187
# 2 -0.003680 0.014614 0.001147 0.000000 0.000000 -0.007187
# 3 0.001147 0.001147 0.018227 0.000000 0.000000 0.000000
# 4 0.000000 0.000000 0.000000 0.099554 0.000000 0.000000
# 5 0.000000 0.000000 0.000000 0.000000 0.099554 0.000000
# 6 0.007187 -0.007187 0.000000 0.000000 0.000000 0.036535
#
#
# Mechanical properties :
#
#
# Convention : Reuss Voigt Hill
#
# Bulk Modulus (GPa) = 22.38089 24.18269 23.28179
# Shear Modulus (GPa) = 16.62433 24.53243 20.57838
#
# Velocity S-wave (km/s) = 2.58886 3.14490 2.88033
# Velocity P-wave (km/s) = 4.23784 4.78922 4.52194
#
# Compressibility (1/GPa) = 0.04468097
#
# Stress axis : x y z
#
# Youngs Moduli (GPa) = 68.42984 68.42984 54.86277
#
# Poissons Ratio (x) = 0.25183 -0.06291
# Poissons Ratio (y) = 0.25183 -0.06291
# Poissons Ratio (z) = -0.07847 -0.07847
#
# Static dielectric constant tensor:
#      x y z
#    x 2.283840 0.000000 0.000000 
#    y 0.000000 2.283840 0.000000 
#    z 0.000000 0.000000 1.951420 
# 
# From -- ./inp_files/1401.got.cif
#   From: 2010.05.17/outbox.cif.g08.bks.cpg/sg87_1_cif.got.tgz:1401.got - 2010.06.03 19:07:00.
