data_PCOD9545595
_publ_section_title
;
Structure prediction by ZEFSAII (Michael W. Deem and Ramdas Pophale) SiO2 
 PCOD9545595
Probable space group: I 4/M
;
_chemical_formula_sum "Si O2"
_cell_formula_units_Z 108
_cell_length_a 14.822192
_cell_length_b 14.822192
_cell_length_c 19.863946
_cell_angle_alpha 90.000000
_cell_angle_beta 90.000000
_cell_angle_gamma 90.000000
_cell_volume 4364.056807
_symmetry_space_group_name_H-M "I 4/M"
_symmetry_group_IT_number 87
_symmetry_cell_setting 'tetragonal'
loop_
_space_group_symop_operation_xyz
x,y,z
-y,x,z
-x,-y,z
y,-x,z
-x,-y,-z
y,-x,-z
x,y,-z
-y,x,-z
1/2+x,1/2+y,1/2+z
1/2-y,1/2+x,1/2+z
1/2-x,1/2-y,1/2+z
1/2+y,1/2-x,1/2+z
1/2-x,1/2-y,1/2-z
1/2+y,1/2-x,1/2-z
1/2+x,1/2+y,1/2-z
1/2-y,1/2+x,1/2-z
loop_
_atom_site_type_symbol
_atom_site_label
_atom_site_fract_x
_atom_site_fract_y
_atom_site_fract_z
Si Si1 0.500000 0.000000 0.750000
Si Si2 0.681332 0.666132 0.865630
Si Si3 0.142791 0.961447 0.256166
Si Si4 0.744032 0.999924 0.918908
Si Si5 0.692897 0.687654 0.581060
Si Si6 0.589418 0.061858 0.422913
Si Si7 0.026518 0.688110 0.695683
Si Si8 0.076078 0.869147 0.500000
O O1 0.413314 0.045667 0.716922
O O2 0.581951 0.651428 0.832945
O O3 0.723656 0.763972 0.881621
O O4 0.753458 0.615315 0.818515
O O5 0.680969 0.612645 0.935056
O O6 0.251003 0.972423 0.249320
O O7 0.059732 0.896552 0.235924
O O8 0.814755 0.919618 0.908499
O O9 0.653128 0.953437 0.894186
O O10 0.769203 0.098892 0.895268
O O11 0.731959 0.010002 0.000000
O O12 0.704432 0.700915 0.500000
O O13 0.622212 0.073909 0.500000
O O14 0.666859 0.024684 0.374784
O O15 0.500000 0.000000 0.425802
O O16 0.969279 0.881318 0.500000
#
# Coordination Sequence:
#
# PCOD9545595 Si02
#       8
#     4  16  16  16  16  16  16   8
#     4  12  28  48  62  96 124 160 232 286 336 372
#     4  11  21  36  59  92 132 175 213 254 320 397
#     4   9  19  38  62  91 127 166 209 250 310 389
#     4   9  19  31  49  76 116 163 215 263 308 366
#     4  10  19  33  49  77 120 169 219 264 304 372
#     4  10  19  33  56  87 121 162 203 248 316 394
#     4  11  23  40  64  88 130 168 210 273 319 384
#     4  11  22  34  56  95 145 184 205 242 304 398
#
# _framework density 24.747616000000001
#
# number of rings (size 3 to 8) (size 9 to 14) (size 15 to 20)
#    0.000    1.852    1.481    3.556    1.037    3.852 
#    1.333    4.444    0.000    0.000    0.000    0.000 
#    0.000    0.000    0.000    0.000    0.000    0.000 
#
# Total GULP energy -300912.075412 kJ/mol
# GULP energy per Si atom -5572.445841 kJ/mol
# Density = 2.469129 g / cm^3
# Si number density = 24.747616 Si / 1000 Ang^3
#
#
#
# Elastic Constant Matrix: (Units=GPa)
#
#
# Indices 1 2 3 4 5 6 
#
# 1 101.3780 27.1658 13.3110 0.0000 0.0000 6.9140
# 2 27.1658 101.3780 13.3110 0.0000 0.0000 -6.9140
# 3 13.3110 13.3110 40.3505 0.0000 0.0000 0.0000
# 4 0.0000 0.0000 0.0000 -4.8069 0.0000 0.0000
# 5 0.0000 0.0000 0.0000 0.0000 -4.8069 0.0000
# 6 6.9140 -6.9140 0.0000 0.0000 0.0000 19.9083
#
#
#
# Elastic Compliance Matrix: (Units=1/GPa)
#
#
# Indices 1 2 3 4 5 6 
#
# 1 0.011379 -0.003029 -0.002755 0.000000 0.000000 -0.005003
# 2 -0.003029 0.011379 -0.002755 0.000000 0.000000 0.005003
# 3 -0.002755 -0.002755 0.026600 0.000000 0.000000 0.000000
# 4 0.000000 0.000000 0.000000 -0.208036 0.000000 0.000000
# 5 0.000000 0.000000 0.000000 0.000000 -0.208036 0.000000
# 6 -0.005003 0.005003 0.000000 0.000000 0.000000 0.053706
#
#
# Mechanical properties :
#
#
# Convention : Reuss Voigt Hill
#
# Bulk Modulus (GPa) = 30.97701 38.96468 34.97084
# Shear Modulus (GPa) = -17.53323 14.68015 -1.42654
#
# Velocity S-wave (km/s) = -2.66462 2.43820 -0.76006
# Velocity P-wave (km/s) = 1.75426 4.86882 3.65943
#
# Compressibility (1/GPa) = 0.03228200
#
# Stress axis : x y z
#
# Youngs Moduli (GPa) = 87.88467 87.88467 37.59369
#
# Poissons Ratio (x) = 0.26617 0.10355
# Poissons Ratio (y) = 0.26617 0.10355
# Poissons Ratio (z) = 0.24208 0.24208
#
# Static dielectric constant tensor:
#      x y z
#    x 1.994130 0.000000 0.000000 
#    y 0.000000 1.994130 0.000000 
#    z 0.000000 0.000000 2.064850 
# 
# From -- ./inp_files/5946.got.cif
#   From: 2010.05.17/outbox.cif.g08.bks.cpg/sg87_3_cif.got.tgz:5946.got - 2010.06.03 19:07:00.
