data_PCOD9545081
_publ_section_title
;
Structure prediction by ZEFSAII (Michael W. Deem and Ramdas Pophale) SiO2 
 PCOD9545081
Probable space group: P 42/N
;
_chemical_formula_sum "Si O2"
_cell_formula_units_Z 36
_cell_length_a 7.351954
_cell_length_b 7.351954
_cell_length_c 27.885429
_cell_angle_alpha 90.000000
_cell_angle_beta 90.000000
_cell_angle_gamma 90.000000
_cell_volume 1507.241670
_symmetry_space_group_name_H-M "P 42/N"
_symmetry_group_IT_number 86
_space_group.IT_coordinate_system_code '2'
_symmetry_cell_setting 'tetragonal'
loop_
_space_group_symop_operation_xyz
x,y,z
-y,1/2+x,1/2+z
1/2-x,1/2-y,z
1/2+y,-x,1/2+z
-x,-y,-z
y,1/2-x,1/2-z
1/2+x,1/2+y,-z
1/2-y,x,1/2-z
loop_
_atom_site_type_symbol
_atom_site_label
_atom_site_fract_x
_atom_site_fract_y
_atom_site_fract_z
Si Si1 0.750000 0.250000 0.505337
Si Si2 0.750000 0.750000 0.750000
Si Si3 0.879352 0.470373 0.423098
Si Si4 0.250000 0.750000 0.159236
Si Si5 0.250000 0.250000 0.750000
Si Si6 0.536577 0.028773 0.192449
Si Si7 0.975010 0.130923 0.584609
O O1 0.894706 0.346937 0.470127
O O2 0.656599 0.399169 0.539786
O O3 0.684905 0.573999 0.719739
O O4 0.894612 0.348499 0.375762
O O5 0.991325 0.652722 0.418599
O O6 0.668057 0.534648 0.422775
O O7 0.397236 0.859159 0.188400
O O8 0.429299 0.292746 0.717872
O O9 0.583009 0.087612 0.138097
#
# Coordination Sequence:
#
# PCOD9545081 Si02
#       7
#     4   2   8   4   2   8   8
#     4  11  20  32  57  88 120 158 199 256 304 353
#     4  12  28  44  64 100 134 152 204 284 340 364
#     4   9  19  36  57  85 122 161 205 250 296 370
#     4   9  18  38  63  86 120 164 207 254 316 375
#     4  12  24  44  72  88 114 172 228 256 312 404
#     4  11  24  42  65  93 124 165 209 267 322 382
#     4  10  21  37  57  84 120 162 206 245 307 382
#
# _framework density 23.884689999999999
#
# number of rings (size 3 to 8) (size 9 to 14) (size 15 to 20)
#    0.000    1.778    0.000    5.333    0.000    3.556 
#    0.000    4.444    0.000    0.000    0.000    0.000 
#    0.000    0.000    0.000    0.000    0.000    0.000 
#
# Total GULP energy -201221.681386 kJ/mol
# GULP energy per Si atom -5589.491150 kJ/mol
# Density = 2.383033 g / cm^3
# Si number density = 23.884690 Si / 1000 Ang^3
#
#
#
# Elastic Constant Matrix: (Units=GPa)
#
#
# Indices 1 2 3 4 5 6 
#
# 1 62.6332 4.2055 29.3943 0.0000 0.0000 -5.5978
# 2 4.2055 62.6332 29.3943 0.0000 0.0000 5.5978
# 3 29.3943 29.3943 138.6699 0.0000 0.0000 0.0000
# 4 0.0000 0.0000 0.0000 31.0228 0.0000 0.0000
# 5 0.0000 0.0000 0.0000 0.0000 31.0228 0.0000
# 6 -5.5978 5.5978 0.0000 0.0000 0.0000 35.0997
#
#
#
# Elastic Compliance Matrix: (Units=1/GPa)
#
#
# Indices 1 2 3 4 5 6 
#
# 1 0.018022 0.000368 -0.003898 0.000000 0.000000 0.002816
# 2 0.000368 0.018022 -0.003898 0.000000 0.000000 -0.002816
# 3 -0.003898 -0.003898 0.008864 0.000000 0.000000 0.000000
# 4 0.000000 0.000000 0.000000 0.032234 0.000000 0.000000
# 5 0.000000 0.000000 0.000000 0.000000 0.032234 0.000000
# 6 0.002816 -0.002816 0.000000 0.000000 0.000000 0.029388
#
#
# Mechanical properties :
#
#
# Convention : Reuss Voigt Hill
#
# Bulk Modulus (GPa) = 33.27636 43.32497 38.30067
# Shear Modulus (GPa) = 30.55477 32.82518 31.68998
#
# Velocity S-wave (km/s) = 3.58056 3.71120 3.64647
# Velocity P-wave (km/s) = 5.57281 6.04505 5.81373
#
# Compressibility (1/GPa) = 0.03005136
#
# Stress axis : x y z
#
# Youngs Moduli (GPa) = 55.48647 55.48647 112.81583
#
# Poissons Ratio (x) = -0.02040 0.43978
# Poissons Ratio (y) = -0.02040 0.43978
# Poissons Ratio (z) = 0.21630 0.21630
#
# Static dielectric constant tensor:
#      x y z
#    x 1.958930 0.000000 0.000000 
#    y 0.000000 1.958930 0.000000 
#    z 0.000000 0.000000 1.927300 
# 
# From -- ./inp_files/4793.got.cif
#   From: 2010.05.17/outbox.cif.g08.bks.cpg/sg86_3_cif.got.tgz:4793.got - 2010.06.03 19:03:11.
