data_PCOD9545929
_publ_section_title
;
Structure prediction by ZEFSAII (Michael W. Deem and Ramdas Pophale) SiO2 
 PCOD9545929
Probable space group: I 4/M
;
_chemical_formula_sum "Si O2"
_cell_formula_units_Z 112
_cell_length_a 13.941589
_cell_length_b 13.941589
_cell_length_c 23.220074
_cell_angle_alpha 90.000000
_cell_angle_beta 90.000000
_cell_angle_gamma 90.000000
_cell_volume 4513.237111
_symmetry_space_group_name_H-M "I 4/M"
_symmetry_group_IT_number 87
_symmetry_cell_setting 'tetragonal'
loop_
_space_group_symop_operation_xyz
x,y,z
-y,x,z
-x,-y,z
y,-x,z
-x,-y,-z
y,-x,-z
x,y,-z
-y,x,-z
1/2+x,1/2+y,1/2+z
1/2-y,1/2+x,1/2+z
1/2-x,1/2-y,1/2+z
1/2+y,1/2-x,1/2+z
1/2-x,1/2-y,1/2-z
1/2+y,1/2-x,1/2-z
1/2+x,1/2+y,1/2-z
1/2-y,1/2+x,1/2-z
loop_
_atom_site_type_symbol
_atom_site_label
_atom_site_fract_x
_atom_site_fract_y
_atom_site_fract_z
Si Si1 0.962779 0.396916 0.825817
Si Si2 0.658131 0.527415 0.155332
Si Si3 0.244051 0.160639 0.566929
Si Si4 0.758679 0.354764 0.666248
Si Si5 0.059695 0.859162 0.069644
Si Si6 0.874789 0.239084 0.755141
Si Si7 0.851702 0.641969 0.434012
O O1 0.887480 0.340826 0.786319
O O2 0.909042 0.415250 0.886458
O O3 0.000000 0.500000 0.807725
O O4 0.049668 0.320088 0.825406
O O5 0.573572 0.606321 0.152693
O O6 0.722278 0.563220 0.101629
O O7 0.708947 0.533642 0.217319
O O8 0.264769 0.142855 0.500000
O O9 0.328288 0.215697 0.600515
O O10 0.161287 0.243160 0.569163
O O11 0.804355 0.263584 0.701667
O O12 0.655985 0.341850 0.698305
O O13 0.097854 0.753668 0.081712
O O14 0.951003 0.878602 0.089898
O O15 0.060425 0.864938 0.000000
O O16 0.874574 0.617163 0.500000
#
# Coordination Sequence:
#
# PCOD9545929 Si02
#       7
#    16  16  16  16  16  16  16
#     4  12  27  41  67 104 136 178 238 291 346 423
#     4  10  22  42  71 103 131 171 228 295 360 419
#     4  10  22  42  65  94 136 189 235 283 352 430
#     4  10  23  42  67  93 129 185 225 287 347 422
#     4   8  15  29  53  83 115 162 222 275 320 381
#     4  10  22  44  67  96 136 175 228 280 360 424
#     4  10  22  39  60  89 139 185 226 282 347 411
#
# _framework density 24.815892000000002
#
# number of rings (size 3 to 8) (size 9 to 14) (size 15 to 20)
#    0.000    2.000    1.429    1.286    4.000    3.714 
#    0.000    2.143    0.000    1.714    0.000    0.000 
#    0.000    0.000    0.000    0.000    0.000    0.000 
#
# Total GULP energy -312652.818428 kJ/mol
# GULP energy per Si atom -5583.086043 kJ/mol
# Density = 2.475941 g / cm^3
# Si number density = 24.815892 Si / 1000 Ang^3
#
#
#
# Elastic Constant Matrix: (Units=GPa)
#
#
# Indices 1 2 3 4 5 6 
#
# 1 65.7016 19.4895 33.0871 0.0000 0.0000 -9.8581
# 2 19.4895 65.7016 33.0871 0.0000 0.0000 9.8581
# 3 33.0871 33.0871 161.8754 0.0000 0.0000 0.0000
# 4 0.0000 0.0000 0.0000 9.1316 0.0000 0.0000
# 5 0.0000 0.0000 0.0000 0.0000 9.1316 0.0000
# 6 -9.8581 9.8581 0.0000 0.0000 0.0000 43.5288
#
#
#
# Elastic Compliance Matrix: (Units=1/GPa)
#
#
# Indices 1 2 3 4 5 6 
#
# 1 0.018954 -0.005000 -0.002852 0.000000 0.000000 0.005425
# 2 -0.005000 0.018954 -0.002852 0.000000 0.000000 -0.005425
# 3 -0.002852 -0.002852 0.007344 0.000000 0.000000 0.000000
# 4 0.000000 0.000000 0.000000 0.109510 0.000000 0.000000
# 5 0.000000 0.000000 0.000000 0.000000 0.109510 0.000000
# 6 0.005425 -0.005425 0.000000 0.000000 0.000000 0.025430
#
#
# Mechanical properties :
#
#
# Convention : Reuss Voigt Hill
#
# Bulk Modulus (GPa) = 41.94180 51.62288 46.78234
# Shear Modulus (GPa) = 15.67112 26.19939 20.93525
#
# Velocity S-wave (km/s) = 2.51568 3.25276 2.90767
# Velocity P-wave (km/s) = 5.03747 5.91225 5.49231
#
# Compressibility (1/GPa) = 0.02384256
#
# Stress axis : x y z
#
# Youngs Moduli (GPa) = 52.75981 52.75981 136.17426
#
# Poissons Ratio (x) = 0.26380 0.38839
# Poissons Ratio (y) = 0.26380 0.38839
# Poissons Ratio (z) = 0.15048 0.15048
#
# Static dielectric constant tensor:
#      x y z
#    x 2.081810 0.000000 0.000000 
#    y 0.000000 2.081810 0.000000 
#    z 0.000000 0.000000 2.016890 
# 
# From -- ./inp_files/5929.got.cif
#   From: 2010.05.17/outbox.cif.g08.bks.cpg/sg87_3_cif.got.tgz:5929.got - 2010.06.03 19:07:00.
