data_PCOD9545219
_publ_section_title
;
Structure prediction by ZEFSAII (Michael W. Deem and Ramdas Pophale) SiO2 
 PCOD9545219
Probable space group: P 42/N
;
_chemical_formula_sum "Si O2"
_cell_formula_units_Z 40
_cell_length_a 13.366489
_cell_length_b 13.366489
_cell_length_c 8.938787
_cell_angle_alpha 90.000000
_cell_angle_beta 90.000000
_cell_angle_gamma 90.000000
_cell_volume 1597.030754
_symmetry_space_group_name_H-M "P 42/N"
_symmetry_group_IT_number 86
_space_group.IT_coordinate_system_code '2'
_symmetry_cell_setting 'tetragonal'
loop_
_space_group_symop_operation_xyz
x,y,z
-y,1/2+x,1/2+z
1/2-x,1/2-y,z
1/2+y,-x,1/2+z
-x,-y,-z
y,1/2-x,1/2-z
1/2+x,1/2+y,-z
1/2-y,x,1/2-z
loop_
_atom_site_type_symbol
_atom_site_label
_atom_site_fract_x
_atom_site_fract_y
_atom_site_fract_z
Si Si1 0.662440 0.613813 0.280568
Si Si2 0.616712 0.491018 0.532111
Si Si3 0.290033 0.407908 0.211024
Si Si4 0.725638 0.136101 0.353784
Si Si5 0.456862 0.812000 0.433595
O O1 0.618215 0.719603 0.244636
O O2 0.654827 0.591953 0.453564
O O3 0.618741 0.524958 0.177044
O O4 0.500000 0.500000 0.500000
O O5 0.656001 0.502850 0.697861
O O6 0.678588 0.407679 0.443281
O O7 0.366112 0.313016 0.216365
O O8 0.272648 0.461317 0.052060
O O9 0.750000 0.250000 0.322216
O O10 0.632172 0.135857 0.470932
O O11 0.730548 0.085899 0.187247
#
# Coordination Sequence:
#
# PCOD9545219 Si02
#       5
#     8   8   8   8   8
#     4  10  22  45  77 111 154 208 272 337 406 484
#     4  11  27  46  78 113 157 209 273 336 409 496
#     4  11  26  47  78 115 160 212 273 340 411 490
#     4  11  28  49  75 111 158 213 265 337 417 485
#     4  11  26  47  78 109 159 207 266 330 413 478
#
# _framework density 25.046481
#
# number of rings (size 3 to 8) (size 9 to 14) (size 15 to 20)
#    0.000    1.200    0.000    3.000   11.200    6.400 
#    0.000    9.000    0.000    0.000    0.000    0.000 
#    0.000    0.000    0.000    0.000    0.000    0.000 
#
# Total GULP energy -223318.353910 kJ/mol
# GULP energy per Si atom -5582.958848 kJ/mol
# Density = 2.498947 g / cm^3
# Si number density = 25.046481 Si / 1000 Ang^3
#
#
#
# Elastic Constant Matrix: (Units=GPa)
#
#
# Indices 1 2 3 4 5 6 
#
# 1 130.0703 31.4755 57.0465 0.0000 0.0000 5.5437
# 2 31.4755 130.0703 57.0465 0.0000 0.0000 -5.5437
# 3 57.0465 57.0465 163.2350 0.0000 0.0000 0.0000
# 4 0.0000 0.0000 0.0000 15.1754 0.0000 0.0000
# 5 0.0000 0.0000 0.0000 0.0000 15.1754 0.0000
# 6 5.5437 -5.5437 0.0000 0.0000 0.0000 24.3612
#
#
#
# Elastic Compliance Matrix: (Units=1/GPa)
#
#
# Indices 1 2 3 4 5 6 
#
# 1 0.009314 -0.001095 -0.002872 0.000000 0.000000 -0.002369
# 2 -0.001095 0.009314 -0.002872 0.000000 0.000000 0.002369
# 3 -0.002872 -0.002872 0.008134 0.000000 0.000000 0.000000
# 4 0.000000 0.000000 0.000000 0.065896 0.000000 0.000000
# 5 0.000000 0.000000 0.000000 0.000000 0.065896 0.000000
# 6 -0.002369 0.002369 0.000000 0.000000 0.000000 0.042127
#
#
# Mechanical properties :
#
#
# Convention : Reuss Voigt Hill
#
# Bulk Modulus (GPa) = 76.43977 79.39031 77.91504
# Shear Modulus (GPa) = 22.86028 29.46289 26.16158
#
# Velocity S-wave (km/s) = 3.02439 3.43349 3.23541
# Velocity P-wave (km/s) = 6.54075 6.89089 6.71810
#
# Compressibility (1/GPa) = 0.01308220
#
# Stress axis : x y z
#
# Youngs Moduli (GPa) = 107.36744 107.36744 122.94547
#
# Poissons Ratio (x) = 0.11758 0.35313
# Poissons Ratio (y) = 0.11758 0.35313
# Poissons Ratio (z) = 0.30839 0.30839
#
# Static dielectric constant tensor:
#      x y z
#    x 1.964040 0.000000 0.000000 
#    y 0.000000 1.964040 0.000000 
#    z 0.000000 0.000000 1.997370 
# 
# From -- ./inp_files/1131.got.cif
#   From: 2010.05.17/outbox.cif.g08.bks.cpg/sg86_1_cif.got.tgz:1131.got - 2010.06.03 19:03:11.
