data_PCOD9545583
_publ_section_title
;
Structure prediction by ZEFSAII (Michael W. Deem and Ramdas Pophale) SiO2 
 PCOD9545583
Probable space group: I 4/M
;
_chemical_formula_sum "Si O2"
_cell_formula_units_Z 96
_cell_length_a 23.980698
_cell_length_b 23.980698
_cell_length_c 9.163906
_cell_angle_alpha 90.000000
_cell_angle_beta 90.000000
_cell_angle_gamma 90.000000
_cell_volume 5269.922948
_symmetry_space_group_name_H-M "I 4/M"
_symmetry_group_IT_number 87
_symmetry_cell_setting 'tetragonal'
loop_
_space_group_symop_operation_xyz
x,y,z
-y,x,z
-x,-y,z
y,-x,z
-x,-y,-z
y,-x,-z
x,y,-z
-y,x,-z
1/2+x,1/2+y,1/2+z
1/2-y,1/2+x,1/2+z
1/2-x,1/2-y,1/2+z
1/2+y,1/2-x,1/2+z
1/2-x,1/2-y,1/2-z
1/2+y,1/2-x,1/2-z
1/2+x,1/2+y,1/2-z
1/2-y,1/2+x,1/2-z
loop_
_atom_site_type_symbol
_atom_site_label
_atom_site_fract_x
_atom_site_fract_y
_atom_site_fract_z
Si Si1 0.515870 0.590641 0.673777
Si Si2 0.317566 0.693468 0.332587
Si Si3 0.988415 0.581423 0.674378
Si Si4 0.578499 0.684757 0.173994
Si Si5 0.681724 0.195257 0.167040
Si Si6 0.918240 0.685860 0.673208
O O1 0.456592 0.562347 0.707130
O O2 0.517795 0.601057 0.500000
O O3 0.530845 0.645694 0.761172
O O4 0.336349 0.690135 0.500000
O O5 0.332433 0.637668 0.245211
O O6 0.337044 0.750168 0.255211
O O7 0.249687 0.696093 0.333232
O O8 0.996269 0.573116 0.500000
O O9 0.939000 0.541696 0.734861
O O10 0.969256 0.644455 0.701123
O O11 0.569675 0.749933 0.211270
O O12 0.581676 0.679725 0.000000
O O13 0.666519 0.137062 0.242191
O O14 0.662775 0.197560 0.000000
O O15 0.905921 0.683998 0.500000
#
# Coordination Sequence:
#
# PCOD9545583 Si02
#       6
#    16  16  16  16  16  16
#     4   9  19  37  58  77 100 134 174 212 254 309
#     4   9  16  27  44  67  99 137 172 206 250 304
#     4  10  20  36  57  78 101 133 174 216 258 306
#     4  10  19  32  52  78 106 135 171 215 261 308
#     4   9  16  26  44  70  98 132 173 211 247 296
#     4   9  19  34  51  74 106 139 168 207 261 315
#
# _framework density 18.216584999999998
#
# number of rings (size 3 to 8) (size 9 to 14) (size 15 to 20)
#    0.000    2.667    0.000    3.000    0.000    6.667 
#    0.000    2.500    0.000    8.000    0.000    0.000 
#    0.000    0.000    0.000    0.000    0.000    0.000 
#
# Total GULP energy -267677.990416 kJ/mol
# GULP energy per Si atom -5576.624800 kJ/mol
# Density = 1.817512 g / cm^3
# Si number density = 18.216585 Si / 1000 Ang^3
#
#
#
# Elastic Constant Matrix: (Units=GPa)
#
#
# Indices 1 2 3 4 5 6 
#
# 1 40.9663 29.2697 26.7850 0.0000 0.0000 -0.1074
# 2 29.2697 40.9663 26.7850 0.0000 0.0000 0.1074
# 3 26.7850 26.7850 60.5160 0.0000 0.0000 0.0000
# 4 0.0000 0.0000 0.0000 23.8090 0.0000 0.0000
# 5 0.0000 0.0000 0.0000 0.0000 23.8090 0.0000
# 6 -0.1074 0.1074 0.0000 0.0000 0.0000 18.4332
#
#
#
# Elastic Compliance Matrix: (Units=1/GPa)
#
#
# Indices 1 2 3 4 5 6 
#
# 1 0.053499 -0.032005 -0.009513 0.000000 0.000000 0.000498
# 2 -0.032005 0.053499 -0.009513 0.000000 0.000000 -0.000498
# 3 -0.009513 -0.009513 0.024946 0.000000 0.000000 0.000000
# 4 0.000000 0.000000 0.000000 0.042001 0.000000 0.000000
# 5 0.000000 0.000000 0.000000 0.000000 0.042001 0.000000
# 6 0.000498 -0.000498 0.000000 0.000000 0.000000 0.054256
#
#
# Mechanical properties :
#
#
# Convention : Reuss Voigt Hill
#
# Bulk Modulus (GPa) = 33.46722 34.23645 33.85183
# Shear Modulus (GPa) = 13.08133 17.18415 15.13274
#
# Velocity S-wave (km/s) = 2.68265 3.07469 2.88533
# Velocity P-wave (km/s) = 5.29218 5.60713 5.45193
#
# Compressibility (1/GPa) = 0.02987999
#
# Stress axis : x y z
#
# Youngs Moduli (GPa) = 18.69208 18.69208 40.08672
#
# Poissons Ratio (x) = 0.59824 0.38136
# Poissons Ratio (y) = 0.59824 0.38136
# Poissons Ratio (z) = 0.17782 0.17782
#
# Static dielectric constant tensor:
#      x y z
#    x 1.624110 0.000000 0.000000 
#    y 0.000000 1.624110 0.000000 
#    z 0.000000 0.000000 1.610030 
# 
# From -- ./inp_files/1406.got.cif
#   From: 2010.05.17/outbox.cif.g08.bks.cpg/sg87_1_cif.got.tgz:1406.got - 2010.06.03 19:07:00.
