data_PCOD9545172
_publ_section_title
;
Structure prediction by ZEFSAII (Michael W. Deem and Ramdas Pophale) SiO2 
 PCOD9545172
Probable space group: P 42/N
;
_chemical_formula_sum "Si O2"
_cell_formula_units_Z 38
_cell_length_a 15.103125
_cell_length_b 15.103125
_cell_length_c 6.289310
_cell_angle_alpha 90.000000
_cell_angle_beta 90.000000
_cell_angle_gamma 90.000000
_cell_volume 1434.619188
_symmetry_space_group_name_H-M "P 42/N"
_symmetry_group_IT_number 86
_space_group.IT_coordinate_system_code '2'
_symmetry_cell_setting 'tetragonal'
loop_
_space_group_symop_operation_xyz
x,y,z
-y,1/2+x,1/2+z
1/2-x,1/2-y,z
1/2+y,-x,1/2+z
-x,-y,-z
y,1/2-x,1/2-z
1/2+x,1/2+y,-z
1/2-y,x,1/2-z
loop_
_atom_site_type_symbol
_atom_site_label
_atom_site_fract_x
_atom_site_fract_y
_atom_site_fract_z
Si Si1 0.427022 0.316303 0.829899
Si Si2 0.917915 0.313847 0.293048
Si Si3 0.533205 0.880465 0.049538
Si Si4 0.880656 0.442438 0.667047
Si Si5 0.250000 0.750000 0.402779
Si Si6 0.250000 0.250000 0.750000
O O1 0.417348 0.369820 0.609049
O O2 0.470293 0.219113 0.844923
O O3 0.479851 0.376862 0.993913
O O4 0.324719 0.297641 0.889003
O O5 0.883444 0.352817 0.517819
O O6 0.841412 0.315695 0.114764
O O7 0.945806 0.211758 0.290266
O O8 0.000517 0.366763 0.190824
O O9 0.462586 0.938182 0.177612
O O10 0.250000 0.750000 0.651164
#
# Coordination Sequence:
#
# PCOD9545172 Si02
#       6
#     8   8   8   8   4   2
#     4   9  20  39  64  90 117 166 213 269 337 397
#     4  11  24  35  58  90 125 173 214 260 337 401
#     4  10  22  41  62  89 126 163 218 273 334 403
#     4  11  23  38  60  93 127 167 214 266 329 399
#     4  12  22  36  58  88 134 180 224 270 338 424
#     4   8  16  40  68  84 118 160 212 266 328 412
#
# _framework density 26.487867000000001
#
# number of rings (size 3 to 8) (size 9 to 14) (size 15 to 20)
#    0.000    1.684    2.105    1.895    2.947    0.842 
#    0.000    4.211    0.000    0.000    0.000   26.526 
#    0.000    0.000    0.000    0.000    0.000    0.000 
#
# Total GULP energy -211817.025469 kJ/mol
# GULP energy per Si atom -5574.132249 kJ/mol
# Density = 2.642758 g / cm^3
# Si number density = 26.487867 Si / 1000 Ang^3
#
#
#
# Elastic Constant Matrix: (Units=GPa)
#
#
# Indices 1 2 3 4 5 6 
#
# 1 113.3953 28.1612 37.5966 0.0000 0.0000 6.6665
# 2 28.1612 113.3953 37.5966 0.0000 0.0000 -6.6665
# 3 37.5966 37.5966 128.8262 0.0000 0.0000 0.0000
# 4 0.0000 0.0000 0.0000 37.5168 0.0000 0.0000
# 5 0.0000 0.0000 0.0000 0.0000 37.5168 0.0000
# 6 6.6665 -6.6665 0.0000 0.0000 0.0000 44.4824
#
#
#
# Elastic Compliance Matrix: (Units=1/GPa)
#
#
# Indices 1 2 3 4 5 6 
#
# 1 0.010187 -0.001827 -0.002440 0.000000 0.000000 -0.001801
# 2 -0.001827 0.010187 -0.002440 0.000000 0.000000 0.001801
# 3 -0.002440 -0.002440 0.009187 0.000000 0.000000 0.000000
# 4 0.000000 0.000000 0.000000 0.026655 0.000000 0.000000
# 5 0.000000 0.000000 0.000000 0.000000 0.026655 0.000000
# 6 -0.001801 0.001801 0.000000 0.000000 0.000000 0.023020
#
#
# Mechanical properties :
#
#
# Convention : Reuss Voigt Hill
#
# Bulk Modulus (GPa) = 61.92839 62.48062 62.20451
# Shear Modulus (GPa) = 40.10053 40.72069 40.41061
#
# Velocity S-wave (km/s) = 3.89513 3.92514 3.91017
# Velocity P-wave (km/s) = 6.60758 6.64695 6.62729
#
# Compressibility (1/GPa) = 0.01614768
#
# Stress axis : x y z
#
# Youngs Moduli (GPa) = 98.16245 98.16245 108.85535
#
# Poissons Ratio (x) = 0.17933 0.26559
# Poissons Ratio (y) = 0.17933 0.26559
# Poissons Ratio (z) = 0.23950 0.23950
#
# Static dielectric constant tensor:
#      x y z
#    x 2.479900 0.000000 0.000000 
#    y 0.000000 2.479900 0.000000 
#    z 0.000000 0.000000 1.928280 
# 
# From -- ./inp_files/320.got.cif
#   From: 2010.05.17/outbox.cif.g08.bks.cpg/sg86_1_cif.got.tgz:320.got - 2010.06.03 19:03:11.
