data_PCOD9545874
_publ_section_title
;
Structure prediction by ZEFSAII (Michael W. Deem and Ramdas Pophale) SiO2 
 PCOD9545874
Probable space group: I 4/M
;
_chemical_formula_sum "Si O2"
_cell_formula_units_Z 112
_cell_length_a 13.882917
_cell_length_b 13.882917
_cell_length_c 30.752810
_cell_angle_alpha 90.000000
_cell_angle_beta 90.000000
_cell_angle_gamma 90.000000
_cell_volume 5927.154658
_symmetry_space_group_name_H-M "I 4/M"
_symmetry_group_IT_number 87
_symmetry_cell_setting 'tetragonal'
loop_
_space_group_symop_operation_xyz
x,y,z
-y,x,z
-x,-y,z
y,-x,z
-x,-y,-z
y,-x,-z
x,y,-z
-y,x,-z
1/2+x,1/2+y,1/2+z
1/2-y,1/2+x,1/2+z
1/2-x,1/2-y,1/2+z
1/2+y,1/2-x,1/2+z
1/2-x,1/2-y,1/2-z
1/2+y,1/2-x,1/2-z
1/2+x,1/2+y,1/2-z
1/2-y,1/2+x,1/2-z
loop_
_atom_site_type_symbol
_atom_site_label
_atom_site_fract_x
_atom_site_fract_y
_atom_site_fract_z
Si Si1 0.212004 0.720848 0.050056
Si Si2 0.238705 0.456731 0.663643
Si Si3 0.100178 0.876723 0.583587
Si Si4 0.985810 0.338999 0.745717
Si Si5 0.420803 0.771166 0.847359
Si Si6 0.591489 0.064833 0.602076
Si Si7 0.714610 0.352696 0.369375
O O1 0.322665 0.686518 0.057595
O O2 0.140806 0.636054 0.067167
O O3 0.199965 0.810493 0.082556
O O4 0.194872 0.741896 0.000000
O O5 0.229022 0.491785 0.712655
O O6 0.134087 0.444716 0.641155
O O7 0.297004 0.534130 0.635395
O O8 0.292560 0.356221 0.660931
O O9 0.103093 0.834886 0.633230
O O10 0.986714 0.871075 0.574376
O O11 0.901149 0.416342 0.756204
O O12 0.960499 0.283919 0.701228
O O13 0.496920 0.824763 0.878827
O O14 0.322184 0.829646 0.853234
O O15 0.500000 0.000000 0.587711
#
# Coordination Sequence:
#
# PCOD9545874 Si02
#       7
#    16  16  16  16  16  16  16
#     4  10  23  41  63  95 124 156 208 259 307 378
#     4  11  22  40  59  90 123 166 207 253 314 360
#     4  10  21  39  59  82 123 173 203 236 304 376
#     4  11  20  33  61  95 122 156 209 254 297 368
#     4  11  20  37  59  90 124 162 205 254 308 358
#     4  11  19  37  65  89 127 155 199 260 322 360
#     4  10  23  40  62  84 122 166 203 253 318 363
#
# _framework density 18.896082
#
# number of rings (size 3 to 8) (size 9 to 14) (size 15 to 20)
#    0.000    1.429    5.714    0.000    0.000    1.714 
#    2.571    3.571    0.000    0.000    0.000    4.000 
#    0.000    0.000    0.000    0.000    0.000    0.000 
#
# Total GULP energy -312315.716449 kJ/mol
# GULP energy per Si atom -5577.066365 kJ/mol
# Density = 1.885307 g / cm^3
# Si number density = 18.896082 Si / 1000 Ang^3
#
#
#
# Elastic Constant Matrix: (Units=GPa)
#
#
# Indices 1 2 3 4 5 6 
#
# 1 54.4881 11.9714 23.1653 0.0000 0.0000 2.6568
# 2 11.9714 54.4881 23.1653 0.0000 0.0000 -2.6568
# 3 23.1653 23.1653 108.8517 0.0000 0.0000 0.0000
# 4 0.0000 0.0000 0.0000 8.6393 0.0000 0.0000
# 5 0.0000 0.0000 0.0000 0.0000 8.6393 0.0000
# 6 2.6568 -2.6568 0.0000 0.0000 0.0000 20.2820
#
#
#
# Elastic Compliance Matrix: (Units=1/GPa)
#
#
# Indices 1 2 3 4 5 6 
#
# 1 0.020790 -0.003122 -0.003760 0.000000 0.000000 -0.003132
# 2 -0.003122 0.020790 -0.003760 0.000000 0.000000 0.003132
# 3 -0.003760 -0.003760 0.010787 0.000000 0.000000 0.000000
# 4 0.000000 0.000000 0.000000 0.115750 0.000000 0.000000
# 5 0.000000 0.000000 0.000000 0.000000 0.115750 0.000000
# 6 -0.003132 0.003132 0.000000 0.000000 0.000000 0.050125
#
#
# Mechanical properties :
#
#
# Convention : Reuss Voigt Hill
#
# Bulk Modulus (GPa) = 32.17186 37.15911 34.66548
# Shear Modulus (GPa) = 13.67473 18.14716 15.91095
#
# Velocity S-wave (km/s) = 2.69305 3.10234 2.90491
# Velocity P-wave (km/s) = 5.17036 5.70442 5.44394
#
# Compressibility (1/GPa) = 0.03108307
#
# Stress axis : x y z
#
# Youngs Moduli (GPa) = 48.10046 48.10046 92.70254
#
# Poissons Ratio (x) = 0.15016 0.34856
# Poissons Ratio (y) = 0.15016 0.34856
# Poissons Ratio (z) = 0.18086 0.18086
#
# Static dielectric constant tensor:
#      x y z
#    x 1.670300 0.000000 0.000000 
#    y 0.000000 1.670300 0.000000 
#    z 0.000000 0.000000 1.632750 
# 
# From -- ./inp_files/6712.got.cif
#   From: 2010.05.17/outbox.cif.g08.bks.cpg/sg87_4_cif.got.tgz:6712.got - 2010.06.03 19:07:00.
