data_PCOD9545542
_publ_section_title
;
Structure prediction by ZEFSAII (Michael W. Deem and Ramdas Pophale) SiO2 
 PCOD9545542
Probable space group: I 4/M
;
_chemical_formula_sum "Si O2"
_cell_formula_units_Z 64
_cell_length_a 21.913410
_cell_length_b 21.913410
_cell_length_c 9.330151
_cell_angle_alpha 90.000000
_cell_angle_beta 90.000000
_cell_angle_gamma 90.000000
_cell_volume 4480.315538
_symmetry_space_group_name_H-M "I 4/M"
_symmetry_group_IT_number 87
_symmetry_cell_setting 'tetragonal'
loop_
_space_group_symop_operation_xyz
x,y,z
-y,x,z
-x,-y,z
y,-x,z
-x,-y,-z
y,-x,-z
x,y,-z
-y,x,-z
1/2+x,1/2+y,1/2+z
1/2-y,1/2+x,1/2+z
1/2-x,1/2-y,1/2+z
1/2+y,1/2-x,1/2+z
1/2-x,1/2-y,1/2-z
1/2+y,1/2-x,1/2-z
1/2+x,1/2+y,1/2-z
1/2-y,1/2+x,1/2-z
loop_
_atom_site_type_symbol
_atom_site_label
_atom_site_fract_x
_atom_site_fract_y
_atom_site_fract_z
Si Si1 0.431741 0.161836 0.171344
Si Si2 0.264780 0.656867 0.163748
Si Si3 0.154973 0.756876 0.835811
Si Si4 0.575638 0.163143 0.170838
O O1 0.403937 0.228452 0.208093
O O2 0.503537 0.158004 0.197630
O O3 0.393179 0.111827 0.257767
O O4 0.420674 0.153517 0.000000
O O5 0.211023 0.708077 0.163664
O O6 0.317476 0.682351 0.265124
O O7 0.286569 0.650960 0.000000
O O8 0.103331 0.724128 0.741971
O O9 0.136063 0.765761 0.000000
O O10 0.586136 0.163948 0.000000
#
# Coordination Sequence:
#
# PCOD9545542 Si02
#       4
#    16  16  16  16
#     4   9  19  32  43  59  83 111 144 177 205 240
#     4   8  14  26  42  58  78 103 132 168 208 246
#     4   9  16  26  41  61  82 102 130 169 210 250
#     4  10  19  30  44  60  81 112 145 174 207 243
#
# _framework density 14.28471
#
# number of rings (size 3 to 8) (size 9 to 14) (size 15 to 20)
#    0.000    3.000    0.000    3.000    0.000    8.500 
#    0.000    2.500    0.000    0.000    0.000    0.000 
#    0.000    1.000    0.000   11.500    0.000    5.000 
#
# Total GULP energy -178139.620306 kJ/mol
# GULP energy per Si atom -5566.863135 kJ/mol
# Density = 1.425220 g / cm^3
# Si number density = 14.284710 Si / 1000 Ang^3
#
#
#
# Elastic Constant Matrix: (Units=GPa)
#
#
# Indices 1 2 3 4 5 6 
#
# 1 65.3657 66.4325 61.0238 0.0000 0.0000 -0.5980
# 2 66.4325 65.3657 61.0238 0.0000 0.0000 0.5980
# 3 61.0238 61.0238 89.6874 0.0000 0.0000 0.0000
# 4 0.0000 0.0000 0.0000 20.4514 0.0000 0.0000
# 5 0.0000 0.0000 0.0000 0.0000 20.4514 0.0000
# 6 -0.5980 0.5980 0.0000 0.0000 0.0000 13.3935
#
#
#
# Elastic Compliance Matrix: (Units=1/GPa)
#
#
# Indices 1 2 3 4 5 6 
#
# 1 -0.436075 0.456585 -0.013955 0.000000 0.000000 -0.039855
# 2 0.456585 -0.436075 -0.013955 0.000000 0.000000 0.039855
# 3 -0.013955 -0.013955 0.030140 0.000000 0.000000 0.000000
# 4 0.000000 0.000000 0.000000 0.048896 0.000000 0.000000
# 5 0.000000 0.000000 0.000000 0.000000 0.048896 0.000000
# 6 -0.039855 0.039855 0.000000 0.000000 0.000000 0.071104
#
#
# Mechanical properties :
#
#
# Convention : Reuss Voigt Hill
#
# Bulk Modulus (GPa) = 65.19040 66.37542 65.78291
# Shear Modulus (GPa) = -3.27794 12.98853 4.85530
#
# Velocity S-wave (km/s) = -1.51648 3.01867 1.84562
# Velocity P-wave (km/s) = 6.53217 7.66268 7.11990
#
# Compressibility (1/GPa) = 0.01533968
#
# Stress axis : x y z
#
# Youngs Moduli (GPa) = -2.29318 -2.29318 33.17825
#
# Poissons Ratio (x) = 1.04703 0.46301
# Poissons Ratio (y) = 1.04703 0.46301
# Poissons Ratio (z) = -0.03200 -0.03200
#
# Static dielectric constant tensor:
#      x y z
#    x 1.461820 0.000000 0.000000 
#    y 0.000000 1.461820 0.000000 
#    z 0.000000 0.000000 1.485610 
# 
# From -- ./inp_files/925.got.cif
#   From: 2010.05.17/outbox.cif.g08.bks.cpg/sg87_1_cif.got.tgz:925.got - 2010.06.03 19:07:00.
