data_PCOD9545198
_publ_section_title
;
Structure prediction by ZEFSAII (Michael W. Deem and Ramdas Pophale) SiO2 
 PCOD9545198
Probable space group: P 42/N
;
_chemical_formula_sum "Si O2"
_cell_formula_units_Z 54
_cell_length_a 14.401470
_cell_length_b 14.401470
_cell_length_c 11.907339
_cell_angle_alpha 90.000000
_cell_angle_beta 90.000000
_cell_angle_gamma 90.000000
_cell_volume 2469.609950
_symmetry_space_group_name_H-M "P 42/N"
_symmetry_group_IT_number 86
_space_group.IT_coordinate_system_code '2'
_symmetry_cell_setting 'tetragonal'
loop_
_space_group_symop_operation_xyz
x,y,z
-y,1/2+x,1/2+z
1/2-x,1/2-y,z
1/2+y,-x,1/2+z
-x,-y,-z
y,1/2-x,1/2-z
1/2+x,1/2+y,-z
1/2-y,x,1/2-z
loop_
_atom_site_type_symbol
_atom_site_label
_atom_site_fract_x
_atom_site_fract_y
_atom_site_fract_z
Si Si1 0.250000 0.250000 0.750000
Si Si2 0.498389 0.519675 0.129774
Si Si3 0.279341 0.055075 0.653994
Si Si4 0.585247 0.271389 0.639125
Si Si5 0.556993 0.210848 0.396381
Si Si6 0.750000 0.250000 0.288023
Si Si7 0.989543 0.905227 0.658013
Si Si8 0.032755 0.641285 0.976297
O O1 0.237830 0.157120 0.674914
O O2 0.561618 0.609957 0.141667
O O3 0.389903 0.540584 0.152635
O O4 0.517106 0.439724 0.218719
O O5 0.500000 0.500000 0.000000
O O6 0.274834 0.995765 0.769051
O O7 0.232349 0.000421 0.547513
O O8 0.550505 0.217416 0.530362
O O9 0.667094 0.222988 0.706251
O O10 0.629372 0.370745 0.595501
O O11 0.663183 0.230695 0.365794
O O12 0.494107 0.294231 0.349439
O O13 0.068181 0.947404 0.576104
O O14 0.896424 0.950835 0.604952
#
# Coordination Sequence:
#
# PCOD9545198 Si02
#       8
#     2   8   8   8   8   4   8   8
#     4  12  32  44  76  96 146 196 264 308 344 426
#     4  12  28  45  69 103 146 188 237 302 367 426
#     4  12  26  47  71 106 144 188 249 301 358 435
#     4  11  23  40  71 102 151 175 236 297 371 432
#     4  11  26  40  68 105 135 188 231 298 364 430
#     4  12  22  40  66 106 144 176 232 284 376 440
#     4  10  22  44  67  97 141 187 235 280 367 425
#     4  10  22  42  75 100 136 190 231 291 356 428
#
# _framework density 21.865801000000001
#
# number of rings (size 3 to 8) (size 9 to 14) (size 15 to 20)
#    0.000    0.889    2.963    3.111   12.444    1.185 
#    0.000    0.000    0.000    2.222    0.000    0.000 
#    0.000    0.000    0.000    0.000    0.000    0.000 
#
# Total GULP energy -301565.970302 kJ/mol
# GULP energy per Si atom -5584.555006 kJ/mol
# Density = 2.181603 g / cm^3
# Si number density = 21.865801 Si / 1000 Ang^3
#
#
#
# Elastic Constant Matrix: (Units=GPa)
#
#
# Indices 1 2 3 4 5 6 
#
# 1 35.1285 42.6378 16.3324 0.0000 0.0000 -16.7974
# 2 42.6378 35.1285 16.3324 0.0000 0.0000 16.7974
# 3 16.3324 16.3324 123.0257 0.0000 0.0000 0.0000
# 4 0.0000 0.0000 0.0000 81.6666 0.0000 0.0000
# 5 0.0000 0.0000 0.0000 0.0000 81.6666 0.0000
# 6 -16.7974 16.7974 0.0000 0.0000 0.0000 3.8400
#
#
#
# Elastic Compliance Matrix: (Units=1/GPa)
#
#
# Indices 1 2 3 4 5 6 
#
# 1 0.003572 0.010046 -0.001808 0.000000 0.000000 -0.028319
# 2 0.010046 0.003572 -0.001808 0.000000 0.000000 0.028319
# 3 -0.001808 -0.001808 0.008608 0.000000 0.000000 0.000000
# 4 0.000000 0.000000 0.000000 0.012245 0.000000 0.000000
# 5 0.000000 0.000000 0.000000 0.000000 0.012245 0.000000
# 6 -0.028319 0.028319 0.000000 0.000000 0.000000 0.012660
#
#
# Mechanical properties :
#
#
# Convention : Reuss Voigt Hill
#
# Bulk Modulus (GPa) = 34.94846 38.20977 36.57912
# Shear Modulus (GPa) = 100.84728 41.29997 71.07363
#
# Velocity S-wave (km/s) = 6.79861 4.35074 5.70745
# Velocity P-wave (km/s) = 8.81170 6.53844 7.75878
#
# Compressibility (1/GPa) = 0.02861356
#
# Stress axis : x y z
#
# Youngs Moduli (GPa) = 279.93990 279.93990 116.16551
#
# Poissons Ratio (x) = -2.81234 0.21002
# Poissons Ratio (y) = -2.81234 0.21002
# Poissons Ratio (z) = 0.50611 0.50611
#
# Static dielectric constant tensor:
#      x y z
#    x 1.909790 0.000000 0.000000 
#    y 0.000000 1.909790 0.000000 
#    z 0.000000 0.000000 1.929630 
# 
# From -- ./inp_files/2404.got.cif
#   From: 2010.05.17/outbox.cif.g08.bks.cpg/sg86_2_cif.got.tgz:2404.got - 2010.06.03 19:03:11.
