data_PCOD9545531
_publ_section_title
;
Structure prediction by ZEFSAII (Michael W. Deem and Ramdas Pophale) SiO2 
 PCOD9545531
Probable space group: I 4/M
;
_chemical_formula_sum "Si O2"
_cell_formula_units_Z 104
_cell_length_a 15.831177
_cell_length_b 15.831177
_cell_length_c 19.830965
_cell_angle_alpha 90.000000
_cell_angle_beta 90.000000
_cell_angle_gamma 90.000000
_cell_volume 4970.158710
_symmetry_space_group_name_H-M "I 4/M"
_symmetry_group_IT_number 87
_symmetry_cell_setting 'tetragonal'
loop_
_space_group_symop_operation_xyz
x,y,z
-y,x,z
-x,-y,z
y,-x,z
-x,-y,-z
y,-x,-z
x,y,-z
-y,x,-z
1/2+x,1/2+y,1/2+z
1/2-y,1/2+x,1/2+z
1/2-x,1/2-y,1/2+z
1/2+y,1/2-x,1/2+z
1/2-x,1/2-y,1/2-z
1/2+y,1/2-x,1/2-z
1/2+x,1/2+y,1/2-z
1/2-y,1/2+x,1/2-z
loop_
_atom_site_type_symbol
_atom_site_label
_atom_site_fract_x
_atom_site_fract_y
_atom_site_fract_z
Si Si1 0.860574 0.558247 0.500000
Si Si2 0.951966 0.376964 0.500000
Si Si3 0.711846 0.381388 0.138562
Si Si4 0.222612 0.837923 0.212912
Si Si5 0.020990 0.639653 0.250452
Si Si6 0.042764 0.137665 0.500000
Si Si7 0.720475 0.887574 0.133890
Si Si8 0.119005 0.705185 0.367229
O O1 0.906754 0.468119 0.500000
O O2 0.798541 0.573319 0.562189
O O3 0.945949 0.616424 0.500000
O O4 0.915590 0.329997 0.435837
O O5 0.703261 0.396936 0.221614
O O6 0.687398 0.438349 0.072012
O O7 0.806751 0.343643 0.133257
O O8 0.650764 0.300249 0.128336
O O9 0.250000 0.750000 0.250000
O O10 0.147540 0.809392 0.162716
O O11 0.302753 0.849363 0.163456
O O12 0.091080 0.565765 0.246123
O O13 0.040550 0.694204 0.185990
O O14 0.042443 0.694039 0.315438
O O15 0.946396 0.102739 0.500000
#
# Coordination Sequence:
#
# PCOD9545531 Si02
#       8
#     8   8  16  16  16   8  16  16
#     4  11  23  34  45  73 117 155 184 217 264 325
#     4  11  23  34  45  73 117 155 184 217 264 325
#     4  10  19  38  61  80  97 134 182 229 276 323
#     4   8  16  34  56  76  96 123 178 238 267 300
#     4  11  20  29  46  74 110 149 182 215 258 312
#     4  11  26  42  54  80 114 134 166 228 294 349
#     4  10  18  35  52  73 104 138 183 229 264 305
#     4  10  18  35  52  73 104 138 183 229 264 305
#
# _framework density 20.924886000000001
#
# number of rings (size 3 to 8) (size 9 to 14) (size 15 to 20)
#    0.000    2.231    4.615    2.769    0.000    8.000 
#    0.000    0.000    0.000    0.000    0.000    0.000 
#    0.000    0.000    0.000    0.000    0.000   87.692 
#
# Total GULP energy -289583.881860 kJ/mol
# GULP energy per Si atom -5568.920805 kJ/mol
# Density = 2.087726 g / cm^3
# Si number density = 20.924886 Si / 1000 Ang^3
#
#
#
# Elastic Constant Matrix: (Units=GPa)
#
#
# Indices 1 2 3 4 5 6 
#
# 1 -91.9357 168.6187 38.4518 0.0000 0.0000 29.2491
# 2 168.6187 -91.9357 38.4518 0.0000 0.0000 -29.2491
# 3 38.4518 38.4518 216.1309 0.0000 0.0000 0.0000
# 4 0.0000 0.0000 0.0000 -2.8279 0.0000 0.0000
# 5 0.0000 0.0000 0.0000 0.0000 -2.8279 0.0000
# 6 29.2491 -29.2491 0.0000 0.0000 0.0000 30.3465
#
#
#
# Elastic Compliance Matrix: (Units=1/GPa)
#
#
# Indices 1 2 3 4 5 6 
#
# 1 0.006359 0.009514 -0.002824 0.000000 0.000000 0.003041
# 2 0.009514 0.006359 -0.002824 0.000000 0.000000 -0.003041
# 3 -0.002824 -0.002824 0.005632 0.000000 0.000000 0.000000
# 4 0.000000 0.000000 0.000000 -0.353621 0.000000 0.000000
# 5 0.000000 0.000000 0.000000 0.000000 -0.353620 0.000000
# 6 0.003041 -0.003041 0.000000 0.000000 0.000000 0.027090
#
#
# Mechanical properties :
#
#
# Convention : Reuss Voigt Hill
#
# Bulk Modulus (GPa) = 38.34142 58.14490 48.24316
# Shear Modulus (GPa) = -7.56613 -9.27937 -8.42275
#
# Velocity S-wave (km/s) = -1.90360 -2.10814 -2.00847
# Velocity P-wave (km/s) = 3.67852 4.68211 4.21032
#
# Compressibility (1/GPa) = 0.02608145
#
# Stress axis : x y z
#
# Youngs Moduli (GPa) = 157.26303 157.26303 177.56844
#
# Poissons Ratio (x) = -1.49620 0.50144
# Poissons Ratio (y) = -1.49620 0.50144
# Poissons Ratio (z) = 0.44410 0.44410
#
# Static dielectric constant tensor:
#      x y z
#    x 1.783140 0.000000 0.000000 
#    y 0.000000 1.783140 0.000000 
#    z 0.000000 0.000000 5.068710 
# 
# From -- ./inp_files/4556.got.cif
#   From: 2010.05.17/outbox.cif.g08.bks.cpg/sg87_3_cif.got.tgz:4556.got - 2010.06.03 19:07:00.
