data_PCOD9545527
_publ_section_title
;
Structure prediction by ZEFSAII (Michael W. Deem and Ramdas Pophale) SiO2 
 PCOD9545527
Probable space group: I 4/M
;
_chemical_formula_sum "Si O2"
_cell_formula_units_Z 96
_cell_length_a 16.619315
_cell_length_b 16.619315
_cell_length_c 18.820482
_cell_angle_alpha 90.000000
_cell_angle_beta 90.000000
_cell_angle_gamma 90.000000
_cell_volume 5198.247826
_symmetry_space_group_name_H-M "I 4/M"
_symmetry_group_IT_number 87
_symmetry_cell_setting 'tetragonal'
loop_
_space_group_symop_operation_xyz
x,y,z
-y,x,z
-x,-y,z
y,-x,z
-x,-y,-z
y,-x,-z
x,y,-z
-y,x,-z
1/2+x,1/2+y,1/2+z
1/2-y,1/2+x,1/2+z
1/2-x,1/2-y,1/2+z
1/2+y,1/2-x,1/2+z
1/2-x,1/2-y,1/2-z
1/2+y,1/2-x,1/2-z
1/2+x,1/2+y,1/2-z
1/2-y,1/2+x,1/2-z
loop_
_atom_site_type_symbol
_atom_site_label
_atom_site_fract_x
_atom_site_fract_y
_atom_site_fract_z
Si Si1 0.701335 0.476781 0.082951
Si Si2 0.590636 0.087072 0.774644
Si Si3 0.660509 0.898870 0.579678
Si Si4 0.241934 0.793108 0.582739
Si Si5 0.876317 0.951824 0.719968
Si Si6 0.257938 0.163736 0.212360
O O1 0.789014 0.518529 0.085716
O O2 0.711815 0.382972 0.104582
O O3 0.646969 0.529838 0.136847
O O4 0.673997 0.481044 0.000000
O O5 0.498630 0.107100 0.758090
O O6 0.606456 0.095755 0.858247
O O7 0.639242 0.153506 0.734004
O O8 0.627787 0.891899 0.500000
O O9 0.728533 0.830101 0.589609
O O10 0.262777 0.800034 0.500000
O O11 0.315261 0.759470 0.629286
O O12 0.803447 0.903891 0.757981
O O13 0.955857 0.899833 0.738659
O O14 0.250000 0.250000 0.250000
#
# Coordination Sequence:
#
# PCOD9545527 Si02
#       6
#    16  16  16  16  16  16
#     4  10  18  33  58  89 128 161 192 244 311 381
#     4  11  24  40  59  90 122 157 206 256 298 365
#     4  10  19  36  59  85 117 156 197 246 306 363
#     4  10  21  36  60  93 120 156 208 255 305 372
#     4  11  24  37  54  89 127 161 206 253 302 372
#     4  12  22  37  65  85 118 163 205 246 310 367
#
# _framework density 18.467762
#
# number of rings (size 3 to 8) (size 9 to 14) (size 15 to 20)
#    0.000    1.333    3.333    3.000    2.333    2.000 
#    0.000    3.333    0.000    1.000    0.000    1.167 
#    0.000    0.000    0.000    0.000    0.000    0.000 
#
# Total GULP energy -267593.370474 kJ/mol
# GULP energy per Si atom -5574.861885 kJ/mol
# Density = 1.842573 g / cm^3
# Si number density = 18.467762 Si / 1000 Ang^3
#
#
#
# Elastic Constant Matrix: (Units=GPa)
#
#
# Indices 1 2 3 4 5 6 
#
# 1 70.6492 11.7440 39.5797 0.0000 0.0000 7.6369
# 2 11.7440 70.6492 39.5797 0.0000 0.0000 -7.6369
# 3 39.5797 39.5797 115.6313 0.0000 0.0000 0.0000
# 4 0.0000 0.0000 0.0000 29.3395 0.0000 0.0000
# 5 0.0000 0.0000 0.0000 0.0000 29.3395 0.0000
# 6 7.6369 -7.6369 0.0000 0.0000 0.0000 34.8165
#
#
#
# Elastic Compliance Matrix: (Units=1/GPa)
#
#
# Indices 1 2 3 4 5 6 
#
# 1 0.018042 0.000042 -0.006190 0.000000 0.000000 -0.003948
# 2 0.000042 0.018042 -0.006190 0.000000 0.000000 0.003948
# 3 -0.006190 -0.006190 0.012886 0.000000 0.000000 0.000000
# 4 0.000000 0.000000 0.000000 0.034084 0.000000 0.000000
# 5 0.000000 0.000000 0.000000 0.000000 0.034084 0.000000
# 6 -0.003948 0.003948 0.000000 0.000000 0.000000 0.030454
#
#
# Mechanical properties :
#
#
# Convention : Reuss Voigt Hill
#
# Bulk Modulus (GPa) = 41.16294 48.74847 44.95571
# Shear Modulus (GPa) = 27.72145 29.76751 28.74448
#
# Velocity S-wave (km/s) = 3.87857 4.01916 3.94949
# Velocity P-wave (km/s) = 6.51116 6.92763 6.72262
#
# Compressibility (1/GPa) = 0.02429370
#
# Stress axis : x y z
#
# Youngs Moduli (GPa) = 55.42593 55.42594 77.60508
#
# Poissons Ratio (x) = -0.00232 0.48038
# Poissons Ratio (y) = -0.00232 0.48038
# Poissons Ratio (z) = 0.34309 0.34309
#
# Static dielectric constant tensor:
#      x y z
#    x 1.636430 0.000000 0.000000 
#    y 0.000000 1.636430 0.000000 
#    z 0.000000 0.000000 1.674520 
# 
# From -- ./inp_files/5259.got.cif
#   From: 2010.05.17/outbox.cif.g08.bks.cpg/sg87_3_cif.got.tgz:5259.got - 2010.06.03 19:07:00.
