data_PCOD9545283
_publ_section_title
;
Structure prediction by ZEFSAII (Michael W. Deem and Ramdas Pophale) SiO2 
 PCOD9545283
Probable space group: P 42/N
;
_chemical_formula_sum "Si O2"
_cell_formula_units_Z 34
_cell_length_a 8.834246
_cell_length_b 8.834246
_cell_length_c 20.891983
_cell_angle_alpha 90.000000
_cell_angle_beta 90.000000
_cell_angle_gamma 90.000000
_cell_volume 1630.491882
_symmetry_space_group_name_H-M "P 42/N"
_symmetry_group_IT_number 86
_space_group.IT_coordinate_system_code '2'
_symmetry_cell_setting 'tetragonal'
loop_
_space_group_symop_operation_xyz
x,y,z
-y,1/2+x,1/2+z
1/2-x,1/2-y,z
1/2+y,-x,1/2+z
-x,-y,-z
y,1/2-x,1/2-z
1/2+x,1/2+y,-z
1/2-y,x,1/2-z
loop_
_atom_site_type_symbol
_atom_site_label
_atom_site_fract_x
_atom_site_fract_y
_atom_site_fract_z
Si Si1 0.486407 0.470821 0.694754
Si Si2 0.060495 0.416914 0.435742
Si Si3 0.250000 0.250000 0.750000
Si Si4 0.414461 0.446614 0.438026
Si Si5 0.186675 0.911175 0.187106
O O1 0.330865 0.383736 0.710052
O O2 0.521205 0.456221 0.620507
O O3 0.496306 0.654263 0.701202
O O4 0.605137 0.403089 0.744751
O O5 0.234834 0.464490 0.433628
O O6 0.055246 0.233920 0.438587
O O7 0.000000 0.500000 0.500000
O O8 0.978649 0.429977 0.365923
O O9 0.500000 0.500000 0.500000
O O10 0.250000 0.750000 0.163119
#
# Coordination Sequence:
#
# PCOD9545283 Si02
#       5
#     8   8   2   8   8
#     4  11  24  43  67  95 134 173 228 280 350 399
#     4  10  24  42  69  94 129 179 224 275 344 401
#     4  12  24  40  64 100 132 176 216 294 340 404
#     4  10  24  44  63  97 135 173 225 283 333 409
#     4  11  23  43  70  99 135 175 231 288 340 417
#
# _framework density 20.852602000000001
#
# number of rings (size 3 to 8) (size 9 to 14) (size 15 to 20)
#    0.000    1.412    2.353    1.412    6.588    6.118 
#    4.235    0.000    0.000    0.000    0.000    0.000 
#    0.000    0.000    0.000    0.000    0.000    0.000 
#
# Total GULP energy -189380.282650 kJ/mol
# GULP energy per Si atom -5570.008313 kJ/mol
# Density = 2.080514 g / cm^3
# Si number density = 20.852602 Si / 1000 Ang^3
#
#
#
# Elastic Constant Matrix: (Units=GPa)
#
#
# Indices 1 2 3 4 5 6 
#
# 1 68.6633 27.7432 60.8224 0.0000 0.0000 2.5329
# 2 27.7432 68.6633 60.8224 0.0000 0.0000 -2.5329
# 3 60.8224 60.8224 191.8859 0.0000 0.0000 0.0000
# 4 0.0000 0.0000 0.0000 34.7173 0.0000 0.0000
# 5 0.0000 0.0000 0.0000 0.0000 34.7173 0.0000
# 6 2.5329 -2.5329 0.0000 0.0000 0.0000 27.0721
#
#
#
# Elastic Compliance Matrix: (Units=1/GPa)
#
#
# Indices 1 2 3 4 5 6 
#
# 1 0.021005 -0.003719 -0.005479 0.000000 0.000000 -0.002313
# 2 -0.003719 0.021005 -0.005479 0.000000 0.000000 0.002313
# 3 -0.005479 -0.005479 0.008685 0.000000 0.000000 0.000000
# 4 0.000000 0.000000 0.000000 0.028804 0.000000 0.000000
# 5 0.000000 0.000000 0.000000 0.000000 0.028804 0.000000
# 6 -0.002313 0.002313 0.000000 0.000000 0.000000 0.037371
#
#
# Mechanical properties :
#
#
# Convention : Reuss Voigt Hill
#
# Bulk Modulus (GPa) = 46.85877 69.77650 58.31764
# Shear Modulus (GPa) = 27.45083 31.28964 29.37023
#
# Velocity S-wave (km/s) = 3.63219 3.87785 3.75703
# Velocity P-wave (km/s) = 6.33329 7.32016 6.84454
#
# Compressibility (1/GPa) = 0.02134072
#
# Stress axis : x y z
#
# Youngs Moduli (GPa) = 47.60683 47.60683 115.14063
#
# Poissons Ratio (x) = 0.17704 0.63090
# Poissons Ratio (y) = 0.17704 0.63090
# Poissons Ratio (z) = 0.26085 0.26085
#
# Static dielectric constant tensor:
#      x y z
#    x 1.783380 0.000000 0.000000 
#    y 0.000000 1.783380 0.000000 
#    z 0.000000 0.000000 1.802750 
# 
# From -- ./inp_files/4392.got.cif
#   From: 2010.05.17/outbox.cif.g08.bks.cpg/sg86_3_cif.got.tgz:4392.got - 2010.06.03 19:03:11.
