data_PCOD9545229
_publ_section_title
;
Structure prediction by ZEFSAII (Michael W. Deem and Ramdas Pophale) SiO2 
 PCOD9545229
Probable space group: P 42/N
;
_chemical_formula_sum "Si O2"
_cell_formula_units_Z 56
_cell_length_a 11.375048
_cell_length_b 11.375048
_cell_length_c 21.710563
_cell_angle_alpha 90.000000
_cell_angle_beta 90.000000
_cell_angle_gamma 90.000000
_cell_volume 2809.167024
_symmetry_space_group_name_H-M "P 42/N"
_symmetry_group_IT_number 86
_space_group.IT_coordinate_system_code '2'
_symmetry_cell_setting 'tetragonal'
loop_
_space_group_symop_operation_xyz
x,y,z
-y,1/2+x,1/2+z
1/2-x,1/2-y,z
1/2+y,-x,1/2+z
-x,-y,-z
y,1/2-x,1/2-z
1/2+x,1/2+y,-z
1/2-y,x,1/2-z
loop_
_atom_site_type_symbol
_atom_site_label
_atom_site_fract_x
_atom_site_fract_y
_atom_site_fract_z
Si Si1 0.290553 0.076953 0.273562
Si Si2 0.744815 0.390292 0.388153
Si Si3 0.498343 0.506687 0.073600
Si Si4 0.563792 0.118415 0.016478
Si Si5 0.257634 0.606997 0.878921
Si Si6 0.314582 0.624454 0.746114
Si Si7 0.615972 0.726049 0.908776
O O1 0.183547 0.115436 0.229341
O O2 0.231835 0.080314 0.340783
O O3 0.348750 0.951812 0.260372
O O4 0.750000 0.250000 0.380679
O O5 0.669760 0.398150 0.450748
O O6 0.697435 0.433965 0.321324
O O7 0.866482 0.459050 0.401852
O O8 0.621169 0.451623 0.097447
O O9 0.401197 0.412947 0.093457
O O10 0.500000 0.500000 0.000000
O O11 0.661035 0.085934 0.068086
O O12 0.474303 0.213202 0.045206
O O13 0.500000 0.000000 0.000000
O O14 0.250000 0.750000 0.875815
O O15 0.253939 0.566894 0.806973
O O16 0.250000 0.750000 0.742381
O O17 0.750000 0.750000 0.924092
#
# Coordination Sequence:
#
# PCOD9545229 Si02
#       7
#     8   8   8   8   8   8   8
#     4  11  23  40  64 101 138 171 217 287 356 411
#     4  11  26  43  65 102 134 178 234 284 345 412
#     4  12  23  43  71  94 134 184 233 285 338 418
#     4  12  27  43  67 102 137 178 226 294 348 413
#     4  11  21  47  69  97 134 185 230 273 351 427
#     4  10  23  40  65  93 137 176 226 271 337 425
#     4  12  25  41  66 101 136 174 226 283 361 404
#
# _framework density 19.934736999999998
#
# number of rings (size 3 to 8) (size 9 to 14) (size 15 to 20)
#    0.000    0.714    5.714    2.143   10.000    0.000 
#    2.571    0.000    0.000    0.000    0.000    0.000 
#    0.000    0.000    0.000    0.000    0.000    0.000 
#
# Total GULP energy -312133.123884 kJ/mol
# GULP energy per Si atom -5573.805784 kJ/mol
# Density = 1.988936 g / cm^3
# Si number density = 19.934737 Si / 1000 Ang^3
#
#
#
# Elastic Constant Matrix: (Units=GPa)
#
#
# Indices 1 2 3 4 5 6 
#
# 1 87.4739 25.9553 40.3435 0.0000 0.0000 4.6297
# 2 25.9553 87.4739 40.3435 0.0000 0.0000 -4.6297
# 3 40.3435 40.3435 195.1523 0.0000 0.0000 0.0000
# 4 0.0000 0.0000 0.0000 22.2696 0.0000 0.0000
# 5 0.0000 0.0000 0.0000 0.0000 22.2696 0.0000
# 6 4.6297 -4.6297 0.0000 0.0000 0.0000 23.3784
#
#
#
# Elastic Compliance Matrix: (Units=1/GPa)
#
#
# Indices 1 2 3 4 5 6 
#
# 1 0.013545 -0.003209 -0.002137 0.000000 0.000000 -0.003318
# 2 -0.003209 0.013545 -0.002137 0.000000 0.000000 0.003318
# 3 -0.002137 -0.002137 0.006008 0.000000 0.000000 0.000000
# 4 0.000000 0.000000 0.000000 0.044904 0.000000 0.000000
# 5 0.000000 0.000000 0.000000 0.000000 0.044904 0.000000
# 6 -0.003318 0.003318 0.000000 0.000000 0.000000 0.044089
#
#
# Mechanical properties :
#
#
# Convention : Reuss Voigt Hill
#
# Bulk Modulus (GPa) = 55.14892 64.82051 59.98472
# Shear Modulus (GPa) = 26.59498 31.14738 28.87118
#
# Velocity S-wave (km/s) = 3.65650 3.95709 3.80976
# Velocity P-wave (km/s) = 6.74918 7.31198 7.03621
#
# Compressibility (1/GPa) = 0.01813272
#
# Stress axis : x y z
#
# Youngs Moduli (GPa) = 73.82617 73.82617 166.45429
#
# Poissons Ratio (x) = 0.23693 0.35567
# Poissons Ratio (y) = 0.23693 0.35567
# Poissons Ratio (z) = 0.15775 0.15775
#
# Static dielectric constant tensor:
#      x y z
#    x 1.693860 0.000000 0.000000 
#    y 0.000000 1.693860 0.000000 
#    z 0.000000 0.000000 1.322360 
# 
# From -- ./inp_files/4205.got.cif
#   From: 2010.05.17/outbox.cif.g08.bks.cpg/sg86_3_cif.got.tgz:4205.got - 2010.06.03 19:03:11.
