data_PCOD9545186
_publ_section_title
;
Structure prediction by ZEFSAII (Michael W. Deem and Ramdas Pophale) SiO2 
 PCOD9545186
Probable space group: P 42/N
;
_chemical_formula_sum "Si O2"
_cell_formula_units_Z 54
_cell_length_a 14.486781
_cell_length_b 14.486781
_cell_length_c 12.503850
_cell_angle_alpha 90.000000
_cell_angle_beta 90.000000
_cell_angle_gamma 90.000000
_cell_volume 2624.143284
_symmetry_space_group_name_H-M "P 42/N"
_symmetry_group_IT_number 86
_space_group.IT_coordinate_system_code '2'
_symmetry_cell_setting 'tetragonal'
loop_
_space_group_symop_operation_xyz
x,y,z
-y,1/2+x,1/2+z
1/2-x,1/2-y,z
1/2+y,-x,1/2+z
-x,-y,-z
y,1/2-x,1/2-z
1/2+x,1/2+y,-z
1/2-y,x,1/2-z
loop_
_atom_site_type_symbol
_atom_site_label
_atom_site_fract_x
_atom_site_fract_y
_atom_site_fract_z
Si Si1 0.448367 0.990660 0.111116
Si Si2 0.446541 0.202585 0.156001
Si Si3 0.502173 0.127385 0.553263
Si Si4 0.750000 0.750000 0.750000
Si Si5 0.299039 0.551251 0.733137
Si Si6 0.750000 0.250000 0.810280
Si Si7 0.048308 0.743155 0.631621
Si Si8 0.666329 0.006884 0.466331
O O1 0.471273 0.900951 0.183671
O O2 0.342170 0.972480 0.084200
O O3 0.458218 0.091806 0.162469
O O4 0.500000 0.000000 0.000000
O O5 0.340727 0.226278 0.182079
O O6 0.513385 0.242056 0.247578
O O7 0.471823 0.253129 0.045705
O O8 0.506190 0.200150 0.650081
O O9 0.490362 0.171368 0.436586
O O10 0.414714 0.062420 0.570233
O O11 0.601639 0.076315 0.538134
O O12 0.283638 0.660485 0.752792
O O13 0.222424 0.530582 0.642680
O O14 0.725087 0.342241 0.876160
#
# Coordination Sequence:
#
# PCOD9545186 Si02
#       8
#     8   8   8   2   8   4   8   8
#     4  11  24  42  67  99 136 174 229 283 345 403
#     4  12  24  44  70  99 135 177 238 287 338 411
#     4  11  26  43  69  98 139 182 227 275 353 412
#     4  12  24  40  68 100 130 176 232 296 332 398
#     4  11  24  45  66 104 135 180 227 283 347 408
#     4  10  22  42  64  96 136 166 228 274 336 408
#     4  11  24  42  68 102 131 179 228 280 344 408
#     4  11  24  46  69  97 139 184 223 284 342 415
#
# _framework density 20.578144000000002
#
# number of rings (size 3 to 8) (size 9 to 14) (size 15 to 20)
#    0.000    0.889    4.444    2.667    4.148    2.963 
#    0.000    0.000    0.000    0.000    0.000    0.000 
#    0.000    0.000    0.000    0.000    0.000    0.000 
#
# Total GULP energy -300988.638315 kJ/mol
# GULP energy per Si atom -5573.863673 kJ/mol
# Density = 2.053131 g / cm^3
# Si number density = 20.578144 Si / 1000 Ang^3
#
#
#
# Elastic Constant Matrix: (Units=GPa)
#
#
# Indices 1 2 3 4 5 6 
#
# 1 95.8370 22.0012 36.5297 0.0000 0.0000 6.5154
# 2 22.0012 95.8370 36.5297 0.0000 0.0000 -6.5154
# 3 36.5297 36.5297 98.4658 0.0000 0.0000 0.0000
# 4 0.0000 0.0000 0.0000 211.2147 0.0000 0.0000
# 5 0.0000 0.0000 0.0000 0.0000 211.2147 0.0000
# 6 6.5154 -6.5154 0.0000 0.0000 0.0000 22.7641
#
#
#
# Elastic Compliance Matrix: (Units=1/GPa)
#
#
# Indices 1 2 3 4 5 6 
#
# 1 0.012643 -0.001621 -0.004089 0.000000 0.000000 -0.004083
# 2 -0.001621 0.012643 -0.004089 0.000000 0.000000 0.004083
# 3 -0.004089 -0.004089 0.013190 0.000000 0.000000 0.000000
# 4 0.000000 0.000000 0.000000 0.004735 0.000000 0.000000
# 5 0.000000 0.000000 0.000000 0.000000 0.004735 0.000000
# 6 -0.004083 0.004083 0.000000 0.000000 0.000000 0.046266
#
#
# Mechanical properties :
#
#
# Convention : Reuss Voigt Hill
#
# Bulk Modulus (GPa) = 52.97445 53.36234 53.16839
# Shear Modulus (GPa) = 41.63198 102.04397 71.83798
#
# Velocity S-wave (km/s) = 4.50279 7.04955 5.91487
# Velocity P-wave (km/s) = 7.26859 9.60466 8.51710
#
# Compressibility (1/GPa) = 0.01887702
#
# Stress axis : x y z
#
# Youngs Moduli (GPa) = 79.09733 79.09733 75.81750
#
# Poissons Ratio (x) = 0.12825 0.31000
# Poissons Ratio (y) = 0.12825 0.31000
# Poissons Ratio (z) = 0.32341 0.32341
#
# Static dielectric constant tensor:
#      x y z
#    x 1.735940 0.000000 0.000000 
#    y 0.000000 1.735940 0.000000 
#    z 0.000000 0.000000 1.707750 
# 
# From -- ./inp_files/2415.got.cif
#   From: 2010.05.17/outbox.cif.g08.bks.cpg/sg86_2_cif.got.tgz:2415.got - 2010.06.03 19:03:11.
