data_PCOD9545136
_publ_section_title
;
Structure prediction by ZEFSAII (Michael W. Deem and Ramdas Pophale) SiO2 
 PCOD9545136
Probable space group: P 42/N
;
_chemical_formula_sum "Si O2"
_cell_formula_units_Z 32
_cell_length_a 9.723749
_cell_length_b 9.723749
_cell_length_c 17.063063
_cell_angle_alpha 90.000000
_cell_angle_beta 90.000000
_cell_angle_gamma 90.000000
_cell_volume 1613.334697
_symmetry_space_group_name_H-M "P 42/N"
_symmetry_group_IT_number 86
_space_group.IT_coordinate_system_code '2'
_symmetry_cell_setting 'tetragonal'
loop_
_space_group_symop_operation_xyz
x,y,z
-y,1/2+x,1/2+z
1/2-x,1/2-y,z
1/2+y,-x,1/2+z
-x,-y,-z
y,1/2-x,1/2-z
1/2+x,1/2+y,-z
1/2-y,x,1/2-z
loop_
_atom_site_type_symbol
_atom_site_label
_atom_site_fract_x
_atom_site_fract_y
_atom_site_fract_z
Si Si1 0.113199 0.157486 0.933813
Si Si2 0.084483 0.863019 0.760875
Si Si3 0.390271 0.665511 0.937960
Si Si4 0.572878 0.380577 0.780311
O O1 0.250000 0.250000 0.927071
O O2 0.022753 0.152156 0.854241
O O3 0.143538 0.996446 0.950857
O O4 0.008656 0.207188 0.001186
O O5 0.050224 0.819433 0.849625
O O6 0.240689 0.916501 0.767718
O O7 0.081881 0.732251 0.703928
O O8 0.992199 0.990297 0.736434
O O9 0.250000 0.750000 0.946113
#
# Coordination Sequence:
#
# PCOD9545136 Si02
#       4
#     8   8   8   8
#     4  10  24  41  63  94 121 166 210 256 309 367
#     4  10  22  40  59  93 123 161 205 257 312 367
#     4  10  21  43  60  87 128 159 207 258 302 377
#     4  10  22  39  61  90 123 155 209 253 311 368
#
# _framework density 19.834693999999999
#
# number of rings (size 3 to 8) (size 9 to 14) (size 15 to 20)
#    0.000    2.000    2.500    0.000   10.500    1.500 
#   13.500    0.000    0.000    0.000    0.000    0.000 
#    0.000    0.000    0.000    0.000    0.000    0.000 
#
# Total GULP energy -178431.766213 kJ/mol
# GULP energy per Si atom -5575.992694 kJ/mol
# Density = 1.978955 g / cm^3
# Si number density = 19.834694 Si / 1000 Ang^3
#
#
#
# Elastic Constant Matrix: (Units=GPa)
#
#
# Indices 1 2 3 4 5 6 
#
# 1 101.0498 69.0795 16.1415 0.0000 0.0000 -3.5312
# 2 69.0795 101.0498 16.1415 0.0000 0.0000 3.5312
# 3 16.1415 16.1415 47.1139 0.0000 0.0000 0.0000
# 4 0.0000 0.0000 0.0000 23.5432 0.0000 0.0000
# 5 0.0000 0.0000 0.0000 0.0000 23.5432 0.0000
# 6 -3.5312 3.5312 0.0000 0.0000 0.0000 -17.7540
#
#
#
# Elastic Compliance Matrix: (Units=1/GPa)
#
#
# Indices 1 2 3 4 5 6 
#
# 1 0.018125 -0.011838 -0.002154 0.000000 0.000000 -0.005959
# 2 -0.011838 0.018125 -0.002154 0.000000 0.000000 0.005959
# 3 -0.002154 -0.002154 0.022701 0.000000 0.000000 0.000000
# 4 0.000000 0.000000 0.000000 0.042475 0.000000 0.000000
# 5 0.000000 0.000000 0.000000 0.000000 0.042475 0.000000
# 6 -0.005959 0.005959 0.000000 0.000000 0.000000 -0.053955
#
#
# Mechanical properties :
#
#
# Convention : Reuss Voigt Hill
#
# Bulk Modulus (GPa) = 37.51098 50.21539 43.86319
# Shear Modulus (GPa) = 38.13204 15.72320 26.92762
#
# Velocity S-wave (km/s) = 4.38938 2.81857 3.68856
# Velocity P-wave (km/s) = 6.68145 5.99703 6.34847
#
# Compressibility (1/GPa) = 0.02665886
#
# Stress axis : x y z
#
# Youngs Moduli (GPa) = 55.17357 55.17357 44.05097
#
# Poissons Ratio (x) = 0.65315 0.09488
# Poissons Ratio (y) = 0.65315 0.09488
# Poissons Ratio (z) = 0.11883 0.11883
#
# Static dielectric constant tensor:
#      x y z
#    x 1.713840 0.000000 0.000000 
#    y 0.000000 1.713840 0.000000 
#    z 0.000000 0.000000 1.723840 
# 
# From -- ./inp_files/3835.got.cif
#   From: 2010.05.17/outbox.cif.g08.bks.cpg/sg86_2_cif.got.tgz:3835.got - 2010.06.03 19:03:11.
