data_PCOD9545979
_publ_section_title
;
Structure prediction by ZEFSAII (Michael W. Deem and Ramdas Pophale) SiO2 
 PCOD9545979
Probable space group: I 4/M
;
_chemical_formula_sum "Si O2"
_cell_formula_units_Z 72
_cell_length_a 14.801136
_cell_length_b 14.801136
_cell_length_c 16.601307
_cell_angle_alpha 90.000000
_cell_angle_beta 90.000000
_cell_angle_gamma 90.000000
_cell_volume 3636.908536
_symmetry_space_group_name_H-M "I 4/M"
_symmetry_group_IT_number 87
_symmetry_cell_setting 'tetragonal'
loop_
_space_group_symop_operation_xyz
x,y,z
-y,x,z
-x,-y,z
y,-x,z
-x,-y,-z
y,-x,-z
x,y,-z
-y,x,-z
1/2+x,1/2+y,1/2+z
1/2-y,1/2+x,1/2+z
1/2-x,1/2-y,1/2+z
1/2+y,1/2-x,1/2+z
1/2-x,1/2-y,1/2-z
1/2+y,1/2-x,1/2-z
1/2+x,1/2+y,1/2-z
1/2-y,1/2+x,1/2-z
loop_
_atom_site_type_symbol
_atom_site_label
_atom_site_fract_x
_atom_site_fract_y
_atom_site_fract_z
Si Si1 0.817283 0.624361 0.727788
Si Si2 0.009783 0.392060 0.351403
Si Si3 0.138989 0.936320 0.000000
Si Si4 0.812889 0.794412 0.500000
Si Si5 0.980526 0.272698 0.500000
Si Si6 0.321528 0.278048 0.637788
O O1 0.847915 0.533261 0.771672
O O2 0.718716 0.639010 0.690739
O O3 0.836406 0.701030 0.795086
O O4 0.885211 0.630543 0.653244
O O5 0.000000 0.500000 0.355797
O O6 0.966709 0.338807 0.424564
O O7 0.193061 0.903461 0.079737
O O8 0.042611 0.883302 0.000000
O O9 0.917495 0.765445 0.500000
O O10 0.756338 0.758003 0.577046
O O11 0.802469 0.903075 0.500000
#
# Coordination Sequence:
#
# PCOD9545979 Si02
#       6
#    16  16   8   8   8  16
#     4  11  21  38  62  92 123 155 202 244 314 379
#     4  12  23  38  63  97 131 156 194 260 315 368
#     4  10  24  43  60  87 124 164 216 264 300 368
#     4  11  22  42  62  86 122 167 204 252 302 375
#     4  12  25  43  62  88 130 164 214 249 299 376
#     4  10  23  40  63  89 116 168 201 256 316 362
#
# _framework density 19.797035000000001
#
# number of rings (size 3 to 8) (size 9 to 14) (size 15 to 20)
#    0.000    1.000    6.667    0.333    3.111    0.222 
#    0.000    0.000    0.000    0.000    0.000    0.000 
#    0.000    0.000    0.000    0.000    0.000    0.000 
#
# Total GULP energy -200747.206382 kJ/mol
# GULP energy per Si atom -5576.311288 kJ/mol
# Density = 1.975198 g / cm^3
# Si number density = 19.797035 Si / 1000 Ang^3
#
#
#
# Elastic Constant Matrix: (Units=GPa)
#
#
# Indices 1 2 3 4 5 6 
#
# 1 45.2906 7.6132 11.7704 0.0000 0.0000 0.6923
# 2 7.6132 45.2906 11.7704 0.0000 0.0000 -0.6923
# 3 11.7704 11.7704 68.7627 0.0000 0.0000 0.0000
# 4 0.0000 0.0000 0.0000 -88.9690 -0.0001 0.0000
# 5 0.0000 0.0000 0.0000 -0.0001 -88.9690 0.0000
# 6 0.6923 -0.6923 0.0000 0.0000 0.0000 24.3541
#
#
#
# Elastic Compliance Matrix: (Units=1/GPa)
#
#
# Indices 1 2 3 4 5 6 
#
# 1 0.023515 -0.003054 -0.003502 0.000000 0.000000 -0.000755
# 2 -0.003054 0.023515 -0.003502 0.000000 0.000000 0.000755
# 3 -0.003502 -0.003502 0.015742 0.000000 0.000000 0.000000
# 4 0.000000 0.000000 0.000000 -0.011240 0.000000 0.000000
# 5 0.000000 0.000000 0.000000 0.000000 -0.011240 0.000000
# 6 -0.000755 0.000755 0.000000 0.000000 0.000000 0.041104
#
#
# Mechanical properties :
#
#
# Convention : Reuss Voigt Hill
#
# Bulk Modulus (GPa) = 23.44457 24.62799 24.03628
# Shear Modulus (GPa) = 43.20369 -22.17078 10.51646
#
# Velocity S-wave (km/s) = 4.67661 -3.35013 2.30731
# Velocity P-wave (km/s) = 6.40540 1.58026 4.38930
#
# Compressibility (1/GPa) = 0.04265380
#
# Stress axis : x y z
#
# Youngs Moduli (GPa) = 42.52645 42.52644 63.52513
#
# Poissons Ratio (x) = 0.12988 0.22249
# Poissons Ratio (y) = 0.12988 0.22249
# Poissons Ratio (z) = 0.14894 0.14894
#
# Static dielectric constant tensor:
#      x y z
#    x 1.690660 0.000000 0.000000 
#    y 0.000000 1.690660 0.000000 
#    z 0.000000 0.000000 1.721930 
# 
# From -- ./inp_files/4302.got.cif
#   From: 2010.05.17/outbox.cif.g08.bks.cpg/sg87_3_cif.got.tgz:4302.got - 2010.06.03 19:07:00.
