data_PCOD9545143
_publ_section_title
;
Structure prediction by ZEFSAII (Michael W. Deem and Ramdas Pophale) SiO2 
 PCOD9545143
Probable space group: P 42/N
;
_chemical_formula_sum "Si O2"
_cell_formula_units_Z 48
_cell_length_a 11.701587
_cell_length_b 11.701587
_cell_length_c 13.384144
_cell_angle_alpha 90.000000
_cell_angle_beta 90.000000
_cell_angle_gamma 90.000000
_cell_volume 1832.652537
_symmetry_space_group_name_H-M "P 42/N"
_symmetry_group_IT_number 86
_space_group.IT_coordinate_system_code '2'
_symmetry_cell_setting 'tetragonal'
loop_
_space_group_symop_operation_xyz
x,y,z
-y,1/2+x,1/2+z
1/2-x,1/2-y,z
1/2+y,-x,1/2+z
-x,-y,-z
y,1/2-x,1/2-z
1/2+x,1/2+y,-z
1/2-y,x,1/2-z
loop_
_atom_site_type_symbol
_atom_site_label
_atom_site_fract_x
_atom_site_fract_y
_atom_site_fract_z
Si Si1 0.421567 0.196645 0.281839
Si Si2 0.815362 0.127596 0.415327
Si Si3 0.588722 0.497700 0.091626
Si Si4 0.244053 0.616130 0.352890
Si Si5 0.615048 0.757978 0.122159
Si Si6 0.793631 0.554080 0.976922
O O1 0.326018 0.121874 0.231459
O O2 0.540866 0.182727 0.224746
O O3 0.412845 0.191532 0.401142
O O4 0.750000 0.250000 0.391146
O O5 0.772821 0.100747 0.529153
O O6 0.951316 0.142606 0.423333
O O7 0.801932 0.012763 0.348785
O O8 0.570395 0.385629 0.155886
O O9 0.583572 0.624677 0.131992
O O10 0.500000 0.500000 0.000000
O O11 0.722836 0.489133 0.062534
O O12 0.250000 0.750000 0.331062
O O13 0.750000 0.750000 0.154382
O O14 0.639288 0.839354 0.023337
#
# Coordination Sequence:
#
# PCOD9545143 Si02
#       6
#     8   8   8   8   8   8
#     4  11  26  40  63  93 135 167 204 268 342 392
#     4  11  20  38  63  90 127 168 222 271 318 388
#     4  11  19  35  64  90 124 164 216 259 320 383
#     4  11  22  42  62  90 130 173 210 267 328 395
#     4  10  22  33  59  98 124 158 212 270 325 372
#     4  11  22  38  60  96 128 165 216 268 324 393
#
# _framework density 26.191545000000001
#
# number of rings (size 3 to 8) (size 9 to 14) (size 15 to 20)
#    0.000    1.167    5.000    2.500    9.333    0.667 
#    0.000    0.000    0.000    0.000    0.000    0.000 
#    0.000    0.000    0.000    0.000    0.000    0.000 
#
# Total GULP energy -267280.049453 kJ/mol
# GULP energy per Si atom -5568.334364 kJ/mol
# Density = 2.613193 g / cm^3
# Si number density = 26.191545 Si / 1000 Ang^3
#
#
#
# Elastic Constant Matrix: (Units=GPa)
#
#
# Indices 1 2 3 4 5 6 
#
# 1 161.2652 30.2659 21.8071 0.0000 0.0000 11.0170
# 2 30.2659 161.2652 21.8071 0.0000 0.0000 -11.0170
# 3 21.8071 21.8071 58.4343 0.0000 0.0000 0.0000
# 4 0.0000 0.0000 0.0000 -2.1507 0.0000 0.0000
# 5 0.0000 0.0000 0.0000 0.0000 -2.1507 0.0000
# 6 11.0170 -11.0170 0.0000 0.0000 0.0000 18.5276
#
#
#
# Elastic Compliance Matrix: (Units=1/GPa)
#
#
# Indices 1 2 3 4 5 6 
#
# 1 0.007094 -0.001388 -0.002129 0.000000 0.000000 -0.005044
# 2 -0.001388 0.007094 -0.002129 0.000000 0.000000 0.005044
# 3 -0.002129 -0.002129 0.018703 0.000000 0.000000 0.000000
# 4 0.000000 0.000000 0.000000 -0.464959 0.000000 0.000000
# 5 0.000000 0.000000 0.000000 0.000000 -0.464959 0.000000
# 6 -0.005044 0.005044 0.000000 0.000000 0.000000 0.059972
#
#
# Mechanical properties :
#
#
# Convention : Reuss Voigt Hill
#
# Bulk Modulus (GPa) = 46.30299 58.74724 52.52512
# Shear Modulus (GPa) = -6.10826 23.31754 8.60464
#
# Velocity S-wave (km/s) = -1.52879 2.98698 1.81450
# Velocity P-wave (km/s) = 3.82109 5.86298 4.94850
#
# Compressibility (1/GPa) = 0.02159688
#
# Stress axis : x y z
#
# Youngs Moduli (GPa) = 140.96480 140.96480 53.46854
#
# Poissons Ratio (x) = 0.19566 0.11386
# Poissons Ratio (y) = 0.19566 0.11386
# Poissons Ratio (z) = 0.30017 0.30017
#
# Static dielectric constant tensor:
#      x y z
#    x 2.117250 0.000000 0.000000 
#    y 0.000000 2.117250 0.000000 
#    z 0.000000 0.000000 2.278190 
# 
# From -- ./inp_files/3592.got.cif
#   From: 2010.05.17/outbox.cif.g08.bks.cpg/sg86_2_cif.got.tgz:3592.got - 2010.06.03 19:03:11.
