data_PCOD9545142
_publ_section_title
;
Structure prediction by ZEFSAII (Michael W. Deem and Ramdas Pophale) SiO2 
 PCOD9545142
Probable space group: P 42/N
;
_chemical_formula_sum "Si O2"
_cell_formula_units_Z 58
_cell_length_a 25.067994
_cell_length_b 25.067994
_cell_length_c 5.420343
_cell_angle_alpha 90.000000
_cell_angle_beta 90.000000
_cell_angle_gamma 90.000000
_cell_volume 3406.166974
_symmetry_space_group_name_H-M "P 42/N"
_symmetry_group_IT_number 86
_space_group.IT_coordinate_system_code '2'
_symmetry_cell_setting 'tetragonal'
loop_
_space_group_symop_operation_xyz
x,y,z
-y,1/2+x,1/2+z
1/2-x,1/2-y,z
1/2+y,-x,1/2+z
-x,-y,-z
y,1/2-x,1/2-z
1/2+x,1/2+y,-z
1/2-y,x,1/2-z
loop_
_atom_site_type_symbol
_atom_site_label
_atom_site_fract_x
_atom_site_fract_y
_atom_site_fract_z
Si Si1 0.695523 0.564141 0.392069
Si Si2 0.388824 0.024690 0.223554
Si Si3 0.277065 0.359826 0.216933
Si Si4 0.511849 0.903990 0.934689
Si Si5 0.446825 0.534921 0.942829
Si Si6 0.708627 0.941185 0.081798
Si Si7 0.131792 0.379184 0.582429
Si Si8 0.750000 0.750000 0.750000
O O1 0.715790 0.621007 0.501821
O O2 0.657304 0.532525 0.580031
O O3 0.747950 0.536499 0.278630
O O4 0.650535 0.580870 0.194256
O O5 0.438183 0.053971 0.081258
O O6 0.379098 0.066411 0.442597
O O7 0.408520 0.970619 0.352019
O O8 0.335936 0.022922 0.053888
O O9 0.245983 0.307327 0.126555
O O10 0.246816 0.411081 0.109600
O O11 0.335942 0.349511 0.113387
O O12 0.473364 0.915434 0.699988
O O13 0.485635 0.915946 0.199981
O O14 0.500000 0.500000 0.000000
O O15 0.673956 0.895196 0.212635
#
# Coordination Sequence:
#
# PCOD9545142 Si02
#       8
#     8   8   8   8   8   8   8   2
#     4  11  21  35  53  66  97 132 170 212 277 330
#     4  11  20  34  53  73 102 121 169 216 273 327
#     4  11  23  36  45  69  89 129 175 223 280 323
#     4  11  21  36  55  76 102 130 161 219 270 331
#     4  10  22  33  55  81  98 126 163 209 283 319
#     4  11  23  32  51  69  93 135 167 213 278 321
#     4  11  20  35  51  68  95 133 164 227 276 321
#     4  12  20  32  46  56  88 114 180 228 270 336
#
# _framework density 17.027939
#
# number of rings (size 3 to 8) (size 9 to 14) (size 15 to 20)
#    0.000    1.103    2.759    6.621    3.862    1.103 
#    0.000    2.759    0.000    0.000    0.000    0.000 
#    0.000    0.000    0.000    0.000    0.000    0.000 
#
# Total GULP energy -322940.443936 kJ/mol
# GULP energy per Si atom -5567.938689 kJ/mol
# Density = 1.698918 g / cm^3
# Si number density = 17.027939 Si / 1000 Ang^3
#
#
#
# Elastic Constant Matrix: (Units=GPa)
#
#
# Indices 1 2 3 4 5 6 
#
# 1 60.1774 38.4478 30.1544 0.0000 0.0000 -3.1519
# 2 38.4478 60.1774 30.1544 0.0000 0.0000 3.1519
# 3 30.1544 30.1544 80.9072 0.0000 0.0000 0.0000
# 4 0.0000 0.0000 0.0000 24.8312 0.0000 0.0000
# 5 0.0000 0.0000 0.0000 0.0000 24.8312 0.0000
# 6 -3.1519 3.1519 0.0000 0.0000 0.0000 18.9461
#
#
#
# Elastic Compliance Matrix: (Units=1/GPa)
#
#
# Indices 1 2 3 4 5 6 
#
# 1 0.030743 -0.017611 -0.004894 0.000000 0.000000 0.008044
# 2 -0.017611 0.030743 -0.004894 0.000000 0.000000 -0.008044
# 3 -0.004894 -0.004894 0.016008 0.000000 0.000000 0.000000
# 4 0.000000 0.000000 0.000000 0.040272 0.000000 0.000000
# 5 0.000000 0.000000 0.000000 0.000000 0.040272 0.000000
# 6 0.008044 -0.008044 0.000000 0.000000 0.000000 0.055458
#
#
# Mechanical properties :
#
#
# Convention : Reuss Voigt Hill
#
# Bulk Modulus (GPa) = 44.06255 44.30836 44.18545
# Shear Modulus (GPa) = 18.12511 20.55539 19.34025
#
# Velocity S-wave (km/s) = 3.26610 3.47819 3.37381
# Velocity P-wave (km/s) = 6.33688 6.49676 6.41732
#
# Compressibility (1/GPa) = 0.02269501
#
# Stress axis : x y z
#
# Youngs Moduli (GPa) = 32.52764 32.52764 62.46800
#
# Poissons Ratio (x) = 0.57284 0.30575
# Poissons Ratio (y) = 0.57284 0.30575
# Poissons Ratio (z) = 0.15921 0.15921
#
# Static dielectric constant tensor:
#      x y z
#    x 1.641410 0.000000 0.000000 
#    y 0.000000 1.641410 0.000000 
#    z 0.000000 0.000000 1.731350 
# 
# From -- ./inp_files/540.got.cif
#   From: 2010.05.17/outbox.cif.g08.bks.cpg/sg86_1_cif.got.tgz:540.got - 2010.06.03 19:03:11.
