data_PCOD9545824
_publ_section_title
;
Structure prediction by ZEFSAII (Michael W. Deem and Ramdas Pophale) SiO2 
 PCOD9545824
Probable space group: I 4/M
;
_chemical_formula_sum "Si O2"
_cell_formula_units_Z 120
_cell_length_a 27.487397
_cell_length_b 27.487397
_cell_length_c 7.485276
_cell_angle_alpha 90.000000
_cell_angle_beta 90.000000
_cell_angle_gamma 90.000000
_cell_volume 5655.552633
_symmetry_space_group_name_H-M "I 4/M"
_symmetry_group_IT_number 87
_symmetry_cell_setting 'tetragonal'
loop_
_space_group_symop_operation_xyz
x,y,z
-y,x,z
-x,-y,z
y,-x,z
-x,-y,-z
y,-x,-z
x,y,-z
-y,x,-z
1/2+x,1/2+y,1/2+z
1/2-y,1/2+x,1/2+z
1/2-x,1/2-y,1/2+z
1/2+y,1/2-x,1/2+z
1/2-x,1/2-y,1/2-z
1/2+y,1/2-x,1/2-z
1/2+x,1/2+y,1/2-z
1/2-y,1/2+x,1/2-z
loop_
_atom_site_type_symbol
_atom_site_label
_atom_site_fract_x
_atom_site_fract_y
_atom_site_fract_z
Si Si1 0.937094 0.369777 0.285918
Si Si2 0.657525 0.511145 0.785371
Si Si3 0.449264 0.136601 0.712753
Si Si4 0.828545 0.099084 0.706807
Si Si5 0.644851 0.205130 0.782030
Si Si6 0.421976 0.479411 0.500000
Si Si7 0.191426 0.112973 0.282826
Si Si8 0.376083 0.219230 0.716418
O O1 0.934097 0.369727 0.500000
O O2 0.910460 0.419099 0.220773
O O3 0.902980 0.325233 0.225195
O O4 0.993636 0.365230 0.244884
O O5 0.670462 0.456431 0.723724
O O6 0.609618 0.525871 0.677895
O O7 0.694272 0.555362 0.742453
O O8 0.651062 0.511562 0.000000
O O9 0.443011 0.137286 0.500000
O O10 0.420919 0.184802 0.777205
O O11 0.843249 0.094292 0.500000
O O12 0.863341 0.141052 0.784581
O O13 0.773611 0.118235 0.716764
O O14 0.640817 0.260467 0.720323
O O15 0.691427 0.173210 0.728182
O O16 0.645005 0.205624 0.000000
O O17 0.466368 0.442907 0.500000
O O18 0.190669 0.116957 0.500000
O O19 0.376603 0.221282 0.500000
#
# Coordination Sequence:
#
# PCOD9545824 Si02
#       8
#    16  16  16  16  16   8  16  16
#     4   9  18  32  52  74  98 137 182 218 261 322
#     4  10  22  40  61  87 122 157 192 246 304 349
#     4   9  19  34  49  72 106 137 174 222 269 319
#     4  10  21  35  56  85 111 142 186 232 278 337
#     4   8  16  33  55  77 105 146 189 224 274 342
#     4  11  24  40  62  90 120 158 202 246 293 358
#     4   9  18  35  58  82 111 147 187 232 278 336
#     4   9  19  35  54  77 109 147 180 224 285 339
#
# _framework density 21.218086
#
# number of rings (size 3 to 8) (size 9 to 14) (size 15 to 20)
#    0.000    2.733    0.000    2.400    2.800    3.467 
#    1.200    4.000    1.467    0.000    0.000    0.000 
#    0.000    0.000    0.000    0.000    0.000    0.000 
#
# Total GULP energy -334693.818695 kJ/mol
# GULP energy per Si atom -5578.230312 kJ/mol
# Density = 2.116979 g / cm^3
# Si number density = 21.218086 Si / 1000 Ang^3
#
#
#
# Elastic Constant Matrix: (Units=GPa)
#
#
# Indices 1 2 3 4 5 6 
#
# 1 122.4245 46.0365 -2.0338 0.0000 0.0000 12.6559
# 2 46.0365 122.4245 -2.0338 0.0000 0.0000 -12.6559
# 3 -2.0338 -2.0338 54.4859 0.0000 0.0000 0.0000
# 4 0.0000 0.0000 0.0000 8.9601 0.0000 0.0000
# 5 0.0000 0.0000 0.0000 0.0000 8.9601 0.0000
# 6 12.6559 -12.6559 0.0000 0.0000 0.0000 -101.8094
#
#
#
# Elastic Compliance Matrix: (Units=1/GPa)
#
#
# Indices 1 2 3 4 5 6 
#
# 1 0.009257 -0.003316 0.000222 0.000000 0.000000 0.001563
# 2 -0.003316 0.009257 0.000222 0.000000 0.000000 -0.001563
# 3 0.000222 0.000222 0.018370 0.000000 0.000000 0.000000
# 4 0.000000 0.000000 0.000000 0.111606 0.000000 0.000000
# 5 0.000000 0.000000 0.000000 0.000000 0.111606 0.000000
# 6 0.001563 -0.001563 0.000000 0.000000 0.000000 -0.009434
#
#
# Mechanical properties :
#
#
# Convention : Reuss Voigt Hill
#
# Bulk Modulus (GPa) = 32.11311 42.58586 37.34948
# Shear Modulus (GPa) = 18.74151 0.37990 9.56070
#
# Velocity S-wave (km/s) = 2.97523 0.42360 2.12502
# Velocity P-wave (km/s) = 5.19329 4.51147 4.86434
#
# Compressibility (1/GPa) = 0.03113993
#
# Stress axis : x y z
#
# Youngs Moduli (GPa) = 108.02279 108.02279 54.43680
#
# Poissons Ratio (x) = 0.35819 -0.01207
# Poissons Ratio (y) = 0.35819 -0.01207
# Poissons Ratio (z) = -0.02396 -0.02396
#
# Static dielectric constant tensor:
#      x y z
#    x 1.757630 0.000000 0.000000 
#    y 0.000000 1.757630 0.000000 
#    z 0.000000 0.000000 1.992240 
# 
# From -- ./inp_files/1722.got.cif
#   From: 2010.05.17/outbox.cif.g08.bks.cpg/sg87_1_cif.got.tgz:1722.got - 2010.06.03 19:07:00.
