data_PCOD9545626
_publ_section_title
;
Structure prediction by ZEFSAII (Michael W. Deem and Ramdas Pophale) SiO2 
 PCOD9545626
Probable space group: I 4/M
;
_chemical_formula_sum "Si O2"
_cell_formula_units_Z 88
_cell_length_a 14.661969
_cell_length_b 14.661969
_cell_length_c 18.595342
_cell_angle_alpha 90.000000
_cell_angle_beta 90.000000
_cell_angle_gamma 90.000000
_cell_volume 3997.502684
_symmetry_space_group_name_H-M "I 4/M"
_symmetry_group_IT_number 87
_symmetry_cell_setting 'tetragonal'
loop_
_space_group_symop_operation_xyz
x,y,z
-y,x,z
-x,-y,z
y,-x,z
-x,-y,-z
y,-x,-z
x,y,-z
-y,x,-z
1/2+x,1/2+y,1/2+z
1/2-y,1/2+x,1/2+z
1/2-x,1/2-y,1/2+z
1/2+y,1/2-x,1/2+z
1/2-x,1/2-y,1/2-z
1/2+y,1/2-x,1/2-z
1/2+x,1/2+y,1/2-z
1/2-y,1/2+x,1/2-z
loop_
_atom_site_type_symbol
_atom_site_label
_atom_site_fract_x
_atom_site_fract_y
_atom_site_fract_z
Si Si1 0.958545 0.855061 0.000000
Si Si2 0.171910 0.566768 0.831495
Si Si3 0.752418 0.730924 0.412211
Si Si4 0.503708 0.355623 0.781859
Si Si5 0.886161 0.626401 0.169594
Si Si6 0.023492 0.770713 0.866796
O O1 0.955750 0.795170 0.069316
O O2 0.895326 0.940371 0.000000
O O3 0.215770 0.641602 0.885612
O O4 0.256738 0.501184 0.812126
O O5 0.108163 0.480586 0.852252
O O6 0.141916 0.617824 0.757022
O O7 0.746938 0.742108 0.500000
O O8 0.693761 0.810161 0.369397
O O9 0.721976 0.628360 0.388990
O O10 0.589630 0.414295 0.803512
O O11 0.505947 0.341582 0.696558
O O12 0.985602 0.671437 0.153158
#
# Coordination Sequence:
#
# PCOD9545626 Si02
#       6
#     8  16  16  16  16  16
#     4  11  20  32  54  85 128 174 216 267 330 393
#     4  11  23  44  67  96 126 178 228 280 329 399
#     4  12  26  44  67  99 140 178 221 276 340 409
#     4  10  19  34  61  93 123 159 216 282 339 391
#     4  11  25  43  71  96 133 176 230 281 335 394
#     4  11  22  37  60  94 133 176 216 264 332 406
#
# _framework density 22.013743000000002
#
# number of rings (size 3 to 8) (size 9 to 14) (size 15 to 20)
#    0.000    1.000    0.909    8.182    1.273    4.727 
#    0.000    0.909    0.000    0.000    0.000    3.818 
#    0.000    0.000    0.000    0.000    0.000    0.000 
#
# Total GULP energy -244997.453742 kJ/mol
# GULP energy per Si atom -5568.123949 kJ/mol
# Density = 2.196364 g / cm^3
# Si number density = 22.013743 Si / 1000 Ang^3
#
#
#
# Elastic Constant Matrix: (Units=GPa)
#
#
# Indices 1 2 3 4 5 6 
#
# 1 126.5700 35.1104 35.6582 0.0000 0.0000 -1.2247
# 2 35.1104 126.5700 35.6582 0.0000 0.0000 1.2247
# 3 35.6582 35.6582 81.5020 0.0000 0.0000 0.0000
# 4 0.0000 0.0000 0.0000 32.2710 0.0000 0.0000
# 5 0.0000 0.0000 0.0000 0.0000 32.2710 0.0000
# 6 -1.2247 1.2247 0.0000 0.0000 0.0000 55.6178
#
#
#
# Elastic Compliance Matrix: (Units=1/GPa)
#
#
# Indices 1 2 3 4 5 6 
#
# 1 0.009302 -0.001638 -0.003353 0.000000 0.000000 0.000241
# 2 -0.001638 0.009302 -0.003353 0.000000 0.000000 -0.000241
# 3 -0.003353 -0.003353 0.015204 0.000000 0.000000 0.000000
# 4 0.000000 0.000000 0.000000 0.030988 0.000000 0.000000
# 5 0.000000 0.000000 0.000000 0.000000 0.030988 0.000000
# 6 0.000241 -0.000241 0.000000 0.000000 0.000000 0.017990
#
#
# Mechanical properties :
#
#
# Convention : Reuss Voigt Hill
#
# Bulk Modulus (GPa) = 58.41343 60.83283 59.62313
# Shear Modulus (GPa) = 36.71914 39.24632 37.98273
#
# Velocity S-wave (km/s) = 4.08856 4.22691 4.15831
# Velocity P-wave (km/s) = 6.99149 7.17749 7.08510
#
# Compressibility (1/GPa) = 0.01711935
#
# Stress axis : x y z
#
# Youngs Moduli (GPa) = 107.50177 107.50177 65.77335
#
# Poissons Ratio (x) = 0.17610 0.22055
# Poissons Ratio (y) = 0.17610 0.22055
# Poissons Ratio (z) = 0.36047 0.36047
#
# Static dielectric constant tensor:
#      x y z
#    x 1.872660 0.000000 0.000000 
#    y 0.000000 1.872660 0.000000 
#    z 0.000000 0.000000 1.760180 
# 
# From -- ./inp_files/5195.got.cif
#   From: 2010.05.17/outbox.cif.g08.bks.cpg/sg87_3_cif.got.tgz:5195.got - 2010.06.03 19:07:00.
