data_PCOD9545545
_publ_section_title
;
Structure prediction by ZEFSAII (Michael W. Deem and Ramdas Pophale) SiO2 
 PCOD9545545
Probable space group: I 4/M
;
_chemical_formula_sum "Si O2"
_cell_formula_units_Z 64
_cell_length_a 20.165084
_cell_length_b 20.165084
_cell_length_c 8.752002
_cell_angle_alpha 90.000000
_cell_angle_beta 90.000000
_cell_angle_gamma 90.000000
_cell_volume 3558.831936
_symmetry_space_group_name_H-M "I 4/M"
_symmetry_group_IT_number 87
_symmetry_cell_setting 'tetragonal'
loop_
_space_group_symop_operation_xyz
x,y,z
-y,x,z
-x,-y,z
y,-x,z
-x,-y,-z
y,-x,-z
x,y,-z
-y,x,-z
1/2+x,1/2+y,1/2+z
1/2-y,1/2+x,1/2+z
1/2-x,1/2-y,1/2+z
1/2+y,1/2-x,1/2+z
1/2-x,1/2-y,1/2-z
1/2+y,1/2-x,1/2-z
1/2+x,1/2+y,1/2-z
1/2-y,1/2+x,1/2-z
loop_
_atom_site_type_symbol
_atom_site_label
_atom_site_fract_x
_atom_site_fract_y
_atom_site_fract_z
Si Si1 0.000535 0.254674 0.676170
Si Si2 0.759215 0.144529 0.685291
Si Si3 0.757042 0.645192 0.683047
Si Si4 0.590405 0.021562 0.669880
O O1 0.990154 0.233040 0.500000
O O2 0.930479 0.251536 0.761216
O O3 0.021068 0.331703 0.675177
O O4 0.069523 0.224399 0.738536
O O5 0.760925 0.142974 0.500000
O O6 0.686957 0.176258 0.727698
O O7 0.812582 0.196519 0.747757
O O8 0.754256 0.646270 0.500000
O O9 0.569614 0.042718 0.500000
O O10 0.565806 0.947423 0.707230
#
# Coordination Sequence:
#
# PCOD9545545 Si02
#       4
#    16  16  16  16
#     4  10  20  33  51  73  99 134 171 207 250 303
#     4   9  19  36  54  74 104 139 173 208 252 308
#     4  10  20  34  54  79 105 133 170 216 258 299
#     4  10  19  30  44  66  98 133 167 201 241 291
#
# _framework density 17.983428
#
# number of rings (size 3 to 8) (size 9 to 14) (size 15 to 20)
#    0.000    2.250    0.000    3.750    0.000    6.000 
#    0.000    0.000    0.000    0.750    0.000    5.250 
#    0.000    0.000    0.000    0.000    0.000    0.000 
#
# Total GULP energy -178265.550057 kJ/mol
# GULP energy per Si atom -5570.798439 kJ/mol
# Density = 1.794250 g / cm^3
# Si number density = 17.983428 Si / 1000 Ang^3
#
#
#
# Elastic Constant Matrix: (Units=GPa)
#
#
# Indices 1 2 3 4 5 6 
#
# 1 95.3789 26.9324 16.7098 0.0000 0.0000 0.6228
# 2 26.9324 95.3789 16.7098 0.0000 0.0000 -0.6228
# 3 16.7098 16.7098 27.2554 0.0000 0.0000 0.0000
# 4 0.0000 0.0000 0.0000 21.7841 0.0000 0.0000
# 5 0.0000 0.0000 0.0000 0.0000 21.7841 0.0000
# 6 0.6228 -0.6228 0.0000 0.0000 0.0000 5.2620
#
#
#
# Elastic Compliance Matrix: (Units=1/GPa)
#
#
# Indices 1 2 3 4 5 6 
#
# 1 0.012231 -0.002410 -0.006021 0.000000 0.000000 -0.001733
# 2 -0.002410 0.012231 -0.006021 0.000000 0.000000 0.001733
# 3 -0.006021 -0.006021 0.044073 0.000000 0.000000 0.000000
# 4 0.000000 0.000000 0.000000 0.045905 0.000000 0.000000
# 5 0.000000 0.000000 0.000000 0.000000 0.045905 0.000000
# 6 -0.001733 0.001733 0.000000 0.000000 0.000000 0.190451
#
#
# Mechanical properties :
#
#
# Convention : Reuss Voigt Hill
#
# Bulk Modulus (GPa) = 25.23311 37.63523 31.43417
# Shear Modulus (GPa) = 12.72551 20.27678 16.50115
#
# Velocity S-wave (km/s) = 2.66301 3.36151 3.03244
# Velocity P-wave (km/s) = 4.84946 6.00329 5.45696
#
# Compressibility (1/GPa) = 0.03963046
#
# Stress axis : x y z
#
# Youngs Moduli (GPa) = 81.75775 81.75775 22.68977
#
# Poissons Ratio (x) = 0.19706 0.13662
# Poissons Ratio (y) = 0.19706 0.13662
# Poissons Ratio (z) = 0.49227 0.49227
#
# Static dielectric constant tensor:
#      x y z
#    x 1.643960 0.000000 0.000000 
#    y 0.000000 1.643960 0.000000 
#    z 0.000000 0.000000 1.630840 
# 
# From -- ./inp_files/962.got.cif
#   From: 2010.05.17/outbox.cif.g08.bks.cpg/sg87_1_cif.got.tgz:962.got - 2010.06.03 19:07:00.
