data_PCOD9545902
_publ_section_title
;
Structure prediction by ZEFSAII (Michael W. Deem and Ramdas Pophale) SiO2 
 PCOD9545902
Probable space group: I 4/M
;
_chemical_formula_sum "Si O2"
_cell_formula_units_Z 64
_cell_length_a 13.885586
_cell_length_b 13.885586
_cell_length_c 16.951377
_cell_angle_alpha 90.000000
_cell_angle_beta 90.000000
_cell_angle_gamma 90.000000
_cell_volume 3268.386499
_symmetry_space_group_name_H-M "I 4/M"
_symmetry_group_IT_number 87
_symmetry_cell_setting 'tetragonal'
loop_
_space_group_symop_operation_xyz
x,y,z
-y,x,z
-x,-y,z
y,-x,z
-x,-y,-z
y,-x,-z
x,y,-z
-y,x,-z
1/2+x,1/2+y,1/2+z
1/2-y,1/2+x,1/2+z
1/2-x,1/2-y,1/2+z
1/2+y,1/2-x,1/2+z
1/2-x,1/2-y,1/2-z
1/2+y,1/2-x,1/2-z
1/2+x,1/2+y,1/2-z
1/2-y,1/2+x,1/2-z
loop_
_atom_site_type_symbol
_atom_site_label
_atom_site_fract_x
_atom_site_fract_y
_atom_site_fract_z
Si Si1 0.397542 0.618598 0.871920
Si Si2 0.662072 0.687295 0.288587
Si Si3 0.303110 0.809097 0.410708
Si Si4 0.057773 0.356622 0.266548
O O1 0.369026 0.508701 0.893589
O O2 0.390622 0.634763 0.777117
O O3 0.314295 0.685637 0.907550
O O4 0.750000 0.750000 0.250000
O O5 0.709185 0.660937 0.371367
O O6 0.575580 0.763745 0.287733
O O7 0.335032 0.821407 0.500000
O O8 0.336217 0.894809 0.351785
O O9 0.114550 0.447039 0.229877
#
# Coordination Sequence:
#
# PCOD9545902 Si02
#       4
#    16  16  16  16
#     4   9  18  32  55  80  99 134 178 211 249 308
#     4   8  18  30  53  71 102 134 173 203 251 310
#     4  10  22  34  50  78 112 136 163 217 269 304
#     4   9  18  34  57  77  97 137 184 213 245 311
#
# _framework density 19.581527999999999
#
# number of rings (size 3 to 8) (size 9 to 14) (size 15 to 20)
#    0.000    3.500    0.000    0.000   21.000    1.000 
#    0.000    5.000    0.000    0.000    0.000    1.750 
#    0.000    0.000    0.000    0.000    0.000    0.000 
#
# Total GULP energy -178142.029965 kJ/mol
# GULP energy per Si atom -5566.938436 kJ/mol
# Density = 1.953696 g / cm^3
# Si number density = 19.581528 Si / 1000 Ang^3
#
#
#
# Elastic Constant Matrix: (Units=GPa)
#
#
# Indices 1 2 3 4 5 6 
#
# 1 35.1500 1.9782 12.7287 0.0000 0.0000 -4.2407
# 2 1.9782 35.1500 12.7287 0.0000 0.0000 4.2407
# 3 12.7287 12.7287 124.6474 0.0000 0.0000 0.0000
# 4 0.0000 0.0000 0.0000 9.7134 0.0000 0.0000
# 5 0.0000 0.0000 0.0000 0.0000 9.7134 0.0000
# 6 -4.2407 4.2407 0.0000 0.0000 0.0000 28.5255
#
#
#
# Elastic Compliance Matrix: (Units=1/GPa)
#
#
# Indices 1 2 3 4 5 6 
#
# 1 0.030149 -0.001188 -0.002957 0.000000 0.000000 0.004659
# 2 -0.001188 0.030149 -0.002957 0.000000 0.000000 -0.004659
# 3 -0.002957 -0.002957 0.008627 0.000000 0.000000 0.000000
# 4 0.000000 0.000000 0.000000 0.102951 0.000000 0.000000
# 5 0.000000 0.000000 0.000000 0.000000 0.102951 0.000000
# 6 0.004659 -0.004659 0.000000 0.000000 0.000000 0.036441
#
#
# Mechanical properties :
#
#
# Convention : Reuss Voigt Hill
#
# Bulk Modulus (GPa) = 18.27491 27.75762 23.01626
# Shear Modulus (GPa) = 14.54696 20.75789 17.65243
#
# Velocity S-wave (km/s) = 2.72856 3.25941 3.00573
# Velocity P-wave (km/s) = 4.39087 5.32646 4.88113
#
# Compressibility (1/GPa) = 0.05471984
#
# Stress axis : x y z
#
# Youngs Moduli (GPa) = 33.16815 33.16815 115.91980
#
# Poissons Ratio (x) = 0.03940 0.34283
# Poissons Ratio (y) = 0.03940 0.34283
# Poissons Ratio (z) = 0.09809 0.09809
#
# Static dielectric constant tensor:
#      x y z
#    x 1.751690 0.000000 0.000000 
#    y 0.000000 1.751690 0.000000 
#    z 0.000000 0.000000 1.738090 
# 
# From -- ./inp_files/3366.got.cif
#   From: 2010.05.17/outbox.cif.g08.bks.cpg/sg87_2_cif.got.tgz:3366.got - 2010.06.03 19:07:00.
