data_PCOD9545922
_publ_section_title
;
Structure prediction by ZEFSAII (Michael W. Deem and Ramdas Pophale) SiO2 
 PCOD9545922
Probable space group: I 4/M
;
_chemical_formula_sum "Si O2"
_cell_formula_units_Z 112
_cell_length_a 14.742266
_cell_length_b 14.742266
_cell_length_c 27.322059
_cell_angle_alpha 90.000000
_cell_angle_beta 90.000000
_cell_angle_gamma 90.000000
_cell_volume 5938.023486
_symmetry_space_group_name_H-M "I 4/M"
_symmetry_group_IT_number 87
_symmetry_cell_setting 'tetragonal'
loop_
_space_group_symop_operation_xyz
x,y,z
-y,x,z
-x,-y,z
y,-x,z
-x,-y,-z
y,-x,-z
x,y,-z
-y,x,-z
1/2+x,1/2+y,1/2+z
1/2-y,1/2+x,1/2+z
1/2-x,1/2-y,1/2+z
1/2+y,1/2-x,1/2+z
1/2-x,1/2-y,1/2-z
1/2+y,1/2-x,1/2-z
1/2+x,1/2+y,1/2-z
1/2-y,1/2+x,1/2-z
loop_
_atom_site_type_symbol
_atom_site_label
_atom_site_fract_x
_atom_site_fract_y
_atom_site_fract_z
Si Si1 0.681557 0.299913 0.123130
Si Si2 0.143377 0.526570 0.756371
Si Si3 0.752443 0.661215 0.556175
Si Si4 0.260163 0.677178 0.293014
Si Si5 0.588927 0.376674 0.640977
Si Si6 0.265681 0.993631 0.359292
Si Si7 0.045715 0.401921 0.444874
O O1 0.736776 0.278764 0.073495
O O2 0.709564 0.219809 0.160306
O O3 0.573706 0.300959 0.124598
O O4 0.719839 0.395282 0.141703
O O5 0.096233 0.439377 0.731580
O O6 0.214162 0.583467 0.724021
O O7 0.190297 0.493330 0.806076
O O8 0.722506 0.659517 0.500000
O O9 0.678494 0.623829 0.593890
O O10 0.844937 0.601957 0.560637
O O11 0.250000 0.750000 0.250000
O O12 0.363626 0.665544 0.310933
O O13 0.622187 0.480668 0.640426
O O14 0.341800 0.992399 0.401208
O O15 0.027323 0.365791 0.500000
O O16 0.000000 0.500000 0.442014
#
# Coordination Sequence:
#
# PCOD9545922 Si02
#       7
#    16  16  16  16  16  16  16
#     4  10  22  38  58  86 115 161 195 250 302 356
#     4  11  24  37  59  91 117 152 201 253 314 363
#     4   9  20  40  64  90 122 160 202 250 312 372
#     4  11  22  39  62  81 118 157 201 251 304 359
#     4  10  24  41  60  89 123 165 208 249 300 365
#     4  11  22  38  59  84 122 155 203 248 297 367
#     4   9  20  37  61  92 122 154 196 252 312 364
#
# _framework density 18.861494
#
# number of rings (size 3 to 8) (size 9 to 14) (size 15 to 20)
#    0.000    1.857    2.857    0.000    4.000    3.714 
#    0.000    2.143    0.000    0.000    0.000    4.000 
#    0.000    0.000    0.000    0.000    0.000    0.000 
#
# Total GULP energy -312442.530481 kJ/mol
# GULP energy per Si atom -5579.330901 kJ/mol
# Density = 1.881856 g / cm^3
# Si number density = 18.861494 Si / 1000 Ang^3
#
#
#
# Elastic Constant Matrix: (Units=GPa)
#
#
# Indices 1 2 3 4 5 6 
#
# 1 71.3472 27.0173 35.3353 0.0000 0.0000 4.3399
# 2 27.0173 71.3472 35.3353 0.0000 0.0000 -4.3399
# 3 35.3353 35.3353 87.1239 0.0000 0.0000 0.0000
# 4 0.0000 0.0000 0.0000 13.9317 0.0000 0.0000
# 5 0.0000 0.0000 0.0000 0.0000 13.9317 0.0000
# 6 4.3399 -4.3399 0.0000 0.0000 0.0000 30.6862
#
#
#
# Elastic Compliance Matrix: (Units=1/GPa)
#
#
# Indices 1 2 3 4 5 6 
#
# 1 0.018774 -0.004427 -0.005819 0.000000 0.000000 -0.003281
# 2 -0.004427 0.018774 -0.005819 0.000000 0.000000 0.003281
# 3 -0.005819 -0.005819 0.016198 0.000000 0.000000 0.000000
# 4 0.000000 0.000000 0.000000 0.071779 0.000000 0.000000
# 5 0.000000 0.000000 0.000000 0.000000 0.071779 0.000000
# 6 -0.003281 0.003281 0.000000 0.000000 0.000000 0.033516
#
#
# Mechanical properties :
#
#
# Convention : Reuss Voigt Hill
#
# Bulk Modulus (GPa) = 46.26102 47.24382 46.75242
# Shear Modulus (GPa) = 18.50808 20.51863 19.51336
#
# Velocity S-wave (km/s) = 3.13591 3.30185 3.21995
# Velocity P-wave (km/s) = 6.13937 6.29590 6.21813
#
# Compressibility (1/GPa) = 0.02161647
#
# Stress axis : x y z
#
# Youngs Moduli (GPa) = 53.26612 53.26612 61.73700
#
# Poissons Ratio (x) = 0.23580 0.35923
# Poissons Ratio (y) = 0.23580 0.35923
# Poissons Ratio (z) = 0.30994 0.30994
#
# Static dielectric constant tensor:
#      x y z
#    x 1.659950 0.000000 0.000000 
#    y 0.000000 1.659950 0.000000 
#    z 0.000000 0.000000 1.636890 
# 
# From -- ./inp_files/6276.got.cif
#   From: 2010.05.17/outbox.cif.g08.bks.cpg/sg87_4_cif.got.tgz:6276.got - 2010.06.03 19:07:00.
