data_PCOD9545419
_publ_section_title
;
Structure prediction by ZEFSAII (Michael W. Deem and Ramdas Pophale) SiO2 
 PCOD9545419
Probable space group: P 42/N
;
_chemical_formula_sum "Si O2"
_cell_formula_units_Z 18
_cell_length_a 5.421606
_cell_length_b 5.421606
_cell_length_c 25.353996
_cell_angle_alpha 90.000000
_cell_angle_beta 90.000000
_cell_angle_gamma 90.000000
_cell_volume 745.250582
_symmetry_space_group_name_H-M "P 42/N"
_symmetry_group_IT_number 86
_space_group.IT_coordinate_system_code '2'
_symmetry_cell_setting 'tetragonal'
loop_
_space_group_symop_operation_xyz
x,y,z
-y,1/2+x,1/2+z
1/2-x,1/2-y,z
1/2+y,-x,1/2+z
-x,-y,-z
y,1/2-x,1/2-z
1/2+x,1/2+y,-z
1/2-y,x,1/2-z
loop_
_atom_site_type_symbol
_atom_site_label
_atom_site_fract_x
_atom_site_fract_y
_atom_site_fract_z
Si Si1 0.491568 0.905825 0.174041
Si Si2 0.750000 0.750000 0.750000
Si Si3 0.901235 0.499290 0.059415
O O1 0.250000 0.750000 0.187651
O O2 0.444559 0.988050 0.113175
O O3 0.750000 0.750000 0.178695
O O4 0.463334 0.140074 0.212170
O O5 0.750000 0.750000 0.062117
O O6 0.750000 0.250000 0.064603
O O7 0.000000 0.500000 0.000000
#
# Coordination Sequence:
#
# PCOD9545419 Si02
#       3
#     8   2   8
#     4  11  30  52  79 120 161 214 276 335 411 489
#     4  12  32  48  88 108 180 212 292 332 422 488
#     4  11  25  46  79 117 160 205 264 334 409 487
#
# _framework density 24.152953
#
# number of rings (size 3 to 8) (size 9 to 14) (size 15 to 20)
#    0.000    0.889    0.000    2.667   21.778    0.000 
#    0.000    0.000    0.000    0.000    0.000    0.000 
#    0.000    0.000    0.000    0.000    0.000    0.000 
#
# Total GULP energy -100570.658752 kJ/mol
# GULP energy per Si atom -5587.258820 kJ/mol
# Density = 2.409798 g / cm^3
# Si number density = 24.152953 Si / 1000 Ang^3
#
#
#
# Elastic Constant Matrix: (Units=GPa)
#
#
# Indices 1 2 3 4 5 6 
#
# 1 122.9228 40.0639 40.3799 0.0000 0.0000 -4.5965
# 2 40.0639 122.9228 40.3799 0.0000 0.0000 4.5965
# 3 40.3799 40.3799 237.4785 0.0000 0.0000 0.0000
# 4 0.0000 0.0000 0.0000 47.9084 0.0000 0.0000
# 5 0.0000 0.0000 0.0000 0.0000 47.9084 0.0000
# 6 -4.5965 4.5965 0.0000 0.0000 0.0000 42.1113
#
#
#
# Elastic Compliance Matrix: (Units=1/GPa)
#
#
# Indices 1 2 3 4 5 6 
#
# 1 0.009458 -0.002758 -0.001139 0.000000 0.000000 0.001333
# 2 -0.002758 0.009458 -0.001139 0.000000 0.000000 -0.001333
# 3 -0.001139 -0.001139 0.004598 0.000000 0.000000 0.000000
# 4 0.000000 0.000000 0.000000 0.020873 0.000000 0.000000
# 5 0.000000 0.000000 0.000000 0.000000 0.020873 0.000000
# 6 0.001333 -0.001333 0.000000 0.000000 0.000000 0.024038
#
#
# Mechanical properties :
#
#
# Convention : Reuss Voigt Hill
#
# Bulk Modulus (GPa) = 74.39749 80.55238 77.47494
# Shear Modulus (GPa) = 48.14495 51.75231 49.94863
#
# Velocity S-wave (km/s) = 4.46952 4.63394 4.55248
# Velocity P-wave (km/s) = 7.58321 7.87747 7.73174
#
# Compressibility (1/GPa) = 0.01344131
#
# Stress axis : x y z
#
# Youngs Moduli (GPa) = 105.72715 105.72715 217.47032
#
# Poissons Ratio (x) = 0.29163 0.24775
# Poissons Ratio (y) = 0.29163 0.24775
# Poissons Ratio (z) = 0.12045 0.12045
#
# Static dielectric constant tensor:
#      x y z
#    x 1.732300 0.000000 0.000000 
#    y 0.000000 1.732300 0.000000 
#    z 0.000000 0.000000 2.187740 
# 
# From -- ./inp_files/3710.got.cif
#   From: 2010.05.17/outbox.cif.g08.bks.cpg/sg86_2_cif.got.tgz:3710.got - 2010.06.03 19:03:11.
