data_PCOD9545318
_publ_section_title
;
Structure prediction by ZEFSAII (Michael W. Deem and Ramdas Pophale) SiO2 
 PCOD9545318
Probable space group: P 42/N
;
_chemical_formula_sum "Si O2"
_cell_formula_units_Z 32
_cell_length_a 8.004849
_cell_length_b 8.004849
_cell_length_c 20.851935
_cell_angle_alpha 90.000000
_cell_angle_beta 90.000000
_cell_angle_gamma 90.000000
_cell_volume 1336.142107
_symmetry_space_group_name_H-M "P 42/N"
_symmetry_group_IT_number 86
_space_group.IT_coordinate_system_code '2'
_symmetry_cell_setting 'tetragonal'
loop_
_space_group_symop_operation_xyz
x,y,z
-y,1/2+x,1/2+z
1/2-x,1/2-y,z
1/2+y,-x,1/2+z
-x,-y,-z
y,1/2-x,1/2-z
1/2+x,1/2+y,-z
1/2-y,x,1/2-z
loop_
_atom_site_type_symbol
_atom_site_label
_atom_site_fract_x
_atom_site_fract_y
_atom_site_fract_z
Si Si1 0.750000 0.750000 0.250000
Si Si2 0.250000 0.250000 0.250000
Si Si3 0.751258 0.060050 0.165978
Si Si4 0.973354 0.340724 0.045965
Si Si5 0.373116 0.442231 0.132325
Si Si6 0.250000 0.750000 0.059075
O O1 0.814546 0.591047 0.209062
O O2 0.299350 0.394465 0.201188
O O3 0.750000 0.250000 0.195332
O O4 0.647912 0.088176 0.101037
O O5 0.937235 0.002338 0.146391
O O6 0.093230 0.220405 0.087233
O O7 0.898436 0.219811 0.991464
O O8 0.000000 0.500000 0.000000
O O9 0.256751 0.583649 0.101455
#
# Coordination Sequence:
#
# PCOD9545318 Si02
#       6
#     2   2   8   8   8   4
#     4  12  28  44  82 108 156 216 268 310 420 484
#     4  12  28  48  74 104 148 192 264 298 384 480
#     4  10  26  49  70 111 150 200 261 330 389 483
#     4  11  24  46  76 105 149 188 256 320 393 468
#     4  11  26  47  72 110 147 201 248 324 391 466
#     4  12  24  46  74 106 146 194 244 320 388 472
#
# _framework density 23.949549000000001
#
# number of rings (size 3 to 8) (size 9 to 14) (size 15 to 20)
#    0.000    1.000    3.750    2.250   10.500    2.000 
#    0.000    0.000    0.000    0.000    0.000    0.000 
#    0.000    0.000    0.000    0.000    0.000    0.000 
#
# Total GULP energy -178466.323884 kJ/mol
# GULP energy per Si atom -5577.072621 kJ/mol
# Density = 2.389504 g / cm^3
# Si number density = 23.949549 Si / 1000 Ang^3
#
#
#
# Elastic Constant Matrix: (Units=GPa)
#
#
# Indices 1 2 3 4 5 6 
#
# 1 104.8649 10.4837 78.7087 0.0000 0.0000 4.3897
# 2 10.4837 104.8649 78.7087 0.0000 0.0000 -4.3897
# 3 78.7087 78.7087 191.9087 0.0000 0.0000 0.0000
# 4 0.0000 0.0000 0.0000 125.8789 0.0000 0.0000
# 5 0.0000 0.0000 0.0000 0.0000 125.8789 0.0000
# 6 4.3897 -4.3897 0.0000 0.0000 0.0000 28.1500
#
#
#
# Elastic Compliance Matrix: (Units=1/GPa)
#
#
# Indices 1 2 3 4 5 6 
#
# 1 0.015221 0.004470 -0.008076 0.000000 0.000000 -0.001677
# 2 0.004470 0.015221 -0.008076 0.000000 0.000000 0.001677
# 3 -0.008076 -0.008076 0.011835 0.000000 0.000000 0.000000
# 4 0.000000 0.000000 0.000000 0.007944 0.000000 0.000000
# 5 0.000000 0.000000 0.000000 0.000000 0.007944 0.000000
# 6 -0.001677 0.001677 0.000000 0.000000 0.000000 0.036047
#
#
# Mechanical properties :
#
#
# Convention : Reuss Voigt Hill
#
# Bulk Modulus (GPa) = 52.87378 81.93784 67.40581
# Shear Modulus (GPa) = 40.36159 71.56405 55.96282
#
# Velocity S-wave (km/s) = 4.10966 5.47230 4.83918
# Velocity P-wave (km/s) = 6.68163 8.61481 7.70906
#
# Compressibility (1/GPa) = 0.01891297
#
# Stress axis : x y z
#
# Youngs Moduli (GPa) = 65.69935 65.69935 84.49427
#
# Poissons Ratio (x) = -0.29365 0.68235
# Poissons Ratio (y) = -0.29365 0.68235
# Poissons Ratio (z) = 0.53057 0.53057
#
# Static dielectric constant tensor:
#      x y z
#    x 1.450560 0.000000 0.000000 
#    y 0.000000 1.450560 0.000000 
#    z 0.000000 0.000000 1.830020 
# 
# From -- ./inp_files/3924.got.cif
#   From: 2010.05.17/outbox.cif.g08.bks.cpg/sg86_2_cif.got.tgz:3924.got - 2010.06.03 19:03:11.
