data_PCOD9545518
_publ_section_title
;
Structure prediction by ZEFSAII (Michael W. Deem and Ramdas Pophale) SiO2 
 PCOD9545518
Probable space group: I 4/M
;
_chemical_formula_sum "Si O2"
_cell_formula_units_Z 96
_cell_length_a 24.712033
_cell_length_b 24.712033
_cell_length_c 7.631725
_cell_angle_alpha 90.000000
_cell_angle_beta 90.000000
_cell_angle_gamma 90.000000
_cell_volume 4660.576738
_symmetry_space_group_name_H-M "I 4/M"
_symmetry_group_IT_number 87
_symmetry_cell_setting 'tetragonal'
loop_
_space_group_symop_operation_xyz
x,y,z
-y,x,z
-x,-y,z
y,-x,z
-x,-y,-z
y,-x,-z
x,y,-z
-y,x,-z
1/2+x,1/2+y,1/2+z
1/2-y,1/2+x,1/2+z
1/2-x,1/2-y,1/2+z
1/2+y,1/2-x,1/2+z
1/2-x,1/2-y,1/2-z
1/2+y,1/2-x,1/2-z
1/2+x,1/2+y,1/2-z
1/2-y,1/2+x,1/2-z
loop_
_atom_site_type_symbol
_atom_site_label
_atom_site_fract_x
_atom_site_fract_y
_atom_site_fract_z
Si Si1 0.892225 0.601134 0.788883
Si Si2 0.364688 0.699400 0.215384
Si Si3 0.287135 0.607979 0.208979
Si Si4 0.191597 0.310493 0.790622
Si Si5 0.514866 0.275179 0.199255
Si Si6 0.497872 0.158388 0.298322
O O1 0.838703 0.634035 0.743167
O O2 0.888371 0.541981 0.712267
O O3 0.942192 0.636243 0.725490
O O4 0.896068 0.597445 0.000000
O O5 0.339020 0.642289 0.268770
O O6 0.322286 0.747077 0.272871
O O7 0.426984 0.706417 0.275885
O O8 0.365562 0.702228 0.000000
O O9 0.236760 0.649485 0.238480
O O10 0.284453 0.545897 0.277684
O O11 0.289720 0.602102 0.000000
O O12 0.195032 0.305756 0.000000
O O13 0.518439 0.210214 0.196258
O O14 0.513877 0.296608 0.000000
O O15 0.490184 0.174867 0.500000
#
# Coordination Sequence:
#
# PCOD9545518 Si02
#       6
#    16  16  16  16  16  16
#     4  10  21  36  52  72 101 138 172 209 261 302
#     4   9  18  33  51  74 103 135 168 203 254 308
#     4  10  20  32  52  79 101 130 174 210 244 305
#     4  10  18  32  52  72 105 139 160 203 263 306
#     4  10  19  34  54  73 102 138 166 206 259 305
#     4  11  22  35  53  75  99 132 178 219 246 297
#
# _framework density 20.598309
#
# number of rings (size 3 to 8) (size 9 to 14) (size 15 to 20)
#    0.000    2.000    3.333    1.000    0.000    2.333 
#    0.000    2.500    0.000    0.500    0.000    3.500 
#    0.000    0.000    0.000    3.000    0.000    3.333 
#
# Total GULP energy -267479.492901 kJ/mol
# GULP energy per Si atom -5572.489435 kJ/mol
# Density = 2.055143 g / cm^3
# Si number density = 20.598309 Si / 1000 Ang^3
#
#
#
# Elastic Constant Matrix: (Units=GPa)
#
#
# Indices 1 2 3 4 5 6 
#
# 1 91.7556 88.6083 2.5288 0.0000 0.0000 13.1946
# 2 88.6083 91.7556 2.5288 0.0000 0.0000 -13.1946
# 3 2.5288 2.5288 36.0583 0.0000 0.0000 0.0000
# 4 0.0000 0.0000 0.0000 8.2364 0.0000 0.0000
# 5 0.0000 0.0000 0.0000 0.0000 8.2364 0.0000
# 6 13.1946 -13.1946 0.0000 0.0000 0.0000 28.9186
#
#
#
# Elastic Compliance Matrix: (Units=1/GPa)
#
#
# Indices 1 2 3 4 5 6 
#
# 1 -0.053445 0.059001 -0.000390 0.000000 0.000000 0.051305
# 2 0.059001 -0.053445 -0.000390 0.000000 0.000000 -0.051305
# 3 -0.000390 -0.000390 0.027787 0.000000 0.000000 0.000000
# 4 0.000000 0.000000 0.000000 0.121412 0.000000 0.000000
# 5 0.000000 0.000000 0.000000 0.000000 0.121412 0.000000
# 6 0.051305 -0.051305 0.000000 0.000000 0.000000 -0.012238
#
#
# Mechanical properties :
#
#
# Convention : Reuss Voigt Hill
#
# Bulk Modulus (GPa) = 26.78120 45.21127 35.99623
# Shear Modulus (GPa) = 105.29254 17.47187 61.38221
#
# Velocity S-wave (km/s) = 7.15738 2.91558 5.46483
# Velocity P-wave (km/s) = 9.01853 5.77328 7.57181
#
# Compressibility (1/GPa) = 0.03733963
#
# Stress axis : x y z
#
# Youngs Moduli (GPa) = -18.71071 -18.71071 35.98743
#
# Poissons Ratio (x) = 1.10394 0.01402
# Poissons Ratio (y) = 1.10394 0.01402
# Poissons Ratio (z) = -0.00729 -0.00729
#
# Static dielectric constant tensor:
#      x y z
#    x 1.745920 0.000000 0.000000 
#    y 0.000000 1.745920 0.000000 
#    z 0.000000 0.000000 1.848130 
# 
# From -- ./inp_files/1373.got.cif
#   From: 2010.05.17/outbox.cif.g08.bks.cpg/sg87_1_cif.got.tgz:1373.got - 2010.06.03 19:07:00.
