data_PCOD9545286
_publ_section_title
;
Structure prediction by ZEFSAII (Michael W. Deem and Ramdas Pophale) SiO2 
 PCOD9545286
Probable space group: P 42/N
;
_chemical_formula_sum "Si O2"
_cell_formula_units_Z 40
_cell_length_a 12.926399
_cell_length_b 12.926399
_cell_length_c 9.498974
_cell_angle_alpha 90.000000
_cell_angle_beta 90.000000
_cell_angle_gamma 90.000000
_cell_volume 1587.200579
_symmetry_space_group_name_H-M "P 42/N"
_symmetry_group_IT_number 86
_space_group.IT_coordinate_system_code '2'
_symmetry_cell_setting 'tetragonal'
loop_
_space_group_symop_operation_xyz
x,y,z
-y,1/2+x,1/2+z
1/2-x,1/2-y,z
1/2+y,-x,1/2+z
-x,-y,-z
y,1/2-x,1/2-z
1/2+x,1/2+y,-z
1/2-y,x,1/2-z
loop_
_atom_site_type_symbol
_atom_site_label
_atom_site_fract_x
_atom_site_fract_y
_atom_site_fract_z
Si Si1 0.727941 0.422901 0.425163
Si Si2 0.297720 0.100051 0.710937
Si Si3 0.080999 0.224211 0.285336
Si Si4 0.182702 0.648730 0.333608
Si Si5 0.382836 0.983467 0.954261
O O1 0.752675 0.544760 0.426187
O O2 0.825790 0.364749 0.496597
O O3 0.678234 0.411586 0.269290
O O4 0.638332 0.372784 0.520410
O O5 0.202310 0.136614 0.807207
O O6 0.365203 0.016918 0.794929
O O7 0.138559 0.335127 0.270151
O O8 0.966703 0.219489 0.212631
O O9 0.050154 0.189358 0.443297
O O10 0.250000 0.750000 0.295924
O O11 0.500000 0.000000 0.000000
#
# Coordination Sequence:
#
# PCOD9545286 Si02
#       5
#     8   8   8   8   8
#     4  11  24  45  71 105 145 199 255 319 384 468
#     4  11  25  42  72 108 146 198 253 322 399 467
#     4  10  24  42  73 112 146 197 252 318 391 464
#     4  11  24  44  73 103 149 202 252 316 382 466
#     4  11  22  43  69 101 152 193 245 316 390 463
#
# _framework density 25.201605000000001
#
# number of rings (size 3 to 8) (size 9 to 14) (size 15 to 20)
#    0.000    1.200    2.000    3.000    2.800    3.200 
#    0.000    1.000    0.000    0.000    0.000    0.000 
#    0.000    0.000    0.000    0.000    0.000    0.000 
#
# Total GULP energy -222972.739764 kJ/mol
# GULP energy per Si atom -5574.318494 kJ/mol
# Density = 2.514425 g / cm^3
# Si number density = 25.201605 Si / 1000 Ang^3
#
#
#
# Elastic Constant Matrix: (Units=GPa)
#
#
# Indices 1 2 3 4 5 6 
#
# 1 117.6991 55.1564 30.4180 0.0000 0.0000 -5.3516
# 2 55.1564 117.6991 30.4180 0.0000 0.0000 5.3516
# 3 30.4180 30.4180 92.7867 0.0000 0.0000 0.0000
# 4 0.0000 0.0000 0.0000 27.7541 0.0000 0.0000
# 5 0.0000 0.0000 0.0000 0.0000 27.7541 0.0000
# 6 -5.3516 5.3516 0.0000 0.0000 0.0000 40.5257
#
#
#
# Elastic Compliance Matrix: (Units=1/GPa)
#
#
# Indices 1 2 3 4 5 6 
#
# 1 0.011449 -0.004910 -0.002144 0.000000 0.000000 0.002160
# 2 -0.004910 0.011449 -0.002144 0.000000 0.000000 -0.002160
# 3 -0.002144 -0.002144 0.012183 0.000000 0.000000 0.000000
# 4 0.000000 0.000000 0.000000 0.036031 0.000000 0.000000
# 5 0.000000 0.000000 0.000000 0.000000 0.036031 0.000000
# 6 0.002160 -0.002160 0.000000 0.000000 0.000000 0.025246
#
#
# Mechanical properties :
#
#
# Convention : Reuss Voigt Hill
#
# Bulk Modulus (GPa) = 59.92720 62.24106 61.08413
# Shear Modulus (GPa) = 31.98031 33.35293 32.66662
#
# Velocity S-wave (km/s) = 3.56614 3.64186 3.60420
# Velocity P-wave (km/s) = 6.38649 6.51422 6.45067
#
# Compressibility (1/GPa) = 0.01668691
#
# Stress axis : x y z
#
# Youngs Moduli (GPa) = 87.34204 87.34204 82.08112
#
# Poissons Ratio (x) = 0.42881 0.17597
# Poissons Ratio (y) = 0.42881 0.17597
# Poissons Ratio (z) = 0.18725 0.18725
#
# Static dielectric constant tensor:
#      x y z
#    x 2.062050 0.000000 0.000000 
#    y 0.000000 2.062050 0.000000 
#    z 0.000000 0.000000 2.163600 
# 
# From -- ./inp_files/1135.got.cif
#   From: 2010.05.17/outbox.cif.g08.bks.cpg/sg86_1_cif.got.tgz:1135.got - 2010.06.03 19:03:11.
