data_PCOD9545468
_publ_section_title
;
Structure prediction by ZEFSAII (Michael W. Deem and Ramdas Pophale) SiO2 
 PCOD9545468
Probable space group: P 42/N
;
_chemical_formula_sum "Si O2"
_cell_formula_units_Z 24
_cell_length_a 11.554216
_cell_length_b 11.554216
_cell_length_c 8.158374
_cell_angle_alpha 90.000000
_cell_angle_beta 90.000000
_cell_angle_gamma 90.000000
_cell_volume 1089.142173
_symmetry_space_group_name_H-M "P 42/N"
_symmetry_group_IT_number 86
_space_group.IT_coordinate_system_code '2'
_symmetry_cell_setting 'tetragonal'
loop_
_space_group_symop_operation_xyz
x,y,z
-y,1/2+x,1/2+z
1/2-x,1/2-y,z
1/2+y,-x,1/2+z
-x,-y,-z
y,1/2-x,1/2-z
1/2+x,1/2+y,-z
1/2-y,x,1/2-z
loop_
_atom_site_type_symbol
_atom_site_label
_atom_site_fract_x
_atom_site_fract_y
_atom_site_fract_z
Si Si1 0.985875 0.148340 0.642721
Si Si2 0.780119 0.570007 0.808911
Si Si3 0.867193 0.072138 0.329700
O O1 0.060308 0.219593 0.506659
O O2 0.889966 0.091092 0.523215
O O3 0.934598 0.236505 0.772758
O O4 0.066825 0.047555 0.711895
O O5 0.661576 0.621377 0.743369
O O6 0.824153 0.443756 0.753326
#
# Coordination Sequence:
#
# PCOD9545468 Si02
#       3
#     8   8   8
#     4   9  20  39  63  95 132 173 228 266 339 389
#     4   9  19  36  60  92 127 170 225 267 324 398
#     4   9  20  40  64  95 130 176 220 279 325 412
#
# _framework density 22.035692000000001
#
# number of rings (size 3 to 8) (size 9 to 14) (size 15 to 20)
#    2.000    1.000    0.000    0.000    0.000    7.333 
#    0.000    1.667   14.667    0.000    0.000    0.000 
#    0.000    0.000    0.000    0.000    0.000    0.000 
#
# Total GULP energy -133671.829602 kJ/mol
# GULP energy per Si atom -5569.659567 kJ/mol
# Density = 2.198554 g / cm^3
# Si number density = 22.035692 Si / 1000 Ang^3
#
#
#
# Elastic Constant Matrix: (Units=GPa)
#
#
# Indices 1 2 3 4 5 6 
#
# 1 89.3927 9.7551 11.8232 0.0000 0.0000 11.5435
# 2 9.7551 89.3927 11.8232 0.0000 0.0000 -11.5435
# 3 11.8232 11.8232 25.3180 0.0000 0.0000 0.0000
# 4 0.0000 0.0000 0.0000 38.4886 0.0000 0.0000
# 5 0.0000 0.0000 0.0000 0.0000 38.4886 0.0000
# 6 11.5435 -11.5435 0.0000 0.0000 0.0000 25.9987
#
#
#
# Elastic Compliance Matrix: (Units=1/GPa)
#
#
# Indices 1 2 3 4 5 6 
#
# 1 0.012881 -0.001531 -0.005300 0.000000 0.000000 -0.006399
# 2 -0.001531 0.012881 -0.005300 0.000000 0.000000 0.006399
# 3 -0.005300 -0.005300 0.044448 0.000000 0.000000 0.000000
# 4 0.000000 0.000000 0.000000 0.025982 0.000000 0.000000
# 5 0.000000 0.000000 0.000000 0.000000 0.025982 0.000000
# 6 -0.006399 0.006399 0.000000 0.000000 0.000000 0.044146
#
#
# Mechanical properties :
#
#
# Convention : Reuss Voigt Hill
#
# Bulk Modulus (GPa) = 21.76431 30.10070 25.93251
# Shear Modulus (GPa) = 24.28386 31.97531 28.12958
#
# Velocity S-wave (km/s) = 3.32328 3.81342 3.57676
# Velocity P-wave (km/s) = 4.96224 5.75145 5.37136
#
# Compressibility (1/GPa) = 0.04594678
#
# Stress axis : x y z
#
# Youngs Moduli (GPa) = 77.63371 77.63371 22.49818
#
# Poissons Ratio (x) = 0.11885 0.11925
# Poissons Ratio (y) = 0.11885 0.11925
# Poissons Ratio (z) = 0.41149 0.41149
#
# Static dielectric constant tensor:
#      x y z
#    x 1.816490 0.000000 0.000000 
#    y 0.000000 1.816490 0.000000 
#    z 0.000000 0.000000 1.833930 
# 
# From -- ./inp_files/716.got.cif
#   From: 2010.05.17/outbox.cif.g08.bks.cpg/sg86_1_cif.got.tgz:716.got - 2010.06.03 19:03:11.
