data_PCOD9545379
_publ_section_title
;
Structure prediction by ZEFSAII (Michael W. Deem and Ramdas Pophale) SiO2 
 PCOD9545379
Probable space group: P 42/N
;
_chemical_formula_sum "Si O2"
_cell_formula_units_Z 42
_cell_length_a 15.099612
_cell_length_b 15.099612
_cell_length_c 8.664726
_cell_angle_alpha 90.000000
_cell_angle_beta 90.000000
_cell_angle_gamma 90.000000
_cell_volume 1975.542647
_symmetry_space_group_name_H-M "P 42/N"
_symmetry_group_IT_number 86
_space_group.IT_coordinate_system_code '2'
_symmetry_cell_setting 'tetragonal'
loop_
_space_group_symop_operation_xyz
x,y,z
-y,1/2+x,1/2+z
1/2-x,1/2-y,z
1/2+y,-x,1/2+z
-x,-y,-z
y,1/2-x,1/2-z
1/2+x,1/2+y,-z
1/2-y,x,1/2-z
loop_
_atom_site_type_symbol
_atom_site_label
_atom_site_fract_x
_atom_site_fract_y
_atom_site_fract_z
Si Si1 0.111306 0.686328 0.734914
Si Si2 0.067317 0.167977 0.801689
Si Si3 0.490038 0.503688 0.317606
Si Si4 0.750000 0.750000 0.250000
Si Si5 0.538348 0.351803 0.118156
Si Si6 0.583425 0.235506 0.610957
O O1 0.053571 0.596838 0.750854
O O2 0.068119 0.752420 0.855064
O O3 0.103117 0.740336 0.573499
O O4 0.208776 0.655282 0.789161
O O5 0.070041 0.069286 0.731623
O O6 0.161817 0.212803 0.833121
O O7 0.008678 0.225567 0.678448
O O8 0.014943 0.152043 0.960298
O O9 0.500000 0.500000 0.500000
O O10 0.485787 0.405519 0.247703
O O11 0.630797 0.404882 0.124584
#
# Coordination Sequence:
#
# PCOD9545379 Si02
#       6
#     8   8   8   2   8   8
#     4  11  26  41  70 106 143 185 238 306 369 451
#     4  11  26  45  73 104 140 196 246 309 370 452
#     4  11  25  46  71 101 145 194 242 303 382 455
#     4  12  28  44  72 102 148 188 268 302 372 452
#     4  12  24  43  72 101 144 185 240 300 374 445
#     4  11  23  45  70 107 142 185 242 303 381 441
#
# _framework density 21.259982000000001
#
# number of rings (size 3 to 8) (size 9 to 14) (size 15 to 20)
#    0.000    0.762    3.810    4.571   10.667    1.524 
#    0.000    0.000    0.000    2.286    0.000    0.000 
#    0.000    0.000    0.000    0.000    0.000    0.000 
#
# Total GULP energy -234021.540727 kJ/mol
# GULP energy per Si atom -5571.941446 kJ/mol
# Density = 2.121159 g / cm^3
# Si number density = 21.259982 Si / 1000 Ang^3
#
#
#
# Elastic Constant Matrix: (Units=GPa)
#
#
# Indices 1 2 3 4 5 6 
#
# 1 122.3568 21.6936 38.0856 0.0000 0.0000 25.1422
# 2 21.6936 122.3568 38.0856 0.0000 0.0000 -25.1422
# 3 38.0856 38.0856 133.7956 0.0000 0.0000 0.0000
# 4 0.0000 0.0000 0.0000 17.8614 0.0000 0.0000
# 5 0.0000 0.0000 0.0000 0.0000 17.8614 0.0000
# 6 25.1422 -25.1422 0.0000 0.0000 0.0000 53.5962
#
#
#
# Elastic Compliance Matrix: (Units=1/GPa)
#
#
# Indices 1 2 3 4 5 6 
#
# 1 0.010573 -0.002401 -0.002326 0.000000 0.000000 -0.006086
# 2 -0.002401 0.010573 -0.002326 0.000000 0.000000 0.006086
# 3 -0.002326 -0.002326 0.008798 0.000000 0.000000 0.000000
# 4 0.000000 0.000000 0.000000 0.055987 0.000000 0.000000
# 5 0.000000 0.000000 0.000000 0.000000 0.055987 0.000000
# 6 -0.006086 0.006086 0.000000 0.000000 0.000000 0.024368
#
#
# Mechanical properties :
#
#
# Convention : Reuss Voigt Hill
#
# Bulk Modulus (GPa) = 63.14051 63.80430 63.47240
# Shear Modulus (GPa) = 26.92908 36.57344 31.75126
#
# Velocity S-wave (km/s) = 3.56287 4.15214 3.86874
# Velocity P-wave (km/s) = 6.83294 7.28448 7.06232
#
# Compressibility (1/GPa) = 0.01583769
#
# Stress axis : x y z
#
# Youngs Moduli (GPa) = 94.57825 94.57825 113.65667
#
# Poissons Ratio (x) = 0.22710 0.26439
# Poissons Ratio (y) = 0.22710 0.26439
# Poissons Ratio (z) = 0.22001 0.22001
#
# Static dielectric constant tensor:
#      x y z
#    x 1.826470 0.000000 0.000000 
#    y 0.000000 1.826470 0.000000 
#    z 0.000000 0.000000 1.813030 
# 
# From -- ./inp_files/1176.got.cif
#   From: 2010.05.17/outbox.cif.g08.bks.cpg/sg86_1_cif.got.tgz:1176.got - 2010.06.03 19:03:11.
