data_PCOD9545212
_publ_section_title
;
Structure prediction by ZEFSAII (Michael W. Deem and Ramdas Pophale) SiO2 
 PCOD9545212
Probable space group: P 42/N
;
_chemical_formula_sum "Si O2"
_cell_formula_units_Z 28
_cell_length_a 9.680539
_cell_length_b 9.680539
_cell_length_c 11.463980
_cell_angle_alpha 90.000000
_cell_angle_beta 90.000000
_cell_angle_gamma 90.000000
_cell_volume 1074.322070
_symmetry_space_group_name_H-M "P 42/N"
_symmetry_group_IT_number 86
_space_group.IT_coordinate_system_code '2'
_symmetry_cell_setting 'tetragonal'
loop_
_space_group_symop_operation_xyz
x,y,z
-y,1/2+x,1/2+z
1/2-x,1/2-y,z
1/2+y,-x,1/2+z
-x,-y,-z
y,1/2-x,1/2-z
1/2+x,1/2+y,-z
1/2-y,x,1/2-z
loop_
_atom_site_type_symbol
_atom_site_label
_atom_site_fract_x
_atom_site_fract_y
_atom_site_fract_z
Si Si1 0.250000 0.750000 0.060557
Si Si2 0.316947 0.102430 0.911234
Si Si3 0.401194 0.933820 0.405246
Si Si4 0.117678 0.495791 0.160203
O O1 0.225970 0.620119 0.140986
O O2 0.119358 0.768377 0.975526
O O3 0.250000 0.250000 0.881011
O O4 0.463543 0.057901 0.857764
O O5 0.206932 0.984395 0.873792
O O6 0.344043 0.100173 0.051403
O O7 0.373347 0.033879 0.297219
O O8 0.500000 0.000000 0.500000
#
# Coordination Sequence:
#
# PCOD9545212 Si02
#       4
#     4   8   8   8
#     4  10  22  44  66  96 132 172 216 264 336 390
#     4  10  23  43  65  98 130 174 216 266 329 391
#     4  11  24  41  67  99 128 173 219 269 332 391
#     4  10  23  43  67  96 134 168 220 271 322 396
#
# _framework density 26.062949
#
# number of rings (size 3 to 8) (size 9 to 14) (size 15 to 20)
#    0.000    1.714    0.000    2.571    8.000    0.000 
#   25.714    0.000    0.000    0.000    0.000    0.000 
#    0.000    0.000    0.000    0.000    0.000    0.000 
#
# Total GULP energy -156726.675710 kJ/mol
# GULP energy per Si atom -5597.381275 kJ/mol
# Density = 2.600363 g / cm^3
# Si number density = 26.062949 Si / 1000 Ang^3
#
#
#
# Elastic Constant Matrix: (Units=GPa)
#
#
# Indices 1 2 3 4 5 6 
#
# 1 48.4719 8.1447 -2.9427 0.0000 0.0000 0.6034
# 2 8.1447 48.4719 -2.9427 0.0000 0.0000 -0.6034
# 3 -2.9427 -2.9427 179.2054 0.0000 0.0000 0.0000
# 4 0.0000 0.0000 0.0000 29.5723 0.0000 0.0000
# 5 0.0000 0.0000 0.0000 0.0000 29.5723 0.0000
# 6 0.6034 -0.6034 0.0000 0.0000 0.0000 51.1876
#
#
#
# Elastic Compliance Matrix: (Units=1/GPa)
#
#
# Indices 1 2 3 4 5 6 
#
# 1 0.021249 -0.003557 0.000291 0.000000 0.000000 -0.000292
# 2 -0.003557 0.021249 0.000291 0.000000 0.000000 0.000292
# 3 0.000291 0.000291 0.005590 0.000000 0.000000 0.000000
# 4 0.000000 0.000000 0.000000 0.033815 0.000000 0.000000
# 5 0.000000 0.000000 0.000000 0.000000 0.033815 0.000000
# 6 -0.000292 0.000292 0.000000 0.000000 0.000000 0.019543
#
#
# Mechanical properties :
#
#
# Convention : Reuss Voigt Hill
#
# Bulk Modulus (GPa) = 23.73178 31.18531 27.45855
# Shear Modulus (GPa) = 32.20425 40.32576 36.26500
#
# Velocity S-wave (km/s) = 3.51897 3.93777 3.73425
# Velocity P-wave (km/s) = 5.06322 5.71542 5.39918
#
# Compressibility (1/GPa) = 0.04213758
#
# Stress axis : x y z
#
# Youngs Moduli (GPa) = 47.06017 47.06017 178.89946
#
# Poissons Ratio (x) = 0.16737 -0.05198
# Poissons Ratio (y) = 0.16737 -0.05198
# Poissons Ratio (z) = -0.01367 -0.01367
#
# Static dielectric constant tensor:
#      x y z
#    x 2.270290 0.000000 0.000000 
#    y 0.000000 2.270290 0.000000 
#    z 0.000000 0.000000 2.059990 
# 
# From -- ./inp_files/801.got.cif
#   From: 2010.05.17/outbox.cif.g08.bks.cpg/sg86_1_cif.got.tgz:801.got - 2010.06.03 19:03:11.
