data_PCOD9545436
_publ_section_title
;
Structure prediction by ZEFSAII (Michael W. Deem and Ramdas Pophale) SiO2 
 PCOD9545436
Probable space group: P 42/N
;
_chemical_formula_sum "Si O2"
_cell_formula_units_Z 36
_cell_length_a 11.548554
_cell_length_b 11.548554
_cell_length_c 11.445591
_cell_angle_alpha 90.000000
_cell_angle_beta 90.000000
_cell_angle_gamma 90.000000
_cell_volume 1526.488165
_symmetry_space_group_name_H-M "P 42/N"
_symmetry_group_IT_number 86
_space_group.IT_coordinate_system_code '2'
_symmetry_cell_setting 'tetragonal'
loop_
_space_group_symop_operation_xyz
x,y,z
-y,1/2+x,1/2+z
1/2-x,1/2-y,z
1/2+y,-x,1/2+z
-x,-y,-z
y,1/2-x,1/2-z
1/2+x,1/2+y,-z
1/2-y,x,1/2-z
loop_
_atom_site_type_symbol
_atom_site_label
_atom_site_fract_x
_atom_site_fract_y
_atom_site_fract_z
Si Si1 0.252000 0.064934 0.237288
Si Si2 0.933765 0.077563 0.406759
Si Si3 0.266894 0.878080 0.426208
Si Si4 0.131038 0.105688 0.784892
Si Si5 0.500000 0.000000 0.500000
O O1 0.145609 0.147440 0.207408
O O2 0.308960 0.006550 0.125864
O O3 0.220042 0.969117 0.330819
O O4 0.812191 0.114058 0.459842
O O5 0.917081 0.000190 0.292278
O O6 0.000000 0.000000 0.500000
O O7 0.250000 0.750000 0.376661
O O8 0.396856 0.912808 0.456412
O O9 0.100224 0.228713 0.722442
O O10 0.070388 0.093469 0.910708
#
# Coordination Sequence:
#
# PCOD9545436 Si02
#       5
#     8   8   8   8   4
#     4  11  26  50  80 113 159 212 268 337 414 498
#     4  12  26  47  75 113 155 203 268 331 407 503
#     4  12  29  49  78 117 157 215 270 337 417 507
#     4  11  26  49  79 114 159 213 277 347 426 517
#     4  12  26  52  82 116 162 214 276 352 428 498
#
# _framework density 23.583542999999999
#
# number of rings (size 3 to 8) (size 9 to 14) (size 15 to 20)
#    0.000    0.444    6.667    0.000    6.222    0.889 
#    0.000    0.000    0.000    0.000    0.000    0.000 
#    0.000    0.000    0.000    0.000    0.000    0.000 
#
# Total GULP energy -200694.485801 kJ/mol
# GULP energy per Si atom -5574.846828 kJ/mol
# Density = 2.352987 g / cm^3
# Si number density = 23.583543 Si / 1000 Ang^3
#
#
#
# Elastic Constant Matrix: (Units=GPa)
#
#
# Indices 1 2 3 4 5 6 
#
# 1 123.3540 30.8922 36.5606 0.0000 0.0000 -0.1610
# 2 30.8922 123.3540 36.5606 0.0000 0.0000 0.1610
# 3 36.5606 36.5606 82.0045 0.0000 0.0000 0.0000
# 4 0.0000 0.0000 0.0000 34.8688 0.0000 0.0000
# 5 0.0000 0.0000 0.0000 0.0000 34.8688 0.0000
# 6 -0.1610 0.1610 0.0000 0.0000 0.0000 13.3408
#
#
#
# Elastic Compliance Matrix: (Units=1/GPa)
#
#
# Indices 1 2 3 4 5 6 
#
# 1 0.009518 -0.001298 -0.003665 0.000000 0.000000 0.000130
# 2 -0.001298 0.009518 -0.003665 0.000000 0.000000 -0.000130
# 3 -0.003665 -0.003665 0.015462 0.000000 0.000000 0.000000
# 4 0.000000 0.000000 0.000000 0.028679 0.000000 0.000000
# 5 0.000000 0.000000 0.000000 0.000000 0.028679 0.000000
# 6 0.000130 -0.000130 0.000000 0.000000 0.000000 0.074961
#
#
# Mechanical properties :
#
#
# Convention : Reuss Voigt Hill
#
# Bulk Modulus (GPa) = 57.99292 59.63769 58.81531
# Shear Modulus (GPa) = 26.34057 31.59560 28.96809
#
# Velocity S-wave (km/s) = 3.34564 3.66420 3.50854
# Velocity P-wave (km/s) = 6.29033 6.57606 6.43478
#
# Compressibility (1/GPa) = 0.01724348
#
# Stress axis : x y z
#
# Youngs Moduli (GPa) = 105.06247 105.06247 64.67273
#
# Poissons Ratio (x) = 0.13633 0.23703
# Poissons Ratio (y) = 0.13633 0.23703
# Poissons Ratio (z) = 0.38506 0.38506
#
# Static dielectric constant tensor:
#      x y z
#    x 1.910680 0.000000 0.000000 
#    y 0.000000 1.910680 0.000000 
#    z 0.000000 0.000000 1.893550 
# 
# From -- ./inp_files/2074.got.cif
#   From: 2010.05.17/outbox.cif.g08.bks.cpg/sg86_2_cif.got.tgz:2074.got - 2010.06.03 19:03:11.
