data_PCOD9545336
_publ_section_title
;
Structure prediction by ZEFSAII (Michael W. Deem and Ramdas Pophale) SiO2 
 PCOD9545336
Probable space group: P 42/N
;
_chemical_formula_sum "Si O2"
_cell_formula_units_Z 34
_cell_length_a 15.644357
_cell_length_b 15.644357
_cell_length_c 6.690880
_cell_angle_alpha 90.000000
_cell_angle_beta 90.000000
_cell_angle_gamma 90.000000
_cell_volume 1637.565487
_symmetry_space_group_name_H-M "P 42/N"
_symmetry_group_IT_number 86
_space_group.IT_coordinate_system_code '2'
_symmetry_cell_setting 'tetragonal'
loop_
_space_group_symop_operation_xyz
x,y,z
-y,1/2+x,1/2+z
1/2-x,1/2-y,z
1/2+y,-x,1/2+z
-x,-y,-z
y,1/2-x,1/2-z
1/2+x,1/2+y,-z
1/2-y,x,1/2-z
loop_
_atom_site_type_symbol
_atom_site_label
_atom_site_fract_x
_atom_site_fract_y
_atom_site_fract_z
Si Si1 0.250000 0.250000 0.250000
Si Si2 0.639866 0.433073 0.396647
Si Si3 0.185024 0.542680 0.810908
Si Si4 0.379622 0.373611 0.436669
Si Si5 0.492479 0.406935 0.086718
O O1 0.296822 0.316341 0.400164
O O2 0.722368 0.423172 0.254504
O O3 0.617695 0.374923 0.592796
O O4 0.632065 0.533615 0.458027
O O5 0.564261 0.403133 0.253843
O O6 0.153035 0.509461 0.597289
O O7 0.176470 0.457582 0.951356
O O8 0.406791 0.392621 0.208110
O O9 0.500000 0.500000 0.000000
#
# Coordination Sequence:
#
# PCOD9545336 Si02
#       5
#     2   8   8   8   8
#     4  12  28  40  70 108 148 162 216 288 346 412
#     4  11  24  42  69 100 133 178 233 277 340 401
#     4  11  24  43  70  99 133 181 228 283 337 403
#     4  11  24  43  64 105 137 181 221 274 346 413
#     4  11  20  42  73  93 133 182 226 268 329 414
#
# _framework density 20.762529000000001
#
# number of rings (size 3 to 8) (size 9 to 14) (size 15 to 20)
#    0.000    0.941    4.706    2.824    3.294    5.647 
#    0.000    4.706    0.000    0.000    0.000    0.000 
#    0.000    0.000    0.000    0.000    0.000    0.000 
#
# Total GULP energy -189431.013917 kJ/mol
# GULP energy per Si atom -5571.500409 kJ/mol
# Density = 2.071527 g / cm^3
# Si number density = 20.762529 Si / 1000 Ang^3
#
#
#
# Elastic Constant Matrix: (Units=GPa)
#
#
# Indices 1 2 3 4 5 6 
#
# 1 59.0416 21.9047 21.8444 0.0000 0.0000 9.8048
# 2 21.9047 59.0416 21.8444 0.0000 0.0000 -9.8048
# 3 21.8444 21.8444 103.7724 0.0000 0.0000 0.0000
# 4 0.0000 0.0000 0.0000 20.1379 0.0000 0.0000
# 5 0.0000 0.0000 0.0000 0.0000 20.1379 0.0000
# 6 9.8048 -9.8048 0.0000 0.0000 0.0000 36.9474
#
#
#
# Elastic Compliance Matrix: (Units=1/GPa)
#
#
# Indices 1 2 3 4 5 6 
#
# 1 0.022626 -0.008689 -0.002934 0.000000 0.000000 -0.008310
# 2 -0.008689 0.022626 -0.002934 0.000000 0.000000 0.008310
# 3 -0.002934 -0.002934 0.010872 0.000000 0.000000 0.000000
# 4 0.000000 0.000000 0.000000 0.049658 0.000000 0.000000
# 5 0.000000 0.000000 0.000000 0.000000 0.049658 0.000000
# 6 -0.008310 0.008310 0.000000 0.000000 0.000000 0.031476
#
#
# Mechanical properties :
#
#
# Convention : Reuss Voigt Hill
#
# Bulk Modulus (GPa) = 37.02207 39.22697 38.12452
# Shear Modulus (GPa) = 22.21898 25.86211 24.04054
#
# Velocity S-wave (km/s) = 3.27486 3.53316 3.40646
# Velocity P-wave (km/s) = 5.67182 5.96477 5.82014
#
# Compressibility (1/GPa) = 0.02701091
#
# Stress axis : x y z
#
# Youngs Moduli (GPa) = 44.19621 44.19621 91.98234
#
# Poissons Ratio (x) = 0.38402 0.26986
# Poissons Ratio (y) = 0.38402 0.26986
# Poissons Ratio (z) = 0.12967 0.12967
#
# Static dielectric constant tensor:
#      x y z
#    x 1.732370 0.000000 0.000000 
#    y 0.000000 1.732370 0.000000 
#    z 0.000000 0.000000 1.777900 
# 
# From -- ./inp_files/271.got.cif
#   From: 2010.05.17/outbox.cif.g08.bks.cpg/sg86_1_cif.got.tgz:271.got - 2010.06.03 19:03:11.
