data_PCOD9545072
_publ_section_title
;
Structure prediction by ZEFSAII (Michael W. Deem and Ramdas Pophale) SiO2 
 PCOD9545072
Probable space group: P 42/N
;
_chemical_formula_sum "Si O2"
_cell_formula_units_Z 48
_cell_length_a 10.566715
_cell_length_b 10.566715
_cell_length_c 19.381642
_cell_angle_alpha 90.000000
_cell_angle_beta 90.000000
_cell_angle_gamma 90.000000
_cell_volume 2164.066267
_symmetry_space_group_name_H-M "P 42/N"
_symmetry_group_IT_number 86
_space_group.IT_coordinate_system_code '2'
_symmetry_cell_setting 'tetragonal'
loop_
_space_group_symop_operation_xyz
x,y,z
-y,1/2+x,1/2+z
1/2-x,1/2-y,z
1/2+y,-x,1/2+z
-x,-y,-z
y,1/2-x,1/2-z
1/2+x,1/2+y,-z
1/2-y,x,1/2-z
loop_
_atom_site_type_symbol
_atom_site_label
_atom_site_fract_x
_atom_site_fract_y
_atom_site_fract_z
Si Si1 0.902509 0.489147 0.586874
Si Si2 0.030167 0.553093 0.144246
Si Si3 0.555707 0.672258 0.765199
Si Si4 0.711948 0.997527 0.077604
Si Si5 0.110162 0.716613 0.025435
Si Si6 0.891937 0.764253 0.562738
O O1 0.824029 0.504657 0.657297
O O2 0.979066 0.358539 0.594665
O O3 0.818770 0.465309 0.518861
O O4 0.961587 0.629386 0.575827
O O5 0.097477 0.545177 0.217791
O O6 0.039345 0.673794 0.094169
O O7 0.119266 0.455950 0.101044
O O8 0.882246 0.519077 0.141465
O O9 0.592073 0.812653 0.739083
O O10 0.648087 0.111244 0.032500
O O11 0.709156 0.890817 0.018578
O O12 0.250000 0.750000 0.050888
O O13 0.750000 0.750000 0.588975
#
# Coordination Sequence:
#
# PCOD9545072 Si02
#       6
#     8   8   8   8   8   8
#     4  11  21  37  61  92 122 162 213 271 326 393
#     4  11  21  38  60  90 127 166 207 262 338 394
#     4  11  22  38  61  89 122 163 213 273 330 401
#     4  10  21  35  58  84 121 158 196 257 320 389
#     4   9  19  36  58  89 125 156 202 265 323 390
#     4  11  19  34  60  90 116 155 203 259 317 380
#
# _framework density 22.180465999999999
#
# number of rings (size 3 to 8) (size 9 to 14) (size 15 to 20)
#    0.000    1.500    1.667    6.500    0.000    0.000 
#    0.000    4.167    3.667    0.000    0.000    0.000 
#    0.000    0.000    0.000    0.000    0.000    0.000 
#
# Total GULP energy -267795.795526 kJ/mol
# GULP energy per Si atom -5579.079073 kJ/mol
# Density = 2.212998 g / cm^3
# Si number density = 22.180466 Si / 1000 Ang^3
#
#
#
# Elastic Constant Matrix: (Units=GPa)
#
#
# Indices 1 2 3 4 5 6 
#
# 1 75.8706 13.7394 26.9036 0.0000 0.0000 0.9156
# 2 13.7394 75.8706 26.9036 0.0000 0.0000 -0.9156
# 3 26.9036 26.9036 89.5996 0.0000 0.0000 0.0000
# 4 0.0000 0.0000 0.0000 -11.3376 0.0000 0.0000
# 5 0.0000 0.0000 0.0000 0.0000 -11.3376 0.0000
# 6 0.9156 -0.9156 0.0000 0.0000 0.0000 17.9572
#
#
#
# Elastic Compliance Matrix: (Units=1/GPa)
#
#
# Indices 1 2 3 4 5 6 
#
# 1 0.014867 -0.001253 -0.004088 0.000000 0.000000 -0.000822
# 2 -0.001253 0.014867 -0.004088 0.000000 0.000000 0.000822
# 3 -0.004088 -0.004088 0.013616 0.000000 0.000000 0.000000
# 4 0.000000 0.000000 0.000000 -0.088202 0.000000 0.000000
# 5 0.000000 0.000000 0.000000 0.000000 -0.088202 0.000000
# 6 -0.000822 0.000822 0.000000 0.000000 0.000000 0.055772
#
#
# Mechanical properties :
#
#
# Convention : Reuss Voigt Hill
#
# Bulk Modulus (GPa) = 40.82893 41.82599 41.32746
# Shear Modulus (GPa) = -99.47654 10.64268 -44.41693
#
# Velocity S-wave (km/s) = -6.70418 2.19286 -4.47981
# Velocity P-wave (km/s) = 6.44054 5.03086 2.84350
#
# Compressibility (1/GPa) = 0.02449244
#
# Stress axis : x y z
#
# Youngs Moduli (GPa) = 67.26479 67.26479 73.44504
#
# Poissons Ratio (x) = 0.08425 0.30023
# Poissons Ratio (y) = 0.08425 0.30023
# Poissons Ratio (z) = 0.27497 0.27497
#
# Static dielectric constant tensor:
#      x y z
#    x 1.903660 0.000000 0.000000 
#    y 0.000000 1.903660 0.000000 
#    z 0.000000 0.000000 1.816780 
# 
# From -- ./inp_files/3555.got.cif
#   From: 2010.05.17/outbox.cif.g08.bks.cpg/sg86_2_cif.got.tgz:3555.got - 2010.06.03 19:03:11.
