data_PCOD9545278
_publ_section_title
;
Structure prediction by ZEFSAII (Michael W. Deem and Ramdas Pophale) SiO2 
 PCOD9545278
Probable space group: P 42/N
;
_chemical_formula_sum "Si O2"
_cell_formula_units_Z 24
_cell_length_a 6.892512
_cell_length_b 6.892512
_cell_length_c 25.539686
_cell_angle_alpha 90.000000
_cell_angle_beta 90.000000
_cell_angle_gamma 90.000000
_cell_volume 1213.306754
_symmetry_space_group_name_H-M "P 42/N"
_symmetry_group_IT_number 86
_space_group.IT_coordinate_system_code '2'
_symmetry_cell_setting 'tetragonal'
loop_
_space_group_symop_operation_xyz
x,y,z
-y,1/2+x,1/2+z
1/2-x,1/2-y,z
1/2+y,-x,1/2+z
-x,-y,-z
y,1/2-x,1/2-z
1/2+x,1/2+y,-z
1/2-y,x,1/2-z
loop_
_atom_site_type_symbol
_atom_site_label
_atom_site_fract_x
_atom_site_fract_y
_atom_site_fract_z
Si Si1 0.078255 0.412708 0.320845
Si Si2 0.890504 0.415793 0.570228
Si Si3 0.750000 0.250000 0.747153
Si Si4 0.750000 0.750000 0.004277
O O1 0.250000 0.250000 0.317686
O O2 0.034007 0.455957 0.381549
O O3 0.138103 0.609212 0.291946
O O4 0.895061 0.351924 0.287152
O O5 0.750000 0.250000 0.591424
O O6 0.763043 0.559315 0.533057
O O7 0.062537 0.301219 0.539999
#
# Coordination Sequence:
#
# PCOD9545278 Si02
#       4
#     8   8   4   4
#     4  12  25  45  68  99 137 175 220 288 337 396
#     4  11  23  43  70  96 138 178 224 273 336 397
#     4  12  24  46  70  94 136 172 224 278 340 394
#     4  10  24  42  64 106 134 176 224 276 330 396
#
# _framework density 19.780652
#
# number of rings (size 3 to 8) (size 9 to 14) (size 15 to 20)
#    0.000    0.667    6.667    1.000    0.000    6.000 
#   12.000    0.000    0.000    0.000    0.000    0.000 
#    0.000    0.000    0.000    0.000    0.000    0.000 
#
# Total GULP energy -133677.391325 kJ/mol
# GULP energy per Si atom -5569.891305 kJ/mol
# Density = 1.973563 g / cm^3
# Si number density = 19.780652 Si / 1000 Ang^3
#
#
#
# Elastic Constant Matrix: (Units=GPa)
#
#
# Indices 1 2 3 4 5 6 
#
# 1 90.4675 59.4969 40.6964 0.0000 0.0000 -0.5626
# 2 59.4969 90.4675 40.6964 0.0000 0.0000 0.5626
# 3 40.6964 40.6964 130.7068 0.0000 0.0000 0.0000
# 4 0.0000 0.0000 0.0000 46.6538 0.0000 0.0000
# 5 0.0000 0.0000 0.0000 0.0000 46.6538 0.0000
# 6 -0.5626 0.5626 0.0000 0.0000 0.0000 36.8177
#
#
#
# Elastic Compliance Matrix: (Units=1/GPa)
#
#
# Indices 1 2 3 4 5 6 
#
# 1 0.020165 -0.012141 -0.002498 0.000000 0.000000 0.000494
# 2 -0.012141 0.020165 -0.002498 0.000000 0.000000 -0.000494
# 3 -0.002498 -0.002498 0.009206 0.000000 0.000000 0.000000
# 4 0.000000 0.000000 0.000000 0.021434 0.000000 0.000000
# 5 0.000000 0.000000 0.000000 0.000000 0.021434 0.000000
# 6 0.000494 -0.000494 0.000000 0.000000 0.000000 0.027176
#
#
# Mechanical properties :
#
#
# Convention : Reuss Voigt Hill
#
# Bulk Modulus (GPa) = 65.52483 65.93569 65.73026
# Shear Modulus (GPa) = 31.45735 37.40854 34.43295
#
# Velocity S-wave (km/s) = 3.99219 4.35347 4.17674
# Velocity P-wave (km/s) = 7.37887 7.66003 7.52077
#
# Compressibility (1/GPa) = 0.01526139
#
# Stress axis : x y z
#
# Youngs Moduli (GPa) = 49.58978 49.58978 108.61897
#
# Poissons Ratio (x) = 0.60208 0.27137
# Poissons Ratio (y) = 0.60208 0.27137
# Poissons Ratio (z) = 0.12390 0.12390
#
# Static dielectric constant tensor:
#      x y z
#    x 1.775000 0.000000 0.000000 
#    y 0.000000 1.775000 0.000000 
#    z 0.000000 0.000000 1.701330 
# 
# From -- ./inp_files/4965.got.cif
#   From: 2010.05.17/outbox.cif.g08.bks.cpg/sg86_3_cif.got.tgz:4965.got - 2010.06.03 19:03:11.
