data_PCOD9545702
_publ_section_title
;
Structure prediction by ZEFSAII (Michael W. Deem and Ramdas Pophale) SiO2 
 PCOD9545702
Probable space group: I 4/M
;
_chemical_formula_sum "Si O2"
_cell_formula_units_Z 96
_cell_length_a 23.835759
_cell_length_b 23.835759
_cell_length_c 8.832774
_cell_angle_alpha 90.000000
_cell_angle_beta 90.000000
_cell_angle_gamma 90.000000
_cell_volume 5018.282315
_symmetry_space_group_name_H-M "I 4/M"
_symmetry_group_IT_number 87
_symmetry_cell_setting 'tetragonal'
loop_
_space_group_symop_operation_xyz
x,y,z
-y,x,z
-x,-y,z
y,-x,z
-x,-y,-z
y,-x,-z
x,y,-z
-y,x,-z
1/2+x,1/2+y,1/2+z
1/2-y,1/2+x,1/2+z
1/2-x,1/2-y,1/2+z
1/2+y,1/2-x,1/2+z
1/2-x,1/2-y,1/2-z
1/2+y,1/2-x,1/2-z
1/2+x,1/2+y,1/2-z
1/2-y,1/2+x,1/2-z
loop_
_atom_site_type_symbol
_atom_site_label
_atom_site_fract_x
_atom_site_fract_y
_atom_site_fract_z
Si Si1 0.513270 0.915475 0.319688
Si Si2 0.680271 0.304047 0.326546
Si Si3 0.313678 0.926446 0.679104
Si Si4 0.591759 0.487965 0.180324
Si Si5 0.683196 0.190452 0.827803
Si Si6 0.927736 0.809076 0.819151
O O1 0.506305 0.919149 0.500000
O O2 0.457857 0.937997 0.236177
O O3 0.531213 0.854208 0.266460
O O4 0.661973 0.296384 0.500000
O O5 0.661830 0.250589 0.229848
O O6 0.748642 0.305048 0.326729
O O7 0.665406 0.366637 0.273335
O O8 0.317977 0.933949 0.500000
O O9 0.330804 0.862651 0.724107
O O10 0.250111 0.934029 0.736004
O O11 0.560585 0.546152 0.214253
O O12 0.647570 0.475374 0.272204
O O13 0.603004 0.486367 0.000000
O O14 0.665633 0.179237 0.000000
O O15 0.925575 0.800008 0.000000
#
# Coordination Sequence:
#
# PCOD9545702 Si02
#       6
#    16  16  16  16  16  16
#     4  11  22  40  63  87 113 144 185 227 270 322
#     4   8  15  27  43  67 101 139 177 216 263 322
#     4  11  21  35  56  82 113 149 185 226 278 328
#     4   9  19  37  59  81 107 142 184 227 273 330
#     4   9  16  27  45  71 102 138 180 222 264 318
#     4  10  20  34  54  82 113 144 182 230 280 330
#
# _framework density 19.130051999999999
#
# number of rings (size 3 to 8) (size 9 to 14) (size 15 to 20)
#    0.000    2.333    0.000    6.000    0.000    5.333 
#    0.000    2.500    0.000    4.000    0.000    0.000 
#    0.000    0.000    0.000    0.000    0.000    0.000 
#
# Total GULP energy -267849.041956 kJ/mol
# GULP energy per Si atom -5580.188374 kJ/mol
# Density = 1.908651 g / cm^3
# Si number density = 19.130052 Si / 1000 Ang^3
#
#
#
# Elastic Constant Matrix: (Units=GPa)
#
#
# Indices 1 2 3 4 5 6 
#
# 1 29.5446 20.2182 13.5884 0.0000 0.0000 1.3108
# 2 20.2182 29.5446 13.5884 0.0000 0.0000 -1.3108
# 3 13.5884 13.5884 73.8051 0.0000 0.0000 0.0000
# 4 0.0000 0.0000 0.0000 25.3114 0.0000 0.0000
# 5 0.0000 0.0000 0.0000 0.0000 25.3114 0.0000
# 6 1.3108 -1.3108 0.0000 0.0000 0.0000 15.7585
#
#
#
# Elastic Compliance Matrix: (Units=1/GPa)
#
#
# Indices 1 2 3 4 5 6 
#
# 1 0.066066 -0.043724 -0.004113 0.000000 0.000000 -0.009133
# 2 -0.043724 0.066066 -0.004113 0.000000 0.000000 0.009133
# 3 -0.004113 -0.004113 0.015064 0.000000 0.000000 0.000000
# 4 0.000000 0.000000 0.000000 0.039508 0.000000 0.000000
# 5 0.000000 0.000000 0.000000 0.000000 0.039508 0.000000
# 6 -0.009133 0.009133 0.000000 0.000000 0.000000 0.064977
#
#
# Mechanical properties :
#
#
# Convention : Reuss Voigt Hill
#
# Bulk Modulus (GPa) = 23.09797 25.29825 24.19811
# Shear Modulus (GPa) = 12.20939 18.97624 15.59281
#
# Velocity S-wave (km/s) = 2.52906 3.15296 2.85808
# Velocity P-wave (km/s) = 4.54187 5.14858 4.85471
#
# Compressibility (1/GPa) = 0.04329386
#
# Stress axis : x y z
#
# Youngs Moduli (GPa) = 15.13643 15.13643 66.38415
#
# Poissons Ratio (x) = 0.66183 0.27306
# Poissons Ratio (y) = 0.66183 0.27306
# Poissons Ratio (z) = 0.06226 0.06226
#
# Static dielectric constant tensor:
#      x y z
#    x 1.678950 0.000000 0.000000 
#    y 0.000000 1.678950 0.000000 
#    z 0.000000 0.000000 1.643680 
# 
# From -- ./inp_files/1445.got.cif
#   From: 2010.05.17/outbox.cif.g08.bks.cpg/sg87_1_cif.got.tgz:1445.got - 2010.06.03 19:07:00.
