data_PCOD9545353
_publ_section_title
;
Structure prediction by ZEFSAII (Michael W. Deem and Ramdas Pophale) SiO2 
 PCOD9545353
Probable space group: P 42/N
;
_chemical_formula_sum "Si O2"
_cell_formula_units_Z 34
_cell_length_a 8.560113
_cell_length_b 8.560113
_cell_length_c 20.391342
_cell_angle_alpha 90.000000
_cell_angle_beta 90.000000
_cell_angle_gamma 90.000000
_cell_volume 1494.186486
_symmetry_space_group_name_H-M "P 42/N"
_symmetry_group_IT_number 86
_space_group.IT_coordinate_system_code '2'
_symmetry_cell_setting 'tetragonal'
loop_
_space_group_symop_operation_xyz
x,y,z
-y,1/2+x,1/2+z
1/2-x,1/2-y,z
1/2+y,-x,1/2+z
-x,-y,-z
y,1/2-x,1/2-z
1/2+x,1/2+y,-z
1/2-y,x,1/2-z
loop_
_atom_site_type_symbol
_atom_site_label
_atom_site_fract_x
_atom_site_fract_y
_atom_site_fract_z
Si Si1 0.539228 0.693486 0.645625
Si Si2 0.979004 0.022620 0.222346
Si Si3 0.250000 0.750000 0.551075
Si Si4 0.750000 0.750000 0.250000
Si Si5 0.146978 0.972072 0.453282
Si Si6 0.750000 0.250000 0.148536
O O1 0.508714 0.564087 0.701757
O O2 0.393427 0.718064 0.598005
O O3 0.665582 0.617892 0.595277
O O4 0.547839 0.856240 0.685191
O O5 0.866305 0.154172 0.193252
O O6 0.887271 0.856403 0.215756
O O7 0.274071 0.901383 0.503735
O O8 0.128648 0.833439 0.400619
O O9 0.000000 0.000000 0.500000
#
# Coordination Sequence:
#
# PCOD9545353 Si02
#       6
#     8   8   4   2   8   4
#     4  11  22  40  65  98 132 174 230 286 349 418
#     4  12  25  41  68 100 137 179 227 296 364 433
#     4   9  19  40  66  92 131 181 226 282 346 421
#     4  12  24  40  60  96 136 176 216 272 368 446
#     4   9  20  40  65  91 132 179 226 287 347 415
#     4  11  23  42  62  96 137 177 232 288 356 437
#
# _framework density 22.754854999999999
#
# number of rings (size 3 to 8) (size 9 to 14) (size 15 to 20)
#    0.000    1.412    0.000    6.353    0.000    5.176 
#    0.000   12.941    0.000   11.294    0.000    0.000 
#    0.000    0.000    0.000    0.000    0.000    0.000 
#
# Total GULP energy -189367.818743 kJ/mol
# GULP energy per Si atom -5569.641728 kJ/mol
# Density = 2.270306 g / cm^3
# Si number density = 22.754855 Si / 1000 Ang^3
#
#
#
# Elastic Constant Matrix: (Units=GPa)
#
#
# Indices 1 2 3 4 5 6 
#
# 1 93.1370 40.6704 62.8442 0.0000 0.0000 -8.1153
# 2 40.6704 93.1370 62.8442 0.0000 0.0000 8.1153
# 3 62.8442 62.8442 178.0169 0.0000 0.0000 0.0000
# 4 0.0000 0.0000 0.0000 24.6934 0.0000 0.0000
# 5 0.0000 0.0000 0.0000 0.0000 24.6934 0.0000
# 6 -8.1153 8.1153 0.0000 0.0000 0.0000 36.8489
#
#
#
# Elastic Compliance Matrix: (Units=1/GPa)
#
#
# Indices 1 2 3 4 5 6 
#
# 1 0.015817 -0.004636 -0.003947 0.000000 0.000000 0.004504
# 2 -0.004636 0.015817 -0.003947 0.000000 0.000000 -0.004504
# 3 -0.003947 -0.003947 0.008404 0.000000 0.000000 0.000000
# 4 0.000000 0.000000 0.000000 0.040497 0.000000 0.000000
# 5 0.000000 0.000000 0.000000 0.000000 0.040497 0.000000
# 6 0.004504 -0.004504 0.000000 0.000000 0.000000 0.029122
#
#
# Mechanical properties :
#
#
# Convention : Reuss Voigt Hill
#
# Bulk Modulus (GPa) = 66.76547 77.44539 72.10543
# Shear Modulus (GPa) = 27.74585 30.44264 29.09424
#
# Velocity S-wave (km/s) = 3.49569 3.66163 3.57962
# Velocity P-wave (km/s) = 6.76003 7.21008 6.98868
#
# Compressibility (1/GPa) = 0.01497780
#
# Stress axis : x y z
#
# Youngs Moduli (GPa) = 63.22253 63.22253 118.98586
#
# Poissons Ratio (x) = 0.29310 0.46966
# Poissons Ratio (y) = 0.29310 0.46966
# Poissons Ratio (z) = 0.24955 0.24955
#
# Static dielectric constant tensor:
#      x y z
#    x 1.897990 0.000000 0.000000 
#    y 0.000000 1.897990 0.000000 
#    z 0.000000 0.000000 1.829000 
# 
# From -- ./inp_files/4056.got.cif
#   From: 2010.05.17/outbox.cif.g08.bks.cpg/sg86_3_cif.got.tgz:4056.got - 2010.06.03 19:03:11.
