data_PCOD9545510
_publ_section_title
;
Structure prediction by ZEFSAII (Michael W. Deem and Ramdas Pophale) SiO2 
 PCOD9545510
Probable space group: I 4/M
;
_chemical_formula_sum "Si O2"
_cell_formula_units_Z 88
_cell_length_a 15.133050
_cell_length_b 15.133050
_cell_length_c 21.184183
_cell_angle_alpha 90.000000
_cell_angle_beta 90.000000
_cell_angle_gamma 90.000000
_cell_volume 4851.372850
_symmetry_space_group_name_H-M "I 4/M"
_symmetry_group_IT_number 87
_symmetry_cell_setting 'tetragonal'
loop_
_space_group_symop_operation_xyz
x,y,z
-y,x,z
-x,-y,z
y,-x,z
-x,-y,-z
y,-x,-z
x,y,-z
-y,x,-z
1/2+x,1/2+y,1/2+z
1/2-y,1/2+x,1/2+z
1/2-x,1/2-y,1/2+z
1/2+y,1/2-x,1/2+z
1/2-x,1/2-y,1/2-z
1/2+y,1/2-x,1/2-z
1/2+x,1/2+y,1/2-z
1/2-y,1/2+x,1/2-z
loop_
_atom_site_type_symbol
_atom_site_label
_atom_site_fract_x
_atom_site_fract_y
_atom_site_fract_z
Si Si1 0.997926 0.151259 0.000000
Si Si2 0.033947 0.274672 0.118147
Si Si3 0.201703 0.807198 0.694636
Si Si4 0.930311 0.871063 0.207896
Si Si5 0.376654 0.881325 0.317155
Si Si6 0.352318 0.086864 0.331655
O O1 0.084218 0.085962 0.000000
O O2 0.001119 0.217216 0.940419
O O3 0.091659 0.204547 0.158340
O O4 0.097776 0.358993 0.113565
O O5 0.953893 0.318010 0.157700
O O6 0.250000 0.750000 0.750000
O O7 0.163219 0.896287 0.725495
O O8 0.286468 0.838259 0.656301
O O9 0.122617 0.748317 0.667728
O O10 0.034461 0.885426 0.199207
O O11 0.385116 0.883066 0.240109
O O12 0.374263 0.983743 0.336820
#
# Coordination Sequence:
#
# PCOD9545510 Si02
#       6
#     8  16  16  16  16  16
#     4  11  28  48  65  86 122 174 225 262 302 349
#     4  12  23  37  61  85 118 161 214 259 298 374
#     4  10  18  31  49  80 116 155 197 236 303 378
#     4  11  20  31  50  78 115 156 196 243 299 364
#     4  11  20  35  56  88 127 158 197 253 322 382
#     4  11  21  33  57  89 123 161 198 250 321 389
#
# _framework density 18.139195000000001
#
# number of rings (size 3 to 8) (size 9 to 14) (size 15 to 20)
#    0.000    1.000    5.455    4.909    2.545    1.455 
#    0.000    1.818    0.000    0.000    0.000    0.000 
#    0.000    0.000    0.000    1.636    0.000    0.000 
#
# Total GULP energy -244950.880499 kJ/mol
# GULP energy per Si atom -5567.065466 kJ/mol
# Density = 1.809791 g / cm^3
# Si number density = 18.139195 Si / 1000 Ang^3
#
#
#
# Elastic Constant Matrix: (Units=GPa)
#
#
# Indices 1 2 3 4 5 6 
#
# 1 108.1139 28.7881 19.2157 0.0000 0.0000 3.3237
# 2 28.7881 108.1139 19.2157 0.0000 0.0000 -3.3237
# 3 19.2157 19.2157 36.6979 0.0000 0.0000 0.0000
# 4 0.0000 0.0000 0.0000 18.6697 0.0000 0.0000
# 5 0.0000 0.0000 0.0000 0.0000 18.6697 0.0000
# 6 3.3237 -3.3237 0.0000 0.0000 0.0000 32.3010
#
#
#
# Elastic Compliance Matrix: (Units=1/GPa)
#
#
# Indices 1 2 3 4 5 6 
#
# 1 0.010640 -0.002076 -0.004484 0.000000 0.000000 -0.001308
# 2 -0.002076 0.010640 -0.004484 0.000000 0.000000 0.001308
# 3 -0.004484 -0.004484 0.031945 0.000000 0.000000 0.000000
# 4 0.000000 0.000000 0.000000 0.053563 0.000000 0.000000
# 5 0.000000 0.000000 0.000000 0.000000 0.053563 0.000000
# 6 -0.001308 0.001308 0.000000 0.000000 0.000000 0.031228
#
#
# Mechanical properties :
#
#
# Convention : Reuss Voigt Hill
#
# Bulk Modulus (GPa) = 32.11698 43.04051 37.57875
# Shear Modulus (GPa) = 22.31698 26.30849 24.31274
#
# Velocity S-wave (km/s) = 3.51139 3.81250 3.66504
# Velocity P-wave (km/s) = 5.84672 6.56960 6.21867
#
# Compressibility (1/GPa) = 0.03113618
#
# Stress axis : x y z
#
# Youngs Moduli (GPa) = 93.98896 93.98896 31.30365
#
# Poissons Ratio (x) = 0.19515 0.14036
# Poissons Ratio (y) = 0.19515 0.14036
# Poissons Ratio (z) = 0.42143 0.42143
#
# Static dielectric constant tensor:
#      x y z
#    x 1.696270 0.000000 0.000000 
#    y 0.000000 1.696270 0.000000 
#    z 0.000000 0.000000 1.620570 
# 
# From -- ./inp_files/5786.got.cif
#   From: 2010.05.17/outbox.cif.g08.bks.cpg/sg87_3_cif.got.tgz:5786.got - 2010.06.03 19:07:00.
