data_PCOD9545574
_publ_section_title
;
Structure prediction by ZEFSAII (Michael W. Deem and Ramdas Pophale) SiO2 
 PCOD9545574
Probable space group: I 4/M
;
_chemical_formula_sum "Si O2"
_cell_formula_units_Z 80
_cell_length_a 23.250540
_cell_length_b 23.250540
_cell_length_c 9.940638
_cell_angle_alpha 90.000000
_cell_angle_beta 90.000000
_cell_angle_gamma 90.000000
_cell_volume 5373.785741
_symmetry_space_group_name_H-M "I 4/M"
_symmetry_group_IT_number 87
_symmetry_cell_setting 'tetragonal'
loop_
_space_group_symop_operation_xyz
x,y,z
-y,x,z
-x,-y,z
y,-x,z
-x,-y,-z
y,-x,-z
x,y,-z
-y,x,-z
1/2+x,1/2+y,1/2+z
1/2-y,1/2+x,1/2+z
1/2-x,1/2-y,1/2+z
1/2+y,1/2-x,1/2+z
1/2-x,1/2-y,1/2-z
1/2+y,1/2-x,1/2-z
1/2+x,1/2+y,1/2-z
1/2-y,1/2+x,1/2-z
loop_
_atom_site_type_symbol
_atom_site_label
_atom_site_fract_x
_atom_site_fract_y
_atom_site_fract_z
Si Si1 0.697276 0.379650 0.343144
Si Si2 0.005005 0.823124 0.751952
Si Si3 0.789709 0.707197 0.161489
Si Si4 0.905706 0.987962 0.000000
Si Si5 0.596227 0.515391 0.000000
Si Si6 0.883837 0.232398 0.837054
O O1 0.688999 0.395794 0.500000
O O2 0.692430 0.437488 0.256795
O O3 0.760260 0.350766 0.331236
O O4 0.650405 0.328921 0.314645
O O5 0.019782 0.861030 0.624079
O O6 0.051217 0.773652 0.783118
O O7 0.015893 0.866547 0.872667
O O8 0.750000 0.750000 0.250000
O O9 0.779210 0.648661 0.243851
O O10 0.774989 0.703871 0.000000
O O11 0.938755 0.047554 0.000000
O O12 0.545996 0.563087 0.000000
O O13 0.881132 0.242682 0.000000
#
# Coordination Sequence:
#
# PCOD9545574 Si02
#       6
#    16  16  16   8   8  16
#     4   9  17  32  49  69  91 120 161 199 241 289
#     4  12  21  33  49  68  94 126 166 211 242 285
#     4   9  18  32  51  70  93 121 156 201 248 299
#     4  11  20  30  48  66  86 126 170 203 234 268
#     4  11  24  36  42  60  98 136 170 205 246 282
#     4  10  19  32  50  71  94 122 161 203 248 296
#
# _framework density 14.887084
#
# number of rings (size 3 to 8) (size 9 to 14) (size 15 to 20)
#    0.000    1.800    2.000    5.400    1.400    1.600 
#    9.000    0.000    0.000    0.000    0.000    0.000 
#    0.000    0.800    0.000    6.400    0.000    0.000 
#
# Total GULP energy -222688.902074 kJ/mol
# GULP energy per Si atom -5567.222552 kJ/mol
# Density = 1.485320 g / cm^3
# Si number density = 14.887084 Si / 1000 Ang^3
#
#
#
# Elastic Constant Matrix: (Units=GPa)
#
#
# Indices 1 2 3 4 5 6 
#
# 1 39.9909 11.3136 18.3984 0.0000 0.0000 -5.1250
# 2 11.3136 39.9909 18.3984 0.0000 0.0000 5.1250
# 3 18.3984 18.3984 107.0627 0.0000 0.0000 0.0000
# 4 0.0000 0.0000 0.0000 21.7724 0.0000 0.0000
# 5 0.0000 0.0000 0.0000 0.0000 21.7724 0.0000
# 6 -5.1250 5.1250 0.0000 0.0000 0.0000 32.9189
#
#
#
# Elastic Compliance Matrix: (Units=1/GPa)
#
#
# Indices 1 2 3 4 5 6 
#
# 1 0.029579 -0.007347 -0.003820 0.000000 0.000000 0.005749
# 2 -0.007347 0.029579 -0.003820 0.000000 0.000000 -0.005749
# 3 -0.003820 -0.003820 0.010653 0.000000 0.000000 0.000000
# 4 0.000000 0.000000 0.000000 0.045930 0.000000 0.000000
# 5 0.000000 0.000000 0.000000 0.000000 0.045930 0.000000
# 6 0.005749 -0.005749 0.000000 0.000000 0.000000 0.032168
#
#
# Mechanical properties :
#
#
# Convention : Reuss Voigt Hill
#
# Bulk Modulus (GPa) = 25.10370 31.47393 28.28881
# Shear Modulus (GPa) = 21.08890 24.55501 22.82196
#
# Velocity S-wave (km/s) = 3.76784 4.06571 3.91961
# Velocity P-wave (km/s) = 5.98567 6.57477 6.28712
#
# Compressibility (1/GPa) = 0.03983477
#
# Stress axis : x y z
#
# Youngs Moduli (GPa) = 33.80828 33.80828 93.86695
#
# Poissons Ratio (x) = 0.24839 0.35861
# Poissons Ratio (y) = 0.24839 0.35861
# Poissons Ratio (z) = 0.12916 0.12916
#
# Static dielectric constant tensor:
#      x y z
#    x 1.528260 0.000000 0.000000 
#    y 0.000000 1.528260 0.000000 
#    z 0.000000 0.000000 1.488520 
# 
# From -- ./inp_files/1274.got.cif
#   From: 2010.05.17/outbox.cif.g08.bks.cpg/sg87_1_cif.got.tgz:1274.got - 2010.06.03 19:07:00.
