data_PCOD9545971
_publ_section_title
;
Structure prediction by ZEFSAII (Michael W. Deem and Ramdas Pophale) SiO2 
 PCOD9545971
Probable space group: I 4/M
;
_chemical_formula_sum "Si O2"
_cell_formula_units_Z 96
_cell_length_a 14.118202
_cell_length_b 14.118202
_cell_length_c 21.755290
_cell_angle_alpha 90.000000
_cell_angle_beta 90.000000
_cell_angle_gamma 90.000000
_cell_volume 4336.343325
_symmetry_space_group_name_H-M "I 4/M"
_symmetry_group_IT_number 87
_symmetry_cell_setting 'tetragonal'
loop_
_space_group_symop_operation_xyz
x,y,z
-y,x,z
-x,-y,z
y,-x,z
-x,-y,-z
y,-x,-z
x,y,-z
-y,x,-z
1/2+x,1/2+y,1/2+z
1/2-y,1/2+x,1/2+z
1/2-x,1/2-y,1/2+z
1/2+y,1/2-x,1/2+z
1/2-x,1/2-y,1/2-z
1/2+y,1/2-x,1/2-z
1/2+x,1/2+y,1/2-z
1/2-y,1/2+x,1/2-z
loop_
_atom_site_type_symbol
_atom_site_label
_atom_site_fract_x
_atom_site_fract_y
_atom_site_fract_z
Si Si1 0.959804 0.152539 0.628426
Si Si2 0.856984 0.319723 0.126299
Si Si3 0.691178 0.017482 0.713470
Si Si4 0.947546 0.630665 0.847678
Si Si5 0.567994 0.357265 0.430004
Si Si6 0.224827 0.317859 0.068682
O O1 0.919900 0.225102 0.578041
O O2 0.063736 0.109561 0.624427
O O3 0.963216 0.215587 0.690018
O O4 0.815931 0.376763 0.184748
O O5 0.897165 0.213159 0.122399
O O6 0.764284 0.301554 0.083934
O O7 0.955907 0.376065 0.111930
O O8 0.685292 0.020770 0.786147
O O9 0.602982 0.961057 0.682912
O O10 0.864218 0.681331 0.885438
O O11 0.620607 0.457205 0.425417
O O12 0.584077 0.319337 0.500000
O O13 0.190280 0.306403 0.000000
#
# Coordination Sequence:
#
# PCOD9545971 Si02
#       6
#    16  16  16  16  16  16
#     4  10  22  45  72  99 136 185 239 300 348 398
#     4  12  22  38  66 102 138 180 231 291 354 420
#     4  11  23  43  71 103 136 181 241 292 359 429
#     4  11  25  44  72 101 141 188 233 297 362 421
#     4   9  19  38  64  94 135 187 235 284 350 423
#     4  11  26  45  69 108 146 189 244 282 351 440
#
# _framework density 22.138466999999999
#
# number of rings (size 3 to 8) (size 9 to 14) (size 15 to 20)
#    0.000    1.333    3.333    2.500    0.000    5.333 
#    0.000    1.667    0.000    8.000    0.000    0.000 
#    0.000    0.000    0.000    0.000    0.000    0.000 
#
# Total GULP energy -267347.849296 kJ/mol
# GULP energy per Si atom -5569.746860 kJ/mol
# Density = 2.208808 g / cm^3
# Si number density = 22.138467 Si / 1000 Ang^3
#
#
#
# Elastic Constant Matrix: (Units=GPa)
#
#
# Indices 1 2 3 4 5 6 
#
# 1 114.5577 31.1505 44.7919 0.0000 0.0000 -11.0590
# 2 31.1505 114.5577 44.7919 0.0000 0.0000 11.0590
# 3 44.7919 44.7919 102.6133 0.0000 0.0000 0.0000
# 4 0.0000 0.0000 0.0000 17.4324 0.0000 0.0000
# 5 0.0000 0.0000 0.0000 0.0000 17.4324 0.0000
# 6 -11.0590 11.0590 0.0000 0.0000 0.0000 42.0146
#
#
#
# Elastic Compliance Matrix: (Units=1/GPa)
#
#
# Indices 1 2 3 4 5 6 
#
# 1 0.011135 -0.001754 -0.004095 0.000000 0.000000 0.003393
# 2 -0.001754 0.011135 -0.004095 0.000000 0.000000 -0.003393
# 3 -0.004095 -0.004095 0.013320 0.000000 0.000000 0.000000
# 4 0.000000 0.000000 0.000000 0.057364 0.000000 0.000000
# 5 0.000000 0.000000 0.000000 0.000000 0.057364 0.000000
# 6 0.003393 -0.003393 0.000000 0.000000 0.000000 0.025587
#
#
# Mechanical properties :
#
#
# Convention : Reuss Voigt Hill
#
# Bulk Modulus (GPa) = 63.68486 63.68859 63.68672
# Shear Modulus (GPa) = 24.87229 29.44219 27.15724
#
# Velocity S-wave (km/s) = 3.35548 3.65075 3.50623
# Velocity P-wave (km/s) = 6.62128 6.82652 6.72469
#
# Compressibility (1/GPa) = 0.01570232
#
# Stress axis : x y z
#
# Youngs Moduli (GPa) = 89.80873 89.80873 75.07458
#
# Poissons Ratio (x) = 0.15755 0.30741
# Poissons Ratio (y) = 0.15755 0.30741
# Poissons Ratio (z) = 0.36774 0.36774
#
# Static dielectric constant tensor:
#      x y z
#    x 1.870880 0.000000 0.000000 
#    y 0.000000 1.870880 0.000000 
#    z 0.000000 0.000000 1.787190 
# 
# From -- ./inp_files/5260.got.cif
#   From: 2010.05.17/outbox.cif.g08.bks.cpg/sg87_3_cif.got.tgz:5260.got - 2010.06.03 19:07:00.
