data_PCOD9545017
_publ_section_title
;
Structure prediction by ZEFSAII (Michael W. Deem and Ramdas Pophale) SiO2 
 PCOD9545017
Probable space group: P 42/N
;
_chemical_formula_sum "Si O2"
_cell_formula_units_Z 40
_cell_length_a 13.883001
_cell_length_b 13.883001
_cell_length_c 11.918986
_cell_angle_alpha 90.000000
_cell_angle_beta 90.000000
_cell_angle_gamma 90.000000
_cell_volume 2297.238148
_symmetry_space_group_name_H-M "P 42/N"
_symmetry_group_IT_number 86
_space_group.IT_coordinate_system_code '2'
_symmetry_cell_setting 'tetragonal'
loop_
_space_group_symop_operation_xyz
x,y,z
-y,1/2+x,1/2+z
1/2-x,1/2-y,z
1/2+y,-x,1/2+z
-x,-y,-z
y,1/2-x,1/2-z
1/2+x,1/2+y,-z
1/2-y,x,1/2-z
loop_
_atom_site_type_symbol
_atom_site_label
_atom_site_fract_x
_atom_site_fract_y
_atom_site_fract_z
Si Si1 0.900212 0.759905 0.293416
Si Si2 0.092373 0.741238 0.698477
Si Si3 0.963306 0.840747 0.518108
Si Si4 0.356985 0.535672 0.431152
Si Si5 0.405396 0.754792 0.158160
O O1 0.845035 0.662036 0.262799
O O2 0.906446 0.780061 0.425438
O O3 0.005825 0.758257 0.241028
O O4 0.058340 0.700467 0.817829
O O5 0.163705 0.833231 0.706864
O O6 0.158296 0.657140 0.645400
O O7 0.007858 0.775456 0.616031
O O8 0.051983 0.893091 0.452053
O O9 0.898939 0.927728 0.566073
O O10 0.290526 0.554565 0.539200
#
# Coordination Sequence:
#
# PCOD9545017 Si02
#       5
#     8   8   8   8   8
#     4  11  22  40  62  84 118 163 210 246 294 362
#     4  10  22  35  62  91 119 157 198 254 304 359
#     4  10  21  39  60  84 121 161 201 246 307 358
#     4  10  20  39  59  84 124 160 195 250 311 354
#     4  10  21  36  59  89 117 155 202 251 296 361
#
# _framework density 17.412213999999999
#
# number of rings (size 3 to 8) (size 9 to 14) (size 15 to 20)
#    0.000    1.800    4.000    0.000    2.800    1.600 
#    3.600    1.000    0.000    0.000    0.000    0.000 
#    0.000    0.000    0.000    0.000    0.000    0.000 
#
# Total GULP energy -223225.813828 kJ/mol
# GULP energy per Si atom -5580.645346 kJ/mol
# Density = 1.737258 g / cm^3
# Si number density = 17.412214 Si / 1000 Ang^3
#
#
#
# Elastic Constant Matrix: (Units=GPa)
#
#
# Indices 1 2 3 4 5 6 
#
# 1 78.6545 56.6336 55.5695 0.0000 0.0000 0.4147
# 2 56.6336 78.6545 55.5695 0.0000 0.0000 -0.4147
# 3 55.5695 55.5695 123.4030 0.0000 0.0000 0.0000
# 4 0.0000 0.0000 0.0000 27.6761 0.0000 0.0000
# 5 0.0000 0.0000 0.0000 0.0000 27.6761 0.0000
# 6 0.4147 -0.4147 0.0000 0.0000 0.0000 17.2160
#
#
#
# Elastic Compliance Matrix: (Units=1/GPa)
#
#
# Indices 1 2 3 4 5 6 
#
# 1 0.028592 -0.016861 -0.005283 0.000000 0.000000 -0.001095
# 2 -0.016861 0.028592 -0.005283 0.000000 0.000000 0.001095
# 3 -0.005283 -0.005283 0.012861 0.000000 0.000000 0.000000
# 4 0.000000 0.000000 0.000000 0.036132 0.000000 0.000000
# 5 0.000000 0.000000 0.000000 0.000000 0.036132 0.000000
# 6 -0.001095 0.001095 0.000000 0.000000 0.000000 0.058138
#
#
# Mechanical properties :
#
#
# Convention : Reuss Voigt Hill
#
# Bulk Modulus (GPa) = 65.81952 68.47303 67.14627
# Shear Modulus (GPa) = 19.20381 22.04293 20.62337
#
# Velocity S-wave (km/s) = 3.32459 3.56187 3.44527
# Velocity P-wave (km/s) = 7.25396 7.50507 7.38058
#
# Compressibility (1/GPa) = 0.01519306
#
# Stress axis : x y z
#
# Youngs Moduli (GPa) = 34.97468 34.97468 77.75265
#
# Poissons Ratio (x) = 0.58970 0.41075
# Poissons Ratio (y) = 0.58970 0.41075
# Poissons Ratio (z) = 0.18476 0.18476
#
# Static dielectric constant tensor:
#      x y z
#    x 1.589330 0.000000 0.000000 
#    y 0.000000 1.589330 0.000000 
#    z 0.000000 0.000000 1.563250 
# 
# From -- ./inp_files/1119.got.cif
#   From: 2010.05.17/outbox.cif.g08.bks.cpg/sg86_1_cif.got.tgz:1119.got - 2010.06.03 19:03:11.
