data_PCOD9545566
_publ_section_title
;
Structure prediction by ZEFSAII (Michael W. Deem and Ramdas Pophale) SiO2 
 PCOD9545566
Probable space group: I 4/M
;
_chemical_formula_sum "Si O2"
_cell_formula_units_Z 80
_cell_length_a 12.969572
_cell_length_b 12.969572
_cell_length_c 18.109811
_cell_angle_alpha 90.000000
_cell_angle_beta 90.000000
_cell_angle_gamma 90.000000
_cell_volume 3046.247648
_symmetry_space_group_name_H-M "I 4/M"
_symmetry_group_IT_number 87
_symmetry_cell_setting 'tetragonal'
loop_
_space_group_symop_operation_xyz
x,y,z
-y,x,z
-x,-y,z
y,-x,z
-x,-y,-z
y,-x,-z
x,y,-z
-y,x,-z
1/2+x,1/2+y,1/2+z
1/2-y,1/2+x,1/2+z
1/2-x,1/2-y,1/2+z
1/2+y,1/2-x,1/2+z
1/2-x,1/2-y,1/2-z
1/2+y,1/2-x,1/2-z
1/2+x,1/2+y,1/2-z
1/2-y,1/2+x,1/2-z
loop_
_atom_site_type_symbol
_atom_site_label
_atom_site_fract_x
_atom_site_fract_y
_atom_site_fract_z
Si Si1 0.931939 0.373402 0.918341
Si Si2 0.068452 0.852815 0.116771
Si Si3 0.712690 0.478893 0.237605
Si Si4 0.638272 0.862046 0.673136
Si Si5 0.018928 0.768877 0.583187
O O1 0.892102 0.257318 0.906224
O O2 0.835263 0.449083 0.915152
O O3 0.028079 0.385545 0.863634
O O4 0.977270 0.381690 0.000000
O O5 0.950269 0.867925 0.089828
O O6 0.046599 0.852626 0.205224
O O7 0.759454 0.378991 0.278741
O O8 0.816543 0.548476 0.224696
O O9 0.670345 0.473129 0.154239
O O10 0.725392 0.868646 0.608783
O O11 0.018097 0.810825 0.500000
#
# Coordination Sequence:
#
# PCOD9545566 Si02
#       5
#    16  16  16  16  16
#     4  10  19  31  50  82 113 140 172 206 252 317
#     4  10  22  40  57  70  92 137 191 233 264 298
#     4   9  18  30  51  81 104 135 175 214 254 308
#     4   9  17  26  49  80 110 141 163 199 255 313
#     4   9  18  29  50  82 114 141 162 197 257 322
#
# _framework density 26.261818000000002
#
# number of rings (size 3 to 8) (size 9 to 14) (size 15 to 20)
#    1.200    1.400    0.000    3.600    2.800    2.400 
#    0.000   10.000    0.000    1.200    0.000    1.400 
#    0.000    0.000    0.000    0.000    0.000    0.000 
#
# Total GULP energy -223123.519531 kJ/mol
# GULP energy per Si atom -5578.087988 kJ/mol
# Density = 2.620205 g / cm^3
# Si number density = 26.261818 Si / 1000 Ang^3
#
#
#
# Elastic Constant Matrix: (Units=GPa)
#
#
# Indices 1 2 3 4 5 6 
#
# 1 81.1218 24.8802 13.5851 0.0000 0.0000 5.2655
# 2 24.8802 81.1218 13.5851 0.0000 0.0000 -5.2655
# 3 13.5851 13.5851 174.4806 0.0000 0.0000 0.0000
# 4 0.0000 0.0000 0.0000 -9.9953 0.0000 0.0000
# 5 0.0000 0.0000 0.0000 0.0000 -9.9953 0.0000
# 6 5.2655 -5.2655 0.0000 0.0000 0.0000 23.3663
#
#
#
# Elastic Compliance Matrix: (Units=1/GPa)
#
#
# Indices 1 2 3 4 5 6 
#
# 1 0.014095 -0.004469 -0.000749 0.000000 0.000000 -0.004183
# 2 -0.004469 0.014095 -0.000749 0.000000 0.000000 0.004183
# 3 -0.000749 -0.000749 0.005848 0.000000 0.000000 0.000000
# 4 0.000000 0.000000 0.000000 -0.100047 0.000000 0.000000
# 5 0.000000 0.000000 0.000000 0.000000 -0.100047 0.000000
# 6 -0.004183 0.004183 0.000000 0.000000 0.000000 0.044682
#
#
# Mechanical properties :
#
#
# Convention : Reuss Voigt Hill
#
# Bulk Modulus (GPa) = 45.24499 48.98053 47.11276
# Shear Modulus (GPa) = -48.98528 19.65341 -14.66594
#
# Velocity S-wave (km/s) = -4.32356 2.73859 -2.36572
# Velocity P-wave (km/s) = 2.76738 5.35642 3.24290
#
# Compressibility (1/GPa) = 0.02210190
#
# Stress axis : x y z
#
# Youngs Moduli (GPa) = 70.94812 70.94812 170.99852
#
# Poissons Ratio (x) = 0.31706 0.12816
# Poissons Ratio (y) = 0.31706 0.12816
# Poissons Ratio (z) = 0.05317 0.05317
#
# Static dielectric constant tensor:
#      x y z
#    x 2.066910 0.000000 0.000000 
#    y 0.000000 2.066910 0.000000 
#    z 0.000000 0.000000 2.194870 
# 
# From -- ./inp_files/5071.got.cif
#   From: 2010.05.17/outbox.cif.g08.bks.cpg/sg87_3_cif.got.tgz:5071.got - 2010.06.03 19:07:00.
