data_PCOD9545175
_publ_section_title
;
Structure prediction by ZEFSAII (Michael W. Deem and Ramdas Pophale) SiO2 
 PCOD9545175
Probable space group: P 42/N
;
_chemical_formula_sum "Si O2"
_cell_formula_units_Z 40
_cell_length_a 15.989746
_cell_length_b 15.989746
_cell_length_c 7.042164
_cell_angle_alpha 90.000000
_cell_angle_beta 90.000000
_cell_angle_gamma 90.000000
_cell_volume 1800.483993
_symmetry_space_group_name_H-M "P 42/N"
_symmetry_group_IT_number 86
_space_group.IT_coordinate_system_code '2'
_symmetry_cell_setting 'tetragonal'
loop_
_space_group_symop_operation_xyz
x,y,z
-y,1/2+x,1/2+z
1/2-x,1/2-y,z
1/2+y,-x,1/2+z
-x,-y,-z
y,1/2-x,1/2-z
1/2+x,1/2+y,-z
1/2-y,x,1/2-z
loop_
_atom_site_type_symbol
_atom_site_label
_atom_site_fract_x
_atom_site_fract_y
_atom_site_fract_z
Si Si1 0.271111 0.550622 0.728066
Si Si2 0.849932 0.982357 0.641805
Si Si3 0.386646 0.890561 0.542910
Si Si4 0.707657 0.871944 0.297422
Si Si5 0.656743 0.943740 0.675109
O O1 0.337336 0.520841 0.567387
O O2 0.206099 0.612999 0.629352
O O3 0.314625 0.589230 0.908082
O O4 0.218573 0.466228 0.775021
O O5 0.904382 0.898708 0.661121
O O6 0.754182 0.964240 0.710649
O O7 0.891586 0.048354 0.784625
O O8 0.385724 0.973536 0.412613
O O9 0.660435 0.878616 0.498177
O O10 0.662358 0.801836 0.174764
#
# Coordination Sequence:
#
# PCOD9545175 Si02
#       5
#     8   8   8   8   8
#     4  10  24  41  63  94 120 164 216 255 313 372
#     4  10  22  41  63  92 129 159 200 259 305 369
#     4  10  22  43  63  87 123 163 207 257 312 370
#     4   9  18  34  58  90 126 163 198 244 307 369
#     4  10  23  38  60  95 123 160 210 247 305 378
#
# _framework density 22.216249000000001
#
# number of rings (size 3 to 8) (size 9 to 14) (size 15 to 20)
#    0.000    2.600    0.000    1.800    0.000   15.600 
#    0.000   14.000    0.000    0.000    0.000    0.000 
#    0.000    0.000    0.000    0.000    0.000    0.000 
#
# Total GULP energy -223421.446771 kJ/mol
# GULP energy per Si atom -5585.536169 kJ/mol
# Density = 2.216568 g / cm^3
# Si number density = 22.216249 Si / 1000 Ang^3
#
#
#
# Elastic Constant Matrix: (Units=GPa)
#
#
# Indices 1 2 3 4 5 6 
#
# 1 23.2307 17.5514 6.0210 0.0000 0.0000 1.4036
# 2 17.5514 23.2307 6.0210 0.0000 0.0000 -1.4036
# 3 6.0210 6.0210 39.7972 0.0000 0.0000 0.0000
# 4 0.0000 0.0000 0.0000 22.0795 0.0000 0.0000
# 5 0.0000 0.0000 0.0000 0.0000 22.0795 0.0000
# 6 1.4036 -1.4036 0.0000 0.0000 0.0000 45.9717
#
#
#
# Elastic Compliance Matrix: (Units=1/GPa)
#
#
# Indices 1 2 3 4 5 6 
#
# 1 0.102222 -0.076555 -0.003883 0.000000 0.000000 -0.005459
# 2 -0.076555 0.102222 -0.003883 0.000000 0.000000 0.005459
# 3 -0.003883 -0.003883 0.026302 0.000000 0.000000 0.000000
# 4 0.000000 0.000000 0.000000 0.045291 0.000000 0.000000
# 5 0.000000 0.000000 0.000000 0.000000 0.045291 0.000000
# 6 -0.005459 0.005459 0.000000 0.000000 0.000000 0.022086
#
#
# Mechanical properties :
#
#
# Convention : Reuss Voigt Hill
#
# Bulk Modulus (GPa) = 16.10207 16.16060 16.13133
# Shear Modulus (GPa) = 9.38512 21.80382 15.59447
#
# Velocity S-wave (km/s) = 2.05757 3.13619 2.65229
# Velocity P-wave (km/s) = 3.59283 4.51710 4.08122
#
# Compressibility (1/GPa) = 0.06210382
#
# Stress axis : x y z
#
# Youngs Moduli (GPa) = 9.78263 9.78263 38.01939
#
# Poissons Ratio (x) = 0.74891 0.14764
# Poissons Ratio (y) = 0.74891 0.14764
# Poissons Ratio (z) = 0.03799 0.03799
#
# Static dielectric constant tensor:
#      x y z
#    x 1.822010 0.000000 0.000000 
#    y 0.000000 1.822010 0.000000 
#    z 0.000000 0.000000 1.801850 
# 
# From -- ./inp_files/280.got.cif
#   From: 2010.05.17/outbox.cif.g08.bks.cpg/sg86_1_cif.got.tgz:280.got - 2010.06.03 19:03:11.
