data_PCOD9545373
_publ_section_title
;
Structure prediction by ZEFSAII (Michael W. Deem and Ramdas Pophale) SiO2 
 PCOD9545373
Probable space group: P 42/N
;
_chemical_formula_sum "Si O2"
_cell_formula_units_Z 48
_cell_length_a 8.394146
_cell_length_b 8.394146
_cell_length_c 27.321576
_cell_angle_alpha 90.000000
_cell_angle_beta 90.000000
_cell_angle_gamma 90.000000
_cell_volume 1925.124338
_symmetry_space_group_name_H-M "P 42/N"
_symmetry_group_IT_number 86
_space_group.IT_coordinate_system_code '2'
_symmetry_cell_setting 'tetragonal'
loop_
_space_group_symop_operation_xyz
x,y,z
-y,1/2+x,1/2+z
1/2-x,1/2-y,z
1/2+y,-x,1/2+z
-x,-y,-z
y,1/2-x,1/2-z
1/2+x,1/2+y,-z
1/2-y,x,1/2-z
loop_
_atom_site_type_symbol
_atom_site_label
_atom_site_fract_x
_atom_site_fract_y
_atom_site_fract_z
Si Si1 0.134912 0.518617 0.051507
Si Si2 0.086853 0.708906 0.148944
Si Si3 0.750000 0.750000 0.891882
Si Si4 0.750000 0.250000 0.614987
Si Si5 0.062624 0.428427 0.763747
Si Si6 0.516926 0.557567 0.831892
Si Si7 0.216151 0.435228 0.955148
O O1 0.147185 0.631139 0.099011
O O2 0.125997 0.340111 0.073305
O O3 0.969626 0.587764 0.033344
O O4 0.269154 0.502718 0.009140
O O5 0.250000 0.750000 0.177539
O O6 0.986881 0.582218 0.180139
O O7 0.990100 0.876048 0.147658
O O8 0.673817 0.618257 0.858063
O O9 0.688203 0.110598 0.650939
O O10 0.586578 0.268429 0.581693
O O11 0.248595 0.462608 0.757169
O O12 0.961377 0.532062 0.726221
O O13 0.250000 0.250000 0.940661
#
# Coordination Sequence:
#
# PCOD9545373 Si02
#       7
#     8   8   4   4   8   8   8
#     4  11  24  45  67  98 146 184 238 301 358 441
#     4  11  23  43  70  98 137 190 231 287 370 431
#     4  12  22  46  67 100 146 182 226 301 370 424
#     4  12  26  42  74 110 136 188 250 302 356 442
#     4   9  22  44  72 103 137 180 233 294 353 425
#     4  11  25  45  70 103 143 184 235 298 361 439
#     4  11  25  45  70 105 142 192 244 303 366 430
#
# _framework density 24.933451999999999
#
# number of rings (size 3 to 8) (size 9 to 14) (size 15 to 20)
#    0.000    1.167    4.167    1.000    4.667    0.000 
#    3.000    4.167    0.000    0.000    0.000    0.000 
#    0.000    0.000    0.000    0.000    0.000    0.000 
#
# Total GULP energy -267206.645322 kJ/mol
# GULP energy per Si atom -5566.805111 kJ/mol
# Density = 2.487670 g / cm^3
# Si number density = 24.933452 Si / 1000 Ang^3
#
#
#
# Elastic Constant Matrix: (Units=GPa)
#
#
# Indices 1 2 3 4 5 6 
#
# 1 73.7718 10.6459 12.2287 0.0000 0.0000 3.7166
# 2 10.6459 73.7718 12.2287 0.0000 0.0000 -3.7166
# 3 12.2287 12.2287 44.2187 0.0000 0.0000 0.0000
# 4 0.0000 0.0000 0.0000 17.5870 0.0000 0.0000
# 5 0.0000 0.0000 0.0000 0.0000 17.5870 0.0000
# 6 3.7166 -3.7166 0.0000 0.0000 0.0000 30.9458
#
#
#
# Elastic Compliance Matrix: (Units=1/GPa)
#
#
# Indices 1 2 3 4 5 6 
#
# 1 0.014473 -0.001595 -0.003561 0.000000 0.000000 -0.001930
# 2 -0.001595 0.014473 -0.003561 0.000000 0.000000 0.001930
# 3 -0.003561 -0.003561 0.024585 0.000000 0.000000 0.000000
# 4 0.000000 0.000000 0.000000 0.056860 0.000000 0.000000
# 5 0.000000 0.000000 0.000000 0.000000 0.056860 0.000000
# 6 -0.001930 0.001930 0.000000 0.000000 0.000000 0.032778
#
#
# Mechanical properties :
#
#
# Convention : Reuss Voigt Hill
#
# Bulk Modulus (GPa) = 27.70495 29.10767 28.40631
# Shear Modulus (GPa) = 21.78674 23.66789 22.72732
#
# Velocity S-wave (km/s) = 2.95921 3.08432 3.02241
# Velocity P-wave (km/s) = 4.77615 4.93797 4.85773
#
# Compressibility (1/GPa) = 0.03609464
#
# Stress axis : x y z
#
# Youngs Moduli (GPa) = 69.09365 69.09365 40.67581
#
# Poissons Ratio (x) = 0.11024 0.14486
# Poissons Ratio (y) = 0.11024 0.14486
# Poissons Ratio (z) = 0.24606 0.24606
#
# Static dielectric constant tensor:
#      x y z
#    x 1.498150 0.000000 0.000000 
#    y 0.000000 1.498150 0.000000 
#    z 0.000000 0.000000 2.264310 
# 
# From -- ./inp_files/5238.got.cif
#   From: 2010.05.17/outbox.cif.g08.bks.cpg/sg86_3_cif.got.tgz:5238.got - 2010.06.03 19:03:11.
