data_PCOD9545429
_publ_section_title
;
Structure prediction by ZEFSAII (Michael W. Deem and Ramdas Pophale) SiO2 
 PCOD9545429
Probable space group: P 42/N
;
_chemical_formula_sum "Si O2"
_cell_formula_units_Z 38
_cell_length_a 8.199381
_cell_length_b 8.199381
_cell_length_c 23.021098
_cell_angle_alpha 90.000000
_cell_angle_beta 90.000000
_cell_angle_gamma 90.000000
_cell_volume 1547.704937
_symmetry_space_group_name_H-M "P 42/N"
_symmetry_group_IT_number 86
_space_group.IT_coordinate_system_code '2'
_symmetry_cell_setting 'tetragonal'
loop_
_space_group_symop_operation_xyz
x,y,z
-y,1/2+x,1/2+z
1/2-x,1/2-y,z
1/2+y,-x,1/2+z
-x,-y,-z
y,1/2-x,1/2-z
1/2+x,1/2+y,-z
1/2-y,x,1/2-z
loop_
_atom_site_type_symbol
_atom_site_label
_atom_site_fract_x
_atom_site_fract_y
_atom_site_fract_z
Si Si1 0.927716 0.267456 0.368840
Si Si2 0.750000 0.750000 0.750000
Si Si3 0.491495 0.820687 0.838126
Si Si4 0.508308 0.327864 0.758712
Si Si5 0.935268 0.684414 0.509289
Si Si6 0.750000 0.250000 0.062684
O O1 0.750000 0.250000 0.398111
O O2 0.877451 0.392781 0.316944
O O3 0.018445 0.104353 0.347585
O O4 0.048570 0.304995 0.421499
O O5 0.604402 0.714033 0.794732
O O6 0.408564 0.746451 0.894959
O O7 0.350370 0.880735 0.796765
O O8 0.441345 0.146579 0.753303
O O9 0.750000 0.750000 0.493105
O O10 0.000000 0.500000 0.500000
O O11 0.082229 0.775182 0.474082
#
# Coordination Sequence:
#
# PCOD9545429 Si02
#       6
#     8   2   8   8   8   4
#     4  12  26  50  78 115 161 219 273 345 421 516
#     4  12  28  48  76 120 160 212 264 320 434 504
#     4  12  28  45  82 113 163 211 271 342 423 510
#     4  11  26  46  75 120 164 209 269 342 425 508
#     4  12  31  55  87 118 165 222 288 355 432 511
#     4  12  32  54  82 122 164 214 288 354 426 502
#
# _framework density 24.552485999999998
#
# number of rings (size 3 to 8) (size 9 to 14) (size 15 to 20)
#    0.000    0.211    5.263    1.263   14.737    1.684 
#    0.000    0.000    0.000    0.000    0.000    0.000 
#    0.000    0.000    0.000    0.000    0.000    0.000 
#
# Total GULP energy -211879.291628 kJ/mol
# GULP energy per Si atom -5575.770832 kJ/mol
# Density = 2.449660 g / cm^3
# Si number density = 24.552486 Si / 1000 Ang^3
#
#
#
# Elastic Constant Matrix: (Units=GPa)
#
#
# Indices 1 2 3 4 5 6 
#
# 1 155.7157 77.8367 61.6424 0.0000 0.0000 -9.7624
# 2 77.8367 155.7157 61.6424 0.0000 0.0000 9.7624
# 3 61.6424 61.6424 155.1042 0.0000 0.0000 0.0000
# 4 0.0000 0.0000 0.0000 13.4574 0.0000 0.0000
# 5 0.0000 0.0000 0.0000 0.0000 13.4574 0.0000
# 6 -9.7624 9.7624 0.0000 0.0000 0.0000 60.7422
#
#
#
# Elastic Compliance Matrix: (Units=1/GPa)
#
#
# Indices 1 2 3 4 5 6 
#
# 1 0.009399 -0.003981 -0.002153 0.000000 0.000000 0.002150
# 2 -0.003981 0.009399 -0.002153 0.000000 0.000000 -0.002150
# 3 -0.002153 -0.002153 0.008159 0.000000 0.000000 0.000000
# 4 0.000000 0.000000 0.000000 0.074309 0.000000 0.000000
# 5 0.000000 0.000000 0.000000 0.000000 0.074309 0.000000
# 6 0.002150 -0.002150 0.000000 0.000000 0.000000 0.017154
#
#
# Mechanical properties :
#
#
# Convention : Reuss Voigt Hill
#
# Bulk Modulus (GPa) = 96.31975 96.53094 96.42534
# Shear Modulus (GPa) = 23.50021 35.22565 29.36293
#
# Velocity S-wave (km/s) = 3.09713 3.79186 3.46197
# Velocity P-wave (km/s) = 7.21837 7.65327 7.43900
#
# Compressibility (1/GPa) = 0.01038209
#
# Stress axis : x y z
#
# Youngs Moduli (GPa) = 106.39458 106.39458 122.56512
#
# Poissons Ratio (x) = 0.42351 0.26393
# Poissons Ratio (y) = 0.42351 0.26393
# Poissons Ratio (z) = 0.22911 0.22911
#
# Static dielectric constant tensor:
#      x y z
#    x 2.190450 0.000000 0.000000 
#    y 0.000000 2.190450 0.000000 
#    z 0.000000 0.000000 1.951730 
# 
# From -- ./inp_files/4548.got.cif
#   From: 2010.05.17/outbox.cif.g08.bks.cpg/sg86_3_cif.got.tgz:4548.got - 2010.06.03 19:03:11.
