data_PCOD9545576
_publ_section_title
;
Structure prediction by ZEFSAII (Michael W. Deem and Ramdas Pophale) SiO2 
 PCOD9545576
Probable space group: I 4/M
;
_chemical_formula_sum "Si O2"
_cell_formula_units_Z 120
_cell_length_a 18.003582
_cell_length_b 18.003582
_cell_length_c 20.195348
_cell_angle_alpha 90.000000
_cell_angle_beta 90.000000
_cell_angle_gamma 90.000000
_cell_volume 6545.897242
_symmetry_space_group_name_H-M "I 4/M"
_symmetry_group_IT_number 87
_symmetry_cell_setting 'tetragonal'
loop_
_space_group_symop_operation_xyz
x,y,z
-y,x,z
-x,-y,z
y,-x,z
-x,-y,-z
y,-x,-z
x,y,-z
-y,x,-z
1/2+x,1/2+y,1/2+z
1/2-y,1/2+x,1/2+z
1/2-x,1/2-y,1/2+z
1/2+y,1/2-x,1/2+z
1/2-x,1/2-y,1/2-z
1/2+y,1/2-x,1/2-z
1/2+x,1/2+y,1/2-z
1/2-y,1/2+x,1/2-z
loop_
_atom_site_type_symbol
_atom_site_label
_atom_site_fract_x
_atom_site_fract_y
_atom_site_fract_z
Si Si1 0.744405 0.344058 0.814758
Si Si2 0.033771 0.119793 0.500000
Si Si3 0.224917 0.861897 0.078105
Si Si4 0.796288 0.002751 0.629354
Si Si5 0.882463 0.964549 0.752445
Si Si6 0.651883 0.246674 0.920965
Si Si7 0.117107 0.976482 0.920430
Si Si8 0.279897 0.351816 0.693370
O O1 0.742843 0.431610 0.829315
O O2 0.700647 0.302334 0.875079
O O3 0.698794 0.322052 0.748692
O O4 0.824892 0.305345 0.805460
O O5 0.041030 0.167956 0.565466
O O6 0.950015 0.087899 0.500000
O O7 0.308152 0.833220 0.088650
O O8 0.197510 0.944334 0.097095
O O9 0.173346 0.808987 0.122022
O O10 0.209358 0.852228 0.000000
O O11 0.861223 0.967675 0.674950
O O12 0.749121 0.932456 0.604424
O O13 0.808606 0.933374 0.787594
O O14 0.952264 0.910671 0.766364
O O15 0.654919 0.264437 0.000000
O O16 0.054991 0.915970 0.899362
O O17 0.115893 0.981125 0.000000
#
# Coordination Sequence:
#
# PCOD9545576 Si02
#       8
#    16   8  16  16  16  16  16  16
#     4  10  21  35  52  71 108 156 200 234 271 335
#     4  11  22  30  46  78 124 168 188 213 274 347
#     4   9  19  33  50  72 102 141 185 235 286 335
#     4  12  20  33  51  80 114 157 199 231 273 340
#     4  11  21  34  53  81 116 148 187 235 288 349
#     4  10  19  32  50  75 109 148 188 230 273 331
#     4   8  14  27  47  70  99 133 168 213 274 345
#     4  10  20  36  51  70 106 153 196 236 284 332
#
# _framework density 18.332094000000001
#
# number of rings (size 3 to 8) (size 9 to 14) (size 15 to 20)
#    0.000    1.933    3.333    2.000    0.933    2.133 
#    0.000    1.333    0.000    0.000    0.000    0.000 
#    0.000   28.267    0.000   63.200    0.000    0.000 
#
# Total GULP energy -334360.906291 kJ/mol
# GULP energy per Si atom -5572.681772 kJ/mol
# Density = 1.829037 g / cm^3
# Si number density = 18.332094 Si / 1000 Ang^3
#
#
#
# Elastic Constant Matrix: (Units=GPa)
#
#
# Indices 1 2 3 4 5 6 
#
# 1 79.1378 54.0394 26.4717 0.0000 0.0000 -1.9704
# 2 54.0394 79.1378 26.4717 0.0000 0.0000 1.9704
# 3 26.4717 26.4717 76.3496 0.0000 0.0000 0.0000
# 4 0.0000 0.0000 0.0000 21.9899 0.0000 0.0000
# 5 0.0000 0.0000 0.0000 0.0000 21.9899 0.0000
# 6 -1.9704 1.9704 0.0000 0.0000 0.0000 41.7615
#
#
#
# Elastic Compliance Matrix: (Units=1/GPa)
#
#
# Indices 1 2 3 4 5 6 
#
# 1 0.024425 -0.015716 -0.003020 0.000000 0.000000 0.001894
# 2 -0.015716 0.024425 -0.003020 0.000000 0.000000 -0.001894
# 3 -0.003020 -0.003020 0.015192 0.000000 0.000000 0.000000
# 4 0.000000 0.000000 0.000000 0.045475 0.000000 0.000000
# 5 0.000000 0.000000 0.000000 0.000000 0.045475 0.000000
# 6 0.001894 -0.001894 0.000000 0.000000 0.000000 0.024124
#
#
# Mechanical properties :
#
#
# Convention : Reuss Voigt Hill
#
# Bulk Modulus (GPa) = 48.70575 49.84345 49.27460
# Shear Modulus (GPa) = 21.78932 25.65774 23.72353
#
# Velocity S-wave (km/s) = 3.45133 3.74519 3.60126
# Velocity P-wave (km/s) = 6.51985 6.77865 6.65051
#
# Compressibility (1/GPa) = 0.02053146
#
# Stress axis : x y z
#
# Youngs Moduli (GPa) = 40.94185 40.94185 65.82600
#
# Poissons Ratio (x) = 0.64343 0.19877
# Poissons Ratio (y) = 0.64343 0.19877
# Poissons Ratio (z) = 0.12363 0.12363
#
# Static dielectric constant tensor:
#      x y z
#    x 1.652540 0.000000 0.000000 
#    y 0.000000 1.652540 0.000000 
#    z 0.000000 0.000000 1.708060 
# 
# From -- ./inp_files/5513.got.cif
#   From: 2010.05.17/outbox.cif.g08.bks.cpg/sg87_3_cif.got.tgz:5513.got - 2010.06.03 19:07:00.
