data_PCOD9545802
_publ_section_title
;
Structure prediction by ZEFSAII (Michael W. Deem and Ramdas Pophale) SiO2 
 PCOD9545802
Probable space group: I 4/M
;
_chemical_formula_sum "Si O2"
_cell_formula_units_Z 96
_cell_length_a 22.273773
_cell_length_b 22.273773
_cell_length_c 10.408054
_cell_angle_alpha 90.000000
_cell_angle_beta 90.000000
_cell_angle_gamma 90.000000
_cell_volume 5163.653780
_symmetry_space_group_name_H-M "I 4/M"
_symmetry_group_IT_number 87
_symmetry_cell_setting 'tetragonal'
loop_
_space_group_symop_operation_xyz
x,y,z
-y,x,z
-x,-y,z
y,-x,z
-x,-y,-z
y,-x,-z
x,y,-z
-y,x,-z
1/2+x,1/2+y,1/2+z
1/2-y,1/2+x,1/2+z
1/2-x,1/2-y,1/2+z
1/2+y,1/2-x,1/2+z
1/2-x,1/2-y,1/2-z
1/2+y,1/2-x,1/2-z
1/2+x,1/2+y,1/2-z
1/2-y,1/2+x,1/2-z
loop_
_atom_site_type_symbol
_atom_site_label
_atom_site_fract_x
_atom_site_fract_y
_atom_site_fract_z
Si Si1 0.078623 0.647085 0.000000
Si Si2 0.057611 0.311268 0.500000
Si Si3 0.946951 0.751499 0.230905
Si Si4 0.582712 0.557348 0.138021
Si Si5 0.137593 0.862703 0.151632
Si Si6 0.679701 0.915155 0.500000
Si Si7 0.557230 0.843187 0.500000
Si Si8 0.588121 0.241675 0.730166
O O1 0.087848 0.688826 0.125088
O O2 0.008867 0.626922 0.000000
O O3 0.127728 0.595282 0.000000
O O4 0.069391 0.273033 0.371586
O O5 0.987037 0.325824 0.500000
O O6 0.902755 0.805420 0.192425
O O7 0.939698 0.699448 0.124941
O O8 0.018690 0.766262 0.231105
O O9 0.514250 0.580082 0.138853
O O10 0.612648 0.583364 0.262792
O O11 0.610468 0.576308 0.000000
O O12 0.135435 0.792339 0.187524
O O13 0.128360 0.869002 0.000000
O O14 0.613916 0.886527 0.500000
O O15 0.715674 0.898402 0.370868
#
# Coordination Sequence:
#
# PCOD9545802 Si02
#       8
#     8   8  16  16  16   8   8  16
#     4  10  20  40  65  89 122 154 188 244 305 354
#     4  10  22  40  63  91 120 154 196 240 299 368
#     4  10  22  39  59  87 122 158 198 250 299 344
#     4   9  20  36  54  81 115 148 191 255 312 349
#     4  12  23  37  58  84 113 162 214 242 287 354
#     4  10  22  40  63  91 120 154 196 240 299 368
#     4  10  20  40  65  89 122 154 188 244 305 354
#     4  10  22  39  59  87 122 158 198 250 299 344
#
# _framework density 18.591486
#
# number of rings (size 3 to 8) (size 9 to 14) (size 15 to 20)
#    0.000    1.833    1.667    2.500    2.333    2.333 
#    0.000    5.833    0.000    6.000    0.000    0.000 
#    0.000    0.000    0.000    0.000    0.000    0.000 
#
# Total GULP energy -267877.542624 kJ/mol
# GULP energy per Si atom -5580.782138 kJ/mol
# Density = 1.854917 g / cm^3
# Si number density = 18.591486 Si / 1000 Ang^3
#
#
#
# Elastic Constant Matrix: (Units=GPa)
#
#
# Indices 1 2 3 4 5 6 
#
# 1 95.9743 -17.8708 45.8402 0.0000 0.0000 -1.9320
# 2 -17.8708 95.9743 45.8402 0.0000 0.0000 1.9320
# 3 45.8402 45.8402 187.9778 0.0000 0.0000 0.0000
# 4 0.0000 0.0000 0.0000 16.5172 0.0000 0.0000
# 5 0.0000 0.0000 0.0000 0.0000 16.5172 0.0000
# 6 -1.9320 1.9320 0.0000 0.0000 0.0000 43.3647
#
#
#
# Elastic Compliance Matrix: (Units=1/GPa)
#
#
# Indices 1 2 3 4 5 6 
#
# 1 0.013368 0.004571 -0.004374 0.000000 0.000000 0.000392
# 2 0.004571 0.013368 -0.004374 0.000000 0.000000 -0.000392
# 3 -0.004374 -0.004374 0.007453 0.000000 0.000000 0.000000
# 4 0.000000 0.000000 0.000000 0.060543 0.000000 0.000000
# 5 0.000000 0.000000 0.000000 0.000000 0.060543 0.000000
# 6 0.000392 -0.000392 0.000000 0.000000 0.000000 0.023095
#
#
# Mechanical properties :
#
#
# Convention : Reuss Voigt Hill
#
# Bulk Modulus (GPa) = 38.71130 58.61619 48.66375
# Shear Modulus (GPa) = 25.59676 35.68761 30.64218
#
# Velocity S-wave (km/s) = 3.71455 4.38604 4.06419
# Velocity P-wave (km/s) = 6.26613 7.56616 6.94663
#
# Compressibility (1/GPa) = 0.02583225
#
# Stress axis : x y z
#
# Youngs Moduli (GPa) = 74.80674 74.80674 134.16903
#
# Poissons Ratio (x) = -0.34191 0.58692
# Poissons Ratio (y) = -0.34191 0.58692
# Poissons Ratio (z) = 0.32724 0.32724
#
# Static dielectric constant tensor:
#      x y z
#    x 1.643810 0.000000 0.000000 
#    y 0.000000 1.643810 0.000000 
#    z 0.000000 0.000000 1.634540 
# 
# From -- ./inp_files/2816.got.cif
#   From: 2010.05.17/outbox.cif.g08.bks.cpg/sg87_2_cif.got.tgz:2816.got - 2010.06.03 19:07:00.
