data_PCOD9545834
_publ_section_title
;
Structure prediction by ZEFSAII (Michael W. Deem and Ramdas Pophale) SiO2 
 PCOD9545834
Probable space group: I 4/M
;
_chemical_formula_sum "Si O2"
_cell_formula_units_Z 80
_cell_length_a 11.624780
_cell_length_b 11.624780
_cell_length_c 30.653050
_cell_angle_alpha 90.000000
_cell_angle_beta 90.000000
_cell_angle_gamma 90.000000
_cell_volume 4142.315546
_symmetry_space_group_name_H-M "I 4/M"
_symmetry_group_IT_number 87
_symmetry_cell_setting 'tetragonal'
loop_
_space_group_symop_operation_xyz
x,y,z
-y,x,z
-x,-y,z
y,-x,z
-x,-y,-z
y,-x,-z
x,y,-z
-y,x,-z
1/2+x,1/2+y,1/2+z
1/2-y,1/2+x,1/2+z
1/2-x,1/2-y,1/2+z
1/2+y,1/2-x,1/2+z
1/2-x,1/2-y,1/2-z
1/2+y,1/2-x,1/2-z
1/2+x,1/2+y,1/2-z
1/2-y,1/2+x,1/2-z
loop_
_atom_site_type_symbol
_atom_site_label
_atom_site_fract_x
_atom_site_fract_y
_atom_site_fract_z
Si Si1 0.131053 0.515924 0.620066
Si Si2 0.591864 0.198027 0.050655
Si Si3 0.905681 0.170081 0.241864
Si Si4 0.760116 0.355410 0.096697
Si Si5 0.775277 0.719055 0.177657
O O1 0.120878 0.577670 0.573135
O O2 0.178573 0.390739 0.608663
O O3 0.194583 0.605099 0.652230
O O4 0.000000 0.500000 0.637038
O O5 0.700302 0.278991 0.059939
O O6 0.484529 0.243237 0.079268
O O7 0.563322 0.191119 0.000000
O O8 0.846789 0.223995 0.198745
O O9 0.864992 0.248838 0.282058
O O10 0.042255 0.151400 0.243317
O O11 0.699081 0.325257 0.142292
#
# Coordination Sequence:
#
# PCOD9545834 Si02
#       5
#    16  16  16  16  16
#     4   9  20  36  57  83 112 152 199 237 286 345
#     4  10  21  36  57  87 117 153 191 240 297 346
#     4  10  22  37  57  84 117 151 190 244 297 352
#     4  10  21  36  58  81 115 151 192 238 281 357
#     4  10  21  38  59  83 114 154 197 238 297 345
#
# _framework density 19.312871000000001
#
# number of rings (size 3 to 8) (size 9 to 14) (size 15 to 20)
#    0.000    2.200    0.000    1.800    8.400    4.800 
#    0.000    1.000    0.000    5.400    0.000    5.600 
#    0.000    0.000    0.000    0.000    0.000    0.000 
#
# Total GULP energy -222916.289057 kJ/mol
# GULP energy per Si atom -5572.907226 kJ/mol
# Density = 1.926891 g / cm^3
# Si number density = 19.312871 Si / 1000 Ang^3
#
#
#
# Elastic Constant Matrix: (Units=GPa)
#
#
# Indices 1 2 3 4 5 6 
#
# 1 57.3510 19.9582 41.0789 0.0000 0.0000 4.3304
# 2 19.9582 57.3510 41.0789 0.0000 0.0000 -4.3304
# 3 41.0789 41.0789 131.1214 0.0000 0.0000 0.0000
# 4 0.0000 0.0000 0.0000 16.0143 0.0000 0.0000
# 5 0.0000 0.0000 0.0000 0.0000 16.0143 0.0000
# 6 4.3304 -4.3304 0.0000 0.0000 0.0000 26.9091
#
#
#
# Elastic Compliance Matrix: (Units=1/GPa)
#
#
# Indices 1 2 3 4 5 6 
#
# 1 0.023585 -0.004194 -0.006075 0.000000 0.000000 -0.004470
# 2 -0.004194 0.023585 -0.006075 0.000000 0.000000 0.004470
# 3 -0.006075 -0.006075 0.011433 0.000000 0.000000 0.000000
# 4 0.000000 0.000000 0.000000 0.062444 0.000000 0.000000
# 5 0.000000 0.000000 0.000000 0.000000 0.062444 0.000000
# 6 -0.004470 0.004470 0.000000 0.000000 0.000000 0.038601
#
#
# Mechanical properties :
#
#
# Convention : Reuss Voigt Hill
#
# Bulk Modulus (GPa) = 38.58750 50.00612 44.29681
# Shear Modulus (GPa) = 18.98127 21.36804 20.17465
#
# Velocity S-wave (km/s) = 3.13841 3.32989 3.23557
# Velocity P-wave (km/s) = 5.75816 6.38225 6.07822
#
# Compressibility (1/GPa) = 0.02591513
#
# Stress axis : x y z
#
# Youngs Moduli (GPa) = 42.40019 42.40018 87.46620
#
# Poissons Ratio (x) = 0.17781 0.53136
# Poissons Ratio (y) = 0.17781 0.53136
# Poissons Ratio (z) = 0.25758 0.25758
#
# Static dielectric constant tensor:
#      x y z
#    x 1.713680 0.000000 0.000000 
#    y 0.000000 1.713680 0.000000 
#    z 0.000000 0.000000 1.665690 
# 
# From -- ./inp_files/6477.got.cif
#   From: 2010.05.17/outbox.cif.g08.bks.cpg/sg87_4_cif.got.tgz:6477.got - 2010.06.03 19:07:00.
