data_PCOD9545123
_publ_section_title
;
Structure prediction by ZEFSAII (Michael W. Deem and Ramdas Pophale) SiO2 
 PCOD9545123
Probable space group: P 42/N
;
_chemical_formula_sum "Si O2"
_cell_formula_units_Z 44
_cell_length_a 8.820555
_cell_length_b 8.820555
_cell_length_c 28.804118
_cell_angle_alpha 90.000000
_cell_angle_beta 90.000000
_cell_angle_gamma 90.000000
_cell_volume 2241.023476
_symmetry_space_group_name_H-M "P 42/N"
_symmetry_group_IT_number 86
_space_group.IT_coordinate_system_code '2'
_symmetry_cell_setting 'tetragonal'
loop_
_space_group_symop_operation_xyz
x,y,z
-y,1/2+x,1/2+z
1/2-x,1/2-y,z
1/2+y,-x,1/2+z
-x,-y,-z
y,1/2-x,1/2-z
1/2+x,1/2+y,-z
1/2-y,x,1/2-z
loop_
_atom_site_type_symbol
_atom_site_label
_atom_site_fract_x
_atom_site_fract_y
_atom_site_fract_z
Si Si1 0.176966 0.907398 0.861083
Si Si2 0.750000 0.250000 0.820563
Si Si3 0.234928 0.001466 0.756641
Si Si4 0.680235 0.587693 0.049588
Si Si5 0.816454 0.085275 0.958878
Si Si6 0.313881 0.418351 0.131325
O O1 0.250000 0.750000 0.876810
O O2 0.994662 0.902671 0.862155
O O3 0.230263 0.936731 0.808589
O O4 0.222772 0.033967 0.898676
O O5 0.612275 0.227171 0.785613
O O6 0.729793 0.415611 0.845823
O O7 0.095212 0.113469 0.750897
O O8 0.750000 0.750000 0.039528
O O9 0.498231 0.597776 0.045641
O O10 0.727941 0.467057 0.010429
O O11 0.750000 0.250000 0.947653
O O12 0.771707 0.954740 0.922183
O O13 0.250000 0.250000 0.145339
#
# Coordination Sequence:
#
# PCOD9545123 Si02
#       6
#     8   4   8   8   8   8
#     4  11  24  43  62  95 129 170 220 278 331 412
#     4  12  24  44  66 100 128 176 230 284 338 426
#     4  11  25  42  66  91 128 170 217 275 339 397
#     4  10  23  38  63  95 130 172 221 268 335 400
#     4  10  21  41  64  94 134 172 218 276 332 408
#     4  11  25  43  68  98 134 175 222 282 346 405
#
# _framework density 19.633884999999999
#
# number of rings (size 3 to 8) (size 9 to 14) (size 15 to 20)
#    0.000    1.273    3.636    1.091    5.091    2.182 
#    0.000    0.000    0.000    0.000    0.000    0.000 
#    0.000    0.000    0.000    0.000    0.000    0.000 
#
# Total GULP energy -245296.675695 kJ/mol
# GULP energy per Si atom -5574.924448 kJ/mol
# Density = 1.958920 g / cm^3
# Si number density = 19.633885 Si / 1000 Ang^3
#
#
#
# Elastic Constant Matrix: (Units=GPa)
#
#
# Indices 1 2 3 4 5 6 
#
# 1 92.2689 38.3555 26.0515 0.0000 0.0000 -3.2149
# 2 38.3555 92.2689 26.0515 0.0000 0.0000 3.2149
# 3 26.0515 26.0515 93.1074 0.0000 0.0000 0.0000
# 4 0.0000 0.0000 0.0000 26.1027 0.0000 0.0000
# 5 0.0000 0.0000 0.0000 0.0000 26.1027 0.0000
# 6 -3.2149 3.2149 0.0000 0.0000 0.0000 41.6848
#
#
#
# Elastic Compliance Matrix: (Units=1/GPa)
#
#
# Indices 1 2 3 4 5 6 
#
# 1 0.013669 -0.005052 -0.002411 0.000000 0.000000 0.001444
# 2 -0.005052 0.013669 -0.002411 0.000000 0.000000 -0.001444
# 3 -0.002411 -0.002411 0.012090 0.000000 0.000000 0.000000
# 4 0.000000 0.000000 0.000000 0.038310 0.000000 0.000000
# 5 0.000000 0.000000 0.000000 0.000000 0.038310 0.000000
# 6 0.001444 -0.001444 0.000000 0.000000 0.000000 0.024212
#
#
# Mechanical properties :
#
#
# Convention : Reuss Voigt Hill
#
# Bulk Modulus (GPa) = 50.81397 50.95135 50.88266
# Shear Modulus (GPa) = 30.01786 31.25716 30.63751
#
# Velocity S-wave (km/s) = 3.91433 3.99432 3.95453
# Velocity P-wave (km/s) = 6.80928 6.87603 6.84274
#
# Compressibility (1/GPa) = 0.01967963
#
# Stress axis : x y z
#
# Youngs Moduli (GPa) = 73.15904 73.15904 82.71612
#
# Poissons Ratio (x) = 0.36957 0.19944
# Poissons Ratio (y) = 0.36957 0.19944
# Poissons Ratio (z) = 0.17639 0.17639
#
# Static dielectric constant tensor:
#      x y z
#    x 1.692460 0.000000 0.000000 
#    y 0.000000 1.692460 0.000000 
#    z 0.000000 0.000000 1.697410 
# 
# From -- ./inp_files/5046.got.cif
#   From: 2010.05.17/outbox.cif.g08.bks.cpg/sg86_3_cif.got.tgz:5046.got - 2010.06.03 19:03:11.
