data_PCOD9545252
_publ_section_title
;
Structure prediction by ZEFSAII (Michael W. Deem and Ramdas Pophale) SiO2 
 PCOD9545252
Probable space group: P 42/N
;
_chemical_formula_sum "Si O2"
_cell_formula_units_Z 34
_cell_length_a 9.380348
_cell_length_b 9.380348
_cell_length_c 18.513431
_cell_angle_alpha 90.000000
_cell_angle_beta 90.000000
_cell_angle_gamma 90.000000
_cell_volume 1629.013985
_symmetry_space_group_name_H-M "P 42/N"
_symmetry_group_IT_number 86
_space_group.IT_coordinate_system_code '2'
_symmetry_cell_setting 'tetragonal'
loop_
_space_group_symop_operation_xyz
x,y,z
-y,1/2+x,1/2+z
1/2-x,1/2-y,z
1/2+y,-x,1/2+z
-x,-y,-z
y,1/2-x,1/2-z
1/2+x,1/2+y,-z
1/2-y,x,1/2-z
loop_
_atom_site_type_symbol
_atom_site_label
_atom_site_fract_x
_atom_site_fract_y
_atom_site_fract_z
Si Si1 0.250000 0.250000 0.750000
Si Si2 0.828316 0.602955 0.977834
Si Si3 0.000236 0.031879 0.728562
Si Si4 0.262249 0.582073 0.159809
Si Si5 0.875096 0.137443 0.584105
O O1 0.357470 0.372728 0.719768
O O2 0.750000 0.750000 0.975344
O O3 0.770362 0.502632 0.913619
O O4 0.994636 0.638709 0.963912
O O5 0.801171 0.522516 0.052838
O O6 0.914208 0.047994 0.803331
O O7 0.894618 0.088238 0.666057
O O8 0.037346 0.867525 0.712981
O O9 0.250000 0.750000 0.146543
O O10 0.750000 0.250000 0.575758
#
# Coordination Sequence:
#
# PCOD9545252 Si02
#       5
#     2   8   8   8   8
#     4  12  24  40  60 100 128 176 216 278 336 400
#     4  10  24  42  66  99 128 174 224 268 330 403
#     4  11  25  40  67  95 132 173 224 272 338 396
#     4  11  23  42  64  94 134 171 218 281 334 395
#     4  10  23  44  65  93 135 173 218 272 329 399
#
# _framework density 20.871523
#
# number of rings (size 3 to 8) (size 9 to 14) (size 15 to 20)
#    0.000    1.412    2.353    1.412    8.235    0.941 
#    0.000    0.000    0.000    0.000    0.000    0.000 
#    0.000    0.000    0.000    0.000    0.000    0.000 
#
# Total GULP energy -189817.701265 kJ/mol
# GULP energy per Si atom -5582.873567 kJ/mol
# Density = 2.082402 g / cm^3
# Si number density = 20.871523 Si / 1000 Ang^3
#
#
#
# Elastic Constant Matrix: (Units=GPa)
#
#
# Indices 1 2 3 4 5 6 
#
# 1 92.5779 43.6512 16.2228 0.0000 0.0000 -2.8363
# 2 43.6512 92.5779 16.2228 0.0000 0.0000 2.8363
# 3 16.2228 16.2228 47.3056 0.0000 0.0000 0.0000
# 4 0.0000 0.0000 0.0000 20.2911 0.0000 0.0000
# 5 0.0000 0.0000 0.0000 0.0000 20.2911 0.0000
# 6 -2.8363 2.8363 0.0000 0.0000 0.0000 32.8000
#
#
#
# Elastic Compliance Matrix: (Units=1/GPa)
#
#
# Indices 1 2 3 4 5 6 
#
# 1 0.014320 -0.006326 -0.002741 0.000000 0.000000 0.001785
# 2 -0.006326 0.014320 -0.002741 0.000000 0.000000 -0.001785
# 3 -0.002741 -0.002741 0.023019 0.000000 0.000000 0.000000
# 4 0.000000 0.000000 0.000000 0.049283 0.000000 0.000000
# 5 0.000000 0.000000 0.000000 0.000000 0.049283 0.000000
# 6 0.001785 -0.001785 0.000000 0.000000 0.000000 0.030797
#
#
# Mechanical properties :
#
#
# Convention : Reuss Voigt Hill
#
# Bulk Modulus (GPa) = 35.66177 42.73945 39.20061
# Shear Modulus (GPa) = 23.36614 25.10073 24.23344
#
# Velocity S-wave (km/s) = 3.34956 3.47166 3.41115
# Velocity P-wave (km/s) = 5.66417 6.04911 5.85980
#
# Compressibility (1/GPa) = 0.02804123
#
# Stress axis : x y z
#
# Youngs Moduli (GPa) = 69.83445 69.83445 43.44181
#
# Poissons Ratio (x) = 0.44178 0.11908
# Poissons Ratio (y) = 0.44178 0.11908
# Poissons Ratio (z) = 0.19143 0.19143
#
# Static dielectric constant tensor:
#      x y z
#    x 1.754480 0.000000 0.000000 
#    y 0.000000 1.754480 0.000000 
#    z 0.000000 0.000000 1.736860 
# 
# From -- ./inp_files/3973.got.cif
#   From: 2010.05.17/outbox.cif.g08.bks.cpg/sg86_2_cif.got.tgz:3973.got - 2010.06.03 19:03:11.
