data_PCOD9545962
_publ_section_title
;
Structure prediction by ZEFSAII (Michael W. Deem and Ramdas Pophale) SiO2 
 PCOD9545962
Probable space group: I 4/M
;
_chemical_formula_sum "Si O2"
_cell_formula_units_Z 72
_cell_length_a 11.780059
_cell_length_b 11.780059
_cell_length_c 24.079028
_cell_angle_alpha 90.000000
_cell_angle_beta 90.000000
_cell_angle_gamma 90.000000
_cell_volume 3341.441660
_symmetry_space_group_name_H-M "I 4/M"
_symmetry_group_IT_number 87
_symmetry_cell_setting 'tetragonal'
loop_
_space_group_symop_operation_xyz
x,y,z
-y,x,z
-x,-y,z
y,-x,z
-x,-y,-z
y,-x,-z
x,y,-z
-y,x,-z
1/2+x,1/2+y,1/2+z
1/2-y,1/2+x,1/2+z
1/2-x,1/2-y,1/2+z
1/2+y,1/2-x,1/2+z
1/2-x,1/2-y,1/2-z
1/2+y,1/2-x,1/2-z
1/2+x,1/2+y,1/2-z
1/2-y,1/2+x,1/2-z
loop_
_atom_site_type_symbol
_atom_site_label
_atom_site_fract_x
_atom_site_fract_y
_atom_site_fract_z
Si Si1 0.596827 0.849040 0.411957
Si Si2 0.783266 0.786945 0.663819
Si Si3 0.337279 0.598173 0.500000
Si Si4 0.399584 0.164329 0.935927
Si Si5 0.897048 0.152847 0.226327
O O1 0.661313 0.836328 0.354331
O O2 0.628378 0.737070 0.446666
O O3 0.461040 0.858764 0.415868
O O4 0.649545 0.964217 0.436668
O O5 0.857387 0.755344 0.609587
O O6 0.836375 0.872995 0.707925
O O7 0.752957 0.670940 0.696285
O O8 0.352134 0.462125 0.500000
O O9 0.363701 0.185353 0.000000
O O10 0.028772 0.151117 0.211063
#
# Coordination Sequence:
#
# PCOD9545962 Si02
#       5
#    16  16   8  16  16
#     4  11  21  38  57  86 125 162 196 244 299 355
#     4  11  23  37  64  90 113 158 207 252 298 364
#     4  11  22  35  56  86 122 161 200 236 282 353
#     4  11  22  37  59  88 125 164 200 241 303 364
#     4  10  22  43  62  84 118 154 200 257 315 359
#
# _framework density 21.547585000000002
#
# number of rings (size 3 to 8) (size 9 to 14) (size 15 to 20)
#    0.000    1.222    2.222    4.667    1.556    0.000 
#    0.000    2.222    0.000   10.667    0.000    4.667 
#    0.000    0.000    0.000    0.000    0.000    0.000 
#
# Total GULP energy -201069.757022 kJ/mol
# GULP energy per Si atom -5585.271028 kJ/mol
# Density = 2.149854 g / cm^3
# Si number density = 21.547585 Si / 1000 Ang^3
#
#
#
# Elastic Constant Matrix: (Units=GPa)
#
#
# Indices 1 2 3 4 5 6 
#
# 1 54.7742 4.0980 6.7728 0.0000 0.0000 1.4882
# 2 4.0980 54.7742 6.7728 0.0000 0.0000 -1.4882
# 3 6.7728 6.7728 54.7863 0.0000 0.0000 0.0000
# 4 0.0000 0.0000 0.0000 26.0969 0.0000 0.0000
# 5 0.0000 0.0000 0.0000 0.0000 26.0969 0.0000
# 6 1.4882 -1.4882 0.0000 0.0000 0.0000 22.8748
#
#
#
# Elastic Compliance Matrix: (Units=1/GPa)
#
#
# Indices 1 2 3 4 5 6 
#
# 1 0.018646 -0.001163 -0.002161 0.000000 0.000000 -0.001289
# 2 -0.001163 0.018646 -0.002161 0.000000 0.000000 0.001289
# 3 -0.002161 -0.002161 0.018787 0.000000 0.000000 0.000000
# 4 0.000000 0.000000 0.000000 0.038319 0.000000 0.000000
# 5 0.000000 0.000000 0.000000 0.000000 0.038319 0.000000
# 6 -0.001289 0.001289 0.000000 0.000000 0.000000 0.043884
#
#
# Mechanical properties :
#
#
# Convention : Reuss Voigt Hill
#
# Bulk Modulus (GPa) = 22.16884 22.18019 22.17452
# Shear Modulus (GPa) = 24.67825 24.79311 24.73568
#
# Velocity S-wave (km/s) = 3.38789 3.39576 3.39183
# Velocity P-wave (km/s) = 5.06106 5.06861 5.06484
#
# Compressibility (1/GPa) = 0.04510835
#
# Stress axis : x y z
#
# Youngs Moduli (GPa) = 53.63071 53.63071 53.22799
#
# Poissons Ratio (x) = 0.06236 0.11504
# Poissons Ratio (y) = 0.06236 0.11504
# Poissons Ratio (z) = 0.11591 0.11591
#
# Static dielectric constant tensor:
#      x y z
#    x 1.784000 0.000000 0.000000 
#    y 0.000000 1.784000 0.000000 
#    z 0.000000 0.000000 1.806200 
# 
# From -- ./inp_files/6150.got.cif
#   From: 2010.05.17/outbox.cif.g08.bks.cpg/sg87_4_cif.got.tgz:6150.got - 2010.06.03 19:07:00.
