data_PCOD9545679
_publ_section_title
;
Structure prediction by ZEFSAII (Michael W. Deem and Ramdas Pophale) SiO2 
 PCOD9545679
Probable space group: I 4/M
;
_chemical_formula_sum "Si O2"
_cell_formula_units_Z 96
_cell_length_a 23.672182
_cell_length_b 23.672182
_cell_length_c 9.010388
_cell_angle_alpha 90.000000
_cell_angle_beta 90.000000
_cell_angle_gamma 90.000000
_cell_volume 5049.170952
_symmetry_space_group_name_H-M "I 4/M"
_symmetry_group_IT_number 87
_symmetry_cell_setting 'tetragonal'
loop_
_space_group_symop_operation_xyz
x,y,z
-y,x,z
-x,-y,z
y,-x,z
-x,-y,-z
y,-x,-z
x,y,-z
-y,x,-z
1/2+x,1/2+y,1/2+z
1/2-y,1/2+x,1/2+z
1/2-x,1/2-y,1/2+z
1/2+y,1/2-x,1/2+z
1/2-x,1/2-y,1/2-z
1/2+y,1/2-x,1/2-z
1/2+x,1/2+y,1/2-z
1/2-y,1/2+x,1/2-z
loop_
_atom_site_type_symbol
_atom_site_label
_atom_site_fract_x
_atom_site_fract_y
_atom_site_fract_z
Si Si1 0.512978 0.915656 0.322454
Si Si2 0.681324 0.307262 0.330071
Si Si3 0.319144 0.924428 0.674861
Si Si4 0.591960 0.489540 0.322475
Si Si5 0.681092 0.192864 0.829803
Si Si6 0.924541 0.815096 0.674353
O O1 0.507865 0.920618 0.500000
O O2 0.457062 0.938146 0.240637
O O3 0.530582 0.853753 0.270087
O O4 0.661901 0.305421 0.500000
O O5 0.661871 0.252008 0.240817
O O6 0.750137 0.305314 0.331210
O O7 0.666557 0.366560 0.254931
O O8 0.332055 0.929581 0.500000
O O9 0.334488 0.861636 0.732996
O O10 0.252014 0.931212 0.696066
O O11 0.560397 0.547572 0.284290
O O12 0.599877 0.488773 0.500000
O O13 0.649716 0.476026 0.241029
O O14 0.662186 0.186581 0.000000
O O15 0.918976 0.825488 0.500000
#
# Coordination Sequence:
#
# PCOD9545679 Si02
#       6
#    16  16  16  16  16  16
#     4  11  22  39  62  85 109 141 182 225 269 320
#     4   9  16  27  45  69 101 141 180 216 259 316
#     4  10  20  35  54  80 113 145 179 222 273 325
#     4   9  19  37  59  80 104 138 180 223 268 322
#     4   9  16  27  45  71 102 138 179 219 262 315
#     4  10  20  33  53  81 112 143 177 223 274 322
#
# _framework density 19.013021999999999
#
# number of rings (size 3 to 8) (size 9 to 14) (size 15 to 20)
#    0.000    2.333    0.000    4.500    0.000    6.667 
#    0.000    2.500    0.000    4.000    0.000    0.000 
#    0.000    0.000    0.000    0.000    0.000    0.000 
#
# Total GULP energy -267904.337035 kJ/mol
# GULP energy per Si atom -5581.340355 kJ/mol
# Density = 1.896975 g / cm^3
# Si number density = 19.013022 Si / 1000 Ang^3
#
#
#
# Elastic Constant Matrix: (Units=GPa)
#
#
# Indices 1 2 3 4 5 6 
#
# 1 18.6217 19.1271 27.8477 0.0000 0.0000 -0.2947
# 2 19.1271 18.6217 27.8477 0.0000 0.0000 0.2947
# 3 27.8477 27.8477 107.0975 0.0000 0.0000 0.0000
# 4 0.0000 0.0000 0.0000 25.2660 0.0000 0.0000
# 5 0.0000 0.0000 0.0000 0.0000 25.2660 0.0000
# 6 -0.2947 0.2947 0.0000 0.0000 0.0000 18.5741
#
#
#
# Elastic Compliance Matrix: (Units=1/GPa)
#
#
# Indices 1 2 3 4 5 6 
#
# 1 -0.949810 0.992790 -0.011176 0.000000 0.000000 -0.030822
# 2 0.992790 -0.949810 -0.011176 0.000000 0.000000 0.030822
# 3 -0.011176 -0.011176 0.015149 0.000000 0.000000 0.000000
# 4 0.000000 0.000000 0.000000 0.039579 0.000000 0.000000
# 5 0.000000 0.000000 0.000000 0.000000 0.039579 0.000000
# 6 -0.030822 0.030822 0.000000 0.000000 0.000000 0.052860
#
#
# Mechanical properties :
#
#
# Convention : Reuss Voigt Hill
#
# Bulk Modulus (GPa) = 17.72861 32.66511 25.19686
# Shear Modulus (GPa) = -1.36072 18.45579 8.54754
#
# Velocity S-wave (km/s) = -0.84689 3.11897 2.12259
# Velocity P-wave (km/s) = 2.89627 5.49439 4.39185
#
# Compressibility (1/GPa) = 0.05640601
#
# Stress axis : x y z
#
# Youngs Moduli (GPa) = -1.05284 -1.05284 66.01020
#
# Poissons Ratio (x) = 1.04525 0.73771
# Poissons Ratio (y) = 1.04525 0.73771
# Poissons Ratio (z) = -0.01177 -0.01177
#
# Static dielectric constant tensor:
#      x y z
#    x 1.670470 0.000000 0.000000 
#    y 0.000000 1.670470 0.000000 
#    z 0.000000 0.000000 1.637080 
# 
# From -- ./inp_files/1405.got.cif
#   From: 2010.05.17/outbox.cif.g08.bks.cpg/sg87_1_cif.got.tgz:1405.got - 2010.06.03 19:07:00.
