data_PCOD9545369
_publ_section_title
;
Structure prediction by ZEFSAII (Michael W. Deem and Ramdas Pophale) SiO2 
 PCOD9545369
Probable space group: P 42/N
;
_chemical_formula_sum "Si O2"
_cell_formula_units_Z 42
_cell_length_a 15.320967
_cell_length_b 15.320967
_cell_length_c 7.628234
_cell_angle_alpha 90.000000
_cell_angle_beta 90.000000
_cell_angle_gamma 90.000000
_cell_volume 1790.590851
_symmetry_space_group_name_H-M "P 42/N"
_symmetry_group_IT_number 86
_space_group.IT_coordinate_system_code '2'
_symmetry_cell_setting 'tetragonal'
loop_
_space_group_symop_operation_xyz
x,y,z
-y,1/2+x,1/2+z
1/2-x,1/2-y,z
1/2+y,-x,1/2+z
-x,-y,-z
y,1/2-x,1/2-z
1/2+x,1/2+y,-z
1/2-y,x,1/2-z
loop_
_atom_site_type_symbol
_atom_site_label
_atom_site_fract_x
_atom_site_fract_y
_atom_site_fract_z
Si Si1 0.117818 0.112201 0.413198
Si Si2 0.475292 0.851525 0.220993
Si Si3 0.166614 0.530372 0.833946
Si Si4 0.250000 0.250000 0.250000
Si Si5 0.523050 0.113997 0.380230
Si Si6 0.779262 0.350361 0.888993
O O1 0.195032 0.182486 0.375132
O O2 0.034329 0.158012 0.500720
O O3 0.121320 0.029902 0.550419
O O4 0.108317 0.066211 0.226250
O O5 0.498822 0.749481 0.225803
O O6 0.495367 0.888695 0.413535
O O7 0.370885 0.863141 0.209443
O O8 0.085175 0.542009 0.708121
O O9 0.191931 0.623994 0.914407
O O10 0.579456 0.203278 0.349044
O O11 0.750000 0.250000 0.883349
#
# Coordination Sequence:
#
# PCOD9545369 Si02
#       6
#     8   8   8   2   8   8
#     4  12  28  54  72 109 146 200 258 326 369 448
#     4  11  26  43  76 114 149 198 252 305 377 468
#     4  11  25  45  73 110 152 199 249 308 379 454
#     4  12  28  56  90  92 152 214 272 328 390 444
#     4  11  25  43  72 113 151 195 245 303 389 452
#     4  11  23  42  72 113 157 193 237 299 383 464
#
# _framework density 23.455943999999999
#
# number of rings (size 3 to 8) (size 9 to 14) (size 15 to 20)
#    0.000    0.762    3.810    2.857    8.000    3.810 
#    0.000    0.952    0.000    0.000    0.000    0.000 
#    0.000    0.000    0.000    0.000    0.000    0.000 
#
# Total GULP energy -234388.157454 kJ/mol
# GULP energy per Si atom -5580.670416 kJ/mol
# Density = 2.340256 g / cm^3
# Si number density = 23.455944 Si / 1000 Ang^3
#
#
#
# Elastic Constant Matrix: (Units=GPa)
#
#
# Indices 1 2 3 4 5 6 
#
# 1 86.1700 27.7271 19.7456 0.0000 0.0000 -9.6582
# 2 27.7271 86.1700 19.7456 0.0000 0.0000 9.6582
# 3 19.7456 19.7456 72.8022 0.0000 0.0000 0.0000
# 4 0.0000 0.0000 0.0000 -19.9902 0.0000 0.0000
# 5 0.0000 0.0000 0.0000 0.0000 -19.9902 0.0000
# 6 -9.6582 9.6582 0.0000 0.0000 0.0000 27.9211
#
#
#
# Elastic Compliance Matrix: (Units=1/GPa)
#
#
# Indices 1 2 3 4 5 6 
#
# 1 0.014505 -0.004814 -0.002628 0.000000 0.000000 0.006683
# 2 -0.004814 0.014505 -0.002628 0.000000 0.000000 -0.006683
# 3 -0.002628 -0.002628 0.015162 0.000000 0.000000 0.000000
# 4 0.000000 0.000000 0.000000 -0.050024 0.000000 0.000000
# 5 0.000000 0.000000 0.000000 0.000000 -0.050024 0.000000
# 6 0.006683 -0.006683 0.000000 0.000000 0.000000 0.040439
#
#
# Mechanical properties :
#
#
# Convention : Reuss Voigt Hill
#
# Bulk Modulus (GPa) = 41.61433 42.17542 41.89487
# Shear Modulus (GPa) = 393.25623 9.44972 201.35298
#
# Velocity S-wave (km/s) = 12.96231 2.00934 9.27520
# Velocity P-wave (km/s) = 15.55019 4.83767 11.51546
#
# Compressibility (1/GPa) = 0.02403019
#
# Stress axis : x y z
#
# Youngs Moduli (GPa) = 68.94000 68.94000 65.95587
#
# Poissons Ratio (x) = 0.33189 0.17336
# Poissons Ratio (y) = 0.33189 0.17336
# Poissons Ratio (z) = 0.18121 0.18121
#
# Static dielectric constant tensor:
#      x y z
#    x 1.971670 0.000000 0.000000 
#    y 0.000000 1.971670 0.000000 
#    z 0.000000 0.000000 1.896540 
# 
# From -- ./inp_files/1189.got.cif
#   From: 2010.05.17/outbox.cif.g08.bks.cpg/sg86_1_cif.got.tgz:1189.got - 2010.06.03 19:03:11.
