data_PCOD9545151
_publ_section_title
;
Structure prediction by ZEFSAII (Michael W. Deem and Ramdas Pophale) SiO2 
 PCOD9545151
Probable space group: P 42/N
;
_chemical_formula_sum "Si O2"
_cell_formula_units_Z 32
_cell_length_a 10.814574
_cell_length_b 10.814574
_cell_length_c 13.550038
_cell_angle_alpha 90.000000
_cell_angle_beta 90.000000
_cell_angle_gamma 90.000000
_cell_volume 1584.744841
_symmetry_space_group_name_H-M "P 42/N"
_symmetry_group_IT_number 86
_space_group.IT_coordinate_system_code '2'
_symmetry_cell_setting 'tetragonal'
loop_
_space_group_symop_operation_xyz
x,y,z
-y,1/2+x,1/2+z
1/2-x,1/2-y,z
1/2+y,-x,1/2+z
-x,-y,-z
y,1/2-x,1/2-z
1/2+x,1/2+y,-z
1/2-y,x,1/2-z
loop_
_atom_site_type_symbol
_atom_site_label
_atom_site_fract_x
_atom_site_fract_y
_atom_site_fract_z
Si Si1 0.916543 0.879385 0.483384
Si Si2 0.322500 0.406383 0.305453
Si Si3 0.728710 0.564025 0.294895
Si Si4 0.805920 0.378025 0.157151
O O1 0.860286 0.847417 0.588898
O O2 0.808332 0.914960 0.407177
O O3 0.012453 0.792474 0.424010
O O4 0.000000 0.000000 0.500000
O O5 0.392325 0.321544 0.224331
O O6 0.359710 0.549873 0.314181
O O7 0.627682 0.641723 0.232740
O O8 0.735204 0.425889 0.254752
O O9 0.750000 0.250000 0.121095
#
# Coordination Sequence:
#
# PCOD9545151 Si02
#       4
#     8   8   8   8
#     4   9  20  41  62  90 129 159 211 262 305 371
#     4  10  23  42  63  85 127 170 209 261 320 371
#     4   9  19  36  63  89 122 162 203 258 313 368
#     4  10  22  38  66  94 126 163 209 262 318 376
#
# _framework density 20.192525
#
# number of rings (size 3 to 8) (size 9 to 14) (size 15 to 20)
#    0.000    2.500    0.000    0.000   10.500    8.000 
#    9.000    1.250    0.000    0.000    0.000    0.000 
#    0.000    0.000    0.000    0.000    0.000    0.000 
#
# Total GULP energy -178282.668022 kJ/mol
# GULP energy per Si atom -5571.333376 kJ/mol
# Density = 2.014657 g / cm^3
# Si number density = 20.192525 Si / 1000 Ang^3
#
#
#
# Elastic Constant Matrix: (Units=GPa)
#
#
# Indices 1 2 3 4 5 6 
#
# 1 65.3711 17.0955 41.6443 0.0000 0.0000 7.1055
# 2 17.0955 65.3711 41.6443 0.0000 0.0000 -7.1055
# 3 41.6443 41.6443 139.2938 0.0000 0.0000 0.0000
# 4 0.0000 0.0000 0.0000 20.9519 0.0000 0.0000
# 5 0.0000 0.0000 0.0000 0.0000 20.9519 0.0000
# 6 7.1055 -7.1055 0.0000 0.0000 0.0000 22.9216
#
#
#
# Elastic Compliance Matrix: (Units=1/GPa)
#
#
# Indices 1 2 3 4 5 6 
#
# 1 0.020083 -0.002712 -0.005193 0.000000 0.000000 -0.007066
# 2 -0.002712 0.020083 -0.005193 0.000000 0.000000 0.007066
# 3 -0.005193 -0.005193 0.010284 0.000000 0.000000 0.000000
# 4 0.000000 0.000000 0.000000 0.047728 0.000000 0.000000
# 5 0.000000 0.000000 0.000000 0.000000 0.047728 0.000000
# 6 -0.007066 0.007066 0.000000 0.000000 0.000000 0.048008
#
#
# Mechanical properties :
#
#
# Convention : Reuss Voigt Hill
#
# Bulk Modulus (GPa) = 41.23156 52.31159 46.77158
# Shear Modulus (GPa) = 21.91094 24.27518 23.09306
#
# Velocity S-wave (km/s) = 3.29766 3.47102 3.38545
# Velocity P-wave (km/s) = 5.91295 6.48279 6.20442
#
# Compressibility (1/GPa) = 0.02425326
#
# Stress axis : x y z
#
# Youngs Moduli (GPa) = 49.79358 49.79358 97.23429
#
# Poissons Ratio (x) = 0.13502 0.50498
# Poissons Ratio (y) = 0.13502 0.50498
# Poissons Ratio (z) = 0.25860 0.25860
#
# Static dielectric constant tensor:
#      x y z
#    x 1.780960 0.000000 0.000000 
#    y 0.000000 1.780960 0.000000 
#    z 0.000000 0.000000 1.751080 
# 
# From -- ./inp_files/1888.got.cif
#   From: 2010.05.17/outbox.cif.g08.bks.cpg/sg86_1_cif.got.tgz:1888.got - 2010.06.03 19:03:11.
