data_PCOD9545897
_publ_section_title
;
Structure prediction by ZEFSAII (Michael W. Deem and Ramdas Pophale) SiO2 
 PCOD9545897
Probable space group: I 4/M
;
_chemical_formula_sum "Si O2"
_cell_formula_units_Z 96
_cell_length_a 14.095749
_cell_length_b 14.095749
_cell_length_c 22.471810
_cell_angle_alpha 90.000000
_cell_angle_beta 90.000000
_cell_angle_gamma 90.000000
_cell_volume 4464.927072
_symmetry_space_group_name_H-M "I 4/M"
_symmetry_group_IT_number 87
_symmetry_cell_setting 'tetragonal'
loop_
_space_group_symop_operation_xyz
x,y,z
-y,x,z
-x,-y,z
y,-x,z
-x,-y,-z
y,-x,-z
x,y,-z
-y,x,-z
1/2+x,1/2+y,1/2+z
1/2-y,1/2+x,1/2+z
1/2-x,1/2-y,1/2+z
1/2+y,1/2-x,1/2+z
1/2-x,1/2-y,1/2-z
1/2+y,1/2-x,1/2-z
1/2+x,1/2+y,1/2-z
1/2-y,1/2+x,1/2-z
loop_
_atom_site_type_symbol
_atom_site_label
_atom_site_fract_x
_atom_site_fract_y
_atom_site_fract_z
Si Si1 0.727249 0.140567 0.739685
Si Si2 0.991948 0.309334 0.434272
Si Si3 0.647924 0.436639 0.653101
Si Si4 0.551452 0.648550 0.864172
Si Si5 0.307786 0.918031 0.069779
Si Si6 0.558430 0.089071 0.662617
O O1 0.750000 0.250000 0.750000
O O2 0.773960 0.089966 0.796860
O O3 0.783268 0.091738 0.685951
O O4 0.617891 0.133752 0.717242
O O5 0.011835 0.345896 0.500000
O O6 0.878272 0.326123 0.424957
O O7 0.039605 0.206735 0.425329
O O8 0.041176 0.371126 0.384568
O O9 0.620153 0.548134 0.658361
O O10 0.699930 0.406743 0.591716
O O11 0.443807 0.614793 0.857105
O O12 0.347743 0.994114 0.117951
O O13 0.312095 0.946609 0.000000
O O14 0.500000 0.000000 0.685759
#
# Coordination Sequence:
#
# PCOD9545897 Si02
#       6
#    16  16  16  16  16  16
#     4  11  23  40  68  94 128 171 222 276 333 400
#     4   9  19  37  64  95 128 168 217 272 326 386
#     4  11  25  45  67  94 133 179 225 274 335 403
#     4  10  22  39  62  89 128 169 211 261 327 390
#     4  10  21  41  68  98 136 176 221 275 331 392
#     4   9  19  40  64  98 134 173 218 274 336 398
#
# _framework density 21.500910000000001
#
# number of rings (size 3 to 8) (size 9 to 14) (size 15 to 20)
#    0.000    2.000    0.000    2.500    2.333    4.667 
#    9.000    1.667    0.000    0.000    0.000    0.000 
#    0.000    0.000    0.000    0.000    0.000    0.000 
#
# Total GULP energy -267279.791465 kJ/mol
# GULP energy per Si atom -5568.328989 kJ/mol
# Density = 2.145197 g / cm^3
# Si number density = 21.500910 Si / 1000 Ang^3
#
#
#
# Elastic Constant Matrix: (Units=GPa)
#
#
# Indices 1 2 3 4 5 6 
#
# 1 109.0913 38.3571 61.8604 0.0000 0.0000 9.6441
# 2 38.3571 109.0913 61.8604 0.0000 0.0000 -9.6441
# 3 61.8604 61.8604 131.8945 0.0000 0.0000 0.0000
# 4 0.0000 0.0000 0.0000 40.1013 0.0000 0.0000
# 5 0.0000 0.0000 0.0000 0.0000 40.1013 0.0000
# 6 9.6441 -9.6441 0.0000 0.0000 0.0000 24.2967
#
#
#
# Elastic Compliance Matrix: (Units=1/GPa)
#
#
# Indices 1 2 3 4 5 6 
#
# 1 0.013518 -0.002335 -0.005245 0.000000 0.000000 -0.006293
# 2 -0.002335 0.013518 -0.005245 0.000000 0.000000 0.006293
# 3 -0.005245 -0.005245 0.012502 0.000000 0.000000 0.000000
# 4 0.000000 0.000000 0.000000 0.024937 0.000000 0.000000
# 5 0.000000 0.000000 0.000000 0.000000 0.024937 0.000000
# 6 -0.006293 0.006293 0.000000 0.000000 0.000000 0.046153
#
#
# Mechanical properties :
#
#
# Convention : Reuss Voigt Hill
#
# Bulk Modulus (GPa) = 72.00560 74.91476 73.46018
# Shear Modulus (GPa) = 30.14869 33.43314 31.79091
#
# Velocity S-wave (km/s) = 3.74867 3.94758 3.84941
# Velocity P-wave (km/s) = 7.23180 7.46298 7.34830
#
# Compressibility (1/GPa) = 0.01388781
#
# Stress axis : x y z
#
# Youngs Moduli (GPa) = 73.97451 73.97451 79.98871
#
# Poissons Ratio (x) = 0.17274 0.41954
# Poissons Ratio (y) = 0.17274 0.41954
# Poissons Ratio (z) = 0.38799 0.38799
#
# Static dielectric constant tensor:
#      x y z
#    x 1.863060 0.000000 0.000000 
#    y 0.000000 1.863060 0.000000 
#    z 0.000000 0.000000 1.753980 
# 
# From -- ./inp_files/5287.got.cif
#   From: 2010.05.17/outbox.cif.g08.bks.cpg/sg87_3_cif.got.tgz:5287.got - 2010.06.03 19:07:00.
