data_PCOD9545977
_publ_section_title
;
Structure prediction by ZEFSAII (Michael W. Deem and Ramdas Pophale) SiO2 
 PCOD9545977
Probable space group: I 4/M
;
_chemical_formula_sum "Si O2"
_cell_formula_units_Z 80
_cell_length_a 12.375036
_cell_length_b 12.375036
_cell_length_c 27.755582
_cell_angle_alpha 90.000000
_cell_angle_beta 90.000000
_cell_angle_gamma 90.000000
_cell_volume 4250.531905
_symmetry_space_group_name_H-M "I 4/M"
_symmetry_group_IT_number 87
_symmetry_cell_setting 'tetragonal'
loop_
_space_group_symop_operation_xyz
x,y,z
-y,x,z
-x,-y,z
y,-x,z
-x,-y,-z
y,-x,-z
x,y,-z
-y,x,-z
1/2+x,1/2+y,1/2+z
1/2-y,1/2+x,1/2+z
1/2-x,1/2-y,1/2+z
1/2+y,1/2-x,1/2+z
1/2-x,1/2-y,1/2-z
1/2+y,1/2-x,1/2-z
1/2+x,1/2+y,1/2-z
1/2-y,1/2+x,1/2-z
loop_
_atom_site_type_symbol
_atom_site_label
_atom_site_fract_x
_atom_site_fract_y
_atom_site_fract_z
Si Si1 0.178391 0.958436 0.187498
Si Si2 0.229737 0.621960 0.104001
Si Si3 0.988436 0.623623 0.882250
Si Si4 0.826972 0.053987 0.701303
Si Si5 0.281615 0.103973 0.443456
O O1 0.284251 0.948606 0.154639
O O2 0.210506 0.941368 0.243470
O O3 0.078207 0.874830 0.179990
O O4 0.245930 0.588446 0.159755
O O5 0.253005 0.516121 0.072148
O O6 0.311253 0.712808 0.087082
O O7 0.106097 0.655824 0.098760
O O8 0.904465 0.614935 0.925789
O O9 0.000000 0.500000 0.862216
O O10 0.932028 0.130041 0.694871
O O11 0.268903 0.121061 0.500000
#
# Coordination Sequence:
#
# PCOD9545977 Si02
#       5
#    16  16  16  16  16
#     4   9  18  37  64  88 111 152 202 241 285 334
#     4  11  21  39  61  86 118 150 194 245 292 345
#     4  10  23  40  55  82 124 160 191 233 289 353
#     4   9  17  34  60  87 117 148 183 239 294 339
#     4  11  24  40  61  86 114 153 198 243 299 346
#
# _framework density 18.821175
#
# number of rings (size 3 to 8) (size 9 to 14) (size 15 to 20)
#    0.000    2.000    2.000    3.000    0.000    4.800 
#    7.200    4.000    0.000    0.000    0.000    4.200 
#    0.000    0.000    0.000    0.000    0.000    0.000 
#
# Total GULP energy -223221.919145 kJ/mol
# GULP energy per Si atom -5580.547979 kJ/mol
# Density = 1.877834 g / cm^3
# Si number density = 18.821175 Si / 1000 Ang^3
#
#
#
# Elastic Constant Matrix: (Units=GPa)
#
#
# Indices 1 2 3 4 5 6 
#
# 1 22.5363 52.5116 20.2938 0.0000 0.0000 10.1464
# 2 52.5116 22.5363 20.2938 0.0000 0.0000 -10.1464
# 3 20.2938 20.2938 64.2993 0.0000 0.0000 0.0000
# 4 0.0000 0.0000 0.0000 18.6872 0.0000 0.0000
# 5 0.0000 0.0000 0.0000 0.0000 18.6872 0.0000
# 6 10.1464 -10.1464 0.0000 0.0000 0.0000 14.7660
#
#
#
# Elastic Compliance Matrix: (Units=1/GPa)
#
#
# Indices 1 2 3 4 5 6 
#
# 1 -0.003351 0.019418 -0.005071 0.000000 0.000000 0.015646
# 2 0.019418 -0.003351 -0.005071 0.000000 0.000000 -0.015646
# 3 -0.005071 -0.005071 0.018753 0.000000 0.000000 0.000000
# 4 0.000000 0.000000 0.000000 0.053513 0.000000 0.000000
# 5 0.000000 0.000000 0.000000 0.000000 0.053513 0.000000
# 6 0.015646 -0.015646 0.000000 0.000000 0.000000 0.046222
#
#
# Mechanical properties :
#
#
# Convention : Reuss Voigt Hill
#
# Bulk Modulus (GPa) = 32.67582 32.84114 32.75848
# Shear Modulus (GPa) = 31.85777 11.51293 21.68535
#
# Velocity S-wave (km/s) = 4.11865 2.47594 3.39806
# Velocity P-wave (km/s) = 6.32587 5.06563 5.73050
#
# Compressibility (1/GPa) = 0.03060367
#
# Stress axis : x y z
#
# Youngs Moduli (GPa) = -298.43664 -298.43662 53.32403
#
# Poissons Ratio (x) = 5.79509 0.27041
# Poissons Ratio (y) = 5.79509 0.27041
# Poissons Ratio (z) = -1.51340 -1.51340
#
# Static dielectric constant tensor:
#      x y z
#    x 1.657110 0.000000 0.000000 
#    y 0.000000 1.657110 0.000000 
#    z 0.000000 0.000000 1.626970 
# 
# From -- ./inp_files/6484.got.cif
#   From: 2010.05.17/outbox.cif.g08.bks.cpg/sg87_4_cif.got.tgz:6484.got - 2010.06.03 19:07:00.
