data_PCOD9545800
_publ_section_title
;
Structure prediction by ZEFSAII (Michael W. Deem and Ramdas Pophale) SiO2 
 PCOD9545800
Probable space group: I 4/M
;
_chemical_formula_sum "Si O2"
_cell_formula_units_Z 96
_cell_length_a 13.680782
_cell_length_b 13.680782
_cell_length_c 19.558409
_cell_angle_alpha 90.000000
_cell_angle_beta 90.000000
_cell_angle_gamma 90.000000
_cell_volume 3660.626075
_symmetry_space_group_name_H-M "I 4/M"
_symmetry_group_IT_number 87
_symmetry_cell_setting 'tetragonal'
loop_
_space_group_symop_operation_xyz
x,y,z
-y,x,z
-x,-y,z
y,-x,z
-x,-y,-z
y,-x,-z
x,y,-z
-y,x,-z
1/2+x,1/2+y,1/2+z
1/2-y,1/2+x,1/2+z
1/2-x,1/2-y,1/2+z
1/2+y,1/2-x,1/2+z
1/2-x,1/2-y,1/2-z
1/2+y,1/2-x,1/2-z
1/2+x,1/2+y,1/2-z
1/2-y,1/2+x,1/2-z
loop_
_atom_site_type_symbol
_atom_site_label
_atom_site_fract_x
_atom_site_fract_y
_atom_site_fract_z
Si Si1 0.476811 0.289336 0.574187
Si Si2 0.466184 0.650912 0.716748
Si Si3 0.151757 0.656595 0.212028
Si Si4 0.695989 0.806911 0.646984
Si Si5 0.350869 0.441341 0.081845
Si Si6 0.080293 0.415191 0.574883
O O1 0.479417 0.334686 0.500000
O O2 0.522783 0.351182 0.634791
O O3 0.367558 0.253653 0.593060
O O4 0.538292 0.188378 0.572471
O O5 0.387308 0.571242 0.741590
O O6 0.428328 0.758950 0.729323
O O7 0.171949 0.623349 0.289490
O O8 0.238719 0.720576 0.179151
O O9 0.128954 0.580853 0.151645
O O10 0.752882 0.897118 0.613669
O O11 0.446974 0.376979 0.100378
O O12 0.343470 0.436311 0.000000
O O13 0.068747 0.361184 0.500000
O O14 0.000000 0.500000 0.574192
#
# Coordination Sequence:
#
# PCOD9545800 Si02
#       6
#    16  16  16  16  16  16
#     4  10  21  38  61  91 125 161 208 261 314 379
#     4  10  20  39  63  89 123 164 208 264 324 376
#     4  10  23  40  60  91 129 167 214 260 316 389
#     4  11  22  40  60  89 132 166 206 259 319 388
#     4   9  20  40  65  96 127 160 213 272 324 381
#     4   9  20  42  65  88 120 162 215 266 311 373
#
# _framework density 26.225024000000001
#
# number of rings (size 3 to 8) (size 9 to 14) (size 15 to 20)
#    0.000    2.167    1.667    1.000    0.000    4.667 
#    9.000    5.833    0.000    0.000    0.000    0.000 
#    0.000    0.000    0.000    0.000    0.000    0.000 
#
# Total GULP energy -268505.082184 kJ/mol
# GULP energy per Si atom -5593.855879 kJ/mol
# Density = 2.616533 g / cm^3
# Si number density = 26.225024 Si / 1000 Ang^3
#
#
#
# Elastic Constant Matrix: (Units=GPa)
#
#
# Indices 1 2 3 4 5 6 
#
# 1 84.3485 41.7581 13.2970 0.0000 0.0000 3.9698
# 2 41.7581 84.3485 13.2970 0.0000 0.0000 -3.9698
# 3 13.2970 13.2970 151.4024 0.0000 0.0000 0.0000
# 4 0.0000 0.0000 0.0000 50.2231 0.0000 0.0000
# 5 0.0000 0.0000 0.0000 0.0000 50.2231 0.0000
# 6 3.9698 -3.9698 0.0000 0.0000 0.0000 52.3293
#
#
#
# Elastic Compliance Matrix: (Units=1/GPa)
#
#
# Indices 1 2 3 4 5 6 
#
# 1 0.015948 -0.007868 -0.000710 0.000000 0.000000 -0.001807
# 2 -0.007868 0.015948 -0.000710 0.000000 0.000000 0.001807
# 3 -0.000710 -0.000710 0.006730 0.000000 0.000000 0.000000
# 4 0.000000 0.000000 0.000000 0.019911 0.000000 0.000000
# 5 0.000000 0.000000 0.000000 0.000000 0.019911 0.000000
# 6 -0.001807 0.001807 0.000000 0.000000 0.000000 0.019384
#
#
# Mechanical properties :
#
#
# Convention : Reuss Voigt Hill
#
# Bulk Modulus (GPa) = 49.87507 50.75599 50.31553
# Shear Modulus (GPa) = 40.62070 47.33828 43.97949
#
# Velocity S-wave (km/s) = 3.93991 4.25323 4.09957
# Velocity P-wave (km/s) = 6.30529 6.59667 6.45262
#
# Compressibility (1/GPa) = 0.02005010
#
# Stress axis : x y z
#
# Youngs Moduli (GPa) = 62.70435 62.70435 148.59828
#
# Poissons Ratio (x) = 0.49338 0.10544
# Poissons Ratio (y) = 0.49338 0.10544
# Poissons Ratio (z) = 0.04449 0.04449
#
# Static dielectric constant tensor:
#      x y z
#    x 2.066360 0.000000 0.000000 
#    y 0.000000 2.066360 0.000000 
#    z 0.000000 0.000000 2.091040 
# 
# From -- ./inp_files/5269.got.cif
#   From: 2010.05.17/outbox.cif.g08.bks.cpg/sg87_3_cif.got.tgz:5269.got - 2010.06.03 19:07:00.
