data_PCOD9545073
_publ_section_title
;
Structure prediction by ZEFSAII (Michael W. Deem and Ramdas Pophale) SiO2 
 PCOD9545073
Probable space group: P 42/N
;
_chemical_formula_sum "Si O2"
_cell_formula_units_Z 40
_cell_length_a 10.808097
_cell_length_b 10.808097
_cell_length_c 18.475658
_cell_angle_alpha 90.000000
_cell_angle_beta 90.000000
_cell_angle_gamma 90.000000
_cell_volume 2158.233264
_symmetry_space_group_name_H-M "P 42/N"
_symmetry_group_IT_number 86
_space_group.IT_coordinate_system_code '2'
_symmetry_cell_setting 'tetragonal'
loop_
_space_group_symop_operation_xyz
x,y,z
-y,1/2+x,1/2+z
1/2-x,1/2-y,z
1/2+y,-x,1/2+z
-x,-y,-z
y,1/2-x,1/2-z
1/2+x,1/2+y,-z
1/2-y,x,1/2-z
loop_
_atom_site_type_symbol
_atom_site_label
_atom_site_fract_x
_atom_site_fract_y
_atom_site_fract_z
Si Si1 0.857359 0.343564 0.370908
Si Si2 0.507170 0.707790 0.504531
Si Si3 0.482202 0.855767 0.918118
Si Si4 0.047489 0.134864 0.976893
Si Si5 0.553461 0.819477 0.755143
O O1 0.750000 0.250000 0.345513
O O2 0.914592 0.276642 0.441257
O O3 0.823133 0.479281 0.402748
O O4 0.961318 0.353077 0.309643
O O5 0.428363 0.640618 0.442362
O O6 0.566871 0.599607 0.552719
O O7 0.610477 0.804816 0.476673
O O8 0.491094 0.837101 0.832958
O O9 0.501023 0.728235 0.961435
O O10 0.000000 0.000000 0.000000
O O11 0.677587 0.901880 0.752302
#
# Coordination Sequence:
#
# PCOD9545073 Si02
#       5
#     8   8   8   8   8
#     4  11  21  42  57  87 128 155 196 260 309 368
#     4  10  21  38  63  88 118 161 205 251 304 367
#     4  11  21  39  62  89 121 160 211 254 302 377
#     4  10  21  35  61  88 119 155 202 249 303 363
#     4  11  23  39  62  90 123 157 204 255 317 369
#
# _framework density 18.533678999999999
#
# number of rings (size 3 to 8) (size 9 to 14) (size 15 to 20)
#    0.000    1.400    4.000    3.000    2.800    0.000 
#   10.800    0.000    0.000    0.000    0.000    0.000 
#    0.000    0.000    0.000    0.000    0.000    0.000 
#
# Total GULP energy -223119.865288 kJ/mol
# GULP energy per Si atom -5577.996632 kJ/mol
# Density = 1.849150 g / cm^3
# Si number density = 18.533679 Si / 1000 Ang^3
#
#
#
# Elastic Constant Matrix: (Units=GPa)
#
#
# Indices 1 2 3 4 5 6 
#
# 1 51.5911 16.1001 30.7896 0.0000 0.0000 0.2862
# 2 16.1001 51.5911 30.7896 0.0000 0.0000 -0.2862
# 3 30.7896 30.7896 122.0407 0.0000 0.0000 0.0000
# 4 0.0000 0.0000 0.0000 25.8949 0.0000 0.0000
# 5 0.0000 0.0000 0.0000 0.0000 25.8949 0.0000
# 6 0.2862 -0.2862 0.0000 0.0000 0.0000 21.4125
#
#
#
# Elastic Compliance Matrix: (Units=1/GPa)
#
#
# Indices 1 2 3 4 5 6 
#
# 1 0.023678 -0.004504 -0.004837 0.000000 0.000000 -0.000377
# 2 -0.004504 0.023678 -0.004837 0.000000 0.000000 0.000377
# 3 -0.004837 -0.004837 0.010635 0.000000 0.000000 0.000000
# 4 0.000000 0.000000 0.000000 0.038618 0.000000 0.000000
# 5 0.000000 0.000000 0.000000 0.000000 0.038618 0.000000
# 6 -0.000377 0.000377 0.000000 0.000000 0.000000 0.046712
#
#
# Mechanical properties :
#
#
# Convention : Reuss Voigt Hill
#
# Bulk Modulus (GPa) = 33.74655 42.28684 38.01670
# Shear Modulus (GPa) = 22.70943 24.47671 23.59307
#
# Velocity S-wave (km/s) = 3.50424 3.63803 3.57176
# Velocity P-wave (km/s) = 5.88393 6.36497 6.12917
#
# Compressibility (1/GPa) = 0.02963265
#
# Stress axis : x y z
#
# Youngs Moduli (GPa) = 42.23355 42.23355 94.03110
#
# Poissons Ratio (x) = 0.19024 0.45485
# Poissons Ratio (y) = 0.19024 0.45485
# Poissons Ratio (z) = 0.20430 0.20430
#
# Static dielectric constant tensor:
#      x y z
#    x 1.715810 0.000000 0.000000 
#    y 0.000000 1.715810 0.000000 
#    z 0.000000 0.000000 1.579070 
# 
# From -- ./inp_files/2900.got.cif
#   From: 2010.05.17/outbox.cif.g08.bks.cpg/sg86_2_cif.got.tgz:2900.got - 2010.06.03 19:03:11.
