data_PCOD9545340
_publ_section_title
;
Structure prediction by ZEFSAII (Michael W. Deem and Ramdas Pophale) SiO2 
 PCOD9545340
Probable space group: P 42/N
;
_chemical_formula_sum "Si O2"
_cell_formula_units_Z 40
_cell_length_a 9.548327
_cell_length_b 9.548327
_cell_length_c 21.893326
_cell_angle_alpha 90.000000
_cell_angle_beta 90.000000
_cell_angle_gamma 90.000000
_cell_volume 1996.026540
_symmetry_space_group_name_H-M "P 42/N"
_symmetry_group_IT_number 86
_space_group.IT_coordinate_system_code '2'
_symmetry_cell_setting 'tetragonal'
loop_
_space_group_symop_operation_xyz
x,y,z
-y,1/2+x,1/2+z
1/2-x,1/2-y,z
1/2+y,-x,1/2+z
-x,-y,-z
y,1/2-x,1/2-z
1/2+x,1/2+y,-z
1/2-y,x,1/2-z
loop_
_atom_site_type_symbol
_atom_site_label
_atom_site_fract_x
_atom_site_fract_y
_atom_site_fract_z
Si Si1 0.264191 0.419895 0.552669
Si Si2 0.584314 0.774590 0.914733
Si Si3 0.103947 0.555057 0.146685
Si Si4 0.620654 0.571272 0.241037
Si Si5 0.966457 0.437611 0.378435
O O1 0.250000 0.250000 0.560606
O O2 0.312372 0.455804 0.483945
O O3 0.358307 0.502904 0.601544
O O4 0.116386 0.494155 0.565484
O O5 0.750000 0.750000 0.919131
O O6 0.561327 0.895620 0.866363
O O7 0.530115 0.627788 0.891306
O O8 0.270712 0.565530 0.130905
O O9 0.061232 0.596661 0.215111
O O10 0.584329 0.715959 0.276524
O O11 0.521016 0.572418 0.182698
#
# Coordination Sequence:
#
# PCOD9545340 Si02
#       5
#     8   8   8   8   8
#     4  11  21  41  67  93 129 167 202 259 318 379
#     4   9  22  41  63  95 129 163 208 257 320 371
#     4  11  23  41  64  93 125 166 214 262 310 370
#     4  11  24  42  61  84 126 166 211 260 317 372
#     4  11  23  41  64  93 125 166 214 262 310 370
#
# _framework density 20.039814
#
# number of rings (size 3 to 8) (size 9 to 14) (size 15 to 20)
#    0.000    1.400    2.000    3.000    2.800    0.000 
#    0.000    9.000    0.000    0.000    0.000    0.000 
#    0.000    0.000    0.000    0.000    0.000    0.000 
#
# Total GULP energy -223063.437113 kJ/mol
# GULP energy per Si atom -5576.585928 kJ/mol
# Density = 1.999420 g / cm^3
# Si number density = 20.039814 Si / 1000 Ang^3
#
#
#
# Elastic Constant Matrix: (Units=GPa)
#
#
# Indices 1 2 3 4 5 6 
#
# 1 82.6247 0.0193 -4.5116 0.0000 0.0000 -6.1476
# 2 0.0193 82.6247 -4.5116 0.0000 0.0000 6.1476
# 3 -4.5116 -4.5116 37.2004 0.0000 0.0000 0.0000
# 4 0.0000 0.0000 0.0000 -10.7528 0.0000 0.0000
# 5 0.0000 0.0000 0.0000 0.0000 -10.7528 0.0000
# 6 -6.1476 6.1476 0.0000 0.0000 0.0000 18.3271
#
#
#
# Elastic Compliance Matrix: (Units=1/GPa)
#
#
# Indices 1 2 3 4 5 6 
#
# 1 0.012502 -0.000240 0.001487 0.000000 0.000000 0.004274
# 2 -0.000240 0.012502 0.001487 0.000000 0.000000 -0.004274
# 3 0.001487 0.001487 0.027242 0.000000 0.000000 0.000000
# 4 0.000000 0.000000 0.000000 -0.092999 0.000000 0.000000
# 5 0.000000 0.000000 0.000000 0.000000 -0.092999 0.000000
# 6 0.004274 -0.004274 0.000000 0.000000 0.000000 0.057431
#
#
# Mechanical properties :
#
#
# Convention : Reuss Voigt Hill
#
# Bulk Modulus (GPa) = 17.32627 20.49353 18.90990
# Shear Modulus (GPa) = -79.93580 13.46121 -33.23730
#
# Velocity S-wave (km/s) = -6.32259 2.59457 -4.07696
# Velocity P-wave (km/s) = 6.68097 4.38456 3.56448
#
# Compressibility (1/GPa) = 0.05771581
#
# Stress axis : x y z
#
# Youngs Moduli (GPa) = 79.98597 79.98597 36.70785
#
# Poissons Ratio (x) = 0.01917 -0.05459
# Poissons Ratio (y) = 0.01917 -0.05459
# Poissons Ratio (z) = -0.11895 -0.11895
#
# Static dielectric constant tensor:
#      x y z
#    x 1.824090 0.000000 0.000000 
#    y 0.000000 1.824090 0.000000 
#    z 0.000000 0.000000 1.702100 
# 
# From -- ./inp_files/4473.got.cif
#   From: 2010.05.17/outbox.cif.g08.bks.cpg/sg86_3_cif.got.tgz:4473.got - 2010.06.03 19:03:11.
