data_PCOD9545137
_publ_section_title
;
Structure prediction by ZEFSAII (Michael W. Deem and Ramdas Pophale) SiO2 
 PCOD9545137
Probable space group: P 42/N
;
_chemical_formula_sum "Si O2"
_cell_formula_units_Z 50
_cell_length_a 19.606833
_cell_length_b 19.606833
_cell_length_c 4.992482
_cell_angle_alpha 90.000000
_cell_angle_beta 90.000000
_cell_angle_gamma 90.000000
_cell_volume 1919.249372
_symmetry_space_group_name_H-M "P 42/N"
_symmetry_group_IT_number 86
_space_group.IT_coordinate_system_code '2'
_symmetry_cell_setting 'tetragonal'
loop_
_space_group_symop_operation_xyz
x,y,z
-y,1/2+x,1/2+z
1/2-x,1/2-y,z
1/2+y,-x,1/2+z
-x,-y,-z
y,1/2-x,1/2-z
1/2+x,1/2+y,-z
1/2-y,x,1/2-z
loop_
_atom_site_type_symbol
_atom_site_label
_atom_site_fract_x
_atom_site_fract_y
_atom_site_fract_z
Si Si1 0.502161 0.410849 0.190989
Si Si2 0.739681 0.968122 0.555997
Si Si3 0.691449 0.312969 0.075395
Si Si4 0.250000 0.250000 0.750000
Si Si5 0.895075 0.714964 0.430906
Si Si6 0.040844 0.423689 0.805514
Si Si7 0.604871 0.199725 0.049614
O O1 0.501063 0.329056 0.175031
O O2 0.565538 0.458687 0.281929
O O3 0.442150 0.433799 0.397098
O O4 0.484477 0.432295 0.887916
O O5 0.731359 0.932141 0.270199
O O6 0.798750 0.025147 0.530926
O O7 0.767999 0.915124 0.769215
O O8 0.750000 0.250000 0.112931
O O9 0.629997 0.272867 0.931962
O O10 0.660459 0.346430 0.344502
O O11 0.703612 0.371785 0.857604
O O12 0.279393 0.314391 0.908478
O O13 0.925415 0.643349 0.323904
#
# Coordination Sequence:
#
# PCOD9545137 Si02
#       7
#     8   8   8   2   8   8   8
#     4  10  21  43  70  97 130 191 219 279 350 430
#     4  12  27  42  63 102 150 173 230 288 343 428
#     4  12  19  39  60  89 128 188 260 289 328 406
#     4  12  28  50  92 102 136 190 220 302 408 442
#     4  12  27  48  70 112 140 178 236 303 356 446
#     4  10  22  44  74  96 135 172 234 281 347 419
#     4  12  22  36  61  88 131 188 230 303 334 385
#
# _framework density 26.051853000000001
#
# number of rings (size 3 to 8) (size 9 to 14) (size 15 to 20)
#    0.000    0.640    3.200    5.280    0.000    4.480 
#    0.000    0.000    0.000    0.000    0.000    0.000 
#    0.000    0.000    0.000    0.000    0.000    0.000 
#
# Total GULP energy -278966.378202 kJ/mol
# GULP energy per Si atom -5579.327564 kJ/mol
# Density = 2.599256 g / cm^3
# Si number density = 26.051853 Si / 1000 Ang^3
#
#
#
# Elastic Constant Matrix: (Units=GPa)
#
#
# Indices 1 2 3 4 5 6 
#
# 1 101.3294 -0.0612 -10.9021 0.0000 0.0000 4.3819
# 2 -0.0612 101.3294 -10.9021 0.0000 0.0000 -4.3819
# 3 -10.9021 -10.9021 104.7866 0.0000 0.0000 0.0000
# 4 0.0000 0.0000 0.0000 23.0404 0.0000 0.0000
# 5 0.0000 0.0000 0.0000 0.0000 23.0404 0.0000
# 6 4.3819 -4.3819 0.0000 0.0000 0.0000 33.0476
#
#
#
# Elastic Compliance Matrix: (Units=1/GPa)
#
#
# Indices 1 2 3 4 5 6 
#
# 1 0.010039 0.000062 0.001051 0.000000 0.000000 -0.001323
# 2 0.000062 0.010039 0.001051 0.000000 0.000000 0.001323
# 3 0.001051 0.001051 0.009762 0.000000 0.000000 0.000000
# 4 0.000000 0.000000 0.000000 0.043402 0.000000 0.000000
# 5 0.000000 0.000000 0.000000 0.000000 0.043402 0.000000
# 6 -0.001323 0.001323 0.000000 0.000000 0.000000 0.030610
#
#
# Mechanical properties :
#
#
# Convention : Reuss Voigt Hill
#
# Bulk Modulus (GPa) = 29.26743 29.30161 29.28452
# Shear Modulus (GPa) = 32.40106 37.77975 35.09041
#
# Velocity S-wave (km/s) = 3.53046 3.81225 3.67406
# Velocity P-wave (km/s) = 5.27992 5.53620 5.40958
#
# Compressibility (1/GPa) = 0.03416768
#
# Stress axis : x y z
#
# Youngs Moduli (GPa) = 99.61032 99.61032 102.43921
#
# Poissons Ratio (x) = -0.00617 -0.10766
# Poissons Ratio (y) = -0.00617 -0.10766
# Poissons Ratio (z) = -0.10468 -0.10468
#
# Static dielectric constant tensor:
#      x y z
#    x 2.223460 0.000000 0.000000 
#    y 0.000000 2.223460 0.000000 
#    z 0.000000 0.000000 2.064770 
# 
# From -- ./inp_files/446.got.cif
#   From: 2010.05.17/outbox.cif.g08.bks.cpg/sg86_1_cif.got.tgz:446.got - 2010.06.03 19:03:11.
