data_PCOD9545161
_publ_section_title
;
Structure prediction by ZEFSAII (Michael W. Deem and Ramdas Pophale) SiO2 
 PCOD9545161
Probable space group: P 42/N
;
_chemical_formula_sum "Si O2"
_cell_formula_units_Z 34
_cell_length_a 7.856092
_cell_length_b 7.856092
_cell_length_c 25.067426
_cell_angle_alpha 90.000000
_cell_angle_beta 90.000000
_cell_angle_gamma 90.000000
_cell_volume 1547.115948
_symmetry_space_group_name_H-M "P 42/N"
_symmetry_group_IT_number 86
_space_group.IT_coordinate_system_code '2'
_symmetry_cell_setting 'tetragonal'
loop_
_space_group_symop_operation_xyz
x,y,z
-y,1/2+x,1/2+z
1/2-x,1/2-y,z
1/2+y,-x,1/2+z
-x,-y,-z
y,1/2-x,1/2-z
1/2+x,1/2+y,-z
1/2-y,x,1/2-z
loop_
_atom_site_type_symbol
_atom_site_label
_atom_site_fract_x
_atom_site_fract_y
_atom_site_fract_z
Si Si1 0.250000 0.250000 0.750000
Si Si2 0.300732 0.949721 0.009171
Si Si3 0.628872 0.526532 0.343829
Si Si4 0.295886 0.432481 0.125885
Si Si5 0.654693 0.535472 0.104404
O O1 0.408019 0.202890 0.787948
O O2 0.250000 0.750000 0.015833
O O3 0.196410 0.007147 0.957071
O O4 0.500000 0.000000 0.000000
O O5 0.245054 0.043430 0.063098
O O6 0.566099 0.334533 0.347146
O O7 0.497251 0.672641 0.362791
O O8 0.775893 0.573582 0.386807
O O9 0.250000 0.250000 0.147274
O O10 0.498199 0.435484 0.129071
#
# Coordination Sequence:
#
# PCOD9545161 Si02
#       5
#     2   8   8   8   8
#     4   8  20  44  80  92 116 172 232 300 356 436
#     4  12  24  39  62  98 143 195 233 271 333 420
#     4  10  22  43  73  95 124 177 233 285 358 409
#     4  12  25  38  65  98 144 182 223 282 340 413
#     4  10  22  39  64  92 135 174 228 277 328 408
#
# _framework density 21.976376999999999
#
# number of rings (size 3 to 8) (size 9 to 14) (size 15 to 20)
#    0.000    1.412    2.353    4.235    6.588    0.000 
#    0.000    0.000   41.412    0.000    0.000    0.000 
#    0.000    0.000    0.000    0.000    0.000    0.000 
#
# Total GULP energy -189631.285714 kJ/mol
# GULP energy per Si atom -5577.390756 kJ/mol
# Density = 2.192636 g / cm^3
# Si number density = 21.976377 Si / 1000 Ang^3
#
#
#
# Elastic Constant Matrix: (Units=GPa)
#
#
# Indices 1 2 3 4 5 6 
#
# 1 85.9544 22.6865 9.6672 0.0000 0.0000 12.3631
# 2 22.6865 85.9544 9.6672 0.0000 0.0000 -12.3631
# 3 9.6672 9.6672 69.8632 0.0000 0.0000 0.0000
# 4 0.0000 0.0000 0.0000 -65.1083 0.0000 0.0000
# 5 0.0000 0.0000 0.0000 0.0000 -65.1083 0.0000
# 6 12.3631 -12.3631 0.0000 0.0000 0.0000 30.5679
#
#
#
# Elastic Compliance Matrix: (Units=1/GPa)
#
#
# Indices 1 2 3 4 5 6 
#
# 1 0.014105 -0.004668 -0.001306 0.000000 0.000000 -0.007593
# 2 -0.004668 0.014105 -0.001306 0.000000 0.000000 0.007593
# 3 -0.001306 -0.001306 0.014675 0.000000 0.000000 0.000000
# 4 0.000000 0.000000 0.000000 -0.015359 0.000000 0.000000
# 5 0.000000 0.000000 0.000000 0.000000 -0.015359 0.000000
# 6 -0.007593 0.007593 0.000000 0.000000 0.000000 0.038856
#
#
# Mechanical properties :
#
#
# Convention : Reuss Voigt Hill
#
# Bulk Modulus (GPa) = 35.30351 36.20154 35.75252
# Shear Modulus (GPa) = 66.64495 -6.61301 30.01597
#
# Velocity S-wave (km/s) = 5.51285 -1.73657 3.69972
# Velocity P-wave (km/s) = 7.52471 3.53381 5.87831
#
# Compressibility (1/GPa) = 0.02832580
#
# Stress axis : x y z
#
# Youngs Moduli (GPa) = 70.89632 70.89632 68.14278
#
# Poissons Ratio (x) = 0.33095 0.08898
# Poissons Ratio (y) = 0.33095 0.08898
# Poissons Ratio (z) = 0.09258 0.09258
#
# Static dielectric constant tensor:
#      x y z
#    x 2.322160 0.000000 0.000000 
#    y 0.000000 2.322160 0.000000 
#    z 0.000000 0.000000 1.761400 
# 
# From -- ./inp_files/4393.got.cif
#   From: 2010.05.17/outbox.cif.g08.bks.cpg/sg86_3_cif.got.tgz:4393.got - 2010.06.03 19:03:11.
