data_PCOD9545292
_publ_section_title
;
Structure prediction by ZEFSAII (Michael W. Deem and Ramdas Pophale) SiO2 
 PCOD9545292
Probable space group: P 42/N
;
_chemical_formula_sum "Si O2"
_cell_formula_units_Z 36
_cell_length_a 6.894148
_cell_length_b 6.894148
_cell_length_c 26.703352
_cell_angle_alpha 90.000000
_cell_angle_beta 90.000000
_cell_angle_gamma 90.000000
_cell_volume 1269.191005
_symmetry_space_group_name_H-M "P 42/N"
_symmetry_group_IT_number 86
_space_group.IT_coordinate_system_code '2'
_symmetry_cell_setting 'tetragonal'
loop_
_space_group_symop_operation_xyz
x,y,z
-y,1/2+x,1/2+z
1/2-x,1/2-y,z
1/2+y,-x,1/2+z
-x,-y,-z
y,1/2-x,1/2-z
1/2+x,1/2+y,-z
1/2-y,x,1/2-z
loop_
_atom_site_type_symbol
_atom_site_label
_atom_site_fract_x
_atom_site_fract_y
_atom_site_fract_z
Si Si1 0.930632 0.558560 0.564891
Si Si2 0.031737 0.263011 0.640759
Si Si3 0.586841 0.470236 0.241737
Si Si4 0.750000 0.250000 0.005303
Si Si5 0.679875 0.024878 0.845581
O O1 0.034878 0.366593 0.587452
O O2 0.064288 0.690483 0.528766
O O3 0.920827 0.682484 0.615217
O O4 0.749403 0.451374 0.537846
O O5 0.250000 0.250000 0.660549
O O6 0.981196 0.039083 0.637191
O O7 0.919725 0.388185 0.683182
O O8 0.494675 0.684468 0.244934
O O9 0.161481 0.492371 0.214633
O O10 0.750000 0.250000 0.850916
#
# Coordination Sequence:
#
# PCOD9545292 Si02
#       5
#     8   8   8   4   8
#     4  11  22  44  67  99 139 191 261 330 413 476
#     4  11  18  35  65  99 138 188 243 315 391 495
#     4   9  15  28  53  93 131 169 230 290 374 482
#     4  10  24  44  68  96 142 190 264 346 394 490
#     4  11  19  34  64  98 136 182 242 314 382 487
#
# _framework density 28.364529000000001
#
# number of rings (size 3 to 8) (size 9 to 14) (size 15 to 20)
#    0.000    1.556    7.778    0.000    0.000    0.000 
#    2.000   13.333    0.000    0.000   11.556    0.000 
#    0.000    0.000    0.000    0.000    0.000    0.000 
#
# Total GULP energy -200955.319134 kJ/mol
# GULP energy per Si atom -5582.092198 kJ/mol
# Density = 2.829997 g / cm^3
# Si number density = 28.364529 Si / 1000 Ang^3
#
#
#
# Elastic Constant Matrix: (Units=GPa)
#
#
# Indices 1 2 3 4 5 6 
#
# 1 145.0321 62.0658 100.8273 0.0000 0.0000 -5.4908
# 2 62.0658 145.0321 100.8273 0.0000 0.0000 5.4908
# 3 100.8273 100.8273 199.2421 0.0000 0.0000 0.0000
# 4 0.0000 0.0000 0.0000 -85.7168 0.0000 0.0000
# 5 0.0000 0.0000 0.0000 0.0000 -85.7168 0.0000
# 6 -5.4908 5.4908 0.0000 0.0000 0.0000 55.8416
#
#
#
# Elastic Compliance Matrix: (Units=1/GPa)
#
#
# Indices 1 2 3 4 5 6 
#
# 1 0.010866 -0.001346 -0.004817 0.000000 0.000000 0.001201
# 2 -0.001346 0.010866 -0.004817 0.000000 0.000000 -0.001201
# 3 -0.004817 -0.004817 0.009895 0.000000 0.000000 0.000000
# 4 0.000000 0.000000 0.000000 -0.011666 0.000000 0.000000
# 5 0.000000 0.000000 0.000000 0.000000 -0.011666 0.000000
# 6 0.001201 -0.001201 0.000000 0.000000 0.000000 0.018144
#
#
# Mechanical properties :
#
#
# Convention : Reuss Voigt Hill
#
# Bulk Modulus (GPa) = 103.47571 112.97189 108.22380
# Shear Modulus (GPa) = 96.86093 -8.07934 44.39079
#
# Velocity S-wave (km/s) = 5.85002 -1.68955 3.96031
# Velocity P-wave (km/s) = 9.06588 6.00907 7.69088
#
# Compressibility (1/GPa) = 0.00966410
#
# Stress axis : x y z
#
# Youngs Moduli (GPa) = 92.03313 92.03313 101.06504
#
# Poissons Ratio (x) = 0.12391 0.48686
# Poissons Ratio (y) = 0.12391 0.48686
# Poissons Ratio (z) = 0.44335 0.44335
#
# Static dielectric constant tensor:
#      x y z
#    x 2.420770 0.000000 0.000000 
#    y 0.000000 2.420770 0.000000 
#    z 0.000000 0.000000 2.338950 
# 
# From -- ./inp_files/4771.got.cif
#   From: 2010.05.17/outbox.cif.g08.bks.cpg/sg86_3_cif.got.tgz:4771.got - 2010.06.03 19:03:11.
