data_PCOD9545995
_publ_section_title
;
Structure prediction by ZEFSAII (Michael W. Deem and Ramdas Pophale) SiO2 
 PCOD9545995
Probable space group: I 4/M
;
_chemical_formula_sum "Si O2"
_cell_formula_units_Z 108
_cell_length_a 15.153760
_cell_length_b 15.153760
_cell_length_c 21.221042
_cell_angle_alpha 90.000000
_cell_angle_beta 90.000000
_cell_angle_gamma 90.000000
_cell_volume 4873.124583
_symmetry_space_group_name_H-M "I 4/M"
_symmetry_group_IT_number 87
_symmetry_cell_setting 'tetragonal'
loop_
_space_group_symop_operation_xyz
x,y,z
-y,x,z
-x,-y,z
y,-x,z
-x,-y,-z
y,-x,-z
x,y,-z
-y,x,-z
1/2+x,1/2+y,1/2+z
1/2-y,1/2+x,1/2+z
1/2-x,1/2-y,1/2+z
1/2+y,1/2-x,1/2+z
1/2-x,1/2-y,1/2-z
1/2+y,1/2-x,1/2-z
1/2+x,1/2+y,1/2-z
1/2-y,1/2+x,1/2-z
loop_
_atom_site_type_symbol
_atom_site_label
_atom_site_fract_x
_atom_site_fract_y
_atom_site_fract_z
Si Si1 0.088442 0.815304 0.500000
Si Si2 0.363662 0.559024 0.766294
Si Si3 0.201522 0.357916 0.374517
Si Si4 0.000000 0.000000 0.885100
Si Si5 0.647710 0.768949 0.333458
Si Si6 0.199755 0.984466 0.927444
Si Si7 0.875439 0.573573 0.749451
Si Si8 0.424591 0.285316 0.093161
O O1 0.155442 0.855407 0.554261
O O2 0.015533 0.789539 0.555021
O O3 0.388837 0.456059 0.755808
O O4 0.290828 0.599841 0.719915
O O5 0.327418 0.566041 0.837296
O O6 0.261459 0.277614 0.350605
O O7 0.255732 0.419886 0.421212
O O8 0.181163 0.416262 0.313158
O O9 0.114286 0.313209 0.401744
O O10 0.107198 0.983432 0.891076
O O11 0.586387 0.763933 0.395016
O O12 0.660858 0.865674 0.305106
O O13 0.180822 0.963318 0.000000
O O14 0.888366 0.472413 0.766375
#
# Coordination Sequence:
#
# PCOD9545995 Si02
#       8
#     8  16  16   4  16  16  16  16
#     4  10  24  43  64 100 143 193 235 282 353 422
#     4  11  23  36  61 104 141 178 227 297 363 427
#     4  12  26  43  72 104 139 182 243 300 351 424
#     4  12  25  48  76  96 136 188 224 289 386 433
#     4  12  25  43  69 101 138 179 235 303 355 425
#     4  12  26  45  72 105 141 179 230 295 368 436
#     4  11  25  45  70  98 143 193 236 290 358 417
#     4  11  23  40  68  98 142 191 239 286 346 424
#
# _framework density 22.162369999999999
#
# number of rings (size 3 to 8) (size 9 to 14) (size 15 to 20)
#    0.000    0.593    5.926    2.000    2.074    3.556 
#    0.000    0.000    0.000    0.889    0.000    0.000 
#    0.000    0.000    0.000    0.000    0.000    0.000 
#
# Total GULP energy -300826.327571 kJ/mol
# GULP energy per Si atom -5570.857918 kJ/mol
# Density = 2.211193 g / cm^3
# Si number density = 22.162370 Si / 1000 Ang^3
#
#
#
# Elastic Constant Matrix: (Units=GPa)
#
#
# Indices 1 2 3 4 5 6 
#
# 1 28.1242 7.8025 6.2728 0.0000 0.0000 -0.6625
# 2 7.8025 28.1242 6.2728 0.0000 0.0000 0.6625
# 3 6.2728 6.2728 82.7607 0.0000 0.0000 0.0000
# 4 0.0000 0.0000 0.0000 20.7997 0.0000 0.0000
# 5 0.0000 0.0000 0.0000 0.0000 20.7997 0.0000
# 6 -0.6625 0.6625 0.0000 0.0000 0.0000 25.6298
#
#
#
# Elastic Compliance Matrix: (Units=1/GPa)
#
#
# Indices 1 2 3 4 5 6 
#
# 1 0.038941 -0.010350 -0.002167 0.000000 0.000000 0.001274
# 2 -0.010350 0.038941 -0.002167 0.000000 0.000000 -0.001274
# 3 -0.002167 -0.002167 0.012412 0.000000 0.000000 0.000000
# 4 0.000000 0.000000 0.000000 0.048078 0.000000 0.000000
# 5 0.000000 0.000000 0.000000 0.000000 0.048078 0.000000
# 6 0.001274 -0.001274 0.000000 0.000000 0.000000 0.039083
#
#
# Mechanical properties :
#
#
# Convention : Reuss Voigt Hill
#
# Bulk Modulus (GPa) = 16.41342 19.96723 18.19033
# Shear Modulus (GPa) = 18.16797 21.35658 19.76227
#
# Velocity S-wave (km/s) = 2.86626 3.10763 2.98938
# Velocity P-wave (km/s) = 4.28672 4.68033 4.48785
#
# Compressibility (1/GPa) = 0.06092576
#
# Stress axis : x y z
#
# Youngs Moduli (GPa) = 25.67960 25.67960 80.57025
#
# Poissons Ratio (x) = 0.26579 0.17460
# Poissons Ratio (y) = 0.26579 0.17460
# Poissons Ratio (z) = 0.05565 0.05565
#
# Static dielectric constant tensor:
#      x y z
#    x 1.810080 0.000000 0.000000 
#    y 0.000000 1.810080 0.000000 
#    z 0.000000 0.000000 1.820980 
# 
# From -- ./inp_files/5939.got.cif
#   From: 2010.05.17/outbox.cif.g08.bks.cpg/sg87_3_cif.got.tgz:5939.got - 2010.06.03 19:07:00.
