data_PCOD9545481
_publ_section_title
;
Structure prediction by ZEFSAII (Michael W. Deem and Ramdas Pophale) SiO2 
 PCOD9545481
Probable space group: I 4/M
;
_chemical_formula_sum "Si O2"
_cell_formula_units_Z 88
_cell_length_a 13.727517
_cell_length_b 13.727517
_cell_length_c 16.900373
_cell_angle_alpha 90.000000
_cell_angle_beta 90.000000
_cell_angle_gamma 90.000000
_cell_volume 3184.786108
_symmetry_space_group_name_H-M "I 4/M"
_symmetry_group_IT_number 87
_symmetry_cell_setting 'tetragonal'
loop_
_space_group_symop_operation_xyz
x,y,z
-y,x,z
-x,-y,z
y,-x,z
-x,-y,-z
y,-x,-z
x,y,-z
-y,x,-z
1/2+x,1/2+y,1/2+z
1/2-y,1/2+x,1/2+z
1/2-x,1/2-y,1/2+z
1/2+y,1/2-x,1/2+z
1/2-x,1/2-y,1/2-z
1/2+y,1/2-x,1/2-z
1/2+x,1/2+y,1/2-z
1/2-y,1/2+x,1/2-z
loop_
_atom_site_type_symbol
_atom_site_label
_atom_site_fract_x
_atom_site_fract_y
_atom_site_fract_z
Si Si1 0.631575 0.597857 0.327965
Si Si2 0.347512 0.912455 0.912423
Si Si3 0.321571 0.142653 0.913278
Si Si4 0.864501 0.907310 0.645178
Si Si5 0.093040 0.722700 0.500000
Si Si6 0.411885 0.139023 0.244695
O O1 0.519895 0.629521 0.338795
O O2 0.706632 0.638830 0.391869
O O3 0.664076 0.613342 0.236703
O O4 0.348886 0.027113 0.915975
O O5 0.448191 0.857300 0.929200
O O6 0.310070 0.883205 0.826988
O O7 0.308868 0.870459 0.000000
O O8 0.370602 0.184563 0.834595
O O9 0.340498 0.182737 0.000000
O O10 0.796937 0.876191 0.572779
O O11 0.975289 0.871317 0.636913
O O12 0.528372 0.127881 0.247688
#
# Coordination Sequence:
#
# PCOD9545481 Si02
#       6
#    16  16  16  16   8  16
#     4   9  19  35  56  80 101 129 176 226 268 314
#     4   8  18  30  47  75  98 137 175 210 258 319
#     4  10  19  33  51  75 103 136 173 216 265 308
#     4   9  17  29  49  79 106 130 169 218 267 320
#     4  10  16  27  48  69 104 141 164 201 260 322
#     4   9  17  31  52  75 102 137 178 221 260 306
#
# _framework density 27.63137
#
# number of rings (size 3 to 8) (size 9 to 14) (size 15 to 20)
#    0.545    2.364    0.000    2.727    0.000    2.182 
#    0.000    4.545    0.000   21.818    0.000    0.000 
#    0.000    0.000    0.000    0.000    0.000    0.000 
#
# Total GULP energy -245241.960735 kJ/mol
# GULP energy per Si atom -5573.680926 kJ/mol
# Density = 2.756848 g / cm^3
# Si number density = 27.631370 Si / 1000 Ang^3
#
#
#
# Elastic Constant Matrix: (Units=GPa)
#
#
# Indices 1 2 3 4 5 6 
#
# 1 110.3292 10.1830 56.0486 0.0000 0.0000 10.2009
# 2 10.1830 110.3292 56.0486 0.0000 0.0000 -10.2009
# 3 56.0486 56.0486 246.7359 0.0000 0.0000 0.0000
# 4 0.0000 0.0000 0.0000 46.3450 0.0000 0.0000
# 5 0.0000 0.0000 0.0000 0.0000 46.3450 0.0000
# 6 10.2009 -10.2009 0.0000 0.0000 0.0000 0.6755
#
#
#
# Elastic Compliance Matrix: (Units=1/GPa)
#
#
# Indices 1 2 3 4 5 6 
#
# 1 0.002856 0.007665 -0.002390 0.000000 0.000000 0.072622
# 2 0.007665 0.002856 -0.002390 0.000000 0.000000 -0.072622
# 3 -0.002390 -0.002390 0.005139 0.000000 0.000000 0.000000
# 4 0.000000 0.000000 0.000000 0.021577 0.000000 0.000000
# 5 0.000000 0.000000 0.000000 0.000000 0.021577 0.000000
# 6 0.072622 -0.072622 0.000000 0.000000 0.000000 -0.712956
#
#
# Mechanical properties :
#
#
# Convention : Reuss Voigt Hill
#
# Bulk Modulus (GPa) = 60.16527 79.10609 69.63568
# Shear Modulus (GPa) = -7.58517 41.68070 17.04777
#
# Velocity S-wave (km/s) = -1.65864 3.88810 2.48659
# Velocity P-wave (km/s) = 4.26068 6.98911 5.78796
#
# Compressibility (1/GPa) = 0.01662088
#
# Stress axis : x y z
#
# Youngs Moduli (GPa) = 350.15572 350.15572 194.60098
#
# Poissons Ratio (x) = -2.68398 0.46509
# Poissons Ratio (y) = -2.68398 0.46509
# Poissons Ratio (z) = 0.83685 0.83685
#
# Static dielectric constant tensor:
#      x y z
#    x 2.168500 0.000000 0.000000 
#    y 0.000000 2.168500 0.000000 
#    z 0.000000 0.000000 2.132470 
# 
# From -- ./inp_files/3619.got.cif
#   From: 2010.05.17/outbox.cif.g08.bks.cpg/sg87_2_cif.got.tgz:3619.got - 2010.06.03 19:07:00.
