data_PCOD9545799
_publ_section_title
;
Structure prediction by ZEFSAII (Michael W. Deem and Ramdas Pophale) SiO2 
 PCOD9545799
Probable space group: I 4/M
;
_chemical_formula_sum "Si O2"
_cell_formula_units_Z 72
_cell_length_a 18.566150
_cell_length_b 18.566150
_cell_length_c 10.660270
_cell_angle_alpha 90.000000
_cell_angle_beta 90.000000
_cell_angle_gamma 90.000000
_cell_volume 3674.615599
_symmetry_space_group_name_H-M "I 4/M"
_symmetry_group_IT_number 87
_symmetry_cell_setting 'tetragonal'
loop_
_space_group_symop_operation_xyz
x,y,z
-y,x,z
-x,-y,z
y,-x,z
-x,-y,-z
y,-x,-z
x,y,-z
-y,x,-z
1/2+x,1/2+y,1/2+z
1/2-y,1/2+x,1/2+z
1/2-x,1/2-y,1/2+z
1/2+y,1/2-x,1/2+z
1/2-x,1/2-y,1/2-z
1/2+y,1/2-x,1/2-z
1/2+x,1/2+y,1/2-z
1/2-y,1/2+x,1/2-z
loop_
_atom_site_type_symbol
_atom_site_label
_atom_site_fract_x
_atom_site_fract_y
_atom_site_fract_z
Si Si1 0.297323 0.331945 0.641795
Si Si2 0.573361 0.309596 0.000000
Si Si3 0.061486 0.896574 0.247686
Si Si4 0.311343 0.857502 0.742916
Si Si5 0.457695 0.193581 0.000000
Si Si6 0.850085 0.615025 0.000000
O O1 0.289140 0.305109 0.500000
O O2 0.344204 0.403757 0.646342
O O3 0.218719 0.344565 0.698955
O O4 0.338576 0.271032 0.721549
O O5 0.581211 0.358620 0.121223
O O6 0.494102 0.272941 0.000000
O O7 0.624027 0.238300 0.000000
O O8 0.975968 0.905301 0.238894
O O9 0.315731 0.911804 0.626528
O O10 0.350215 0.879666 0.872369
O O11 0.528438 0.142688 0.000000
#
# Coordination Sequence:
#
# PCOD9545799 Si02
#       6
#    16   8  16  16   8   8
#     4  11  22  35  60  92 128 180 228 279 331 389
#     4  10  20  39  62  96 128 173 220 273 316 400
#     4  11  23  38  57  88 136 185 227 266 315 389
#     4  11  21  40  64  97 130 168 226 287 338 393
#     4  10  22  39  71  98 125 168 213 285 339 406
#     4  10  22  41  65 100 130 161 219 275 340 416
#
# _framework density 19.593886000000001
#
# number of rings (size 3 to 8) (size 9 to 14) (size 15 to 20)
#    0.667    0.667    4.444    2.000    0.000    2.667 
#    0.000    2.222    0.000    2.000    0.000    0.000 
#    0.000    0.000    0.000    0.000    0.000    0.000 
#
# Total GULP energy -200956.279455 kJ/mol
# GULP energy per Si atom -5582.118874 kJ/mol
# Density = 1.954929 g / cm^3
# Si number density = 19.593886 Si / 1000 Ang^3
#
#
#
# Elastic Constant Matrix: (Units=GPa)
#
#
# Indices 1 2 3 4 5 6 
#
# 1 51.7150 24.9027 43.9662 0.0000 0.0000 -0.3081
# 2 24.9027 51.7150 43.9662 0.0000 0.0000 0.3081
# 3 43.9662 43.9662 154.3478 0.0000 0.0000 0.0000
# 4 0.0000 0.0000 0.0000 30.8438 0.0000 0.0000
# 5 0.0000 0.0000 0.0000 0.0000 30.8438 0.0000
# 6 -0.3081 0.3081 0.0000 0.0000 0.0000 25.6027
#
#
#
# Elastic Compliance Matrix: (Units=1/GPa)
#
#
# Indices 1 2 3 4 5 6 
#
# 1 0.028349 -0.008958 -0.005524 0.000000 0.000000 0.000449
# 2 -0.008958 0.028349 -0.005524 0.000000 0.000000 -0.000449
# 3 -0.005524 -0.005524 0.009626 0.000000 0.000000 0.000000
# 4 0.000000 0.000000 0.000000 0.032421 0.000000 0.000000
# 5 0.000000 0.000000 0.000000 0.000000 0.032421 0.000000
# 6 0.000449 -0.000449 0.000000 0.000000 0.000000 0.039069
#
#
# Mechanical properties :
#
#
# Convention : Reuss Voigt Hill
#
# Bulk Modulus (GPa) = 38.00327 53.71644 45.85985
# Shear Modulus (GPa) = 22.82931 27.12089 24.97510
#
# Velocity S-wave (km/s) = 3.41709 3.72445 3.57408
# Velocity P-wave (km/s) = 5.91661 6.78010 6.36302
#
# Compressibility (1/GPa) = 0.02631353
#
# Stress axis : x y z
#
# Youngs Moduli (GPa) = 35.27477 35.27477 103.88886
#
# Poissons Ratio (x) = 0.31598 0.57384
# Poissons Ratio (y) = 0.31598 0.57384
# Poissons Ratio (z) = 0.19484 0.19484
#
# Static dielectric constant tensor:
#      x y z
#    x 1.689750 0.000000 0.000000 
#    y 0.000000 1.689750 0.000000 
#    z 0.000000 0.000000 1.699690 
# 
# From -- ./inp_files/1125.got.cif
#   From: 2010.05.17/outbox.cif.g08.bks.cpg/sg87_1_cif.got.tgz:1125.got - 2010.06.03 19:07:00.
