data_PCOD9545517
_publ_section_title
;
Structure prediction by ZEFSAII (Michael W. Deem and Ramdas Pophale) SiO2 
 PCOD9545517
Probable space group: I 4/M
;
_chemical_formula_sum "Si O2"
_cell_formula_units_Z 120
_cell_length_a 20.393699
_cell_length_b 20.393699
_cell_length_c 14.662720
_cell_angle_alpha 90.000000
_cell_angle_beta 90.000000
_cell_angle_gamma 90.000000
_cell_volume 6098.268634
_symmetry_space_group_name_H-M "I 4/M"
_symmetry_group_IT_number 87
_symmetry_cell_setting 'tetragonal'
loop_
_space_group_symop_operation_xyz
x,y,z
-y,x,z
-x,-y,z
y,-x,z
-x,-y,-z
y,-x,-z
x,y,-z
-y,x,-z
1/2+x,1/2+y,1/2+z
1/2-y,1/2+x,1/2+z
1/2-x,1/2-y,1/2+z
1/2+y,1/2-x,1/2+z
1/2-x,1/2-y,1/2-z
1/2+y,1/2-x,1/2-z
1/2+x,1/2+y,1/2-z
1/2-y,1/2+x,1/2-z
loop_
_atom_site_type_symbol
_atom_site_label
_atom_site_fract_x
_atom_site_fract_y
_atom_site_fract_z
Si Si1 0.229514 0.773897 0.100408
Si Si2 0.747016 0.535927 0.606042
Si Si3 0.040948 0.101119 0.500000
Si Si4 0.399765 0.252229 0.709487
Si Si5 0.902962 0.957308 0.855876
Si Si6 0.249518 0.119985 0.398209
Si Si7 0.885696 0.109659 0.322404
Si Si8 0.859643 0.316556 0.216693
O O1 0.243443 0.848846 0.125441
O O2 0.301155 0.741825 0.096543
O O3 0.189870 0.740355 0.181645
O O4 0.198199 0.766692 0.000000
O O5 0.756091 0.520856 0.500000
O O6 0.749631 0.472176 0.669745
O O7 0.671215 0.562739 0.617050
O O8 0.804453 0.583852 0.642494
O O9 0.061982 0.132152 0.405420
O O10 0.966345 0.081630 0.500000
O O11 0.388197 0.319719 0.763057
O O12 0.378554 0.188313 0.768696
O O13 0.907108 0.944731 0.746760
O O14 0.967363 0.916018 0.886348
O O15 0.266958 0.096681 0.500000
O O16 0.179493 0.095722 0.365073
O O17 0.299920 0.109883 0.315588
#
# Coordination Sequence:
#
# PCOD9545517 Si02
#       8
#    16  16   8  16  16  16  16  16
#     4  10  18  32  59  88 119 160 201 253 315 374
#     4  12  26  42  66  98 128 169 219 263 319 393
#     4  11  26  38  50  74 108 160 230 262 302 359
#     4  11  22  40  61  88 125 161 208 265 333 382
#     4  11  23  39  58  83 132 186 223 255 301 359
#     4  10  18  31  55  83 111 151 206 258 314 368
#     4  12  19  36  58  78 113 165 211 265 311 362
#     4  11  21  39  62  89 125 161 207 270 328 381
#
# _framework density 19.677716
#
# number of rings (size 3 to 8) (size 9 to 14) (size 15 to 20)
#    0.000    1.000    6.000    2.400    0.000    2.133 
#    1.200    0.667    0.000    0.400    0.000    0.933 
#    0.000    0.000    0.000    0.000    0.000    0.000 
#
# Total GULP energy -334573.821840 kJ/mol
# GULP energy per Si atom -5576.230364 kJ/mol
# Density = 1.963293 g / cm^3
# Si number density = 19.677716 Si / 1000 Ang^3
#
#
#
# Elastic Constant Matrix: (Units=GPa)
#
#
# Indices 1 2 3 4 5 6 
#
# 1 51.4817 23.7243 15.5764 0.0000 0.0000 0.2064
# 2 23.7243 51.4817 15.5764 0.0000 0.0000 -0.2064
# 3 15.5764 15.5764 103.8808 0.0000 0.0000 0.0000
# 4 0.0000 0.0000 0.0000 15.9956 0.0000 0.0000
# 5 0.0000 0.0000 0.0000 0.0000 15.9956 0.0000
# 6 0.2064 -0.2064 0.0000 0.0000 0.0000 24.0169
#
#
#
# Elastic Compliance Matrix: (Units=1/GPa)
#
#
# Indices 1 2 3 4 5 6 
#
# 1 0.025104 -0.010927 -0.002126 0.000000 0.000000 -0.000310
# 2 -0.010927 0.025104 -0.002126 0.000000 0.000000 0.000310
# 3 -0.002126 -0.002126 0.010264 0.000000 0.000000 0.000000
# 4 0.000000 0.000000 0.000000 0.062517 0.000000 0.000000
# 5 0.000000 0.000000 0.000000 0.000000 0.062517 0.000000
# 6 -0.000310 0.000310 0.000000 0.000000 0.000000 0.041643
#
#
# Mechanical properties :
#
#
# Convention : Reuss Voigt Hill
#
# Bulk Modulus (GPa) = 33.20560 35.17761 34.19161
# Shear Modulus (GPa) = 18.68848 21.33278 20.01063
#
# Velocity S-wave (km/s) = 3.08511 3.29615 3.19238
# Velocity P-wave (km/s) = 5.44076 5.69226 5.56793
#
# Compressibility (1/GPa) = 0.03011540
#
# Stress axis : x y z
#
# Youngs Moduli (GPa) = 39.83391 39.83391 97.42856
#
# Poissons Ratio (x) = 0.43526 0.20712
# Poissons Ratio (y) = 0.43526 0.20712
# Poissons Ratio (z) = 0.08468 0.08468
#
# Static dielectric constant tensor:
#      x y z
#    x 1.710510 0.000000 0.000000 
#    y 0.000000 1.710510 0.000000 
#    z 0.000000 0.000000 1.400620 
# 
# From -- ./inp_files/3876.got.cif
#   From: 2010.05.17/outbox.cif.g08.bks.cpg/sg87_2_cif.got.tgz:3876.got - 2010.06.03 19:07:00.
