data_PCOD9545550
_publ_section_title
;
Structure prediction by ZEFSAII (Michael W. Deem and Ramdas Pophale) SiO2 
 PCOD9545550
Probable space group: I 4/M
;
_chemical_formula_sum "Si O2"
_cell_formula_units_Z 96
_cell_length_a 26.064768
_cell_length_b 26.064768
_cell_length_c 8.648391
_cell_angle_alpha 90.000000
_cell_angle_beta 90.000000
_cell_angle_gamma 90.000000
_cell_volume 5875.475822
_symmetry_space_group_name_H-M "I 4/M"
_symmetry_group_IT_number 87
_symmetry_cell_setting 'tetragonal'
loop_
_space_group_symop_operation_xyz
x,y,z
-y,x,z
-x,-y,z
y,-x,z
-x,-y,-z
y,-x,-z
x,y,-z
-y,x,-z
1/2+x,1/2+y,1/2+z
1/2-y,1/2+x,1/2+z
1/2-x,1/2-y,1/2+z
1/2+y,1/2-x,1/2+z
1/2-x,1/2-y,1/2-z
1/2+y,1/2-x,1/2-z
1/2+x,1/2+y,1/2-z
1/2-y,1/2+x,1/2-z
loop_
_atom_site_type_symbol
_atom_site_label
_atom_site_fract_x
_atom_site_fract_y
_atom_site_fract_z
Si Si1 0.553517 0.638959 0.316035
Si Si2 0.056355 0.247916 0.322668
Si Si3 0.946275 0.642730 0.814651
Si Si4 0.860519 0.560699 0.811994
Si Si5 0.931741 0.249062 0.677183
Si Si6 0.561487 0.362616 0.187059
O O1 0.551928 0.634384 0.500000
O O2 0.570539 0.696422 0.267720
O O3 0.592440 0.597931 0.244868
O O4 0.496376 0.630778 0.248389
O O5 0.071536 0.301696 0.246827
O O6 0.993984 0.248842 0.325137
O O7 0.744727 0.426224 0.000000
O O8 0.906256 0.598640 0.768191
O O9 0.003120 0.632135 0.749383
O O10 0.948925 0.644426 0.000000
O O11 0.804753 0.581084 0.754657
O O12 0.858052 0.558100 0.000000
O O13 0.912977 0.249161 0.500000
O O14 0.918370 0.193423 0.744470
O O15 0.559812 0.361344 0.000000
#
# Coordination Sequence:
#
# PCOD9545550 Si02
#       6
#    16  16  16  16  16  16
#     4  11  21  33  50  75 103 128 159 202 246 288
#     4   9  17  32  51  69  93 127 164 200 240 290
#     4  10  19  30  48  73  98 127 164 205 246 290
#     4   9  18  32  48  69  99 131 162 200 248 297
#     4   7  13  28  49  67  86 119 161 198 232 280
#     4  10  19  33  52  73  97 130 167 199 241 296
#
# _framework density 16.339102
#
# number of rings (size 3 to 8) (size 9 to 14) (size 15 to 20)
#    0.000    2.667    0.000    5.000    0.000    2.000 
#    0.000    4.167    0.000    1.000    0.000    0.000 
#    0.000    0.000    0.000    0.000    0.000    0.000 
#
# Total GULP energy -267311.234539 kJ/mol
# GULP energy per Si atom -5568.984053 kJ/mol
# Density = 1.630191 g / cm^3
# Si number density = 16.339102 Si / 1000 Ang^3
#
#
#
# Elastic Constant Matrix: (Units=GPa)
#
#
# Indices 1 2 3 4 5 6 
#
# 1 112.8031 78.2187 37.0310 0.0000 0.0000 -0.1048
# 2 78.2187 112.8031 37.0310 0.0000 0.0000 0.1048
# 3 37.0310 37.0310 67.8646 0.0000 0.0000 0.0000
# 4 0.0000 0.0000 0.0000 21.1618 0.0000 0.0000
# 5 0.0000 0.0000 0.0000 0.0000 21.1618 0.0000
# 6 -0.1048 0.1048 0.0000 0.0000 0.0000 -3.3340
#
#
#
# Elastic Compliance Matrix: (Units=1/GPa)
#
#
# Indices 1 2 3 4 5 6 
#
# 1 0.017774 -0.011135 -0.003623 0.000000 0.000000 -0.000909
# 2 -0.011135 0.017774 -0.003623 0.000000 0.000000 0.000909
# 3 -0.003623 -0.003623 0.018689 0.000000 0.000000 0.000000
# 4 0.000000 0.000000 0.000000 0.047255 0.000000 0.000000
# 5 0.000000 0.000000 0.000000 0.000000 0.047255 0.000000
# 6 -0.000909 0.000909 0.000000 0.000000 0.000000 -0.299883
#
#
# Mechanical properties :
#
#
# Convention : Reuss Voigt Hill
#
# Bulk Modulus (GPa) = 57.21997 66.44804 61.83400
# Shear Modulus (GPa) = -46.06252 17.21059 -14.42596
#
# Velocity S-wave (km/s) = -5.31534 3.24904 -2.97460
# Velocity P-wave (km/s) = 1.60440 7.40482 5.11162
#
# Compressibility (1/GPa) = 0.01747642
#
# Stress axis : x y z
#
# Youngs Moduli (GPa) = 56.26041 56.26041 53.50720
#
# Poissons Ratio (x) = 0.62645 0.19386
# Poissons Ratio (y) = 0.62645 0.19386
# Poissons Ratio (z) = 0.20383 0.20383
#
# Static dielectric constant tensor:
#      x y z
#    x 1.548170 0.000000 0.000000 
#    y 0.000000 1.548170 0.000000 
#    z 0.000000 0.000000 1.558240 
# 
# From -- ./inp_files/1399.got.cif
#   From: 2010.05.17/outbox.cif.g08.bks.cpg/sg87_1_cif.got.tgz:1399.got - 2010.06.03 19:07:00.
