data_PCOD9545739
_publ_section_title
;
Structure prediction by ZEFSAII (Michael W. Deem and Ramdas Pophale) SiO2 
 PCOD9545739
Probable space group: I 4/M
;
_chemical_formula_sum "Si O2"
_cell_formula_units_Z 120
_cell_length_a 25.847487
_cell_length_b 25.847487
_cell_length_c 7.714797
_cell_angle_alpha 90.000000
_cell_angle_beta 90.000000
_cell_angle_gamma 90.000000
_cell_volume 5154.198664
_symmetry_space_group_name_H-M "I 4/M"
_symmetry_group_IT_number 87
_symmetry_cell_setting 'tetragonal'
loop_
_space_group_symop_operation_xyz
x,y,z
-y,x,z
-x,-y,z
y,-x,z
-x,-y,-z
y,-x,-z
x,y,-z
-y,x,-z
1/2+x,1/2+y,1/2+z
1/2-y,1/2+x,1/2+z
1/2-x,1/2-y,1/2+z
1/2+y,1/2-x,1/2+z
1/2-x,1/2-y,1/2-z
1/2+y,1/2-x,1/2-z
1/2+x,1/2+y,1/2-z
1/2-y,1/2+x,1/2-z
loop_
_atom_site_type_symbol
_atom_site_label
_atom_site_fract_x
_atom_site_fract_y
_atom_site_fract_z
Si Si1 0.216420 0.447794 0.709999
Si Si2 0.626919 0.758052 0.799961
Si Si3 0.168780 0.718332 0.702623
Si Si4 0.452999 0.160120 0.298591
Si Si5 0.965426 0.163559 0.799269
Si Si6 0.058039 0.444553 0.195455
Si Si7 0.849267 0.164191 0.288522
Si Si8 0.088238 0.000982 0.500000
O O1 0.215208 0.446406 0.500000
O O2 0.201756 0.391097 0.776376
O O3 0.177821 0.492091 0.774730
O O4 0.275612 0.463713 0.756536
O O5 0.681031 0.789332 0.788281
O O6 0.584553 0.791613 0.706311
O O7 0.630541 0.699659 0.735346
O O8 0.611874 0.755715 0.000000
O O9 0.181826 0.718806 0.500000
O O10 0.166149 0.777429 0.766434
O O11 0.460078 0.147013 0.500000
O O12 0.424469 0.109655 0.223350
O O13 0.904437 0.149010 0.786184
O O14 0.995414 0.126098 0.667238
O O15 0.982304 0.160054 0.000000
O O16 0.064691 0.495870 0.304272
O O17 0.076332 0.454142 0.000000
O O18 0.853500 0.164315 0.500000
O O19 0.049358 0.050937 0.500000
#
# Coordination Sequence:
#
# PCOD9545739 Si02
#       8
#    16  16  16  16  16  16  16   8
#     4   9  20  39  61  88 120 156 205 256 309 377
#     4  11  23  36  54  85 124 160 202 252 306 365
#     4  10  20  35  59  85 117 161 202 247 306 373
#     4  10  23  40  56  83 120 154 198 257 311 367
#     4  10  21  41  71  98 126 171 213 253 317 376
#     4  10  21  38  60  81 107 148 197 253 309 368
#     4   9  19  38  61  90 125 162 207 253 306 375
#     4  11  26  46  68  98 136 170 210 265 306 364
#
# _framework density 23.281988999999999
#
# number of rings (size 3 to 8) (size 9 to 14) (size 15 to 20)
#    0.000    2.067    0.667    2.000    2.800    4.800 
#    0.000    2.000    0.000    0.000    0.000    0.000 
#    0.000    0.000    0.000    0.000    0.000    0.000 
#
# Total GULP energy -335318.348643 kJ/mol
# GULP energy per Si atom -5588.639144 kJ/mol
# Density = 2.322900 g / cm^3
# Si number density = 23.281989 Si / 1000 Ang^3
#
#
#
# Elastic Constant Matrix: (Units=GPa)
#
#
# Indices 1 2 3 4 5 6 
#
# 1 -2.2605 44.0222 11.7557 0.0000 0.0000 -19.3749
# 2 44.0222 -2.2605 11.7557 0.0000 0.0000 19.3749
# 3 11.7557 11.7557 74.9339 0.0000 0.0000 0.0000
# 4 0.0000 0.0000 0.0000 22.8527 0.0000 0.0000
# 5 0.0000 0.0000 0.0000 0.0000 22.8527 0.0000
# 6 -19.3749 19.3749 0.0000 0.0000 0.0000 13.3963
#
#
#
# Elastic Compliance Matrix: (Units=1/GPa)
#
#
# Indices 1 2 3 4 5 6 
#
# 1 0.008246 0.018019 -0.004120 0.000000 0.000000 -0.014134
# 2 0.018019 0.008246 -0.004120 0.000000 0.000000 0.014134
# 3 -0.004120 -0.004120 0.014638 0.000000 0.000000 0.000000
# 4 0.000000 0.000000 0.000000 0.043759 0.000000 0.000000
# 5 0.000000 0.000000 0.000000 0.000000 0.043759 0.000000
# 6 -0.014134 0.014134 0.000000 0.000000 0.000000 0.033764
#
#
# Mechanical properties :
#
#
# Convention : Reuss Voigt Hill
#
# Bulk Modulus (GPa) = 19.72917 22.83110 21.28013
# Shear Modulus (GPa) = 33.38884 12.01229 22.70056
#
# Velocity S-wave (km/s) = 3.79107 2.27391 3.12593
# Velocity P-wave (km/s) = 5.25883 4.08924 4.71048
#
# Compressibility (1/GPa) = 0.05068638
#
# Stress axis : x y z
#
# Youngs Moduli (GPa) = 121.26699 121.26699 68.31564
#
# Poissons Ratio (x) = -2.18510 0.28149
# Poissons Ratio (y) = -2.18510 0.28149
# Poissons Ratio (z) = 0.49968 0.49968
#
# Static dielectric constant tensor:
#      x y z
#    x 1.923440 0.000000 0.000000 
#    y 0.000000 1.923440 0.000000 
#    z 0.000000 0.000000 1.833100 
# 
# From -- ./inp_files/1694.got.cif
#   From: 2010.05.17/outbox.cif.g08.bks.cpg/sg87_1_cif.got.tgz:1694.got - 2010.06.03 19:07:00.
