data_PCOD9545827
_publ_section_title
;
Structure prediction by ZEFSAII (Michael W. Deem and Ramdas Pophale) SiO2 
 PCOD9545827
Probable space group: I 4/M
;
_chemical_formula_sum "Si O2"
_cell_formula_units_Z 88
_cell_length_a 14.677377
_cell_length_b 14.677377
_cell_length_c 19.767557
_cell_angle_alpha 90.000000
_cell_angle_beta 90.000000
_cell_angle_gamma 90.000000
_cell_volume 4258.433787
_symmetry_space_group_name_H-M "I 4/M"
_symmetry_group_IT_number 87
_symmetry_cell_setting 'tetragonal'
loop_
_space_group_symop_operation_xyz
x,y,z
-y,x,z
-x,-y,z
y,-x,z
-x,-y,-z
y,-x,-z
x,y,-z
-y,x,-z
1/2+x,1/2+y,1/2+z
1/2-y,1/2+x,1/2+z
1/2-x,1/2-y,1/2+z
1/2+y,1/2-x,1/2+z
1/2-x,1/2-y,1/2-z
1/2+y,1/2-x,1/2-z
1/2+x,1/2+y,1/2-z
1/2-y,1/2+x,1/2-z
loop_
_atom_site_type_symbol
_atom_site_label
_atom_site_fract_x
_atom_site_fract_y
_atom_site_fract_z
Si Si1 0.200297 0.711475 0.422487
Si Si2 0.428898 0.625871 0.891337
Si Si3 0.495579 0.653062 0.500000
Si Si4 0.025235 0.260730 0.137969
Si Si5 0.305926 0.163533 0.171834
Si Si6 0.329988 0.619737 0.244271
O O1 0.210485 0.684619 0.500000
O O2 0.118054 0.781897 0.414073
O O3 0.190822 0.621499 0.376886
O O4 0.287825 0.766742 0.395325
O O5 0.380300 0.532786 0.914471
O O6 0.410959 0.616841 0.810248
O O7 0.409881 0.585536 0.500000
O O8 0.497038 0.711291 0.568548
O O9 0.047975 0.184753 0.195425
O O10 0.942151 0.325643 0.159398
O O11 0.378988 0.233882 0.202436
O O12 0.219059 0.162806 0.221836
#
# Coordination Sequence:
#
# PCOD9545827 Si02
#       6
#    16  16   8  16  16  16
#     4  10  21  36  54  82 117 153 196 240 294 369
#     4  10  21  37  60  86 110 144 193 255 320 367
#     4  11  22  32  48  88 134 169 202 234 290 383
#     4  11  20  33  58  84 123 163 197 239 296 361
#     4   9  19  33  55  82 114 158 202 240 289 350
#     4   9  18  34  54  83 116 152 200 248 291 344
#
# _framework density 20.664874000000001
#
# number of rings (size 3 to 8) (size 9 to 14) (size 15 to 20)
#    0.000    2.091    0.909    4.364    1.273    0.727 
#    0.000    2.727    0.000    9.273    0.000    6.364 
#    0.000    0.000    0.000    0.000    0.000    0.000 
#
# Total GULP energy -245467.260954 kJ/mol
# GULP energy per Si atom -5578.801385 kJ/mol
# Density = 2.061784 g / cm^3
# Si number density = 20.664874 Si / 1000 Ang^3
#
#
#
# Elastic Constant Matrix: (Units=GPa)
#
#
# Indices 1 2 3 4 5 6 
#
# 1 60.7962 17.7007 8.4641 0.0000 0.0000 0.3363
# 2 17.7007 60.7962 8.4642 0.0000 0.0000 -0.3363
# 3 8.4641 8.4642 87.5086 0.0000 0.0000 0.0000
# 4 0.0000 0.0000 0.0000 14.0556 0.0000 0.0000
# 5 0.0000 0.0000 0.0000 0.0000 14.0556 0.0000
# 6 0.3363 -0.3363 0.0000 0.0000 0.0000 23.1560
#
#
#
# Elastic Compliance Matrix: (Units=1/GPa)
#
#
# Indices 1 2 3 4 5 6 
#
# 1 0.018110 -0.005099 -0.001258 0.000000 0.000000 -0.000337
# 2 -0.005099 0.018110 -0.001258 0.000000 0.000000 0.000337
# 3 -0.001258 -0.001258 0.011671 0.000000 0.000000 0.000000
# 4 0.000000 0.000000 0.000000 0.071146 0.000000 0.000000
# 5 0.000000 0.000000 0.000000 0.000000 0.071146 0.000000
# 6 -0.000337 0.000337 0.000000 0.000000 0.000000 0.043195
#
#
# Mechanical properties :
#
#
# Convention : Reuss Voigt Hill
#
# Bulk Modulus (GPa) = 30.61981 30.92878 30.77429
# Shear Modulus (GPa) = 19.26806 21.88492 20.57649
#
# Velocity S-wave (km/s) = 3.05685 3.25782 3.15893
# Velocity P-wave (km/s) = 5.22576 5.39912 5.31315
#
# Compressibility (1/GPa) = 0.03265860
#
# Stress axis : x y z
#
# Youngs Moduli (GPa) = 55.21769 55.21769 85.68331
#
# Poissons Ratio (x) = 0.28158 0.10783
# Poissons Ratio (y) = 0.28158 0.10783
# Poissons Ratio (z) = 0.06949 0.06949
#
# Static dielectric constant tensor:
#      x y z
#    x 1.749640 0.000000 0.000000 
#    y 0.000000 1.749640 0.000000 
#    z 0.000000 0.000000 1.785670 
# 
# From -- ./inp_files/5177.got.cif
#   From: 2010.05.17/outbox.cif.g08.bks.cpg/sg87_3_cif.got.tgz:5177.got - 2010.06.03 19:07:00.
