data_PCOD9545766
_publ_section_title
;
Structure prediction by ZEFSAII (Michael W. Deem and Ramdas Pophale) SiO2 
 PCOD9545766
Probable space group: I 4/M
;
_chemical_formula_sum "Si O2"
_cell_formula_units_Z 112
_cell_length_a 13.611992
_cell_length_b 13.611992
_cell_length_c 24.776458
_cell_angle_alpha 90.000000
_cell_angle_beta 90.000000
_cell_angle_gamma 90.000000
_cell_volume 4590.738879
_symmetry_space_group_name_H-M "I 4/M"
_symmetry_group_IT_number 87
_symmetry_cell_setting 'tetragonal'
loop_
_space_group_symop_operation_xyz
x,y,z
-y,x,z
-x,-y,z
y,-x,z
-x,-y,-z
y,-x,-z
x,y,-z
-y,x,-z
1/2+x,1/2+y,1/2+z
1/2-y,1/2+x,1/2+z
1/2-x,1/2-y,1/2+z
1/2+y,1/2-x,1/2+z
1/2-x,1/2-y,1/2-z
1/2+y,1/2-x,1/2-z
1/2+x,1/2+y,1/2-z
1/2-y,1/2+x,1/2-z
loop_
_atom_site_type_symbol
_atom_site_label
_atom_site_fract_x
_atom_site_fract_y
_atom_site_fract_z
Si Si1 0.222213 0.125857 0.792603
Si Si2 0.360902 0.947454 0.443016
Si Si3 0.874868 0.105755 0.903993
Si Si4 0.608973 0.986741 0.837154
Si Si5 0.675564 0.337812 0.820221
Si Si6 0.834930 0.331037 0.593493
Si Si7 0.558013 0.646839 0.918440
O O1 0.143024 0.127974 0.841174
O O2 0.305074 0.043342 0.797403
O O3 0.295138 0.219160 0.801293
O O4 0.170244 0.118054 0.735283
O O5 0.409215 0.919447 0.500000
O O6 0.414996 0.908982 0.389369
O O7 0.250090 0.908342 0.441618
O O8 0.348557 0.066093 0.440749
O O9 0.776766 0.157640 0.928633
O O10 0.988830 0.133727 0.916901
O O11 0.500000 0.000000 0.813966
O O12 0.652537 0.083377 0.863079
O O13 0.653157 0.264332 0.869588
O O14 0.664228 0.438757 0.853074
O O15 0.448037 0.619233 0.935103
#
# Coordination Sequence:
#
# PCOD9545766 Si02
#       7
#    16  16  16  16  16  16  16
#     4  10  20  38  62  94 134 179 226 270 328 407
#     4  11  24  44  72  99 128 171 230 292 355 422
#     4  10  20  36  63  97 132 175 223 271 329 408
#     4  10  21  40  64  95 133 173 224 291 340 401
#     4  10  21  39  63  88 131 184 219 271 336 407
#     4  10  21  42  63  88 133 173 219 282 340 407
#     4  11  23  42  66  94 133 176 217 281 347 414
#
# _framework density 24.396944000000001
#
# number of rings (size 3 to 8) (size 9 to 14) (size 15 to 20)
#    0.000    1.714    4.286    0.000    0.000    4.286 
#    7.714    2.143    0.000    0.857    0.000    1.000 
#    0.000    0.000    0.000    0.000    0.000    0.000 
#
# Total GULP energy -312225.748395 kJ/mol
# GULP energy per Si atom -5575.459793 kJ/mol
# Density = 2.434142 g / cm^3
# Si number density = 24.396944 Si / 1000 Ang^3
#
#
#
# Elastic Constant Matrix: (Units=GPa)
#
#
# Indices 1 2 3 4 5 6 
#
# 1 86.9874 4.4455 -2.2812 0.0000 0.0000 0.4622
# 2 4.4455 86.9874 -2.2812 0.0000 0.0000 -0.4622
# 3 -2.2812 -2.2812 79.4575 0.0000 0.0000 0.0000
# 4 0.0000 0.0000 0.0000 -23.6505 0.0000 0.0000
# 5 0.0000 0.0000 0.0000 0.0000 -23.6505 0.0000
# 6 0.4622 -0.4622 0.0000 0.0000 0.0000 30.2314
#
#
#
# Elastic Compliance Matrix: (Units=1/GPa)
#
#
# Indices 1 2 3 4 5 6 
#
# 1 0.011535 -0.000582 0.000314 0.000000 0.000000 -0.000185
# 2 -0.000582 0.011535 0.000314 0.000000 0.000000 0.000185
# 3 0.000314 0.000314 0.012603 0.000000 0.000000 0.000000
# 4 0.000000 0.000000 0.000000 -0.042282 0.000000 0.000000
# 5 0.000000 0.000000 0.000000 0.000000 -0.042282 0.000000
# 6 -0.000185 0.000185 0.000000 0.000000 0.000000 0.033084
#
#
# Mechanical properties :
#
#
# Convention : Reuss Voigt Hill
#
# Bulk Modulus (GPa) = 27.95906 28.13313 28.04610
# Shear Modulus (GPa) = -1256.59495 13.48937 -621.55279
#
# Velocity S-wave (km/s) = -22.71961 2.35396 -15.97873
# Velocity P-wave (km/s) = 26.01453 4.35254 18.13576
#
# Compressibility (1/GPa) = 0.03576658
#
# Stress axis : x y z
#
# Youngs Moduli (GPa) = 86.69337 86.69337 79.34364
#
# Poissons Ratio (x) = 0.05048 -0.02495
# Poissons Ratio (y) = 0.05048 -0.02495
# Poissons Ratio (z) = -0.02726 -0.02726
#
# Static dielectric constant tensor:
#      x y z
#    x 2.073850 0.000000 0.000000 
#    y 0.000000 2.073850 0.000000 
#    z 0.000000 0.000000 1.969900 
# 
# From -- ./inp_files/5908.got.cif
#   From: 2010.05.17/outbox.cif.g08.bks.cpg/sg87_3_cif.got.tgz:5908.got - 2010.06.03 19:07:00.
