data_PCOD9545285
_publ_section_title
;
Structure prediction by ZEFSAII (Michael W. Deem and Ramdas Pophale) SiO2 
 PCOD9545285
Probable space group: P 42/N
;
_chemical_formula_sum "Si O2"
_cell_formula_units_Z 32
_cell_length_a 11.597164
_cell_length_b 11.597164
_cell_length_c 8.577518
_cell_angle_alpha 90.000000
_cell_angle_beta 90.000000
_cell_angle_gamma 90.000000
_cell_volume 1153.626532
_symmetry_space_group_name_H-M "P 42/N"
_symmetry_group_IT_number 86
_space_group.IT_coordinate_system_code '2'
_symmetry_cell_setting 'tetragonal'
loop_
_space_group_symop_operation_xyz
x,y,z
-y,1/2+x,1/2+z
1/2-x,1/2-y,z
1/2+y,-x,1/2+z
-x,-y,-z
y,1/2-x,1/2-z
1/2+x,1/2+y,-z
1/2-y,x,1/2-z
loop_
_atom_site_type_symbol
_atom_site_label
_atom_site_fract_x
_atom_site_fract_y
_atom_site_fract_z
Si Si1 0.250000 0.750000 0.246697
Si Si2 0.750000 0.750000 0.750000
Si Si3 0.750000 0.750000 0.250000
Si Si4 0.765667 0.443210 0.005411
Si Si5 0.458721 0.420152 0.744582
Si Si6 0.625060 0.930753 0.579133
O O1 0.358815 0.769428 0.355703
O O2 0.481546 0.614170 0.417657
O O3 0.735434 0.867238 0.651135
O O4 0.864965 0.668619 0.215791
O O5 0.680882 0.549705 0.975732
O O6 0.495396 0.360283 0.913888
O O7 0.753533 0.363510 0.856823
O O8 0.497910 0.549366 0.796341
#
# Coordination Sequence:
#
# PCOD9545285 Si02
#       6
#     4   2   2   8   8   8
#     4  10  24  42  72 112 162 198 262 336 400 482
#     4  12  30  52  78 116 164 210 270 344 400 482
#     4  12  22  44  76 106 152 202 260 316 390 470
#     4  11  22  44  74 109 154 209 261 329 406 479
#     4  11  24  44  75 108 150 209 258 330 396 476
#     4  11  26  47  73 110 159 204 270 332 401 485
#
# _framework density 27.738614999999999
#
# number of rings (size 3 to 8) (size 9 to 14) (size 15 to 20)
#    0.000    1.000    5.000    0.750    0.000    6.000 
#    0.000    2.500    0.000    0.000    0.000    0.000 
#    0.000    0.000    0.000    0.000    0.000    0.000 
#
# Total GULP energy -178244.580092 kJ/mol
# GULP energy per Si atom -5570.143128 kJ/mol
# Density = 2.767548 g / cm^3
# Si number density = 27.738615 Si / 1000 Ang^3
#
#
#
# Elastic Constant Matrix: (Units=GPa)
#
#
# Indices 1 2 3 4 5 6 
#
# 1 94.8143 33.2664 33.8237 0.0000 0.0000 1.8827
# 2 33.2664 94.8143 33.8237 0.0000 0.0000 -1.8827
# 3 33.8237 33.8237 120.3290 0.0000 0.0000 0.0000
# 4 0.0000 0.0000 0.0000 71.1613 0.0000 0.0000
# 5 0.0000 0.0000 0.0000 0.0000 71.1613 0.0000
# 6 1.8827 -1.8827 0.0000 0.0000 0.0000 51.4366
#
#
#
# Elastic Compliance Matrix: (Units=1/GPa)
#
#
# Indices 1 2 3 4 5 6 
#
# 1 0.012726 -0.003558 -0.002577 0.000000 0.000000 -0.000596
# 2 -0.003558 0.012726 -0.002577 0.000000 0.000000 0.000596
# 3 -0.002577 -0.002577 0.009759 0.000000 0.000000 0.000000
# 4 0.000000 0.000000 0.000000 0.014053 0.000000 0.000000
# 5 0.000000 0.000000 0.000000 0.000000 0.014053 0.000000
# 6 -0.000596 0.000596 0.000000 0.000000 0.000000 0.019485
#
#
# Mechanical properties :
#
#
# Convention : Reuss Voigt Hill
#
# Bulk Modulus (GPa) = 56.21794 56.86501 56.54148
# Shear Modulus (GPa) = 47.10046 52.68809 49.89427
#
# Velocity S-wave (km/s) = 4.12516 4.36300 4.24574
# Velocity P-wave (km/s) = 6.55746 6.77686 6.66806
#
# Compressibility (1/GPa) = 0.01778792
#
# Stress axis : x y z
#
# Youngs Moduli (GPa) = 78.57689 78.57689 102.46463
#
# Poissons Ratio (x) = 0.27954 0.26408
# Poissons Ratio (y) = 0.27954 0.26408
# Poissons Ratio (z) = 0.20252 0.20252
#
# Static dielectric constant tensor:
#      x y z
#    x 2.162010 0.000000 0.000000 
#    y 0.000000 2.162010 0.000000 
#    z 0.000000 0.000000 2.237540 
# 
# From -- ./inp_files/2767.got.cif
#   From: 2010.05.17/outbox.cif.g08.bks.cpg/sg86_2_cif.got.tgz:2767.got - 2010.06.03 19:03:11.
