data_PCOD9545032
_publ_section_title
;
Structure prediction by ZEFSAII (Michael W. Deem and Ramdas Pophale) SiO2 
 PCOD9545032
Probable space group: P 42/N
;
_chemical_formula_sum "Si O2"
_cell_formula_units_Z 60
_cell_length_a 17.603533
_cell_length_b 17.603533
_cell_length_c 9.698332
_cell_angle_alpha 90.000000
_cell_angle_beta 90.000000
_cell_angle_gamma 90.000000
_cell_volume 3005.361541
_symmetry_space_group_name_H-M "P 42/N"
_symmetry_group_IT_number 86
_space_group.IT_coordinate_system_code '2'
_symmetry_cell_setting 'tetragonal'
loop_
_space_group_symop_operation_xyz
x,y,z
-y,1/2+x,1/2+z
1/2-x,1/2-y,z
1/2+y,-x,1/2+z
-x,-y,-z
y,1/2-x,1/2-z
1/2+x,1/2+y,-z
1/2-y,x,1/2-z
loop_
_atom_site_type_symbol
_atom_site_label
_atom_site_fract_x
_atom_site_fract_y
_atom_site_fract_z
Si Si1 0.415767 0.014056 0.158015
Si Si2 0.750000 0.250000 0.046145
Si Si3 0.491697 0.762420 0.034433
Si Si4 0.586602 0.556900 0.378820
Si Si5 0.396664 0.047824 0.596522
Si Si6 0.934956 0.235575 0.264267
Si Si7 0.606345 0.490190 0.872469
Si Si8 0.848648 0.271652 0.796491
O O1 0.457059 0.081358 0.242610
O O2 0.474464 0.943787 0.173347
O O3 0.332277 0.994785 0.210233
O O4 0.414169 0.029741 0.995695
O O5 0.764276 0.319823 0.152378
O O6 0.815201 0.232578 0.934839
O O7 0.546179 0.833684 0.048766
O O8 0.538165 0.685137 0.031841
O O9 0.436977 0.768348 0.169219
O O10 0.443848 0.764119 0.892897
O O11 0.584937 0.608736 0.245905
O O12 0.455453 0.095063 0.504061
O O13 0.428452 0.961332 0.613565
O O14 0.854722 0.192238 0.290765
O O15 0.953310 0.310856 0.353669
#
# Coordination Sequence:
#
# PCOD9545032 Si02
#       8
#     8   4   8   8   8   8   8   8
#     4  10  20  40  62  91 125 163 214 265 327 391
#     4  10  24  38  48  84 138 172 202 248 318 408
#     4  12  23  40  66  93 128 170 223 275 328 389
#     4  10  22  40  63  91 125 164 215 272 328 391
#     4  10  24  40  63  93 130 171 219 271 323 394
#     4  12  23  38  68  95 127 170 221 270 328 394
#     4  10  22  40  62  93 130 172 215 263 325 393
#     4  11  24  38  59  90 132 173 210 261 326 393
#
# _framework density 19.964321000000002
#
# number of rings (size 3 to 8) (size 9 to 14) (size 15 to 20)
#    0.000    1.333    5.333    0.000    3.733    3.200 
#    0.000    0.000    0.000    4.800    0.000    0.000 
#    0.000    0.000    0.000    0.000    0.000    0.000 
#
# Total GULP energy -334646.912497 kJ/mol
# GULP energy per Si atom -5577.448542 kJ/mol
# Density = 1.991888 g / cm^3
# Si number density = 19.964321 Si / 1000 Ang^3
#
#
#
# Elastic Constant Matrix: (Units=GPa)
#
#
# Indices 1 2 3 4 5 6 
#
# 1 65.7067 14.2104 6.9393 0.0000 0.0000 -2.3932
# 2 14.2104 65.7067 6.9393 0.0000 0.0000 2.3932
# 3 6.9393 6.9393 97.3944 0.0000 0.0000 0.0000
# 4 0.0000 0.0000 0.0000 23.6258 0.0000 0.0000
# 5 0.0000 0.0000 0.0000 0.0000 23.6258 0.0000
# 6 -2.3932 2.3932 0.0000 0.0000 0.0000 20.4858
#
#
#
# Elastic Compliance Matrix: (Units=1/GPa)
#
#
# Indices 1 2 3 4 5 6 
#
# 1 0.016151 -0.003481 -0.000903 0.000000 0.000000 0.002293
# 2 -0.003481 0.016151 -0.000903 0.000000 0.000000 -0.002293
# 3 -0.000903 -0.000903 0.010396 0.000000 0.000000 0.000000
# 4 0.000000 0.000000 0.000000 0.042327 0.000000 0.000000
# 5 0.000000 0.000000 0.000000 0.000000 0.042327 0.000000
# 6 0.002293 -0.002293 0.000000 0.000000 0.000000 0.049350
#
#
# Mechanical properties :
#
#
# Convention : Reuss Voigt Hill
#
# Bulk Modulus (GPa) = 31.12862 31.66510 31.39686
# Shear Modulus (GPa) = 25.25472 26.92872 26.09172
#
# Velocity S-wave (km/s) = 3.56053 3.67664 3.61905
# Velocity P-wave (km/s) = 5.70343 5.82399 5.76403
#
# Compressibility (1/GPa) = 0.03212478
#
# Stress axis : x y z
#
# Youngs Moduli (GPa) = 61.91611 61.91611 96.18930
#
# Poissons Ratio (x) = 0.21554 0.08683
# Poissons Ratio (y) = 0.21554 0.08683
# Poissons Ratio (z) = 0.05589 0.05589
#
# Static dielectric constant tensor:
#      x y z
#    x 1.728020 0.000000 0.000000 
#    y 0.000000 1.728020 0.000000 
#    z 0.000000 0.000000 1.736240 
# 
# From -- ./inp_files/1471.got.cif
#   From: 2010.05.17/outbox.cif.g08.bks.cpg/sg86_1_cif.got.tgz:1471.got - 2010.06.03 19:03:11.
