data_PCOD9545806
_publ_section_title
;
Structure prediction by ZEFSAII (Michael W. Deem and Ramdas Pophale) SiO2 
 PCOD9545806
Probable space group: I 4/M
;
_chemical_formula_sum "Si O2"
_cell_formula_units_Z 112
_cell_length_a 15.784481
_cell_length_b 15.784481
_cell_length_c 23.253877
_cell_angle_alpha 90.000000
_cell_angle_beta 90.000000
_cell_angle_gamma 90.000000
_cell_volume 5793.699744
_symmetry_space_group_name_H-M "I 4/M"
_symmetry_group_IT_number 87
_symmetry_cell_setting 'tetragonal'
loop_
_space_group_symop_operation_xyz
x,y,z
-y,x,z
-x,-y,z
y,-x,z
-x,-y,-z
y,-x,-z
x,y,-z
-y,x,-z
1/2+x,1/2+y,1/2+z
1/2-y,1/2+x,1/2+z
1/2-x,1/2-y,1/2+z
1/2+y,1/2-x,1/2+z
1/2-x,1/2-y,1/2-z
1/2+y,1/2-x,1/2-z
1/2+x,1/2+y,1/2-z
1/2-y,1/2+x,1/2-z
loop_
_atom_site_type_symbol
_atom_site_label
_atom_site_fract_x
_atom_site_fract_y
_atom_site_fract_z
Si Si1 0.073141 0.599454 0.770042
Si Si2 0.787337 0.866915 0.766987
Si Si3 0.616320 0.170593 0.932171
Si Si4 0.213615 0.223761 0.347028
Si Si5 0.154082 0.575499 0.107181
Si Si6 0.470306 0.636966 0.641432
Si Si7 0.513135 0.198089 0.435006
O O1 0.098115 0.528028 0.724329
O O2 0.104433 0.691537 0.753799
O O3 0.114427 0.569357 0.829074
O O4 0.821975 0.825752 0.708936
O O5 0.773959 0.795922 0.817183
O O6 0.837271 0.946175 0.793278
O O7 0.664902 0.233498 0.889479
O O8 0.516469 0.171590 0.917992
O O9 0.655211 0.077009 0.921980
O O10 0.628962 0.190267 0.000000
O O11 0.138075 0.267037 0.382538
O O12 0.084606 0.626572 0.070807
O O13 0.403084 0.562160 0.629372
O O14 0.464265 0.724011 0.606392
O O15 0.510274 0.230865 0.500000
#
# Coordination Sequence:
#
# PCOD9545806 Si02
#       7
#    16  16  16  16  16  16  16
#     4  10  21  31  55  94 123 169 198 253 318 383
#     4  10  21  39  60  92 127 168 209 262 319 387
#     4  11  25  42  66  92 125 173 219 270 325 383
#     4  10  22  40  64  93 126 168 212 268 322 390
#     4  11  23  41  61  97 130 165 215 267 326 385
#     4  11  24  42  64  92 130 175 216 261 316 389
#     4  11  24  41  63  90 127 170 216 271 324 382
#
# _framework density 19.331344000000001
#
# number of rings (size 3 to 8) (size 9 to 14) (size 15 to 20)
#    0.000    1.429    2.857    2.571    6.000    7.429 
#    0.000    0.714    0.000    0.429    0.000    1.000 
#    0.000    0.000    0.000    0.000    0.000    0.000 
#
# Total GULP energy -312738.519970 kJ/mol
# GULP energy per Si atom -5584.616428 kJ/mol
# Density = 1.928735 g / cm^3
# Si number density = 19.331344 Si / 1000 Ang^3
#
#
#
# Elastic Constant Matrix: (Units=GPa)
#
#
# Indices 1 2 3 4 5 6 
#
# 1 89.1987 56.6369 42.5071 0.0000 0.0000 6.2897
# 2 56.6369 89.1987 42.5071 0.0000 0.0000 -6.2897
# 3 42.5071 42.5071 79.9466 0.0000 0.0000 0.0000
# 4 0.0000 0.0000 0.0000 20.8243 0.0000 0.0000
# 5 0.0000 0.0000 0.0000 0.0000 20.8243 0.0000
# 6 6.2897 -6.2897 0.0000 0.0000 0.0000 30.8083
#
#
#
# Elastic Compliance Matrix: (Units=1/GPa)
#
#
# Indices 1 2 3 4 5 6 
#
# 1 0.021639 -0.011702 -0.005283 0.000000 0.000000 -0.006807
# 2 -0.011702 0.021639 -0.005283 0.000000 0.000000 0.006807
# 3 -0.005283 -0.005283 0.018127 0.000000 0.000000 0.000000
# 4 0.000000 0.000000 0.000000 0.048021 0.000000 0.000000
# 5 0.000000 0.000000 0.000000 0.000000 0.048021 0.000000
# 6 -0.006807 0.006807 0.000000 0.000000 0.000000 0.035238
#
#
# Mechanical properties :
#
#
# Convention : Reuss Voigt Hill
#
# Bulk Modulus (GPa) = 59.28761 60.18290 59.73526
# Shear Modulus (GPa) = 20.58942 22.27091 21.43016
#
# Velocity S-wave (km/s) = 3.26710 3.39789 3.33313
# Velocity P-wave (km/s) = 6.70579 6.82598 6.76615
#
# Compressibility (1/GPa) = 0.01686693
#
# Stress axis : x y z
#
# Youngs Moduli (GPa) = 46.21355 46.21355 55.16728
#
# Poissons Ratio (x) = 0.54078 0.29147
# Poissons Ratio (y) = 0.54078 0.29147
# Poissons Ratio (z) = 0.24417 0.24417
#
# Static dielectric constant tensor:
#      x y z
#    x 1.685090 0.000000 0.000000 
#    y 0.000000 1.685090 0.000000 
#    z 0.000000 0.000000 1.708800 
# 
# From -- ./inp_files/5861.got.cif
#   From: 2010.05.17/outbox.cif.g08.bks.cpg/sg87_3_cif.got.tgz:5861.got - 2010.06.03 19:07:00.
