data_PCOD9545203
_publ_section_title
;
Structure prediction by ZEFSAII (Michael W. Deem and Ramdas Pophale) SiO2 
 PCOD9545203
Probable space group: P 42/N
;
_chemical_formula_sum "Si O2"
_cell_formula_units_Z 48
_cell_length_a 8.011063
_cell_length_b 8.011063
_cell_length_c 29.630401
_cell_angle_alpha 90.000000
_cell_angle_beta 90.000000
_cell_angle_gamma 90.000000
_cell_volume 1901.594108
_symmetry_space_group_name_H-M "P 42/N"
_symmetry_group_IT_number 86
_space_group.IT_coordinate_system_code '2'
_symmetry_cell_setting 'tetragonal'
loop_
_space_group_symop_operation_xyz
x,y,z
-y,1/2+x,1/2+z
1/2-x,1/2-y,z
1/2+y,-x,1/2+z
-x,-y,-z
y,1/2-x,1/2-z
1/2+x,1/2+y,-z
1/2-y,x,1/2-z
loop_
_atom_site_type_symbol
_atom_site_label
_atom_site_fract_x
_atom_site_fract_y
_atom_site_fract_z
Si Si1 0.132464 0.602421 0.329402
Si Si2 0.186855 0.555950 0.480986
Si Si3 0.006073 0.122510 0.261696
Si Si4 0.431165 0.051081 0.139332
Si Si5 0.429332 0.169140 0.936259
Si Si6 0.490410 0.928994 0.599570
O O1 0.250000 0.750000 0.344986
O O2 0.087757 0.626166 0.277608
O O3 0.262567 0.452692 0.340379
O O4 0.976410 0.558775 0.359313
O O5 0.250000 0.750000 0.481040
O O6 0.327394 0.455416 0.509232
O O7 0.145859 0.494556 0.430531
O O8 0.000000 0.500000 0.500000
O O9 0.039779 0.322239 0.257647
O O10 0.957021 0.066329 0.311883
O O11 0.549570 0.981884 0.098957
O O12 0.253788 0.024027 0.116728
O O13 0.250000 0.250000 0.929780
O O14 0.564200 0.311501 0.924047
#
# Coordination Sequence:
#
# PCOD9545203 Si02
#       6
#     8   8   8   8   8   8
#     4  11  22  37  61  94 130 163 217 284 344 404
#     4  10  22  43  67  96 134 183 232 289 347 426
#     4   9  18  37  62  91 124 164 226 279 330 422
#     4  11  22  41  67  92 126 182 227 283 350 415
#     4  11  24  41  63  95 137 179 227 283 346 413
#     4  11  22  41  65  94 128 175 229 278 341 417
#
# _framework density 25.241983000000001
#
# number of rings (size 3 to 8) (size 9 to 14) (size 15 to 20)
#    0.000    1.500    1.667    4.500    0.000    4.000 
#    0.000    5.000    0.000    0.000    0.000    0.000 
#    0.000    0.000    0.000    0.000    0.000    0.000 
#
# Total GULP energy -267540.004196 kJ/mol
# GULP energy per Si atom -5573.750087 kJ/mol
# Density = 2.518453 g / cm^3
# Si number density = 25.241983 Si / 1000 Ang^3
#
#
#
# Elastic Constant Matrix: (Units=GPa)
#
#
# Indices 1 2 3 4 5 6 
#
# 1 72.6338 -10.4606 17.2344 0.0000 0.0000 -4.7492
# 2 -10.4606 72.6338 17.2344 0.0000 0.0000 4.7492
# 3 17.2344 17.2344 137.2444 0.0000 0.0000 0.0000
# 4 0.0000 0.0000 0.0000 -0.4452 0.0000 0.0000
# 5 0.0000 0.0000 0.0000 0.0000 -0.4452 0.0000
# 6 -4.7492 4.7492 0.0000 0.0000 0.0000 30.0340
#
#
#
# Elastic Compliance Matrix: (Units=1/GPa)
#
#
# Indices 1 2 3 4 5 6 
#
# 1 0.014772 0.002516 -0.002171 0.000000 0.000000 0.001938
# 2 0.002516 0.014772 -0.002171 0.000000 0.000000 -0.001938
# 3 -0.002171 -0.002171 0.007831 0.000000 0.000000 0.000000
# 4 0.000000 0.000000 0.000000 -2.246085 0.000000 0.000000
# 5 0.000000 0.000000 0.000000 0.000000 -2.246085 0.000000
# 6 0.001938 -0.001938 0.000000 0.000000 0.000000 0.033909
#
#
# Mechanical properties :
#
#
# Convention : Reuss Voigt Hill
#
# Bulk Modulus (GPa) = 29.65316 36.72539 33.18927
# Shear Modulus (GPa) = -1.13482 23.06228 10.96373
#
# Velocity S-wave (km/s) = -0.67123 3.02594 2.08636
# Velocity P-wave (km/s) = 3.34250 5.17584 4.35670
#
# Compressibility (1/GPa) = 0.03372322
#
# Stress axis : x y z
#
# Youngs Moduli (GPa) = 67.69633 67.69633 127.68961
#
# Poissons Ratio (x) = -0.17031 0.27720
# Poissons Ratio (y) = -0.17031 0.27720
# Poissons Ratio (z) = 0.14696 0.14696
#
# Static dielectric constant tensor:
#      x y z
#    x 0.379960 0.000000 0.000000 
#    y 0.000000 0.379960 0.000000 
#    z 0.000000 0.000000 2.206670 
# 
# From -- ./inp_files/5176.got.cif
#   From: 2010.05.17/outbox.cif.g08.bks.cpg/sg86_3_cif.got.tgz:5176.got - 2010.06.03 19:03:11.
