data_PCOD9545206
_publ_section_title
;
Structure prediction by ZEFSAII (Michael W. Deem and Ramdas Pophale) SiO2 
 PCOD9545206
Probable space group: P 42/N
;
_chemical_formula_sum "Si O2"
_cell_formula_units_Z 16
_cell_length_a 7.024167
_cell_length_b 7.024167
_cell_length_c 11.586522
_cell_angle_alpha 90.000000
_cell_angle_beta 90.000000
_cell_angle_gamma 90.000000
_cell_volume 571.666506
_symmetry_space_group_name_H-M "P 42/N"
_symmetry_group_IT_number 86
_space_group.IT_coordinate_system_code '2'
_symmetry_cell_setting 'tetragonal'
loop_
_space_group_symop_operation_xyz
x,y,z
-y,1/2+x,1/2+z
1/2-x,1/2-y,z
1/2+y,-x,1/2+z
-x,-y,-z
y,1/2-x,1/2-z
1/2+x,1/2+y,-z
1/2-y,x,1/2-z
loop_
_atom_site_type_symbol
_atom_site_label
_atom_site_fract_x
_atom_site_fract_y
_atom_site_fract_z
Si Si1 0.221284 0.526585 0.029460
Si Si2 0.035077 0.089732 0.816238
O O1 0.250000 0.750000 0.008353
O O2 0.348327 0.418915 0.935053
O O3 0.000000 0.500000 0.000000
O O4 0.165365 0.007867 0.150753
O O5 0.193450 0.004945 0.728378
#
# Coordination Sequence:
#
# PCOD9545206 Si02
#       2
#     8   8
#     4  11  24  43  76 119 164 225 304 374 441 543
#     4  10  22  43  71 106 166 231 287 354 439 532
#
# _framework density 27.988348999999999
#
# number of rings (size 3 to 8) (size 9 to 14) (size 15 to 20)
#    0.000    1.500    0.000    6.000    0.000   12.000 
#    0.000    0.000    0.000   24.000    0.000    0.000 
#    0.000    0.000    0.000    0.000    0.000    0.500 
#
# Total GULP energy -89361.270447 kJ/mol
# GULP energy per Si atom -5585.079403 kJ/mol
# Density = 2.792465 g / cm^3
# Si number density = 27.988349 Si / 1000 Ang^3
#
#
#
# Elastic Constant Matrix: (Units=GPa)
#
#
# Indices 1 2 3 4 5 6 
#
# 1 208.3893 48.4296 84.2648 0.0000 0.0000 6.4651
# 2 48.4296 208.3893 84.2648 0.0000 0.0000 -6.4651
# 3 84.2648 84.2648 154.7310 0.0000 0.0000 0.0000
# 4 0.0000 0.0000 0.0000 68.2349 0.0000 0.0000
# 5 0.0000 0.0000 0.0000 0.0000 68.2349 0.0000
# 6 6.4651 -6.4651 0.0000 0.0000 0.0000 63.8107
#
#
#
# Elastic Compliance Matrix: (Units=1/GPa)
#
#
# Indices 1 2 3 4 5 6 
#
# 1 0.006181 -0.000122 -0.003300 0.000000 0.000000 -0.000639
# 2 -0.000122 0.006181 -0.003300 0.000000 0.000000 0.000639
# 3 -0.003300 -0.003300 0.010057 0.000000 0.000000 0.000000
# 4 0.000000 0.000000 0.000000 0.014655 0.000000 0.000000
# 5 0.000000 0.000000 0.000000 0.000000 0.014655 0.000000
# 6 -0.000639 0.000639 0.000000 0.000000 0.000000 0.015801
#
#
# Mechanical properties :
#
#
# Convention : Reuss Voigt Hill
#
# Bulk Modulus (GPa) = 111.40625 111.71421 111.56023
# Shear Modulus (GPa) = 59.54821 63.69278 61.62050
#
# Velocity S-wave (km/s) = 4.61760 4.77559 4.69726
# Velocity P-wave (km/s) = 8.26563 8.39104 8.32857
#
# Compressibility (1/GPa) = 0.00897616
#
# Stress axis : x y z
#
# Youngs Moduli (GPa) = 161.78151 161.78151 99.43477
#
# Poissons Ratio (x) = 0.01974 0.32811
# Poissons Ratio (y) = 0.01974 0.32811
# Poissons Ratio (z) = 0.53384 0.53384
#
# Static dielectric constant tensor:
#      x y z
#    x 2.324960 0.000000 0.000000 
#    y 0.000000 2.324960 0.000000 
#    z 0.000000 0.000000 2.299550 
# 
# From -- ./inp_files/1576.got.cif
#   From: 2010.05.17/outbox.cif.g08.bks.cpg/sg86_1_cif.got.tgz:1576.got - 2010.06.03 19:03:11.
