data_PCOD9545076
_publ_section_title
;
Structure prediction by ZEFSAII (Michael W. Deem and Ramdas Pophale) SiO2 
 PCOD9545076
Probable space group: P 42/N
;
_chemical_formula_sum "Si O2"
_cell_formula_units_Z 32
_cell_length_a 15.054969
_cell_length_b 15.054969
_cell_length_c 6.655435
_cell_angle_alpha 90.000000
_cell_angle_beta 90.000000
_cell_angle_gamma 90.000000
_cell_volume 1508.468263
_symmetry_space_group_name_H-M "P 42/N"
_symmetry_group_IT_number 86
_space_group.IT_coordinate_system_code '2'
_symmetry_cell_setting 'tetragonal'
loop_
_space_group_symop_operation_xyz
x,y,z
-y,1/2+x,1/2+z
1/2-x,1/2-y,z
1/2+y,-x,1/2+z
-x,-y,-z
y,1/2-x,1/2-z
1/2+x,1/2+y,-z
1/2-y,x,1/2-z
loop_
_atom_site_type_symbol
_atom_site_label
_atom_site_fract_x
_atom_site_fract_y
_atom_site_fract_z
Si Si1 0.121457 0.452687 0.839255
Si Si2 0.205212 0.544545 0.456289
Si Si3 0.739286 0.886352 0.821137
Si Si4 0.074866 0.615438 0.139962
O O1 0.157755 0.487655 0.629418
O O2 0.030490 0.397049 0.820419
O O3 0.196278 0.398454 0.960980
O O4 0.099870 0.538252 0.980519
O O5 0.248423 0.479760 0.289226
O O6 0.130817 0.599953 0.340943
O O7 0.287672 0.594893 0.553885
O O8 0.829450 0.831751 0.808346
#
# Coordination Sequence:
#
# PCOD9545076 Si02
#       4
#     8   8   8   8
#     4  10  22  41  65  90 132 172 215 267 332 394
#     4  11  23  40  68  93 128 177 220 272 326 403
#     4  10  21  36  59  98 138 169 214 273 327 398
#     4  10  23  43  61  96 127 171 220 270 330 387
#
# _framework density 21.213574000000001
#
# number of rings (size 3 to 8) (size 9 to 14) (size 15 to 20)
#    0.000    1.750    2.500    0.750    3.500    4.000 
#    0.000    6.250    0.000    0.000    0.000    0.000 
#    0.000    0.000    0.000    0.000    0.000    0.000 
#
# Total GULP energy -178912.340010 kJ/mol
# GULP energy per Si atom -5591.010625 kJ/mol
# Density = 2.116529 g / cm^3
# Si number density = 21.213574 Si / 1000 Ang^3
#
#
#
# Elastic Constant Matrix: (Units=GPa)
#
#
# Indices 1 2 3 4 5 6 
#
# 1 48.3261 16.9853 45.9838 0.0000 0.0000 -15.5151
# 2 16.9853 48.3261 45.9838 0.0000 0.0000 15.5151
# 3 45.9838 45.9838 106.2137 0.0000 0.0000 0.0000
# 4 0.0000 0.0000 0.0000 31.1943 0.0000 0.0000
# 5 0.0000 0.0000 0.0000 0.0000 31.1943 0.0000
# 6 -15.5151 15.5151 0.0000 0.0000 0.0000 4.8579
#
#
#
# Elastic Compliance Matrix: (Units=1/GPa)
#
#
# Indices 1 2 3 4 5 6 
#
# 1 0.012233 0.026990 -0.016981 0.000000 0.000000 -0.047132
# 2 0.026990 0.012233 -0.016981 0.000000 0.000000 0.047132
# 3 -0.016981 -0.016981 0.024119 0.000000 0.000000 0.000000
# 4 0.000000 0.000000 0.000000 0.032057 0.000000 0.000000
# 5 0.000000 0.000000 0.000000 0.000000 0.032057 0.000000
# 6 -0.047132 0.047132 0.000000 0.000000 0.000000 -0.095206
#
#
# Mechanical properties :
#
#
# Convention : Reuss Voigt Hill
#
# Bulk Modulus (GPa) = 28.86823 46.75242 37.81033
# Shear Modulus (GPa) = 116.32564 19.71016 68.01790
#
# Velocity S-wave (km/s) = 7.41313 3.05147 5.66860
# Velocity P-wave (km/s) = 9.32259 5.87384 7.79143
#
# Compressibility (1/GPa) = 0.03464015
#
# Stress axis : x y z
#
# Youngs Moduli (GPa) = 81.74716 81.74716 41.46195
#
# Poissons Ratio (x) = -2.20637 0.70407
# Poissons Ratio (y) = -2.20637 0.70407
# Poissons Ratio (z) = 1.38816 1.38816
#
# Static dielectric constant tensor:
#      x y z
#    x 1.757380 0.000000 0.000000 
#    y 0.000000 1.757380 0.000000 
#    z 0.000000 0.000000 1.740290 
# 
# From -- ./inp_files/251.got.cif
#   From: 2010.05.17/outbox.cif.g08.bks.cpg/sg86_1_cif.got.tgz:251.got - 2010.06.03 19:03:11.
