data_PCOD9545700
_publ_section_title
;
Structure prediction by ZEFSAII (Michael W. Deem and Ramdas Pophale) SiO2 
 PCOD9545700
Probable space group: I 4/M
;
_chemical_formula_sum "Si O2"
_cell_formula_units_Z 64
_cell_length_a 18.456626
_cell_length_b 18.456626
_cell_length_c 8.062799
_cell_angle_alpha 90.000000
_cell_angle_beta 90.000000
_cell_angle_gamma 90.000000
_cell_volume 2746.568640
_symmetry_space_group_name_H-M "I 4/M"
_symmetry_group_IT_number 87
_symmetry_cell_setting 'tetragonal'
loop_
_space_group_symop_operation_xyz
x,y,z
-y,x,z
-x,-y,z
y,-x,z
-x,-y,-z
y,-x,-z
x,y,-z
-y,x,-z
1/2+x,1/2+y,1/2+z
1/2-y,1/2+x,1/2+z
1/2-x,1/2-y,1/2+z
1/2+y,1/2-x,1/2+z
1/2-x,1/2-y,1/2-z
1/2+y,1/2-x,1/2-z
1/2+x,1/2+y,1/2-z
1/2-y,1/2+x,1/2-z
loop_
_atom_site_type_symbol
_atom_site_label
_atom_site_fract_x
_atom_site_fract_y
_atom_site_fract_z
Si Si1 0.363046 0.784823 0.199886
Si Si2 0.388616 0.531578 0.800361
Si Si3 0.717216 0.357474 0.303119
Si Si4 0.519805 0.111362 0.807040
O O1 0.339271 0.703821 0.242516
O O2 0.295937 0.834210 0.262888
O O3 0.439213 0.817392 0.258236
O O4 0.366136 0.790019 0.000000
O O5 0.413842 0.452600 0.743154
O O6 0.312896 0.564801 0.747306
O O7 0.389392 0.529775 0.000000
O O8 0.720475 0.353266 0.500000
O O9 0.452095 0.080788 0.705758
O O10 0.498652 0.119540 0.000000
#
# Coordination Sequence:
#
# PCOD9545700 Si02
#       4
#    16  16  16  16
#     4   9  20  37  53  73 104 139 172 208 254 309
#     4   9  19  36  55  75 103 139 175 209 250 305
#     4  10  20  34  54  79 105 133 170 216 258 299
#     4  10  20  35  54  76 104 135 171 213 256 305
#
# _framework density 23.301803
#
# number of rings (size 3 to 8) (size 9 to 14) (size 15 to 20)
#    0.000    2.500    0.000    3.000    0.000    6.000 
#    0.000    6.250    0.000    0.000    0.000    0.000 
#    0.000    0.000    0.000    0.000    0.000    0.000 
#
# Total GULP energy -178773.168791 kJ/mol
# GULP energy per Si atom -5586.661525 kJ/mol
# Density = 2.324877 g / cm^3
# Si number density = 23.301803 Si / 1000 Ang^3
#
#
#
# Elastic Constant Matrix: (Units=GPa)
#
#
# Indices 1 2 3 4 5 6 
#
# 1 33.2016 63.0170 -6.5161 0.0000 0.0000 4.0956
# 2 63.0170 33.2016 -6.5161 0.0000 0.0000 -4.0956
# 3 -6.5161 -6.5161 15.0224 0.0000 0.0000 0.0000
# 4 0.0000 0.0000 0.0000 14.8139 0.0000 0.0000
# 5 0.0000 0.0000 0.0000 0.0000 14.8139 0.0000
# 6 4.0956 -4.0956 0.0000 0.0000 0.0000 51.2489
#
#
#
# Elastic Compliance Matrix: (Units=1/GPa)
#
#
# Indices 1 2 3 4 5 6 
#
# 1 -0.010889 0.021930 0.004789 0.000000 0.000000 0.002623
# 2 0.021930 -0.010889 0.004789 0.000000 0.000000 -0.002623
# 3 0.004789 0.004789 0.070722 0.000000 0.000000 0.000000
# 4 0.000000 0.000000 0.000000 0.067504 0.000000 0.000000
# 5 0.000000 0.000000 0.000000 0.000000 0.067504 0.000000
# 6 0.002623 -0.002623 0.000000 0.000000 0.000000 0.019093
#
#
# Mechanical properties :
#
#
# Convention : Reuss Voigt Hill
#
# Bulk Modulus (GPa) = 8.93151 20.15503 14.54327
# Shear Modulus (GPa) = 28.19300 18.27139 23.23220
#
# Velocity S-wave (km/s) = 3.48214 2.80325 3.16098
# Velocity P-wave (km/s) = 4.47307 4.37561 4.42461
#
# Compressibility (1/GPa) = 0.11196321
#
# Stress axis : x y z
#
# Youngs Moduli (GPa) = -91.83806 -91.83806 14.13984
#
# Poissons Ratio (x) = 2.01405 -0.06772
# Poissons Ratio (y) = 2.01405 -0.06772
# Poissons Ratio (z) = 0.43985 0.43985
#
# Static dielectric constant tensor:
#      x y z
#    x 1.894960 0.000000 0.000000 
#    y 0.000000 1.894960 0.000000 
#    z 0.000000 0.000000 1.814710 
# 
# From -- ./inp_files/911.got.cif
#   From: 2010.05.17/outbox.cif.g08.bks.cpg/sg87_1_cif.got.tgz:911.got - 2010.06.03 19:07:00.
