data_PCOD9545547
_publ_section_title
;
Structure prediction by ZEFSAII (Michael W. Deem and Ramdas Pophale) SiO2 
 PCOD9545547
Probable space group: I 4/M
;
_chemical_formula_sum "Si O2"
_cell_formula_units_Z 96
_cell_length_a 26.009937
_cell_length_b 26.009937
_cell_length_c 8.973444
_cell_angle_alpha 90.000000
_cell_angle_beta 90.000000
_cell_angle_gamma 90.000000
_cell_volume 6070.685824
_symmetry_space_group_name_H-M "I 4/M"
_symmetry_group_IT_number 87
_symmetry_cell_setting 'tetragonal'
loop_
_space_group_symop_operation_xyz
x,y,z
-y,x,z
-x,-y,z
y,-x,z
-x,-y,-z
y,-x,-z
x,y,-z
-y,x,-z
1/2+x,1/2+y,1/2+z
1/2-y,1/2+x,1/2+z
1/2-x,1/2-y,1/2+z
1/2+y,1/2-x,1/2+z
1/2-x,1/2-y,1/2-z
1/2+y,1/2-x,1/2-z
1/2+x,1/2+y,1/2-z
1/2-y,1/2+x,1/2-z
loop_
_atom_site_type_symbol
_atom_site_label
_atom_site_fract_x
_atom_site_fract_y
_atom_site_fract_z
Si Si1 0.253066 0.672142 0.822372
Si Si2 0.257742 0.057921 0.674780
Si Si3 0.053645 0.634893 0.169480
Si Si4 0.763603 0.444845 0.821530
Si Si5 0.939375 0.627042 0.170068
Si Si6 0.333035 0.750074 0.677441
O O1 0.260843 0.611367 0.795913
O O2 0.294612 0.706270 0.736681
O O3 0.196348 0.695770 0.782297
O O4 0.258716 0.680781 0.000000
O O5 0.249928 0.065626 0.500000
O O6 0.317875 0.053981 0.716938
O O7 0.241620 0.110184 0.756975
O O8 0.236940 0.000135 0.712778
O O9 0.097347 0.595991 0.215799
O O10 0.998167 0.608175 0.176527
O O11 0.060687 0.654325 0.000000
O O12 0.814074 0.442510 0.719966
O O13 0.776086 0.446901 0.000000
O O14 0.920835 0.622009 0.000000
O O15 0.336471 0.748677 0.500000
#
# Coordination Sequence:
#
# PCOD9545547 Si02
#       6
#    16  16  16  16  16  16
#     4   9  18  32  48  67  93 124 157 192 230 274
#     4  10  19  31  48  68  90 118 152 187 225 272
#     4  10  20  32  44  59  81 109 144 187 230 270
#     4   9  18  32  49  67  89 119 152 187 227 270
#     4  10  20  31  44  61  80 108 146 186 228 272
#     4  10  19  30  47  71  97 125 155 190 234 277
#
# _framework density 15.813700000000001
#
# number of rings (size 3 to 8) (size 9 to 14) (size 15 to 20)
#    0.000    2.333    0.000    3.000    0.000    5.667 
#    0.000    1.667    0.000    0.000    0.000    0.000 
#    0.000    0.667    0.000    7.667    0.000    3.000 
#
# Total GULP energy -267204.493699 kJ/mol
# GULP energy per Si atom -5566.760285 kJ/mol
# Density = 1.577771 g / cm^3
# Si number density = 15.813700 Si / 1000 Ang^3
#
#
#
# Elastic Constant Matrix: (Units=GPa)
#
#
# Indices 1 2 3 4 5 6 
#
# 1 77.3142 26.4512 24.9789 0.0000 0.0000 -0.4169
# 2 26.4512 77.3142 24.9789 0.0000 0.0000 0.4169
# 3 24.9789 24.9789 24.6293 0.0000 0.0000 0.0000
# 4 0.0000 0.0000 0.0000 21.0571 0.0000 0.0000
# 5 0.0000 0.0000 0.0000 0.0000 21.0571 0.0000
# 6 -0.4169 0.4169 0.0000 0.0000 0.0000 15.3720
#
#
#
# Elastic Compliance Matrix: (Units=1/GPa)
#
#
# Indices 1 2 3 4 5 6 
#
# 1 0.019251 -0.000418 -0.019100 0.000000 0.000000 0.000534
# 2 -0.000418 0.019251 -0.019100 0.000000 0.000000 -0.000534
# 3 -0.019100 -0.019100 0.079345 0.000000 0.000000 0.000000
# 4 0.000000 0.000000 0.000000 0.047490 0.000000 0.000000
# 5 0.000000 0.000000 0.000000 0.000000 0.047490 0.000000
# 6 0.000534 -0.000534 0.000000 0.000000 0.000000 0.065082
#
#
# Mechanical properties :
#
#
# Convention : Reuss Voigt Hill
#
# Bulk Modulus (GPa) = 24.62469 36.89732 30.76100
# Shear Modulus (GPa) = 13.56177 18.35382 15.95779
#
# Velocity S-wave (km/s) = 2.93165 3.41049 3.18010
# Velocity P-wave (km/s) = 5.20240 6.23633 5.74268
#
# Compressibility (1/GPa) = 0.04060966
#
# Stress axis : x y z
#
# Youngs Moduli (GPa) = 51.94491 51.94491 12.60321
#
# Poissons Ratio (x) = 0.02173 0.24072
# Poissons Ratio (y) = 0.02173 0.24072
# Poissons Ratio (z) = 0.99216 0.99216
#
# Static dielectric constant tensor:
#      x y z
#    x 1.547400 0.000000 0.000000 
#    y 0.000000 1.547400 0.000000 
#    z 0.000000 0.000000 1.525850 
# 
# From -- ./inp_files/1380.got.cif
#   From: 2010.05.17/outbox.cif.g08.bks.cpg/sg87_1_cif.got.tgz:1380.got - 2010.06.03 19:07:00.
