data_PCOD9545907
_publ_section_title
;
Structure prediction by ZEFSAII (Michael W. Deem and Ramdas Pophale) SiO2 
 PCOD9545907
Probable space group: I 4/M
;
_chemical_formula_sum "Si O2"
_cell_formula_units_Z 96
_cell_length_a 17.207445
_cell_length_b 17.207445
_cell_length_c 18.272850
_cell_angle_alpha 90.000000
_cell_angle_beta 90.000000
_cell_angle_gamma 90.000000
_cell_volume 5410.520780
_symmetry_space_group_name_H-M "I 4/M"
_symmetry_group_IT_number 87
_symmetry_cell_setting 'tetragonal'
loop_
_space_group_symop_operation_xyz
x,y,z
-y,x,z
-x,-y,z
y,-x,z
-x,-y,-z
y,-x,-z
x,y,-z
-y,x,-z
1/2+x,1/2+y,1/2+z
1/2-y,1/2+x,1/2+z
1/2-x,1/2-y,1/2+z
1/2+y,1/2-x,1/2+z
1/2-x,1/2-y,1/2-z
1/2+y,1/2-x,1/2-z
1/2+x,1/2+y,1/2-z
1/2-y,1/2+x,1/2-z
loop_
_atom_site_type_symbol
_atom_site_label
_atom_site_fract_x
_atom_site_fract_y
_atom_site_fract_z
Si Si1 0.220222 0.166535 0.275078
Si Si2 0.797554 0.597387 0.082959
Si Si3 0.389106 0.855468 0.310794
Si Si4 0.083821 0.542946 0.337065
Si Si5 0.244730 0.584260 0.082077
Si Si6 0.607694 0.425267 0.832467
O O1 0.250000 0.250000 0.250000
O O2 0.252282 0.147246 0.356333
O O3 0.269899 0.111679 0.222706
O O4 0.128179 0.151609 0.272355
O O5 0.887967 0.592193 0.105519
O O6 0.769522 0.508187 0.087668
O O7 0.786971 0.625136 0.000000
O O8 0.469698 0.862388 0.353294
O O9 0.395757 0.915892 0.241355
O O10 0.313829 0.876228 0.359520
O O11 0.000000 0.500000 0.337236
O O12 0.336384 0.593383 0.098824
O O13 0.226319 0.610156 0.000000
O O14 0.603445 0.518623 0.829673
#
# Coordination Sequence:
#
# PCOD9545907 Si02
#       6
#    16  16  16  16  16  16
#     4  11  22  38  63  84 107 149 198 245 306 350
#     4  10  22  36  53  81 121 157 193 240 291 354
#     4  11  19  33  54  87 115 150 200 243 291 359
#     4  11  18  30  56  84 115 157 192 231 296 362
#     4  11  22  36  54  81 120 161 197 241 291 347
#     4  11  24  41  59  82 112 150 200 249 292 350
#
# _framework density 17.743207999999999
#
# number of rings (size 3 to 8) (size 9 to 14) (size 15 to 20)
#    0.000    1.167    6.667    1.000    0.000    2.333 
#    0.000    0.833    0.000    0.000    0.000    0.000 
#    0.000    0.000    0.000    8.833    0.000    0.000 
#
# Total GULP energy -267262.402071 kJ/mol
# GULP energy per Si atom -5567.966710 kJ/mol
# Density = 1.770282 g / cm^3
# Si number density = 17.743208 Si / 1000 Ang^3
#
#
#
# Elastic Constant Matrix: (Units=GPa)
#
#
# Indices 1 2 3 4 5 6 
#
# 1 99.9045 13.3670 31.9387 0.0000 0.0000 2.8713
# 2 13.3670 99.9045 31.9387 0.0000 0.0000 -2.8713
# 3 31.9387 31.9387 83.4970 0.0000 0.0000 0.0000
# 4 0.0000 0.0000 0.0000 15.3136 0.0000 0.0000
# 5 0.0000 0.0000 0.0000 0.0000 15.3136 0.0000
# 6 2.8713 -2.8713 0.0000 0.0000 0.0000 18.0860
#
#
#
# Elastic Compliance Matrix: (Units=1/GPa)
#
#
# Indices 1 2 3 4 5 6 
#
# 1 0.011468 -0.000211 -0.004306 0.000000 0.000000 -0.001854
# 2 -0.000211 0.011468 -0.004306 0.000000 0.000000 0.001854
# 3 -0.004306 -0.004306 0.015270 0.000000 0.000000 0.000000
# 4 0.000000 0.000000 0.000000 0.065301 0.000000 0.000000
# 5 0.000000 0.000000 0.000000 0.000000 0.065301 0.000000
# 6 -0.001854 0.001854 0.000000 0.000000 0.000000 0.055880
#
#
# Mechanical properties :
#
#
# Convention : Reuss Voigt Hill
#
# Bulk Modulus (GPa) = 48.63705 48.64387 48.64046
# Shear Modulus (GPa) = 20.06525 23.48010 21.77267
#
# Velocity S-wave (km/s) = 3.36649 3.64171 3.50680
# Velocity P-wave (km/s) = 6.52550 6.71995 6.62344
#
# Compressibility (1/GPa) = 0.02056046
#
# Stress axis : x y z
#
# Youngs Moduli (GPa) = 87.20212 87.20212 65.48577
#
# Poissons Ratio (x) = 0.01841 0.28197
# Poissons Ratio (y) = 0.01841 0.28197
# Poissons Ratio (z) = 0.37547 0.37547
#
# Static dielectric constant tensor:
#      x y z
#    x 1.664880 0.000000 0.000000 
#    y 0.000000 1.664880 0.000000 
#    z 0.000000 0.000000 1.612810 
# 
# From -- ./inp_files/4426.got.cif
#   From: 2010.05.17/outbox.cif.g08.bks.cpg/sg87_3_cif.got.tgz:4426.got - 2010.06.03 19:07:00.
