data_PCOD9545388
_publ_section_title
;
Structure prediction by ZEFSAII (Michael W. Deem and Ramdas Pophale) SiO2 
 PCOD9545388
Probable space group: P 42/N
;
_chemical_formula_sum "Si O2"
_cell_formula_units_Z 26
_cell_length_a 10.251905
_cell_length_b 10.251905
_cell_length_c 10.110584
_cell_angle_alpha 90.000000
_cell_angle_beta 90.000000
_cell_angle_gamma 90.000000
_cell_volume 1062.638112
_symmetry_space_group_name_H-M "P 42/N"
_symmetry_group_IT_number 86
_space_group.IT_coordinate_system_code '2'
_symmetry_cell_setting 'tetragonal'
loop_
_space_group_symop_operation_xyz
x,y,z
-y,1/2+x,1/2+z
1/2-x,1/2-y,z
1/2+y,-x,1/2+z
-x,-y,-z
y,1/2-x,1/2-z
1/2+x,1/2+y,-z
1/2-y,x,1/2-z
loop_
_atom_site_type_symbol
_atom_site_label
_atom_site_fract_x
_atom_site_fract_y
_atom_site_fract_z
Si Si1 0.791743 0.934791 0.978685
Si Si2 0.544942 0.929625 0.134150
Si Si3 0.551099 0.349378 0.890036
Si Si4 0.750000 0.750000 0.750000
O O1 0.734942 0.872841 0.845958
O O2 0.822469 0.087589 0.958176
O O3 0.695736 0.899229 0.097598
O O4 0.930754 0.868688 0.008910
O O5 0.457329 0.800992 0.151711
O O6 0.558524 0.016951 0.264425
O O7 0.500000 0.000000 0.000000
#
# Coordination Sequence:
#
# PCOD9545388 Si02
#       4
#     8   8   8   2
#     4  11  24  41  68 103 137 180 234 294 353 430
#     4  12  24  46  72 100 141 192 234 297 371 426
#     4  11  24  44  68 100 138 181 241 292 353 435
#     4  12  20  40  70 108 144 180 236 290 372 440
#
# _framework density 24.467407000000001
#
# number of rings (size 3 to 8) (size 9 to 14) (size 15 to 20)
#    0.000    0.615    6.154    1.846    0.000    1.231 
#    0.000    3.077    0.000    0.000    0.000    0.000 
#    0.000    0.000    0.000    0.000    0.000    0.000 
#
# Total GULP energy -145407.511545 kJ/mol
# GULP energy per Si atom -5592.596598 kJ/mol
# Density = 2.441172 g / cm^3
# Si number density = 24.467407 Si / 1000 Ang^3
#
#
#
# Elastic Constant Matrix: (Units=GPa)
#
#
# Indices 1 2 3 4 5 6 
#
# 1 60.6787 21.3769 -3.2278 0.0000 0.0000 -9.3002
# 2 21.3769 60.6787 -3.2278 0.0000 0.0000 9.3002
# 3 -3.2278 -3.2278 99.8012 0.0000 0.0000 0.0000
# 4 0.0000 0.0000 0.0000 41.0731 0.0000 0.0000
# 5 0.0000 0.0000 0.0000 0.0000 41.0731 0.0000
# 6 -9.3002 9.3002 0.0000 0.0000 0.0000 39.7639
#
#
#
# Elastic Compliance Matrix: (Units=1/GPa)
#
#
# Indices 1 2 3 4 5 6 
#
# 1 0.020415 -0.008197 0.000395 0.000000 0.000000 0.006692
# 2 -0.008197 0.020415 0.000395 0.000000 0.000000 -0.006692
# 3 0.000395 0.000395 0.010045 0.000000 0.000000 0.000000
# 4 0.000000 0.000000 0.000000 0.024347 0.000000 0.000000
# 5 0.000000 0.000000 0.000000 0.000000 0.024347 0.000000
# 6 0.006692 -0.006692 0.000000 0.000000 0.000000 0.028279
#
#
# Mechanical properties :
#
#
# Convention : Reuss Voigt Hill
#
# Bulk Modulus (GPa) = 27.73002 27.88902 27.80952
# Shear Modulus (GPa) = 32.32475 38.13116 35.22796
#
# Velocity S-wave (km/s) = 3.63869 3.95200 3.79857
# Velocity P-wave (km/s) = 5.38623 5.67870 5.53439
#
# Compressibility (1/GPa) = 0.03606201
#
# Stress axis : x y z
#
# Youngs Moduli (GPa) = 48.98463 48.98463 99.54724
#
# Poissons Ratio (x) = 0.40151 -0.03934
# Poissons Ratio (y) = 0.40151 -0.03934
# Poissons Ratio (z) = -0.01936 -0.01936
#
# Static dielectric constant tensor:
#      x y z
#    x 2.044610 0.000000 0.000000 
#    y 0.000000 2.044610 0.000000 
#    z 0.000000 0.000000 1.879720 
# 
# From -- ./inp_files/757.got.cif
#   From: 2010.05.17/outbox.cif.g08.bks.cpg/sg86_1_cif.got.tgz:757.got - 2010.06.03 19:03:11.
