data_PCOD9545099
_publ_section_title
;
Structure prediction by ZEFSAII (Michael W. Deem and Ramdas Pophale) SiO2 
 PCOD9545099
Probable space group: P 42/N
;
_chemical_formula_sum "Si O2"
_cell_formula_units_Z 60
_cell_length_a 18.720991
_cell_length_b 18.720991
_cell_length_c 8.418721
_cell_angle_alpha 90.000000
_cell_angle_beta 90.000000
_cell_angle_gamma 90.000000
_cell_volume 2950.555486
_symmetry_space_group_name_H-M "P 42/N"
_symmetry_group_IT_number 86
_space_group.IT_coordinate_system_code '2'
_symmetry_cell_setting 'tetragonal'
loop_
_space_group_symop_operation_xyz
x,y,z
-y,1/2+x,1/2+z
1/2-x,1/2-y,z
1/2+y,-x,1/2+z
-x,-y,-z
y,1/2-x,1/2-z
1/2+x,1/2+y,-z
1/2-y,x,1/2-z
loop_
_atom_site_type_symbol
_atom_site_label
_atom_site_fract_x
_atom_site_fract_y
_atom_site_fract_z
Si Si1 0.747506 0.902541 0.864473
Si Si2 0.180674 0.185566 0.647955
Si Si3 0.422430 0.943046 0.249657
Si Si4 0.678298 0.039878 0.038599
Si Si5 0.250000 0.750000 0.649343
Si Si6 0.407978 0.369205 0.115844
Si Si7 0.854618 0.309333 0.599577
Si Si8 0.560702 0.592293 0.245980
O O1 0.709198 0.898524 0.693824
O O2 0.832239 0.906103 0.850395
O O3 0.717908 0.972793 0.953948
O O4 0.725165 0.836538 0.981899
O O5 0.162466 0.241136 0.792894
O O6 0.128321 0.119199 0.652868
O O7 0.378849 0.928747 0.087002
O O8 0.396368 0.883224 0.375688
O O9 0.507550 0.942016 0.239535
O O10 0.401982 0.023368 0.297747
O O11 0.740748 0.093316 0.090316
O O12 0.632432 0.007823 0.183048
O O13 0.198076 0.698957 0.549135
O O14 0.298916 0.699208 0.754601
O O15 0.424823 0.380911 0.931756
#
# Coordination Sequence:
#
# PCOD9545099 Si02
#       8
#     8   8   8   8   4   8   8   8
#     4  10  23  41  63  93 136 176 228 283 339 418
#     4  10  21  38  62  89 124 172 226 270 326 404
#     4  11  24  44  68  98 142 174 227 287 349 416
#     4  10  23  44  67  97 137 181 228 281 349 415
#     4  10  24  42  72 100 128 174 234 282 344 420
#     4  11  24  42  63 100 132 182 222 287 350 412
#     4  11  22  45  70 100 133 175 225 290 347 416
#     4  11  23  41  66  95 130 180 227 275 347 413
#
# _framework density 20.335153999999999
#
# number of rings (size 3 to 8) (size 9 to 14) (size 15 to 20)
#    0.000    1.467    2.667    1.600    5.600    0.267 
#    0.000    1.333    0.000    0.000    0.000    0.000 
#    0.000    0.000    0.000    0.000    0.000    0.000 
#
# Total GULP energy -334830.047559 kJ/mol
# GULP energy per Si atom -5580.500793 kJ/mol
# Density = 2.028887 g / cm^3
# Si number density = 20.335154 Si / 1000 Ang^3
#
#
#
# Elastic Constant Matrix: (Units=GPa)
#
#
# Indices 1 2 3 4 5 6 
#
# 1 95.8164 23.4000 42.7304 0.0000 0.0000 -6.2892
# 2 23.4000 95.8164 42.7304 0.0000 0.0000 6.2892
# 3 42.7304 42.7304 73.4460 0.0000 0.0000 0.0000
# 4 0.0000 0.0000 0.0000 5.5985 0.0000 0.0000
# 5 0.0000 0.0000 0.0000 0.0000 5.5985 0.0000
# 6 -6.2892 6.2892 0.0000 0.0000 0.0000 36.4703
#
#
#
# Elastic Compliance Matrix: (Units=1/GPa)
#
#
# Indices 1 2 3 4 5 6 
#
# 1 0.014312 0.000077 -0.008372 0.000000 0.000000 0.002455
# 2 0.000077 0.014312 -0.008372 0.000000 0.000000 -0.002455
# 3 -0.008372 -0.008372 0.023357 0.000000 0.000000 0.000000
# 4 0.000000 0.000000 0.000000 0.178620 0.000000 0.000000
# 5 0.000000 0.000000 0.000000 0.000000 0.178620 0.000000
# 6 0.002455 -0.002455 0.000000 0.000000 0.000000 0.028266
#
#
# Mechanical properties :
#
#
# Convention : Reuss Voigt Hill
#
# Bulk Modulus (GPa) = 53.62292 53.64450 53.63371
# Shear Modulus (GPa) = 10.48136 19.94798 15.21467
#
# Velocity S-wave (km/s) = 2.27277 3.13543 2.73828
# Velocity P-wave (km/s) = 5.77184 6.28851 6.03570
#
# Compressibility (1/GPa) = 0.01864874
#
# Stress axis : x y z
#
# Youngs Moduli (GPa) = 69.86957 69.86957 42.81452
#
# Poissons Ratio (x) = -0.00538 0.35843
# Poissons Ratio (y) = -0.00538 0.35843
# Poissons Ratio (z) = 0.58492 0.58492
#
# Static dielectric constant tensor:
#      x y z
#    x 1.737620 0.000000 0.000000 
#    y 0.000000 1.737620 0.000000 
#    z 0.000000 0.000000 1.757560 
# 
# From -- ./inp_files/1493.got.cif
#   From: 2010.05.17/outbox.cif.g08.bks.cpg/sg86_1_cif.got.tgz:1493.got - 2010.06.03 19:03:11.
