data_PCOD9545788
_publ_section_title
;
Structure prediction by ZEFSAII (Michael W. Deem and Ramdas Pophale) SiO2 
 PCOD9545788
Probable space group: I 4/M
;
_chemical_formula_sum "Si O2"
_cell_formula_units_Z 60
_cell_length_a 11.847478
_cell_length_b 11.847478
_cell_length_c 21.482472
_cell_angle_alpha 90.000000
_cell_angle_beta 90.000000
_cell_angle_gamma 90.000000
_cell_volume 3015.338524
_symmetry_space_group_name_H-M "I 4/M"
_symmetry_group_IT_number 87
_symmetry_cell_setting 'tetragonal'
loop_
_space_group_symop_operation_xyz
x,y,z
-y,x,z
-x,-y,z
y,-x,z
-x,-y,-z
y,-x,-z
x,y,-z
-y,x,-z
1/2+x,1/2+y,1/2+z
1/2-y,1/2+x,1/2+z
1/2-x,1/2-y,1/2+z
1/2+y,1/2-x,1/2+z
1/2-x,1/2-y,1/2-z
1/2+y,1/2-x,1/2-z
1/2+x,1/2+y,1/2-z
1/2-y,1/2+x,1/2-z
loop_
_atom_site_type_symbol
_atom_site_label
_atom_site_fract_x
_atom_site_fract_y
_atom_site_fract_z
Si Si1 0.112663 0.332800 0.898180
Si Si2 0.107077 0.155286 0.000000
Si Si3 0.328155 0.427175 0.827053
Si Si4 0.500000 0.000000 0.000000
Si Si5 0.329837 0.030814 0.225206
O O1 0.141913 0.221707 0.937951
O O2 0.226357 0.383332 0.869007
O O3 0.024876 0.313121 0.841688
O O4 0.057439 0.419851 0.945934
O O5 0.971129 0.152000 0.000000
O O6 0.442164 0.358461 0.838006
O O7 0.282181 0.419285 0.756183
O O8 0.376997 0.929782 0.270232
#
# Coordination Sequence:
#
# PCOD9545788 Si02
#       5
#    16   8  16   4  16
#     4  10  21  37  62  85 115 160 197 237 290 349
#     4  10  24  42  59  86 117 147 193 247 293 341
#     4  10  22  38  57  87 121 150 188 241 297 354
#     4  10  20  38  60  86 114 154 206 244 270 330
#     4   9  18  34  57  86 114 146 192 238 285 345
#
# _framework density 19.898264000000001
#
# number of rings (size 3 to 8) (size 9 to 14) (size 15 to 20)
#    0.000    2.267    0.000    3.200    0.000   12.800 
#    0.000    6.667    0.000    6.400    0.000    0.000 
#    0.000    0.000    0.000    0.000    0.000    0.000 
#
# Total GULP energy -167051.471721 kJ/mol
# GULP energy per Si atom -5568.382391 kJ/mol
# Density = 1.985297 g / cm^3
# Si number density = 19.898264 Si / 1000 Ang^3
#
#
#
# Elastic Constant Matrix: (Units=GPa)
#
#
# Indices 1 2 3 4 5 6 
#
# 1 73.6445 40.9307 49.5553 0.0000 0.0000 -8.7588
# 2 40.9307 73.6445 49.5553 0.0000 0.0000 8.7588
# 3 49.5553 49.5553 141.6165 0.0000 0.0000 0.0000
# 4 0.0000 0.0000 0.0000 6.8677 0.0000 0.0000
# 5 0.0000 0.0000 0.0000 0.0000 6.8677 0.0000
# 6 -8.7588 8.7588 0.0000 0.0000 0.0000 9.2126
#
#
#
# Elastic Compliance Matrix: (Units=1/GPa)
#
#
# Indices 1 2 3 4 5 6 
#
# 1 0.037393 -0.024877 -0.004380 0.000000 0.000000 0.059203
# 2 -0.024877 0.037393 -0.004380 0.000000 0.000000 -0.059203
# 3 -0.004380 -0.004380 0.010127 0.000000 0.000000 0.000000
# 4 0.000000 0.000000 0.000000 0.145610 0.000000 0.000000
# 5 0.000000 0.000000 0.000000 0.000000 0.145610 0.000000
# 6 0.059203 -0.059203 0.000000 0.000000 0.000000 0.221121
#
#
# Mechanical properties :
#
#
# Convention : Reuss Voigt Hill
#
# Bulk Modulus (GPa) = 56.68847 63.22090 59.95468
# Shear Modulus (GPa) = 7.45816 14.51386 10.98601
#
# Velocity S-wave (km/s) = 1.93811 2.70368 2.35225
# Velocity P-wave (km/s) = 5.79305 6.44884 6.12972
#
# Compressibility (1/GPa) = 0.01764027
#
# Stress axis : x y z
#
# Youngs Moduli (GPa) = 26.74272 26.74272 98.74986
#
# Poissons Ratio (x) = 0.66527 0.43251
# Poissons Ratio (y) = 0.66527 0.43251
# Poissons Ratio (z) = 0.11713 0.11713
#
# Static dielectric constant tensor:
#      x y z
#    x 1.718430 0.000000 0.000000 
#    y 0.000000 1.718430 0.000000 
#    z 0.000000 0.000000 1.675210 
# 
# From -- ./inp_files/5011.got.cif
#   From: 2010.05.17/outbox.cif.g08.bks.cpg/sg87_3_cif.got.tgz:5011.got - 2010.06.03 19:07:00.
