data_PCOD9545855
_publ_section_title
;
Structure prediction by ZEFSAII (Michael W. Deem and Ramdas Pophale) SiO2 
 PCOD9545855
Probable space group: I 4/M
;
_chemical_formula_sum "Si O2"
_cell_formula_units_Z 112
_cell_length_a 15.908579
_cell_length_b 15.908579
_cell_length_c 23.170644
_cell_angle_alpha 90.000000
_cell_angle_beta 90.000000
_cell_angle_gamma 90.000000
_cell_volume 5864.093449
_symmetry_space_group_name_H-M "I 4/M"
_symmetry_group_IT_number 87
_symmetry_cell_setting 'tetragonal'
loop_
_space_group_symop_operation_xyz
x,y,z
-y,x,z
-x,-y,z
y,-x,z
-x,-y,-z
y,-x,-z
x,y,-z
-y,x,-z
1/2+x,1/2+y,1/2+z
1/2-y,1/2+x,1/2+z
1/2-x,1/2-y,1/2+z
1/2+y,1/2-x,1/2+z
1/2-x,1/2-y,1/2-z
1/2+y,1/2-x,1/2-z
1/2+x,1/2+y,1/2-z
1/2-y,1/2+x,1/2-z
loop_
_atom_site_type_symbol
_atom_site_label
_atom_site_fract_x
_atom_site_fract_y
_atom_site_fract_z
Si Si1 0.905855 0.362547 0.825563
Si Si2 0.583432 0.228752 0.131234
Si Si3 0.091369 0.341083 0.208771
Si Si4 0.184505 0.170854 0.178721
Si Si5 0.579344 0.821457 0.066540
Si Si6 0.729658 0.744075 0.434973
Si Si7 0.122142 0.067276 0.279871
O O1 0.878307 0.420298 0.772455
O O2 0.841645 0.284600 0.816902
O O3 0.896162 0.404725 0.887810
O O4 0.999757 0.329530 0.817757
O O5 0.594692 0.146652 0.171091
O O6 0.496022 0.230557 0.096462
O O7 0.660782 0.223473 0.087130
O O8 0.595145 0.307232 0.174628
O O9 0.143472 0.253719 0.207083
O O10 0.177701 0.186077 0.109987
O O11 0.148187 0.092891 0.214805
O O12 0.670587 0.776920 0.065873
O O13 0.558744 0.842767 0.000000
O O14 0.699408 0.734016 0.500000
O O15 0.031998 0.110300 0.288565
#
# Coordination Sequence:
#
# PCOD9545855 Si02
#       7
#    16  16  16  16  16  16  16
#     4  11  22  37  57  84 118 151 204 245 295 372
#     4  11  21  36  59  85 120 160 198 250 307 373
#     4  11  23  36  59  89 115 159 193 249 312 355
#     4  10  21  37  60  83 116 153 195 248 305 360
#     4  10  22  38  58  82 118 165 203 252 302 358
#     4   9  20  37  58  83 111 155 211 247 293 371
#     4  11  23  36  58  93 125 155 199 261 319 369
#
# _framework density 19.099288000000001
#
# number of rings (size 3 to 8) (size 9 to 14) (size 15 to 20)
#    0.000    1.571    1.429    3.429    6.000    2.000 
#    0.000    4.286    0.000    4.286    0.000    7.000 
#    0.000    0.000    0.000    0.000    0.000    0.000 
#
# Total GULP energy -312191.196457 kJ/mol
# GULP energy per Si atom -5574.842794 kJ/mol
# Density = 1.905582 g / cm^3
# Si number density = 19.099288 Si / 1000 Ang^3
#
#
#
# Elastic Constant Matrix: (Units=GPa)
#
#
# Indices 1 2 3 4 5 6 
#
# 1 51.4985 23.5274 47.2724 0.0000 0.0000 7.0386
# 2 23.5274 51.4985 47.2724 0.0000 0.0000 -7.0386
# 3 47.2724 47.2724 142.2668 0.0000 0.0000 0.0000
# 4 0.0000 0.0000 0.0000 26.2436 0.0000 0.0000
# 5 0.0000 0.0000 0.0000 0.0000 26.2436 0.0000
# 6 7.0386 -7.0386 0.0000 0.0000 0.0000 15.4135
#
#
#
# Elastic Compliance Matrix: (Units=1/GPa)
#
#
# Indices 1 2 3 4 5 6 
#
# 1 0.034675 -0.011744 -0.007619 0.000000 0.000000 -0.021197
# 2 -0.011744 0.034675 -0.007619 0.000000 0.000000 0.021197
# 3 -0.007619 -0.007619 0.012093 0.000000 0.000000 0.000000
# 4 0.000000 0.000000 0.000000 0.038104 0.000000 0.000000
# 5 0.000000 0.000000 0.000000 0.000000 0.038104 0.000000
# 6 -0.021197 0.021197 0.000000 0.000000 0.000000 0.084237
#
#
# Mechanical properties :
#
#
# Convention : Reuss Voigt Hill
#
# Bulk Modulus (GPa) = 36.39545 53.48978 44.94261
# Shear Modulus (GPa) = 16.39275 22.05960 19.22617
#
# Velocity S-wave (km/s) = 2.93284 3.40221 3.17621
# Velocity P-wave (km/s) = 5.52865 6.59548 6.08549
#
# Compressibility (1/GPa) = 0.02747596
#
# Stress axis : x y z
#
# Youngs Moduli (GPa) = 28.83945 28.83945 82.69585
#
# Poissons Ratio (x) = 0.33870 0.63008
# Poissons Ratio (y) = 0.33870 0.63008
# Poissons Ratio (z) = 0.21974 0.21974
#
# Static dielectric constant tensor:
#      x y z
#    x 1.672540 0.000000 0.000000 
#    y 0.000000 1.672540 0.000000 
#    z 0.000000 0.000000 1.688950 
# 
# From -- ./inp_files/5915.got.cif
#   From: 2010.05.17/outbox.cif.g08.bks.cpg/sg87_3_cif.got.tgz:5915.got - 2010.06.03 19:07:00.
