data_PCOD9545344
_publ_section_title
;
Structure prediction by ZEFSAII (Michael W. Deem and Ramdas Pophale) SiO2 
 PCOD9545344
Probable space group: P 42/N
;
_chemical_formula_sum "Si O2"
_cell_formula_units_Z 60
_cell_length_a 11.737505
_cell_length_b 11.737505
_cell_length_c 20.677131
_cell_angle_alpha 90.000000
_cell_angle_beta 90.000000
_cell_angle_gamma 90.000000
_cell_volume 2848.668149
_symmetry_space_group_name_H-M "P 42/N"
_symmetry_group_IT_number 86
_space_group.IT_coordinate_system_code '2'
_symmetry_cell_setting 'tetragonal'
loop_
_space_group_symop_operation_xyz
x,y,z
-y,1/2+x,1/2+z
1/2-x,1/2-y,z
1/2+y,-x,1/2+z
-x,-y,-z
y,1/2-x,1/2-z
1/2+x,1/2+y,-z
1/2-y,x,1/2-z
loop_
_atom_site_type_symbol
_atom_site_label
_atom_site_fract_x
_atom_site_fract_y
_atom_site_fract_z
Si Si1 0.858521 0.828343 0.485699
Si Si2 0.419944 0.305246 0.778005
Si Si3 0.077165 0.232753 0.261252
Si Si4 0.031364 0.733294 0.091466
Si Si5 0.595380 0.980125 0.888368
Si Si6 0.923311 0.167412 0.586291
Si Si7 0.750000 0.250000 0.477643
Si Si8 0.834829 0.159556 0.722522
O O1 0.750000 0.750000 0.492737
O O2 0.933708 0.836655 0.549991
O O3 0.947499 0.793728 0.429089
O O4 0.807607 0.951289 0.467027
O O5 0.386966 0.184516 0.743282
O O6 0.447426 0.284950 0.854020
O O7 0.540799 0.351486 0.753632
O O8 0.152346 0.342046 0.281798
O O9 0.058028 0.156088 0.323769
O O10 0.961655 0.272332 0.227203
O O11 0.083963 0.615545 0.117423
O O12 0.143731 0.797025 0.064998
O O13 0.467702 0.934595 0.900453
O O14 0.845997 0.199716 0.525391
O O15 0.865908 0.209622 0.651922
O O16 0.750000 0.250000 0.755493
#
# Coordination Sequence:
#
# PCOD9545344 Si02
#       8
#     8   8   8   8   8   8   4   8
#     4  11  24  40  70  99 133 187 237 287 352 424
#     4  11  27  47  72 104 144 191 247 309 370 444
#     4  11  26  44  67 101 143 185 240 302 367 449
#     4  11  24  43  73  99 138 187 245 295 357 436
#     4  11  21  45  68  99 138 187 239 290 360 432
#     4  11  22  44  68  97 141 184 237 295 356 437
#     4  12  22  44  70 110 138 188 244 300 368 428
#     4  12  26  42  72 102 141 193 241 299 378 437
#
# _framework density 21.062474000000002
#
# number of rings (size 3 to 8) (size 9 to 14) (size 15 to 20)
#    0.000    0.800    4.667    3.200   10.267    0.000 
#    0.000    0.667    2.933    0.000    0.000    0.000 
#    0.000    0.000    0.000    0.000    0.000    0.000 
#
# Total GULP energy -334862.608332 kJ/mol
# GULP energy per Si atom -5581.043472 kJ/mol
# Density = 2.101454 g / cm^3
# Si number density = 21.062474 Si / 1000 Ang^3
#
#
#
# Elastic Constant Matrix: (Units=GPa)
#
#
# Indices 1 2 3 4 5 6 
#
# 1 61.4376 23.0778 0.2115 0.0000 0.0000 8.6122
# 2 23.0778 61.4376 0.2115 0.0000 0.0000 -8.6122
# 3 0.2115 0.2115 70.9513 0.0000 0.0000 0.0000
# 4 0.0000 0.0000 0.0000 23.5910 0.0000 0.0000
# 5 0.0000 0.0000 0.0000 0.0000 23.5910 0.0000
# 6 8.6122 -8.6122 0.0000 0.0000 0.0000 42.4801
#
#
#
# Elastic Compliance Matrix: (Units=1/GPa)
#
#
# Indices 1 2 3 4 5 6 
#
# 1 0.020256 -0.008424 -0.000035 0.000000 0.000000 -0.005814
# 2 -0.008424 0.020256 -0.000035 0.000000 0.000000 0.005814
# 3 -0.000035 -0.000035 0.014094 0.000000 0.000000 0.000000
# 4 0.000000 0.000000 0.000000 0.042389 0.000000 0.000000
# 5 0.000000 0.000000 0.000000 0.000000 0.042389 0.000000
# 6 -0.005814 0.005814 0.000000 0.000000 0.000000 0.025898
#
#
# Mechanical properties :
#
#
# Convention : Reuss Voigt Hill
#
# Bulk Modulus (GPa) = 26.58306 26.75870 26.67088
# Shear Modulus (GPa) = 25.66597 29.28745 27.47671
#
# Velocity S-wave (km/s) = 3.49458 3.73299 3.61575
# Velocity P-wave (km/s) = 5.37878 5.59574 5.48833
#
# Compressibility (1/GPa) = 0.03761795
#
# Stress axis : x y z
#
# Youngs Moduli (GPa) = 49.36801 49.36801 70.95026
#
# Poissons Ratio (x) = 0.41586 0.00250
# Poissons Ratio (y) = 0.41586 0.00250
# Poissons Ratio (z) = 0.00174 0.00174
#
# Static dielectric constant tensor:
#      x y z
#    x 1.785560 0.000000 0.000000 
#    y 0.000000 1.785560 0.000000 
#    z 0.000000 0.000000 1.815880 
# 
# From -- ./inp_files/4269.got.cif
#   From: 2010.05.17/outbox.cif.g08.bks.cpg/sg86_3_cif.got.tgz:4269.got - 2010.06.03 19:03:11.
