data_PCOD9545163
_publ_section_title
;
Structure prediction by ZEFSAII (Michael W. Deem and Ramdas Pophale) SiO2 
 PCOD9545163
Probable space group: P 42/N
;
_chemical_formula_sum "Si O2"
_cell_formula_units_Z 40
_cell_length_a 8.507747
_cell_length_b 8.507747
_cell_length_c 25.601936
_cell_angle_alpha 90.000000
_cell_angle_beta 90.000000
_cell_angle_gamma 90.000000
_cell_volume 1853.113162
_symmetry_space_group_name_H-M "P 42/N"
_symmetry_group_IT_number 86
_space_group.IT_coordinate_system_code '2'
_symmetry_cell_setting 'tetragonal'
loop_
_space_group_symop_operation_xyz
x,y,z
-y,1/2+x,1/2+z
1/2-x,1/2-y,z
1/2+y,-x,1/2+z
-x,-y,-z
y,1/2-x,1/2-z
1/2+x,1/2+y,-z
1/2-y,x,1/2-z
loop_
_atom_site_type_symbol
_atom_site_label
_atom_site_fract_x
_atom_site_fract_y
_atom_site_fract_z
Si Si1 0.406134 0.138282 0.599994
Si Si2 0.563718 0.241508 0.982496
Si Si3 0.934795 0.057940 0.577450
Si Si4 0.927877 0.581566 0.808433
Si Si5 0.536079 0.931365 0.695222
O O1 0.250000 0.250000 0.609069
O O2 0.540686 0.255860 0.580453
O O3 0.371263 0.022756 0.551732
O O4 0.459880 0.040429 0.650975
O O5 0.750000 0.250000 0.980314
O O6 0.515654 0.082394 0.952305
O O7 0.510801 0.214695 0.042493
O O8 0.945605 0.008311 0.636914
O O9 0.007434 0.523247 0.754805
O O10 0.929812 0.772427 0.804241
O O11 0.754332 0.505333 0.812596
#
# Coordination Sequence:
#
# PCOD9545163 Si02
#       5
#     8   8   8   8   8
#     4  10  22  41  60  90 127 163 210 257 321 378
#     4  10  22  40  60  83 126 166 205 255 310 375
#     4  10  22  40  58  92 126 156 212 256 311 380
#     4   9  19  39  65  93 119 161 208 258 317 374
#     4   9  19  39  66  91 122 158 210 260 310 385
#
# _framework density 21.585297000000001
#
# number of rings (size 3 to 8) (size 9 to 14) (size 15 to 20)
#    0.000    2.400    0.000    2.400    2.800    0.800 
#   25.200    0.000    0.000    0.000    0.000    0.000 
#    0.000    0.000    0.000    0.000    0.000    0.000 
#
# Total GULP energy -223093.189094 kJ/mol
# GULP energy per Si atom -5577.329727 kJ/mol
# Density = 2.153617 g / cm^3
# Si number density = 21.585297 Si / 1000 Ang^3
#
#
#
# Elastic Constant Matrix: (Units=GPa)
#
#
# Indices 1 2 3 4 5 6 
#
# 1 57.0473 16.5767 58.5184 0.0000 0.0000 0.7151
# 2 16.5767 57.0473 58.5184 0.0000 0.0000 -0.7151
# 3 58.5184 58.5184 171.4353 0.0000 0.0000 0.0000
# 4 0.0000 0.0000 0.0000 40.3216 0.0000 0.0000
# 5 0.0000 0.0000 0.0000 0.0000 40.3216 0.0000
# 6 0.7151 -0.7151 0.0000 0.0000 0.0000 26.9465
#
#
#
# Elastic Compliance Matrix: (Units=1/GPa)
#
#
# Indices 1 2 3 4 5 6 
#
# 1 0.027214 0.002482 -0.010137 0.000000 0.000000 -0.000656
# 2 0.002482 0.027214 -0.010137 0.000000 0.000000 0.000656
# 3 -0.010137 -0.010137 0.012753 0.000000 0.000000 0.000000
# 4 0.000000 0.000000 0.000000 0.024801 0.000000 0.000000
# 5 0.000000 0.000000 0.000000 0.000000 0.024801 0.000000
# 6 -0.000656 0.000656 0.000000 0.000000 0.000000 0.037145
#
#
# Mechanical properties :
#
#
# Convention : Reuss Voigt Hill
#
# Bulk Modulus (GPa) = 31.64632 61.41745 46.53188
# Shear Modulus (GPa) = 24.99444 31.64571 28.32008
#
# Velocity S-wave (km/s) = 3.40654 3.83309 3.62609
# Velocity P-wave (km/s) = 5.49232 6.93580 6.25583
#
# Compressibility (1/GPa) = 0.03159925
#
# Stress axis : x y z
#
# Youngs Moduli (GPa) = 36.74527 36.74527 78.41124
#
# Poissons Ratio (x) = -0.09120 0.79483
# Poissons Ratio (y) = -0.09120 0.79483
# Poissons Ratio (z) = 0.37247 0.37247
#
# Static dielectric constant tensor:
#      x y z
#    x 1.819690 0.000000 0.000000 
#    y 0.000000 1.819690 0.000000 
#    z 0.000000 0.000000 1.813190 
# 
# From -- ./inp_files/4455.got.cif
#   From: 2010.05.17/outbox.cif.g08.bks.cpg/sg86_3_cif.got.tgz:4455.got - 2010.06.03 19:03:11.
