data_PCOD9545714
_publ_section_title
;
Structure prediction by ZEFSAII (Michael W. Deem and Ramdas Pophale) SiO2 
 PCOD9545714
Probable space group: I 4/M
;
_chemical_formula_sum "Si O2"
_cell_formula_units_Z 120
_cell_length_a 17.793191
_cell_length_b 17.793191
_cell_length_c 19.063237
_cell_angle_alpha 90.000000
_cell_angle_beta 90.000000
_cell_angle_gamma 90.000000
_cell_volume 6035.375959
_symmetry_space_group_name_H-M "I 4/M"
_symmetry_group_IT_number 87
_symmetry_cell_setting 'tetragonal'
loop_
_space_group_symop_operation_xyz
x,y,z
-y,x,z
-x,-y,z
y,-x,z
-x,-y,-z
y,-x,-z
x,y,-z
-y,x,-z
1/2+x,1/2+y,1/2+z
1/2-y,1/2+x,1/2+z
1/2-x,1/2-y,1/2+z
1/2+y,1/2-x,1/2+z
1/2-x,1/2-y,1/2-z
1/2+y,1/2-x,1/2-z
1/2+x,1/2+y,1/2-z
1/2-y,1/2+x,1/2-z
loop_
_atom_site_type_symbol
_atom_site_label
_atom_site_fract_x
_atom_site_fract_y
_atom_site_fract_z
Si Si1 0.429499 0.960049 0.370477
Si Si2 0.771279 0.407532 0.923121
Si Si3 0.348259 0.045548 0.755335
Si Si4 0.015159 0.121758 0.611433
Si Si5 0.198084 0.701911 0.800296
Si Si6 0.873379 0.151455 0.852483
Si Si7 0.906016 0.084785 0.000000
Si Si8 0.181559 0.981969 0.233322
O O1 0.355029 0.941313 0.414019
O O2 0.462063 0.886051 0.331740
O O3 0.500000 0.000000 0.406418
O O4 0.399728 0.011231 0.305388
O O5 0.703982 0.467910 0.918986
O O6 0.762286 0.353561 0.855305
O O7 0.766562 0.370565 0.000000
O O8 0.339218 0.135820 0.752282
O O9 0.266738 0.007482 0.751024
O O10 0.015403 0.134459 0.695276
O O11 0.936889 0.081486 0.592162
O O12 0.250000 0.750000 0.750000
O O13 0.152825 0.762894 0.846621
O O14 0.871406 0.119920 0.930225
O O15 0.823539 0.099268 0.801740
O O16 0.957513 0.148000 0.821084
O O17 0.995049 0.102169 0.000000
#
# Coordination Sequence:
#
# PCOD9545714 Si02
#       8
#    16  16  16  16  16  16   8  16
#     4  11  20  37  66  94 121 158 206 261 317 377
#     4  11  26  44  61  90 132 170 206 263 332 392
#     4  10  20  34  59  94 121 148 199 266 316 360
#     4  11  23  39  66  95 124 165 221 273 322 379
#     4  10  24  40  63  90 120 161 213 265 318 379
#     4  11  22  35  58  87 124 164 213 257 312 382
#     4  11  22  36  54  86 132 180 210 251 320 402
#     4  11  20  34  57  91 120 158 206 269 311 362
#
# _framework density 19.882770000000001
#
# number of rings (size 3 to 8) (size 9 to 14) (size 15 to 20)
#    0.000    1.267    5.333    0.800    4.667    1.067 
#    0.000    0.667    0.000    0.000    3.467    0.000 
#    0.000    0.000    0.000    0.000    0.000    0.000 
#
# Total GULP energy -335045.302524 kJ/mol
# GULP energy per Si atom -5584.088375 kJ/mol
# Density = 1.983752 g / cm^3
# Si number density = 19.882770 Si / 1000 Ang^3
#
#
#
# Elastic Constant Matrix: (Units=GPa)
#
#
# Indices 1 2 3 4 5 6 
#
# 1 73.8714 21.5617 13.2558 0.0000 0.0000 4.9505
# 2 21.5617 73.8714 13.2558 0.0000 0.0000 -4.9505
# 3 13.2558 13.2558 84.6030 0.0000 0.0000 0.0000
# 4 0.0000 0.0000 0.0000 10.6129 0.0000 0.0000
# 5 0.0000 0.0000 0.0000 0.0000 10.6129 0.0000
# 6 4.9505 -4.9505 0.0000 0.0000 0.0000 38.8794
#
#
#
# Elastic Compliance Matrix: (Units=1/GPa)
#
#
# Indices 1 2 3 4 5 6 
#
# 1 0.015272 -0.004317 -0.001717 0.000000 0.000000 -0.002494
# 2 -0.004317 0.015272 -0.001717 0.000000 0.000000 0.002494
# 3 -0.001717 -0.001717 0.012358 0.000000 0.000000 0.000000
# 4 0.000000 0.000000 0.000000 0.094225 0.000000 0.000000
# 5 0.000000 0.000000 0.000000 0.000000 0.094225 0.000000
# 6 -0.002494 0.002494 0.000000 0.000000 0.000000 0.026356
#
#
# Mechanical properties :
#
#
# Convention : Reuss Voigt Hill
#
# Bulk Modulus (GPa) = 36.49296 36.49914 36.49605
# Shear Modulus (GPa) = 17.70905 24.30589 21.00747
#
# Velocity S-wave (km/s) = 2.98765 3.50016 3.25401
# Velocity P-wave (km/s) = 5.50412 5.89338 5.70207
#
# Compressibility (1/GPa) = 0.02740254
#
# Stress axis : x y z
#
# Youngs Moduli (GPa) = 65.47840 65.47839 80.92053
#
# Poissons Ratio (x) = 0.28266 0.13890
# Poissons Ratio (y) = 0.28266 0.13890
# Poissons Ratio (z) = 0.11239 0.11239
#
# Static dielectric constant tensor:
#      x y z
#    x 1.732010 0.000000 0.000000 
#    y 0.000000 1.732010 0.000000 
#    z 0.000000 0.000000 1.675840 
# 
# From -- ./inp_files/5535.got.cif
#   From: 2010.05.17/outbox.cif.g08.bks.cpg/sg87_3_cif.got.tgz:5535.got - 2010.06.03 19:07:00.
