data_PCOD9545306
_publ_section_title
;
Structure prediction by ZEFSAII (Michael W. Deem and Ramdas Pophale) SiO2 
 PCOD9545306
Probable space group: P 42/N
;
_chemical_formula_sum "Si O2"
_cell_formula_units_Z 40
_cell_length_a 9.405686
_cell_length_b 9.405686
_cell_length_c 22.972720
_cell_angle_alpha 90.000000
_cell_angle_beta 90.000000
_cell_angle_gamma 90.000000
_cell_volume 2032.325992
_symmetry_space_group_name_H-M "P 42/N"
_symmetry_group_IT_number 86
_space_group.IT_coordinate_system_code '2'
_symmetry_cell_setting 'tetragonal'
loop_
_space_group_symop_operation_xyz
x,y,z
-y,1/2+x,1/2+z
1/2-x,1/2-y,z
1/2+y,-x,1/2+z
-x,-y,-z
y,1/2-x,1/2-z
1/2+x,1/2+y,-z
1/2-y,x,1/2-z
loop_
_atom_site_type_symbol
_atom_site_label
_atom_site_fract_x
_atom_site_fract_y
_atom_site_fract_z
Si Si1 0.423475 0.739427 0.673266
Si Si2 0.337262 0.397720 0.061665
Si Si3 0.899341 0.324674 0.547554
Si Si4 0.513422 0.019345 0.243186
Si Si5 0.777129 0.080002 0.176636
O O1 0.250000 0.750000 0.670733
O O2 0.499556 0.797650 0.615682
O O3 0.479052 0.582897 0.688228
O O4 0.482230 0.823984 0.729754
O O5 0.250000 0.250000 0.065450
O O6 0.507332 0.371896 0.059072
O O7 0.304099 0.485954 0.002987
O O8 0.750000 0.250000 0.532594
O O9 0.954156 0.262944 0.608916
O O10 0.463076 0.927586 0.297727
O O11 0.671028 0.998629 0.219354
O O12 0.750000 0.250000 0.180961
#
# Coordination Sequence:
#
# PCOD9545306 Si02
#       5
#     8   8   8   8   8
#     4  12  26  44  66 100 139 173 222 278 332 393
#     4  11  26  46  72 102 124 182 231 267 338 396
#     4  10  24  48  69  94 141 170 220 288 327 389
#     4  12  22  43  65  98 138 174 216 273 334 398
#     4  11  23  44  65  99 133 178 217 272 335 390
#
# _framework density 19.681882000000002
#
# number of rings (size 3 to 8) (size 9 to 14) (size 15 to 20)
#    0.000    0.800    6.000    0.600    8.400    1.200 
#   10.800    0.000    0.000    0.000    0.000    0.000 
#    0.000    0.000    0.000    0.000    0.000    0.000 
#
# Total GULP energy -223123.353586 kJ/mol
# GULP energy per Si atom -5578.083840 kJ/mol
# Density = 1.963708 g / cm^3
# Si number density = 19.681882 Si / 1000 Ang^3
#
#
#
# Elastic Constant Matrix: (Units=GPa)
#
#
# Indices 1 2 3 4 5 6 
#
# 1 57.6984 48.4559 27.3828 0.0000 0.0000 9.1805
# 2 48.4559 57.6984 27.3828 0.0000 0.0000 -9.1805
# 3 27.3828 27.3828 110.4014 0.0000 0.0000 0.0000
# 4 0.0000 0.0000 0.0000 -11.3981 0.0000 0.0000
# 5 0.0000 0.0000 0.0000 0.0000 -11.3981 0.0000
# 6 9.1805 -9.1805 0.0000 0.0000 0.0000 25.5346
#
#
#
# Elastic Compliance Matrix: (Units=1/GPa)
#
#
# Indices 1 2 3 4 5 6 
#
# 1 0.194712 -0.183910 -0.002679 0.000000 0.000000 -0.136126
# 2 -0.183910 0.194712 -0.002679 0.000000 0.000000 0.136126
# 3 -0.002679 -0.002679 0.010387 0.000000 0.000000 0.000000
# 4 0.000000 0.000000 0.000000 -0.087734 0.000000 0.000000
# 5 0.000000 0.000000 0.000000 0.000000 -0.087734 0.000000
# 6 -0.136126 0.136126 0.000000 0.000000 0.000000 0.137045
#
#
# Mechanical properties :
#
#
# Convention : Reuss Voigt Hill
#
# Bulk Modulus (GPa) = 47.00428 48.02680 47.51554
# Shear Modulus (GPa) = 6.69329 8.71946 7.70638
#
# Velocity S-wave (km/s) = 1.84611 2.10709 1.98090
# Velocity P-wave (km/s) = 5.33648 5.51128 5.42459
#
# Compressibility (1/GPa) = 0.02127466
#
# Stress axis : x y z
#
# Youngs Moduli (GPa) = 5.13579 5.13579 96.27452
#
# Poissons Ratio (x) = 0.94452 0.25795
# Poissons Ratio (y) = 0.94452 0.25795
# Poissons Ratio (z) = 0.01376 0.01376
#
# Static dielectric constant tensor:
#      x y z
#    x 1.690610 0.000000 0.000000 
#    y 0.000000 1.690610 0.000000 
#    z 0.000000 0.000000 1.673700 
# 
# From -- ./inp_files/4430.got.cif
#   From: 2010.05.17/outbox.cif.g08.bks.cpg/sg86_3_cif.got.tgz:4430.got - 2010.06.03 19:03:11.
