data_PCOD9545126
_publ_section_title
;
Structure prediction by ZEFSAII (Michael W. Deem and Ramdas Pophale) SiO2 
 PCOD9545126
Probable space group: P 42/N
;
_chemical_formula_sum "Si O2"
_cell_formula_units_Z 40
_cell_length_a 8.633704
_cell_length_b 8.633704
_cell_length_c 27.202655
_cell_angle_alpha 90.000000
_cell_angle_beta 90.000000
_cell_angle_gamma 90.000000
_cell_volume 2027.708883
_symmetry_space_group_name_H-M "P 42/N"
_symmetry_group_IT_number 86
_space_group.IT_coordinate_system_code '2'
_symmetry_cell_setting 'tetragonal'
loop_
_space_group_symop_operation_xyz
x,y,z
-y,1/2+x,1/2+z
1/2-x,1/2-y,z
1/2+y,-x,1/2+z
-x,-y,-z
y,1/2-x,1/2-z
1/2+x,1/2+y,-z
1/2-y,x,1/2-z
loop_
_atom_site_type_symbol
_atom_site_label
_atom_site_fract_x
_atom_site_fract_y
_atom_site_fract_z
Si Si1 0.787797 0.067655 0.862856
Si Si2 0.007082 0.055583 0.662885
Si Si3 0.250000 0.750000 0.392631
Si Si4 0.599602 0.545503 0.760864
Si Si5 0.463170 0.506575 0.942747
Si Si6 0.250000 0.250000 0.605987
O O1 0.750000 0.250000 0.863636
O O2 0.881886 0.016473 0.910569
O O3 0.621333 0.986245 0.855525
O O4 0.889942 0.024046 0.815046
O O5 0.871909 0.162463 0.641759
O O6 0.161485 0.127322 0.640148
O O7 0.002723 0.046875 0.721766
O O8 0.337680 0.875663 0.426099
O O9 0.546423 0.724375 0.760548
O O10 0.345183 0.370194 0.927060
O O11 0.500000 0.500000 0.000000
#
# Coordination Sequence:
#
# PCOD9545126 Si02
#       6
#     8   8   4   8   8   4
#     4  11  22  40  64  94 128 171 217 267 323 393
#     4  10  21  41  66  91 134 164 212 266 325 398
#     4  10  24  40  64  94 124 168 214 270 330 384
#     4   9  19  36  62  93 124 164 210 257 316 393
#     4  11  25  43  66  91 130 169 224 276 336 388
#     4  10  22  44  61 100 130 168 217 278 326 400
#
# _framework density 19.726700000000001
#
# number of rings (size 3 to 8) (size 9 to 14) (size 15 to 20)
#    0.000    1.800    2.000    1.200    2.800    4.000 
#    3.600    5.000    0.000    0.000    0.000    0.000 
#    0.000    0.000    0.000    0.000    0.000    0.000 
#
# Total GULP energy -223604.229689 kJ/mol
# GULP energy per Si atom -5590.105742 kJ/mol
# Density = 1.968180 g / cm^3
# Si number density = 19.726700 Si / 1000 Ang^3
#
#
#
# Elastic Constant Matrix: (Units=GPa)
#
#
# Indices 1 2 3 4 5 6 
#
# 1 47.8078 1.6928 33.6862 0.0000 0.0000 3.9717
# 2 1.6928 47.8078 33.6862 0.0000 0.0000 -3.9717
# 3 33.6862 33.6862 156.7464 0.0000 0.0000 0.0000
# 4 0.0000 0.0000 0.0000 18.8247 0.0000 0.0000
# 5 0.0000 0.0000 0.0000 0.0000 18.8247 0.0000
# 6 3.9717 -3.9717 0.0000 0.0000 0.0000 27.2453
#
#
#
# Elastic Compliance Matrix: (Units=1/GPa)
#
#
# Indices 1 2 3 4 5 6 
#
# 1 0.025399 0.003155 -0.006136 0.000000 0.000000 -0.003243
# 2 0.003155 0.025399 -0.006136 0.000000 0.000000 0.003243
# 3 -0.006136 -0.006136 0.009017 0.000000 0.000000 0.000000
# 4 0.000000 0.000000 0.000000 0.053122 0.000000 0.000000
# 5 0.000000 0.000000 0.000000 0.000000 0.053122 0.000000
# 6 -0.003243 0.003243 0.000000 0.000000 0.000000 0.037649
#
#
# Mechanical properties :
#
#
# Convention : Reuss Voigt Hill
#
# Bulk Modulus (GPa) = 24.05066 43.38807 33.71936
# Shear Modulus (GPa) = 21.20425 25.19874 23.20149
#
# Velocity S-wave (km/s) = 3.28213 3.57794 3.43322
# Velocity P-wave (km/s) = 5.15573 6.25390 5.73118
#
# Compressibility (1/GPa) = 0.04157890
#
# Stress axis : x y z
#
# Youngs Moduli (GPa) = 39.37228 39.37228 110.89801
#
# Poissons Ratio (x) = -0.12422 0.68052
# Poissons Ratio (y) = -0.12422 0.68052
# Poissons Ratio (z) = 0.24161 0.24161
#
# Static dielectric constant tensor:
#      x y z
#    x 1.702280 0.000000 0.000000 
#    y 0.000000 1.702280 0.000000 
#    z 0.000000 0.000000 1.645700 
# 
# From -- ./inp_files/4512.got.cif
#   From: 2010.05.17/outbox.cif.g08.bks.cpg/sg86_3_cif.got.tgz:4512.got - 2010.06.03 19:03:11.
