data_PCOD9545833
_publ_section_title
;
Structure prediction by ZEFSAII (Michael W. Deem and Ramdas Pophale) SiO2 
 PCOD9545833
Probable space group: I 4/M
;
_chemical_formula_sum "Si O2"
_cell_formula_units_Z 80
_cell_length_a 14.649980
_cell_length_b 14.649980
_cell_length_c 19.535839
_cell_angle_alpha 90.000000
_cell_angle_beta 90.000000
_cell_angle_gamma 90.000000
_cell_volume 4192.819158
_symmetry_space_group_name_H-M "I 4/M"
_symmetry_group_IT_number 87
_symmetry_cell_setting 'tetragonal'
loop_
_space_group_symop_operation_xyz
x,y,z
-y,x,z
-x,-y,z
y,-x,z
-x,-y,-z
y,-x,-z
x,y,-z
-y,x,-z
1/2+x,1/2+y,1/2+z
1/2-y,1/2+x,1/2+z
1/2-x,1/2-y,1/2+z
1/2+y,1/2-x,1/2+z
1/2-x,1/2-y,1/2-z
1/2+y,1/2-x,1/2-z
1/2+x,1/2+y,1/2-z
1/2-y,1/2+x,1/2-z
loop_
_atom_site_type_symbol
_atom_site_label
_atom_site_fract_x
_atom_site_fract_y
_atom_site_fract_z
Si Si1 0.486509 0.229675 0.283320
Si Si2 0.950356 0.405965 0.662278
Si Si3 0.312028 0.697601 0.306332
Si Si4 0.496588 0.755590 0.920986
Si Si5 0.201971 0.801420 0.583283
O O1 0.433062 0.154221 0.328794
O O2 0.512564 0.170797 0.215367
O O3 0.408491 0.306914 0.283491
O O4 0.584182 0.266375 0.307432
O O5 0.976893 0.362245 0.590292
O O6 0.000000 0.500000 0.674610
O O7 0.250000 0.750000 0.250000
O O8 0.265031 0.728246 0.377903
O O9 0.403562 0.710101 0.893862
O O10 0.596872 0.731709 0.894683
O O11 0.499998 0.729660 0.000000
O O12 0.207730 0.792251 0.500000
#
# Coordination Sequence:
#
# PCOD9545833 Si02
#       5
#    16  16  16  16  16
#     4  12  22  37  62  88 116 158 193 246 300 351
#     4  12  20  36  59  89 115 153 203 243 295 354
#     4  12  23  40  62  88 121 155 200 248 296 355
#     4  10  21  36  57  84 120 158 197 244 297 354
#     4  10  21  38  58  87 122 158 198 247 299 354
#
# _framework density 19.08024
#
# number of rings (size 3 to 8) (size 9 to 14) (size 15 to 20)
#    0.000    0.800    6.000    2.400    0.000    1.200 
#    0.000    4.000    0.000    4.800    0.000    1.400 
#    0.000    0.000    0.000    0.000    0.000    0.000 
#
# Total GULP energy -222815.491006 kJ/mol
# GULP energy per Si atom -5570.387275 kJ/mol
# Density = 1.903681 g / cm^3
# Si number density = 19.080240 Si / 1000 Ang^3
#
#
#
# Elastic Constant Matrix: (Units=GPa)
#
#
# Indices 1 2 3 4 5 6 
#
# 1 120.3675 61.8334 29.0426 0.0000 0.0000 2.5486
# 2 61.8334 120.3675 29.0426 0.0000 0.0000 -2.5486
# 3 29.0426 29.0426 39.8397 0.0000 0.0000 0.0000
# 4 0.0000 0.0000 0.0000 22.9102 0.0000 0.0000
# 5 0.0000 0.0000 0.0000 0.0000 22.9102 0.0000
# 6 2.5486 -2.5486 0.0000 0.0000 0.0000 23.1305
#
#
#
# Elastic Compliance Matrix: (Units=1/GPa)
#
#
# Indices 1 2 3 4 5 6 
#
# 1 0.012200 -0.005050 -0.005212 0.000000 0.000000 -0.001901
# 2 -0.005050 0.012200 -0.005212 0.000000 0.000000 0.001901
# 3 -0.005212 -0.005212 0.032700 0.000000 0.000000 0.000000
# 4 0.000000 0.000000 0.000000 0.043649 0.000000 0.000000
# 5 0.000000 0.000000 0.000000 0.000000 0.043649 0.000000
# 6 -0.001901 0.001901 0.000000 0.000000 0.000000 0.043652
#
#
# Mechanical properties :
#
#
# Convention : Reuss Voigt Hill
#
# Bulk Modulus (GPa) = 38.23958 57.82355 48.03157
# Shear Modulus (GPa) = 21.95729 24.50058 23.22894
#
# Velocity S-wave (km/s) = 3.39601 3.58730 3.49296
# Velocity P-wave (km/s) = 5.95501 6.89416 6.44172
#
# Compressibility (1/GPa) = 0.02615092
#
# Stress axis : x y z
#
# Youngs Moduli (GPa) = 81.96819 81.96819 30.58099
#
# Poissons Ratio (x) = 0.41392 0.15940
# Poissons Ratio (y) = 0.41392 0.15940
# Poissons Ratio (z) = 0.42725 0.42725
#
# Static dielectric constant tensor:
#      x y z
#    x 1.749300 0.000000 0.000000 
#    y 0.000000 1.749300 0.000000 
#    z 0.000000 0.000000 1.756310 
# 
# From -- ./inp_files/5058.got.cif
#   From: 2010.05.17/outbox.cif.g08.bks.cpg/sg87_3_cif.got.tgz:5058.got - 2010.06.03 19:07:00.
