data_PCOD9545519
_publ_section_title
;
Structure prediction by ZEFSAII (Michael W. Deem and Ramdas Pophale) SiO2 
 PCOD9545519
Probable space group: I 4/M
;
_chemical_formula_sum "Si O2"
_cell_formula_units_Z 96
_cell_length_a 16.494548
_cell_length_b 16.494548
_cell_length_c 17.882170
_cell_angle_alpha 90.000000
_cell_angle_beta 90.000000
_cell_angle_gamma 90.000000
_cell_volume 4865.204026
_symmetry_space_group_name_H-M "I 4/M"
_symmetry_group_IT_number 87
_symmetry_cell_setting 'tetragonal'
loop_
_space_group_symop_operation_xyz
x,y,z
-y,x,z
-x,-y,z
y,-x,z
-x,-y,-z
y,-x,-z
x,y,-z
-y,x,-z
1/2+x,1/2+y,1/2+z
1/2-y,1/2+x,1/2+z
1/2-x,1/2-y,1/2+z
1/2+y,1/2-x,1/2+z
1/2-x,1/2-y,1/2-z
1/2+y,1/2-x,1/2-z
1/2+x,1/2+y,1/2-z
1/2-y,1/2+x,1/2-z
loop_
_atom_site_type_symbol
_atom_site_label
_atom_site_fract_x
_atom_site_fract_y
_atom_site_fract_z
Si Si1 0.466034 0.368178 0.912661
Si Si2 0.479482 0.877540 0.274548
Si Si3 0.373776 0.548381 0.361014
Si Si4 0.382837 0.294013 0.784932
Si Si5 0.848647 0.297205 0.689802
Si Si6 0.928549 0.693640 0.915246
O O1 0.555480 0.405097 0.899085
O O2 0.438713 0.296337 0.858089
O O3 0.460906 0.346460 0.000000
O O4 0.549233 0.915494 0.222366
O O5 0.434084 0.807516 0.230413
O O6 0.511864 0.846697 0.353672
O O7 0.398769 0.454885 0.375280
O O8 0.348720 0.569762 0.275799
O O9 0.291532 0.569159 0.405790
O O10 0.351125 0.214748 0.740014
O O11 0.295943 0.327806 0.810319
O O12 0.840197 0.340750 0.610106
O O13 0.948425 0.672578 0.000000
#
# Coordination Sequence:
#
# PCOD9545519 Si02
#       6
#    16  16  16  16  16  16
#     4   9  18  31  47  72 106 139 171 212 261 308
#     4   9  18  36  57  75 100 138 177 222 273 316
#     4  10  20  33  53  82 111 143 183 219 257 317
#     4  10  18  32  53  75 103 141 180 218 265 319
#     4   9  20  35  53  78 104 135 181 229 267 314
#     4  10  21  37  56  79 110 144 178 222 278 331
#
# _framework density 19.731957000000001
#
# number of rings (size 3 to 8) (size 9 to 14) (size 15 to 20)
#    0.000    2.500    0.000    2.500    0.000    5.333 
#    0.000    8.333    0.000    0.000    0.000    0.000 
#    0.000    0.000    0.000    0.000    0.000    0.000 
#
# Total GULP energy -267426.770644 kJ/mol
# GULP energy per Si atom -5571.391055 kJ/mol
# Density = 1.968705 g / cm^3
# Si number density = 19.731957 Si / 1000 Ang^3
#
#
#
# Elastic Constant Matrix: (Units=GPa)
#
#
# Indices 1 2 3 4 5 6 
#
# 1 40.5050 32.0221 39.6837 0.0000 0.0000 -3.2253
# 2 32.0221 40.5050 39.6837 0.0000 0.0000 3.2253
# 3 39.6837 39.6837 113.8181 0.0000 0.0000 0.0000
# 4 0.0000 0.0000 0.0000 21.0272 0.0000 0.0000
# 5 0.0000 0.0000 0.0000 0.0000 21.0272 0.0000
# 6 -3.2253 3.2253 0.0000 0.0000 0.0000 24.4650
#
#
#
# Elastic Compliance Matrix: (Units=1/GPa)
#
#
# Indices 1 2 3 4 5 6 
#
# 1 0.076656 -0.054362 -0.007773 0.000000 0.000000 0.017273
# 2 -0.054362 0.076656 -0.007773 0.000000 0.000000 -0.017273
# 3 -0.007773 -0.007773 0.014206 0.000000 0.000000 0.000000
# 4 0.000000 0.000000 0.000000 0.047557 0.000000 0.000000
# 5 0.000000 0.000000 0.000000 0.000000 0.047557 0.000000
# 6 0.017273 -0.017273 0.000000 0.000000 0.000000 0.045429
#
#
# Mechanical properties :
#
#
# Convention : Reuss Voigt Hill
#
# Bulk Modulus (GPa) = 36.09816 46.40080 41.24948
# Shear Modulus (GPa) = 10.93819 18.86645 14.90232
#
# Velocity S-wave (km/s) = 2.35699 3.09550 2.75114
# Velocity P-wave (km/s) = 5.07358 6.02850 5.57153
#
# Compressibility (1/GPa) = 0.02770224
#
# Stress axis : x y z
#
# Youngs Moduli (GPa) = 13.04522 13.04522 70.39181
#
# Poissons Ratio (x) = 0.70917 0.54716
# Poissons Ratio (y) = 0.70917 0.54716
# Poissons Ratio (z) = 0.10140 0.10140
#
# Static dielectric constant tensor:
#      x y z
#    x 1.731210 0.000000 0.000000 
#    y 0.000000 1.731210 0.000000 
#    z 0.000000 0.000000 1.679340 
# 
# From -- ./inp_files/4411.got.cif
#   From: 2010.05.17/outbox.cif.g08.bks.cpg/sg87_3_cif.got.tgz:4411.got - 2010.06.03 19:07:00.
