data_PCOD9545466
_publ_section_title
;
Structure prediction by ZEFSAII (Michael W. Deem and Ramdas Pophale) SiO2 
 PCOD9545466
Probable space group: P 42/N
;
_chemical_formula_sum "Si O2"
_cell_formula_units_Z 24
_cell_length_a 8.439460
_cell_length_b 8.439460
_cell_length_c 15.040695
_cell_angle_alpha 90.000000
_cell_angle_beta 90.000000
_cell_angle_gamma 90.000000
_cell_volume 1071.265757
_symmetry_space_group_name_H-M "P 42/N"
_symmetry_group_IT_number 86
_space_group.IT_coordinate_system_code '2'
_symmetry_cell_setting 'tetragonal'
loop_
_space_group_symop_operation_xyz
x,y,z
-y,1/2+x,1/2+z
1/2-x,1/2-y,z
1/2+y,-x,1/2+z
-x,-y,-z
y,1/2-x,1/2-z
1/2+x,1/2+y,-z
1/2-y,x,1/2-z
loop_
_atom_site_type_symbol
_atom_site_label
_atom_site_fract_x
_atom_site_fract_y
_atom_site_fract_z
Si Si1 0.910034 0.358048 0.681919
Si Si2 0.449023 0.069088 0.863914
Si Si3 0.244744 0.939758 0.478298
O O1 0.750000 0.250000 0.691144
O O2 0.883146 0.465996 0.594352
O O3 0.946405 0.436766 0.775323
O O4 0.048336 0.232452 0.663787
O O5 0.484376 0.912880 0.922595
O O6 0.480892 0.219940 0.926528
O O7 0.250000 0.750000 0.495262
#
# Coordination Sequence:
#
# PCOD9545466 Si02
#       3
#     8   8   8
#     4   9  18  30  51  77  99 135 169 201 255 300
#     4   9  16  30  50  74 105 130 167 211 246 302
#     4   8  16  30  51  75  98 135 172 205 252 298
#
# _framework density 22.403407000000001
#
# number of rings (size 3 to 8) (size 9 to 14) (size 15 to 20)
#    0.000    4.000    0.000    1.000    0.000    0.667 
#    0.000    1.667    0.000   32.000    0.000    0.000 
#    0.000    0.000    0.000    0.000    0.000    0.000 
#
# Total GULP energy -133682.461800 kJ/mol
# GULP energy per Si atom -5570.102575 kJ/mol
# Density = 2.235242 g / cm^3
# Si number density = 22.403407 Si / 1000 Ang^3
#
#
#
# Elastic Constant Matrix: (Units=GPa)
#
#
# Indices 1 2 3 4 5 6 
#
# 1 51.0854 35.4544 46.2019 0.0000 0.0000 -1.2711
# 2 35.4544 51.0854 46.2019 0.0000 0.0000 1.2711
# 3 46.2019 46.2019 142.5659 0.0000 0.0000 0.0000
# 4 0.0000 0.0000 0.0000 13.6974 0.0000 0.0000
# 5 0.0000 0.0000 0.0000 0.0000 13.6974 0.0000
# 6 -1.2711 1.2711 0.0000 0.0000 0.0000 25.0004
#
#
#
# Elastic Compliance Matrix: (Units=1/GPa)
#
#
# Indices 1 2 3 4 5 6 
#
# 1 0.041089 -0.023420 -0.005726 0.000000 0.000000 0.003280
# 2 -0.023420 0.041089 -0.005726 0.000000 0.000000 -0.003280
# 3 -0.005726 -0.005726 0.010726 0.000000 0.000000 0.000000
# 4 0.000000 0.000000 0.000000 0.073006 0.000000 0.000000
# 5 0.000000 0.000000 0.000000 0.000000 0.073006 0.000000
# 6 0.003280 -0.003280 0.000000 0.000000 0.000000 0.040333
#
#
# Mechanical properties :
#
#
# Convention : Reuss Voigt Hill
#
# Bulk Modulus (GPa) = 43.17787 55.60590 49.39188
# Shear Modulus (GPa) = 14.01681 18.27094 16.14388
#
# Velocity S-wave (km/s) = 2.50402 2.85887 2.68731
# Velocity P-wave (km/s) = 5.26070 5.98094 5.63234
#
# Compressibility (1/GPa) = 0.02316001
#
# Stress axis : x y z
#
# Youngs Moduli (GPa) = 24.33724 24.33724 93.23323
#
# Poissons Ratio (x) = 0.56997 0.53388
# Poissons Ratio (y) = 0.56997 0.53388
# Poissons Ratio (z) = 0.13936 0.13936
#
# Static dielectric constant tensor:
#      x y z
#    x 1.886290 0.000000 0.000000 
#    y 0.000000 1.886290 0.000000 
#    z 0.000000 0.000000 1.883910 
# 
# From -- ./inp_files/2603.got.cif
#   From: 2010.05.17/outbox.cif.g08.bks.cpg/sg86_2_cif.got.tgz:2603.got - 2010.06.03 19:03:11.
