data_PCOD9545860
_publ_section_title
;
Structure prediction by ZEFSAII (Michael W. Deem and Ramdas Pophale) SiO2 
 PCOD9545860
Probable space group: I 4/M
;
_chemical_formula_sum "Si O2"
_cell_formula_units_Z 96
_cell_length_a 15.831057
_cell_length_b 15.831057
_cell_length_c 20.389025
_cell_angle_alpha 90.000000
_cell_angle_beta 90.000000
_cell_angle_gamma 90.000000
_cell_volume 5109.945681
_symmetry_space_group_name_H-M "I 4/M"
_symmetry_group_IT_number 87
_symmetry_cell_setting 'tetragonal'
loop_
_space_group_symop_operation_xyz
x,y,z
-y,x,z
-x,-y,z
y,-x,z
-x,-y,-z
y,-x,-z
x,y,-z
-y,x,-z
1/2+x,1/2+y,1/2+z
1/2-y,1/2+x,1/2+z
1/2-x,1/2-y,1/2+z
1/2+y,1/2-x,1/2+z
1/2-x,1/2-y,1/2-z
1/2+y,1/2-x,1/2-z
1/2+x,1/2+y,1/2-z
1/2-y,1/2+x,1/2-z
loop_
_atom_site_type_symbol
_atom_site_label
_atom_site_fract_x
_atom_site_fract_y
_atom_site_fract_z
Si Si1 0.975781 0.762910 0.923074
Si Si2 0.826448 0.859534 0.856815
Si Si3 0.052951 0.383183 0.282338
Si Si4 0.894994 0.906166 0.288088
Si Si5 0.682585 0.754100 0.807560
Si Si6 0.918058 0.557546 0.572749
O O1 0.892678 0.793294 0.885822
O O2 0.055374 0.817700 0.898696
O O3 0.001682 0.665141 0.912365
O O4 0.962769 0.774876 0.000000
O O5 0.861492 0.887255 0.785556
O O6 0.732906 0.816883 0.855687
O O7 0.105643 0.459620 0.247704
O O8 0.100102 0.295224 0.273686
O O9 0.058631 0.392480 0.361035
O O10 0.841512 0.839302 0.331155
O O11 0.993938 0.885560 0.297883
O O12 0.750000 0.750000 0.750000
O O13 0.903947 0.598442 0.500000
O O14 0.000000 0.500000 0.565639
#
# Coordination Sequence:
#
# PCOD9545860 Si02
#       6
#    16  16  16  16  16  16
#     4  11  23  38  59  83 115 156 201 240 285 359
#     4  11  21  38  55  81 116 151 196 240 287 345
#     4  11  22  36  58  87 113 151 196 246 292 360
#     4  10  21  38  56  78 114 156 188 239 297 354
#     4  10  24  33  55  82 113 152 190 247 294 342
#     4  10  21  39  58  83 117 155 190 240 304 357
#
# _framework density 18.786892999999999
#
# number of rings (size 3 to 8) (size 9 to 14) (size 15 to 20)
#    0.000    1.500    5.000    0.500    9.333    0.333 
#    0.000    0.833    0.000    0.000    0.000    0.000 
#    0.000    0.000    0.000   13.167    0.000    0.000 
#
# Total GULP energy -267351.488546 kJ/mol
# GULP energy per Si atom -5569.822678 kJ/mol
# Density = 1.874413 g / cm^3
# Si number density = 18.786893 Si / 1000 Ang^3
#
#
#
# Elastic Constant Matrix: (Units=GPa)
#
#
# Indices 1 2 3 4 5 6 
#
# 1 71.1770 22.5366 2.8417 0.0000 0.0000 -0.4167
# 2 22.5366 71.1770 2.8417 0.0000 0.0000 0.4167
# 3 2.8417 2.8417 52.8367 0.0000 0.0000 0.0000
# 4 0.0000 0.0000 0.0000 -6.3185 0.0000 0.0000
# 5 0.0000 0.0000 0.0000 0.0000 -6.3185 0.0000
# 6 -0.4167 0.4167 0.0000 0.0000 0.0000 25.6262
#
#
#
# Elastic Compliance Matrix: (Units=1/GPa)
#
#
# Indices 1 2 3 4 5 6 
#
# 1 0.015635 -0.004930 -0.000576 0.000000 0.000000 0.000334
# 2 -0.004930 0.015635 -0.000576 0.000000 0.000000 -0.000334
# 3 -0.000576 -0.000576 0.018988 0.000000 0.000000 0.000000
# 4 0.000000 0.000000 0.000000 -0.158266 0.000000 0.000000
# 5 0.000000 0.000000 0.000000 0.000000 -0.158266 0.000000
# 6 0.000334 -0.000334 0.000000 0.000000 0.000000 0.039033
#
#
# Mechanical properties :
#
#
# Convention : Reuss Voigt Hill
#
# Bulk Modulus (GPa) = 26.24913 27.95896 27.10404
# Shear Modulus (GPa) = -24.70609 13.72924 -5.48843
#
# Velocity S-wave (km/s) = -3.63032 2.70624 -1.71107
# Velocity P-wave (km/s) = 1.88944 4.96784 3.24881
#
# Compressibility (1/GPa) = 0.03809651
#
# Stress axis : x y z
#
# Youngs Moduli (GPa) = 63.95808 63.95808 52.66439
#
# Poissons Ratio (x) = 0.31528 0.03032
# Poissons Ratio (y) = 0.31528 0.03032
# Poissons Ratio (z) = 0.03683 0.03683
#
# Static dielectric constant tensor:
#      x y z
#    x 1.720390 0.000000 0.000000 
#    y 0.000000 1.720390 0.000000 
#    z 0.000000 0.000000 1.765660 
# 
# From -- ./inp_files/5318.got.cif
#   From: 2010.05.17/outbox.cif.g08.bks.cpg/sg87_3_cif.got.tgz:5318.got - 2010.06.03 19:07:00.
