data_PCOD9545736
_publ_section_title
;
Structure prediction by ZEFSAII (Michael W. Deem and Ramdas Pophale) SiO2 
 PCOD9545736
Probable space group: I 4/M
;
_chemical_formula_sum "Si O2"
_cell_formula_units_Z 96
_cell_length_a 20.388310
_cell_length_b 20.388310
_cell_length_c 13.624265
_cell_angle_alpha 90.000000
_cell_angle_beta 90.000000
_cell_angle_gamma 90.000000
_cell_volume 5663.377864
_symmetry_space_group_name_H-M "I 4/M"
_symmetry_group_IT_number 87
_symmetry_cell_setting 'tetragonal'
loop_
_space_group_symop_operation_xyz
x,y,z
-y,x,z
-x,-y,z
y,-x,z
-x,-y,-z
y,-x,-z
x,y,-z
-y,x,-z
1/2+x,1/2+y,1/2+z
1/2-y,1/2+x,1/2+z
1/2-x,1/2-y,1/2+z
1/2+y,1/2-x,1/2+z
1/2-x,1/2-y,1/2-z
1/2+y,1/2-x,1/2-z
1/2+x,1/2+y,1/2-z
1/2-y,1/2+x,1/2-z
loop_
_atom_site_type_symbol
_atom_site_label
_atom_site_fract_x
_atom_site_fract_y
_atom_site_fract_z
Si Si1 0.628768 0.692973 0.743953
Si Si2 0.268365 0.976360 0.116571
Si Si3 0.105105 0.529377 0.751517
Si Si4 0.622832 0.265719 0.387056
Si Si5 0.564468 0.589494 0.111865
Si Si6 0.876508 0.685305 0.612486
O O1 0.580120 0.724119 0.663682
O O2 0.692280 0.665591 0.688205
O O3 0.595879 0.634639 0.805795
O O4 0.638773 0.751321 0.821813
O O5 0.233546 0.045920 0.137680
O O6 0.340351 0.975234 0.166223
O O7 0.274522 0.969572 0.000000
O O8 0.075374 0.457495 0.773619
O O9 0.143906 0.564007 0.840699
O O10 0.632211 0.288751 0.500000
O O11 0.642606 0.189509 0.384710
O O12 0.485645 0.588086 0.121124
O O13 0.580264 0.611317 0.000000
O O14 0.890849 0.702892 0.500000
#
# Coordination Sequence:
#
# PCOD9545736 Si02
#       6
#    16  16  16  16  16  16
#     4  11  20  33  55  80 105 140 183 221 260 316
#     4  10  21  36  54  79 111 144 180 223 270 317
#     4  10  20  35  58  83 105 137 182 224 266 322
#     4  10  20  36  54  74 105 142 178 218 268 320
#     4   9  18  33  53  78 107 139 175 217 267 316
#     4  10  21  36  54  78 108 141 175 217 272 324
#
# _framework density 16.951015000000002
#
# number of rings (size 3 to 8) (size 9 to 14) (size 15 to 20)
#    0.000    2.000    1.667    3.000    0.000    0.667 
#    0.000    1.667    0.000    2.000    0.000    7.000 
#    0.000    0.000    0.000    0.000    0.000    0.000 
#
# Total GULP energy -267704.467329 kJ/mol
# GULP energy per Si atom -5577.176403 kJ/mol
# Density = 1.691243 g / cm^3
# Si number density = 16.951015 Si / 1000 Ang^3
#
#
#
# Elastic Constant Matrix: (Units=GPa)
#
#
# Indices 1 2 3 4 5 6 
#
# 1 51.8656 16.0467 47.1709 0.0000 0.0000 -4.3221
# 2 16.0467 51.8656 47.1709 0.0000 0.0000 4.3221
# 3 47.1709 47.1709 105.0670 0.0000 0.0000 0.0000
# 4 0.0000 0.0000 0.0000 22.6910 0.0000 0.0000
# 5 0.0000 0.0000 0.0000 0.0000 22.6910 0.0000
# 6 -4.3221 4.3221 0.0000 0.0000 0.0000 24.7581
#
#
#
# Elastic Compliance Matrix: (Units=1/GPa)
#
#
# Indices 1 2 3 4 5 6 
#
# 1 0.034137 0.004991 -0.017567 0.000000 0.000000 0.005088
# 2 0.004991 0.034137 -0.017567 0.000000 0.000000 -0.005088
# 3 -0.017567 -0.017567 0.025292 0.000000 0.000000 0.000000
# 4 0.000000 0.000000 0.000000 0.044070 0.000000 0.000000
# 5 0.000000 0.000000 0.000000 0.000000 0.044070 0.000000
# 6 0.005088 -0.005088 0.000000 0.000000 0.000000 0.042167
#
#
# Mechanical properties :
#
#
# Convention : Reuss Voigt Hill
#
# Bulk Modulus (GPa) = 30.04782 47.73057 38.88919
# Shear Modulus (GPa) = 16.93453 20.58866 18.76160
#
# Velocity S-wave (km/s) = 3.16417 3.48889 3.33049
# Velocity P-wave (km/s) = 5.57800 6.66700 6.14666
#
# Compressibility (1/GPa) = 0.03328028
#
# Stress axis : x y z
#
# Youngs Moduli (GPa) = 29.29331 29.29331 39.53855
#
# Poissons Ratio (x) = -0.14621 0.69459
# Poissons Ratio (y) = -0.14621 0.69459
# Poissons Ratio (z) = 0.51460 0.51460
#
# Static dielectric constant tensor:
#      x y z
#    x 1.560400 0.000000 0.000000 
#    y 0.000000 1.560400 0.000000 
#    z 0.000000 0.000000 1.556170 
# 
# From -- ./inp_files/2739.got.cif
#   From: 2010.05.17/outbox.cif.g08.bks.cpg/sg87_2_cif.got.tgz:2739.got - 2010.06.03 19:07:00.
