data_PCOD9545852
_publ_section_title
;
Structure prediction by ZEFSAII (Michael W. Deem and Ramdas Pophale) SiO2 
 PCOD9545852
Probable space group: I 4/M
;
_chemical_formula_sum "Si O2"
_cell_formula_units_Z 96
_cell_length_a 20.213131
_cell_length_b 20.213131
_cell_length_c 12.650991
_cell_angle_alpha 90.000000
_cell_angle_beta 90.000000
_cell_angle_gamma 90.000000
_cell_volume 5168.823804
_symmetry_space_group_name_H-M "I 4/M"
_symmetry_group_IT_number 87
_symmetry_cell_setting 'tetragonal'
loop_
_space_group_symop_operation_xyz
x,y,z
-y,x,z
-x,-y,z
y,-x,z
-x,-y,-z
y,-x,-z
x,y,-z
-y,x,-z
1/2+x,1/2+y,1/2+z
1/2-y,1/2+x,1/2+z
1/2-x,1/2-y,1/2+z
1/2+y,1/2-x,1/2+z
1/2-x,1/2-y,1/2-z
1/2+y,1/2-x,1/2-z
1/2+x,1/2+y,1/2-z
1/2-y,1/2+x,1/2-z
loop_
_atom_site_type_symbol
_atom_site_label
_atom_site_fract_x
_atom_site_fract_y
_atom_site_fract_z
Si Si1 0.368818 0.129036 0.740282
Si Si2 0.662402 0.001984 0.623257
Si Si3 0.178045 0.236053 0.203364
Si Si4 0.030115 0.812521 0.685479
Si Si5 0.264292 0.393784 0.621405
Si Si6 0.893664 0.843788 0.621230
O O1 0.372522 0.063353 0.670195
O O2 0.434567 0.142340 0.807470
O O3 0.351967 0.193871 0.668973
O O4 0.305883 0.119946 0.819900
O O5 0.647879 0.012222 0.500000
O O6 0.740946 0.987472 0.637150
O O7 0.250000 0.250000 0.250000
O O8 0.190725 0.172914 0.129110
O O9 0.134042 0.212126 0.301599
O O10 0.050326 0.799533 0.807074
O O11 0.094261 0.844913 0.632784
O O12 0.967117 0.858165 0.663270
O O13 0.254623 0.411850 0.500000
O O14 0.896234 0.822399 0.500000
#
# Coordination Sequence:
#
# PCOD9545852 Si02
#       6
#    16  16  16  16  16  16
#     4  10  21  37  59  88 119 150 202 247 295 371
#     4  11  22  40  62  85 119 158 195 251 312 353
#     4   9  19  33  55  88 117 146 198 247 288 355
#     4  10  22  36  57  90 122 154 203 243 289 366
#     4   9  19  37  59  84 118 159 201 247 297 346
#     4  11  20  35  59  87 122 158 190 243 306 352
#
# _framework density 18.572890000000001
#
# number of rings (size 3 to 8) (size 9 to 14) (size 15 to 20)
#    0.000    2.000    1.667    3.000    0.000    4.000 
#    0.000    9.167    0.000    0.000    0.000    4.667 
#    0.000    0.000    0.000    0.000    0.000    0.000 
#
# Total GULP energy -267641.497503 kJ/mol
# GULP energy per Si atom -5575.864531 kJ/mol
# Density = 1.853062 g / cm^3
# Si number density = 18.572890 Si / 1000 Ang^3
#
#
#
# Elastic Constant Matrix: (Units=GPa)
#
#
# Indices 1 2 3 4 5 6 
#
# 1 75.6408 7.2039 0.0273 0.0000 0.0000 -3.2631
# 2 7.2039 75.6408 0.0273 0.0000 0.0000 3.2631
# 3 0.0273 0.0273 51.4682 0.0000 0.0000 0.0000
# 4 0.0000 0.0000 0.0000 7.7349 0.0000 0.0000
# 5 0.0000 0.0000 0.0000 0.0000 7.7349 0.0000
# 6 -3.2631 3.2631 0.0000 0.0000 0.0000 21.6049
#
#
#
# Elastic Compliance Matrix: (Units=1/GPa)
#
#
# Indices 1 2 3 4 5 6 
#
# 1 0.013448 -0.001377 -0.000006 0.000000 0.000000 0.002239
# 2 -0.001377 0.013448 -0.000006 0.000000 0.000000 -0.002239
# 3 -0.000006 -0.000006 0.019429 0.000000 0.000000 0.000000
# 4 0.000000 0.000000 0.000000 0.129284 0.000000 0.000000
# 5 0.000000 0.000000 0.000000 0.000000 0.129284 0.000000
# 6 0.002239 -0.002239 0.000000 0.000000 0.000000 0.046962
#
#
# Mechanical properties :
#
#
# Convention : Reuss Voigt Hill
#
# Bulk Modulus (GPa) = 22.96455 24.14078 23.55267
# Shear Modulus (GPa) = 13.54456 20.44768 16.99612
#
# Velocity S-wave (km/s) = 2.70342 3.32164 3.02835
# Velocity P-wave (km/s) = 4.70490 5.26661 4.99366
#
# Compressibility (1/GPa) = 0.04354538
#
# Stress axis : x y z
#
# Youngs Moduli (GPa) = 74.35964 74.35964 51.46819
#
# Poissons Ratio (x) = 0.10242 0.00033
# Poissons Ratio (y) = 0.10242 0.00033
# Poissons Ratio (z) = 0.00048 0.00048
#
# Static dielectric constant tensor:
#      x y z
#    x 1.634430 0.000000 0.000000 
#    y 0.000000 1.634430 0.000000 
#    z 0.000000 0.000000 1.613880 
# 
# From -- ./inp_files/2750.got.cif
#   From: 2010.05.17/outbox.cif.g08.bks.cpg/sg87_2_cif.got.tgz:2750.got - 2010.06.03 19:07:00.
