data_PCOD9545171
_publ_section_title
;
Structure prediction by ZEFSAII (Michael W. Deem and Ramdas Pophale) SiO2 
 PCOD9545171
Probable space group: P 42/N
;
_chemical_formula_sum "Si O2"
_cell_formula_units_Z 36
_cell_length_a 10.684925
_cell_length_b 10.684925
_cell_length_c 13.266856
_cell_angle_alpha 90.000000
_cell_angle_beta 90.000000
_cell_angle_gamma 90.000000
_cell_volume 1514.645404
_symmetry_space_group_name_H-M "P 42/N"
_symmetry_group_IT_number 86
_space_group.IT_coordinate_system_code '2'
_symmetry_cell_setting 'tetragonal'
loop_
_space_group_symop_operation_xyz
x,y,z
-y,1/2+x,1/2+z
1/2-x,1/2-y,z
1/2+y,-x,1/2+z
-x,-y,-z
y,1/2-x,1/2-z
1/2+x,1/2+y,-z
1/2-y,x,1/2-z
loop_
_atom_site_type_symbol
_atom_site_label
_atom_site_fract_x
_atom_site_fract_y
_atom_site_fract_z
Si Si1 0.427672 0.340349 0.097549
Si Si2 0.250000 0.250000 0.250000
Si Si3 0.750000 0.750000 0.250000
Si Si4 0.757813 0.449433 0.966572
Si Si5 0.766955 0.061891 0.405756
Si Si6 0.172395 0.991641 0.823255
O O1 0.376255 0.250768 0.184124
O O2 0.308593 0.425374 0.068764
O O3 0.539654 0.429995 0.141467
O O4 0.466582 0.269022 0.995569
O O5 0.857345 0.682470 0.316089
O O6 0.890773 0.407349 0.928165
O O7 0.663895 0.341575 0.926670
O O8 0.761628 0.447312 0.087235
O O9 0.777359 0.044939 0.286064
#
# Coordination Sequence:
#
# PCOD9545171 Si02
#       6
#     8   2   2   8   8   8
#     4  11  24  46  66  97 136 173 217 271 328 392
#     4  12  28  46  68  94 136 176 208 270 336 394
#     4  12  24  38  68  96 120 170 220 266 328 380
#     4  10  22  41  66  97 134 172 219 272 326 390
#     4  10  22  40  69  99 128 176 224 264 326 395
#     4  11  23  42  66  95 134 173 217 277 326 379
#
# _framework density 23.767938999999998
#
# number of rings (size 3 to 8) (size 9 to 14) (size 15 to 20)
#    0.000    1.333    0.000    6.667    0.000   14.222 
#    0.000    3.333    0.000    0.000    0.000    0.000 
#    0.000    0.000    0.000    0.000    0.000    0.000 
#
# Total GULP energy -200846.577897 kJ/mol
# GULP energy per Si atom -5579.071608 kJ/mol
# Density = 2.371384 g / cm^3
# Si number density = 23.767939 Si / 1000 Ang^3
#
#
#
# Elastic Constant Matrix: (Units=GPa)
#
#
# Indices 1 2 3 4 5 6 
#
# 1 17.3804 32.9720 39.6650 0.0000 0.0000 8.5015
# 2 32.9720 17.3804 39.6650 0.0000 0.0000 -8.5015
# 3 39.6650 39.6650 217.6181 0.0000 0.0000 0.0000
# 4 0.0000 0.0000 0.0000 13.6406 0.0000 0.0000
# 5 0.0000 0.0000 0.0000 0.0000 13.6406 0.0000
# 6 8.5015 -8.5015 0.0000 0.0000 0.0000 39.0649
#
#
#
# Elastic Compliance Matrix: (Units=1/GPa)
#
#
# Indices 1 2 3 4 5 6 
#
# 1 -0.011987 0.039848 -0.005078 0.000000 0.000000 0.011281
# 2 0.039848 -0.011987 -0.005078 0.000000 0.000000 -0.011281
# 3 -0.005078 -0.005078 0.006446 0.000000 0.000000 0.000000
# 4 0.000000 0.000000 0.000000 0.073310 0.000000 0.000000
# 5 0.000000 0.000000 0.000000 0.000000 0.073310 0.000000
# 6 0.011281 -0.011281 0.000000 0.000000 0.000000 0.020688
#
#
# Mechanical properties :
#
#
# Convention : Reuss Voigt Hill
#
# Bulk Modulus (GPa) = 23.89199 52.99812 38.44506
# Shear Modulus (GPa) = 47.91588 22.60770 35.26179
#
# Velocity S-wave (km/s) = 4.49485 3.08747 3.85591
# Velocity P-wave (km/s) = 6.08377 5.92086 6.00286
#
# Compressibility (1/GPa) = 0.04185503
#
# Stress axis : x y z
#
# Youngs Moduli (GPa) = -83.42202 -83.42202 155.12607
#
# Poissons Ratio (x) = 3.32418 0.78775
# Poissons Ratio (y) = 3.32418 0.78775
# Poissons Ratio (z) = -0.42363 -0.42363
#
# Static dielectric constant tensor:
#      x y z
#    x 2.044090 0.000000 0.000000 
#    y 0.000000 2.044090 0.000000 
#    z 0.000000 0.000000 1.895550 
# 
# From -- ./inp_files/2103.got.cif
#   From: 2010.05.17/outbox.cif.g08.bks.cpg/sg86_2_cif.got.tgz:2103.got - 2010.06.03 19:03:11.
