data_PCOD9546532
_publ_section_title
;
Structure prediction by ZEFSAII (Michael W. Deem and Ramdas Pophale) SiO2 
 PCOD9546532
Probable space group: I 41/A
;
_chemical_formula_sum "Si O2"
_cell_formula_units_Z 64
_cell_length_a 18.390581
_cell_length_b 18.390581
_cell_length_c 8.087852
_cell_angle_alpha 90.000000
_cell_angle_beta 90.000000
_cell_angle_gamma 90.000000
_cell_volume 2735.420486
_symmetry_space_group_name_H-M "I 41/A"
_symmetry_group_IT_number 88
_space_group.IT_coordinate_system_code '2'
_symmetry_cell_setting 'tetragonal'
loop_
_space_group_symop_operation_xyz
x,y,z
3/4-y,1/4+x,1/4+z
-x,1/2-y,z
1/4+y,1/4-x,1/4+z
-x,-y,-z
1/4+y,3/4-x,3/4-z
x,1/2+y,-z
3/4-y,3/4+x,3/4-z
1/2+x,1/2+y,1/2+z
1/4-y,3/4+x,3/4+z
1/2-x,-y,1/2+z
3/4+y,3/4-x,3/4+z
1/2-x,1/2-y,1/2-z
3/4+y,1/4-x,1/4-z
1/2+x,y,1/2-z
1/4-y,1/4+x,1/4-z
loop_
_atom_site_type_symbol
_atom_site_label
_atom_site_fract_x
_atom_site_fract_y
_atom_site_fract_z
Si Si1 0.336045 0.664280 0.624715
Si Si2 0.051231 0.914007 0.678080
Si Si3 0.336724 0.837906 0.930125
Si Si4 0.163904 0.802490 0.388656
O O1 0.351314 0.748780 0.585934
O O2 0.374209 0.628268 0.784031
O O3 0.249445 0.657682 0.601064
O O4 0.371536 0.621174 0.473317
O O5 0.998867 0.896686 0.522408
O O6 0.064259 0.000008 0.659890
O O7 0.370375 0.878991 0.090952
O O8 0.357241 0.753940 0.966034
#
# Coordination Sequence:
#
# PCOD9546532 Si02
#       4
#    16  16  16  16
#     4  10  22  38  59  89 121 160 214 266 320 385
#     4   9  20  39  59  85 126 165 205 267 327 382
#     4  10  22  39  60  89 122 164 216 266 325 387
#     4   9  20  39  60  86 127 168 207 267 332 390
#
# _framework density 23.396768999999999
#
# number of rings (size 3 to 8) (size 9 to 14) (size 15 to 20)
#    0.000    2.500    0.000    1.500    0.000   11.000 
#    0.000    5.000    0.000    0.000    0.000    0.000 
#    0.000    0.000    0.000    0.000    0.000    0.000 
#
# Total GULP energy -178473.707701 kJ/mol
# GULP energy per Si atom -5577.303366 kJ/mol
# Density = 2.334352 g / cm^3
# Si number density = 23.396769 Si / 1000 Ang^3
#
#
#
# Elastic Constant Matrix: (Units=GPa)
#
#
# Indices 1 2 3 4 5 6 
#
# 1 79.0499 58.5472 26.4602 0.0000 0.0000 -3.0137
# 2 58.5472 79.0499 26.4602 0.0000 0.0000 3.0137
# 3 26.4602 26.4602 80.2751 0.0000 0.0000 0.0000
# 4 0.0000 0.0000 0.0000 39.5747 0.0000 0.0000
# 5 0.0000 0.0000 0.0000 0.0000 39.5747 0.0000
# 6 -3.0137 3.0137 0.0000 0.0000 0.0000 26.2852
#
#
#
# Elastic Compliance Matrix: (Units=1/GPa)
#
#
# Indices 1 2 3 4 5 6 
#
# 1 0.029399 -0.021076 -0.002743 0.000000 0.000000 0.005787
# 2 -0.021076 0.029399 -0.002743 0.000000 0.000000 -0.005787
# 3 -0.002743 -0.002743 0.014266 0.000000 0.000000 0.000000
# 4 0.000000 0.000000 0.000000 0.025269 0.000000 0.000000
# 5 0.000000 0.000000 0.000000 0.000000 0.025269 0.000000
# 6 0.005787 -0.005787 0.000000 0.000000 0.000000 0.039371
#
#
# Mechanical properties :
#
#
# Convention : Reuss Voigt Hill
#
# Bulk Modulus (GPa) = 50.15606 51.25669 50.70637
# Shear Modulus (GPa) = 22.44726 29.54740 25.99733
#
# Velocity S-wave (km/s) = 3.10081 3.55756 3.33701
# Velocity P-wave (km/s) = 5.85694 6.23138 6.04706
#
# Compressibility (1/GPa) = 0.01993777
#
# Stress axis : x y z
#
# Youngs Moduli (GPa) = 34.01472 34.01472 70.09838
#
# Poissons Ratio (x) = 0.71691 0.19230
# Poissons Ratio (y) = 0.71691 0.19230
# Poissons Ratio (z) = 0.09331 0.09331
#
# Static dielectric constant tensor:
#      x y z
#    x 1.859360 0.000000 0.000000 
#    y 0.000000 1.859360 0.000000 
#    z 0.000000 0.000000 2.102940 
# 
# From -- ./inp_files/1463.got.cif
#   From: 2010.05.17/outbox.cif.g08.bks.cpg/sg88_1_cif.got.tgz:1463.got - 2010.06.03 19:11:41.
