data_PCOD9546624
_publ_section_title
;
Structure prediction by ZEFSAII (Michael W. Deem and Ramdas Pophale) SiO2 
 PCOD9546624
Probable space group: I 41/A
;
_chemical_formula_sum "Si O2"
_cell_formula_units_Z 112
_cell_length_a 13.931829
_cell_length_b 13.931829
_cell_length_c 27.395598
_cell_angle_alpha 90.000000
_cell_angle_beta 90.000000
_cell_angle_gamma 90.000000
_cell_volume 5317.372134
_symmetry_space_group_name_H-M "I 41/A"
_symmetry_group_IT_number 88
_space_group.IT_coordinate_system_code '2'
_symmetry_cell_setting 'tetragonal'
loop_
_space_group_symop_operation_xyz
x,y,z
3/4-y,1/4+x,1/4+z
-x,1/2-y,z
1/4+y,1/4-x,1/4+z
-x,-y,-z
1/4+y,3/4-x,3/4-z
x,1/2+y,-z
3/4-y,3/4+x,3/4-z
1/2+x,1/2+y,1/2+z
1/4-y,3/4+x,3/4+z
1/2-x,-y,1/2+z
3/4+y,3/4-x,3/4+z
1/2-x,1/2-y,1/2-z
3/4+y,1/4-x,1/4-z
1/2+x,y,1/2-z
1/4-y,1/4+x,1/4-z
loop_
_atom_site_type_symbol
_atom_site_label
_atom_site_fract_x
_atom_site_fract_y
_atom_site_fract_z
Si Si1 0.251463 0.821861 0.489131
Si Si2 0.050900 0.491415 0.921578
Si Si3 0.821673 0.681672 0.190188
Si Si4 0.625218 0.008667 0.524871
Si Si5 0.720307 0.331760 0.434337
Si Si6 0.390787 0.220037 0.587250
Si Si7 0.537416 0.351367 0.963139
O O1 0.278175 0.932334 0.481201
O O2 0.275095 0.771479 0.540270
O O3 0.314328 0.767656 0.448431
O O4 0.139500 0.815800 0.482133
O O5 0.069860 0.550779 0.873045
O O6 0.112975 0.394958 0.919216
O O7 0.939865 0.461222 0.929035
O O8 0.073994 0.536713 0.973973
O O9 0.863067 0.572974 0.187397
O O10 0.866077 0.737875 0.143863
O O11 0.704988 0.694062 0.186452
O O12 0.863897 0.723702 0.240668
O O13 0.647081 0.898048 0.535594
O O14 0.500000 0.250000 0.576040
O O15 0.500000 0.250000 0.939582
#
# Coordination Sequence:
#
# PCOD9546624 Si02
#       7
#    16  16  16  16  16  16  16
#     4  12  24  39  66  95 129 176 221 281 334 401
#     4  10  24  42  67  92 136 174 216 286 347 408
#     4  10  23  42  65  92 130 176 225 270 332 412
#     4  11  23  44  65  98 134 171 228 284 341 409
#     4  11  23  42  67 100 129 175 233 275 340 416
#     4  11  22  43  65  94 123 171 224 273 332 411
#     4  11  22  42  63  97 133 172 223 276 334 402
#
# _framework density 21.063034999999999
#
# number of rings (size 3 to 8) (size 9 to 14) (size 15 to 20)
#    0.000    1.143    5.714    0.429    4.000    0.000 
#    2.571    0.000    0.000    0.000    0.000    0.000 
#    0.000    0.000    0.000    0.000    0.000    0.000 
#
# Total GULP energy -311923.373233 kJ/mol
# GULP energy per Si atom -5570.060236 kJ/mol
# Density = 2.101509 g / cm^3
# Si number density = 21.063035 Si / 1000 Ang^3
#
#
#
# Elastic Constant Matrix: (Units=GPa)
#
#
# Indices 1 2 3 4 5 6 
#
# 1 38.8670 15.0568 5.7177 0.0000 0.0000 -4.8553
# 2 15.0568 38.8670 5.7177 0.0000 0.0000 4.8553
# 3 5.7177 5.7177 87.6952 0.0000 0.0000 0.0000
# 4 0.0000 0.0000 0.0000 13.7234 0.0000 0.0000
# 5 0.0000 0.0000 0.0000 0.0000 13.7234 0.0000
# 6 -4.8553 4.8553 0.0000 0.0000 0.0000 18.9503
#
#
#
# Elastic Compliance Matrix: (Units=1/GPa)
#
#
# Indices 1 2 3 4 5 6 
#
# 1 0.032852 -0.014047 -0.001226 0.000000 0.000000 0.012016
# 2 -0.014047 0.032852 -0.001226 0.000000 0.000000 -0.012016
# 3 -0.001226 -0.001226 0.011563 0.000000 0.000000 0.000000
# 4 0.000000 0.000000 0.000000 0.072868 0.000000 0.000000
# 5 0.000000 0.000000 0.000000 0.000000 0.072868 0.000000
# 6 0.012016 -0.012016 0.000000 0.000000 0.000000 0.058927
#
#
# Mechanical properties :
#
#
# Convention : Reuss Voigt Hill
#
# Bulk Modulus (GPa) = 22.58963 24.26820 23.42891
# Shear Modulus (GPa) = 15.16597 18.54189 16.85393
#
# Velocity S-wave (km/s) = 2.68624 2.97021 2.83179
# Velocity P-wave (km/s) = 4.51323 4.82800 4.67327
#
# Compressibility (1/GPa) = 0.04426810
#
# Stress axis : x y z
#
# Youngs Moduli (GPa) = 30.43954 30.43954 86.48267
#
# Poissons Ratio (x) = 0.42759 0.10603
# Poissons Ratio (y) = 0.42759 0.10603
# Poissons Ratio (z) = 0.03732 0.03732
#
# Static dielectric constant tensor:
#      x y z
#    x 1.825600 0.000000 0.000000 
#    y 0.000000 1.825600 0.000000 
#    z 0.000000 0.000000 1.744030 
# 
# From -- ./inp_files/5851.got.cif
#   From: 2010.05.17/outbox.cif.g08.bks.cpg/sg88_3_cif.got.tgz:5851.got - 2010.06.03 19:11:41.
