data_PCOD9546412
_publ_section_title
;
Structure prediction by ZEFSAII (Michael W. Deem and Ramdas Pophale) SiO2 
 PCOD9546412
Probable space group: I 41/A
;
_chemical_formula_sum "Si O2"
_cell_formula_units_Z 92
_cell_length_a 14.671948
_cell_length_b 14.671948
_cell_length_c 20.358196
_cell_angle_alpha 90.000000
_cell_angle_beta 90.000000
_cell_angle_gamma 90.000000
_cell_volume 4382.428603
_symmetry_space_group_name_H-M "I 41/A"
_symmetry_group_IT_number 88
_space_group.IT_coordinate_system_code '2'
_symmetry_cell_setting 'tetragonal'
loop_
_space_group_symop_operation_xyz
x,y,z
3/4-y,1/4+x,1/4+z
-x,1/2-y,z
1/4+y,1/4-x,1/4+z
-x,-y,-z
1/4+y,3/4-x,3/4-z
x,1/2+y,-z
3/4-y,3/4+x,3/4-z
1/2+x,1/2+y,1/2+z
1/4-y,3/4+x,3/4+z
1/2-x,-y,1/2+z
3/4+y,3/4-x,3/4+z
1/2-x,1/2-y,1/2-z
3/4+y,1/4-x,1/4-z
1/2+x,y,1/2-z
1/4-y,1/4+x,1/4-z
loop_
_atom_site_type_symbol
_atom_site_label
_atom_site_fract_x
_atom_site_fract_y
_atom_site_fract_z
Si Si1 0.700813 0.779711 0.834790
Si Si2 0.089316 0.535461 0.230750
Si Si3 0.197972 0.802069 0.081670
Si Si4 0.500000 0.750000 0.414077
Si Si5 0.243940 0.597222 0.727553
Si Si6 0.961539 0.077839 0.548714
Si Si7 0.500000 0.250000 0.875000
O O1 0.693119 0.788989 0.912527
O O2 0.598758 0.770310 0.803664
O O3 0.747141 0.867101 0.802067
O O4 0.755234 0.689280 0.815259
O O5 0.178088 0.475396 0.215170
O O6 0.122733 0.628165 0.263494
O O7 0.026328 0.481746 0.282409
O O8 0.100485 0.773356 0.114532
O O9 0.187575 0.894265 0.040400
O O10 0.270509 0.818354 0.138063
O O11 0.020514 0.161913 0.578910
O O12 0.000000 0.000000 0.500000
#
# Coordination Sequence:
#
# PCOD9546412 Si02
#       7
#    16  16  16   8  16  16   4
#     4  10  23  44  67 102 135 189 229 300 362 434
#     4  12  26  43  74 100 145 184 245 299 366 434
#     4  11  25  45  70 108 139 194 239 308 362 442
#     4  10  20  45  68  91 143 177 240 278 364 428
#     4  10  25  43  70 101 144 175 244 293 358 443
#     4  12  29  48  77 103 149 199 244 309 372 437
#     4  12  28  54  68 116 152 178 264 306 360 460
#
# _framework density 20.992925
#
# number of rings (size 3 to 8) (size 9 to 14) (size 15 to 20)
#    0.000    1.043    3.478    1.043    7.304    5.565 
#    0.000    0.000    0.000    0.000    0.000    0.000 
#    0.000    0.000    0.000    0.000    0.000    0.000 
#
# Total GULP energy -256608.095690 kJ/mol
# GULP energy per Si atom -5578.436863 kJ/mol
# Density = 2.094514 g / cm^3
# Si number density = 20.992925 Si / 1000 Ang^3
#
#
#
# Elastic Constant Matrix: (Units=GPa)
#
#
# Indices 1 2 3 4 5 6 
#
# 1 86.4110 8.6779 39.9179 0.0000 0.0000 1.6069
# 2 8.6779 86.4110 39.9179 0.0000 0.0000 -1.6069
# 3 39.9179 39.9179 104.2565 0.0000 0.0000 0.0000
# 4 0.0000 0.0000 0.0000 27.3081 0.0000 0.0000
# 5 0.0000 0.0000 0.0000 0.0000 27.3081 0.0000
# 6 1.6069 -1.6069 0.0000 0.0000 0.0000 42.3137
#
#
#
# Elastic Compliance Matrix: (Units=1/GPa)
#
#
# Indices 1 2 3 4 5 6 
#
# 1 0.014192 0.001307 -0.005934 0.000000 0.000000 -0.000489
# 2 0.001307 0.014192 -0.005934 0.000000 0.000000 0.000489
# 3 -0.005934 -0.005934 0.014136 0.000000 0.000000 0.000000
# 4 0.000000 0.000000 0.000000 0.036619 0.000000 0.000000
# 5 0.000000 0.000000 0.000000 0.000000 0.036619 0.000000
# 6 -0.000489 0.000489 0.000000 0.000000 0.000000 0.023670
#
#
# Mechanical properties :
#
#
# Convention : Reuss Voigt Hill
#
# Bulk Modulus (GPa) = 46.73623 50.45621 48.59622
# Shear Modulus (GPa) = 29.81818 31.95696 30.88757
#
# Velocity S-wave (km/s) = 3.77290 3.90586 3.83996
# Velocity P-wave (km/s) = 6.42580 6.66544 6.54671
#
# Compressibility (1/GPa) = 0.02139668
#
# Stress axis : x y z
#
# Youngs Moduli (GPa) = 70.46343 70.46343 70.74187
#
# Poissons Ratio (x) = -0.09210 0.41980
# Poissons Ratio (y) = -0.09210 0.41980
# Poissons Ratio (z) = 0.41814 0.41814
#
# Static dielectric constant tensor:
#      x y z
#    x 1.763630 0.000000 0.000000 
#    y 0.000000 1.763630 0.000000 
#    z 0.000000 0.000000 1.772430 
# 
# From -- ./inp_files/4737.got.cif
#   From: 2010.05.17/outbox.cif.g08.bks.cpg/sg88_3_cif.got.tgz:4737.got - 2010.06.03 19:11:41.
