data_PCOD9546415
_publ_section_title
;
Structure prediction by ZEFSAII (Michael W. Deem and Ramdas Pophale) SiO2 
 PCOD9546415
Probable space group: I 41/A
;
_chemical_formula_sum "Si O2"
_cell_formula_units_Z 76
_cell_length_a 11.329529
_cell_length_b 11.329529
_cell_length_c 28.403907
_cell_angle_alpha 90.000000
_cell_angle_beta 90.000000
_cell_angle_gamma 90.000000
_cell_volume 3645.875153
_symmetry_space_group_name_H-M "I 41/A"
_symmetry_group_IT_number 88
_space_group.IT_coordinate_system_code '2'
_symmetry_cell_setting 'tetragonal'
loop_
_space_group_symop_operation_xyz
x,y,z
3/4-y,1/4+x,1/4+z
-x,1/2-y,z
1/4+y,1/4-x,1/4+z
-x,-y,-z
1/4+y,3/4-x,3/4-z
x,1/2+y,-z
3/4-y,3/4+x,3/4-z
1/2+x,1/2+y,1/2+z
1/4-y,3/4+x,3/4+z
1/2-x,-y,1/2+z
3/4+y,3/4-x,3/4+z
1/2-x,1/2-y,1/2-z
3/4+y,1/4-x,1/4-z
1/2+x,y,1/2-z
1/4-y,1/4+x,1/4-z
loop_
_atom_site_type_symbol
_atom_site_label
_atom_site_fract_x
_atom_site_fract_y
_atom_site_fract_z
Si Si1 0.046510 0.505340 0.617235
Si Si2 0.822149 0.037540 0.103276
Si Si3 0.500000 0.250000 0.875000
Si Si4 0.126013 0.688523 0.047694
Si Si5 0.471415 0.019169 0.302964
Si Si6 0.000000 0.250000 0.435978
O O1 0.185612 0.503987 0.609462
O O2 0.997068 0.378703 0.599926
O O3 0.010245 0.527462 0.671383
O O4 0.002153 0.626157 0.592739
O O5 0.823611 0.159918 0.075389
O O6 0.878813 0.035844 0.154784
O O7 0.883625 0.938738 0.071694
O O8 0.000000 0.750000 0.051363
O O9 0.166641 0.682546 0.994170
O O10 0.494325 0.880181 0.291069
#
# Coordination Sequence:
#
# PCOD9546415 Si02
#       6
#    16  16   4  16  16   8
#     4  11  21  43  70  98 140 182 227 287 355 416
#     4  11  25  47  69 100 140 185 228 292 352 410
#     4  12  20  34  72 108 124 180 240 288 338 416
#     4  12  25  44  69 101 137 187 230 282 357 423
#     4  11  26  42  72  99 140 181 237 288 344 427
#     4  10  20  49  62  92 145 191 214 292 371 400
#
# _framework density 20.845476000000001
#
# number of rings (size 3 to 8) (size 9 to 14) (size 15 to 20)
#    0.000    0.842    5.263    1.263    5.895    1.684 
#    0.000    2.105    0.000    0.000    0.000    0.000 
#    0.000    0.000    0.000    0.000    0.000    0.000 
#
# Total GULP energy -212157.134160 kJ/mol
# GULP energy per Si atom -5583.082478 kJ/mol
# Density = 2.079803 g / cm^3
# Si number density = 20.845476 Si / 1000 Ang^3
#
#
#
# Elastic Constant Matrix: (Units=GPa)
#
#
# Indices 1 2 3 4 5 6 
#
# 1 108.0597 36.3253 22.9673 0.0000 0.0000 -8.8567
# 2 36.3253 108.0597 22.9673 0.0001 0.0000 8.8567
# 3 22.9673 22.9673 75.1962 0.0000 0.0000 0.0000
# 4 0.0000 0.0001 0.0000 780.6093 0.0007 0.0000
# 5 0.0000 0.0000 0.0000 0.0007 780.6097 0.0000
# 6 -8.8567 8.8567 0.0000 0.0000 0.0000 36.2305
#
#
#
# Elastic Compliance Matrix: (Units=1/GPa)
#
#
# Indices 1 2 3 4 5 6 
#
# 1 0.011254 -0.003582 -0.002343 0.000000 0.000000 0.003627
# 2 -0.003582 0.011254 -0.002343 0.000000 0.000000 -0.003627
# 3 -0.002343 -0.002343 0.014730 0.000000 0.000000 0.000000
# 4 0.000000 0.000000 0.000000 0.001281 0.000000 0.000000
# 5 0.000000 0.000000 0.000000 0.000000 0.001281 0.000000
# 6 0.003627 -0.003627 0.000000 0.000000 0.000000 0.029374
#
#
# Mechanical properties :
#
#
# Convention : Reuss Voigt Hill
#
# Bulk Modulus (GPa) = 48.30861 50.64839 49.47850
# Shear Modulus (GPa) = 53.98973 333.42693 193.70833
#
# Velocity S-wave (km/s) = 5.09472 12.66092 9.65026
# Velocity P-wave (km/s) = 7.60481 15.42990 12.16378
#
# Compressibility (1/GPa) = 0.02070024
#
# Stress axis : x y z
#
# Youngs Moduli (GPa) = 88.86045 88.86045 67.88943
#
# Poissons Ratio (x) = 0.31832 0.15907
# Poissons Ratio (y) = 0.31832 0.15907
# Poissons Ratio (z) = 0.20821 0.20821
#
# Static dielectric constant tensor:
#      x y z
#    x 1.784980 0.000000 0.000000 
#    y 0.000000 1.784980 0.000000 
#    z 0.000000 0.000000 1.704150 
# 
# From -- ./inp_files/6368.got.cif
#   From: 2010.05.17/outbox.cif.g08.bks.cpg/sg88_4_cif.got.tgz:6368.got - 2010.06.03 19:11:41.
