data_PCOD9546046
_publ_section_title
;
Structure prediction by ZEFSAII (Michael W. Deem and Ramdas Pophale) SiO2 
 PCOD9546046
Probable space group: I 4/M
;
_chemical_formula_sum "Si O2"
_cell_formula_units_Z 120
_cell_length_a 27.304975
_cell_length_b 27.304975
_cell_length_c 8.697558
_cell_angle_alpha 90.000000
_cell_angle_beta 90.000000
_cell_angle_gamma 90.000000
_cell_volume 6484.565778
_symmetry_space_group_name_H-M "I 4/M"
_symmetry_group_IT_number 87
_symmetry_cell_setting 'tetragonal'
loop_
_space_group_symop_operation_xyz
x,y,z
-y,x,z
-x,-y,z
y,-x,z
-x,-y,-z
y,-x,-z
x,y,-z
-y,x,-z
1/2+x,1/2+y,1/2+z
1/2-y,1/2+x,1/2+z
1/2-x,1/2-y,1/2+z
1/2+y,1/2-x,1/2+z
1/2-x,1/2-y,1/2-z
1/2+y,1/2-x,1/2-z
1/2+x,1/2+y,1/2-z
1/2-y,1/2+x,1/2-z
loop_
_atom_site_type_symbol
_atom_site_label
_atom_site_fract_x
_atom_site_fract_y
_atom_site_fract_z
Si Si1 0.491201 0.581395 0.000000
Si Si2 0.693340 0.832657 0.684611
Si Si3 0.325545 0.470703 0.175998
Si Si4 0.146116 0.237701 0.315045
Si Si5 0.861648 0.197079 0.313231
Si Si6 0.005809 0.355769 0.315811
Si Si7 0.096121 0.609977 0.184110
Si Si8 0.961700 0.746163 0.818330
O O1 0.447755 0.541892 0.000000
O O2 0.485831 0.618327 0.144396
O O3 0.691939 0.830046 0.500000
O O4 0.682479 0.779342 0.753475
O O5 0.746748 0.852172 0.731895
O O6 0.651043 0.868874 0.742729
O O7 0.320892 0.415252 0.234900
O O8 0.294556 0.507790 0.276494
O O9 0.304132 0.471895 0.000000
O O10 0.145544 0.239226 0.500000
O O11 0.164044 0.184088 0.262970
O O12 0.092170 0.249607 0.253961
O O13 0.861404 0.195156 0.500000
O O14 0.000972 0.354831 0.500000
O O15 0.056157 0.383723 0.275616
O O16 0.011113 0.300643 0.253790
O O17 0.958572 0.381251 0.243425
O O18 0.097996 0.614864 0.000000
O O19 0.957653 0.739608 0.000000
#
# Coordination Sequence:
#
# PCOD9546046 Si02
#       8
#     8  16  16  16  16  16  16  16
#     4   9  20  36  66 102 126 158 218 271 318 384
#     4  11  21  37  59  88 126 164 207 251 303 371
#     4   9  20  36  64  87 122 159 204 257 319 367
#     4  11  22  37  61  86 122 163 208 254 310 368
#     4   9  20  36  58  90 121 159 204 250 308 369
#     4  11  24  42  64  88 120 158 202 254 313 363
#     4  11  24  41  63  89 119 158 204 253 307 368
#     4  12  24  39  60  90 122 160 210 257 306 378
#
# _framework density 18.505479000000001
#
# number of rings (size 3 to 8) (size 9 to 14) (size 15 to 20)
#    0.400    1.133    1.333    4.000    1.867    2.933 
#    0.000    5.333    0.000    0.000    0.000    0.933 
#    0.000    0.000    0.000    0.000    0.000    0.000 
#
# Total GULP energy -335126.343385 kJ/mol
# GULP energy per Si atom -5585.439056 kJ/mol
# Density = 1.846336 g / cm^3
# Si number density = 18.505479 Si / 1000 Ang^3
#
#
#
# Elastic Constant Matrix: (Units=GPa)
#
#
# Indices 1 2 3 4 5 6 
#
# 1 83.6546 26.6389 7.5912 0.0000 0.0000 -6.8238
# 2 26.6389 83.6546 7.5912 0.0000 0.0000 6.8238
# 3 7.5912 7.5912 34.1432 0.0000 0.0000 0.0000
# 4 0.0000 0.0000 0.0000 24.9535 0.0000 0.0000
# 5 0.0000 0.0000 0.0000 0.0000 24.9535 0.0000
# 6 -6.8238 6.8238 0.0000 0.0000 0.0000 18.4504
#
#
#
# Elastic Compliance Matrix: (Units=1/GPa)
#
#
# Indices 1 2 3 4 5 6 
#
# 1 0.014298 -0.004945 -0.002079 0.000000 0.000000 0.007117
# 2 -0.004945 0.014298 -0.002079 0.000000 0.000000 -0.007117
# 3 -0.002079 -0.002079 0.030213 0.000000 0.000000 0.000000
# 4 0.000000 0.000000 0.000000 0.040075 0.000000 0.000000
# 5 0.000000 0.000000 0.000000 0.000000 0.040075 0.000000
# 6 0.007117 -0.007117 0.000000 0.000000 0.000000 0.059463
#
#
# Mechanical properties :
#
#
# Convention : Reuss Voigt Hill
#
# Bulk Modulus (GPa) = 24.62988 31.67722 28.15355
# Shear Modulus (GPa) = 21.72381 24.31356 23.01869
#
# Velocity S-wave (km/s) = 3.42996 3.62865 3.53070
# Velocity P-wave (km/s) = 5.38744 5.89161 5.64516
#
# Compressibility (1/GPa) = 0.04060108
#
# Stress axis : x y z
#
# Youngs Moduli (GPa) = 69.94116 69.94116 33.09830
#
# Poissons Ratio (x) = 0.34584 0.06883
# Poissons Ratio (y) = 0.34584 0.06883
# Poissons Ratio (z) = 0.14544 0.14544
#
# Static dielectric constant tensor:
#      x y z
#    x 1.624620 0.000000 0.000000 
#    y 0.000000 1.624620 0.000000 
#    z 0.000000 0.000000 1.623890 
# 
# From -- ./inp_files/1726.got.cif
#   From: 2010.05.17/outbox.cif.g08.bks.cpg/sg87_1_cif.got.tgz:1726.got - 2010.06.03 19:07:00.
