data_PCOD9546197
_publ_section_title
;
Structure prediction by ZEFSAII (Michael W. Deem and Ramdas Pophale) SiO2 
 PCOD9546197
Probable space group: I 41/A
;
_chemical_formula_sum "Si O2"
_cell_formula_units_Z 112
_cell_length_a 19.062280
_cell_length_b 19.062280
_cell_length_c 17.609132
_cell_angle_alpha 90.000000
_cell_angle_beta 90.000000
_cell_angle_gamma 90.000000
_cell_volume 6398.639430
_symmetry_space_group_name_H-M "I 41/A"
_symmetry_group_IT_number 88
_space_group.IT_coordinate_system_code '2'
_symmetry_cell_setting 'tetragonal'
loop_
_space_group_symop_operation_xyz
x,y,z
3/4-y,1/4+x,1/4+z
-x,1/2-y,z
1/4+y,1/4-x,1/4+z
-x,-y,-z
1/4+y,3/4-x,3/4-z
x,1/2+y,-z
3/4-y,3/4+x,3/4-z
1/2+x,1/2+y,1/2+z
1/4-y,3/4+x,3/4+z
1/2-x,-y,1/2+z
3/4+y,3/4-x,3/4+z
1/2-x,1/2-y,1/2-z
3/4+y,1/4-x,1/4-z
1/2+x,y,1/2-z
1/4-y,1/4+x,1/4-z
loop_
_atom_site_type_symbol
_atom_site_label
_atom_site_fract_x
_atom_site_fract_y
_atom_site_fract_z
Si Si1 0.545335 0.426316 0.092049
Si Si2 0.490538 0.366934 0.389677
Si Si3 0.419829 0.783055 0.793416
Si Si4 0.080043 0.774313 0.546097
Si Si5 0.836536 0.803280 0.425498
Si Si6 0.964922 0.437621 0.261093
Si Si7 0.324989 0.196522 0.792406
O O1 0.581939 0.354711 0.070299
O O2 0.531308 0.431588 0.181638
O O3 0.579971 0.497387 0.062499
O O4 0.471468 0.421769 0.044914
O O5 0.561189 0.322961 0.369838
O O6 0.498058 0.378846 0.479531
O O7 0.482113 0.428756 0.328253
O O8 0.500000 0.750000 0.785006
O O9 0.398897 0.768488 0.879151
O O10 0.423681 0.865963 0.779563
O O11 0.130084 0.757640 0.477229
O O12 0.000000 0.750000 0.526999
O O13 0.760176 0.819363 0.461035
O O14 0.833065 0.768232 0.342312
O O15 0.890230 0.867246 0.434408
#
# Coordination Sequence:
#
# PCOD9546197 Si02
#       7
#    16  16  16  16  16  16  16
#     4  10  18  33  50  75  99 141 178 215 271 312
#     4   9  13  24  47  79 103 125 163 214 263 304
#     4  10  15  28  54  82 105 132 171 225 267 314
#     4  11  18  31  54  76 104 134 178 227 260 310
#     4  11  22  32  47  79 108 138 179 225 270 317
#     4  10  18  29  47  81 109 131 171 224 272 316
#     4  10  21  32  50  73 108 139 178 221 264 326
#
# _framework density 17.503722
#
# number of rings (size 3 to 8) (size 9 to 14) (size 15 to 20)
#    0.000    1.857    7.143    0.857    0.000    0.000 
#    0.000    0.714    0.000    0.000   44.571    0.000 
#    0.000    0.000    0.000    0.000    0.000    0.000 
#
# Total GULP energy -311837.631361 kJ/mol
# GULP energy per Si atom -5568.529131 kJ/mol
# Density = 1.746388 g / cm^3
# Si number density = 17.503722 Si / 1000 Ang^3
#
#
#
# Elastic Constant Matrix: (Units=GPa)
#
#
# Indices 1 2 3 4 5 6 
#
# 1 62.7088 15.7055 -3.5954 0.0000 0.0000 -1.8357
# 2 15.7055 62.7088 -3.5954 0.0000 0.0000 1.8357
# 3 -3.5954 -3.5954 67.6918 0.0000 0.0000 0.0000
# 4 0.0000 0.0000 0.0000 17.8554 0.0000 0.0000
# 5 0.0000 0.0000 0.0000 0.0000 17.8554 0.0000
# 6 -1.8357 1.8357 0.0000 0.0000 0.0000 10.5894
#
#
#
# Elastic Compliance Matrix: (Units=1/GPa)
#
#
# Indices 1 2 3 4 5 6 
#
# 1 0.017191 -0.004376 0.000681 0.000000 0.000000 0.003739
# 2 -0.004376 0.017191 0.000681 0.000000 0.000000 -0.003739
# 3 0.000681 0.000681 0.014845 0.000000 0.000000 0.000000
# 4 0.000000 0.000000 0.000000 0.056006 0.000000 0.000000
# 5 0.000000 0.000000 0.000000 0.000000 0.056006 0.000000
# 6 0.003739 -0.003739 0.000000 0.000000 0.000000 0.095730
#
#
# Mechanical properties :
#
#
# Convention : Reuss Voigt Hill
#
# Bulk Modulus (GPa) = 23.14911 23.34876 23.24894
# Shear Modulus (GPa) = 18.02469 21.56634 19.79551
#
# Velocity S-wave (km/s) = 3.21247 3.51394 3.36658
# Velocity P-wave (km/s) = 5.19749 5.46186 5.33132
#
# Compressibility (1/GPa) = 0.04319820
#
# Stress axis : x y z
#
# Youngs Moduli (GPa) = 58.16946 58.16946 67.36206
#
# Poissons Ratio (x) = 0.25455 -0.04585
# Poissons Ratio (y) = 0.25455 -0.04585
# Poissons Ratio (z) = -0.03959 -0.03959
#
# Static dielectric constant tensor:
#      x y z
#    x 1.605900 0.000000 0.000000 
#    y 0.000000 1.605900 0.000000 
#    z 0.000000 0.000000 1.651330 
# 
# From -- ./inp_files/4833.got.cif
#   From: 2010.05.17/outbox.cif.g08.bks.cpg/sg88_3_cif.got.tgz:4833.got - 2010.06.03 19:11:41.
