data_PCOD9546233
_publ_section_title
;
Structure prediction by ZEFSAII (Michael W. Deem and Ramdas Pophale) SiO2 
 PCOD9546233
Probable space group: I 41/A
;
_chemical_formula_sum "Si O2"
_cell_formula_units_Z 80
_cell_length_a 25.425535
_cell_length_b 25.425535
_cell_length_c 5.544333
_cell_angle_alpha 90.000000
_cell_angle_beta 90.000000
_cell_angle_gamma 90.000000
_cell_volume 3584.177480
_symmetry_space_group_name_H-M "I 41/A"
_symmetry_group_IT_number 88
_space_group.IT_coordinate_system_code '2'
_symmetry_cell_setting 'tetragonal'
loop_
_space_group_symop_operation_xyz
x,y,z
3/4-y,1/4+x,1/4+z
-x,1/2-y,z
1/4+y,1/4-x,1/4+z
-x,-y,-z
1/4+y,3/4-x,3/4-z
x,1/2+y,-z
3/4-y,3/4+x,3/4-z
1/2+x,1/2+y,1/2+z
1/4-y,3/4+x,3/4+z
1/2-x,-y,1/2+z
3/4+y,3/4-x,3/4+z
1/2-x,1/2-y,1/2-z
3/4+y,1/4-x,1/4-z
1/2+x,y,1/2-z
1/4-y,1/4+x,1/4-z
loop_
_atom_site_type_symbol
_atom_site_label
_atom_site_fract_x
_atom_site_fract_y
_atom_site_fract_z
Si Si1 0.949058 0.194716 0.238902
Si Si2 0.589431 0.945763 0.218912
Si Si3 0.091338 0.922995 0.783388
Si Si4 0.030289 0.055814 0.225503
Si Si5 0.979529 0.389136 0.718525
O O1 0.923649 0.138115 0.204352
O O2 0.921445 0.218271 0.474602
O O3 0.937729 0.238536 0.033788
O O4 0.619275 0.937575 0.468832
O O5 0.541647 0.902821 0.212694
O O6 0.560356 0.001552 0.238045
O O7 0.618401 0.937652 0.966918
O O8 0.033505 0.951562 0.775231
O O9 0.042457 0.089425 0.466771
O O10 0.041188 0.081483 0.963083
#
# Coordination Sequence:
#
# PCOD9546233 Si02
#       5
#    16  16  16  16  16
#     4  11  22  38  50  68 112 158 192 220 239 311
#     4  10  18  34  55  74  90 116 180 248 281 309
#     4  10  19  33  49  73  93 130 177 222 270 313
#     4  10  18  34  55  74  90 116 180 248 281 308
#     4  10  19  33  49  73  93 130 177 222 271 309
#
# _framework density 22.320323999999999
#
# number of rings (size 3 to 8) (size 9 to 14) (size 15 to 20)
#    0.000    1.800    4.000    6.000    0.000    1.600 
#    0.000    0.000    0.000    0.000    0.000    0.000 
#    0.000    0.000    0.000    0.000    0.000  144.000 
#
# Total GULP energy -223302.887643 kJ/mol
# GULP energy per Si atom -5582.572191 kJ/mol
# Density = 2.226952 g / cm^3
# Si number density = 22.320324 Si / 1000 Ang^3
#
#
#
# Elastic Constant Matrix: (Units=GPa)
#
#
# Indices 1 2 3 4 5 6 
#
# 1 45.0656 1.0587 34.1651 0.0000 0.0000 2.0263
# 2 1.0587 45.0656 34.1651 0.0000 0.0000 -2.0263
# 3 34.1651 34.1651 245.0421 0.0000 0.0000 0.0000
# 4 0.0000 0.0000 0.0000 23.0828 0.0000 0.0000
# 5 0.0000 0.0000 0.0000 0.0000 23.0828 0.0000
# 6 2.0263 -2.0263 0.0000 0.0000 0.0000 -1.4200
#
#
#
# Elastic Compliance Matrix: (Units=1/GPa)
#
#
# Indices 1 2 3 4 5 6 
#
# 1 0.023704 0.003620 -0.003810 0.000000 0.000000 0.028659
# 2 0.003620 0.023704 -0.003810 0.000000 0.000000 -0.028659
# 3 -0.003810 -0.003810 0.005143 0.000000 0.000000 0.000000
# 4 0.000000 0.000000 0.000000 0.043322 0.000000 0.000000
# 5 0.000000 0.000000 0.000000 0.000000 0.043322 0.000000
# 6 0.028659 -0.028659 0.000000 0.000000 0.000000 -0.622422
#
#
# Mechanical properties :
#
#
# Convention : Reuss Voigt Hill
#
# Bulk Modulus (GPa) = 22.44512 52.66126 37.55319
# Shear Modulus (GPa) = -10.86071 26.66808 7.90369
#
# Velocity S-wave (km/s) = -2.20826 3.46032 1.88380
# Velocity P-wave (km/s) = 1.89100 6.29363 4.64681
#
# Compressibility (1/GPa) = 0.04455312
#
# Stress axis : x y z
#
# Youngs Moduli (GPa) = 42.18627 42.18627 194.42863
#
# Poissons Ratio (x) = -0.15271 0.74072
# Poissons Ratio (y) = -0.15271 0.74072
# Poissons Ratio (z) = 0.16072 0.16072
#
# Static dielectric constant tensor:
#      x y z
#    x 1.847230 0.000000 0.000000 
#    y 0.000000 1.847230 0.000000 
#    z 0.000000 0.000000 1.977370 
# 
# From -- ./inp_files/692.got.cif
#   From: 2010.05.17/outbox.cif.g08.bks.cpg/sg88_1_cif.got.tgz:692.got - 2010.06.03 19:11:41.
