data_PCOD9546935
_publ_section_title
;
Structure prediction by ZEFSAII (Michael W. Deem and Ramdas Pophale) SiO2 
 PCOD9546935
Probable space group: P 4 2 2
;
_chemical_formula_sum "Si O2"
_cell_formula_units_Z 40
_cell_length_a 18.255080
_cell_length_b 18.255080
_cell_length_c 5.567725
_cell_angle_alpha 90.000000
_cell_angle_beta 90.000000
_cell_angle_gamma 90.000000
_cell_volume 1855.432919
_symmetry_space_group_name_H-M "P 4 2 2"
_symmetry_group_IT_number 89
_symmetry_cell_setting 'tetragonal'
loop_
_space_group_symop_operation_xyz
x,y,z
-y,x,z
-x,-y,z
y,-x,z
x,-y,-z
-x,y,-z
y,x,-z
-y,-x,-z
loop_
_atom_site_type_symbol
_atom_site_label
_atom_site_fract_x
_atom_site_fract_y
_atom_site_fract_z
Si Si1 0.923931 0.677427 0.366654
Si Si2 0.544282 0.155449 0.251207
Si Si3 0.828356 0.136565 0.240970
Si Si4 0.705318 0.585357 0.038928
Si Si5 0.695557 0.218501 0.676971
O O1 0.905950 0.606406 0.211895
O O2 0.912978 0.755644 0.239913
O O3 0.856920 0.673105 0.554565
O O4 0.000000 0.673883 0.500000
O O5 0.500000 0.142068 0.500000
O O6 0.578639 0.238148 0.264829
O O7 0.500000 0.156577 0.000000
O O8 0.868119 0.131882 0.500000
O O9 0.801090 0.221837 0.234468
O O10 0.874330 0.125671 0.000000
O O11 0.688033 0.500000 0.000000
O O12 0.630665 0.630665 0.000000
O O13 0.756657 0.634288 0.861744
O O14 0.714281 0.285719 0.500000
#
# Coordination Sequence:
#
# PCOD9546935 Si02
#       5
#     8   8   8   8   8
#     4  10  20  36  59  89 119 152 204 260 299 348
#     4  11  24  42  59  80 114 158 200 238 303 388
#     4   9  18  34  57  82 113 154 196 237 292 353
#     4  11  22  37  60  85 112 150 201 258 314 376
#     4   9  18  36  61  83 114 158 197 235 298 372
#
# _framework density 21.558311
#
# number of rings (size 3 to 8) (size 9 to 14) (size 15 to 20)
#    0.000    2.400    0.000    6.600    0.000    2.200 
#    0.000   20.000    0.000    0.000    0.000    7.000 
#    0.000  102.400    0.000  144.000    0.000    3.200 
#
# Total GULP energy -222699.811771 kJ/mol
# GULP energy per Si atom -5567.495294 kJ/mol
# Density = 2.150924 g / cm^3
# Si number density = 21.558311 Si / 1000 Ang^3
#
#
#
# Elastic Constant Matrix: (Units=GPa)
#
#
# Indices 1 2 3 4 5 6 
#
# 1 84.8220 46.9606 17.3330 0.0000 0.0000 0.0000
# 2 46.9606 84.8233 17.3336 0.0000 0.0000 0.0000
# 3 17.3330 17.3336 98.0080 0.0000 0.0000 0.0000
# 4 0.0000 0.0000 0.0000 16.5264 0.0000 0.0000
# 5 0.0000 0.0000 0.0000 0.0000 16.5260 0.0000
# 6 0.0000 0.0000 0.0000 0.0000 0.0000 8.6466
#
#
#
# Elastic Compliance Matrix: (Units=1/GPa)
#
#
# Indices 1 2 3 4 5 6 
#
# 1 0.017185 -0.009227 -0.001407 0.000000 0.000000 0.000000
# 2 -0.009227 0.017185 -0.001408 0.000000 0.000000 0.000000
# 3 -0.001407 -0.001408 0.010701 0.000000 0.000000 0.000000
# 4 0.000000 0.000000 0.000000 0.060509 0.000000 0.000000
# 5 0.000000 0.000000 0.000000 0.000000 0.060511 0.000000
# 6 0.000000 0.000000 0.000000 0.000000 0.000000 0.115652
#
#
# Mechanical properties :
#
#
# Convention : Reuss Voigt Hill
#
# Bulk Modulus (GPa) = 47.64620 47.87863 47.76242
# Shear Modulus (GPa) = 15.98351 20.74155 18.36253
#
# Velocity S-wave (km/s) = 2.72583 3.10516 2.92166
# Velocity P-wave (km/s) = 5.66180 5.92563 5.79522
#
# Compressibility (1/GPa) = 0.02098803
#
# Stress axis : x y z
#
# Youngs Moduli (GPa) = 58.18973 58.19046 93.44837
#
# Poissons Ratio (x) = 0.53690 0.13152
# Poissons Ratio (y) = 0.53689 0.13153
# Poissons Ratio (z) = 0.08190 0.08191
#
# Static dielectric constant tensor:
#      x y z
#    x 1.825530 0.000000 0.000000 
#    y 0.000000 1.825530 0.000000 
#    z 0.000000 0.000000 1.947160 
# 
# From -- ./inp_files/333.got.cif
#   From: 2010.05.17/outbox.cif.g08.bks.cpg/sg89_1_cif.got.tgz:333.got - 2010.06.03 19:15:31.
