data_PCOD9546452
_publ_section_title
;
Structure prediction by ZEFSAII (Michael W. Deem and Ramdas Pophale) SiO2 
 PCOD9546452
Probable space group: I 41/A
;
_chemical_formula_sum "Si O2"
_cell_formula_units_Z 64
_cell_length_a 24.893361
_cell_length_b 24.893361
_cell_length_c 4.936657
_cell_angle_alpha 90.000000
_cell_angle_beta 90.000000
_cell_angle_gamma 90.000000
_cell_volume 3059.144756
_symmetry_space_group_name_H-M "I 41/A"
_symmetry_group_IT_number 88
_space_group.IT_coordinate_system_code '2'
_symmetry_cell_setting 'tetragonal'
loop_
_space_group_symop_operation_xyz
x,y,z
3/4-y,1/4+x,1/4+z
-x,1/2-y,z
1/4+y,1/4-x,1/4+z
-x,-y,-z
1/4+y,3/4-x,3/4-z
x,1/2+y,-z
3/4-y,3/4+x,3/4-z
1/2+x,1/2+y,1/2+z
1/4-y,3/4+x,3/4+z
1/2-x,-y,1/2+z
3/4+y,3/4-x,3/4+z
1/2-x,1/2-y,1/2-z
3/4+y,1/4-x,1/4-z
1/2+x,y,1/2-z
1/4-y,1/4+x,1/4-z
loop_
_atom_site_type_symbol
_atom_site_label
_atom_site_fract_x
_atom_site_fract_y
_atom_site_fract_z
Si Si1 0.179890 0.955851 0.520388
Si Si2 0.308724 0.705221 0.500298
Si Si3 0.844957 0.882228 0.718303
Si Si4 0.181762 0.227447 0.508127
O O1 0.239127 0.936013 0.436065
O O2 0.152743 0.953511 0.225642
O O3 0.144206 0.919658 0.720812
O O4 0.333065 0.648324 0.417163
O O5 0.244159 0.708520 0.475315
O O6 0.320575 0.721577 0.807997
O O7 0.332265 0.751371 0.304293
O O8 0.851045 0.820832 0.627053
#
# Coordination Sequence:
#
# PCOD9546452 Si02
#       4
#    16  16  16  16
#     4  12  23  36  54  86 126 157 189 230 289 371
#     4  10  21  38  59  85 116 152 200 251 296 351
#     4  12  23  38  62  85 116 162 203 242 301 356
#     4  10  21  38  59  85 116 152 200 251 296 351
#
# _framework density 20.920881999999999
#
# number of rings (size 3 to 8) (size 9 to 14) (size 15 to 20)
#    0.000    1.000    0.000    9.000    0.000    4.000 
#    0.000    0.000    0.000    4.500    0.000    0.000 
#    0.000    0.000    0.000    0.000    0.000    0.000 
#
# Total GULP energy -178632.080709 kJ/mol
# GULP energy per Si atom -5582.252522 kJ/mol
# Density = 2.087326 g / cm^3
# Si number density = 20.920882 Si / 1000 Ang^3
#
#
#
# Elastic Constant Matrix: (Units=GPa)
#
#
# Indices 1 2 3 4 5 6 
#
# 1 50.0885 22.2531 15.1419 0.0000 0.0000 0.2080
# 2 22.2531 50.0885 15.1419 0.0000 0.0000 -0.2080
# 3 15.1419 15.1419 90.9701 0.0000 0.0000 0.0000
# 4 0.0000 0.0000 0.0000 19.6524 0.0000 0.0000
# 5 0.0000 0.0000 0.0000 0.0000 19.6524 0.0000
# 6 0.2080 -0.2080 0.0000 0.0000 0.0000 20.1490
#
#
#
# Elastic Compliance Matrix: (Units=1/GPa)
#
#
# Indices 1 2 3 4 5 6 
#
# 1 0.025395 -0.010536 -0.002473 0.000000 0.000000 -0.000371
# 2 -0.010536 0.025395 -0.002473 0.000000 0.000000 0.000371
# 3 -0.002473 -0.002473 0.011816 0.000000 0.000000 0.000000
# 4 0.000000 0.000000 0.000000 0.050884 0.000000 0.000000
# 5 0.000000 0.000000 0.000000 0.000000 0.050884 0.000000
# 6 -0.000371 0.000371 0.000000 0.000000 0.000000 0.049638
#
#
# Mechanical properties :
#
#
# Convention : Reuss Voigt Hill
#
# Bulk Modulus (GPa) = 31.60514 32.91340 32.25927
# Shear Modulus (GPa) = 19.56764 21.13146 20.34955
#
# Velocity S-wave (km/s) = 3.06161 3.18160 3.12218
# Velocity P-wave (km/s) = 5.25716 5.40955 5.33390
#
# Compressibility (1/GPa) = 0.03164043
#
# Stress axis : x y z
#
# Youngs Moduli (GPa) = 39.37815 39.37815 84.63136
#
# Poissons Ratio (x) = 0.41489 0.20931
# Poissons Ratio (y) = 0.41489 0.20931
# Poissons Ratio (z) = 0.09739 0.09739
#
# Static dielectric constant tensor:
#      x y z
#    x 1.804700 0.000000 0.000000 
#    y 0.000000 1.804700 0.000000 
#    z 0.000000 0.000000 1.728780 
# 
# From -- ./inp_files/583.got.cif
#   From: 2010.05.17/outbox.cif.g08.bks.cpg/sg88_1_cif.got.tgz:583.got - 2010.06.03 19:11:41.
