data_PCOD9546897
_publ_section_title
;
Structure prediction by ZEFSAII (Michael W. Deem and Ramdas Pophale) SiO2 
 PCOD9546897
Probable space group: P 4 2 2
;
_chemical_formula_sum "Si O2"
_cell_formula_units_Z 40
_cell_length_a 15.441392
_cell_length_b 15.441392
_cell_length_c 8.307743
_cell_angle_alpha 90.000000
_cell_angle_beta 90.000000
_cell_angle_gamma 90.000000
_cell_volume 1980.869886
_symmetry_space_group_name_H-M "P 4 2 2"
_symmetry_group_IT_number 89
_symmetry_cell_setting 'tetragonal'
loop_
_space_group_symop_operation_xyz
x,y,z
-y,x,z
-x,-y,z
y,-x,z
x,-y,-z
-x,y,-z
y,x,-z
-y,-x,-z
loop_
_atom_site_type_symbol
_atom_site_label
_atom_site_fract_x
_atom_site_fract_y
_atom_site_fract_z
Si Si1 0.944589 0.574149 0.168081
Si Si2 0.840287 0.812539 0.810885
Si Si3 0.514157 0.744980 0.819679
Si Si4 0.242586 0.977274 0.314141
Si Si5 0.694282 0.675741 0.802635
O O1 0.846246 0.539683 0.158136
O O2 0.942273 0.665158 0.255014
O O3 0.000000 0.500000 0.256330
O O4 0.000000 0.586447 0.000000
O O5 0.826869 0.903327 0.722487
O O6 0.766769 0.745281 0.753508
O O7 0.935001 0.775968 0.781448
O O8 0.826738 0.826738 0.000000
O O9 0.597735 0.698960 0.743286
O O10 0.419016 0.727464 0.749232
O O11 0.500000 0.708847 0.000000
O O12 0.244852 0.000000 0.500000
O O13 0.686530 0.686530 0.000000
#
# Coordination Sequence:
#
# PCOD9546897 Si02
#       5
#     8   8   8   8   8
#     4  11  20  35  63  88 120 164 227 273 318 377
#     4  11  22  42  66  92 121 168 222 259 302 387
#     4  10  17  32  52  91 125 162 204 273 326 364
#     4  12  26  41  61  93 132 166 202 265 337 388
#     4   9  19  31  56  88 127 158 208 262 324 372
#
# _framework density 20.193149999999999
#
# number of rings (size 3 to 8) (size 9 to 14) (size 15 to 20)
#    0.000    1.400    4.000    3.600    2.800    1.200 
#    0.000    4.000    0.000    0.000    0.000    0.000 
#    0.000    0.000    0.000    0.400    0.000    0.000 
#
# Total GULP energy -223166.747192 kJ/mol
# GULP energy per Si atom -5579.168680 kJ/mol
# Density = 2.014719 g / cm^3
# Si number density = 20.193150 Si / 1000 Ang^3
#
#
#
# Elastic Constant Matrix: (Units=GPa)
#
#
# Indices 1 2 3 4 5 6 
#
# 1 145.3633 63.8985 16.6165 0.0000 0.0000 0.0000
# 2 63.8985 145.3633 16.6165 0.0000 0.0000 0.0000
# 3 16.6165 16.6165 32.1781 0.0000 0.0000 0.0000
# 4 0.0000 0.0000 0.0000 6.3514 0.0000 0.0000
# 5 0.0000 0.0000 0.0000 0.0000 6.3514 0.0000
# 6 0.0000 0.0000 0.0000 0.0000 0.0000 46.3176
#
#
#
# Elastic Compliance Matrix: (Units=1/GPa)
#
#
# Indices 1 2 3 4 5 6 
#
# 1 0.008740 -0.003535 -0.002688 0.000000 0.000000 0.000000
# 2 -0.003535 0.008740 -0.002688 0.000000 0.000000 0.000000
# 3 -0.002688 -0.002688 0.033853 0.000000 0.000000 0.000000
# 4 0.000000 0.000000 0.000000 0.157446 0.000000 0.000000
# 5 0.000000 0.000000 0.000000 0.000000 0.157446 0.000000
# 6 0.000000 0.000000 0.000000 0.000000 0.000000 0.021590
#
#
# Mechanical properties :
#
#
# Convention : Reuss Voigt Hill
#
# Bulk Modulus (GPa) = 29.84006 57.46307 43.65156
# Shear Modulus (GPa) = 11.99588 26.85560 19.42574
#
# Velocity S-wave (km/s) = 2.43997 3.65079 3.10497
# Velocity P-wave (km/s) = 4.76942 6.80364 5.87524
#
# Compressibility (1/GPa) = 0.03351200
#
# Stress axis : x y z
#
# Youngs Moduli (GPa) = 114.41091 114.41091 29.53919
#
# Poissons Ratio (x) = 0.40442 0.07941
# Poissons Ratio (y) = 0.40442 0.07941
# Poissons Ratio (z) = 0.30755 0.30755
#
# Static dielectric constant tensor:
#      x y z
#    x 1.720060 0.000000 0.000000 
#    y 0.000000 1.720060 0.000000 
#    z 0.000000 0.000000 1.730290 
# 
# From -- ./inp_files/977.got.cif
#   From: 2010.05.17/outbox.cif.g08.bks.cpg/sg89_1_cif.got.tgz:977.got - 2010.06.03 19:15:31.
