data_PCOD9546349
_publ_section_title
;
Structure prediction by ZEFSAII (Michael W. Deem and Ramdas Pophale) SiO2 
 PCOD9546349
Probable space group: I 41/A
;
_chemical_formula_sum "Si O2"
_cell_formula_units_Z 64
_cell_length_a 13.479738
_cell_length_b 13.479738
_cell_length_c 16.464809
_cell_angle_alpha 90.000000
_cell_angle_beta 90.000000
_cell_angle_gamma 90.000000
_cell_volume 2991.710731
_symmetry_space_group_name_H-M "I 41/A"
_symmetry_group_IT_number 88
_space_group.IT_coordinate_system_code '2'
_symmetry_cell_setting 'tetragonal'
loop_
_space_group_symop_operation_xyz
x,y,z
3/4-y,1/4+x,1/4+z
-x,1/2-y,z
1/4+y,1/4-x,1/4+z
-x,-y,-z
1/4+y,3/4-x,3/4-z
x,1/2+y,-z
3/4-y,3/4+x,3/4-z
1/2+x,1/2+y,1/2+z
1/4-y,3/4+x,3/4+z
1/2-x,-y,1/2+z
3/4+y,3/4-x,3/4+z
1/2-x,1/2-y,1/2-z
3/4+y,1/4-x,1/4-z
1/2+x,y,1/2-z
1/4-y,1/4+x,1/4-z
loop_
_atom_site_type_symbol
_atom_site_label
_atom_site_fract_x
_atom_site_fract_y
_atom_site_fract_z
Si Si1 0.364316 0.339610 0.874036
Si Si2 0.661906 0.877142 0.797747
Si Si3 0.623308 0.213050 0.324247
Si Si4 0.717506 0.581956 0.284375
O O1 0.475789 0.375548 0.850776
O O2 0.297994 0.350736 0.794152
O O3 0.324353 0.417211 0.940358
O O4 0.609837 0.784788 0.753638
O O5 0.773614 0.839924 0.812771
O O6 0.625674 0.911885 0.886074
O O7 0.672704 0.974512 0.740922
O O8 0.539871 0.133826 0.349675
#
# Coordination Sequence:
#
# PCOD9546349 Si02
#       4
#    16  16  16  16
#     4  10  22  42  65  90 126 161 211 260 308 383
#     4  10  20  38  59  87 127 165 210 261 320 384
#     4  10  20  36  58  87 125 164 210 263 320 380
#     4  10  21  40  63  92 122 169 209 258 320 372
#
# _framework density 21.392441000000002
#
# number of rings (size 3 to 8) (size 9 to 14) (size 15 to 20)
#    0.000    2.000    2.500    0.750    0.000    2.000 
#    9.000    5.000    0.000    0.000    0.000    0.000 
#    0.000    0.000    0.000    0.000    0.000    0.000 
#
# Total GULP energy -178434.792712 kJ/mol
# GULP energy per Si atom -5576.087272 kJ/mol
# Density = 2.134375 g / cm^3
# Si number density = 21.392441 Si / 1000 Ang^3
#
#
#
# Elastic Constant Matrix: (Units=GPa)
#
#
# Indices 1 2 3 4 5 6 
#
# 1 40.6725 0.7872 30.7702 0.0000 0.0000 9.8907
# 2 0.7872 40.6725 30.7702 0.0000 0.0000 -9.8907
# 3 30.7702 30.7702 106.6127 0.0000 0.0000 0.0000
# 4 0.0000 0.0000 0.0000 33.9563 0.0000 0.0000
# 5 0.0000 0.0000 0.0000 0.0000 33.9563 0.0000
# 6 9.8907 -9.8907 0.0000 0.0000 0.0000 39.3520
#
#
#
# Elastic Compliance Matrix: (Units=1/GPa)
#
#
# Indices 1 2 3 4 5 6 
#
# 1 0.035420 0.006778 -0.012179 0.000000 0.000000 -0.007199
# 2 0.006778 0.035420 -0.012179 0.000000 0.000000 0.007199
# 3 -0.012179 -0.012179 0.016410 0.000000 0.000000 0.000000
# 4 0.000000 0.000000 0.000000 0.029450 0.000000 0.000000
# 5 0.000000 0.000000 0.000000 0.000000 0.029450 0.000000
# 6 -0.007199 0.007199 0.000000 0.000000 0.000000 0.029030
#
#
# Mechanical properties :
#
#
# Convention : Reuss Voigt Hill
#
# Bulk Modulus (GPa) = 19.19784 34.73476 26.96630
# Shear Modulus (GPa) = 21.95845 29.82825 25.89335
#
# Velocity S-wave (km/s) = 3.20731 3.73813 3.48285
# Velocity P-wave (km/s) = 4.76544 5.90793 5.36717
#
# Compressibility (1/GPa) = 0.05208919
#
# Stress axis : x y z
#
# Youngs Moduli (GPa) = 28.23273 28.23273 60.93918
#
# Poissons Ratio (x) = -0.19135 0.74217
# Poissons Ratio (y) = -0.19135 0.74217
# Poissons Ratio (z) = 0.34384 0.34384
#
# Static dielectric constant tensor:
#      x y z
#    x 1.774080 0.000000 0.000000 
#    y 0.000000 1.774080 0.000000 
#    z 0.000000 0.000000 1.781470 
# 
# From -- ./inp_files/3047.got.cif
#   From: 2010.05.17/outbox.cif.g08.bks.cpg/sg88_2_cif.got.tgz:3047.got - 2010.06.03 19:11:41.
