data_PCOD9546831
_publ_section_title
;
Structure prediction by ZEFSAII (Michael W. Deem and Ramdas Pophale) SiO2 
 PCOD9546831
Probable space group: I 41/A
;
_chemical_formula_sum "Si O2"
_cell_formula_units_Z 64
_cell_length_a 14.486465
_cell_length_b 14.486465
_cell_length_c 13.922539
_cell_angle_alpha 90.000000
_cell_angle_beta 90.000000
_cell_angle_gamma 90.000000
_cell_volume 2921.751570
_symmetry_space_group_name_H-M "I 41/A"
_symmetry_group_IT_number 88
_space_group.IT_coordinate_system_code '2'
_symmetry_cell_setting 'tetragonal'
loop_
_space_group_symop_operation_xyz
x,y,z
3/4-y,1/4+x,1/4+z
-x,1/2-y,z
1/4+y,1/4-x,1/4+z
-x,-y,-z
1/4+y,3/4-x,3/4-z
x,1/2+y,-z
3/4-y,3/4+x,3/4-z
1/2+x,1/2+y,1/2+z
1/4-y,3/4+x,3/4+z
1/2-x,-y,1/2+z
3/4+y,3/4-x,3/4+z
1/2-x,1/2-y,1/2-z
3/4+y,1/4-x,1/4-z
1/2+x,y,1/2-z
1/4-y,1/4+x,1/4-z
loop_
_atom_site_type_symbol
_atom_site_label
_atom_site_fract_x
_atom_site_fract_y
_atom_site_fract_z
Si Si1 0.371115 0.566985 0.904622
Si Si2 0.111328 0.760724 0.000316
Si Si3 0.796033 0.831874 0.812032
Si Si4 0.412174 0.871203 0.141048
O O1 0.459694 0.600067 0.843517
O O2 0.282148 0.596324 0.842790
O O3 0.380051 0.458294 0.920189
O O4 0.366724 0.620383 0.003822
O O5 0.157698 0.712184 0.907752
O O6 0.128011 0.869932 0.995450
O O7 0.000000 0.750000 0.997212
O O8 0.750000 0.750000 0.750000
O O9 0.522770 0.868996 0.148672
#
# Coordination Sequence:
#
# PCOD9546831 Si02
#       4
#    16  16  16  16
#     4  12  26  50  74 114 144 193 256 304 371 460
#     4  12  23  44  68 104 152 189 240 309 370 420
#     4  12  23  41  74 109 149 196 242 304 372 436
#     4  11  28  52  77 103 149 198 247 311 384 447
#
# _framework density 21.904669999999999
#
# number of rings (size 3 to 8) (size 9 to 14) (size 15 to 20)
#    0.000    0.250    7.500    0.750    3.500    2.000 
#    0.000    0.000    0.000    0.000    0.000    0.000 
#    0.000    0.000    0.000    0.000    0.000    0.000 
#
# Total GULP energy -179299.157072 kJ/mol
# GULP energy per Si atom -5603.098658 kJ/mol
# Density = 2.185481 g / cm^3
# Si number density = 21.904670 Si / 1000 Ang^3
#
#
#
# Elastic Constant Matrix: (Units=GPa)
#
#
# Indices 1 2 3 4 5 6 
#
# 1 146.6944 42.8855 2.5657 0.0000 0.0000 12.3958
# 2 42.8855 146.6944 2.5657 0.0000 0.0000 -12.3958
# 3 2.5657 2.5657 32.0040 0.0000 0.0000 0.0000
# 4 0.0000 0.0000 0.0000 32.9108 0.0000 0.0000
# 5 0.0000 0.0000 0.0000 0.0000 32.9108 0.0000
# 6 12.3958 -12.3958 0.0000 0.0000 0.0000 10.8442
#
#
#
# Elastic Compliance Matrix: (Units=1/GPa)
#
#
# Indices 1 2 3 4 5 6 
#
# 1 0.009268 -0.003982 -0.000424 0.000000 0.000000 -0.015146
# 2 -0.003982 0.009268 -0.000424 0.000000 0.000000 0.015146
# 3 -0.000424 -0.000424 0.031314 0.000000 0.000000 0.000000
# 4 0.000000 0.000000 0.000000 0.030385 0.000000 0.000000
# 5 0.000000 0.000000 0.000000 0.000000 0.030385 0.000000
# 6 -0.015146 0.015146 0.000000 0.000000 0.000000 0.126841
#
#
# Mechanical properties :
#
#
# Convention : Reuss Voigt Hill
#
# Bulk Modulus (GPa) = 24.88092 46.82517 35.85304
# Shear Modulus (GPa) = 19.19252 33.82491 26.50871
#
# Velocity S-wave (km/s) = 2.96325 3.93388 3.48255
# Velocity P-wave (km/s) = 4.80533 6.48514 5.70738
#
# Compressibility (1/GPa) = 0.04019145
#
# Stress axis : x y z
#
# Youngs Moduli (GPa) = 107.89503 107.89503 31.93458
#
# Poissons Ratio (x) = 0.42964 0.01353
# Poissons Ratio (y) = 0.42964 0.01353
# Poissons Ratio (z) = 0.04572 0.04572
#
# Static dielectric constant tensor:
#      x y z
#    x 1.801580 0.000000 0.000000 
#    y 0.000000 1.801580 0.000000 
#    z 0.000000 0.000000 1.767090 
# 
# From -- ./inp_files/3060.got.cif
#   From: 2010.05.17/outbox.cif.g08.bks.cpg/sg88_2_cif.got.tgz:3060.got - 2010.06.03 19:11:41.
