data_PCOD9546273
_publ_section_title
;
Structure prediction by ZEFSAII (Michael W. Deem and Ramdas Pophale) SiO2 
 PCOD9546273
Probable space group: I 41/A
;
_chemical_formula_sum "Si O2"
_cell_formula_units_Z 112
_cell_length_a 14.902688
_cell_length_b 14.902688
_cell_length_c 26.212626
_cell_angle_alpha 90.000000
_cell_angle_beta 90.000000
_cell_angle_gamma 90.000000
_cell_volume 5821.564982
_symmetry_space_group_name_H-M "I 41/A"
_symmetry_group_IT_number 88
_space_group.IT_coordinate_system_code '2'
_symmetry_cell_setting 'tetragonal'
loop_
_space_group_symop_operation_xyz
x,y,z
3/4-y,1/4+x,1/4+z
-x,1/2-y,z
1/4+y,1/4-x,1/4+z
-x,-y,-z
1/4+y,3/4-x,3/4-z
x,1/2+y,-z
3/4-y,3/4+x,3/4-z
1/2+x,1/2+y,1/2+z
1/4-y,3/4+x,3/4+z
1/2-x,-y,1/2+z
3/4+y,3/4-x,3/4+z
1/2-x,1/2-y,1/2-z
3/4+y,1/4-x,1/4-z
1/2+x,y,1/2-z
1/4-y,1/4+x,1/4-z
loop_
_atom_site_type_symbol
_atom_site_label
_atom_site_fract_x
_atom_site_fract_y
_atom_site_fract_z
Si Si1 0.651120 0.983049 0.817946
Si Si2 0.196969 0.874237 0.216745
Si Si3 0.909386 0.552985 0.948657
Si Si4 0.110321 0.495512 0.941235
Si Si5 0.746564 0.327309 0.416448
Si Si6 0.393194 0.490691 0.708895
Si Si7 0.425285 0.036878 0.070050
O O1 0.707730 0.889546 0.814326
O O2 0.587403 0.990235 0.768421
O O3 0.604253 0.989345 0.872740
O O4 0.723312 0.062507 0.806232
O O5 0.110899 0.937314 0.210639
O O6 0.215362 0.850306 0.275796
O O7 0.193416 0.780335 0.186783
O O8 0.849439 0.624526 0.919287
O O9 0.015992 0.550534 0.941925
O O10 0.893139 0.566449 0.009295
O O11 0.107919 0.454585 0.885331
O O12 0.197775 0.557053 0.946668
O O13 0.731953 0.223003 0.422351
O O14 0.369794 0.387942 0.696802
#
# Coordination Sequence:
#
# PCOD9546273 Si02
#       7
#    16  16  16  16  16  16  16
#     4   9  18  35  55  74 101 135 173 215 257 301
#     4   9  21  34  53  78  98 136 174 207 264 321
#     4   9  20  34  51  76 103 136 176 211 250 316
#     4  10  19  35  53  72 105 140 170 211 263 299
#     4  11  20  33  53  77 104 134 174 214 256 307
#     4  10  21  32  51  81 103 134 175 209 253 314
#     4  10  19  37  54  72 106 134 168 216 263 309
#
# _framework density 19.238813
#
# number of rings (size 3 to 8) (size 9 to 14) (size 15 to 20)
#    0.000    2.286    0.000    4.286    0.000    3.429 
#    0.000    1.429    0.000    7.286    0.000    0.000 
#    0.000    0.000    0.000    0.000    0.000    0.000 
#
# Total GULP energy -312034.275083 kJ/mol
# GULP energy per Si atom -5572.040626 kJ/mol
# Density = 1.919502 g / cm^3
# Si number density = 19.238813 Si / 1000 Ang^3
#
#
#
# Elastic Constant Matrix: (Units=GPa)
#
#
# Indices 1 2 3 4 5 6 
#
# 1 53.6581 -4.3919 1.4611 0.0000 0.0000 -0.7475
# 2 -4.3919 53.6581 1.4611 0.0000 0.0000 0.7475
# 3 1.4611 1.4611 111.1387 0.0000 0.0000 0.0000
# 4 0.0000 0.0000 0.0000 19.0190 0.0000 0.0000
# 5 0.0000 0.0000 0.0000 0.0000 19.0190 0.0000
# 6 -0.7475 0.7475 0.0000 0.0000 0.0000 6.8593
#
#
#
# Elastic Compliance Matrix: (Units=1/GPa)
#
#
# Indices 1 2 3 4 5 6 
#
# 1 0.018794 0.001519 -0.000267 0.000000 0.000000 0.001882
# 2 0.001519 0.018794 -0.000267 0.000000 0.000000 -0.001882
# 3 -0.000267 -0.000267 0.009005 0.000000 0.000000 0.000000
# 4 0.000000 0.000000 0.000000 0.052579 0.000000 0.000000
# 5 0.000000 0.000000 0.000000 0.000000 0.052579 0.000000
# 6 0.001882 -0.001882 0.000000 0.000000 0.000000 0.146198
#
#
# Mechanical properties :
#
#
# Convention : Reuss Voigt Hill
#
# Bulk Modulus (GPa) = 20.59139 23.94618 22.26879
# Shear Modulus (GPa) = 16.01705 23.64110 19.82907
#
# Velocity S-wave (km/s) = 2.88850 3.50926 3.21390
# Velocity P-wave (km/s) = 4.67449 5.37529 5.03709
#
# Compressibility (1/GPa) = 0.04856398
#
# Stress axis : x y z
#
# Youngs Moduli (GPa) = 53.20745 53.20745 111.05207
#
# Poissons Ratio (x) = -0.08084 0.02966
# Poissons Ratio (y) = -0.08084 0.02966
# Poissons Ratio (z) = 0.01421 0.01421
#
# Static dielectric constant tensor:
#      x y z
#    x 1.658840 0.000000 0.000000 
#    y 0.000000 1.658840 0.000000 
#    z 0.000000 0.000000 1.769650 
# 
# From -- ./inp_files/5885.got.cif
#   From: 2010.05.17/outbox.cif.g08.bks.cpg/sg88_3_cif.got.tgz:5885.got - 2010.06.03 19:11:41.
