data_PCOD9546274
_publ_section_title
;
Structure prediction by ZEFSAII (Michael W. Deem and Ramdas Pophale) SiO2 
 PCOD9546274
Probable space group: I 41/A
;
_chemical_formula_sum "Si O2"
_cell_formula_units_Z 112
_cell_length_a 13.944841
_cell_length_b 13.944841
_cell_length_c 29.645227
_cell_angle_alpha 90.000000
_cell_angle_beta 90.000000
_cell_angle_gamma 90.000000
_cell_volume 5764.769058
_symmetry_space_group_name_H-M "I 41/A"
_symmetry_group_IT_number 88
_space_group.IT_coordinate_system_code '2'
_symmetry_cell_setting 'tetragonal'
loop_
_space_group_symop_operation_xyz
x,y,z
3/4-y,1/4+x,1/4+z
-x,1/2-y,z
1/4+y,1/4-x,1/4+z
-x,-y,-z
1/4+y,3/4-x,3/4-z
x,1/2+y,-z
3/4-y,3/4+x,3/4-z
1/2+x,1/2+y,1/2+z
1/4-y,3/4+x,3/4+z
1/2-x,-y,1/2+z
3/4+y,3/4-x,3/4+z
1/2-x,1/2-y,1/2-z
3/4+y,1/4-x,1/4-z
1/2+x,y,1/2-z
1/4-y,1/4+x,1/4-z
loop_
_atom_site_type_symbol
_atom_site_label
_atom_site_fract_x
_atom_site_fract_y
_atom_site_fract_z
Si Si1 0.538358 0.856934 0.967845
Si Si2 0.873464 0.017761 0.212145
Si Si3 0.983832 0.895753 0.857737
Si Si4 0.214778 0.260440 0.871811
Si Si5 0.154523 0.488005 0.314827
Si Si6 0.963038 0.142442 0.566845
Si Si7 0.179836 0.477573 0.884790
O O1 0.500000 0.750000 0.965070
O O2 0.653808 0.856524 0.963747
O O3 0.495765 0.912595 0.925921
O O4 0.504662 0.892963 0.017067
O O5 0.785193 0.033977 0.178251
O O6 0.960838 0.076227 0.188264
O O7 0.847676 0.047209 0.263318
O O8 0.900622 0.813957 0.858804
O O9 0.929083 0.989805 0.875398
O O10 0.185515 0.174534 0.904473
O O11 0.325742 0.250674 0.856956
O O12 0.195120 0.364973 0.891593
O O13 0.119289 0.598660 0.314037
O O14 0.254848 0.490959 0.341701
O O15 0.000000 0.250000 0.571330
#
# Coordination Sequence:
#
# PCOD9546274 Si02
#       7
#    16  16  16  16  16  16  16
#     4  10  19  35  55  82 116 155 191 228 286 342
#     4  10  20  38  59  83 118 148 195 243 288 351
#     4   9  19  38  68  86 103 145 197 243 293 344
#     4  11  21  34  55  85 120 153 194 232 281 340
#     4  10  22  34  55  87 116 162 192 231 294 332
#     4   9  21  33  53  82 118 159 194 228 267 336
#     4  10  21  38  58  84 120 157 190 243 290 342
#
# _framework density 19.428357999999999
#
# number of rings (size 3 to 8) (size 9 to 14) (size 15 to 20)
#    0.000    2.143    1.429    1.286    4.000    1.143 
#    0.000    0.000    6.286   22.286    0.000    0.000 
#    0.000    0.000    0.000    0.000    0.000    0.000 
#
# Total GULP energy -312283.310913 kJ/mol
# GULP energy per Si atom -5576.487695 kJ/mol
# Density = 1.938414 g / cm^3
# Si number density = 19.428358 Si / 1000 Ang^3
#
#
#
# Elastic Constant Matrix: (Units=GPa)
#
#
# Indices 1 2 3 4 5 6 
#
# 1 38.7589 8.7897 13.5253 0.0000 0.0000 -4.5035
# 2 8.7897 38.7589 13.5253 0.0000 0.0000 4.5035
# 3 13.5253 13.5253 114.7113 0.0000 0.0000 0.0000
# 4 0.0000 0.0000 0.0000 8.5030 0.0000 0.0000
# 5 0.0000 0.0000 0.0000 0.0000 8.5030 0.0000
# 6 -4.5035 4.5035 0.0000 0.0000 0.0000 29.7482
#
#
#
# Elastic Compliance Matrix: (Units=1/GPa)
#
#
# Indices 1 2 3 4 5 6 
#
# 1 0.028751 -0.006207 -0.002658 0.000000 0.000000 0.005292
# 2 -0.006207 0.028751 -0.002658 0.000000 0.000000 -0.005292
# 3 -0.002658 -0.002658 0.009344 0.000000 0.000000 0.000000
# 4 0.000000 0.000000 0.000000 0.117606 0.000000 0.000000
# 5 0.000000 0.000000 0.000000 0.000000 0.117606 0.000000
# 6 0.005292 -0.005292 0.000000 0.000000 0.000000 0.035218
#
#
# Mechanical properties :
#
#
# Convention : Reuss Voigt Hill
#
# Bulk Modulus (GPa) = 22.83166 29.32330 26.07748
# Shear Modulus (GPa) = 13.33613 19.77676 16.55645
#
# Velocity S-wave (km/s) = 2.62282 3.19397 2.92238
# Velocity P-wave (km/s) = 4.57706 5.35982 4.98383
#
# Compressibility (1/GPa) = 0.04379883
#
# Stress axis : x y z
#
# Youngs Moduli (GPa) = 34.78182 34.78182 107.01664
#
# Poissons Ratio (x) = 0.21590 0.28445
# Poissons Ratio (y) = 0.21590 0.28445
# Poissons Ratio (z) = 0.09245 0.09245
#
# Static dielectric constant tensor:
#      x y z
#    x 1.719230 0.000000 0.000000 
#    y 0.000000 1.719230 0.000000 
#    z 0.000000 0.000000 1.691420 
# 
# From -- ./inp_files/6578.got.cif
#   From: 2010.05.17/outbox.cif.g08.bks.cpg/sg88_4_cif.got.tgz:6578.got - 2010.06.03 19:11:41.
