data_PCOD9546133
_publ_section_title
;
Structure prediction by ZEFSAII (Michael W. Deem and Ramdas Pophale) SiO2 
 PCOD9546133
Probable space group: I 4/M
;
_chemical_formula_sum "Si O2"
_cell_formula_units_Z 88
_cell_length_a 12.271573
_cell_length_b 12.271573
_cell_length_c 28.393022
_cell_angle_alpha 90.000000
_cell_angle_beta 90.000000
_cell_angle_gamma 90.000000
_cell_volume 4275.747883
_symmetry_space_group_name_H-M "I 4/M"
_symmetry_group_IT_number 87
_symmetry_cell_setting 'tetragonal'
loop_
_space_group_symop_operation_xyz
x,y,z
-y,x,z
-x,-y,z
y,-x,z
-x,-y,-z
y,-x,-z
x,y,-z
-y,x,-z
1/2+x,1/2+y,1/2+z
1/2-y,1/2+x,1/2+z
1/2-x,1/2-y,1/2+z
1/2+y,1/2-x,1/2+z
1/2-x,1/2-y,1/2-z
1/2+y,1/2-x,1/2-z
1/2+x,1/2+y,1/2-z
1/2-y,1/2+x,1/2-z
loop_
_atom_site_type_symbol
_atom_site_label
_atom_site_fract_x
_atom_site_fract_y
_atom_site_fract_z
Si Si1 0.370790 0.368100 0.895497
Si Si2 0.928533 0.829875 0.053011
Si Si3 0.597348 0.127460 0.230178
Si Si4 0.830541 0.742516 0.145374
Si Si5 0.626727 0.633007 0.000000
Si Si6 0.095118 0.847641 0.222895
O O1 0.501063 0.352041 0.890133
O O2 0.291003 0.303560 0.861542
O O3 0.337665 0.329552 0.948519
O O4 0.890943 0.754287 0.095705
O O5 0.055765 0.862747 0.056676
O O6 0.910051 0.785687 0.000000
O O7 0.466019 0.125741 0.231644
O O8 0.658857 0.108807 0.181082
O O9 0.632920 0.246360 0.246742
O O10 0.827049 0.861208 0.170123
O O11 0.496396 0.647123 0.000000
O O12 0.967084 0.858146 0.232074
#
# Coordination Sequence:
#
# PCOD9546133 Si02
#       6
#    16  16  16  16   8  16
#     4   9  20  36  58  91 128 170 220 268 322 389
#     4   9  20  41  67  97 134 172 220 277 329 387
#     4  11  26  46  64  92 135 176 216 272 341 404
#     4  12  23  36  67  97 129 171 217 273 332 396
#     4   7  12  30  54  78 118 165 208 260 314 374
#     4  11  24  44  68  94 124 167 228 281 326 389
#
# _framework density 20.581192999999999
#
# number of rings (size 3 to 8) (size 9 to 14) (size 15 to 20)
#    0.000    1.909    1.818    3.273    3.818    1.455 
#    0.000    1.818    0.000    0.000    0.000    5.091 
#    0.000    0.000    0.000    0.000    0.000    0.000 
#
# Total GULP energy -245270.142689 kJ/mol
# GULP energy per Si atom -5574.321425 kJ/mol
# Density = 2.053435 g / cm^3
# Si number density = 20.581193 Si / 1000 Ang^3
#
#
#
# Elastic Constant Matrix: (Units=GPa)
#
#
# Indices 1 2 3 4 5 6 
#
# 1 93.5898 27.4367 37.0710 0.0000 0.0000 2.1147
# 2 27.4367 93.5898 37.0710 0.0000 0.0000 -2.1147
# 3 37.0710 37.0710 115.1048 0.0000 0.0000 0.0000
# 4 0.0000 0.0000 0.0000 28.5895 0.0000 0.0000
# 5 0.0000 0.0000 0.0000 0.0000 28.5895 0.0000
# 6 2.1147 -2.1147 0.0000 0.0000 0.0000 12.8250
#
#
#
# Elastic Compliance Matrix: (Units=1/GPa)
#
#
# Indices 1 2 3 4 5 6 
#
# 1 0.012786 -0.002492 -0.003315 0.000000 0.000000 -0.002519
# 2 -0.002492 0.012786 -0.003315 0.000000 0.000000 0.002519
# 3 -0.003315 -0.003315 0.010823 0.000000 0.000000 0.000000
# 4 0.000000 0.000000 0.000000 0.034978 0.000000 0.000000
# 5 0.000000 0.000000 0.000000 0.000000 0.034978 0.000000
# 6 -0.002519 0.002519 0.000000 0.000000 0.000000 0.078803
#
#
# Mechanical properties :
#
#
# Convention : Reuss Voigt Hill
#
# Bulk Modulus (GPa) = 55.09778 56.16019 55.62898
# Shear Modulus (GPa) = 23.87230 27.38117 25.62674
#
# Velocity S-wave (km/s) = 3.40944 3.65142 3.53250
# Velocity P-wave (km/s) = 6.50600 6.71740 6.61255
#
# Compressibility (1/GPa) = 0.01814955
#
# Stress axis : x y z
#
# Youngs Moduli (GPa) = 78.21340 78.21340 92.39471
#
# Poissons Ratio (x) = 0.19491 0.30630
# Poissons Ratio (y) = 0.19491 0.30630
# Poissons Ratio (z) = 0.25929 0.25929
#
# Static dielectric constant tensor:
#      x y z
#    x 1.752230 0.000000 0.000000 
#    y 0.000000 1.752230 0.000000 
#    z 0.000000 0.000000 1.777150 
# 
# From -- ./inp_files/6602.got.cif
#   From: 2010.05.17/outbox.cif.g08.bks.cpg/sg87_4_cif.got.tgz:6602.got - 2010.06.03 19:07:00.
