data_PCOD9546818
_publ_section_title
;
Structure prediction by ZEFSAII (Michael W. Deem and Ramdas Pophale) SiO2 
 PCOD9546818
Probable space group: I 41/A
;
_chemical_formula_sum "Si O2"
_cell_formula_units_Z 36
_cell_length_a 13.072888
_cell_length_b 13.072888
_cell_length_c 8.977775
_cell_angle_alpha 90.000000
_cell_angle_beta 90.000000
_cell_angle_gamma 90.000000
_cell_volume 1534.305345
_symmetry_space_group_name_H-M "I 41/A"
_symmetry_group_IT_number 88
_space_group.IT_coordinate_system_code '2'
_symmetry_cell_setting 'tetragonal'
loop_
_space_group_symop_operation_xyz
x,y,z
3/4-y,1/4+x,1/4+z
-x,1/2-y,z
1/4+y,1/4-x,1/4+z
-x,-y,-z
1/4+y,3/4-x,3/4-z
x,1/2+y,-z
3/4-y,3/4+x,3/4-z
1/2+x,1/2+y,1/2+z
1/4-y,3/4+x,3/4+z
1/2-x,-y,1/2+z
3/4+y,3/4-x,3/4+z
1/2-x,1/2-y,1/2-z
3/4+y,1/4-x,1/4-z
1/2+x,y,1/2-z
1/4-y,1/4+x,1/4-z
loop_
_atom_site_type_symbol
_atom_site_label
_atom_site_fract_x
_atom_site_fract_y
_atom_site_fract_z
Si Si1 0.551824 0.351628 0.098580
Si Si2 0.859060 0.997203 0.621828
Si Si3 0.500000 0.250000 0.375000
O O1 0.500000 0.250000 0.031865
O O2 0.465174 0.436748 0.126036
O O3 0.577568 0.308580 0.263593
O O4 0.630132 0.402378 0.984672
O O5 0.823623 0.030155 0.783553
#
# Coordination Sequence:
#
# PCOD9546818 Si02
#       3
#    16  16   4
#     4   9  23  42  67  92 130 178 215 268 326 384
#     4  11  26  40  65 100 134 172 221 274 319 392
#     4   8  20  40  74  84 120 180 218 264 320 408
#
# _framework density 23.463386
#
# number of rings (size 3 to 8) (size 9 to 14) (size 15 to 20)
#    1.333    0.889    0.000    0.000   18.667    0.000 
#    0.000    6.667    0.000    0.000    0.000    0.000 
#    0.000    0.000    0.000    0.000    0.000    0.000 
#
# Total GULP energy -100378.631854 kJ/mol
# GULP energy per Si atom -5576.590659 kJ/mol
# Density = 2.340998 g / cm^3
# Si number density = 23.463386 Si / 1000 Ang^3
#
#
#
# Elastic Constant Matrix: (Units=GPa)
#
#
# Indices 1 2 3 4 5 6 
#
# 1 37.9744 -5.2574 -12.6354 0.0000 0.0000 0.0085
# 2 -5.2574 37.9744 -12.6354 0.0000 0.0000 -0.0085
# 3 -12.6354 -12.6354 79.3026 0.0000 0.0000 0.0000
# 4 0.0000 0.0000 0.0000 69.2643 0.0000 0.0000
# 5 0.0000 0.0000 0.0000 0.0000 69.2643 0.0000
# 6 0.0085 -0.0085 0.0000 0.0000 0.0000 32.5222
#
#
#
# Elastic Compliance Matrix: (Units=1/GPa)
#
#
# Indices 1 2 3 4 5 6 
#
# 1 0.028993 0.005862 0.005553 0.000000 0.000000 -0.000006
# 2 0.005862 0.028993 0.005553 0.000000 0.000000 0.000006
# 3 0.005553 0.005553 0.014380 0.000000 0.000000 0.000000
# 4 0.000000 0.000000 0.000000 0.014437 0.000000 0.000000
# 5 0.000000 0.000000 0.000000 0.000000 0.014437 0.000000
# 6 -0.000006 0.000006 0.000000 0.000000 0.000000 0.030748
#
#
# Mechanical properties :
#
#
# Convention : Reuss Voigt Hill
#
# Bulk Modulus (GPa) = 9.40710 10.46611 9.93660
# Shear Modulus (GPa) = 37.45726 46.59547 42.02636
#
# Velocity S-wave (km/s) = 3.99985 4.46116 4.23679
# Velocity P-wave (km/s) = 5.03485 5.56832 5.30829
#
# Compressibility (1/GPa) = 0.10630267
#
# Stress axis : x y z
#
# Youngs Moduli (GPa) = 34.49123 34.49123 69.54291
#
# Poissons Ratio (x) = -0.20218 -0.38620
# Poissons Ratio (y) = -0.20218 -0.38620
# Poissons Ratio (z) = -0.19155 -0.19155
#
# Static dielectric constant tensor:
#      x y z
#    x 1.908400 0.000000 0.000000 
#    y 0.000000 1.908400 0.000000 
#    z 0.000000 0.000000 1.915250 
# 
# From -- ./inp_files/939.got.cif
#   From: 2010.05.17/outbox.cif.g08.bks.cpg/sg88_1_cif.got.tgz:939.got - 2010.06.03 19:11:41.
