data_PCOD9546876
_publ_section_title
;
Structure prediction by ZEFSAII (Michael W. Deem and Ramdas Pophale) SiO2 
 PCOD9546876
Probable space group: I 41/A
;
_chemical_formula_sum "Si O2"
_cell_formula_units_Z 56
_cell_length_a 13.764569
_cell_length_b 13.764569
_cell_length_c 11.420233
_cell_angle_alpha 90.000000
_cell_angle_beta 90.000000
_cell_angle_gamma 90.000000
_cell_volume 2163.715713
_symmetry_space_group_name_H-M "I 41/A"
_symmetry_group_IT_number 88
_space_group.IT_coordinate_system_code '2'
_symmetry_cell_setting 'tetragonal'
loop_
_space_group_symop_operation_xyz
x,y,z
3/4-y,1/4+x,1/4+z
-x,1/2-y,z
1/4+y,1/4-x,1/4+z
-x,-y,-z
1/4+y,3/4-x,3/4-z
x,1/2+y,-z
3/4-y,3/4+x,3/4-z
1/2+x,1/2+y,1/2+z
1/4-y,3/4+x,3/4+z
1/2-x,-y,1/2+z
3/4+y,3/4-x,3/4+z
1/2-x,1/2-y,1/2-z
3/4+y,1/4-x,1/4-z
1/2+x,y,1/2-z
1/4-y,1/4+x,1/4-z
loop_
_atom_site_type_symbol
_atom_site_label
_atom_site_fract_x
_atom_site_fract_y
_atom_site_fract_z
Si Si1 0.027757 0.534024 0.773268
Si Si2 0.104622 0.087998 0.474174
Si Si3 0.500000 0.250000 0.375000
Si Si4 0.263679 0.061421 0.088042
Si Si5 0.000000 0.250000 0.625000
O O1 0.052777 0.543075 0.637096
O O2 0.103610 0.451899 0.816141
O O3 0.030145 0.646903 0.814938
O O4 0.924501 0.491210 0.810012
O O5 0.040004 0.163893 0.544384
O O6 0.141180 0.999740 0.553623
O O7 0.195934 0.017164 0.980731
#
# Coordination Sequence:
#
# PCOD9546876 Si02
#       5
#    16  16   4  16   4
#     4  12  30  52  83 121 169 226 290 348 436 511
#     4  12  28  53  80 124 166 219 288 356 419 520
#     4  12  30  52  84 118 176 228 278 356 434 520
#     4  12  28  53  87 123 171 225 282 355 430 506
#     4  12  30  52  88 126 164 224 302 348 434 504
#
# _framework density 25.881404
#
# number of rings (size 3 to 8) (size 9 to 14) (size 15 to 20)
#    0.000    0.000    2.857    4.286   12.000    3.429 
#    0.000    0.000    0.000    0.000    0.000    0.000 
#    0.000    0.000    0.000    0.000    0.000    0.000 
#
# Total GULP energy -156453.129670 kJ/mol
# GULP energy per Si atom -5587.611774 kJ/mol
# Density = 2.582250 g / cm^3
# Si number density = 25.881404 Si / 1000 Ang^3
#
#
#
# Elastic Constant Matrix: (Units=GPa)
#
#
# Indices 1 2 3 4 5 6 
#
# 1 152.8061 54.0193 58.4338 0.0000 0.0000 26.1219
# 2 54.0193 152.8061 58.4338 0.0000 0.0000 -26.1219
# 3 58.4338 58.4338 185.3790 0.0000 0.0000 0.0000
# 4 0.0000 0.0000 0.0000 43.7953 0.0000 0.0000
# 5 0.0000 0.0000 0.0000 0.0000 43.7953 0.0000
# 6 26.1219 -26.1219 0.0000 0.0000 0.0000 29.4689
#
#
#
# Elastic Compliance Matrix: (Units=1/GPa)
#
#
# Indices 1 2 3 4 5 6 
#
# 1 0.012469 -0.006587 -0.001854 0.000000 0.000000 -0.016892
# 2 -0.006587 0.012469 -0.001854 0.000000 0.000000 0.016892
# 3 -0.001854 -0.001854 0.006563 0.000000 0.000000 0.000000
# 4 0.000000 0.000000 0.000000 0.022833 0.000000 0.000000
# 5 0.000000 0.000000 0.000000 0.000000 0.022833 0.000000
# 6 -0.016892 0.016892 0.000000 0.000000 0.000000 0.063880
#
#
# Mechanical properties :
#
#
# Convention : Reuss Voigt Hill
#
# Bulk Modulus (GPa) = 91.64530 92.52946 92.08738
# Shear Modulus (GPa) = 30.25218 44.75219 37.50218
#
# Velocity S-wave (km/s) = 3.42259 4.16279 3.81070
# Velocity P-wave (km/s) = 7.14881 7.67685 7.41753
#
# Compressibility (1/GPa) = 0.01091163
#
# Stress axis : x y z
#
# Youngs Moduli (GPa) = 80.19620 80.19620 152.36069
#
# Poissons Ratio (x) = 0.52822 0.28253
# Poissons Ratio (y) = 0.52822 0.28253
# Poissons Ratio (z) = 0.14871 0.14871
#
# Static dielectric constant tensor:
#      x y z
#    x 2.312740 0.000000 0.000000 
#    y 0.000000 2.312740 0.000000 
#    z 0.000000 0.000000 2.027310 
# 
# From -- ./inp_files/2260.got.cif
#   From: 2010.05.17/outbox.cif.g08.bks.cpg/sg88_2_cif.got.tgz:2260.got - 2010.06.03 19:11:41.
