data_PCOD9546525
_publ_section_title
;
Structure prediction by ZEFSAII (Michael W. Deem and Ramdas Pophale) SiO2 
 PCOD9546525
Probable space group: I 41/A
;
_chemical_formula_sum "Si O2"
_cell_formula_units_Z 64
_cell_length_a 13.399280
_cell_length_b 13.399280
_cell_length_c 17.843792
_cell_angle_alpha 90.000000
_cell_angle_beta 90.000000
_cell_angle_gamma 90.000000
_cell_volume 3203.686987
_symmetry_space_group_name_H-M "I 41/A"
_symmetry_group_IT_number 88
_space_group.IT_coordinate_system_code '2'
_symmetry_cell_setting 'tetragonal'
loop_
_space_group_symop_operation_xyz
x,y,z
3/4-y,1/4+x,1/4+z
-x,1/2-y,z
1/4+y,1/4-x,1/4+z
-x,-y,-z
1/4+y,3/4-x,3/4-z
x,1/2+y,-z
3/4-y,3/4+x,3/4-z
1/2+x,1/2+y,1/2+z
1/4-y,3/4+x,3/4+z
1/2-x,-y,1/2+z
3/4+y,3/4-x,3/4+z
1/2-x,1/2-y,1/2-z
3/4+y,1/4-x,1/4-z
1/2+x,y,1/2-z
1/4-y,1/4+x,1/4-z
loop_
_atom_site_type_symbol
_atom_site_label
_atom_site_fract_x
_atom_site_fract_y
_atom_site_fract_z
Si Si1 0.519731 0.138480 0.661520
Si Si2 0.872952 0.984481 0.763743
Si Si3 0.944189 0.662050 0.752299
Si Si4 0.736979 0.057823 0.412198
O O1 0.500000 0.250000 0.690397
O O2 0.427772 0.072704 0.690481
O O3 0.536126 0.150081 0.572109
O O4 0.621145 0.080267 0.682660
O O5 0.795865 0.939892 0.825377
O O6 0.802668 0.008013 0.693128
O O7 0.966084 0.916390 0.737635
O O8 0.857928 0.607640 0.797017
O O9 0.000000 0.750000 0.795319
#
# Coordination Sequence:
#
# PCOD9546525 Si02
#       4
#    16  16  16  16
#     4  10  22  42  62  88 125 169 215 262 316 380
#     4  11  24  38  65  94 128 171 214 266 326 385
#     4  10  22  37  60  94 130 163 204 256 330 385
#     4  11  22  39  62  96 127 167 212 262 326 389
#
# _framework density 19.976982
#
# number of rings (size 3 to 8) (size 9 to 14) (size 15 to 20)
#    0.000    1.500    2.500    3.000    7.000    3.000 
#    0.000    0.000    0.000    0.000    0.000    0.000 
#    0.000    0.000    0.000    0.000    0.000    0.000 
#
# Total GULP energy -178297.656279 kJ/mol
# GULP energy per Si atom -5571.801759 kJ/mol
# Density = 1.993151 g / cm^3
# Si number density = 19.976982 Si / 1000 Ang^3
#
#
#
# Elastic Constant Matrix: (Units=GPa)
#
#
# Indices 1 2 3 4 5 6 
#
# 1 64.5517 1.8881 4.7427 0.0000 0.0000 3.8542
# 2 1.8881 64.5517 4.7427 0.0000 0.0000 -3.8542
# 3 4.7427 4.7427 54.0656 0.0000 0.0000 0.0000
# 4 0.0000 0.0000 0.0000 -2.4043 0.0000 0.0000
# 5 0.0000 0.0000 0.0000 0.0000 -2.4043 0.0000
# 6 3.8542 -3.8542 0.0000 0.0000 0.0000 11.3755
#
#
#
# Elastic Compliance Matrix: (Units=1/GPa)
#
#
# Indices 1 2 3 4 5 6 
#
# 1 0.015947 -0.000705 -0.001337 0.000000 0.000000 -0.005642
# 2 -0.000705 0.015947 -0.001337 0.000000 0.000000 0.005642
# 3 -0.001337 -0.001337 0.018731 0.000000 0.000000 0.000000
# 4 0.000000 0.000000 0.000000 -0.415927 0.000000 0.000000
# 5 0.000000 0.000000 0.000000 0.000000 -0.415926 0.000000
# 6 -0.005642 0.005642 0.000000 0.000000 0.000000 0.091732
#
#
# Mechanical properties :
#
#
# Convention : Reuss Voigt Hill
#
# Bulk Modulus (GPa) = 22.79638 22.87956 22.83797
# Shear Modulus (GPa) = -7.48373 12.76642 2.64134
#
# Velocity S-wave (km/s) = -1.93760 2.53070 1.15111
# Velocity P-wave (km/s) = 2.53581 4.47404 3.63644
#
# Compressibility (1/GPa) = 0.04386661
#
# Stress axis : x y z
#
# Youngs Moduli (GPa) = 62.70698 62.70698 53.38852
#
# Poissons Ratio (x) = 0.04421 0.07138
# Poissons Ratio (y) = 0.04421 0.07138
# Poissons Ratio (z) = 0.08384 0.08384
#
# Static dielectric constant tensor:
#      x y z
#    x 1.744900 0.000000 0.000000 
#    y 0.000000 1.744900 0.000000 
#    z 0.000000 0.000000 1.737560 
# 
# From -- ./inp_files/4389.got.cif
#   From: 2010.05.17/outbox.cif.g08.bks.cpg/sg88_3_cif.got.tgz:4389.got - 2010.06.03 19:11:41.
