data_PCOD9546581
_publ_section_title
;
Structure prediction by ZEFSAII (Michael W. Deem and Ramdas Pophale) SiO2 
 PCOD9546581
Probable space group: I 41/A
;
_chemical_formula_sum "Si O2"
_cell_formula_units_Z 128
_cell_length_a 23.086535
_cell_length_b 23.086535
_cell_length_c 11.501642
_cell_angle_alpha 90.000000
_cell_angle_beta 90.000000
_cell_angle_gamma 90.000000
_cell_volume 6130.238297
_symmetry_space_group_name_H-M "I 41/A"
_symmetry_group_IT_number 88
_space_group.IT_coordinate_system_code '2'
_symmetry_cell_setting 'tetragonal'
loop_
_space_group_symop_operation_xyz
x,y,z
3/4-y,1/4+x,1/4+z
-x,1/2-y,z
1/4+y,1/4-x,1/4+z
-x,-y,-z
1/4+y,3/4-x,3/4-z
x,1/2+y,-z
3/4-y,3/4+x,3/4-z
1/2+x,1/2+y,1/2+z
1/4-y,3/4+x,3/4+z
1/2-x,-y,1/2+z
3/4+y,3/4-x,3/4+z
1/2-x,1/2-y,1/2-z
3/4+y,1/4-x,1/4-z
1/2+x,y,1/2-z
1/4-y,1/4+x,1/4-z
loop_
_atom_site_type_symbol
_atom_site_label
_atom_site_fract_x
_atom_site_fract_y
_atom_site_fract_z
Si Si1 0.002306 0.446399 0.623000
Si Si2 0.304379 0.569774 0.434439
Si Si3 0.218837 0.060576 0.076467
Si Si4 0.912286 0.213184 0.096044
Si Si5 0.166612 0.243605 0.886246
Si Si6 0.114950 0.938425 0.275255
Si Si7 0.628762 0.370775 0.211280
Si Si8 0.675044 0.869614 0.026625
O O1 0.013930 0.516200 0.627822
O O2 0.046841 0.426058 0.722924
O O3 0.011636 0.408993 0.504315
O O4 0.934897 0.443042 0.648424
O O5 0.337413 0.553900 0.552823
O O6 0.273377 0.508165 0.401489
O O7 0.255923 0.616609 0.465436
O O8 0.347748 0.585806 0.331748
O O9 0.165014 0.070311 0.991598
O O10 0.271286 0.092657 0.016939
O O11 0.928837 0.276045 0.151753
O O12 0.875422 0.176748 0.188790
O O13 0.877472 0.220546 0.972542
O O14 0.158191 0.179969 0.943623
O O15 0.136775 0.911240 0.395145
O O16 0.641994 0.345410 0.085443
#
# Coordination Sequence:
#
# PCOD9546581 Si02
#       8
#    16  16  16  16  16  16  16  16
#     4  11  25  41  62  96 130 171 214 259 328 384
#     4  10  24  39  65  96 131 167 220 263 316 388
#     4  11  21  39  62  96 131 170 207 264 328 387
#     4   9  21  43  70  94 120 172 226 271 325 381
#     4  10  22  42  66  91 125 168 219 267 314 387
#     4  11  25  42  64  97 128 173 222 261 318 399
#     4  11  22  41  65  94 129 164 214 270 325 388
#     4  12  24  41  64  90 133 173 208 267 329 388
#
# _framework density 20.880101
#
# number of rings (size 3 to 8) (size 9 to 14) (size 15 to 20)
#    0.000    1.375    3.750    1.500    8.750    0.000 
#    6.750    1.250    0.000    0.375    0.000    0.000 
#    0.000    0.000    0.000    0.000    0.000    0.000 
#
# Total GULP energy -356381.811557 kJ/mol
# GULP energy per Si atom -5568.465806 kJ/mol
# Density = 2.083258 g / cm^3
# Si number density = 20.880101 Si / 1000 Ang^3
#
#
#
# Elastic Constant Matrix: (Units=GPa)
#
#
# Indices 1 2 3 4 5 6 
#
# 1 53.9284 10.1483 19.2826 0.0000 0.0000 -6.9052
# 2 10.1483 53.9284 19.2826 0.0000 0.0000 6.9052
# 3 19.2826 19.2826 99.8959 0.0000 0.0000 0.0000
# 4 0.0000 0.0000 0.0000 27.9062 0.0000 0.0000
# 5 0.0000 0.0000 0.0000 0.0000 27.9062 0.0000
# 6 -6.9052 6.9052 0.0000 0.0000 0.0000 -3.0284
#
#
#
# Elastic Compliance Matrix: (Units=1/GPa)
#
#
# Indices 1 2 3 4 5 6 
#
# 1 0.015472 0.002186 -0.003408 0.000000 0.000000 -0.030293
# 2 0.002186 0.015472 -0.003408 0.000000 0.000000 0.030293
# 3 -0.003408 -0.003408 0.011326 0.000000 0.000000 0.000000
# 4 0.000000 0.000000 0.000000 0.035834 0.000000 0.000000
# 5 0.000000 0.000000 0.000000 0.000000 0.035834 0.000000
# 6 -0.030293 0.030293 0.000000 0.000000 0.000000 -0.192064
#
#
# Mechanical properties :
#
#
# Convention : Reuss Voigt Hill
#
# Bulk Modulus (GPa) = 30.29570 33.90887 32.10229
# Shear Modulus (GPa) = -86.41278 21.15943 -32.62667
#
# Velocity S-wave (km/s) = -6.44011 3.18681 -3.95723
# Velocity P-wave (km/s) = 6.38430 5.46041 2.33914
#
# Compressibility (1/GPa) = 0.03300798
#
# Stress axis : x y z
#
# Youngs Moduli (GPa) = 64.63466 64.63466 88.29045
#
# Poissons Ratio (x) = -0.14130 0.30093
# Poissons Ratio (y) = -0.14130 0.30093
# Poissons Ratio (z) = 0.22030 0.22030
#
# Static dielectric constant tensor:
#      x y z
#    x 1.774410 0.000000 0.000000 
#    y 0.000000 1.774410 0.000000 
#    z 0.000000 0.000000 1.813870 
# 
# From -- ./inp_files/2756.got.cif
#   From: 2010.05.17/outbox.cif.g08.bks.cpg/sg88_2_cif.got.tgz:2756.got - 2010.06.03 19:11:41.
