data_PCOD9546237
_publ_section_title
;
Structure prediction by ZEFSAII (Michael W. Deem and Ramdas Pophale) SiO2 
 PCOD9546237
Probable space group: I 41/A
;
_chemical_formula_sum "Si O2"
_cell_formula_units_Z 80
_cell_length_a 25.816326
_cell_length_b 25.816326
_cell_length_c 5.567305
_cell_angle_alpha 90.000000
_cell_angle_beta 90.000000
_cell_angle_gamma 90.000000
_cell_volume 3710.512402
_symmetry_space_group_name_H-M "I 41/A"
_symmetry_group_IT_number 88
_space_group.IT_coordinate_system_code '2'
_symmetry_cell_setting 'tetragonal'
loop_
_space_group_symop_operation_xyz
x,y,z
3/4-y,1/4+x,1/4+z
-x,1/2-y,z
1/4+y,1/4-x,1/4+z
-x,-y,-z
1/4+y,3/4-x,3/4-z
x,1/2+y,-z
3/4-y,3/4+x,3/4-z
1/2+x,1/2+y,1/2+z
1/4-y,3/4+x,3/4+z
1/2-x,-y,1/2+z
3/4+y,3/4-x,3/4+z
1/2-x,1/2-y,1/2-z
3/4+y,1/4-x,1/4-z
1/2+x,y,1/2-z
1/4-y,1/4+x,1/4-z
loop_
_atom_site_type_symbol
_atom_site_label
_atom_site_fract_x
_atom_site_fract_y
_atom_site_fract_z
Si Si1 0.782345 0.194374 0.480560
Si Si2 0.444734 0.586667 0.254999
Si Si3 0.109009 0.023226 0.274077
Si Si4 0.663309 0.671666 0.491068
Si Si5 0.298543 0.444717 0.484196
O O1 0.811324 0.248643 0.486695
O O2 0.794579 0.163655 0.726983
O O3 0.719435 0.201348 0.492889
O O4 0.793861 0.166501 0.226098
O O5 0.405004 0.537684 0.239410
O O6 0.432274 0.613910 0.505755
O O7 0.438056 0.614943 0.001717
O O8 0.169540 0.034109 0.245865
O O9 0.679523 0.611944 0.471712
O O10 0.308917 0.488062 0.681243
#
# Coordination Sequence:
#
# PCOD9546237 Si02
#       5
#    16  16  16  16  16
#     4  10  18  35  55  72  90 116 180 241 272 309
#     4  10  18  35  55  72  90 116 180 241 272 309
#     4  10  20  34  48  75  91 131 178 219 264 301
#     4  10  20  34  48  75  91 131 178 219 264 301
#     4  12  26  36  50  70 114 160 190 223 232 303
#
# _framework density 21.560362999999999
#
# number of rings (size 3 to 8) (size 9 to 14) (size 15 to 20)
#    0.000    1.600    4.000    6.000    5.600    1.600 
#    0.000    0.000    0.000    0.000    0.000    0.000 
#    0.000    0.000    0.000    0.000    0.000  195.000 
#
# Total GULP energy -223431.373713 kJ/mol
# GULP energy per Si atom -5585.784343 kJ/mol
# Density = 2.151129 g / cm^3
# Si number density = 21.560363 Si / 1000 Ang^3
#
#
#
# Elastic Constant Matrix: (Units=GPa)
#
#
# Indices 1 2 3 4 5 6 
#
# 1 32.1493 2.1151 22.1314 0.0000 0.0000 -2.3440
# 2 2.1151 32.1493 22.1314 0.0000 0.0000 2.3440
# 3 22.1314 22.1314 228.9680 0.0000 0.0000 0.0000
# 4 0.0000 0.0000 0.0000 14.1083 0.0000 0.0000
# 5 0.0000 0.0000 0.0000 0.0000 14.1083 0.0000
# 6 -2.3440 2.3440 0.0000 0.0000 0.0000 -3.3883
#
#
#
# Elastic Compliance Matrix: (Units=1/GPa)
#
#
# Indices 1 2 3 4 5 6 
#
# 1 0.031700 0.001649 -0.003223 0.000000 0.000000 -0.020789
# 2 0.001649 0.031700 -0.003223 0.000000 0.000000 0.020789
# 3 -0.003223 -0.003223 0.004991 0.000000 0.000000 0.000000
# 4 0.000000 0.000000 0.000000 0.070880 0.000000 0.000000
# 5 0.000000 0.000000 0.000000 0.000000 0.070880 0.000000
# 6 -0.020789 0.020789 0.000000 0.000000 0.000000 -0.266371
#
#
# Mechanical properties :
#
#
# Convention : Reuss Voigt Hill
#
# Bulk Modulus (GPa) = 17.00840 42.89138 29.94989
# Shear Modulus (GPa) = -184.99396 21.42493 -81.78451
#
# Velocity S-wave (km/s) = -9.27303 3.15575 -6.16564
# Velocity P-wave (km/s) = 10.33181 5.76326 6.06346
#
# Compressibility (1/GPa) = 0.05879447
#
# Stress axis : x y z
#
# Youngs Moduli (GPa) = 31.54616 31.54616 200.37871
#
# Poissons Ratio (x) = -0.05202 0.64590
# Poissons Ratio (y) = -0.05202 0.64590
# Poissons Ratio (z) = 0.10169 0.10169
#
# Static dielectric constant tensor:
#      x y z
#    x 1.786490 0.000000 0.000000 
#    y 0.000000 1.786490 0.000000 
#    z 0.000000 0.000000 1.945550 
# 
# From -- ./inp_files/698.got.cif
#   From: 2010.05.17/outbox.cif.g08.bks.cpg/sg88_1_cif.got.tgz:698.got - 2010.06.03 19:11:41.
