data_PCOD9546509
_publ_section_title
;
Structure prediction by ZEFSAII (Michael W. Deem and Ramdas Pophale) SiO2 
 PCOD9546509
Probable space group: I 41/A
;
_chemical_formula_sum "Si O2"
_cell_formula_units_Z 88
_cell_length_a 17.780505
_cell_length_b 17.780505
_cell_length_c 13.666078
_cell_angle_alpha 90.000000
_cell_angle_beta 90.000000
_cell_angle_gamma 90.000000
_cell_volume 4320.480789
_symmetry_space_group_name_H-M "I 41/A"
_symmetry_group_IT_number 88
_space_group.IT_coordinate_system_code '2'
_symmetry_cell_setting 'tetragonal'
loop_
_space_group_symop_operation_xyz
x,y,z
3/4-y,1/4+x,1/4+z
-x,1/2-y,z
1/4+y,1/4-x,1/4+z
-x,-y,-z
1/4+y,3/4-x,3/4-z
x,1/2+y,-z
3/4-y,3/4+x,3/4-z
1/2+x,1/2+y,1/2+z
1/4-y,3/4+x,3/4+z
1/2-x,-y,1/2+z
3/4+y,3/4-x,3/4+z
1/2-x,1/2-y,1/2-z
3/4+y,1/4-x,1/4-z
1/2+x,y,1/2-z
1/4-y,1/4+x,1/4-z
loop_
_atom_site_type_symbol
_atom_site_label
_atom_site_fract_x
_atom_site_fract_y
_atom_site_fract_z
Si Si1 0.862385 0.168016 0.524644
Si Si2 0.466285 0.030603 0.646072
Si Si3 0.950419 0.596960 0.942318
Si Si4 0.704747 0.431752 0.351064
Si Si5 0.152082 0.962667 0.637265
Si Si6 0.000000 0.750000 0.875000
Si Si7 0.500000 0.750000 0.125000
O O1 0.829916 0.244668 0.476998
O O2 0.872263 0.101083 0.442428
O O3 0.790994 0.142131 0.593059
O O4 0.942386 0.192853 0.569266
O O5 0.484721 0.070559 0.543790
O O6 0.505097 0.948828 0.641129
O O7 0.378350 0.014578 0.638431
O O8 0.864609 0.573916 0.926524
O O9 0.960934 0.684904 0.935516
O O10 0.666485 0.422356 0.243487
O O11 0.736503 0.515104 0.351499
#
# Coordination Sequence:
#
# PCOD9546509 Si02
#       7
#    16  16  16  16  16   4   4
#     4  11  26  48  73  94 137 177 230 282 342 399
#     4  11  21  38  62  95 139 179 215 280 339 399
#     4  11  21  34  57  97 142 172 212 272 338 408
#     4  11  19  37  64 102 141 167 223 280 329 405
#     4  10  21  42  73 100 129 180 223 279 334 407
#     4  12  24  30  52  92 144 186 216 260 346 420
#     4  12  32  58  64  96 138 176 232 296 322 396
#
# _framework density 20.368103000000001
#
# number of rings (size 3 to 8) (size 9 to 14) (size 15 to 20)
#    0.000    1.091    7.273    1.091    0.000    4.364 
#    3.273    0.000    0.000    0.000    0.000    0.000 
#    0.000    0.000    0.000    0.000    0.000    0.000 
#
# Total GULP energy -245049.878743 kJ/mol
# GULP energy per Si atom -5569.315426 kJ/mol
# Density = 2.032174 g / cm^3
# Si number density = 20.368103 Si / 1000 Ang^3
#
#
#
# Elastic Constant Matrix: (Units=GPa)
#
#
# Indices 1 2 3 4 5 6 
#
# 1 104.8085 30.0812 38.5947 0.0000 0.0000 3.6936
# 2 30.0812 104.8085 38.5947 0.0000 0.0000 -3.6936
# 3 38.5947 38.5947 60.3406 0.0000 0.0000 0.0000
# 4 0.0000 0.0000 0.0000 27.6532 0.0000 0.0000
# 5 0.0000 0.0000 0.0000 0.0000 27.6532 0.0000
# 6 3.6936 -3.6936 0.0000 0.0000 0.0000 39.7451
#
#
#
# Elastic Compliance Matrix: (Units=1/GPa)
#
#
# Indices 1 2 3 4 5 6 
#
# 1 0.012600 -0.000906 -0.007479 0.000000 0.000000 -0.001255
# 2 -0.000906 0.012600 -0.007479 0.000000 0.000000 0.001255
# 3 -0.007479 -0.007479 0.026140 0.000000 0.000000 0.000000
# 4 0.000000 0.000000 0.000000 0.036162 0.000000 0.000000
# 5 0.000000 0.000000 0.000000 0.000000 0.036162 0.000000
# 6 -0.001255 0.001255 0.000000 0.000000 0.000000 0.025394
#
#
# Mechanical properties :
#
#
# Convention : Reuss Voigt Hill
#
# Bulk Modulus (GPa) = 50.99431 53.83318 52.41375
# Shear Modulus (GPa) = 26.69170 29.85610 28.27390
#
# Velocity S-wave (km/s) = 3.62396 3.83276 3.72983
# Velocity P-wave (km/s) = 6.52698 6.78781 6.65867
#
# Compressibility (1/GPa) = 0.01961003
#
# Stress axis : x y z
#
# Youngs Moduli (GPa) = 79.36670 79.36670 38.25512
#
# Poissons Ratio (x) = 0.07193 0.28612
# Poissons Ratio (y) = 0.07193 0.28612
# Poissons Ratio (z) = 0.59361 0.59361
#
# Static dielectric constant tensor:
#      x y z
#    x 1.786400 0.000000 0.000000 
#    y 0.000000 1.786400 0.000000 
#    z 0.000000 0.000000 1.806330 
# 
# From -- ./inp_files/3256.got.cif
#   From: 2010.05.17/outbox.cif.g08.bks.cpg/sg88_2_cif.got.tgz:3256.got - 2010.06.03 19:11:41.
