data_PCOD9546845
_publ_section_title
;
Structure prediction by ZEFSAII (Michael W. Deem and Ramdas Pophale) SiO2 
 PCOD9546845
Probable space group: I 41/A
;
_chemical_formula_sum "Si O2"
_cell_formula_units_Z 28
_cell_length_a 7.496582
_cell_length_b 7.496582
_cell_length_c 23.715622
_cell_angle_alpha 90.000000
_cell_angle_beta 90.000000
_cell_angle_gamma 90.000000
_cell_volume 1332.788115
_symmetry_space_group_name_H-M "I 41/A"
_symmetry_group_IT_number 88
_space_group.IT_coordinate_system_code '2'
_symmetry_cell_setting 'tetragonal'
loop_
_space_group_symop_operation_xyz
x,y,z
3/4-y,1/4+x,1/4+z
-x,1/2-y,z
1/4+y,1/4-x,1/4+z
-x,-y,-z
1/4+y,3/4-x,3/4-z
x,1/2+y,-z
3/4-y,3/4+x,3/4-z
1/2+x,1/2+y,1/2+z
1/4-y,3/4+x,3/4+z
1/2-x,-y,1/2+z
3/4+y,3/4-x,3/4+z
1/2-x,1/2-y,1/2-z
3/4+y,1/4-x,1/4-z
1/2+x,y,1/2-z
1/4-y,1/4+x,1/4-z
loop_
_atom_site_type_symbol
_atom_site_label
_atom_site_fract_x
_atom_site_fract_y
_atom_site_fract_z
Si Si1 0.000000 0.250000 0.704073
Si Si2 0.500000 0.750000 0.625000
Si Si3 0.651985 0.615711 0.935061
O O1 0.901516 0.112737 0.747398
O O2 0.838319 0.349020 0.673752
O O3 0.583166 0.592627 0.662078
O O4 0.500000 0.750000 0.911566
#
# Coordination Sequence:
#
# PCOD9546845 Si02
#       3
#     8   4  16
#     4   8  18  44  61  73 122 168 198 221 300 365
#     4  12  24  32  60 102 120 140 208 254 308 324
#     4   9  20  39  56  87 116 157 196 244 291 356
#
# _framework density 21.008593000000001
#
# number of rings (size 3 to 8) (size 9 to 14) (size 15 to 20)
#    1.714    1.143    0.000    0.000    0.000    6.857 
#    0.000    0.000    0.000    0.000    0.000    0.000 
#    0.000    0.000    0.000    0.000    0.000    0.000 
#
# Total GULP energy -78055.519245 kJ/mol
# GULP energy per Si atom -5575.394232 kJ/mol
# Density = 2.096078 g / cm^3
# Si number density = 21.008593 Si / 1000 Ang^3
#
#
#
# Elastic Constant Matrix: (Units=GPa)
#
#
# Indices 1 2 3 4 5 6 
#
# 1 190.2890 97.3154 42.0529 0.0000 0.0000 -10.0080
# 2 97.3154 190.2890 42.0529 0.0000 0.0000 10.0080
# 3 42.0529 42.0529 35.8955 0.0000 0.0000 0.0000
# 4 0.0000 0.0000 0.0000 -7.3073 0.0000 0.0000
# 5 0.0000 0.0000 0.0000 0.0000 -7.3073 0.0000
# 6 -10.0080 10.0080 0.0000 0.0000 0.0000 27.9883
#
#
#
# Elastic Compliance Matrix: (Units=1/GPa)
#
#
# Indices 1 2 3 4 5 6 
#
# 1 0.008471 -0.003182 -0.006196 0.000000 0.000000 0.004167
# 2 -0.003182 0.008471 -0.006196 0.000000 0.000000 -0.004167
# 3 -0.006196 -0.006196 0.042377 0.000000 0.000000 0.000000
# 4 0.000000 0.000000 0.000000 -0.136849 0.000000 0.000000
# 5 0.000000 0.000000 0.000000 0.000000 -0.136849 0.000000
# 6 0.004167 -0.004167 0.000000 0.000000 0.000000 0.038709
#
#
# Mechanical properties :
#
#
# Convention : Reuss Voigt Hill
#
# Bulk Modulus (GPa) = 35.49893 86.59067 61.04480
# Shear Modulus (GPa) = -37.00114 18.34488 -9.32813
#
# Velocity S-wave (km/s) = -4.20126 2.95822 -2.10945
# Velocity P-wave (km/s) = 2.56907 7.27835 4.81530
#
# Compressibility (1/GPa) = 0.02816986
#
# Stress axis : x y z
#
# Youngs Moduli (GPa) = 118.05116 118.05117 23.59778
#
# Poissons Ratio (x) = 0.37563 0.14622
# Poissons Ratio (y) = 0.37563 0.14622
# Poissons Ratio (z) = 0.73147 0.73147
#
# Static dielectric constant tensor:
#      x y z
#    x 1.720870 0.000000 0.000000 
#    y 0.000000 1.720870 0.000000 
#    z 0.000000 0.000000 1.822200 
# 
# From -- ./inp_files/4896.got.cif
#   From: 2010.05.17/outbox.cif.g08.bks.cpg/sg88_3_cif.got.tgz:4896.got - 2010.06.03 19:11:41.
