data_PCOD9546710
_publ_section_title
;
Structure prediction by ZEFSAII (Michael W. Deem and Ramdas Pophale) SiO2 
 PCOD9546710
Probable space group: I 41/A
;
_chemical_formula_sum "Si O2"
_cell_formula_units_Z 80
_cell_length_a 12.647280
_cell_length_b 12.647280
_cell_length_c 24.317966
_cell_angle_alpha 90.000000
_cell_angle_beta 90.000000
_cell_angle_gamma 90.000000
_cell_volume 3889.748429
_symmetry_space_group_name_H-M "I 41/A"
_symmetry_group_IT_number 88
_space_group.IT_coordinate_system_code '2'
_symmetry_cell_setting 'tetragonal'
loop_
_space_group_symop_operation_xyz
x,y,z
3/4-y,1/4+x,1/4+z
-x,1/2-y,z
1/4+y,1/4-x,1/4+z
-x,-y,-z
1/4+y,3/4-x,3/4-z
x,1/2+y,-z
3/4-y,3/4+x,3/4-z
1/2+x,1/2+y,1/2+z
1/4-y,3/4+x,3/4+z
1/2-x,-y,1/2+z
3/4+y,3/4-x,3/4+z
1/2-x,1/2-y,1/2-z
3/4+y,1/4-x,1/4-z
1/2+x,y,1/2-z
1/4-y,1/4+x,1/4-z
loop_
_atom_site_type_symbol
_atom_site_label
_atom_site_fract_x
_atom_site_fract_y
_atom_site_fract_z
Si Si1 0.723723 0.498990 0.312484
Si Si2 0.331282 0.833615 0.463159
Si Si3 0.071258 0.591334 0.381431
Si Si4 0.929035 0.615772 0.022155
Si Si5 0.348382 0.821594 0.644448
O O1 0.657972 0.479717 0.256569
O O2 0.794590 0.604083 0.319861
O O3 0.797505 0.395265 0.311316
O O4 0.642385 0.487304 0.363086
O O5 0.253328 0.820462 0.412354
O O6 0.357133 0.719159 0.487527
O O7 0.454526 0.865437 0.453199
O O8 0.126039 0.699086 0.358123
O O9 0.945362 0.579182 0.959099
O O10 0.459578 0.882252 0.634717
#
# Coordination Sequence:
#
# PCOD9546710 Si02
#       5
#    16  16  16  16  16
#     4  12  23  38  69  93 132 176 219 269 341 396
#     4  11  22  41  66  96 131 166 217 275 337 396
#     4  11  26  48  66  87 131 186 238 278 323 391
#     4  11  22  39  63 103 139 164 209 274 339 407
#     4  11  20  37  61 100 138 175 198 260 347 409
#
# _framework density 20.566883000000001
#
# number of rings (size 3 to 8) (size 9 to 14) (size 15 to 20)
#    0.000    0.800    6.000    3.000    2.800    0.800 
#    0.000    0.000    0.000    0.000    0.000    0.000 
#    0.000    0.000    0.000    0.000    0.000    0.000 
#
# Total GULP energy -222952.405123 kJ/mol
# GULP energy per Si atom -5573.810128 kJ/mol
# Density = 2.052007 g / cm^3
# Si number density = 20.566883 Si / 1000 Ang^3
#
#
#
# Elastic Constant Matrix: (Units=GPa)
#
#
# Indices 1 2 3 4 5 6 
#
# 1 86.4497 28.7535 16.9551 0.0000 0.0000 -8.0405
# 2 28.7535 86.4497 16.9551 0.0000 0.0000 8.0405
# 3 16.9551 16.9551 47.3691 0.0000 0.0000 0.0000
# 4 0.0000 0.0000 0.0000 26.2501 0.0000 0.0000
# 5 0.0000 0.0000 0.0000 0.0000 26.2501 0.0000
# 6 -8.0405 8.0405 0.0000 0.0000 0.0000 30.6719
#
#
#
# Elastic Compliance Matrix: (Units=1/GPa)
#
#
# Indices 1 2 3 4 5 6 
#
# 1 0.014200 -0.004498 -0.003473 0.000000 0.000000 0.004902
# 2 -0.004498 0.014200 -0.003473 0.000000 0.000000 -0.004902
# 3 -0.003473 -0.003473 0.023597 0.000000 0.000000 0.000000
# 4 0.000000 0.000000 0.000000 0.038095 0.000000 0.000000
# 5 0.000000 0.000000 0.000000 0.000000 0.038095 0.000000
# 6 0.004902 -0.004902 0.000000 0.000000 0.000000 0.035173
#
#
# Mechanical properties :
#
#
# Convention : Reuss Voigt Hill
#
# Bulk Modulus (GPa) = 34.35186 38.39955 36.37570
# Shear Modulus (GPa) = 25.51647 27.14142 26.32895
#
# Velocity S-wave (km/s) = 3.52612 3.63666 3.58182
# Velocity P-wave (km/s) = 5.77207 6.02867 5.90176
#
# Compressibility (1/GPa) = 0.02911051
#
# Stress axis : x y z
#
# Youngs Moduli (GPa) = 70.42034 70.42034 42.37835
#
# Poissons Ratio (x) = 0.31674 0.14718
# Poissons Ratio (y) = 0.31674 0.14718
# Poissons Ratio (z) = 0.24456 0.24456
#
# Static dielectric constant tensor:
#      x y z
#    x 1.794120 0.000000 0.000000 
#    y 0.000000 1.794120 0.000000 
#    z 0.000000 0.000000 1.728360 
# 
# From -- ./inp_files/6339.got.cif
#   From: 2010.05.17/outbox.cif.g08.bks.cpg/sg88_4_cif.got.tgz:6339.got - 2010.06.03 19:11:41.
