data_PCOD9546744
_publ_section_title
;
Structure prediction by ZEFSAII (Michael W. Deem and Ramdas Pophale) SiO2 
 PCOD9546744
Probable space group: I 41/A
;
_chemical_formula_sum "Si O2"
_cell_formula_units_Z 80
_cell_length_a 13.855349
_cell_length_b 13.855349
_cell_length_c 19.840615
_cell_angle_alpha 90.000000
_cell_angle_beta 90.000000
_cell_angle_gamma 90.000000
_cell_volume 3808.816669
_symmetry_space_group_name_H-M "I 41/A"
_symmetry_group_IT_number 88
_space_group.IT_coordinate_system_code '2'
_symmetry_cell_setting 'tetragonal'
loop_
_space_group_symop_operation_xyz
x,y,z
3/4-y,1/4+x,1/4+z
-x,1/2-y,z
1/4+y,1/4-x,1/4+z
-x,-y,-z
1/4+y,3/4-x,3/4-z
x,1/2+y,-z
3/4-y,3/4+x,3/4-z
1/2+x,1/2+y,1/2+z
1/4-y,3/4+x,3/4+z
1/2-x,-y,1/2+z
3/4+y,3/4-x,3/4+z
1/2-x,1/2-y,1/2-z
3/4+y,1/4-x,1/4-z
1/2+x,y,1/2-z
1/4-y,1/4+x,1/4-z
loop_
_atom_site_type_symbol
_atom_site_label
_atom_site_fract_x
_atom_site_fract_y
_atom_site_fract_z
Si Si1 0.886844 0.514938 0.992454
Si Si2 0.863254 0.998931 0.165984
Si Si3 0.249155 0.313451 0.009245
Si Si4 0.450315 0.107753 0.869889
Si Si5 0.886087 0.997452 0.511442
O O1 0.858126 0.493435 0.914638
O O2 0.848126 0.624725 0.001484
O O3 0.835799 0.446027 0.047805
O O4 0.000000 0.500000 0.000000
O O5 0.809678 0.909508 0.201320
O O6 0.975926 0.005427 0.188289
O O7 0.286125 0.269816 0.938889
O O8 0.329634 0.397060 0.022283
O O9 0.397554 0.204089 0.843842
O O10 0.376831 0.055432 0.918824
O O11 0.000000 0.000000 0.500000
#
# Coordination Sequence:
#
# PCOD9546744 Si02
#       5
#    16  16  16  16  16
#     4  11  27  48  71  96 132 179 238 288 341 394
#     4  11  26  46  68 103 132 178 230 285 338 413
#     4  11  25  41  69  93 135 178 221 278 342 396
#     4  11  22  40  64  99 136 176 212 270 339 418
#     4  11  24  38  64  96 139 171 213 265 336 409
#
# _framework density 21.003896999999998
#
# number of rings (size 3 to 8) (size 9 to 14) (size 15 to 20)
#    0.000    1.000    4.000    1.200   16.800    1.600 
#    0.000    4.000    0.000    0.000    0.000    0.000 
#    0.000    0.000    0.000    0.000    0.000    0.000 
#
# Total GULP energy -223243.894409 kJ/mol
# GULP energy per Si atom -5581.097360 kJ/mol
# Density = 2.095609 g / cm^3
# Si number density = 21.003897 Si / 1000 Ang^3
#
#
#
# Elastic Constant Matrix: (Units=GPa)
#
#
# Indices 1 2 3 4 5 6 
#
# 1 116.9942 15.9957 -12.0959 0.0000 0.0000 -7.4921
# 2 15.9957 116.9942 -12.0959 0.0000 0.0000 7.4921
# 3 -12.0959 -12.0959 66.3076 0.0000 0.0000 0.0000
# 4 0.0000 0.0000 0.0000 31.6588 0.0000 0.0000
# 5 0.0000 0.0000 0.0000 0.0000 31.6588 0.0000
# 6 -7.4921 7.4921 0.0000 0.0000 0.0000 12.6859
#
#
#
# Elastic Compliance Matrix: (Units=1/GPa)
#
#
# Indices 1 2 3 4 5 6 
#
# 1 0.009315 -0.001537 0.001419 0.000000 0.000000 0.006409
# 2 -0.001537 0.009315 0.001419 0.000000 0.000000 -0.006409
# 3 0.001419 0.001419 0.015599 0.000000 0.000000 0.000000
# 4 0.000000 0.000000 0.000000 0.031587 0.000000 0.000000
# 5 0.000000 0.000000 0.000000 0.000000 0.031587 0.000000
# 6 0.006409 -0.006409 0.000000 0.000000 0.000000 0.086398
#
#
# Mechanical properties :
#
#
# Convention : Reuss Voigt Hill
#
# Bulk Modulus (GPa) = 27.15267 31.54491 29.34879
# Shear Modulus (GPa) = 25.84308 35.76684 30.80496
#
# Velocity S-wave (km/s) = 3.51150 4.13106 3.83382
# Velocity P-wave (km/s) = 5.42184 6.14861 5.79663
#
# Compressibility (1/GPa) = 0.03682879
#
# Stress axis : x y z
#
# Youngs Moduli (GPa) = 107.35702 107.35702 64.10732
#
# Poissons Ratio (x) = 0.16504 -0.09095
# Poissons Ratio (y) = 0.16504 -0.09095
# Poissons Ratio (z) = -0.15231 -0.15231
#
# Static dielectric constant tensor:
#      x y z
#    x 1.880830 0.000000 0.000000 
#    y 0.000000 1.880830 0.000000 
#    z 0.000000 0.000000 1.867900 
# 
# From -- ./inp_files/4510.got.cif
#   From: 2010.05.17/outbox.cif.g08.bks.cpg/sg88_3_cif.got.tgz:4510.got - 2010.06.03 19:11:41.
