data_PCOD9546340
_publ_section_title
;
Structure prediction by ZEFSAII (Michael W. Deem and Ramdas Pophale) SiO2 
 PCOD9546340
Probable space group: I 41/A
;
_chemical_formula_sum "Si O2"
_cell_formula_units_Z 88
_cell_length_a 18.349267
_cell_length_b 18.349267
_cell_length_c 12.661063
_cell_angle_alpha 90.000000
_cell_angle_beta 90.000000
_cell_angle_gamma 90.000000
_cell_volume 4262.924196
_symmetry_space_group_name_H-M "I 41/A"
_symmetry_group_IT_number 88
_space_group.IT_coordinate_system_code '2'
_symmetry_cell_setting 'tetragonal'
loop_
_space_group_symop_operation_xyz
x,y,z
3/4-y,1/4+x,1/4+z
-x,1/2-y,z
1/4+y,1/4-x,1/4+z
-x,-y,-z
1/4+y,3/4-x,3/4-z
x,1/2+y,-z
3/4-y,3/4+x,3/4-z
1/2+x,1/2+y,1/2+z
1/4-y,3/4+x,3/4+z
1/2-x,-y,1/2+z
3/4+y,3/4-x,3/4+z
1/2-x,1/2-y,1/2-z
3/4+y,1/4-x,1/4-z
1/2+x,y,1/2-z
1/4-y,1/4+x,1/4-z
loop_
_atom_site_type_symbol
_atom_site_label
_atom_site_fract_x
_atom_site_fract_y
_atom_site_fract_z
Si Si1 0.428606 0.981573 0.433463
Si Si2 0.887424 0.744044 0.033976
Si Si3 0.884566 0.875051 0.899878
Si Si4 0.500000 0.250000 0.712905
Si Si5 0.933668 0.516373 0.576972
Si Si6 0.862648 0.156083 0.518029
O O1 0.378409 0.940868 0.518492
O O2 0.439362 0.928823 0.333792
O O3 0.500000 0.000000 0.500000
O O4 0.397519 0.055869 0.389144
O O5 0.923019 0.809209 0.965126
O O6 0.862789 0.682554 0.953461
O O7 0.938590 0.719625 0.130657
O O8 0.816987 0.783179 0.081688
O O9 0.544347 0.186392 0.775103
O O10 0.880584 0.572324 0.514704
O O11 0.907338 0.441415 0.631587
O O12 0.000000 0.500000 0.500000
#
# Coordination Sequence:
#
# PCOD9546340 Si02
#       6
#    16  16  16   8  16  16
#     4  12  21  39  64  97 137 174 222 284 346 413
#     4  11  21  38  63 102 130 176 225 276 342 403
#     4  12  21  37  66  95 137 174 222 283 346 409
#     4  10  20  35  69  96 136 174 226 278 338 404
#     4  11  25  45  70  93 137 182 235 282 341 415
#     4  11  22  45  65 100 136 182 228 287 346 405
#
# _framework density 20.643108000000002
#
# number of rings (size 3 to 8) (size 9 to 14) (size 15 to 20)
#    0.000    0.727    7.273    2.182    0.000    2.909 
#    0.000    6.364    0.000    0.000    0.000    0.000 
#    0.000    0.000    0.000    0.000    0.000    0.000 
#
# Total GULP energy -245654.141815 kJ/mol
# GULP energy per Si atom -5583.048678 kJ/mol
# Density = 2.059612 g / cm^3
# Si number density = 20.643108 Si / 1000 Ang^3
#
#
#
# Elastic Constant Matrix: (Units=GPa)
#
#
# Indices 1 2 3 4 5 6 
#
# 1 99.2724 47.5494 54.8911 0.0000 0.0000 -6.2985
# 2 47.5494 99.2724 54.8911 0.0000 0.0000 6.2985
# 3 54.8911 54.8911 99.1449 0.0000 0.0000 0.0000
# 4 0.0000 0.0000 0.0000 39.2916 0.0000 0.0000
# 5 0.0000 0.0000 0.0000 0.0000 39.2916 0.0000
# 6 -6.2985 6.2985 0.0000 0.0000 0.0000 16.8652
#
#
#
# Elastic Compliance Matrix: (Units=1/GPa)
#
#
# Indices 1 2 3 4 5 6 
#
# 1 0.016445 -0.004823 -0.006435 0.000000 0.000000 0.007943
# 2 -0.004823 0.016445 -0.006435 0.000000 0.000000 -0.007943
# 3 -0.006435 -0.006435 0.017211 0.000000 0.000000 0.000000
# 4 0.000000 0.000000 0.000000 0.025451 0.000000 0.000000
# 5 0.000000 0.000000 0.000000 0.000000 0.025451 0.000000
# 6 0.007943 -0.007943 0.000000 0.000000 0.000000 0.065226
#
#
# Mechanical properties :
#
#
# Convention : Reuss Voigt Hill
#
# Bulk Modulus (GPa) = 67.94711 68.03923 67.99317
# Shear Modulus (GPa) = 24.21076 28.44689 26.32882
#
# Velocity S-wave (km/s) = 3.42837 3.71621 3.57519
# Velocity P-wave (km/s) = 6.97555 7.17252 7.07472
#
# Compressibility (1/GPa) = 0.01471733
#
# Stress axis : x y z
#
# Youngs Moduli (GPa) = 60.80780 60.80780 58.10148
#
# Poissons Ratio (x) = 0.29327 0.37386
# Poissons Ratio (y) = 0.29327 0.37386
# Poissons Ratio (z) = 0.39128 0.39128
#
# Static dielectric constant tensor:
#      x y z
#    x 1.595660 0.000000 0.000000 
#    y 0.000000 1.595660 0.000000 
#    z 0.000000 0.000000 1.805910 
# 
# From -- ./inp_files/3193.got.cif
#   From: 2010.05.17/outbox.cif.g08.bks.cpg/sg88_2_cif.got.tgz:3193.got - 2010.06.03 19:11:41.
