data_PCOD9546783
_publ_section_title
;
Structure prediction by ZEFSAII (Michael W. Deem and Ramdas Pophale) SiO2 
 PCOD9546783
Probable space group: I 41/A
;
_chemical_formula_sum "Si O2"
_cell_formula_units_Z 96
_cell_length_a 15.703661
_cell_length_b 15.703661
_cell_length_c 16.296100
_cell_angle_alpha 90.000000
_cell_angle_beta 90.000000
_cell_angle_gamma 90.000000
_cell_volume 4018.699232
_symmetry_space_group_name_H-M "I 41/A"
_symmetry_group_IT_number 88
_space_group.IT_coordinate_system_code '2'
_symmetry_cell_setting 'tetragonal'
loop_
_space_group_symop_operation_xyz
x,y,z
3/4-y,1/4+x,1/4+z
-x,1/2-y,z
1/4+y,1/4-x,1/4+z
-x,-y,-z
1/4+y,3/4-x,3/4-z
x,1/2+y,-z
3/4-y,3/4+x,3/4-z
1/2+x,1/2+y,1/2+z
1/4-y,3/4+x,3/4+z
1/2-x,-y,1/2+z
3/4+y,3/4-x,3/4+z
1/2-x,1/2-y,1/2-z
3/4+y,1/4-x,1/4-z
1/2+x,y,1/2-z
1/4-y,1/4+x,1/4-z
loop_
_atom_site_type_symbol
_atom_site_label
_atom_site_fract_x
_atom_site_fract_y
_atom_site_fract_z
Si Si1 0.575477 0.416458 0.061306
Si Si2 0.694335 0.291776 0.451456
Si Si3 0.820356 0.966757 0.314217
Si Si4 0.649940 0.760683 0.844693
Si Si5 0.896757 0.932251 0.627060
Si Si6 0.873210 0.385041 0.047884
O O1 0.623826 0.491929 0.112513
O O2 0.588458 0.330255 0.113920
O O3 0.474790 0.434658 0.062790
O O4 0.627862 0.400271 0.977747
O O5 0.767951 0.243145 0.402446
O O6 0.727136 0.324026 0.538706
O O7 0.656891 0.363458 0.392371
O O8 0.627118 0.216442 0.464294
O O9 0.727322 0.937801 0.344304
O O10 0.825377 0.039225 0.244149
O O11 0.618009 0.664584 0.846186
O O12 0.667930 0.797298 0.754928
#
# Coordination Sequence:
#
# PCOD9546783 Si02
#       6
#    16  16  16  16  16  16
#     4  11  23  49  69 101 145 188 246 319 373 434
#     4  12  25  44  71 111 145 203 249 301 376 456
#     4  11  26  45  72  99 148 191 244 316 373 437
#     4  11  24  43  71 106 148 195 241 308 374 441
#     4  12  26  43  77 104 143 197 258 296 376 450
#     4  11  25  46  71 107 160 189 244 314 375 447
#
# _framework density 23.888327
#
# number of rings (size 3 to 8) (size 9 to 14) (size 15 to 20)
#    0.000    0.667    5.000    2.500    4.667    1.667 
#    0.000    0.000    0.000    0.000    0.000    0.000 
#    0.000    0.000    0.000    0.000    0.000    0.000 
#
# Total GULP energy -268589.944656 kJ/mol
# GULP energy per Si atom -5595.623847 kJ/mol
# Density = 2.383396 g / cm^3
# Si number density = 23.888327 Si / 1000 Ang^3
#
#
#
# Elastic Constant Matrix: (Units=GPa)
#
#
# Indices 1 2 3 4 5 6 
#
# 1 100.3841 37.6233 14.0752 0.0000 0.0000 -12.7175
# 2 37.6233 100.3841 14.0752 0.0000 0.0000 12.7175
# 3 14.0752 14.0752 68.8506 0.0000 0.0000 0.0000
# 4 0.0000 0.0000 0.0000 38.9139 0.0000 0.0000
# 5 0.0000 0.0000 0.0000 0.0000 38.9139 0.0000
# 6 -12.7175 12.7175 0.0000 0.0000 0.0000 44.3494
#
#
#
# Elastic Compliance Matrix: (Units=1/GPa)
#
#
# Indices 1 2 3 4 5 6 
#
# 1 0.012795 -0.005234 -0.001546 0.000000 0.000000 0.005170
# 2 -0.005234 0.012795 -0.001546 0.000000 0.000000 -0.005170
# 3 -0.001546 -0.001546 0.015156 0.000000 0.000000 0.000000
# 4 0.000000 0.000000 0.000000 0.025698 0.000000 0.000000
# 5 0.000000 0.000000 0.000000 0.000000 0.025698 0.000000
# 6 0.005170 -0.005170 0.000000 0.000000 0.000000 0.025513
#
#
# Mechanical properties :
#
#
# Convention : Reuss Voigt Hill
#
# Bulk Modulus (GPa) = 41.50114 44.57403 43.03759
# Shear Modulus (GPa) = 35.12783 38.02510 36.57647
#
# Velocity S-wave (km/s) = 3.83887 3.99405 3.91723
# Velocity P-wave (km/s) = 6.08769 6.32216 6.20603
#
# Compressibility (1/GPa) = 0.02409572
#
# Stress axis : x y z
#
# Youngs Moduli (GPa) = 78.15560 78.15559 65.97958
#
# Poissons Ratio (x) = 0.40904 0.10199
# Poissons Ratio (y) = 0.40904 0.10199
# Poissons Ratio (z) = 0.12081 0.12081
#
# Static dielectric constant tensor:
#      x y z
#    x 1.939490 0.000000 0.000000 
#    y 0.000000 1.939490 0.000000 
#    z 0.000000 0.000000 1.991710 
# 
# From -- ./inp_files/4726.got.cif
#   From: 2010.05.17/outbox.cif.g08.bks.cpg/sg88_3_cif.got.tgz:4726.got - 2010.06.03 19:11:41.
