data_PCOD9546384
_publ_section_title
;
Structure prediction by ZEFSAII (Michael W. Deem and Ramdas Pophale) SiO2 
 PCOD9546384
Probable space group: I 41/A
;
_chemical_formula_sum "Si O2"
_cell_formula_units_Z 116
_cell_length_a 17.852249
_cell_length_b 17.852249
_cell_length_c 18.159547
_cell_angle_alpha 90.000000
_cell_angle_beta 90.000000
_cell_angle_gamma 90.000000
_cell_volume 5787.498373
_symmetry_space_group_name_H-M "I 41/A"
_symmetry_group_IT_number 88
_space_group.IT_coordinate_system_code '2'
_symmetry_cell_setting 'tetragonal'
loop_
_space_group_symop_operation_xyz
x,y,z
3/4-y,1/4+x,1/4+z
-x,1/2-y,z
1/4+y,1/4-x,1/4+z
-x,-y,-z
1/4+y,3/4-x,3/4-z
x,1/2+y,-z
3/4-y,3/4+x,3/4-z
1/2+x,1/2+y,1/2+z
1/4-y,3/4+x,3/4+z
1/2-x,-y,1/2+z
3/4+y,3/4-x,3/4+z
1/2-x,1/2-y,1/2-z
3/4+y,1/4-x,1/4-z
1/2+x,y,1/2-z
1/4-y,1/4+x,1/4-z
loop_
_atom_site_type_symbol
_atom_site_label
_atom_site_fract_x
_atom_site_fract_y
_atom_site_fract_z
Si Si1 0.500000 0.750000 0.125000
Si Si2 0.498456 0.940485 0.933344
Si Si3 0.930572 0.478772 0.275429
Si Si4 0.698834 0.671198 0.554640
Si Si5 0.899567 0.318301 0.508007
Si Si6 0.937206 0.406477 0.981091
Si Si7 0.140578 0.839187 0.561351
Si Si8 0.402110 0.574889 0.523720
O O1 0.560518 0.796781 0.171676
O O2 0.473480 0.970804 0.853598
O O3 0.580602 0.904237 0.932528
O O4 0.440867 0.873447 0.952279
O O5 0.500000 0.000000 0.000000
O O6 0.904745 0.564852 0.270935
O O7 0.865937 0.417512 0.263744
O O8 0.990647 0.462751 0.209998
O O9 0.628326 0.647405 0.506845
O O10 0.778681 0.636294 0.530121
O O11 0.681744 0.646279 0.637962
O O12 0.892259 0.232155 0.481309
O O13 0.939818 0.407576 0.893262
O O14 0.915163 0.490558 0.006371
O O15 0.018929 0.384139 0.009225
#
# Coordination Sequence:
#
# PCOD9546384 Si02
#       8
#     4  16  16  16  16  16  16  16
#     4  12  20  40  68  92 124 172 218 280 336 384
#     4  12  24  43  64  94 125 168 225 271 324 395
#     4  11  24  41  63  97 130 168 217 276 323 400
#     4  10  21  38  63  91 128 158 211 265 319 391
#     4  11  24  41  65  94 126 169 214 272 329 385
#     4  10  20  40  61  88 123 169 204 253 321 392
#     4  10  21  41  63  88 121 167 209 258 325 383
#     4  10  22  37  63  90 126 168 207 257 325 392
#
# _framework density 20.043201
#
# number of rings (size 3 to 8) (size 9 to 14) (size 15 to 20)
#    0.000    1.379    2.759    2.483    0.000    4.966 
#    0.000    4.138    0.000    0.000    0.000    0.000 
#    0.000    0.000    0.000    0.000    0.000    0.000 
#
# Total GULP energy -323782.680843 kJ/mol
# GULP energy per Si atom -5582.460015 kJ/mol
# Density = 1.999758 g / cm^3
# Si number density = 20.043201 Si / 1000 Ang^3
#
#
#
# Elastic Constant Matrix: (Units=GPa)
#
#
# Indices 1 2 3 4 5 6 
#
# 1 69.5592 18.1963 1.7569 0.0000 0.0000 -2.6349
# 2 18.1963 69.5592 1.7569 0.0000 0.0000 2.6349
# 3 1.7569 1.7569 49.2745 0.0000 0.0000 0.0000
# 4 0.0000 0.0000 0.0000 25.4929 0.0000 0.0000
# 5 0.0000 0.0000 0.0000 0.0000 25.4929 0.0000
# 6 -2.6349 2.6349 0.0000 0.0000 0.0000 6.4352
#
#
#
# Elastic Compliance Matrix: (Units=1/GPa)
#
#
# Indices 1 2 3 4 5 6 
#
# 1 0.015867 -0.004456 -0.000407 0.000000 0.000000 0.008321
# 2 -0.004456 0.015867 -0.000407 0.000000 0.000000 -0.008321
# 3 -0.000407 -0.000407 0.020324 0.000000 0.000000 0.000000
# 4 0.000000 0.000000 0.000000 0.039227 0.000000 0.000000
# 5 0.000000 0.000000 0.000000 0.000000 0.039227 0.000000
# 6 0.008321 -0.008321 0.000000 0.000000 0.000000 0.162208
#
#
# Mechanical properties :
#
#
# Convention : Reuss Voigt Hill
#
# Bulk Modulus (GPa) = 24.08529 25.75703 24.92116
# Shear Modulus (GPa) = 15.76799 22.59640 19.18219
#
# Velocity S-wave (km/s) = 2.80786 3.36130 3.09697
# Velocity P-wave (km/s) = 4.74920 5.28612 5.02484
#
# Compressibility (1/GPa) = 0.04151911
#
# Stress axis : x y z
#
# Youngs Moduli (GPa) = 63.02265 63.02265 49.20411
#
# Poissons Ratio (x) = 0.28081 0.02002
# Poissons Ratio (y) = 0.28081 0.02002
# Poissons Ratio (z) = 0.02564 0.02564
#
# Static dielectric constant tensor:
#      x y z
#    x 1.713240 0.000000 0.000000 
#    y 0.000000 1.713240 0.000000 
#    z 0.000000 0.000000 1.716630 
# 
# From -- ./inp_files/4016.got.cif
#   From: 2010.05.17/outbox.cif.g08.bks.cpg/sg88_3_cif.got.tgz:4016.got - 2010.06.03 19:11:41.
