data_PCOD9546088
_publ_section_title
;
Structure prediction by ZEFSAII (Michael W. Deem and Ramdas Pophale) SiO2 
 PCOD9546088
Probable space group: I 4/M
;
_chemical_formula_sum "Si O2"
_cell_formula_units_Z 60
_cell_length_a 13.622139
_cell_length_b 13.622139
_cell_length_c 14.345127
_cell_angle_alpha 90.000000
_cell_angle_beta 90.000000
_cell_angle_gamma 90.000000
_cell_volume 2661.920081
_symmetry_space_group_name_H-M "I 4/M"
_symmetry_group_IT_number 87
_symmetry_cell_setting 'tetragonal'
loop_
_space_group_symop_operation_xyz
x,y,z
-y,x,z
-x,-y,z
y,-x,z
-x,-y,-z
y,-x,-z
x,y,-z
-y,x,-z
1/2+x,1/2+y,1/2+z
1/2-y,1/2+x,1/2+z
1/2-x,1/2-y,1/2+z
1/2+y,1/2-x,1/2+z
1/2-x,1/2-y,1/2-z
1/2+y,1/2-x,1/2-z
1/2+x,1/2+y,1/2-z
1/2-y,1/2+x,1/2-z
loop_
_atom_site_type_symbol
_atom_site_label
_atom_site_fract_x
_atom_site_fract_y
_atom_site_fract_z
Si Si1 0.842978 0.533246 0.244704
Si Si2 0.635410 0.402190 0.500000
Si Si3 0.000000 0.000000 0.673964
Si Si4 0.799876 0.059544 0.396010
Si Si5 0.805383 0.246007 0.150746
O O1 0.892476 0.431860 0.276437
O O2 0.778404 0.509899 0.154585
O O3 0.778729 0.584098 0.323956
O O4 0.631755 0.520238 0.500000
O O5 0.687037 0.352447 0.590326
O O6 0.935901 0.898127 0.664963
O O7 0.826989 0.024770 0.500000
O O8 0.748905 0.165496 0.401664
O O9 0.750000 0.250000 0.250000
#
# Coordination Sequence:
#
# PCOD9546088 Si02
#       5
#    16   8   4  16  16
#     4   9  21  42  66 103 140 183 242 302 368 442
#     4  11  28  52  76 110 155 203 259 317 386 468
#     4  12  25  40  60 100 140 169 234 297 364 448
#     4  11  22  42  66  99 138 184 239 302 370 434
#     4  11  24  46  71 103 142 193 246 303 375 448
#
# _framework density 22.540120000000002
#
# number of rings (size 3 to 8) (size 9 to 14) (size 15 to 20)
#    0.000    1.467    1.333    2.800    7.467    0.000 
#    9.600    2.667    0.000    0.000    0.000    0.000 
#    0.000    0.000    0.000    0.000    0.000    0.000 
#
# Total GULP energy -167156.083763 kJ/mol
# GULP energy per Si atom -5571.869459 kJ/mol
# Density = 2.248882 g / cm^3
# Si number density = 22.540120 Si / 1000 Ang^3
#
#
#
# Elastic Constant Matrix: (Units=GPa)
#
#
# Indices 1 2 3 4 5 6 
#
# 1 107.2738 8.7315 32.6861 0.0000 0.0000 -2.1187
# 2 8.7315 107.2738 32.6861 0.0000 0.0000 2.1187
# 3 32.6861 32.6861 86.1340 0.0000 0.0000 0.0000
# 4 0.0000 0.0000 0.0000 -7.3061 0.0000 0.0000
# 5 0.0000 0.0000 0.0000 0.0000 -7.3061 0.0000
# 6 -2.1187 2.1187 0.0000 0.0000 0.0000 32.2644
#
#
#
# Elastic Compliance Matrix: (Units=1/GPa)
#
#
# Indices 1 2 3 4 5 6 
#
# 1 0.010571 0.000394 -0.004161 0.000000 0.000000 0.000668
# 2 0.000394 0.010571 -0.004161 0.000000 0.000000 -0.000668
# 3 -0.004161 -0.004161 0.014768 0.000000 0.000000 0.000000
# 4 0.000000 0.000000 0.000000 -0.136872 0.000000 0.000000
# 5 0.000000 0.000000 0.000000 0.000000 -0.136872 0.000000
# 6 0.000668 -0.000668 0.000000 0.000000 0.000000 0.031082
#
#
# Mechanical properties :
#
#
# Convention : Reuss Voigt Hill
#
# Bulk Modulus (GPa) = 49.86539 49.87657 49.87098
# Shear Modulus (GPa) = -27.14254 18.63564 -4.25345
#
# Velocity S-wave (km/s) = -3.47391 2.87849 -1.37519
# Velocity P-wave (km/s) = 2.46582 5.76399 4.43305
#
# Compressibility (1/GPa) = 0.02005399
#
# Stress axis : x y z
#
# Youngs Moduli (GPa) = 94.59922 94.59922 67.71449
#
# Poissons Ratio (x) = -0.03730 0.28176
# Poissons Ratio (y) = -0.03730 0.28176
# Poissons Ratio (z) = 0.39363 0.39363
#
# Static dielectric constant tensor:
#      x y z
#    x 1.865230 0.000000 0.000000 
#    y 0.000000 1.865230 0.000000 
#    z 0.000000 0.000000 1.890530 
# 
# From -- ./inp_files/3384.got.cif
#   From: 2010.05.17/outbox.cif.g08.bks.cpg/sg87_2_cif.got.tgz:3384.got - 2010.06.03 19:07:00.
