data_PCOD9546182
_publ_section_title
;
Structure prediction by ZEFSAII (Michael W. Deem and Ramdas Pophale) SiO2 
 PCOD9546182
Probable space group: I 4/M
;
_chemical_formula_sum "Si O2"
_cell_formula_units_Z 48
_cell_length_a 24.000000
_cell_length_b 24.000000
_cell_length_c 9.000000
_cell_angle_alpha 90.000000
_cell_angle_beta 90.000000
_cell_angle_gamma 90.000000
_cell_volume 5184.000000
_symmetry_space_group_name_H-M "I 4/M"
_symmetry_group_IT_number 87
_symmetry_cell_setting 'tetragonal'
loop_
_space_group_symop_operation_xyz
x,y,z
-y,x,z
-x,-y,z
y,-x,z
-x,-y,-z
y,-x,-z
x,y,-z
-y,x,-z
1/2+x,1/2+y,1/2+z
1/2-y,1/2+x,1/2+z
1/2-x,1/2-y,1/2+z
1/2+y,1/2-x,1/2+z
1/2-x,1/2-y,1/2-z
1/2+y,1/2-x,1/2-z
1/2+x,1/2+y,1/2-z
1/2-y,1/2+x,1/2-z
loop_
_atom_site_type_symbol
_atom_site_label
_atom_site_fract_x
_atom_site_fract_y
_atom_site_fract_z
Si Si1 0.949273 0.344360 0.676692
Si Si2 0.573890 0.868906 0.171906
Si Si3 0.244662 0.369786 0.321401
Si Si4 0.666710 0.772741 0.828201
Si Si5 0.341601 0.633642 0.323087
Si Si6 0.046790 0.078212 0.678886
O O1 0.946245 0.338351 0.500000
O O2 0.916852 0.399401 0.729021
O O3 0.917529 0.292807 0.751046
O O4 0.013383 0.349314 0.721602
O O5 0.616721 0.817580 0.174224
O O6 0.570120 0.888010 0.000000
O O7 0.237904 0.371164 0.500000
O O8 0.219492 0.309482 0.273736
O O9 0.309433 0.374762 0.285089
O O10 0.647214 0.720207 0.734407
O O11 0.676479 0.755774 0.000000
O O12 0.341001 0.627133 0.500000
O O13 0.371457 0.581023 0.249465
O O14 0.049046 0.082349 0.500000
O O15 0.981565 0.074048 0.721034
#
# Coordination Sequence:
#
# PCOD9546182 Si02
#       6
#    16  16  16  16  16  16
#     4  10  20  34  55  79 102 137 182 221 260 310
#     4   9  20  37  53  75 108 140 174 220 268 309
#     4   9  20  37  53  74 109 144 172 213 265 309
#     4   9  18  35  55  73 103 145 180 214 256 304
#     4  11  22  34  54  85 112 135 169 213 262 315
#     4   9  20  40  61  78 101 137 178 216 255 304
#
# _framework density 9.2592590000000001
#
# number of rings (size 3 to 8) (size 9 to 14) (size 15 to 20)
#    0.000    2.500    0.000    3.000    0.000    7.667 
#    0.000    7.500    0.000    0.000    0.000    0.000 
#    0.000    0.000    0.000    0.000    0.000    0.000 
#
# Total GULP energy -267767.008022 kJ/mol
# GULP energy per Si atom -5578.479334 kJ/mol
# Density = 0.923818 g / cm^3
# Si number density = 9.259259 Si / 1000 Ang^3
#
#
#
# Elastic Constant Matrix: (Units=GPa)
#
#
# Indices 1 2 3 4 5 6 
#
# 1 26.3459 -0.4973 5.1684 0.0000 0.0000 2.1525
# 2 -0.4973 26.3459 5.1684 0.0000 0.0000 -2.1525
# 3 5.1684 5.1684 10.3316 0.0000 0.0000 0.0000
# 4 0.0000 0.0000 0.0000 24.8290 0.0000 0.0000
# 5 0.0000 0.0000 0.0000 0.0000 24.8290 0.0000
# 6 2.1525 -2.1525 0.0000 0.0000 0.0000 18.8640
#
#
#
# Elastic Compliance Matrix: (Units=1/GPa)
#
#
# Indices 1 2 3 4 5 6 
#
# 1 0.043155 0.005207 -0.024193 0.000000 0.000000 -0.004330
# 2 0.005207 0.043155 -0.024193 0.000000 0.000000 0.004330
# 3 -0.024193 -0.024193 0.120996 0.000000 0.000000 0.000000
# 4 0.000000 0.000000 0.000000 0.040276 0.000000 0.000000
# 5 0.000000 0.000000 0.000000 0.000000 0.040276 0.000000
# 6 -0.004330 0.004330 0.000000 0.000000 0.000000 0.053999
#
#
# Mechanical properties :
#
#
# Convention : Reuss Voigt Hill
#
# Bulk Modulus (GPa) = 8.26808 9.18915 8.72861
# Shear Modulus (GPa) = 10.67168 17.24998 13.96083
#
# Velocity S-wave (km/s) = 2.40317 3.05536 2.74868
# Velocity P-wave (km/s) = 3.48923 4.17371 3.84673
#
# Compressibility (1/GPa) = 0.12094705
#
# Stress axis : x y z
#
# Youngs Moduli (GPa) = 23.17243 23.17243 8.26474
#
# Poissons Ratio (x) = -0.12066 0.19995
# Poissons Ratio (y) = -0.12066 0.19995
# Poissons Ratio (z) = 0.56061 0.56061
#
# Static dielectric constant tensor:
#      x y z
#    x 1.631170 0.000000 0.000000 
#    y 0.000000 1.631170 0.000000 
#    z 0.000000 0.000000 1.626880 
# 
# From -- ./inp_files/1449.got.cif
#   From: 2010.05.17/outbox.ucp.g08.bks.cvg/sg87_1_cif.got.tgz:1449.got - 2010.06.11 10:35:24.
