data_PCOD9546543
_publ_section_title
;
Structure prediction by ZEFSAII (Michael W. Deem and Ramdas Pophale) SiO2 
 PCOD9546543
Probable space group: I 41/A
;
_chemical_formula_sum "Si O2"
_cell_formula_units_Z 48
_cell_length_a 13.169024
_cell_length_b 13.169024
_cell_length_c 13.713123
_cell_angle_alpha 90.000000
_cell_angle_beta 90.000000
_cell_angle_gamma 90.000000
_cell_volume 2378.173578
_symmetry_space_group_name_H-M "I 41/A"
_symmetry_group_IT_number 88
_space_group.IT_coordinate_system_code '2'
_symmetry_cell_setting 'tetragonal'
loop_
_space_group_symop_operation_xyz
x,y,z
3/4-y,1/4+x,1/4+z
-x,1/2-y,z
1/4+y,1/4-x,1/4+z
-x,-y,-z
1/4+y,3/4-x,3/4-z
x,1/2+y,-z
3/4-y,3/4+x,3/4-z
1/2+x,1/2+y,1/2+z
1/4-y,3/4+x,3/4+z
1/2-x,-y,1/2+z
3/4+y,3/4-x,3/4+z
1/2-x,1/2-y,1/2-z
3/4+y,1/4-x,1/4-z
1/2+x,y,1/2-z
1/4-y,1/4+x,1/4-z
loop_
_atom_site_type_symbol
_atom_site_label
_atom_site_fract_x
_atom_site_fract_y
_atom_site_fract_z
Si Si1 0.145200 0.687462 0.413344
Si Si2 0.332916 0.892657 0.873942
Si Si3 0.889084 0.358944 0.161487
O O1 0.125885 0.803474 0.384557
O O2 0.252884 0.645300 0.377587
O O3 0.141633 0.670461 0.529612
O O4 0.358752 0.837400 0.772750
O O5 0.212199 0.914693 0.877998
O O6 0.869260 0.259670 0.097352
#
# Coordination Sequence:
#
# PCOD9546543 Si02
#       3
#    16  16  16
#     4  10  22  39  60  87 118 154 196 242 292 345
#     4  10  22  39  60  87 118 154 196 242 292 345
#     4  10  22  39  60  87 118 154 196 242 292 345
#
# _framework density 20.183554999999998
#
# number of rings (size 3 to 8) (size 9 to 14) (size 15 to 20)
#    0.000    2.000    0.000    2.000    0.000   16.000 
#    0.000    0.000    0.000    0.000    0.000    0.000 
#    0.000    0.000    0.000    0.000    0.000    0.000 
#
# Total GULP energy -134072.604574 kJ/mol
# GULP energy per Si atom -5586.358524 kJ/mol
# Density = 2.013762 g / cm^3
# Si number density = 20.183555 Si / 1000 Ang^3
#
#
#
# Elastic Constant Matrix: (Units=GPa)
#
#
# Indices 1 2 3 4 5 6 
#
# 1 48.4038 -21.8968 14.7408 0.0000 0.0000 -4.7517
# 2 -21.8968 48.4038 14.7408 0.0000 0.0000 4.7517
# 3 14.7408 14.7408 151.3144 0.0000 0.0000 0.0000
# 4 0.0000 0.0000 0.0000 13.9551 0.0000 0.0000
# 5 0.0000 0.0000 0.0000 0.0000 13.9551 0.0000
# 6 -4.7517 4.7517 0.0000 0.0000 0.0000 19.0240
#
#
#
# Elastic Compliance Matrix: (Units=1/GPa)
#
#
# Indices 1 2 3 4 5 6 
#
# 1 0.028516 0.013794 -0.004122 0.000000 0.000000 0.003677
# 2 0.013794 0.028516 -0.004122 0.000000 0.000000 -0.003677
# 3 -0.004122 -0.004122 0.007412 0.000000 0.000000 0.000000
# 4 0.000000 0.000000 0.000000 0.071659 0.000000 0.000000
# 5 0.000000 0.000000 0.000000 0.000000 0.071658 0.000000
# 6 0.003677 -0.003677 0.000000 0.000000 0.000000 0.054402
#
#
# Mechanical properties :
#
#
# Convention : Reuss Voigt Hill
#
# Bulk Modulus (GPa) = 13.23715 29.25462 21.24589
# Shear Modulus (GPa) = 18.10000 25.42266 21.76133
#
# Velocity S-wave (km/s) = 2.99786 3.55290 3.28711
# Velocity P-wave (km/s) = 4.30761 5.59969 4.99560
#
# Compressibility (1/GPa) = 0.07554499
#
# Stress axis : x y z
#
# Youngs Moduli (GPa) = 35.06813 35.06813 134.91948
#
# Poissons Ratio (x) = -0.48374 0.55611
# Poissons Ratio (y) = -0.48374 0.55611
# Poissons Ratio (z) = 0.14454 0.14454
#
# Static dielectric constant tensor:
#      x y z
#    x 1.708360 0.000000 0.000000 
#    y 0.000000 1.708360 0.000000 
#    z 0.000000 0.000000 1.701730 
# 
# From -- ./inp_files/3588.got.cif
#   From: 2010.05.17/outbox.cif.g08.bks.cpg/sg88_2_cif.got.tgz:3588.got - 2010.06.03 19:11:41.
