data_PCOD9546605
_publ_section_title
;
Structure prediction by ZEFSAII (Michael W. Deem and Ramdas Pophale) SiO2 
 PCOD9546605
Probable space group: I 41/A
;
_chemical_formula_sum "Si O2"
_cell_formula_units_Z 104
_cell_length_a 16.578712
_cell_length_b 16.578712
_cell_length_c 19.221497
_cell_angle_alpha 90.000000
_cell_angle_beta 90.000000
_cell_angle_gamma 90.000000
_cell_volume 5283.099408
_symmetry_space_group_name_H-M "I 41/A"
_symmetry_group_IT_number 88
_space_group.IT_coordinate_system_code '2'
_symmetry_cell_setting 'tetragonal'
loop_
_space_group_symop_operation_xyz
x,y,z
3/4-y,1/4+x,1/4+z
-x,1/2-y,z
1/4+y,1/4-x,1/4+z
-x,-y,-z
1/4+y,3/4-x,3/4-z
x,1/2+y,-z
3/4-y,3/4+x,3/4-z
1/2+x,1/2+y,1/2+z
1/4-y,3/4+x,3/4+z
1/2-x,-y,1/2+z
3/4+y,3/4-x,3/4+z
1/2-x,1/2-y,1/2-z
3/4+y,1/4-x,1/4-z
1/2+x,y,1/2-z
1/4-y,1/4+x,1/4-z
loop_
_atom_site_type_symbol
_atom_site_label
_atom_site_fract_x
_atom_site_fract_y
_atom_site_fract_z
Si Si1 0.535423 0.588742 0.285284
Si Si2 0.220258 0.347397 0.603086
Si Si3 0.146641 0.893041 0.255427
Si Si4 0.000000 0.750000 0.135740
Si Si5 0.943000 0.417126 0.365392
Si Si6 0.754934 0.597463 0.634370
Si Si7 0.721252 0.055227 0.218619
O O1 0.593641 0.577356 0.219377
O O2 0.533234 0.678129 0.316319
O O3 0.577251 0.780088 0.406323
O O4 0.571437 0.531349 0.344977
O O5 0.159351 0.358824 0.667361
O O6 0.269352 0.263816 0.605522
O O7 0.287415 0.417631 0.608063
O O8 0.164254 0.827058 0.197225
O O9 0.057047 0.925365 0.238057
O O10 0.210247 0.965616 0.249153
O O11 0.859554 0.434533 0.326359
O O12 0.726272 0.610824 0.713367
O O13 0.694936 0.547311 0.583519
#
# Coordination Sequence:
#
# PCOD9546605 Si02
#       7
#    16  16  16   8  16  16  16
#     4  11  22  41  60  91 131 170 212 256 324 397
#     4  11  22  37  65  89 129 170 203 261 324 389
#     4  10  23  35  59  93 127 161 211 258 317 393
#     4  10  24  40  61  90 135 170 208 258 328 394
#     4  11  21  41  62  89 129 172 210 262 322 388
#     4  11  22  39  63  93 121 166 213 269 319 381
#     4  11  21  38  65  92 122 160 219 269 316 370
#
# _framework density 19.685414999999999
#
# number of rings (size 3 to 8) (size 9 to 14) (size 15 to 20)
#    0.000    1.231    6.154    0.462    0.000    2.462 
#    0.000    3.846    3.385    0.000    0.000    1.077 
#    0.000    0.000    0.000    0.000    0.000    0.000 
#
# Total GULP energy -290218.500082 kJ/mol
# GULP energy per Si atom -5581.125002 kJ/mol
# Density = 1.964061 g / cm^3
# Si number density = 19.685415 Si / 1000 Ang^3
#
#
#
# Elastic Constant Matrix: (Units=GPa)
#
#
# Indices 1 2 3 4 5 6 
#
# 1 55.7979 16.7093 16.8981 0.0000 0.0000 -0.2090
# 2 16.7093 55.7979 16.8981 0.0000 0.0000 0.2090
# 3 16.8981 16.8981 100.2302 0.0000 0.0000 0.0000
# 4 0.0000 0.0000 0.0000 8.3906 0.0000 0.0000
# 5 0.0000 0.0000 0.0000 0.0000 8.3906 0.0000
# 6 -0.2090 0.2090 0.0000 0.0000 0.0000 23.3244
#
#
#
# Elastic Compliance Matrix: (Units=1/GPa)
#
#
# Indices 1 2 3 4 5 6 
#
# 1 0.020277 -0.005309 -0.002523 0.000000 0.000000 0.000229
# 2 -0.005309 0.020277 -0.002523 0.000000 0.000000 -0.000229
# 3 -0.002523 -0.002523 0.010828 0.000000 0.000000 0.000000
# 4 0.000000 0.000000 0.000000 0.119180 0.000000 0.000000
# 5 0.000000 0.000000 0.000000 0.000000 0.119180 0.000000
# 6 0.000229 -0.000229 0.000000 0.000000 0.000000 0.042878
#
#
# Mechanical properties :
#
#
# Convention : Reuss Voigt Hill
#
# Bulk Modulus (GPa) = 32.60531 34.75968 33.68249
# Shear Modulus (GPa) = 13.75311 18.77584 16.26448
#
# Velocity S-wave (km/s) = 2.64606 3.09171 2.87752
# Velocity P-wave (km/s) = 5.09260 5.51732 5.30921
#
# Compressibility (1/GPa) = 0.03066985
#
# Stress axis : x y z
#
# Youngs Moduli (GPa) = 49.31782 49.31782 92.35393
#
# Poissons Ratio (x) = 0.26181 0.23305
# Poissons Ratio (y) = 0.26181 0.23305
# Poissons Ratio (z) = 0.12445 0.12445
#
# Static dielectric constant tensor:
#      x y z
#    x 1.711050 0.000000 0.000000 
#    y 0.000000 1.711050 0.000000 
#    z 0.000000 0.000000 1.714260 
# 
# From -- ./inp_files/3969.got.cif
#   From: 2010.05.17/outbox.cif.g08.bks.cpg/sg88_2_cif.got.tgz:3969.got - 2010.06.03 19:11:41.
