data_PCOD9546925
_publ_section_title
;
Structure prediction by ZEFSAII (Michael W. Deem and Ramdas Pophale) SiO2 
 PCOD9546925
Probable space group: P 4 2 2
;
_chemical_formula_sum "Si O2"
_cell_formula_units_Z 60
_cell_length_a 11.634107
_cell_length_b 11.634107
_cell_length_c 22.753713
_cell_angle_alpha 90.000000
_cell_angle_beta 90.000000
_cell_angle_gamma 90.000000
_cell_volume 3079.770703
_symmetry_space_group_name_H-M "P 4 2 2"
_symmetry_group_IT_number 89
_symmetry_cell_setting 'tetragonal'
loop_
_space_group_symop_operation_xyz
x,y,z
-y,x,z
-x,-y,z
y,-x,z
x,-y,-z
-x,y,-z
y,x,-z
-y,-x,-z
loop_
_atom_site_type_symbol
_atom_site_label
_atom_site_fract_x
_atom_site_fract_y
_atom_site_fract_z
Si Si1 0.841486 0.104096 0.286119
Si Si2 0.672023 0.591150 0.091810
Si Si3 0.329661 0.591422 0.301297
Si Si4 0.172585 0.090655 0.105303
Si Si5 0.741098 0.732986 0.802591
Si Si6 0.624912 0.135372 0.494181
Si Si7 0.240014 0.233710 0.396385
Si Si8 0.760287 0.239714 0.000000
O O1 0.749192 0.161867 0.243165
O O2 0.818923 0.145142 0.352652
O O3 0.969182 0.152695 0.274576
O O4 0.544796 0.650147 0.087430
O O5 0.724695 0.633378 0.153487
O O6 0.750310 0.647625 0.041250
O O7 0.350005 0.455901 0.302895
O O8 0.266168 0.624912 0.240889
O O9 0.264598 0.651406 0.355327
O O10 0.250250 0.147544 0.156027
O O11 0.228651 0.132308 0.044188
O O12 0.045448 0.150136 0.109214
O O13 0.500000 0.191141 0.500000
O O14 0.665163 0.174958 0.430227
O O15 0.709049 0.166502 0.547890
O O16 0.615964 0.000000 0.500000
#
# Coordination Sequence:
#
# PCOD9546925 Si02
#       8
#     8   8   8   8   8   8   8   4
#     4  10  20  35  55  77 102 135 175 217 260 307
#     4  10  20  36  58  80 104 139 179 215 256 308
#     4  10  20  35  55  77 102 135 175 217 260 307
#     4  10  20  36  58  80 104 139 179 215 256 308
#     4  10  20  32  54  80 104 130 170 216 260 306
#     4  10  20  34  52  76 108 142 172 210 266 320
#     4  10  20  34  54  78 104 136 178 220 256 306
#     4  10  20  32  56  84 108 132 172 220 256 296
#
# _framework density 19.48197
#
# number of rings (size 3 to 8) (size 9 to 14) (size 15 to 20)
#    0.000    2.000    0.000    4.000    0.000    3.200 
#    0.000    0.000    0.000   92.800    0.000    0.000 
#    0.000    0.000    0.000    0.000    0.000    0.000 
#
# Total GULP energy -334347.975565 kJ/mol
# GULP energy per Si atom -5572.466259 kJ/mol
# Density = 1.943763 g / cm^3
# Si number density = 19.481970 Si / 1000 Ang^3
#
#
#
# Elastic Constant Matrix: (Units=GPa)
#
#
# Indices 1 2 3 4 5 6 
#
# 1 42.1089 22.8302 9.8810 0.0000 0.0000 0.0000
# 2 22.8302 42.1090 9.8811 0.0000 0.0000 0.0000
# 3 9.8810 9.8811 99.1772 0.0000 0.0000 0.0000
# 4 0.0000 0.0000 0.0000 -16.4219 0.0000 0.0000
# 5 0.0000 0.0000 0.0000 0.0000 -16.4215 0.0000
# 6 0.0000 0.0000 0.0000 0.0000 0.0000 25.5824
#
#
#
# Elastic Compliance Matrix: (Units=1/GPa)
#
#
# Indices 1 2 3 4 5 6 
#
# 1 0.033876 -0.017995 -0.001582 0.000000 0.000000 0.000000
# 2 -0.017995 0.033875 -0.001582 0.000000 0.000000 0.000000
# 3 -0.001582 -0.001582 0.010398 0.000000 0.000000 0.000000
# 4 0.000000 0.000000 0.000000 -0.060894 0.000000 0.000000
# 5 0.000000 0.000000 0.000000 0.000000 -0.060896 0.000000
# 6 0.000000 0.000000 0.000000 0.000000 0.000000 0.039089
#
#
# Mechanical properties :
#
#
# Convention : Reuss Voigt Hill
#
# Bulk Modulus (GPa) = 27.90916 29.84218 28.87567
# Shear Modulus (GPa) = 100.58179 7.93466 54.25823
#
# Velocity S-wave (km/s) = 7.19307 2.02031 5.28308
# Velocity P-wave (km/s) = 9.12928 4.55997 7.21585
#
# Compressibility (1/GPa) = 0.03583053
#
# Stress axis : x y z
#
# Youngs Moduli (GPa) = 29.51980 29.51986 96.17019
#
# Poissons Ratio (x) = 0.53121 0.15216
# Poissons Ratio (y) = 0.53121 0.15216
# Poissons Ratio (z) = 0.04671 0.04671
#
# Static dielectric constant tensor:
#      x y z
#    x 1.697030 0.000000 0.000000 
#    y 0.000000 1.697030 0.000000 
#    z 0.000000 0.000000 1.742920 
# 
# From -- ./inp_files/2651.got.cif
#   From: 2010.05.17/outbox.cif.g08.bks.cpg/sg89_2_cif.got.tgz:2651.got - 2010.06.03 19:15:31.
