data_PCOD9546722
_publ_section_title
;
Structure prediction by ZEFSAII (Michael W. Deem and Ramdas Pophale) SiO2 
 PCOD9546722
Probable space group: I 41/A
;
_chemical_formula_sum "Si O2"
_cell_formula_units_Z 80
_cell_length_a 11.987928
_cell_length_b 11.987928
_cell_length_c 29.651336
_cell_angle_alpha 90.000000
_cell_angle_beta 90.000000
_cell_angle_gamma 90.000000
_cell_volume 4261.205883
_symmetry_space_group_name_H-M "I 41/A"
_symmetry_group_IT_number 88
_space_group.IT_coordinate_system_code '2'
_symmetry_cell_setting 'tetragonal'
loop_
_space_group_symop_operation_xyz
x,y,z
3/4-y,1/4+x,1/4+z
-x,1/2-y,z
1/4+y,1/4-x,1/4+z
-x,-y,-z
1/4+y,3/4-x,3/4-z
x,1/2+y,-z
3/4-y,3/4+x,3/4-z
1/2+x,1/2+y,1/2+z
1/4-y,3/4+x,3/4+z
1/2-x,-y,1/2+z
3/4+y,3/4-x,3/4+z
1/2-x,1/2-y,1/2-z
3/4+y,1/4-x,1/4-z
1/2+x,y,1/2-z
1/4-y,1/4+x,1/4-z
loop_
_atom_site_type_symbol
_atom_site_label
_atom_site_fract_x
_atom_site_fract_y
_atom_site_fract_z
Si Si1 0.347790 0.356588 0.870580
Si Si2 0.716053 0.362290 0.723325
Si Si3 0.256161 0.027552 0.056242
Si Si4 0.501785 0.871494 0.332014
Si Si5 0.554600 0.586190 0.611466
O O1 0.475695 0.397674 0.867222
O O2 0.285392 0.368640 0.822955
O O3 0.287749 0.428988 0.909095
O O4 0.750000 0.250000 0.750000
O O5 0.740200 0.466292 0.755899
O O6 0.586472 0.359825 0.709693
O O7 0.339161 0.130090 0.067135
O O8 0.132063 0.070922 0.067785
O O9 0.500000 0.750000 0.354474
O O10 0.546923 0.968207 0.364095
O O11 0.429043 0.633028 0.607436
#
# Coordination Sequence:
#
# PCOD9546722 Si02
#       5
#    16  16  16  16  16
#     4  11  23  38  59  89 131 168 214 270 329 390
#     4  12  23  38  60  97 131 165 215 271 333 400
#     4  11  23  38  62  92 124 171 210 266 328 388
#     4  11  21  37  63  90 122 164 212 259 320 388
#     4   9  20  41  65  87 120 167 216 259 316 385
#
# _framework density 18.774028999999999
#
# number of rings (size 3 to 8) (size 9 to 14) (size 15 to 20)
#    0.000    1.200    6.000    0.000    2.800    0.000 
#    0.000    1.000    0.000    0.000    5.200    0.000 
#    0.000    0.000    0.000    0.000    0.000    0.000 
#
# Total GULP energy -223285.334426 kJ/mol
# GULP energy per Si atom -5582.133361 kJ/mol
# Density = 1.873130 g / cm^3
# Si number density = 18.774029 Si / 1000 Ang^3
#
#
#
# Elastic Constant Matrix: (Units=GPa)
#
#
# Indices 1 2 3 4 5 6 
#
# 1 101.0610 18.4881 23.5468 0.0000 0.0000 -4.1683
# 2 18.4881 101.0610 23.5468 0.0000 0.0000 4.1683
# 3 23.5468 23.5468 81.4197 0.0000 0.0000 0.0000
# 4 0.0000 0.0000 0.0000 27.4694 0.0000 0.0000
# 5 0.0000 0.0000 0.0000 0.0000 27.4694 0.0000
# 6 -4.1683 4.1683 0.0000 0.0000 0.0000 20.3535
#
#
#
# Elastic Compliance Matrix: (Units=1/GPa)
#
#
# Indices 1 2 3 4 5 6 
#
# 1 0.010903 -0.001463 -0.002730 0.000000 0.000000 0.002533
# 2 -0.001463 0.010903 -0.002730 0.000000 0.000000 -0.002533
# 3 -0.002730 -0.002730 0.013861 0.000000 0.000000 0.000000
# 4 0.000000 0.000000 0.000000 0.036404 0.000000 0.000000
# 5 0.000000 0.000000 0.000000 0.000000 0.036404 0.000000
# 6 0.002533 -0.002533 0.000000 0.000000 0.000000 0.050169
#
#
# Mechanical properties :
#
#
# Convention : Reuss Voigt Hill
#
# Bulk Modulus (GPa) = 45.82723 46.07833 45.95278
# Shear Modulus (GPa) = 27.81408 29.58911 28.70160
#
# Velocity S-wave (km/s) = 3.85323 3.97428 3.91422
# Velocity P-wave (km/s) = 6.65277 6.75698 6.70508
#
# Compressibility (1/GPa) = 0.02182109
#
# Stress axis : x y z
#
# Youngs Moduli (GPa) = 91.71601 91.71601 72.14399
#
# Poissons Ratio (x) = 0.13418 0.19696
# Poissons Ratio (y) = 0.13418 0.19696
# Poissons Ratio (z) = 0.25040 0.25040
#
# Static dielectric constant tensor:
#      x y z
#    x 1.677100 0.000000 0.000000 
#    y 0.000000 1.677100 0.000000 
#    z 0.000000 0.000000 1.616320 
# 
# From -- ./inp_files/6286.got.cif
#   From: 2010.05.17/outbox.cif.g08.bks.cpg/sg88_4_cif.got.tgz:6286.got - 2010.06.03 19:11:41.
