data_PCOD9546492
_publ_section_title
;
Structure prediction by ZEFSAII (Michael W. Deem and Ramdas Pophale) SiO2 
 PCOD9546492
Probable space group: I 41/A
;
_chemical_formula_sum "Si O2"
_cell_formula_units_Z 96
_cell_length_a 13.285739
_cell_length_b 13.285739
_cell_length_c 24.789287
_cell_angle_alpha 90.000000
_cell_angle_beta 90.000000
_cell_angle_gamma 90.000000
_cell_volume 4375.578386
_symmetry_space_group_name_H-M "I 41/A"
_symmetry_group_IT_number 88
_space_group.IT_coordinate_system_code '2'
_symmetry_cell_setting 'tetragonal'
loop_
_space_group_symop_operation_xyz
x,y,z
3/4-y,1/4+x,1/4+z
-x,1/2-y,z
1/4+y,1/4-x,1/4+z
-x,-y,-z
1/4+y,3/4-x,3/4-z
x,1/2+y,-z
3/4-y,3/4+x,3/4-z
1/2+x,1/2+y,1/2+z
1/4-y,3/4+x,3/4+z
1/2-x,-y,1/2+z
3/4+y,3/4-x,3/4+z
1/2-x,1/2-y,1/2-z
3/4+y,1/4-x,1/4-z
1/2+x,y,1/2-z
1/4-y,1/4+x,1/4-z
loop_
_atom_site_type_symbol
_atom_site_label
_atom_site_fract_x
_atom_site_fract_y
_atom_site_fract_z
Si Si1 0.304843 0.356854 0.755412
Si Si2 0.053557 0.356830 0.042474
Si Si3 0.175109 0.987834 0.168131
Si Si4 0.125319 0.917837 0.617735
Si Si5 0.637701 0.286192 0.900154
Si Si6 0.323273 0.783327 0.828195
O O1 0.250000 0.250000 0.750000
O O2 0.220469 0.431403 0.780019
O O3 0.344162 0.381898 0.696061
O O4 0.398801 0.364124 0.796816
O O5 0.166158 0.358792 0.065520
O O6 0.994561 0.454641 0.066676
O O7 0.000000 0.250000 0.052497
O O8 0.062339 0.379286 0.978750
O O9 0.113827 0.921887 0.125826
O O10 0.272318 0.029312 0.137097
O O11 0.120916 0.815189 0.649993
O O12 0.039340 0.996032 0.635178
O O13 0.593745 0.174364 0.897535
#
# Coordination Sequence:
#
# PCOD9546492 Si02
#       6
#    16  16  16  16  16  16
#     4  11  22  41  65  96 130 173 221 267 334 404
#     4  10  23  42  68  97 130 172 225 273 335 405
#     4  10  23  41  66  93 132 175 217 275 329 397
#     4  10  22  41  63  91 132 168 212 276 323 390
#     4  10  21  41  65  91 124 171 214 267 320 390
#     4  10  23  43  63  99 132 170 220 273 336 397
#
# _framework density 21.939955000000001
#
# number of rings (size 3 to 8) (size 9 to 14) (size 15 to 20)
#    0.000    1.833    1.667    1.000    4.667    4.000 
#    3.000    0.000    0.000    0.000    0.000    0.000 
#    0.000    0.000    0.000    0.000    0.000    0.000 
#
# Total GULP energy -268419.062013 kJ/mol
# GULP energy per Si atom -5592.063792 kJ/mol
# Density = 2.189002 g / cm^3
# Si number density = 21.939955 Si / 1000 Ang^3
#
#
#
# Elastic Constant Matrix: (Units=GPa)
#
#
# Indices 1 2 3 4 5 6 
#
# 1 43.0495 47.5710 23.5632 0.0000 0.0000 1.6626
# 2 47.5710 43.0495 23.5632 0.0000 0.0000 -1.6626
# 3 23.5632 23.5632 133.9445 0.0000 0.0000 0.0000
# 4 0.0000 0.0000 0.0000 30.0617 0.0000 0.0000
# 5 0.0000 0.0000 0.0000 0.0000 30.0617 0.0000
# 6 1.6626 -1.6626 0.0000 0.0000 0.0000 36.0944
#
#
#
# Elastic Compliance Matrix: (Units=1/GPa)
#
#
# Indices 1 2 3 4 5 6 
#
# 1 -0.100886 0.113032 -0.002137 0.000000 0.000000 0.009854
# 2 0.113032 -0.100886 -0.002137 0.000000 0.000000 -0.009854
# 3 -0.002137 -0.002137 0.008218 0.000000 0.000000 0.000000
# 4 0.000000 0.000000 0.000000 0.033265 0.000000 0.000000
# 5 0.000000 0.000000 0.000000 0.000000 0.033265 0.000000
# 6 0.009854 -0.009854 0.000000 0.000000 0.000000 0.026797
#
#
# Mechanical properties :
#
#
# Convention : Reuss Voigt Hill
#
# Bulk Modulus (GPa) = 41.73089 45.49314 43.61201
# Shear Modulus (GPa) = -16.14163 27.59997 5.72917
#
# Velocity S-wave (km/s) = -2.71536 3.55065 1.61770
# Velocity P-wave (km/s) = 3.03824 6.13105 4.83842
#
# Compressibility (1/GPa) = 0.02396307
#
# Stress axis : x y z
#
# Youngs Moduli (GPa) = -9.91216 -9.91216 121.69071
#
# Poissons Ratio (x) = 1.12040 0.26002
# Poissons Ratio (y) = 1.12040 0.26002
# Poissons Ratio (z) = -0.02118 -0.02118
#
# Static dielectric constant tensor:
#      x y z
#    x 1.812090 0.000000 0.000000 
#    y 0.000000 1.812090 0.000000 
#    z 0.000000 0.000000 1.865760 
# 
# From -- ./inp_files/4688.got.cif
#   From: 2010.05.17/outbox.cif.g08.bks.cpg/sg88_3_cif.got.tgz:4688.got - 2010.06.03 19:11:41.
