data_PCOD9546978
_publ_section_title
;
Structure prediction by ZEFSAII (Michael W. Deem and Ramdas Pophale) SiO2 
 PCOD9546978
Probable space group: P 4 2 2
;
_chemical_formula_sum "Si O2"
_cell_formula_units_Z 40
_cell_length_a 14.573783
_cell_length_b 14.573783
_cell_length_c 9.579086
_cell_angle_alpha 90.000000
_cell_angle_beta 90.000000
_cell_angle_gamma 90.000000
_cell_volume 2034.551417
_symmetry_space_group_name_H-M "P 4 2 2"
_symmetry_group_IT_number 89
_symmetry_cell_setting 'tetragonal'
loop_
_space_group_symop_operation_xyz
x,y,z
-y,x,z
-x,-y,z
y,-x,z
x,-y,-z
-x,y,-z
y,x,-z
-y,-x,-z
loop_
_atom_site_type_symbol
_atom_site_label
_atom_site_fract_x
_atom_site_fract_y
_atom_site_fract_z
Si Si1 0.414370 0.124016 0.782804
Si Si2 0.352186 0.450013 0.711170
Si Si3 0.788118 0.356248 0.504970
Si Si4 0.777545 0.362509 0.064127
Si Si5 0.373655 0.075691 0.274283
O O1 0.387674 0.195772 0.662618
O O2 0.519590 0.096358 0.759336
O O3 0.357576 0.030053 0.759678
O O4 0.403787 0.166292 0.935027
O O5 0.445551 0.388935 0.705991
O O6 0.283738 0.416924 0.587147
O O7 0.293176 0.427964 0.850493
O O8 0.743860 0.256141 0.500000
O O9 0.886807 0.360352 0.429867
O O10 0.851779 0.324018 0.173894
O O11 0.716890 0.283111 0.000000
#
# Coordination Sequence:
#
# PCOD9546978 Si02
#       5
#     8   8   8   8   8
#     4  11  22  40  61  90 116 154 210 256 320 362
#     4  10  25  43  55  78 119 177 221 248 288 336
#     4  11  24  37  62  86 121 161 206 258 300 351
#     4  11  24  37  62  86 121 161 206 258 300 351
#     4  10  23  39  62  85 120 160 200 259 315 368
#
# _framework density 19.660350999999999
#
# number of rings (size 3 to 8) (size 9 to 14) (size 15 to 20)
#    0.000    1.400    0.000    4.800   16.800    3.200 
#    0.000    2.000    0.000    2.400    0.000    0.000 
#    0.000   56.000    0.000    0.000    0.000    0.000 
#
# Total GULP energy -223642.196609 kJ/mol
# GULP energy per Si atom -5591.054915 kJ/mol
# Density = 1.961560 g / cm^3
# Si number density = 19.660351 Si / 1000 Ang^3
#
#
#
# Elastic Constant Matrix: (Units=GPa)
#
#
# Indices 1 2 3 4 5 6 
#
# 1 96.9205 19.7297 19.2496 0.0000 0.0000 0.0000
# 2 19.7297 96.9221 19.2510 0.0000 0.0000 0.0000
# 3 19.2496 19.2510 109.1223 0.0000 0.0000 0.0000
# 4 0.0000 0.0000 0.0000 17.0566 0.0000 0.0000
# 5 0.0000 0.0000 0.0000 0.0000 17.0538 0.0000
# 6 0.0000 0.0000 0.0000 0.0000 0.0000 11.3352
#
#
#
# Elastic Compliance Matrix: (Units=1/GPa)
#
#
# Indices 1 2 3 4 5 6 
#
# 1 0.011029 -0.001926 -0.001606 0.000000 0.000000 0.000000
# 2 -0.001926 0.011029 -0.001606 0.000000 0.000000 0.000000
# 3 -0.001606 -0.001606 0.009731 0.000000 0.000000 0.000000
# 4 0.000000 0.000000 0.000000 0.058628 0.000000 0.000000
# 5 0.000000 0.000000 0.000000 0.000000 0.058638 0.000000
# 6 0.000000 0.000000 0.000000 0.000000 0.000000 0.088221
#
#
# Mechanical properties :
#
#
# Convention : Reuss Voigt Hill
#
# Bulk Modulus (GPa) = 46.48444 46.60283 46.54363
# Shear Modulus (GPa) = 19.62926 25.40474 22.51700
#
# Velocity S-wave (km/s) = 3.16320 3.59859 3.38790
# Velocity P-wave (km/s) = 6.08574 6.40484 6.24732
#
# Compressibility (1/GPa) = 0.02151258
#
# Stress axis : x y z
#
# Youngs Moduli (GPa) = 90.67217 90.67330 102.76881
#
# Poissons Ratio (x) = 0.17465 0.16502
# Poissons Ratio (y) = 0.17464 0.16503
# Poissons Ratio (z) = 0.14559 0.14561
#
# Static dielectric constant tensor:
#      x y z
#    x 1.730940 0.000000 0.000000 
#    y 0.000000 1.730930 0.000000 
#    z 0.000000 0.000000 1.745430 
# 
# From -- ./inp_files/981.got.cif
#   From: 2010.05.17/outbox.cif.g08.bks.cpg/sg89_1_cif.got.tgz:981.got - 2010.06.03 19:15:31.
