data_PCOD9546241
_publ_section_title
;
Structure prediction by ZEFSAII (Michael W. Deem and Ramdas Pophale) SiO2 
 PCOD9546241
Probable space group: I 41/A
;
_chemical_formula_sum "Si O2"
_cell_formula_units_Z 112
_cell_length_a 14.715382
_cell_length_b 14.715382
_cell_length_c 25.195735
_cell_angle_alpha 90.000000
_cell_angle_beta 90.000000
_cell_angle_gamma 90.000000
_cell_volume 5455.946625
_symmetry_space_group_name_H-M "I 41/A"
_symmetry_group_IT_number 88
_space_group.IT_coordinate_system_code '2'
_symmetry_cell_setting 'tetragonal'
loop_
_space_group_symop_operation_xyz
x,y,z
3/4-y,1/4+x,1/4+z
-x,1/2-y,z
1/4+y,1/4-x,1/4+z
-x,-y,-z
1/4+y,3/4-x,3/4-z
x,1/2+y,-z
3/4-y,3/4+x,3/4-z
1/2+x,1/2+y,1/2+z
1/4-y,3/4+x,3/4+z
1/2-x,-y,1/2+z
3/4+y,3/4-x,3/4+z
1/2-x,1/2-y,1/2-z
3/4+y,1/4-x,1/4-z
1/2+x,y,1/2-z
1/4-y,1/4+x,1/4-z
loop_
_atom_site_type_symbol
_atom_site_label
_atom_site_fract_x
_atom_site_fract_y
_atom_site_fract_z
Si Si1 0.350231 0.187736 0.544415
Si Si2 0.655805 0.452094 0.400970
Si Si3 0.179143 0.881835 0.553636
Si Si4 0.106395 0.741030 0.796362
Si Si5 0.607369 0.271702 0.663956
Si Si6 0.660624 0.601716 0.488015
Si Si7 0.084449 0.951852 0.212726
O O1 0.428301 0.139850 0.508086
O O2 0.360437 0.185878 0.607707
O O3 0.354590 0.295631 0.531915
O O4 0.254797 0.156278 0.518573
O O5 0.674250 0.507897 0.348737
O O6 0.562931 0.395892 0.403855
O O7 0.636405 0.529482 0.444411
O O8 0.735458 0.386967 0.420744
O O9 0.232977 0.912730 0.501265
O O10 0.195485 0.772413 0.552421
O O11 0.074197 0.899360 0.566939
O O12 0.153871 0.837191 0.785488
O O13 0.000000 0.750000 0.804814
O O14 0.500000 0.250000 0.656686
O O15 0.619062 0.349270 0.708241
#
# Coordination Sequence:
#
# PCOD9546241 Si02
#       7
#    16  16  16  16  16  16  16
#     4   9  17  34  54  81 110 148 197 237 284 343
#     4  11  21  34  50  78 114 151 187 229 296 346
#     4  10  22  35  55  83 109 150 196 239 285 358
#     4   9  19  32  49  75 111 154 186 218 274 352
#     4  10  18  36  62  79 112 157 200 238 292 355
#     4  10  19  34  50  77 112 144 190 241 279 340
#     4   9  22  35  52  85 114 146 200 242 283 350
#
# _framework density 20.528061000000001
#
# number of rings (size 3 to 8) (size 9 to 14) (size 15 to 20)
#    0.000    2.286    1.429    2.571    4.000    2.286 
#    0.000    0.714    0.000    0.000    0.000    0.000 
#    0.000    0.000    0.000    0.000    0.000    0.000 
#
# Total GULP energy -312329.018511 kJ/mol
# GULP energy per Si atom -5577.303902 kJ/mol
# Density = 2.048134 g / cm^3
# Si number density = 20.528061 Si / 1000 Ang^3
#
#
#
# Elastic Constant Matrix: (Units=GPa)
#
#
# Indices 1 2 3 4 5 6 
#
# 1 69.1824 10.4605 19.5363 0.0000 0.0000 1.1908
# 2 10.4605 69.1824 19.5363 0.0000 0.0000 -1.1908
# 3 19.5363 19.5363 28.3879 0.0000 0.0000 0.0000
# 4 0.0000 0.0000 0.0000 7.4149 0.0000 0.0000
# 5 0.0000 0.0000 0.0000 0.0000 7.4149 0.0000
# 6 1.1908 -1.1908 0.0000 0.0000 0.0000 9.6460
#
#
#
# Elastic Compliance Matrix: (Units=1/GPa)
#
#
# Indices 1 2 3 4 5 6 
#
# 1 0.018036 0.000920 -0.013045 0.000000 0.000000 -0.002113
# 2 0.000920 0.018036 -0.013045 0.000000 0.000000 0.002113
# 3 -0.013045 -0.013045 0.053182 0.000000 0.000000 0.000000
# 4 0.000000 0.000000 0.000000 0.134863 0.000000 0.000000
# 5 0.000000 0.000000 0.000000 0.000000 0.134863 0.000000
# 6 -0.002113 0.002113 0.000000 0.000000 0.000000 0.104191
#
#
# Mechanical properties :
#
#
# Convention : Reuss Voigt Hill
#
# Bulk Modulus (GPa) = 25.69880 29.53543 27.61712
# Shear Modulus (GPa) = 9.49700 12.70981 11.10341
#
# Velocity S-wave (km/s) = 2.15323 2.49096 2.32823
# Velocity P-wave (km/s) = 4.32757 4.76364 4.55083
#
# Compressibility (1/GPa) = 0.03891232
#
# Stress axis : x y z
#
# Youngs Moduli (GPa) = 55.44584 55.44584 18.80340
#
# Poissons Ratio (x) = -0.05104 0.24530
# Poissons Ratio (y) = -0.05104 0.24530
# Poissons Ratio (z) = 0.72332 0.72332
#
# Static dielectric constant tensor:
#      x y z
#    x 1.744850 0.000000 0.000000 
#    y 0.000000 1.744850 0.000000 
#    z 0.000000 0.000000 1.790410 
# 
# From -- ./inp_files/5877.got.cif
#   From: 2010.05.17/outbox.cif.g08.bks.cpg/sg88_3_cif.got.tgz:5877.got - 2010.06.03 19:11:41.
