data_PCOD9546482
_publ_section_title
;
Structure prediction by ZEFSAII (Michael W. Deem and Ramdas Pophale) SiO2 
 PCOD9546482
Probable space group: I 41/A
;
_chemical_formula_sum "Si O2"
_cell_formula_units_Z 72
_cell_length_a 12.326891
_cell_length_b 12.326891
_cell_length_c 19.214962
_cell_angle_alpha 90.000000
_cell_angle_beta 90.000000
_cell_angle_gamma 90.000000
_cell_volume 2919.756551
_symmetry_space_group_name_H-M "I 41/A"
_symmetry_group_IT_number 88
_space_group.IT_coordinate_system_code '2'
_symmetry_cell_setting 'tetragonal'
loop_
_space_group_symop_operation_xyz
x,y,z
3/4-y,1/4+x,1/4+z
-x,1/2-y,z
1/4+y,1/4-x,1/4+z
-x,-y,-z
1/4+y,3/4-x,3/4-z
x,1/2+y,-z
3/4-y,3/4+x,3/4-z
1/2+x,1/2+y,1/2+z
1/4-y,3/4+x,3/4+z
1/2-x,-y,1/2+z
3/4+y,3/4-x,3/4+z
1/2-x,1/2-y,1/2-z
3/4+y,1/4-x,1/4-z
1/2+x,y,1/2-z
1/4-y,1/4+x,1/4-z
loop_
_atom_site_type_symbol
_atom_site_label
_atom_site_fract_x
_atom_site_fract_y
_atom_site_fract_z
Si Si1 0.000000 0.250000 0.625000
Si Si2 0.598823 0.102371 0.589308
Si Si3 0.661649 0.150735 0.978231
Si Si4 0.500000 0.750000 0.625000
Si Si5 0.585189 0.950103 0.703888
Si Si6 0.647248 0.851413 0.378009
O O1 0.918032 0.188779 0.676588
O O2 0.516901 0.045412 0.741686
O O3 0.636486 0.220266 0.617001
O O4 0.468413 0.103555 0.595356
O O5 0.638792 0.006029 0.637837
O O6 0.759821 0.113732 0.930384
O O7 0.633360 0.085338 0.047712
O O8 0.506985 0.856131 0.673344
O O9 0.656581 0.891341 0.761427
#
# Coordination Sequence:
#
# PCOD9546482 Si02
#       6
#     4  16  16   4  16  16
#     4  12  24  40  62  88 128 164 208 266 312 364
#     4   9  18  38  66  92 125 164 208 258 311 371
#     4  10  21  40  63  90 124 167 207 255 315 371
#     4  12  24  40  62  88 128 164 208 266 312 364
#     4  10  21  40  63  90 124 167 207 255 315 371
#     4   9  18  38  66  92 125 164 208 258 311 371
#
# _framework density 24.659590000000001
#
# number of rings (size 3 to 8) (size 9 to 14) (size 15 to 20)
#    0.000    2.222    0.000    5.333    0.000    1.778 
#    0.000   17.778    0.000    0.000    0.000    0.000 
#    0.000    0.000    0.000    0.000    0.000    0.000 
#
# Total GULP energy -201606.067000 kJ/mol
# GULP energy per Si atom -5600.168528 kJ/mol
# Density = 2.460346 g / cm^3
# Si number density = 24.659590 Si / 1000 Ang^3
#
#
#
# Elastic Constant Matrix: (Units=GPa)
#
#
# Indices 1 2 3 4 5 6 
#
# 1 79.5977 12.5478 53.3020 0.0000 0.0000 1.3453
# 2 12.5478 79.5977 53.3020 0.0000 0.0000 -1.3453
# 3 53.3020 53.3020 206.6958 0.0000 0.0000 0.0000
# 4 0.0000 0.0000 0.0000 50.3261 0.0000 0.0000
# 5 0.0000 0.0000 0.0000 0.0000 50.3261 0.0000
# 6 1.3453 -1.3453 0.0000 0.0000 0.0000 3.9208
#
#
#
# Elastic Compliance Matrix: (Units=1/GPa)
#
#
# Indices 1 2 3 4 5 6 
#
# 1 0.015295 0.000172 -0.003989 0.000000 0.000000 -0.005189
# 2 0.000172 0.015295 -0.003989 0.000000 0.000000 0.005189
# 3 -0.003989 -0.003989 0.006895 0.000000 0.000000 0.000000
# 4 0.000000 0.000000 0.000000 0.019870 0.000000 0.000000
# 5 0.000000 0.000000 0.000000 0.000000 0.019870 0.000000
# 6 -0.005189 0.005189 0.000000 0.000000 0.000000 0.258610
#
#
# Mechanical properties :
#
#
# Convention : Reuss Voigt Hill
#
# Bulk Modulus (GPa) = 45.71516 67.13274 56.42395
# Shear Modulus (GPa) = 13.93779 37.36388 25.65084
#
# Velocity S-wave (km/s) = 2.37999 3.89676 3.22871
# Velocity P-wave (km/s) = 5.11187 6.89414 6.06879
#
# Compressibility (1/GPa) = 0.02187458
#
# Stress axis : x y z
#
# Youngs Moduli (GPa) = 65.38247 65.38247 145.03014
#
# Poissons Ratio (x) = -0.01126 0.57846
# Poissons Ratio (y) = -0.01126 0.57846
# Poissons Ratio (z) = 0.26078 0.26078
#
# Static dielectric constant tensor:
#      x y z
#    x 1.979850 0.000000 0.000000 
#    y 0.000000 1.979850 0.000000 
#    z 0.000000 0.000000 1.913810 
# 
# From -- ./inp_files/3846.got.cif
#   From: 2010.05.17/outbox.cif.g08.bks.cpg/sg88_2_cif.got.tgz:3846.got - 2010.06.03 19:11:41.
