data_PCOD9546025
_publ_section_title
;
Structure prediction by ZEFSAII (Michael W. Deem and Ramdas Pophale) SiO2 
 PCOD9546025
Probable space group: I 4/M
;
_chemical_formula_sum "Si O2"
_cell_formula_units_Z 72
_cell_length_a 14.409102
_cell_length_b 14.409102
_cell_length_c 16.135092
_cell_angle_alpha 90.000000
_cell_angle_beta 90.000000
_cell_angle_gamma 90.000000
_cell_volume 3350.003628
_symmetry_space_group_name_H-M "I 4/M"
_symmetry_group_IT_number 87
_symmetry_cell_setting 'tetragonal'
loop_
_space_group_symop_operation_xyz
x,y,z
-y,x,z
-x,-y,z
y,-x,z
-x,-y,-z
y,-x,-z
x,y,-z
-y,x,-z
1/2+x,1/2+y,1/2+z
1/2-y,1/2+x,1/2+z
1/2-x,1/2-y,1/2+z
1/2+y,1/2-x,1/2+z
1/2-x,1/2-y,1/2-z
1/2+y,1/2-x,1/2-z
1/2+x,1/2+y,1/2-z
1/2-y,1/2+x,1/2-z
loop_
_atom_site_type_symbol
_atom_site_label
_atom_site_fract_x
_atom_site_fract_y
_atom_site_fract_z
Si Si1 0.864982 0.919631 0.320850
Si Si2 0.897100 0.614890 0.748344
Si Si3 0.581420 0.364707 0.000000
Si Si4 0.609870 0.267383 0.353134
Si Si5 0.235548 0.599723 0.591230
O O1 0.822952 0.893577 0.410720
O O2 0.811031 0.890979 0.239311
O O3 0.968832 0.877751 0.317284
O O4 0.876206 0.506780 0.765584
O O5 0.837587 0.641732 0.667537
O O6 0.875350 0.672153 0.830467
O O7 0.621503 0.469789 0.000000
O O8 0.678525 0.330043 0.405356
O O9 0.506752 0.266772 0.391032
O O10 0.191392 0.603192 0.500000
#
# Coordination Sequence:
#
# PCOD9546025 Si02
#       5
#    16  16   8  16  16
#     4   9  15  27  47  79 119 162 195 224 283 361
#     4   9  21  43  66  82 106 156 215 257 301 342
#     4   7  12  22  40  66 108 155 195 231 255 317
#     4  11  20  36  61  88 126 164 191 233 303 369
#     4  11  23  39  60  93 124 155 198 248 295 362
#
# _framework density 21.492514
#
# number of rings (size 3 to 8) (size 9 to 14) (size 15 to 20)
#    0.000    2.333    2.222    2.667    0.000    0.444 
#    2.000   11.111    0.000    0.000    0.000    0.000 
#    0.000    0.000    0.000    0.000    0.000    0.000 
#
# Total GULP energy -201040.237123 kJ/mol
# GULP energy per Si atom -5584.451031 kJ/mol
# Density = 2.144360 g / cm^3
# Si number density = 21.492514 Si / 1000 Ang^3
#
#
#
# Elastic Constant Matrix: (Units=GPa)
#
#
# Indices 1 2 3 4 5 6 
#
# 1 48.6723 38.4320 18.3629 0.0000 0.0000 9.8423
# 2 38.4320 48.6723 18.3629 0.0000 0.0000 -9.8423
# 3 18.3629 18.3629 95.4228 0.0000 0.0000 0.0000
# 4 0.0000 0.0000 0.0000 9.7198 0.0000 0.0000
# 5 0.0000 0.0000 0.0000 0.0000 9.7198 0.0000
# 6 9.8423 -9.8423 0.0000 0.0000 0.0000 19.4589
#
#
#
# Elastic Compliance Matrix: (Units=1/GPa)
#
#
# Indices 1 2 3 4 5 6 
#
# 1 1.767413 -1.754919 -0.002404 -0.000002 -0.000001 -1.781591
# 2 -1.754919 1.767413 -0.002404 0.000002 0.000001 1.781591
# 3 -0.002404 -0.002404 0.011405 0.000000 0.000000 0.000000
# 4 -0.000002 0.000002 0.000000 0.102883 0.000000 0.000002
# 5 -0.000001 0.000001 0.000000 0.000000 0.102883 0.000001
# 6 -1.781591 1.781591 0.000000 0.000002 0.000001 1.853643
#
#
# Mechanical properties :
#
#
# Convention : Reuss Voigt Hill
#
# Bulk Modulus (GPa) = 37.34673 38.12033 37.73353
# Shear Modulus (GPa) = 0.54740 15.62033 8.08387
#
# Velocity S-wave (km/s) = 0.50522 2.69881 1.94150
# Velocity P-wave (km/s) = 4.21363 5.24276 4.75611
#
# Compressibility (1/GPa) = 0.02677610
#
# Stress axis : x y z
#
# Youngs Moduli (GPa) = 0.56580 0.56580 87.68039
#
# Poissons Ratio (x) = 0.99293 0.21082
# Poissons Ratio (y) = 0.99293 0.21081
# Poissons Ratio (z) = 0.00136 0.00136
#
# Static dielectric constant tensor:
#      x y z
#    x 1.805490 0.000000 0.000000 
#    y 0.000000 1.805490 0.000000 
#    z 0.000000 0.000000 1.752940 
# 
# From -- ./inp_files/4264.got.cif
#   From: 2010.05.17/outbox.cif.g08.bks.cpg/sg87_3_cif.got.tgz:4264.got - 2010.06.03 19:07:00.
