data_PCOD9546178
_publ_section_title
;
Structure prediction by ZEFSAII (Michael W. Deem and Ramdas Pophale) SiO2 
 PCOD9546178
Probable space group: I 4/M
;
_chemical_formula_sum "Si O2"
_cell_formula_units_Z 48
_cell_length_a 24.000000
_cell_length_b 24.000000
_cell_length_c 9.000000
_cell_angle_alpha 90.000000
_cell_angle_beta 90.000000
_cell_angle_gamma 90.000000
_cell_volume 5184.000000
_symmetry_space_group_name_H-M "I 4/M"
_symmetry_group_IT_number 87
_symmetry_cell_setting 'tetragonal'
loop_
_space_group_symop_operation_xyz
x,y,z
-y,x,z
-x,-y,z
y,-x,z
-x,-y,-z
y,-x,-z
x,y,-z
-y,x,-z
1/2+x,1/2+y,1/2+z
1/2-y,1/2+x,1/2+z
1/2-x,1/2-y,1/2+z
1/2+y,1/2-x,1/2+z
1/2-x,1/2-y,1/2-z
1/2+y,1/2-x,1/2-z
1/2+x,1/2+y,1/2-z
1/2-y,1/2+x,1/2-z
loop_
_atom_site_type_symbol
_atom_site_label
_atom_site_fract_x
_atom_site_fract_y
_atom_site_fract_z
Si Si1 0.780808 0.614430 0.822160
Si Si2 0.375632 0.198852 0.677387
Si Si3 0.683280 0.696959 0.828721
Si Si4 0.014503 0.264088 0.679616
Si Si5 0.401242 0.595989 0.167086
Si Si6 0.149046 0.999225 0.826417
O O1 0.839902 0.643229 0.794553
O O2 0.733290 0.657886 0.766170
O O3 0.779441 0.549451 0.777692
O O4 0.770812 0.613389 0.000000
O O5 0.384391 0.204949 0.500000
O O6 0.336676 0.249975 0.735005
O O7 0.434337 0.198314 0.763994
O O8 0.630874 0.655433 0.835923
O O9 0.696779 0.713926 0.000000
O O10 0.017497 0.257342 0.500000
O O11 0.024890 0.206953 0.767894
O O12 0.448034 0.637642 0.223433
O O13 0.397023 0.546273 0.283864
O O14 0.412309 0.575477 0.000000
O O15 0.150180 0.011945 0.000000
#
# Coordination Sequence:
#
# PCOD9546178 Si02
#       6
#    16  16  16  16  16  16
#     4   9  20  38  59  83 115 152 190 232 280 338
#     4  11  22  36  57  89 120 145 184 241 291 330
#     4  10  19  35  58  83 113 154 192 224 276 347
#     4  11  21  39  61  81 112 157 195 225 279 353
#     4  11  22  38  60  81 110 153 201 237 281 344
#     4  12  24  38  57  84 115 148 195 248 291 325
#
# _framework density 9.2592590000000001
#
# number of rings (size 3 to 8) (size 9 to 14) (size 15 to 20)
#    0.000    1.333    3.333    3.500    0.000    1.000 
#    0.000    5.833    0.000    0.500    0.000    3.500 
#    0.000    0.000    0.000    0.000    0.000    0.000 
#
# Total GULP energy -267746.816899 kJ/mol
# GULP energy per Si atom -5578.058685 kJ/mol
# Density = 0.923818 g / cm^3
# Si number density = 9.259259 Si / 1000 Ang^3
#
#
#
# Elastic Constant Matrix: (Units=GPa)
#
#
# Indices 1 2 3 4 5 6 
#
# 1 299.4575 -197.5872 14.4945 0.0000 0.0000 -150.4735
# 2 -197.5872 299.4575 14.4945 0.0000 0.0000 150.4735
# 3 14.4945 14.4945 45.6980 0.0000 0.0000 0.0000
# 4 0.0000 0.0000 0.0000 24.0761 0.0000 0.0000
# 5 0.0000 0.0000 0.0000 0.0000 24.0761 0.0000
# 6 -150.4735 150.4735 0.0000 0.0000 0.0000 116.6416
#
#
#
# Elastic Compliance Matrix: (Units=1/GPa)
#
#
# Indices 1 2 3 4 5 6 
#
# 1 0.009990 0.000800 -0.003422 0.000000 0.000000 0.011856
# 2 0.000800 0.009990 -0.003422 0.000000 0.000000 -0.011856
# 3 -0.003422 -0.003422 0.024054 0.000000 0.000000 0.000000
# 4 0.000000 0.000000 0.000000 0.041535 0.000000 0.000000
# 5 0.000000 0.000000 0.000000 0.000000 0.041535 0.000000
# 6 0.011856 -0.011856 0.000000 0.000000 0.000000 0.039163
#
#
# Mechanical properties :
#
#
# Convention : Reuss Voigt Hill
#
# Bulk Modulus (GPa) = 31.30416 34.15739 32.73077
# Shear Modulus (GPa) = 26.45414 87.17283 56.81348
#
# Velocity S-wave (km/s) = 3.78368 6.86844 5.54490
# Velocity P-wave (km/s) = 6.00244 9.02140 7.66208
#
# Compressibility (1/GPa) = 0.03194464
#
# Stress axis : x y z
#
# Youngs Moduli (GPa) = 100.09604 100.09604 41.57333
#
# Poissons Ratio (x) = -0.08007 0.14228
# Poissons Ratio (y) = -0.08007 0.14228
# Poissons Ratio (z) = 0.34258 0.34258
#
# Static dielectric constant tensor:
#      x y z
#    x 1.671530 0.000000 0.000000 
#    y 0.000000 1.671530 0.000000 
#    z 0.000000 0.000000 1.618260 
# 
# From -- ./inp_files/1441.got.cif
#   From: 2010.05.17/outbox.ucp.g08.bks.cvg/sg87_1_cif.got.tgz:1441.got - 2010.06.11 10:35:24.
