data_PCOD9546464
_publ_section_title
;
Structure prediction by ZEFSAII (Michael W. Deem and Ramdas Pophale) SiO2 
 PCOD9546464
Probable space group: I 41/A
;
_chemical_formula_sum "Si O2"
_cell_formula_units_Z 48
_cell_length_a 8.503721
_cell_length_b 8.503721
_cell_length_c 29.533932
_cell_angle_alpha 90.000000
_cell_angle_beta 90.000000
_cell_angle_gamma 90.000000
_cell_volume 2135.695224
_symmetry_space_group_name_H-M "I 41/A"
_symmetry_group_IT_number 88
_space_group.IT_coordinate_system_code '2'
_symmetry_cell_setting 'tetragonal'
loop_
_space_group_symop_operation_xyz
x,y,z
3/4-y,1/4+x,1/4+z
-x,1/2-y,z
1/4+y,1/4-x,1/4+z
-x,-y,-z
1/4+y,3/4-x,3/4-z
x,1/2+y,-z
3/4-y,3/4+x,3/4-z
1/2+x,1/2+y,1/2+z
1/4-y,3/4+x,3/4+z
1/2-x,-y,1/2+z
3/4+y,3/4-x,3/4+z
1/2-x,1/2-y,1/2-z
3/4+y,1/4-x,1/4-z
1/2+x,y,1/2-z
1/4-y,1/4+x,1/4-z
loop_
_atom_site_type_symbol
_atom_site_label
_atom_site_fract_x
_atom_site_fract_y
_atom_site_fract_z
Si Si1 0.902715 0.587229 0.225801
Si Si2 0.401435 0.048655 0.351648
Si Si3 0.442381 0.420661 0.930355
O O1 0.753790 0.648161 0.197751
O O2 0.850920 0.567768 0.277619
O O3 0.000000 0.750000 0.227897
O O4 0.005223 0.467024 0.196407
O O5 0.306012 0.208856 0.361034
O O6 0.286046 0.899081 0.353448
O O7 0.500000 0.250000 0.917817
#
# Coordination Sequence:
#
# PCOD9546464 Si02
#       3
#    16  16  16
#     4   8  16  35  64  91 125 167 216 271 313 376
#     4  10  21  39  58  88 147 178 193 265 343 381
#     4   9  17  36  66  95 118 166 233 271 300 373
#
# _framework density 22.475117000000001
#
# number of rings (size 3 to 8) (size 9 to 14) (size 15 to 20)
#    0.000    3.000    0.000    2.000    0.000    0.000 
#   18.000    6.667    0.000    0.000    0.000    0.000 
#    0.000    0.000    0.000    0.000    0.000    0.000 
#
# Total GULP energy -133620.362747 kJ/mol
# GULP energy per Si atom -5567.515114 kJ/mol
# Density = 2.242396 g / cm^3
# Si number density = 22.475117 Si / 1000 Ang^3
#
#
#
# Elastic Constant Matrix: (Units=GPa)
#
#
# Indices 1 2 3 4 5 6 
#
# 1 105.5823 39.4462 40.0371 0.0000 0.0000 16.3944
# 2 39.4462 105.5823 40.0371 0.0000 0.0000 -16.3944
# 3 40.0371 40.0371 109.9252 0.0000 0.0000 0.0000
# 4 0.0000 0.0000 0.0000 30.2441 0.0000 0.0000
# 5 0.0000 0.0000 0.0000 0.0000 30.2441 0.0000
# 6 16.3944 -16.3944 0.0000 0.0000 0.0000 52.8353
#
#
#
# Elastic Compliance Matrix: (Units=1/GPa)
#
#
# Indices 1 2 3 4 5 6 
#
# 1 0.013250 -0.004619 -0.003144 0.000000 0.000000 -0.005545
# 2 -0.004619 0.013250 -0.003144 0.000000 0.000000 0.005545
# 3 -0.003144 -0.003144 0.011387 0.000000 0.000000 0.000000
# 4 0.000000 0.000000 0.000000 0.033064 0.000000 0.000000
# 5 0.000000 0.000000 0.000000 0.000000 0.033064 0.000000
# 6 -0.005545 0.005545 0.000000 0.000000 0.000000 0.022368
#
#
# Mechanical properties :
#
#
# Convention : Reuss Voigt Hill
#
# Bulk Modulus (GPa) = 62.21033 62.23675 62.22354
# Shear Modulus (GPa) = 32.56181 36.10267 34.33224
#
# Velocity S-wave (km/s) = 3.81043 4.01226 3.91265
# Velocity P-wave (km/s) = 6.86287 7.01540 6.93955
#
# Compressibility (1/GPa) = 0.01607450
#
# Stress axis : x y z
#
# Youngs Moduli (GPa) = 75.47131 75.47131 87.81962
#
# Poissons Ratio (x) = 0.34862 0.27606
# Poissons Ratio (y) = 0.34862 0.27606
# Poissons Ratio (z) = 0.23725 0.23725
#
# Static dielectric constant tensor:
#      x y z
#    x 1.920920 0.000000 0.000000 
#    y 0.000000 1.920920 0.000000 
#    z 0.000000 0.000000 1.967890 
# 
# From -- ./inp_files/6105.got.cif
#   From: 2010.05.17/outbox.cif.g08.bks.cpg/sg88_4_cif.got.tgz:6105.got - 2010.06.03 19:11:41.
