data_PCOD9546061
_publ_section_title
;
Structure prediction by ZEFSAII (Michael W. Deem and Ramdas Pophale) SiO2 
 PCOD9546061
Probable space group: I 4/M
;
_chemical_formula_sum "Si O2"
_cell_formula_units_Z 96
_cell_length_a 14.928303
_cell_length_b 14.928303
_cell_length_c 21.864025
_cell_angle_alpha 90.000000
_cell_angle_beta 90.000000
_cell_angle_gamma 90.000000
_cell_volume 4872.490466
_symmetry_space_group_name_H-M "I 4/M"
_symmetry_group_IT_number 87
_symmetry_cell_setting 'tetragonal'
loop_
_space_group_symop_operation_xyz
x,y,z
-y,x,z
-x,-y,z
y,-x,z
-x,-y,-z
y,-x,-z
x,y,-z
-y,x,-z
1/2+x,1/2+y,1/2+z
1/2-y,1/2+x,1/2+z
1/2-x,1/2-y,1/2+z
1/2+y,1/2-x,1/2+z
1/2-x,1/2-y,1/2-z
1/2+y,1/2-x,1/2-z
1/2+x,1/2+y,1/2-z
1/2-y,1/2+x,1/2-z
loop_
_atom_site_type_symbol
_atom_site_label
_atom_site_fract_x
_atom_site_fract_y
_atom_site_fract_z
Si Si1 0.213917 0.877994 0.628197
Si Si2 0.549481 0.908448 0.426276
Si Si3 0.253258 0.431704 0.072410
Si Si4 0.388892 0.399837 0.389174
Si Si5 0.201475 0.381565 0.430160
Si Si6 0.886272 0.098664 0.251643
O O1 0.150275 0.819244 0.584807
O O2 0.314522 0.847258 0.615379
O O3 0.177549 0.862277 0.696544
O O4 0.210832 0.981590 0.608237
O O5 0.554244 0.910906 0.500000
O O6 0.652370 0.907258 0.405630
O O7 0.482960 0.826175 0.411808
O O8 0.500000 0.000000 0.406320
O O9 0.250011 0.452062 0.000000
O O10 0.492922 0.380262 0.400098
O O11 0.307088 0.361429 0.427437
O O12 0.370476 0.625042 0.318679
O O13 0.169060 0.367775 0.500000
O O14 0.991203 0.120949 0.259489
#
# Coordination Sequence:
#
# PCOD9546061 Si02
#       6
#    16  16  16  16  16  16
#     4  12  22  35  58  89 121 161 204 248 293 362
#     4   9  18  36  56  75 114 165 199 232 290 360
#     4  11  22  35  53  86 126 164 200 246 299 357
#     4   9  21  41  63  84 112 149 197 259 313 360
#     4  11  23  37  58  90 121 157 205 249 299 369
#     4   9  18  38  61  83 113 156 200 240 298 360
#
# _framework density 19.702451
#
# number of rings (size 3 to 8) (size 9 to 14) (size 15 to 20)
#    0.000    1.833    3.333    2.500    2.333    1.667 
#    0.000    1.667    0.000    0.000    0.000    0.000 
#    0.000    0.000    0.000    0.000    0.000    0.000 
#
# Total GULP energy -267658.361674 kJ/mol
# GULP energy per Si atom -5576.215868 kJ/mol
# Density = 1.965761 g / cm^3
# Si number density = 19.702451 Si / 1000 Ang^3
#
#
#
# Elastic Constant Matrix: (Units=GPa)
#
#
# Indices 1 2 3 4 5 6 
#
# 1 72.6221 27.8147 16.0052 0.0000 0.0000 4.2479
# 2 27.8147 72.6221 16.0052 0.0000 0.0000 -4.2479
# 3 16.0052 16.0052 19.2883 0.0000 0.0000 0.0000
# 4 0.0000 0.0000 0.0000 16.8132 0.0000 0.0000
# 5 0.0000 0.0000 0.0000 0.0000 16.8132 0.0000
# 6 4.2479 -4.2479 0.0000 0.0000 0.0000 13.6903
#
#
#
# Elastic Compliance Matrix: (Units=1/GPa)
#
#
# Indices 1 2 3 4 5 6 
#
# 1 0.018625 -0.005088 -0.011232 0.000000 0.000000 -0.007358
# 2 -0.005088 0.018625 -0.011232 0.000000 0.000000 0.007358
# 3 -0.011232 -0.011232 0.070486 0.000000 0.000000 0.000000
# 4 0.000000 0.000000 0.000000 0.059477 0.000000 0.000000
# 5 0.000000 0.000000 0.000000 0.000000 0.059477 0.000000
# 6 -0.007358 0.007358 0.000000 0.000000 0.000000 0.077610
#
#
# Mechanical properties :
#
#
# Convention : Reuss Voigt Hill
#
# Bulk Modulus (GPa) = 19.00080 31.57587 25.28834
# Shear Modulus (GPa) = 13.26440 16.44383 14.85412
#
# Velocity S-wave (km/s) = 2.59749 2.89209 2.74874
# Velocity P-wave (km/s) = 4.31981 5.21665 4.78927
#
# Compressibility (1/GPa) = 0.05262935
#
# Stress axis : x y z
#
# Youngs Moduli (GPa) = 53.69233 53.69233 14.18719
#
# Poissons Ratio (x) = 0.27320 0.15936
# Poissons Ratio (y) = 0.27320 0.15936
# Poissons Ratio (z) = 0.60309 0.60309
#
# Static dielectric constant tensor:
#      x y z
#    x 1.705690 0.000000 0.000000 
#    y 0.000000 1.705690 0.000000 
#    z 0.000000 0.000000 1.674270 
# 
# From -- ./inp_files/5266.got.cif
#   From: 2010.05.17/outbox.cif.g08.bks.cpg/sg87_3_cif.got.tgz:5266.got - 2010.06.03 19:07:00.
