data_PCOD9546313
_publ_section_title
;
Structure prediction by ZEFSAII (Michael W. Deem and Ramdas Pophale) SiO2 
 PCOD9546313
Probable space group: I 41/A
;
_chemical_formula_sum "Si O2"
_cell_formula_units_Z 72
_cell_length_a 18.315236
_cell_length_b 18.315236
_cell_length_c 9.257885
_cell_angle_alpha 90.000000
_cell_angle_beta 90.000000
_cell_angle_gamma 90.000000
_cell_volume 3105.537802
_symmetry_space_group_name_H-M "I 41/A"
_symmetry_group_IT_number 88
_space_group.IT_coordinate_system_code '2'
_symmetry_cell_setting 'tetragonal'
loop_
_space_group_symop_operation_xyz
x,y,z
3/4-y,1/4+x,1/4+z
-x,1/2-y,z
1/4+y,1/4-x,1/4+z
-x,-y,-z
1/4+y,3/4-x,3/4-z
x,1/2+y,-z
3/4-y,3/4+x,3/4-z
1/2+x,1/2+y,1/2+z
1/4-y,3/4+x,3/4+z
1/2-x,-y,1/2+z
3/4+y,3/4-x,3/4+z
1/2-x,1/2-y,1/2-z
3/4+y,1/4-x,1/4-z
1/2+x,y,1/2-z
1/4-y,1/4+x,1/4-z
loop_
_atom_site_type_symbol
_atom_site_label
_atom_site_fract_x
_atom_site_fract_y
_atom_site_fract_z
Si Si1 0.500000 0.250000 0.875000
Si Si2 0.500000 0.750000 0.625000
Si Si3 0.105847 0.904121 0.632548
Si Si4 0.087690 0.305747 0.872748
Si Si5 0.429653 0.499249 0.106012
Si Si6 0.767997 0.211123 0.397708
O O1 0.460707 0.190949 0.771533
O O2 0.557662 0.709224 0.730251
O O3 0.166571 0.842929 0.639610
O O4 0.029386 0.861895 0.616331
O O5 0.123386 0.950502 0.486933
O O6 0.088439 0.957635 0.767615
O O7 0.165437 0.346228 0.875019
O O8 0.467780 0.529308 0.249212
O O9 0.500000 0.500000 0.000000
O O10 0.750000 0.250000 0.250000
#
# Coordination Sequence:
#
# PCOD9546313 Si02
#       6
#     4   4  16  16  16  16
#     4  10  20  30  56 102 120 170 204 262 340 386
#     4  10  20  34  52  98 132 162 208 278 332 390
#     4  10  23  41  68  90 135 169 226 262 333 399
#     4   9  20  33  57  91 133 161 212 259 337 380
#     4   8  19  41  60  89 124 172 212 263 329 386
#     4  10  22  44  70  97 133 176 218 283 330 388
#
# _framework density 23.184388999999999
#
# number of rings (size 3 to 8) (size 9 to 14) (size 15 to 20)
#    0.000    3.111    0.000    0.000   15.556    0.000 
#    0.000    8.889    0.000    0.000    0.000    0.000 
#    0.000    0.000    0.000    0.000    0.000    0.000 
#
# Total GULP energy -200767.509405 kJ/mol
# GULP energy per Si atom -5576.875261 kJ/mol
# Density = 2.313162 g / cm^3
# Si number density = 23.184389 Si / 1000 Ang^3
#
#
#
# Elastic Constant Matrix: (Units=GPa)
#
#
# Indices 1 2 3 4 5 6 
#
# 1 86.7195 46.1610 51.7066 0.0000 0.0000 -9.3550
# 2 46.1610 86.7195 51.7066 0.0000 0.0000 9.3550
# 3 51.7066 51.7066 185.7541 0.0000 0.0000 0.0000
# 4 0.0000 0.0000 0.0000 18.5434 0.0000 0.0000
# 5 0.0000 0.0000 0.0000 0.0000 18.5434 0.0000
# 6 -9.3550 9.3550 0.0000 0.0000 0.0000 33.9558
#
#
#
# Elastic Compliance Matrix: (Units=1/GPa)
#
#
# Indices 1 2 3 4 5 6 
#
# 1 0.018926 -0.009319 -0.002674 0.000000 0.000000 0.007782
# 2 -0.009319 0.018926 -0.002674 0.000000 0.000000 -0.007782
# 3 -0.002674 -0.002674 0.006872 0.000000 0.000000 0.000000
# 4 0.000000 0.000000 0.000000 0.053927 0.000000 0.000000
# 5 0.000000 0.000000 0.000000 0.000000 0.053927 0.000000
# 6 0.007782 -0.007782 0.000000 0.000000 0.000000 0.033738
#
#
# Mechanical properties :
#
#
# Convention : Reuss Voigt Hill
#
# Bulk Modulus (GPa) = 64.98120 73.14907 69.06514
# Shear Modulus (GPa) = 22.64673 28.18311 25.41492
#
# Velocity S-wave (km/s) = 3.12879 3.49034 3.31450
# Velocity P-wave (km/s) = 6.41414 6.91829 6.67098
#
# Compressibility (1/GPa) = 0.01538907
#
# Stress axis : x y z
#
# Youngs Moduli (GPa) = 52.83697 52.83697 145.51374
#
# Poissons Ratio (x) = 0.49241 0.38912
# Poissons Ratio (y) = 0.49241 0.38912
# Poissons Ratio (z) = 0.14129 0.14129
#
# Static dielectric constant tensor:
#      x y z
#    x 1.994860 0.000000 0.000000 
#    y 0.000000 1.994860 0.000000 
#    z 0.000000 0.000000 1.963760 
# 
# From -- ./inp_files/1577.got.cif
#   From: 2010.05.17/outbox.cif.g08.bks.cpg/sg88_1_cif.got.tgz:1577.got - 2010.06.03 19:11:41.
