data_PCOD9546889
_publ_section_title
;
Structure prediction by ZEFSAII (Michael W. Deem and Ramdas Pophale) SiO2 
 PCOD9546889
Probable space group: I 41/A
;
_chemical_formula_sum "Si O2"
_cell_formula_units_Z 64
_cell_length_a 24.000000
_cell_length_b 24.000000
_cell_length_c 12.000000
_cell_angle_alpha 90.000000
_cell_angle_beta 90.000000
_cell_angle_gamma 90.000000
_cell_volume 6912.000000
_symmetry_space_group_name_H-M "I 41/A"
_symmetry_group_IT_number 88
_space_group.IT_coordinate_system_code '2'
_symmetry_cell_setting 'tetragonal'
loop_
_space_group_symop_operation_xyz
x,y,z
3/4-y,1/4+x,1/4+z
-x,1/2-y,z
1/4+y,1/4-x,1/4+z
-x,-y,-z
1/4+y,3/4-x,3/4-z
x,1/2+y,-z
3/4-y,3/4+x,3/4-z
1/2+x,1/2+y,1/2+z
1/4-y,3/4+x,3/4+z
1/2-x,-y,1/2+z
3/4+y,3/4-x,3/4+z
1/2-x,1/2-y,1/2-z
3/4+y,1/4-x,1/4-z
1/2+x,y,1/2-z
1/4-y,1/4+x,1/4-z
loop_
_atom_site_type_symbol
_atom_site_label
_atom_site_fract_x
_atom_site_fract_y
_atom_site_fract_z
Si Si1 0.594730 0.440944 0.611803
Si Si2 0.191313 0.597705 0.868374
Si Si3 0.393265 0.133235 0.177063
Si Si4 0.485308 0.653130 0.482390
Si Si5 0.168248 0.556166 0.253485
Si Si6 0.207545 0.899052 0.236431
Si Si7 0.010918 0.141107 0.243920
Si Si8 0.289764 0.154596 0.508546
O O1 0.613157 0.458224 0.486412
O O2 0.552163 0.391109 0.585606
O O3 0.649880 0.422946 0.682955
O O4 0.569022 0.490175 0.686180
O O5 0.247638 0.585583 0.936525
O O6 0.155703 0.550275 0.802294
O O7 0.148022 0.620903 0.961183
O O8 0.394602 0.200742 0.192195
O O9 0.354972 0.110088 0.074448
O O10 0.459991 0.121788 0.177151
O O11 0.450203 0.711011 0.472443
O O12 0.488030 0.644508 0.616884
O O13 0.141824 0.552480 0.379371
O O14 0.234644 0.566445 0.267949
O O15 0.220641 0.852146 0.140996
O O16 0.060017 0.095848 0.245462
#
# Coordination Sequence:
#
# PCOD9546889 Si02
#       8
#    16  16  16  16  16  16  16  16
#     4  11  23  39  67 100 142 175 223 279 350 414
#     4  11  22  39  64 103 139 168 217 285 346 407
#     4  12  25  42  65 106 132 178 225 286 349 403
#     4  12  22  41  69 103 139 173 223 287 352 413
#     4  12  26  43  67  97 139 182 236 276 340 415
#     4  11  24  43  67  91 134 191 231 273 334 414
#     4  12  22  42  69 103 136 176 224 284 350 416
#     4  11  23  41  66 101 137 179 228 277 349 408
#
# _framework density 9.2592590000000001
#
# number of rings (size 3 to 8) (size 9 to 14) (size 15 to 20)
#    0.000    0.500    8.750    1.125    1.750    1.500 
#    0.000    1.875    0.000    0.000    3.250    0.000 
#    0.000    0.000    0.000    0.000    0.000    0.000 
#
# Total GULP energy -356714.900703 kJ/mol
# GULP energy per Si atom -5573.670323 kJ/mol
# Density = 0.923818 g / cm^3
# Si number density = 9.259259 Si / 1000 Ang^3
#
#
#
# Elastic Constant Matrix: (Units=GPa)
#
#
# Indices 1 2 3 4 5 6 
#
# 1 101.6825 45.4212 37.6194 0.0000 0.0000 3.6645
# 2 45.4212 101.6825 37.6194 0.0000 0.0000 -3.6645
# 3 37.6194 37.6194 145.0566 0.0000 0.0000 0.0000
# 4 0.0000 0.0000 0.0000 35.4301 0.0000 0.0000
# 5 0.0000 0.0000 0.0000 0.0000 35.4301 0.0000
# 6 3.6645 -3.6645 0.0000 0.0000 0.0000 28.2589
#
#
#
# Elastic Compliance Matrix: (Units=1/GPa)
#
#
# Indices 1 2 3 4 5 6 
#
# 1 0.012959 -0.005121 -0.002033 0.000000 0.000000 -0.002344
# 2 -0.005121 0.012959 -0.002033 0.000000 0.000000 0.002344
# 3 -0.002033 -0.002033 0.007948 0.000000 0.000000 0.000000
# 4 0.000000 0.000000 0.000000 0.028225 0.000000 0.000000
# 5 0.000000 0.000000 0.000000 0.000000 0.028225 0.000000
# 6 -0.002344 0.002344 0.000000 0.000000 0.000000 0.035995
#
#
# Mechanical properties :
#
#
# Convention : Reuss Voigt Hill
#
# Bulk Modulus (GPa) = 64.54620 65.52687 65.03653
# Shear Modulus (GPa) = 33.36751 35.00792 34.18772
#
# Velocity S-wave (km/s) = 4.24942 4.35262 4.30133
# Velocity P-wave (km/s) = 7.68163 7.79242 7.73722
#
# Compressibility (1/GPa) = 0.01549278
#
# Stress axis : x y z
#
# Youngs Moduli (GPa) = 77.16903 77.16903 125.81550
#
# Poissons Ratio (x) = 0.39518 0.25573
# Poissons Ratio (y) = 0.39518 0.25573
# Poissons Ratio (z) = 0.15685 0.15685
#
# Static dielectric constant tensor:
#      x y z
#    x 1.682310 0.000000 0.000000 
#    y 0.000000 1.682310 0.000000 
#    z 0.000000 0.000000 1.629490 
# 
# From -- ./inp_files/2771.got.cif
#   From: 2010.05.17/outbox.ucp.g08.bks.cvg/sg88_2_cif.got.tgz:2771.got - 2010.06.11 10:35:41.
