data_PCOD9546629
_publ_section_title
;
Structure prediction by ZEFSAII (Michael W. Deem and Ramdas Pophale) SiO2 
 PCOD9546629
Probable space group: I 41/A
;
_chemical_formula_sum "Si O2"
_cell_formula_units_Z 72
_cell_length_a 16.391427
_cell_length_b 16.391427
_cell_length_c 10.985538
_cell_angle_alpha 90.000000
_cell_angle_beta 90.000000
_cell_angle_gamma 90.000000
_cell_volume 2951.582036
_symmetry_space_group_name_H-M "I 41/A"
_symmetry_group_IT_number 88
_space_group.IT_coordinate_system_code '2'
_symmetry_cell_setting 'tetragonal'
loop_
_space_group_symop_operation_xyz
x,y,z
3/4-y,1/4+x,1/4+z
-x,1/2-y,z
1/4+y,1/4-x,1/4+z
-x,-y,-z
1/4+y,3/4-x,3/4-z
x,1/2+y,-z
3/4-y,3/4+x,3/4-z
1/2+x,1/2+y,1/2+z
1/4-y,3/4+x,3/4+z
1/2-x,-y,1/2+z
3/4+y,3/4-x,3/4+z
1/2-x,1/2-y,1/2-z
3/4+y,1/4-x,1/4-z
1/2+x,y,1/2-z
1/4-y,1/4+x,1/4-z
loop_
_atom_site_type_symbol
_atom_site_label
_atom_site_fract_x
_atom_site_fract_y
_atom_site_fract_z
Si Si1 0.894010 0.365550 0.015192
Si Si2 0.000000 0.250000 0.125000
Si Si3 0.648284 0.320167 0.003493
Si Si4 0.000000 0.250000 0.625000
Si Si5 0.194044 0.480625 0.619797
Si Si6 0.713657 0.300703 0.491050
O O1 0.896279 0.428002 0.128156
O O2 0.836879 0.284875 0.008781
O O3 0.983502 0.324684 0.035594
O O4 0.888604 0.406379 0.885301
O O5 0.695067 0.234681 0.017773
O O6 0.556432 0.303678 0.962569
O O7 0.681437 0.384419 0.905925
O O8 0.238712 0.487164 0.748363
O O9 0.109790 0.531033 0.642432
#
# Coordination Sequence:
#
# PCOD9546629 Si02
#       6
#    16   4  16   4  16  16
#     4  10  23  42  76 106 152 194 245 330 394 468
#     4   8  18  40  60 110 132 190 244 304 394 466
#     4  12  25  47  74 109 154 203 259 323 395 472
#     4  12  26  44  72 118 144 206 260 324 386 466
#     4  12  31  50  75 111 155 212 259 322 395 477
#     4  11  26  47  77 114 153 198 268 320 402 474
#
# _framework density 24.393695000000001
#
# number of rings (size 3 to 8) (size 9 to 14) (size 15 to 20)
#    0.000    0.889    2.222    2.667    9.333    7.111 
#    0.000    0.000    0.000    0.000    0.000    0.000 
#    0.000    0.000    0.000    0.000    0.000    0.000 
#
# Total GULP energy -200855.547307 kJ/mol
# GULP energy per Si atom -5579.320759 kJ/mol
# Density = 2.433817 g / cm^3
# Si number density = 24.393695 Si / 1000 Ang^3
#
#
#
# Elastic Constant Matrix: (Units=GPa)
#
#
# Indices 1 2 3 4 5 6 
#
# 1 61.2267 26.5002 43.4313 0.0000 0.0000 -7.7057
# 2 26.5002 61.2267 43.4313 0.0000 0.0000 7.7057
# 3 43.4313 43.4313 159.5660 0.0000 0.0000 0.0000
# 4 0.0000 0.0000 0.0000 35.5239 0.0000 0.0000
# 5 0.0000 0.0000 0.0000 0.0000 35.5239 0.0000
# 6 -7.7057 7.7057 0.0000 0.0000 0.0000 57.6355
#
#
#
# Elastic Compliance Matrix: (Units=1/GPa)
#
#
# Indices 1 2 3 4 5 6 
#
# 1 0.023109 -0.007504 -0.004247 0.000000 0.000000 0.004093
# 2 -0.007504 0.023109 -0.004247 0.000000 0.000000 -0.004093
# 3 -0.004247 -0.004247 0.008579 0.000000 0.000000 0.000000
# 4 0.000000 0.000000 0.000000 0.028150 0.000000 0.000000
# 5 0.000000 0.000000 0.000000 0.000000 0.028150 0.000000
# 6 0.004093 -0.004093 0.000000 0.000000 0.000000 0.018445
#
#
# Mechanical properties :
#
#
# Convention : Reuss Voigt Hill
#
# Bulk Modulus (GPa) = 43.86188 56.52722 50.19455
# Shear Modulus (GPa) = 29.56159 36.98042 33.27101
#
# Velocity S-wave (km/s) = 3.48495 3.89779 3.69713
# Velocity P-wave (km/s) = 5.84919 6.59395 6.23270
#
# Compressibility (1/GPa) = 0.02279884
#
# Stress axis : x y z
#
# Youngs Moduli (GPa) = 43.27389 43.27389 116.56263
#
# Poissons Ratio (x) = 0.32474 0.49507
# Poissons Ratio (y) = 0.32474 0.49507
# Poissons Ratio (z) = 0.18380 0.18380
#
# Static dielectric constant tensor:
#      x y z
#    x 2.027640 0.000000 0.000000 
#    y 0.000000 2.027640 0.000000 
#    z 0.000000 0.000000 1.924870 
# 
# From -- ./inp_files/2484.got.cif
#   From: 2010.05.17/outbox.cif.g08.bks.cpg/sg88_2_cif.got.tgz:2484.got - 2010.06.03 19:11:41.
