data_PCOD9546620
_publ_section_title
;
Structure prediction by ZEFSAII (Michael W. Deem and Ramdas Pophale) SiO2 
 PCOD9546620
Probable space group: I 41/A
;
_chemical_formula_sum "Si O2"
_cell_formula_units_Z 88
_cell_length_a 16.305713
_cell_length_b 16.305713
_cell_length_c 15.078302
_cell_angle_alpha 90.000000
_cell_angle_beta 90.000000
_cell_angle_gamma 90.000000
_cell_volume 4008.962791
_symmetry_space_group_name_H-M "I 41/A"
_symmetry_group_IT_number 88
_space_group.IT_coordinate_system_code '2'
_symmetry_cell_setting 'tetragonal'
loop_
_space_group_symop_operation_xyz
x,y,z
3/4-y,1/4+x,1/4+z
-x,1/2-y,z
1/4+y,1/4-x,1/4+z
-x,-y,-z
1/4+y,3/4-x,3/4-z
x,1/2+y,-z
3/4-y,3/4+x,3/4-z
1/2+x,1/2+y,1/2+z
1/4-y,3/4+x,3/4+z
1/2-x,-y,1/2+z
3/4+y,3/4-x,3/4+z
1/2-x,1/2-y,1/2-z
3/4+y,1/4-x,1/4-z
1/2+x,y,1/2-z
1/4-y,1/4+x,1/4-z
loop_
_atom_site_type_symbol
_atom_site_label
_atom_site_fract_x
_atom_site_fract_y
_atom_site_fract_z
Si Si1 0.500000 0.250000 0.375000
Si Si2 0.350354 0.684366 0.674123
Si Si3 0.888017 0.351494 0.507638
Si Si4 0.656156 0.984725 0.094972
Si Si5 0.246728 0.416903 0.431870
Si Si6 0.008034 0.576650 0.104086
Si Si7 0.500000 0.250000 0.875000
O O1 0.591672 0.280947 0.402938
O O2 0.362775 0.589235 0.693544
O O3 0.255393 0.703698 0.657326
O O4 0.374411 0.735715 0.762007
O O5 0.812858 0.357187 0.578348
O O6 0.886917 0.437579 0.452859
O O7 0.874032 0.280249 0.435951
O O8 0.966878 0.324937 0.564646
O O9 0.742676 0.008042 0.140864
O O10 0.688695 0.925010 0.017308
O O11 0.203813 0.350365 0.370343
#
# Coordination Sequence:
#
# PCOD9546620 Si02
#       7
#     4  16  16  16  16  16   4
#     4  12  24  38  56  96 148 170 212 268 336 414
#     4  11  23  36  58  95 131 174 209 265 336 396
#     4  11  25  46  69  98 132 176 223 277 331 398
#     4  10  23  41  73  95 122 175 229 267 324 401
#     4  11  19  40  63  96 127 164 221 272 319 390
#     4  11  23  39  64  91 135 172 216 273 328 389
#     4  12  28  50  64  96 144 170 224 284 332 386
#
# _framework density 21.950814999999999
#
# number of rings (size 3 to 8) (size 9 to 14) (size 15 to 20)
#    0.000    1.091    5.455    1.091    0.000    2.909 
#    3.273    0.000    0.000    0.000    0.000    0.000 
#    0.000    0.000    0.000    0.000    0.000    0.000 
#
# Total GULP energy -245156.686209 kJ/mol
# GULP energy per Si atom -5571.742868 kJ/mol
# Density = 2.190085 g / cm^3
# Si number density = 21.950815 Si / 1000 Ang^3
#
#
#
# Elastic Constant Matrix: (Units=GPa)
#
#
# Indices 1 2 3 4 5 6 
#
# 1 32.7811 22.6115 12.5979 0.0000 0.0000 2.6142
# 2 22.6115 32.7811 12.5979 0.0000 0.0000 -2.6142
# 3 12.5979 12.5979 76.3203 0.0000 0.0000 0.0000
# 4 0.0000 0.0000 0.0000 10.3498 0.0000 0.0000
# 5 0.0000 0.0000 0.0000 0.0000 10.3498 0.0000
# 6 2.6142 -2.6142 0.0000 0.0000 0.0000 24.7388
#
#
#
# Elastic Compliance Matrix: (Units=1/GPa)
#
#
# Indices 1 2 3 4 5 6 
#
# 1 0.061750 -0.042231 -0.003222 0.000000 0.000000 -0.010988
# 2 -0.042231 0.061750 -0.003222 0.000000 0.000000 0.010988
# 3 -0.003222 -0.003222 0.014166 0.000000 0.000000 0.000000
# 4 0.000000 0.000000 0.000000 0.096620 0.000000 0.000000
# 5 0.000000 0.000000 0.000000 0.000000 0.096620 0.000000
# 6 -0.010988 0.010988 0.000000 0.000000 0.000000 0.042745
#
#
# Mechanical properties :
#
#
# Convention : Reuss Voigt Hill
#
# Bulk Modulus (GPa) = 24.80413 26.38854 25.59633
# Shear Modulus (GPa) = 10.32124 15.35938 12.84031
#
# Velocity S-wave (km/s) = 2.17076 2.64809 2.42121
# Velocity P-wave (km/s) = 4.19611 4.62575 4.41616
#
# Compressibility (1/GPa) = 0.04031587
#
# Stress axis : x y z
#
# Youngs Moduli (GPa) = 16.19444 16.19444 70.59002
#
# Poissons Ratio (x) = 0.68391 0.22743
# Poissons Ratio (y) = 0.68391 0.22743
# Poissons Ratio (z) = 0.05218 0.05218
#
# Static dielectric constant tensor:
#      x y z
#    x 1.795870 0.000000 0.000000 
#    y 0.000000 1.795870 0.000000 
#    z 0.000000 0.000000 1.927130 
# 
# From -- ./inp_files/3233.got.cif
#   From: 2010.05.17/outbox.cif.g08.bks.cpg/sg88_2_cif.got.tgz:3233.got - 2010.06.03 19:11:41.
