data_PCOD9546809
_publ_section_title
;
Structure prediction by ZEFSAII (Michael W. Deem and Ramdas Pophale) SiO2 
 PCOD9546809
Probable space group: I 41/A
;
_chemical_formula_sum "Si O2"
_cell_formula_units_Z 64
_cell_length_a 18.240183
_cell_length_b 18.240183
_cell_length_c 8.735165
_cell_angle_alpha 90.000000
_cell_angle_beta 90.000000
_cell_angle_gamma 90.000000
_cell_volume 2906.226746
_symmetry_space_group_name_H-M "I 41/A"
_symmetry_group_IT_number 88
_space_group.IT_coordinate_system_code '2'
_symmetry_cell_setting 'tetragonal'
loop_
_space_group_symop_operation_xyz
x,y,z
3/4-y,1/4+x,1/4+z
-x,1/2-y,z
1/4+y,1/4-x,1/4+z
-x,-y,-z
1/4+y,3/4-x,3/4-z
x,1/2+y,-z
3/4-y,3/4+x,3/4-z
1/2+x,1/2+y,1/2+z
1/4-y,3/4+x,3/4+z
1/2-x,-y,1/2+z
3/4+y,3/4-x,3/4+z
1/2-x,1/2-y,1/2-z
3/4+y,1/4-x,1/4-z
1/2+x,y,1/2-z
1/4-y,1/4+x,1/4-z
loop_
_atom_site_type_symbol
_atom_site_label
_atom_site_fract_x
_atom_site_fract_y
_atom_site_fract_z
Si Si1 0.088307 0.066677 0.032043
Si Si2 0.568045 0.846571 0.163545
Si Si3 0.347157 0.826685 0.771781
Si Si4 0.687552 0.567339 0.242621
O O1 0.139033 0.117625 0.134856
O O2 0.084814 0.983967 0.091990
O O3 0.121140 0.056307 0.862892
O O4 0.007401 0.100788 0.031337
O O5 0.595668 0.769821 0.094360
O O6 0.590924 0.847377 0.340831
O O7 0.604100 0.915930 0.078844
O O8 0.759386 0.561593 0.351578
#
# Coordination Sequence:
#
# PCOD9546809 Si02
#       4
#    16  16  16  16
#     4  11  25  46  71 104 140 189 240 294 361 415
#     4  11  27  47  72 106 147 191 240 294 359 427
#     4  11  26  45  72 103 144 189 239 300 352 429
#     4  12  28  47  73 107 144 186 241 295 357 432
#
# _framework density 22.02168
#
# number of rings (size 3 to 8) (size 9 to 14) (size 15 to 20)
#    0.000    0.750    5.000    0.000   10.500    1.500 
#    0.000    0.000    0.000    0.000    0.000    0.000 
#    0.000    0.000    0.000    0.000    0.000    0.000 
#
# Total GULP energy -178794.054489 kJ/mol
# GULP energy per Si atom -5587.314203 kJ/mol
# Density = 2.197156 g / cm^3
# Si number density = 22.021680 Si / 1000 Ang^3
#
#
#
# Elastic Constant Matrix: (Units=GPa)
#
#
# Indices 1 2 3 4 5 6 
#
# 1 324.8088 -253.0525 42.6929 0.0000 0.0000 68.2507
# 2 -253.0525 324.8088 42.6929 0.0000 0.0000 -68.2507
# 3 42.6929 42.6929 106.8434 0.0000 0.0000 0.0000
# 4 0.0000 0.0000 0.0000 8.2611 0.0000 0.0000
# 5 0.0000 0.0000 0.0000 0.0000 8.2611 0.0000
# 6 68.2507 -68.2507 0.0000 0.0000 0.0000 44.3261
#
#
#
# Elastic Compliance Matrix: (Units=1/GPa)
#
#
# Indices 1 2 3 4 5 6 
#
# 1 0.014644 0.011925 -0.010617 0.000000 0.000000 -0.004188
# 2 0.011925 0.014644 -0.010617 0.000000 0.000000 0.004188
# 3 -0.010617 -0.010617 0.017844 0.000000 0.000000 0.000000
# 4 0.000000 0.000000 0.000000 0.121050 0.000000 0.000000
# 5 0.000000 0.000000 0.000000 0.000000 0.121050 0.000000
# 6 -0.004188 0.004188 0.000000 0.000000 0.000000 0.035456
#
#
# Mechanical properties :
#
#
# Convention : Reuss Voigt Hill
#
# Bulk Modulus (GPa) = 35.06822 46.79197 40.93010
# Shear Modulus (GPa) = 14.17190 73.77816 43.97503
#
# Velocity S-wave (km/s) = 2.53957 5.79441 4.47351
# Velocity P-wave (km/s) = 4.95562 8.12781 6.73125
#
# Compressibility (1/GPa) = 0.02851585
#
# Stress axis : x y z
#
# Youngs Moduli (GPa) = 68.28527 68.28527 56.04144
#
# Poissons Ratio (x) = -0.81428 0.59497
# Poissons Ratio (y) = -0.81428 0.59497
# Poissons Ratio (z) = 0.72496 0.72496
#
# Static dielectric constant tensor:
#      x y z
#    x 1.826670 0.000000 0.000000 
#    y 0.000000 1.826670 0.000000 
#    z 0.000000 0.000000 1.807480 
# 
# From -- ./inp_files/1448.got.cif
#   From: 2010.05.17/outbox.cif.g08.bks.cpg/sg88_1_cif.got.tgz:1448.got - 2010.06.03 19:11:41.
