data_PCOD9546374
_publ_section_title
;
Structure prediction by ZEFSAII (Michael W. Deem and Ramdas Pophale) SiO2 
 PCOD9546374
Probable space group: I 41/A
;
_chemical_formula_sum "Si O2"
_cell_formula_units_Z 72
_cell_length_a 19.474134
_cell_length_b 19.474134
_cell_length_c 6.941569
_cell_angle_alpha 90.000000
_cell_angle_beta 90.000000
_cell_angle_gamma 90.000000
_cell_volume 2632.533782
_symmetry_space_group_name_H-M "I 41/A"
_symmetry_group_IT_number 88
_space_group.IT_coordinate_system_code '2'
_symmetry_cell_setting 'tetragonal'
loop_
_space_group_symop_operation_xyz
x,y,z
3/4-y,1/4+x,1/4+z
-x,1/2-y,z
1/4+y,1/4-x,1/4+z
-x,-y,-z
1/4+y,3/4-x,3/4-z
x,1/2+y,-z
3/4-y,3/4+x,3/4-z
1/2+x,1/2+y,1/2+z
1/4-y,3/4+x,3/4+z
1/2-x,-y,1/2+z
3/4+y,3/4-x,3/4+z
1/2-x,1/2-y,1/2-z
3/4+y,1/4-x,1/4-z
1/2+x,y,1/2-z
1/4-y,1/4+x,1/4-z
loop_
_atom_site_type_symbol
_atom_site_label
_atom_site_fract_x
_atom_site_fract_y
_atom_site_fract_z
Si Si1 0.206052 0.411401 0.318345
Si Si2 0.500000 0.750000 0.625000
Si Si3 0.000000 0.750000 0.375000
Si Si4 0.929509 0.443886 0.272866
Si Si5 0.932356 0.566752 0.510938
Si Si6 0.893625 0.301104 0.383187
O O1 0.271270 0.434168 0.444098
O O2 0.092418 0.509321 0.546420
O O3 0.136512 0.392852 0.436207
O O4 0.496345 0.823591 0.514407
O O5 0.965384 0.808426 0.497126
O O6 0.903398 0.473431 0.069884
O O7 0.886351 0.373789 0.286951
O O8 0.010802 0.434953 0.320343
O O9 0.962263 0.589573 0.300391
#
# Coordination Sequence:
#
# PCOD9546374 Si02
#       6
#    16   4   4  16  16  16
#     4  12  26  48  75 105 144 199 248 297 361 458
#     4  10  28  42  72 106 138 204 242 280 354 468
#     4  10  20  38  68  94 136 202 226 280 342 448
#     4  11  25  44  72 106 144 188 235 307 364 428
#     4  11  25  47  71 107 146 187 239 311 371 419
#     4  11  22  46  68 101 145 190 241 290 356 443
#
# _framework density 27.350076999999999
#
# number of rings (size 3 to 8) (size 9 to 14) (size 15 to 20)
#    0.000    0.889    2.222    4.000    3.111    0.889 
#    8.000    0.000    0.000    0.000    0.000    0.000 
#    0.000    0.000    0.000    0.000    0.000    0.000 
#
# Total GULP energy -200905.860302 kJ/mol
# GULP energy per Si atom -5580.718342 kJ/mol
# Density = 2.728783 g / cm^3
# Si number density = 27.350077 Si / 1000 Ang^3
#
#
#
# Elastic Constant Matrix: (Units=GPa)
#
#
# Indices 1 2 3 4 5 6 
#
# 1 102.8702 6.9323 49.7260 0.0000 0.0000 -1.1992
# 2 6.9323 102.8702 49.7260 0.0000 0.0000 1.1992
# 3 49.7260 49.7260 103.8555 0.0000 0.0000 0.0000
# 4 0.0000 0.0000 0.0000 57.9092 0.0000 0.0000
# 5 0.0000 0.0000 0.0000 0.0000 57.9092 0.0000
# 6 -1.1992 1.1992 0.0000 0.0000 0.0000 21.2530
#
#
#
# Elastic Compliance Matrix: (Units=1/GPa)
#
#
# Indices 1 2 3 4 5 6 
#
# 1 0.013260 0.002821 -0.007700 0.000000 0.000000 0.000589
# 2 0.002821 0.013260 -0.007700 0.000000 0.000000 -0.000589
# 3 -0.007700 -0.007700 0.017002 0.000000 0.000000 0.000000
# 4 0.000000 0.000000 0.000000 0.017268 0.000000 0.000000
# 5 0.000000 0.000000 0.000000 0.000000 0.017268 0.000000
# 6 0.000589 -0.000589 0.000000 0.000000 0.000000 0.047119
#
#
# Mechanical properties :
#
#
# Convention : Reuss Voigt Hill
#
# Bulk Modulus (GPa) = 54.44962 58.04049 56.24506
# Shear Modulus (GPa) = 31.95829 40.96173 36.46001
#
# Velocity S-wave (km/s) = 3.42203 3.87419 3.65511
# Velocity P-wave (km/s) = 5.96367 6.42494 6.19859
#
# Compressibility (1/GPa) = 0.01836560
#
# Stress axis : x y z
#
# Youngs Moduli (GPa) = 75.41707 75.41707 58.81697
#
# Poissons Ratio (x) = -0.21279 0.45287
# Poissons Ratio (y) = -0.21279 0.45287
# Poissons Ratio (z) = 0.58068 0.58068
#
# Static dielectric constant tensor:
#      x y z
#    x 2.200450 0.000000 0.000000 
#    y 0.000000 2.200450 0.000000 
#    z 0.000000 0.000000 2.321120 
# 
# From -- ./inp_files/1621.got.cif
#   From: 2010.05.17/outbox.cif.g08.bks.cpg/sg88_1_cif.got.tgz:1621.got - 2010.06.03 19:11:41.
