data_PCOD9546350
_publ_section_title
;
Structure prediction by ZEFSAII (Michael W. Deem and Ramdas Pophale) SiO2 
 PCOD9546350
Probable space group: I 41/A
;
_chemical_formula_sum "Si O2"
_cell_formula_units_Z 84
_cell_length_a 20.890920
_cell_length_b 20.890920
_cell_length_c 10.011034
_cell_angle_alpha 90.000000
_cell_angle_beta 90.000000
_cell_angle_gamma 90.000000
_cell_volume 4369.120959
_symmetry_space_group_name_H-M "I 41/A"
_symmetry_group_IT_number 88
_space_group.IT_coordinate_system_code '2'
_symmetry_cell_setting 'tetragonal'
loop_
_space_group_symop_operation_xyz
x,y,z
3/4-y,1/4+x,1/4+z
-x,1/2-y,z
1/4+y,1/4-x,1/4+z
-x,-y,-z
1/4+y,3/4-x,3/4-z
x,1/2+y,-z
3/4-y,3/4+x,3/4-z
1/2+x,1/2+y,1/2+z
1/4-y,3/4+x,3/4+z
1/2-x,-y,1/2+z
3/4+y,3/4-x,3/4+z
1/2-x,1/2-y,1/2-z
3/4+y,1/4-x,1/4-z
1/2+x,y,1/2-z
1/4-y,1/4+x,1/4-z
loop_
_atom_site_type_symbol
_atom_site_label
_atom_site_fract_x
_atom_site_fract_y
_atom_site_fract_z
Si Si1 0.835507 0.322017 0.720221
Si Si2 0.198894 0.305897 0.852717
Si Si3 0.861204 0.329999 0.415896
Si Si4 0.897041 0.188433 0.303485
Si Si5 0.448845 0.476229 0.392968
Si Si6 0.000000 0.250000 0.125000
O O1 0.824048 0.247039 0.748858
O O2 0.760709 0.343651 0.705404
O O3 0.866434 0.331464 0.575981
O O4 0.883218 0.346657 0.835086
O O5 0.137606 0.347321 0.888644
O O6 0.217966 0.273110 0.993683
O O7 0.881691 0.259146 0.366022
O O8 0.788030 0.345232 0.376075
O O9 0.839055 0.172042 0.203245
O O10 0.961511 0.199989 0.217849
O O11 0.500000 0.500000 0.500000
#
# Coordination Sequence:
#
# PCOD9546350 Si02
#       6
#    16  16  16  16  16   4
#     4  10  21  35  57  83 111 153 191 232 297 351
#     4  10  20  37  57  81 117 153 186 243 291 348
#     4  10  20  36  59  82 114 148 197 238 291 347
#     4  11  20  34  55  86 114 150 191 241 287 346
#     4   9  20  36  57  83 111 153 193 229 294 355
#     4  12  24  32  54  92 124 144 192 250 300 336
#
# _framework density 19.225836999999999
#
# number of rings (size 3 to 8) (size 9 to 14) (size 15 to 20)
#    0.000    1.905    0.000    4.571    0.000    3.048 
#    0.000    1.905   16.762    0.000    0.000    0.000 
#    0.000    0.000    0.000    0.000    0.000    0.000 
#
# Total GULP energy -233912.528980 kJ/mol
# GULP energy per Si atom -5569.345928 kJ/mol
# Density = 1.918208 g / cm^3
# Si number density = 19.225837 Si / 1000 Ang^3
#
#
#
# Elastic Constant Matrix: (Units=GPa)
#
#
# Indices 1 2 3 4 5 6 
#
# 1 76.1225 26.6783 35.3380 0.0000 0.0000 -1.9960
# 2 26.6783 76.1225 35.3380 0.0000 0.0000 1.9960
# 3 35.3380 35.3380 116.5353 0.0000 0.0000 0.0000
# 4 0.0000 0.0000 0.0000 30.1204 0.0000 0.0000
# 5 0.0000 0.0000 0.0000 0.0000 30.1204 0.0000
# 6 -1.9960 1.9960 0.0000 0.0000 0.0000 12.7616
#
#
#
# Elastic Compliance Matrix: (Units=1/GPa)
#
#
# Indices 1 2 3 4 5 6 
#
# 1 0.016387 -0.004097 -0.003727 0.000000 0.000000 0.003204
# 2 -0.004097 0.016387 -0.003727 0.000000 0.000000 -0.003204
# 3 -0.003727 -0.003727 0.010841 0.000000 0.000000 0.000000
# 4 0.000000 0.000000 0.000000 0.033200 0.000000 0.000000
# 5 0.000000 0.000000 0.000000 0.000000 0.033200 0.000000
# 6 0.003204 -0.003204 0.000000 0.000000 0.000000 0.079362
#
#
# Mechanical properties :
#
#
# Convention : Reuss Voigt Hill
#
# Bulk Modulus (GPa) = 48.74769 51.49876 50.12323
# Shear Modulus (GPa) = 22.79821 26.02887 24.41354
#
# Velocity S-wave (km/s) = 3.44730 3.68346 3.56733
# Velocity P-wave (km/s) = 6.42304 6.70335 6.56469
#
# Compressibility (1/GPa) = 0.02051379
#
# Stress axis : x y z
#
# Youngs Moduli (GPa) = 61.02551 61.02551 92.24031
#
# Poissons Ratio (x) = 0.25002 0.34375
# Poissons Ratio (y) = 0.25002 0.34375
# Poissons Ratio (z) = 0.22742 0.22742
#
# Static dielectric constant tensor:
#      x y z
#    x 1.707930 0.000000 0.000000 
#    y 0.000000 1.707930 0.000000 
#    z 0.000000 0.000000 1.683620 
# 
# From -- ./inp_files/1644.got.cif
#   From: 2010.05.17/outbox.cif.g08.bks.cpg/sg88_1_cif.got.tgz:1644.got - 2010.06.03 19:11:41.
