data_PCOD9546490
_publ_section_title
;
Structure prediction by ZEFSAII (Michael W. Deem and Ramdas Pophale) SiO2 
 PCOD9546490
Probable space group: I 41/A
;
_chemical_formula_sum "Si O2"
_cell_formula_units_Z 116
_cell_length_a 16.944854
_cell_length_b 16.944854
_cell_length_c 18.034691
_cell_angle_alpha 90.000000
_cell_angle_beta 90.000000
_cell_angle_gamma 90.000000
_cell_volume 5178.266148
_symmetry_space_group_name_H-M "I 41/A"
_symmetry_group_IT_number 88
_space_group.IT_coordinate_system_code '2'
_symmetry_cell_setting 'tetragonal'
loop_
_space_group_symop_operation_xyz
x,y,z
3/4-y,1/4+x,1/4+z
-x,1/2-y,z
1/4+y,1/4-x,1/4+z
-x,-y,-z
1/4+y,3/4-x,3/4-z
x,1/2+y,-z
3/4-y,3/4+x,3/4-z
1/2+x,1/2+y,1/2+z
1/4-y,3/4+x,3/4+z
1/2-x,-y,1/2+z
3/4+y,3/4-x,3/4+z
1/2-x,1/2-y,1/2-z
3/4+y,1/4-x,1/4-z
1/2+x,y,1/2-z
1/4-y,1/4+x,1/4-z
loop_
_atom_site_type_symbol
_atom_site_label
_atom_site_fract_x
_atom_site_fract_y
_atom_site_fract_z
Si Si1 0.410129 0.101300 0.630138
Si Si2 0.475284 0.915998 0.237905
Si Si3 0.288406 0.896884 0.540621
Si Si4 0.253926 0.479866 0.844671
Si Si5 0.930135 0.684639 0.981157
Si Si6 0.823275 0.705131 0.840156
Si Si7 0.098402 0.382817 0.629165
Si Si8 0.000000 0.750000 0.375000
O O1 0.469772 0.119167 0.697480
O O2 0.323207 0.075665 0.658678
O O3 0.405965 0.166461 0.565587
O O4 0.443187 0.019567 0.595666
O O5 0.405022 0.860882 0.203706
O O6 0.531037 0.937331 0.166767
O O7 0.431805 0.991883 0.271179
O O8 0.254935 0.960620 0.483030
O O9 0.382319 0.892104 0.541801
O O10 0.267380 0.937687 0.617787
O O11 0.321144 0.429949 0.888496
O O12 0.000000 0.750000 0.976838
O O13 0.861707 0.703282 0.922278
O O14 0.966926 0.604012 0.948544
O O15 0.067257 0.300608 0.666418
#
# Coordination Sequence:
#
# PCOD9546490 Si02
#       8
#    16  16  16  16  16  16  16   4
#     4  11  26  38  72  99 136 175 235 279 351 409
#     4  10  21  41  63  94 123 176 225 278 331 402
#     4  10  23  36  68  97 133 172 223 282 338 410
#     4  10  22  40  62 102 134 169 219 283 335 411
#     4  12  25  46  64 100 138 189 226 287 342 422
#     4  11  23  42  70  95 140 182 225 275 356 411
#     4   9  19  38  68  85 127 173 220 269 345 398
#     4   8  16  36  64  92 104 168 212 258 320 400
#
# _framework density 22.401319999999998
#
# number of rings (size 3 to 8) (size 9 to 14) (size 15 to 20)
#    0.000    1.655    1.379    2.069   11.586    0.000 
#    7.448    0.000    0.000   28.138    0.000    0.000 
#    0.000    0.000    0.000    0.000    0.000    0.000 
#
# Total GULP energy -322979.131645 kJ/mol
# GULP energy per Si atom -5568.605718 kJ/mol
# Density = 2.235033 g / cm^3
# Si number density = 22.401320 Si / 1000 Ang^3
#
#
#
# Elastic Constant Matrix: (Units=GPa)
#
#
# Indices 1 2 3 4 5 6 
#
# 1 65.3413 21.8896 25.2537 0.0000 0.0000 -2.2688
# 2 21.8896 65.3413 25.2537 0.0000 0.0000 2.2688
# 3 25.2537 25.2537 96.9353 0.0000 0.0000 0.0000
# 4 0.0000 0.0000 0.0000 35.4996 0.0000 0.0000
# 5 0.0000 0.0000 0.0000 0.0000 35.4996 0.0000
# 6 -2.2688 2.2688 0.0000 0.0000 0.0000 42.9531
#
#
#
# Elastic Compliance Matrix: (Units=1/GPa)
#
#
# Indices 1 2 3 4 5 6 
#
# 1 0.018321 -0.004821 -0.003517 0.000000 0.000000 0.001222
# 2 -0.004821 0.018321 -0.003517 0.000000 0.000000 -0.001222
# 3 -0.003517 -0.003517 0.012149 0.000000 0.000000 0.000000
# 4 0.000000 0.000000 0.000000 0.028169 0.000000 0.000000
# 5 0.000000 0.000000 0.000000 0.000000 0.028169 0.000000
# 6 0.001222 -0.001222 0.000000 0.000000 0.000000 0.023410
#
#
# Mechanical properties :
#
#
# Convention : Reuss Voigt Hill
#
# Bulk Modulus (GPa) = 39.87111 41.37911 40.62511
# Shear Modulus (GPa) = 31.13133 33.13850 32.13492
#
# Velocity S-wave (km/s) = 3.73193 3.85035 3.79160
# Velocity P-wave (km/s) = 6.03381 6.18698 6.11088
#
# Compressibility (1/GPa) = 0.02508082
#
# Stress axis : x y z
#
# Youngs Moduli (GPa) = 54.58221 54.58221 82.31322
#
# Poissons Ratio (x) = 0.26313 0.28950
# Poissons Ratio (y) = 0.26313 0.28950
# Poissons Ratio (z) = 0.19197 0.19197
#
# Static dielectric constant tensor:
#      x y z
#    x 1.904140 0.000000 0.000000 
#    y 0.000000 1.904140 0.000000 
#    z 0.000000 0.000000 1.860440 
# 
# From -- ./inp_files/4032.got.cif
#   From: 2010.05.17/outbox.cif.g08.bks.cpg/sg88_3_cif.got.tgz:4032.got - 2010.06.03 19:11:41.
