data_PCOD9546360
_publ_section_title
;
Structure prediction by ZEFSAII (Michael W. Deem and Ramdas Pophale) SiO2 
 PCOD9546360
Probable space group: I 41/A
;
_chemical_formula_sum "Si O2"
_cell_formula_units_Z 80
_cell_length_a 23.649994
_cell_length_b 23.649994
_cell_length_c 5.644975
_cell_angle_alpha 90.000000
_cell_angle_beta 90.000000
_cell_angle_gamma 90.000000
_cell_volume 3157.359927
_symmetry_space_group_name_H-M "I 41/A"
_symmetry_group_IT_number 88
_space_group.IT_coordinate_system_code '2'
_symmetry_cell_setting 'tetragonal'
loop_
_space_group_symop_operation_xyz
x,y,z
3/4-y,1/4+x,1/4+z
-x,1/2-y,z
1/4+y,1/4-x,1/4+z
-x,-y,-z
1/4+y,3/4-x,3/4-z
x,1/2+y,-z
3/4-y,3/4+x,3/4-z
1/2+x,1/2+y,1/2+z
1/4-y,3/4+x,3/4+z
1/2-x,-y,1/2+z
3/4+y,3/4-x,3/4+z
1/2-x,1/2-y,1/2-z
3/4+y,1/4-x,1/4-z
1/2+x,y,1/2-z
1/4-y,1/4+x,1/4-z
loop_
_atom_site_type_symbol
_atom_site_label
_atom_site_fract_x
_atom_site_fract_y
_atom_site_fract_z
Si Si1 0.321684 0.807107 0.795122
Si Si2 0.342222 0.577427 0.825404
Si Si3 0.411979 0.375230 0.931207
Si Si4 0.589793 0.257252 0.453848
Si Si5 0.763436 0.126379 0.963993
O O1 0.314779 0.855302 0.595407
O O2 0.368474 0.827632 0.982353
O O3 0.350380 0.754133 0.671541
O O4 0.264539 0.815508 0.939097
O O5 0.355630 0.640033 0.927380
O O6 0.345360 0.531229 0.037174
O O7 0.285188 0.584789 0.673284
O O8 0.471342 0.352414 0.029789
O O9 0.395524 0.430649 0.080666
O O10 0.553452 0.199721 0.428132
#
# Coordination Sequence:
#
# PCOD9546360 Si02
#       5
#    16  16  16  16  16
#     4   9  19  36  61  85 124 163 199 263 317 371
#     4  10  20  38  62  87 124 168 206 266 312 383
#     4   9  19  36  61  85 124 163 199 263 317 371
#     4   9  18  37  63  93 119 153 205 256 316 377
#     4  10  20  37  64  84 122 164 214 253 320 368
#
# _framework density 25.337624000000002
#
# number of rings (size 3 to 8) (size 9 to 14) (size 15 to 20)
#    0.000    2.600    0.000    1.200    0.000    0.800 
#    0.000   24.000  158.400    9.600    0.000    0.000 
#    0.000    0.000    0.000    0.000    0.000    0.000 
#
# Total GULP energy -223294.755753 kJ/mol
# GULP energy per Si atom -5582.368894 kJ/mol
# Density = 2.527995 g / cm^3
# Si number density = 25.337624 Si / 1000 Ang^3
#
#
#
# Elastic Constant Matrix: (Units=GPa)
#
#
# Indices 1 2 3 4 5 6 
#
# 1 110.4051 50.4423 45.8825 0.0000 0.0000 3.2367
# 2 50.4423 110.4051 45.8825 0.0000 0.0000 -3.2367
# 3 45.8825 45.8825 84.3983 0.0000 0.0000 0.0000
# 4 0.0000 0.0000 0.0000 48.6246 0.0000 0.0000
# 5 0.0000 0.0000 0.0000 0.0000 48.6246 0.0000
# 6 3.2367 -3.2367 0.0000 0.0000 0.0000 31.8865
#
#
#
# Elastic Compliance Matrix: (Units=1/GPa)
#
#
# Indices 1 2 3 4 5 6 
#
# 1 0.012937 -0.003925 -0.004899 0.000000 0.000000 -0.001712
# 2 -0.003925 0.012937 -0.004899 0.000000 0.000000 0.001712
# 3 -0.004899 -0.004899 0.017176 0.000000 0.000000 0.000000
# 4 0.000000 0.000000 0.000000 0.020566 0.000000 0.000000
# 5 0.000000 0.000000 0.000000 0.000000 0.020566 0.000000
# 6 -0.001712 0.001712 0.000000 0.000000 0.000000 0.031709
#
#
# Mechanical properties :
#
#
# Convention : Reuss Voigt Hill
#
# Bulk Modulus (GPa) = 64.09269 65.51367 64.80318
# Shear Modulus (GPa) = 33.66141 36.69387 35.17764
#
# Velocity S-wave (km/s) = 3.64883 3.80965 3.73011
# Velocity P-wave (km/s) = 6.56524 6.72782 6.64703
#
# Compressibility (1/GPa) = 0.01560240
#
# Stress axis : x y z
#
# Youngs Moduli (GPa) = 77.29750 77.29750 58.22193
#
# Poissons Ratio (x) = 0.30338 0.28525
# Poissons Ratio (y) = 0.30338 0.28525
# Poissons Ratio (z) = 0.37871 0.37871
#
# Static dielectric constant tensor:
#      x y z
#    x 1.995680 0.000000 0.000000 
#    y 0.000000 1.995680 0.000000 
#    z 0.000000 0.000000 2.104490 
# 
# From -- ./inp_files/676.got.cif
#   From: 2010.05.17/outbox.cif.g08.bks.cpg/sg88_1_cif.got.tgz:676.got - 2010.06.03 19:11:41.
