data_PCOD9546375
_publ_section_title
;
Structure prediction by ZEFSAII (Michael W. Deem and Ramdas Pophale) SiO2 
 PCOD9546375
Probable space group: I 41/A
;
_chemical_formula_sum "Si O2"
_cell_formula_units_Z 40
_cell_length_a 7.136432
_cell_length_b 7.136432
_cell_length_c 31.944420
_cell_angle_alpha 90.000000
_cell_angle_beta 90.000000
_cell_angle_gamma 90.000000
_cell_volume 1626.886559
_symmetry_space_group_name_H-M "I 41/A"
_symmetry_group_IT_number 88
_space_group.IT_coordinate_system_code '2'
_symmetry_cell_setting 'tetragonal'
loop_
_space_group_symop_operation_xyz
x,y,z
3/4-y,1/4+x,1/4+z
-x,1/2-y,z
1/4+y,1/4-x,1/4+z
-x,-y,-z
1/4+y,3/4-x,3/4-z
x,1/2+y,-z
3/4-y,3/4+x,3/4-z
1/2+x,1/2+y,1/2+z
1/4-y,3/4+x,3/4+z
1/2-x,-y,1/2+z
3/4+y,3/4-x,3/4+z
1/2-x,1/2-y,1/2-z
3/4+y,1/4-x,1/4-z
1/2+x,y,1/2-z
1/4-y,1/4+x,1/4-z
loop_
_atom_site_type_symbol
_atom_site_label
_atom_site_fract_x
_atom_site_fract_y
_atom_site_fract_z
Si Si1 0.500000 0.250000 0.053306
Si Si2 0.824054 0.375349 0.212581
Si Si3 0.215060 0.878239 0.627369
O O1 0.329237 0.339257 0.027669
O O2 0.589954 0.401400 0.086159
O O3 0.750000 0.250000 0.250000
O O4 0.669301 0.409153 0.176256
O O5 0.000000 0.250000 0.195621
O O6 0.257621 0.656190 0.626845
#
# Coordination Sequence:
#
# PCOD9546375 Si02
#       3
#     8  16  16
#     4  10  20  38  70  94 132 197 247 292 380 466
#     4  11  23  40  63  98 142 185 237 315 386 443
#     4   9  16  37  62  85 124 179 232 289 361 435
#
# _framework density 24.586842999999998
#
# number of rings (size 3 to 8) (size 9 to 14) (size 15 to 20)
#    0.000    2.000    8.000    0.000    2.800    1.600 
#    0.000    0.000    0.000   19.200    0.000    0.000 
#    0.000    0.000    0.000    0.000    0.000    0.000 
#
# Total GULP energy -111349.733234 kJ/mol
# GULP energy per Si atom -5567.486662 kJ/mol
# Density = 2.453088 g / cm^3
# Si number density = 24.586843 Si / 1000 Ang^3
#
#
#
# Elastic Constant Matrix: (Units=GPa)
#
#
# Indices 1 2 3 4 5 6 
#
# 1 108.0325 25.3854 28.5157 0.0000 0.0000 -10.9882
# 2 25.3854 108.0325 28.5157 0.0000 0.0000 10.9882
# 3 28.5157 28.5157 124.6332 0.0000 0.0000 0.0000
# 4 0.0000 0.0000 0.0000 28.4888 0.0000 0.0000
# 5 0.0000 0.0000 0.0000 0.0000 28.4888 0.0000
# 6 -10.9882 10.9882 0.0000 0.0000 0.0000 26.4990
#
#
#
# Elastic Compliance Matrix: (Units=1/GPa)
#
#
# Indices 1 2 3 4 5 6 
#
# 1 0.010953 -0.002646 -0.001901 0.000000 0.000000 0.005639
# 2 -0.002646 0.010953 -0.001901 0.000000 0.000000 -0.005639
# 3 -0.001901 -0.001901 0.008893 0.000000 0.000000 0.000000
# 4 0.000000 0.000000 0.000000 0.035102 0.000000 0.000000
# 5 0.000000 0.000000 0.000000 0.000000 0.035102 0.000000
# 6 0.005639 -0.005639 0.000000 0.000000 0.000000 0.042414
#
#
# Mechanical properties :
#
#
# Convention : Reuss Voigt Hill
#
# Bulk Modulus (GPa) = 55.84813 56.17020 56.00917
# Shear Modulus (GPa) = 30.81090 33.91409 32.36249
#
# Velocity S-wave (km/s) = 3.54382 3.71800 3.63196
# Velocity P-wave (km/s) = 6.28561 6.42858 6.35749
#
# Compressibility (1/GPa) = 0.01790570
#
# Stress axis : x y z
#
# Youngs Moduli (GPa) = 91.29554 91.29554 112.44372
#
# Poissons Ratio (x) = 0.24154 0.21373
# Poissons Ratio (y) = 0.24154 0.21373
# Poissons Ratio (z) = 0.17353 0.17353
#
# Static dielectric constant tensor:
#      x y z
#    x 2.056220 0.000000 0.000000 
#    y 0.000000 2.056220 0.000000 
#    z 0.000000 0.000000 2.151210 
# 
# From -- ./inp_files/5526.got.cif
#   From: 2010.05.17/outbox.cif.g08.bks.cpg/sg88_3_cif.got.tgz:5526.got - 2010.06.03 19:11:41.
