data_PCOD9546607
_publ_section_title
;
Structure prediction by ZEFSAII (Michael W. Deem and Ramdas Pophale) SiO2 
 PCOD9546607
Probable space group: I 41/A
;
_chemical_formula_sum "Si O2"
_cell_formula_units_Z 112
_cell_length_a 28.597580
_cell_length_b 28.597580
_cell_length_c 6.424002
_cell_angle_alpha 90.000000
_cell_angle_beta 90.000000
_cell_angle_gamma 90.000000
_cell_volume 5253.687477
_symmetry_space_group_name_H-M "I 41/A"
_symmetry_group_IT_number 88
_space_group.IT_coordinate_system_code '2'
_symmetry_cell_setting 'tetragonal'
loop_
_space_group_symop_operation_xyz
x,y,z
3/4-y,1/4+x,1/4+z
-x,1/2-y,z
1/4+y,1/4-x,1/4+z
-x,-y,-z
1/4+y,3/4-x,3/4-z
x,1/2+y,-z
3/4-y,3/4+x,3/4-z
1/2+x,1/2+y,1/2+z
1/4-y,3/4+x,3/4+z
1/2-x,-y,1/2+z
3/4+y,3/4-x,3/4+z
1/2-x,1/2-y,1/2-z
3/4+y,1/4-x,1/4-z
1/2+x,y,1/2-z
1/4-y,1/4+x,1/4-z
loop_
_atom_site_type_symbol
_atom_site_label
_atom_site_fract_x
_atom_site_fract_y
_atom_site_fract_z
Si Si1 0.703876 0.197343 0.159417
Si Si2 0.178979 0.900073 0.891356
Si Si3 0.756970 0.382058 0.127746
Si Si4 0.970733 0.431305 0.627136
Si Si5 0.753399 0.352650 0.682693
Si Si6 0.430617 0.362649 0.527288
Si Si7 0.478052 0.121144 0.253398
O O1 0.745543 0.170625 0.278882
O O2 0.664042 0.202644 0.332650
O O3 0.707150 0.247103 0.048923
O O4 0.702836 0.165051 0.952090
O O5 0.209029 0.907051 0.680350
O O6 0.155728 0.947162 0.970243
O O7 0.142612 0.858591 0.846931
O O8 0.218910 0.884496 0.050054
O O9 0.768470 0.378342 0.888177
O O10 0.939616 0.469864 0.510380
O O11 0.001636 0.405836 0.448363
O O12 0.942862 0.391769 0.761402
O O13 0.477322 0.360095 0.384896
O O14 0.409094 0.311033 0.560777
#
# Coordination Sequence:
#
# PCOD9546607 Si02
#       7
#    16  16  16  16  16  16  16
#     4  10  23  37  66 100 132 172 216 278 342 393
#     4  11  24  46  67  96 136 179 225 279 340 402
#     4  11  24  44  67 100 137 177 228 280 335 407
#     4  11  23  40  68 100 135 175 223 283 343 408
#     4  11  23  41  68 101 135 176 222 284 342 407
#     4  11  24  45  68  95 135 176 227 280 340 406
#     4  11  24  44  67  98 135 180 227 283 337 410
#
# _framework density 21.318360999999999
#
# number of rings (size 3 to 8) (size 9 to 14) (size 15 to 20)
#    0.000    1.143    4.286    1.286    0.000    7.143 
#    2.571    0.000    0.000    0.000    0.000    0.000 
#    0.000    0.000    0.000    0.000    0.000    0.000 
#
# Total GULP energy -312307.067952 kJ/mol
# GULP energy per Si atom -5576.911928 kJ/mol
# Density = 2.126984 g / cm^3
# Si number density = 21.318361 Si / 1000 Ang^3
#
#
#
# Elastic Constant Matrix: (Units=GPa)
#
#
# Indices 1 2 3 4 5 6 
#
# 1 83.3009 60.0142 21.5951 0.0000 0.0000 -3.8417
# 2 60.0142 83.3009 21.5951 0.0000 0.0000 3.8417
# 3 21.5951 21.5951 77.5127 0.0000 0.0000 0.0000
# 4 0.0000 0.0000 0.0000 28.9909 0.0000 0.0000
# 5 0.0000 0.0000 0.0000 0.0000 28.9909 0.0000
# 6 -3.8417 3.8417 0.0000 0.0000 0.0000 50.4328
#
#
#
# Elastic Compliance Matrix: (Units=1/GPa)
#
#
# Indices 1 2 3 4 5 6 
#
# 1 0.025834 -0.018217 -0.002122 0.000000 0.000000 0.003356
# 2 -0.018217 0.025834 -0.002122 0.000000 0.000000 -0.003356
# 3 -0.002122 -0.002122 0.014084 0.000000 0.000000 0.000000
# 4 0.000000 0.000000 0.000000 0.034494 0.000000 0.000000
# 5 0.000000 0.000000 0.000000 0.000000 0.034494 0.000000
# 6 0.003356 -0.003356 0.000000 0.000000 0.000000 0.020340
#
#
# Mechanical properties :
#
#
# Convention : Reuss Voigt Hill
#
# Bulk Modulus (GPa) = 48.00927 50.05817 49.03372
# Shear Modulus (GPa) = 24.16129 31.07693 27.61911
#
# Velocity S-wave (km/s) = 3.37019 3.82220 3.60329
# Velocity P-wave (km/s) = 6.14111 6.55829 6.35313
#
# Compressibility (1/GPa) = 0.02082931
#
# Stress axis : x y z
#
# Youngs Moduli (GPa) = 38.70907 38.70907 71.00471
#
# Poissons Ratio (x) = 0.70515 0.15068
# Poissons Ratio (y) = 0.70515 0.15068
# Poissons Ratio (z) = 0.08215 0.08215
#
# Static dielectric constant tensor:
#      x y z
#    x 1.782010 0.000000 0.000000 
#    y 0.000000 1.782010 0.000000 
#    z 0.000000 0.000000 1.841400 
# 
# From -- ./inp_files/815.got.cif
#   From: 2010.05.17/outbox.cif.g08.bks.cpg/sg88_1_cif.got.tgz:815.got - 2010.06.03 19:11:41.
