data_PCOD9546737
_publ_section_title
;
Structure prediction by ZEFSAII (Michael W. Deem and Ramdas Pophale) SiO2 
 PCOD9546737
Probable space group: I 41/A
;
_chemical_formula_sum "Si O2"
_cell_formula_units_Z 36
_cell_length_a 7.707606
_cell_length_b 7.707606
_cell_length_c 28.923538
_cell_angle_alpha 90.000000
_cell_angle_beta 90.000000
_cell_angle_gamma 90.000000
_cell_volume 1718.266125
_symmetry_space_group_name_H-M "I 41/A"
_symmetry_group_IT_number 88
_space_group.IT_coordinate_system_code '2'
_symmetry_cell_setting 'tetragonal'
loop_
_space_group_symop_operation_xyz
x,y,z
3/4-y,1/4+x,1/4+z
-x,1/2-y,z
1/4+y,1/4-x,1/4+z
-x,-y,-z
1/4+y,3/4-x,3/4-z
x,1/2+y,-z
3/4-y,3/4+x,3/4-z
1/2+x,1/2+y,1/2+z
1/4-y,3/4+x,3/4+z
1/2-x,-y,1/2+z
3/4+y,3/4-x,3/4+z
1/2-x,1/2-y,1/2-z
3/4+y,1/4-x,1/4-z
1/2+x,y,1/2-z
1/4-y,1/4+x,1/4-z
loop_
_atom_site_type_symbol
_atom_site_label
_atom_site_fract_x
_atom_site_fract_y
_atom_site_fract_z
Si Si1 0.632890 0.618483 0.470190
Si Si2 0.500000 0.750000 0.625000
Si Si3 0.801149 0.286236 0.441444
O O1 0.500000 0.750000 0.445230
O O2 0.500000 0.500000 0.500000
O O3 0.749837 0.489399 0.440767
O O4 0.754077 0.717424 0.507098
O O5 0.450395 0.588307 0.657224
O O6 0.000000 0.250000 0.431007
#
# Coordination Sequence:
#
# PCOD9546737 Si02
#       3
#    16   4  16
#     4   9  17  37  65  88 113 156 215 267 310 375
#     4  12  24  40  56  92 144 168 204 272 348 380
#     4  11  22  39  64  91 123 171 218 266 324 390
#
# _framework density 20.951350000000001
#
# number of rings (size 3 to 8) (size 9 to 14) (size 15 to 20)
#    0.000    1.778    6.667    1.333    0.000    1.778 
#    0.000    0.000    0.000    0.000    0.000    0.000 
#    0.000    0.000    0.000    0.000    0.000    0.000 
#
# Total GULP energy -100404.645197 kJ/mol
# GULP energy per Si atom -5578.035844 kJ/mol
# Density = 2.090366 g / cm^3
# Si number density = 20.951350 Si / 1000 Ang^3
#
#
#
# Elastic Constant Matrix: (Units=GPa)
#
#
# Indices 1 2 3 4 5 6 
#
# 1 136.0882 33.9609 14.8114 0.0000 0.0000 -0.3906
# 2 33.9609 136.0882 14.8114 0.0000 0.0000 0.3906
# 3 14.8114 14.8114 46.2327 0.0000 0.0000 0.0000
# 4 0.0000 0.0000 0.0000 15.0777 0.0000 0.0000
# 5 0.0000 0.0000 0.0000 0.0000 15.0777 0.0000
# 6 -0.3906 0.3906 0.0000 0.0000 0.0000 39.2182
#
#
#
# Elastic Compliance Matrix: (Units=1/GPa)
#
#
# Indices 1 2 3 4 5 6 
#
# 1 0.008010 -0.001782 -0.001995 0.000000 0.000000 0.000098
# 2 -0.001782 0.008010 -0.001995 0.000000 0.000000 -0.000098
# 3 -0.001995 -0.001995 0.022908 0.000000 0.000000 0.000000
# 4 0.000000 0.000000 0.000000 0.066323 0.000000 0.000000
# 5 0.000000 0.000000 0.000000 0.000000 0.066323 0.000000
# 6 0.000098 -0.000098 0.000000 0.000000 0.000000 0.025500
#
#
# Mechanical properties :
#
#
# Convention : Reuss Voigt Hill
#
# Bulk Modulus (GPa) = 36.51850 49.50850 43.01350
# Shear Modulus (GPa) = 22.96225 30.86307 26.91266
#
# Velocity S-wave (km/s) = 3.31415 3.84224 3.58792
# Velocity P-wave (km/s) = 5.66681 6.58523 6.14321
#
# Compressibility (1/GPa) = 0.02738338
#
# Stress axis : x y z
#
# Youngs Moduli (GPa) = 124.83853 124.83853 43.65251
#
# Poissons Ratio (x) = 0.22247 0.08710
# Poissons Ratio (y) = 0.22247 0.08710
# Poissons Ratio (z) = 0.24909 0.24909
#
# Static dielectric constant tensor:
#      x y z
#    x 1.788820 0.000000 0.000000 
#    y 0.000000 1.788820 0.000000 
#    z 0.000000 0.000000 1.767980 
# 
# From -- ./inp_files/4914.got.cif
#   From: 2010.05.17/outbox.cif.g08.bks.cpg/sg88_3_cif.got.tgz:4914.got - 2010.06.03 19:11:41.
