data_PCOD9546895
_publ_section_title
;
Structure prediction by ZEFSAII (Michael W. Deem and Ramdas Pophale) SiO2 
 PCOD9546895
Probable space group: P 4 2 2
;
_chemical_formula_sum "Si O2"
_cell_formula_units_Z 48
_cell_length_a 15.348988
_cell_length_b 15.348988
_cell_length_c 14.003870
_cell_angle_alpha 90.000000
_cell_angle_beta 90.000000
_cell_angle_gamma 90.000000
_cell_volume 3299.191796
_symmetry_space_group_name_H-M "P 4 2 2"
_symmetry_group_IT_number 89
_symmetry_cell_setting 'tetragonal'
loop_
_space_group_symop_operation_xyz
x,y,z
-y,x,z
-x,-y,z
y,-x,z
x,-y,-z
-x,y,-z
y,x,-z
-y,-x,-z
loop_
_atom_site_type_symbol
_atom_site_label
_atom_site_fract_x
_atom_site_fract_y
_atom_site_fract_z
Si Si1 0.193713 0.825050 0.116458
Si Si2 0.516773 0.259107 0.800792
Si Si3 0.316565 0.663079 0.886640
Si Si4 0.647133 0.500286 0.609393
Si Si5 0.552833 0.080099 0.898657
Si Si6 0.984369 0.246766 0.106362
O O1 0.260596 0.749275 0.144836
O O2 0.095952 0.805312 0.152462
O O3 0.233011 0.918562 0.147181
O O4 0.185460 0.814541 0.000000
O O5 0.428429 0.276417 0.857910
O O6 0.590925 0.324803 0.836856
O O7 0.501701 0.279044 0.689683
O O8 0.548487 0.164289 0.833057
O O9 0.329154 0.670847 0.000000
O O10 0.583493 0.583945 0.621382
O O11 0.678901 0.500000 0.500000
O O12 0.653298 0.049070 0.907624
O O13 0.500000 0.000000 0.854530
O O14 0.500000 0.096578 0.000000
O O15 0.000000 0.210445 0.000000
#
# Coordination Sequence:
#
# PCOD9546895 Si02
#       6
#     8   8   8   8   8   8
#     4   9  19  30  45  61  89 123 168 209 239 272
#     4  12  21  31  49  71  95 127 166 204 241 290
#     4  11  21  31  41  67 103 134 158 193 239 287
#     4   9  18  35  53  68  91 124 163 210 253 297
#     4  11  20  31  48  66  98 138 173 190 228 305
#     4  10  17  31  44  62  86 125 168 210 238 271
#
# _framework density 14.549018
#
# number of rings (size 3 to 8) (size 9 to 14) (size 15 to 20)
#    0.000    1.667    5.000    3.000    2.333    0.667 
#    0.000    2.500    0.000    0.500    0.000    0.000 
#    0.000    0.000    0.000    0.000    0.000    0.000 
#
# Total GULP energy -267230.258648 kJ/mol
# GULP energy per Si atom -5567.297055 kJ/mol
# Density = 1.451590 g / cm^3
# Si number density = 14.549018 Si / 1000 Ang^3
#
#
#
# Elastic Constant Matrix: (Units=GPa)
#
#
# Indices 1 2 3 4 5 6 
#
# 1 90.2519 24.1506 23.8965 0.0000 0.0000 0.0000
# 2 24.1506 90.2520 23.8964 0.0000 0.0000 0.0000
# 3 23.8965 23.8964 62.3415 0.0000 0.0000 0.0000
# 4 0.0000 0.0000 0.0000 7.6884 0.0000 0.0000
# 5 0.0000 0.0000 0.0000 0.0000 7.6884 0.0000
# 6 0.0000 0.0000 0.0000 0.0000 0.0000 30.9548
#
#
#
# Elastic Compliance Matrix: (Units=1/GPa)
#
#
# Indices 1 2 3 4 5 6 
#
# 1 0.012768 -0.002360 -0.003989 0.000000 0.000000 0.000000
# 2 -0.002360 0.012768 -0.003989 0.000000 0.000000 0.000000
# 3 -0.003989 -0.003989 0.019099 0.000000 0.000000 0.000000
# 4 0.000000 0.000000 0.000000 0.130066 0.000000 0.000000
# 5 0.000000 0.000000 0.000000 0.000000 0.130066 0.000000
# 6 0.000000 0.000000 0.000000 0.000000 0.000000 0.032305
#
#
# Mechanical properties :
#
#
# Convention : Reuss Voigt Hill
#
# Bulk Modulus (GPa) = 41.74185 42.97027 42.35606
# Shear Modulus (GPa) = 13.67106 20.65978 17.16542
#
# Velocity S-wave (km/s) = 3.06871 3.77239 3.43860
# Velocity P-wave (km/s) = 6.42719 6.96947 6.70381
#
# Compressibility (1/GPa) = 0.02395677
#
# Stress axis : x y z
#
# Youngs Moduli (GPa) = 78.32078 78.32094 52.35846
#
# Poissons Ratio (x) = 0.18486 0.20888
# Poissons Ratio (y) = 0.18486 0.20888
# Poissons Ratio (z) = 0.31246 0.31246
#
# Static dielectric constant tensor:
#      x y z
#    x 1.513320 0.000000 0.000000 
#    y 0.000000 1.513320 0.000000 
#    z 0.000000 0.000000 1.343460 
# 
# From -- ./inp_files/1770.got.cif
#   From: 2010.05.17/outbox.cif.g08.bks.cpg/sg89_1_cif.got.tgz:1770.got - 2010.06.03 19:15:31.
