data_PCOD9546747
_publ_section_title
;
Structure prediction by ZEFSAII (Michael W. Deem and Ramdas Pophale) SiO2 
 PCOD9546747
Probable space group: I 41/A
;
_chemical_formula_sum "Si O2"
_cell_formula_units_Z 56
_cell_length_a 9.184259
_cell_length_b 9.184259
_cell_length_c 23.649757
_cell_angle_alpha 90.000000
_cell_angle_beta 90.000000
_cell_angle_gamma 90.000000
_cell_volume 1994.871509
_symmetry_space_group_name_H-M "I 41/A"
_symmetry_group_IT_number 88
_space_group.IT_coordinate_system_code '2'
_symmetry_cell_setting 'tetragonal'
loop_
_space_group_symop_operation_xyz
x,y,z
3/4-y,1/4+x,1/4+z
-x,1/2-y,z
1/4+y,1/4-x,1/4+z
-x,-y,-z
1/4+y,3/4-x,3/4-z
x,1/2+y,-z
3/4-y,3/4+x,3/4-z
1/2+x,1/2+y,1/2+z
1/4-y,3/4+x,3/4+z
1/2-x,-y,1/2+z
3/4+y,3/4-x,3/4+z
1/2-x,1/2-y,1/2-z
3/4+y,1/4-x,1/4-z
1/2+x,y,1/2-z
1/4-y,1/4+x,1/4-z
loop_
_atom_site_type_symbol
_atom_site_label
_atom_site_fract_x
_atom_site_fract_y
_atom_site_fract_z
Si Si1 0.339640 0.095114 0.398913
Si Si2 0.500000 0.250000 0.144858
Si Si3 0.222876 0.647452 0.184681
Si Si4 0.258096 0.768748 0.013208
O O1 0.306709 0.239317 0.361411
O O2 0.315160 0.136871 0.462854
O O3 0.265086 0.963218 0.367811
O O4 0.524577 0.124294 0.093272
O O5 0.484042 0.120859 0.192903
O O6 0.383194 0.637563 0.210187
O O7 0.122520 0.571054 0.232157
#
# Coordination Sequence:
#
# PCOD9546747 Si02
#       4
#    16   8  16  16
#     4   9  17  32  59  95 126 158 210 273 341 407
#     4  12  26  42  67 100 137 182 236 286 346 422
#     4  11  24  40  64  98 135 179 231 283 346 416
#     4  11  22  41  68  97 137 177 223 291 350 407
#
# _framework density 28.071981999999998
#
# number of rings (size 3 to 8) (size 9 to 14) (size 15 to 20)
#    0.000    1.429    0.000    8.571    0.000    4.571 
#    0.000    0.000    0.000    0.000    0.000    0.000 
#    0.000    0.000    0.000    0.000    0.000    0.000 
#
# Total GULP energy -155907.761297 kJ/mol
# GULP energy per Si atom -5568.134332 kJ/mol
# Density = 2.800809 g / cm^3
# Si number density = 28.071982 Si / 1000 Ang^3
#
#
#
# Elastic Constant Matrix: (Units=GPa)
#
#
# Indices 1 2 3 4 5 6 
#
# 1 159.2150 5.7636 66.1019 0.0000 0.0000 -19.9034
# 2 5.7636 159.2150 66.1019 0.0000 0.0000 19.9034
# 3 66.1019 66.1019 191.8067 0.0000 0.0000 0.0000
# 4 0.0000 0.0000 0.0000 70.8667 0.0000 0.0000
# 5 0.0000 0.0000 0.0000 0.0000 70.8667 0.0000
# 6 -19.9034 19.9034 0.0000 0.0000 0.0000 34.3161
#
#
#
# Elastic Compliance Matrix: (Units=1/GPa)
#
#
# Indices 1 2 3 4 5 6 
#
# 1 0.008022 0.000352 -0.002886 0.000000 0.000000 0.004449
# 2 0.000352 0.008022 -0.002886 0.000000 0.000000 -0.004449
# 3 -0.002886 -0.002886 0.007203 0.000000 0.000000 0.000000
# 4 0.000000 0.000000 0.000000 0.014111 0.000000 0.000000
# 5 0.000000 0.000000 0.000000 0.000000 0.014111 0.000000
# 6 0.004449 -0.004449 0.000000 0.000000 0.000000 0.034302
#
#
# Mechanical properties :
#
#
# Convention : Reuss Voigt Hill
#
# Bulk Modulus (GPa) = 80.59934 87.35237 83.97586
# Shear Modulus (GPa) = 49.62898 60.02785 54.82841
#
# Velocity S-wave (km/s) = 4.20922 4.62925 4.42422
# Velocity P-wave (km/s) = 7.23861 7.73034 7.48851
#
# Compressibility (1/GPa) = 0.01240705
#
# Stress axis : x y z
#
# Youngs Moduli (GPa) = 124.65066 124.65066 138.83671
#
# Poissons Ratio (x) = -0.04382 0.40067
# Poissons Ratio (y) = -0.04382 0.40067
# Poissons Ratio (z) = 0.35973 0.35973
#
# Static dielectric constant tensor:
#      x y z
#    x 2.881770 0.000000 0.000000 
#    y 0.000000 2.881770 0.000000 
#    z 0.000000 0.000000 1.977590 
# 
# From -- ./inp_files/4310.got.cif
#   From: 2010.05.17/outbox.cif.g08.bks.cpg/sg88_3_cif.got.tgz:4310.got - 2010.06.03 19:11:41.
