data_PCOD9546515
_publ_section_title
;
Structure prediction by ZEFSAII (Michael W. Deem and Ramdas Pophale) SiO2 
 PCOD9546515
Probable space group: I 41/A
;
_chemical_formula_sum "Si O2"
_cell_formula_units_Z 72
_cell_length_a 14.157642
_cell_length_b 14.157642
_cell_length_c 18.786768
_cell_angle_alpha 90.000000
_cell_angle_beta 90.000000
_cell_angle_gamma 90.000000
_cell_volume 3765.597741
_symmetry_space_group_name_H-M "I 41/A"
_symmetry_group_IT_number 88
_space_group.IT_coordinate_system_code '2'
_symmetry_cell_setting 'tetragonal'
loop_
_space_group_symop_operation_xyz
x,y,z
3/4-y,1/4+x,1/4+z
-x,1/2-y,z
1/4+y,1/4-x,1/4+z
-x,-y,-z
1/4+y,3/4-x,3/4-z
x,1/2+y,-z
3/4-y,3/4+x,3/4-z
1/2+x,1/2+y,1/2+z
1/4-y,3/4+x,3/4+z
1/2-x,-y,1/2+z
3/4+y,3/4-x,3/4+z
1/2-x,1/2-y,1/2-z
3/4+y,1/4-x,1/4-z
1/2+x,y,1/2-z
1/4-y,1/4+x,1/4-z
loop_
_atom_site_type_symbol
_atom_site_label
_atom_site_fract_x
_atom_site_fract_y
_atom_site_fract_z
Si Si1 0.936128 0.474914 0.568393
Si Si2 0.531756 0.881538 0.662296
Si Si3 0.426248 0.402521 0.651313
Si Si4 0.000000 0.750000 0.042300
Si Si5 0.525168 0.861961 0.200236
O O1 0.884696 0.568795 0.595080
O O2 0.872644 0.387083 0.542960
O O3 0.000000 0.500000 0.500000
O O4 0.990424 0.426195 0.634738
O O5 0.611301 0.807520 0.638073
O O6 0.500435 0.842688 0.740464
O O7 0.567709 0.985224 0.645805
O O8 0.483821 0.340777 0.593267
O O9 0.472231 0.386530 0.728092
O O10 0.500000 0.750000 0.193285
#
# Coordination Sequence:
#
# PCOD9546515 Si02
#       5
#    16  16  16   8  16
#     4  12  22  39  67  93 136 185 220 274 353 403
#     4   9  23  47  68  96 138 176 226 295 343 401
#     4  12  23  42  68 104 127 185 232 268 353 429
#     4  10  21  44  70  93 142 176 216 292 338 403
#     4  12  22  43  62  95 148 173 217 299 336 402
#
# _framework density 19.120469
#
# number of rings (size 3 to 8) (size 9 to 14) (size 15 to 20)
#    0.000    1.111    5.556    1.333    0.000    3.556 
#   20.000    0.000    0.000    0.000    0.000    0.000 
#    0.000    0.000    0.000    0.000    0.000    0.000 
#
# Total GULP energy -200574.897941 kJ/mol
# GULP energy per Si atom -5571.524943 kJ/mol
# Density = 1.907695 g / cm^3
# Si number density = 19.120469 Si / 1000 Ang^3
#
#
#
# Elastic Constant Matrix: (Units=GPa)
#
#
# Indices 1 2 3 4 5 6 
#
# 1 139.4508 66.1021 49.7913 0.0000 0.0000 -7.5890
# 2 66.1021 139.4507 49.7913 0.0000 0.0000 7.5890
# 3 49.7913 49.7913 113.2693 0.0000 0.0000 0.0000
# 4 0.0000 0.0000 0.0000 20.4260 0.0000 0.0000
# 5 0.0000 0.0000 0.0000 0.0000 20.4260 0.0000
# 6 -7.5890 7.5890 0.0000 0.0000 0.0000 27.0993
#
#
#
# Elastic Compliance Matrix: (Units=1/GPa)
#
#
# Indices 1 2 3 4 5 6 
#
# 1 0.010327 -0.004145 -0.002717 0.000000 0.000000 0.004053
# 2 -0.004145 0.010327 -0.002717 0.000000 0.000000 -0.004053
# 3 -0.002717 -0.002717 0.011217 0.000000 0.000000 0.000000
# 4 0.000000 0.000000 0.000000 0.048957 0.000000 0.000000
# 5 0.000000 0.000000 0.000000 0.000000 0.048957 0.000000
# 6 0.004053 -0.004053 0.000000 0.000000 0.000000 0.039171
#
#
# Mechanical properties :
#
#
# Convention : Reuss Voigt Hill
#
# Bulk Modulus (GPa) = 78.67074 80.39336 79.53205
# Shear Modulus (GPa) = 25.99386 28.68934 27.34160
#
# Velocity S-wave (km/s) = 3.69111 3.87777 3.78559
# Velocity P-wave (km/s) = 7.70713 7.88584 7.79699
#
# Compressibility (1/GPa) = 0.01271121
#
# Stress axis : x y z
#
# Youngs Moduli (GPa) = 96.83601 96.83601 89.14726
#
# Poissons Ratio (x) = 0.40143 0.24223
# Poissons Ratio (y) = 0.40143 0.24223
# Poissons Ratio (z) = 0.26312 0.26312
#
# Static dielectric constant tensor:
#      x y z
#    x 1.825580 0.000000 0.000000 
#    y 0.000000 1.825580 0.000000 
#    z 0.000000 0.000000 1.721680 
# 
# From -- ./inp_files/3817.got.cif
#   From: 2010.05.17/outbox.cif.g08.bks.cpg/sg88_2_cif.got.tgz:3817.got - 2010.06.03 19:11:41.
