data_PCOD9546008
_publ_section_title
;
Structure prediction by ZEFSAII (Michael W. Deem and Ramdas Pophale) SiO2 
 PCOD9546008
Probable space group: I 4/M
;
_chemical_formula_sum "Si O2"
_cell_formula_units_Z 64
_cell_length_a 11.423799
_cell_length_b 11.423799
_cell_length_c 23.677804
_cell_angle_alpha 90.000000
_cell_angle_beta 90.000000
_cell_angle_gamma 90.000000
_cell_volume 3090.028802
_symmetry_space_group_name_H-M "I 4/M"
_symmetry_group_IT_number 87
_symmetry_cell_setting 'tetragonal'
loop_
_space_group_symop_operation_xyz
x,y,z
-y,x,z
-x,-y,z
y,-x,z
-x,-y,-z
y,-x,-z
x,y,-z
-y,x,-z
1/2+x,1/2+y,1/2+z
1/2-y,1/2+x,1/2+z
1/2-x,1/2-y,1/2+z
1/2+y,1/2-x,1/2+z
1/2-x,1/2-y,1/2-z
1/2+y,1/2-x,1/2-z
1/2+x,1/2+y,1/2-z
1/2-y,1/2+x,1/2-z
loop_
_atom_site_type_symbol
_atom_site_label
_atom_site_fract_x
_atom_site_fract_y
_atom_site_fract_z
Si Si1 0.166097 0.402263 0.764017
Si Si2 0.662785 0.610141 0.335165
Si Si3 0.389638 0.066180 0.383437
Si Si4 0.668373 0.892719 0.064511
O O1 0.042698 0.345619 0.745790
O O2 0.268075 0.361636 0.722073
O O3 0.183057 0.384078 0.831500
O O4 0.531262 0.654874 0.336816
O O5 0.736845 0.646009 0.390042
O O6 0.466688 0.147413 0.424729
O O7 0.500000 0.000000 0.352120
O O8 0.337691 0.958549 0.419053
O O9 0.698592 0.870772 0.000000
#
# Coordination Sequence:
#
# PCOD9546008 Si02
#       4
#    16  16  16  16
#     4  11  14  32  55  74  91 117 158 207 253 297
#     4  11  24  35  43  67 104 137 168 199 237 293
#     4   8  14  27  51  78  96 104 153 214 247 272
#     4   9  16  31  51  69  95 133 163 191 236 281
#
# _framework density 20.711781999999999
#
# number of rings (size 3 to 8) (size 9 to 14) (size 15 to 20)
#    1.500    0.500    7.500    1.500    0.000    2.000 
#    0.000    1.250    0.000    0.000    0.000    0.000 
#    0.000    0.000    0.000   11.000    0.000    0.000 
#
# Total GULP energy -178220.215246 kJ/mol
# GULP energy per Si atom -5569.381726 kJ/mol
# Density = 2.066464 g / cm^3
# Si number density = 20.711782 Si / 1000 Ang^3
#
#
#
# Elastic Constant Matrix: (Units=GPa)
#
#
# Indices 1 2 3 4 5 6 
#
# 1 57.5845 0.3728 29.4967 0.0000 0.0000 -6.9029
# 2 0.3728 57.5845 29.4967 0.0000 0.0000 6.9029
# 3 29.4967 29.4967 156.8615 0.0000 0.0000 0.0000
# 4 0.0000 0.0000 0.0000 16.0773 0.0000 0.0000
# 5 0.0000 0.0000 0.0000 0.0000 16.0773 0.0000
# 6 -6.9029 6.9029 0.0000 0.0000 0.0000 16.6437
#
#
#
# Elastic Compliance Matrix: (Units=1/GPa)
#
#
# Indices 1 2 3 4 5 6 
#
# 1 0.020381 0.000958 -0.004013 0.000000 0.000000 0.008056
# 2 0.000958 0.020381 -0.004013 0.000000 0.000000 -0.008056
# 3 -0.004013 -0.004013 0.007884 0.000000 0.000000 0.000000
# 4 0.000000 0.000000 0.000000 0.062199 0.000000 0.000000
# 5 0.000000 0.000000 0.000000 0.000000 0.062199 0.000000
# 6 0.008056 -0.008056 0.000000 0.000000 0.000000 0.066765
#
#
# Mechanical properties :
#
#
# Convention : Reuss Voigt Hill
#
# Bulk Modulus (GPa) = 28.97655 43.41810 36.19733
# Shear Modulus (GPa) = 18.83615 23.93729 21.38672
#
# Velocity S-wave (km/s) = 3.01897 3.40330 3.21688
# Velocity P-wave (km/s) = 5.11595 6.03753 5.59574
#
# Compressibility (1/GPa) = 0.03451066
#
# Stress axis : x y z
#
# Youngs Moduli (GPa) = 49.06634 49.06634 126.83758
#
# Poissons Ratio (x) = -0.04699 0.50894
# Poissons Ratio (y) = -0.04699 0.50894
# Poissons Ratio (z) = 0.19688 0.19688
#
# Static dielectric constant tensor:
#      x y z
#    x 1.802420 0.000000 0.000000 
#    y 0.000000 1.802420 0.000000 
#    z 0.000000 0.000000 1.733340 
# 
# From -- ./inp_files/4982.got.cif
#   From: 2010.05.17/outbox.cif.g08.bks.cpg/sg87_3_cif.got.tgz:4982.got - 2010.06.03 19:07:00.
