data_PCOD9546878
_publ_section_title
;
Structure prediction by ZEFSAII (Michael W. Deem and Ramdas Pophale) SiO2 
 PCOD9546878
Probable space group: I 41/A
;
_chemical_formula_sum "Si O2"
_cell_formula_units_Z 32
_cell_length_a 12.517565
_cell_length_b 12.517565
_cell_length_c 7.293533
_cell_angle_alpha 90.000000
_cell_angle_beta 90.000000
_cell_angle_gamma 90.000000
_cell_volume 1142.819554
_symmetry_space_group_name_H-M "I 41/A"
_symmetry_group_IT_number 88
_space_group.IT_coordinate_system_code '2'
_symmetry_cell_setting 'tetragonal'
loop_
_space_group_symop_operation_xyz
x,y,z
3/4-y,1/4+x,1/4+z
-x,1/2-y,z
1/4+y,1/4-x,1/4+z
-x,-y,-z
1/4+y,3/4-x,3/4-z
x,1/2+y,-z
3/4-y,3/4+x,3/4-z
1/2+x,1/2+y,1/2+z
1/4-y,3/4+x,3/4+z
1/2-x,-y,1/2+z
3/4+y,3/4-x,3/4+z
1/2-x,1/2-y,1/2-z
3/4+y,1/4-x,1/4-z
1/2+x,y,1/2-z
1/4-y,1/4+x,1/4-z
loop_
_atom_site_type_symbol
_atom_site_label
_atom_site_fract_x
_atom_site_fract_y
_atom_site_fract_z
Si Si1 0.928220 0.840951 0.515786
Si Si2 0.876025 0.013065 0.046636
O O1 0.013977 0.889481 0.374135
O O2 0.856436 0.905775 0.651769
O O3 0.000000 0.750000 0.620459
O O4 0.841168 0.059016 0.241487
O O5 0.000000 0.000000 0.000000
#
# Coordination Sequence:
#
# PCOD9546878 Si02
#       2
#    16  16
#     4   6  18  40  71  94 138 194 236 304 367 441
#     4  12  30  45  76 112 157 200 267 316 399 465
#
# _framework density 28.000917999999999
#
# number of rings (size 3 to 8) (size 9 to 14) (size 15 to 20)
#    3.000    0.000    0.000    0.000   14.000    2.000 
#    0.000    0.000    0.000    0.000    0.000    0.000 
#    0.000    0.000    0.000    0.000    0.000    0.000 
#
# Total GULP energy -89226.884777 kJ/mol
# GULP energy per Si atom -5576.680299 kJ/mol
# Density = 2.793719 g / cm^3
# Si number density = 28.000918 Si / 1000 Ang^3
#
#
#
# Elastic Constant Matrix: (Units=GPa)
#
#
# Indices 1 2 3 4 5 6 
#
# 1 113.7384 50.9396 17.2855 0.0000 0.0000 -24.5984
# 2 50.9396 113.7384 17.2855 0.0000 0.0000 24.5984
# 3 17.2855 17.2855 59.3986 0.0000 0.0000 0.0000
# 4 0.0000 0.0000 0.0000 48.3942 0.0000 0.0000
# 5 0.0000 0.0000 0.0000 0.0000 48.3942 0.0000
# 6 -24.5984 24.5984 0.0000 0.0000 0.0000 62.9285
#
#
#
# Elastic Compliance Matrix: (Units=1/GPa)
#
#
# Indices 1 2 3 4 5 6 
#
# 1 0.014710 -0.008243 -0.001882 0.000000 0.000000 0.008972
# 2 -0.008243 0.014710 -0.001882 0.000000 0.000000 -0.008972
# 3 -0.001882 -0.001882 0.017931 0.000000 0.000000 0.000000
# 4 0.000000 0.000000 0.000000 0.020664 0.000000 0.000000
# 5 0.000000 0.000000 0.000000 0.000000 0.020664 0.000000
# 6 0.008972 -0.008972 0.000000 0.000000 0.000000 0.022905
#
#
# Mechanical properties :
#
#
# Convention : Reuss Voigt Hill
#
# Bulk Modulus (GPa) = 42.84950 50.87742 46.86346
# Shear Modulus (GPa) = 34.87327 45.36770 40.12048
#
# Velocity S-wave (km/s) = 3.53290 4.02956 3.78938
# Velocity P-wave (km/s) = 5.65490 6.31342 5.99321
#
# Compressibility (1/GPa) = 0.02333749
#
# Stress axis : x y z
#
# Youngs Moduli (GPa) = 67.98051 67.98051 55.76983
#
# Poissons Ratio (x) = 0.56033 0.10497
# Poissons Ratio (y) = 0.56033 0.10497
# Poissons Ratio (z) = 0.12795 0.12795
#
# Static dielectric constant tensor:
#      x y z
#    x 2.275820 0.000000 0.000000 
#    y 0.000000 2.275820 0.000000 
#    z 0.000000 0.000000 2.231200 
# 
# From -- ./inp_files/932.got.cif
#   From: 2010.05.17/outbox.cif.g08.bks.cpg/sg88_1_cif.got.tgz:932.got - 2010.06.03 19:11:41.
