data_PCOD9546439
_publ_section_title
;
Structure prediction by ZEFSAII (Michael W. Deem and Ramdas Pophale) SiO2 
 PCOD9546439
Probable space group: I 41/A
;
_chemical_formula_sum "Si O2"
_cell_formula_units_Z 64
_cell_length_a 25.186964
_cell_length_b 25.186964
_cell_length_c 4.987445
_cell_angle_alpha 90.000000
_cell_angle_beta 90.000000
_cell_angle_gamma 90.000000
_cell_volume 3163.951097
_symmetry_space_group_name_H-M "I 41/A"
_symmetry_group_IT_number 88
_space_group.IT_coordinate_system_code '2'
_symmetry_cell_setting 'tetragonal'
loop_
_space_group_symop_operation_xyz
x,y,z
3/4-y,1/4+x,1/4+z
-x,1/2-y,z
1/4+y,1/4-x,1/4+z
-x,-y,-z
1/4+y,3/4-x,3/4-z
x,1/2+y,-z
3/4-y,3/4+x,3/4-z
1/2+x,1/2+y,1/2+z
1/4-y,3/4+x,3/4+z
1/2-x,-y,1/2+z
3/4+y,3/4-x,3/4+z
1/2-x,1/2-y,1/2-z
3/4+y,1/4-x,1/4-z
1/2+x,y,1/2-z
1/4-y,1/4+x,1/4-z
loop_
_atom_site_type_symbol
_atom_site_label
_atom_site_fract_x
_atom_site_fract_y
_atom_site_fract_z
Si Si1 0.596440 0.869297 0.043670
Si Si2 0.223257 0.686230 0.539045
Si Si3 0.042991 0.325135 0.059971
Si Si4 0.706081 0.807946 0.026840
O O1 0.600865 0.927462 0.172199
O O2 0.562333 0.835921 0.260359
O O3 0.652567 0.840996 0.003450
O O4 0.564876 0.869462 0.763639
O O5 0.271269 0.689381 0.326519
O O6 0.198611 0.745833 0.547455
O O7 0.248762 0.672075 0.822243
O O8 0.068412 0.269801 0.161890
#
# Coordination Sequence:
#
# PCOD9546439 Si02
#       4
#    16  16  16  16
#     4  12  22  37  60  82 113 156 197 238 295 350
#     4  10  21  37  57  83 114 148 190 237 284 340
#     4  11  22  34  52  84 121 152 185 228 287 364
#     4  10  21  37  57  83 114 148 190 237 284 340
#
# _framework density 20.227871
#
# number of rings (size 3 to 8) (size 9 to 14) (size 15 to 20)
#    0.000    1.250    0.000    7.500    0.000    6.000 
#    0.000    0.000    0.000    3.000    0.000    0.000 
#    0.000    0.000    0.000    0.000    0.000    0.000 
#
# Total GULP energy -179078.345162 kJ/mol
# GULP energy per Si atom -5596.198286 kJ/mol
# Density = 2.018183 g / cm^3
# Si number density = 20.227871 Si / 1000 Ang^3
#
#
#
# Elastic Constant Matrix: (Units=GPa)
#
#
# Indices 1 2 3 4 5 6 
#
# 1 59.1090 16.9981 5.2885 0.0000 0.0000 -4.6289
# 2 16.9981 59.1090 5.2885 0.0000 0.0000 4.6289
# 3 5.2885 5.2885 77.1513 0.0000 0.0000 0.0000
# 4 0.0000 0.0000 0.0000 28.4152 0.0000 0.0000
# 5 0.0000 0.0000 0.0000 0.0000 28.4152 0.0000
# 6 -4.6289 4.6289 0.0000 0.0000 0.0000 28.1104
#
#
#
# Elastic Compliance Matrix: (Units=1/GPa)
#
#
# Indices 1 2 3 4 5 6 
#
# 1 0.018952 -0.005687 -0.000909 0.000000 0.000000 0.004057
# 2 -0.005687 0.018952 -0.000909 0.000000 0.000000 -0.004057
# 3 -0.000909 -0.000909 0.013086 0.000000 0.000000 0.000000
# 4 0.000000 0.000000 0.000000 0.035192 0.000000 0.000000
# 5 0.000000 0.000000 0.000000 0.000000 0.035192 0.000000
# 6 0.004057 -0.004057 0.000000 0.000000 0.000000 0.036910
#
#
# Mechanical properties :
#
#
# Convention : Reuss Voigt Hill
#
# Bulk Modulus (GPa) = 27.79291 27.83549 27.81420
# Shear Modulus (GPa) = 26.98477 28.17444 27.57961
#
# Velocity S-wave (km/s) = 3.65641 3.73614 3.69649
# Velocity P-wave (km/s) = 5.62099 5.69232 5.65677
#
# Compressibility (1/GPa) = 0.03598040
#
# Stress axis : x y z
#
# Youngs Moduli (GPa) = 52.76415 52.76415 76.41633
#
# Poissons Ratio (x) = 0.30004 0.06949
# Poissons Ratio (y) = 0.30004 0.06949
# Poissons Ratio (z) = 0.04798 0.04798
#
# Static dielectric constant tensor:
#      x y z
#    x 1.714900 0.000000 0.000000 
#    y 0.000000 1.714900 0.000000 
#    z 0.000000 0.000000 1.714510 
# 
# From -- ./inp_files/573.got.cif
#   From: 2010.05.17/outbox.cif.g08.bks.cpg/sg88_1_cif.got.tgz:573.got - 2010.06.03 19:11:41.
