data_PCOD9546199
_publ_section_title
;
Structure prediction by ZEFSAII (Michael W. Deem and Ramdas Pophale) SiO2 
 PCOD9546199
Probable space group: I 41/A
;
_chemical_formula_sum "Si O2"
_cell_formula_units_Z 108
_cell_length_a 14.701126
_cell_length_b 14.701126
_cell_length_c 20.518017
_cell_angle_alpha 90.000000
_cell_angle_beta 90.000000
_cell_angle_gamma 90.000000
_cell_volume 4434.417556
_symmetry_space_group_name_H-M "I 41/A"
_symmetry_group_IT_number 88
_space_group.IT_coordinate_system_code '2'
_symmetry_cell_setting 'tetragonal'
loop_
_space_group_symop_operation_xyz
x,y,z
3/4-y,1/4+x,1/4+z
-x,1/2-y,z
1/4+y,1/4-x,1/4+z
-x,-y,-z
1/4+y,3/4-x,3/4-z
x,1/2+y,-z
3/4-y,3/4+x,3/4-z
1/2+x,1/2+y,1/2+z
1/4-y,3/4+x,3/4+z
1/2-x,-y,1/2+z
3/4+y,3/4-x,3/4+z
1/2-x,1/2-y,1/2-z
3/4+y,1/4-x,1/4-z
1/2+x,y,1/2-z
1/4-y,1/4+x,1/4-z
loop_
_atom_site_type_symbol
_atom_site_label
_atom_site_fract_x
_atom_site_fract_y
_atom_site_fract_z
Si Si1 0.500000 0.250000 0.375000
Si Si2 0.734858 0.168542 0.622866
Si Si3 0.515530 0.359496 0.009116
Si Si4 0.649022 0.140330 0.088974
Si Si5 0.201851 0.768785 0.848469
Si Si6 0.000000 0.750000 0.677071
Si Si7 0.698886 0.642339 0.130692
Si Si8 0.660464 0.363534 0.226645
O O1 0.602160 0.226371 0.350814
O O2 0.654650 0.181418 0.677144
O O3 0.826811 0.125146 0.649136
O O4 0.764853 0.266805 0.596201
O O5 0.704787 0.105861 0.562719
O O6 0.500000 0.250000 0.002306
O O7 0.411766 0.383835 0.026794
O O8 0.565839 0.404205 0.947472
O O9 0.741126 0.198573 0.088608
O O10 0.575399 0.196049 0.134095
O O11 0.666790 0.040217 0.115198
O O12 0.267062 0.696555 0.812961
O O13 0.192033 0.856113 0.800521
O O14 0.060787 0.816399 0.720606
#
# Coordination Sequence:
#
# PCOD9546199 Si02
#       8
#     4  16  16  16  16   8  16  16
#     4  12  26  48  60 104 156 192 232 338 372 414
#     4  11  24  44  70 104 148 190 233 306 366 446
#     4  11  22  46  76 101 140 198 244 289 369 449
#     4  10  19  42  67 100 133 188 240 299 357 447
#     4  10  24  40  70  96 140 189 248 297 367 430
#     4  10  15  36  72  95 130 191 242 289 362 424
#     4  11  26  41  69 109 146 177 242 307 368 440
#     4  10  20  42  69 100 132 192 247 293 354 449
#
# _framework density 24.354944
#
# number of rings (size 3 to 8) (size 9 to 14) (size 15 to 20)
#    0.000    1.481    3.704    3.111    4.148    1.185 
#    2.667    0.000    0.000    0.000    0.000    0.000 
#    0.000    0.000    0.000    0.000    0.000    0.000 
#
# Total GULP energy -300636.712876 kJ/mol
# GULP energy per Si atom -5567.346535 kJ/mol
# Density = 2.429951 g / cm^3
# Si number density = 24.354944 Si / 1000 Ang^3
#
#
#
# Elastic Constant Matrix: (Units=GPa)
#
#
# Indices 1 2 3 4 5 6 
#
# 1 117.3886 18.2679 17.7570 0.0000 0.0000 1.8788
# 2 18.2679 117.3886 17.7570 0.0000 0.0000 -1.8788
# 3 17.7570 17.7570 49.5637 0.0000 0.0000 0.0000
# 4 0.0000 0.0000 0.0000 15.2223 0.0000 0.0000
# 5 0.0000 0.0000 0.0000 0.0000 15.2223 0.0000
# 6 1.8788 -1.8788 0.0000 0.0000 0.0000 53.1661
#
#
#
# Elastic Compliance Matrix: (Units=1/GPa)
#
#
# Indices 1 2 3 4 5 6 
#
# 1 0.009118 -0.000984 -0.002914 0.000000 0.000000 -0.000357
# 2 -0.000984 0.009118 -0.002914 0.000000 0.000000 0.000357
# 3 -0.002914 -0.002914 0.022264 0.000000 0.000000 0.000000
# 4 0.000000 0.000000 0.000000 0.065693 0.000000 0.000000
# 5 0.000000 0.000000 0.000000 0.000000 0.065693 0.000000
# 6 -0.000357 0.000357 0.000000 0.000000 0.000000 0.018834
#
#
# Mechanical properties :
#
#
# Convention : Reuss Voigt Hill
#
# Bulk Modulus (GPa) = 37.20794 43.54499 40.37647
# Shear Modulus (GPa) = 23.44059 32.09274 27.76666
#
# Velocity S-wave (km/s) = 3.10571 3.63396 3.38017
# Velocity P-wave (km/s) = 5.30765 5.96035 5.64344
#
# Compressibility (1/GPa) = 0.02687598
#
# Stress axis : x y z
#
# Youngs Moduli (GPa) = 109.66862 109.66862 44.91501
#
# Poissons Ratio (x) = 0.10790 0.13090
# Poissons Ratio (y) = 0.10790 0.13090
# Poissons Ratio (z) = 0.31961 0.31961
#
# Static dielectric constant tensor:
#      x y z
#    x 2.062940 0.000000 0.000000 
#    y 0.000000 2.062940 0.000000 
#    z 0.000000 0.000000 2.045060 
# 
# From -- ./inp_files/5395.got.cif
#   From: 2010.05.17/outbox.cif.g08.bks.cpg/sg88_3_cif.got.tgz:5395.got - 2010.06.03 19:11:41.
