data_PCOD9546835
_publ_section_title
;
Structure prediction by ZEFSAII (Michael W. Deem and Ramdas Pophale) SiO2 
 PCOD9546835
Probable space group: I 41/A
;
_chemical_formula_sum "Si O2"
_cell_formula_units_Z 88
_cell_length_a 11.727533
_cell_length_b 11.727533
_cell_length_c 28.287451
_cell_angle_alpha 90.000000
_cell_angle_beta 90.000000
_cell_angle_gamma 90.000000
_cell_volume 3890.515429
_symmetry_space_group_name_H-M "I 41/A"
_symmetry_group_IT_number 88
_space_group.IT_coordinate_system_code '2'
_symmetry_cell_setting 'tetragonal'
loop_
_space_group_symop_operation_xyz
x,y,z
3/4-y,1/4+x,1/4+z
-x,1/2-y,z
1/4+y,1/4-x,1/4+z
-x,-y,-z
1/4+y,3/4-x,3/4-z
x,1/2+y,-z
3/4-y,3/4+x,3/4-z
1/2+x,1/2+y,1/2+z
1/4-y,3/4+x,3/4+z
1/2-x,-y,1/2+z
3/4+y,3/4-x,3/4+z
1/2-x,1/2-y,1/2-z
3/4+y,1/4-x,1/4-z
1/2+x,y,1/2-z
1/4-y,1/4+x,1/4-z
loop_
_atom_site_type_symbol
_atom_site_label
_atom_site_fract_x
_atom_site_fract_y
_atom_site_fract_z
Si Si1 0.250756 0.211033 0.182040
Si Si2 0.076288 0.525232 0.594220
Si Si3 0.320083 0.597177 0.184620
Si Si4 0.304381 0.365176 0.424343
Si Si5 0.500000 0.750000 0.848800
Si Si6 0.377874 0.483093 0.275857
O O1 0.182125 0.328441 0.180728
O O2 0.220435 0.154446 0.131134
O O3 0.385894 0.231743 0.181582
O O4 0.205375 0.126005 0.222069
O O5 0.135978 0.451535 0.635001
O O6 0.020800 0.637384 0.619104
O O7 0.169903 0.570757 0.558141
O O8 0.981544 0.447606 0.568915
O O9 0.194866 0.545437 0.193907
O O10 0.396334 0.541269 0.225305
O O11 0.305233 0.245227 0.450434
#
# Coordination Sequence:
#
# PCOD9546835 Si02
#       6
#    16  16  16  16   8  16
#     4  12  22  42  75 105 150 199 251 317 386 457
#     4  12  23  49  72 101 154 199 250 321 385 456
#     4  12  27  46  73 110 147 203 258 312 389 462
#     4  12  22  44  73 107 147 198 250 314 387 454
#     4  12  20  42  78 100 142 212 246 310 392 450
#     4  12  26  44  73 114 149 198 259 314 388 469
#
# _framework density 22.619109999999999
#
# number of rings (size 3 to 8) (size 9 to 14) (size 15 to 20)
#    0.000    0.000    9.091    1.091    0.000    4.000 
#    3.273    3.636    0.000    0.000    0.000    0.000 
#    0.000    0.000    0.000    0.000    0.000    0.000 
#
# Total GULP energy -246622.656965 kJ/mol
# GULP energy per Si atom -5605.060386 kJ/mol
# Density = 2.256763 g / cm^3
# Si number density = 22.619110 Si / 1000 Ang^3
#
#
#
# Elastic Constant Matrix: (Units=GPa)
#
#
# Indices 1 2 3 4 5 6 
#
# 1 111.5042 36.5235 15.3708 0.0000 0.0000 0.9875
# 2 36.5235 111.5042 15.3708 0.0000 0.0000 -0.9875
# 3 15.3708 15.3708 65.4096 0.0000 0.0000 0.0000
# 4 0.0000 0.0000 0.0000 16.3877 0.0000 0.0000
# 5 0.0000 0.0000 0.0000 0.0000 16.3877 0.0000
# 6 0.9875 -0.9875 0.0000 0.0000 0.0000 30.1159
#
#
#
# Elastic Compliance Matrix: (Units=1/GPa)
#
#
# Indices 1 2 3 4 5 6 
#
# 1 0.010225 -0.003123 -0.001669 0.000000 0.000000 -0.000438
# 2 -0.003123 0.010225 -0.001669 0.000000 0.000000 0.000438
# 3 -0.001669 -0.001669 0.016073 0.000000 0.000000 0.000000
# 4 0.000000 0.000000 0.000000 0.061021 0.000000 0.000000
# 5 0.000000 0.000000 0.000000 0.000000 0.061021 0.000000
# 6 -0.000438 0.000438 0.000000 0.000000 0.000000 0.033234
#
#
# Mechanical properties :
#
#
# Convention : Reuss Voigt Hill
#
# Bulk Modulus (GPa) = 42.37098 46.99426 44.68262
# Shear Modulus (GPa) = 23.51962 27.32178 25.42070
#
# Velocity S-wave (km/s) = 3.22811 3.47927 3.35604
# Velocity P-wave (km/s) = 5.71553 6.07963 5.90039
#
# Compressibility (1/GPa) = 0.02360106
#
# Stress axis : x y z
#
# Youngs Moduli (GPa) = 97.79764 97.79764 62.21749
#
# Poissons Ratio (x) = 0.30543 0.10384
# Poissons Ratio (y) = 0.30543 0.10384
# Poissons Ratio (z) = 0.16322 0.16322
#
# Static dielectric constant tensor:
#      x y z
#    x 1.807440 0.000000 0.000000 
#    y 0.000000 1.807440 0.000000 
#    z 0.000000 0.000000 1.840500 
# 
# From -- ./inp_files/6416.got.cif
#   From: 2010.05.17/outbox.cif.g08.bks.cpg/sg88_4_cif.got.tgz:6416.got - 2010.06.03 19:11:41.
