data_PCOD9546756
_publ_section_title
;
Structure prediction by ZEFSAII (Michael W. Deem and Ramdas Pophale) SiO2 
 PCOD9546756
Probable space group: I 41/A
;
_chemical_formula_sum "Si O2"
_cell_formula_units_Z 96
_cell_length_a 14.929936
_cell_length_b 14.929936
_cell_length_c 18.528119
_cell_angle_alpha 90.000000
_cell_angle_beta 90.000000
_cell_angle_gamma 90.000000
_cell_volume 4129.973105
_symmetry_space_group_name_H-M "I 41/A"
_symmetry_group_IT_number 88
_space_group.IT_coordinate_system_code '2'
_symmetry_cell_setting 'tetragonal'
loop_
_space_group_symop_operation_xyz
x,y,z
3/4-y,1/4+x,1/4+z
-x,1/2-y,z
1/4+y,1/4-x,1/4+z
-x,-y,-z
1/4+y,3/4-x,3/4-z
x,1/2+y,-z
3/4-y,3/4+x,3/4-z
1/2+x,1/2+y,1/2+z
1/4-y,3/4+x,3/4+z
1/2-x,-y,1/2+z
3/4+y,3/4-x,3/4+z
1/2-x,1/2-y,1/2-z
3/4+y,1/4-x,1/4-z
1/2+x,y,1/2-z
1/4-y,1/4+x,1/4-z
loop_
_atom_site_type_symbol
_atom_site_label
_atom_site_fract_x
_atom_site_fract_y
_atom_site_fract_z
Si Si1 0.922805 0.316273 0.913923
Si Si2 0.250470 0.118367 0.431118
Si Si3 0.801948 0.700763 0.536970
Si Si4 0.704987 0.923922 0.731205
Si Si5 0.207946 0.306307 0.816651
Si Si6 0.624571 0.714168 0.103191
O O1 0.963135 0.381846 0.853383
O O2 0.883271 0.381831 0.974580
O O3 0.849134 0.258945 0.868994
O O4 0.000000 0.250000 0.940962
O O5 0.270686 0.219434 0.456355
O O6 0.265101 0.114224 0.345573
O O7 0.146815 0.095785 0.451696
O O8 0.308028 0.041980 0.470259
O O9 0.764380 0.600886 0.535603
O O10 0.850660 0.723182 0.463027
O O11 0.250000 0.250000 0.750000
O O12 0.291390 0.338507 0.866643
O O13 0.537905 0.655701 0.087721
#
# Coordination Sequence:
#
# PCOD9546756 Si02
#       6
#    16  16  16  16  16  16
#     4  12  26  48  73 105 153 200 252 323 379 461
#     4  12  27  47  78 108 154 209 256 322 392 462
#     4  12  25  48  72 108 152 200 256 315 386 463
#     4  12  27  51  76 110 153 201 264 321 387 468
#     4  12  24  41  70 106 148 198 250 310 394 461
#     4  11  23  37  65 106 145 186 239 306 381 466
#
# _framework density 23.244703999999999
#
# number of rings (size 3 to 8) (size 9 to 14) (size 15 to 20)
#    0.000    0.167    5.000    5.000    2.333    0.667 
#    3.000    0.000    0.000    0.000    0.000    0.000 
#    0.000    0.000    0.000    0.000    0.000    0.000 
#
# Total GULP energy -268636.076123 kJ/mol
# GULP energy per Si atom -5596.584919 kJ/mol
# Density = 2.319180 g / cm^3
# Si number density = 23.244704 Si / 1000 Ang^3
#
#
#
# Elastic Constant Matrix: (Units=GPa)
#
#
# Indices 1 2 3 4 5 6 
#
# 1 76.2702 2.2210 15.8140 0.0000 0.0000 -1.0462
# 2 2.2210 76.2702 15.8140 0.0000 0.0000 1.0462
# 3 15.8140 15.8140 97.6880 0.0000 0.0000 0.0000
# 4 0.0000 0.0000 0.0000 33.1448 0.0000 0.0000
# 5 0.0000 0.0000 0.0000 0.0000 33.1448 0.0000
# 6 -1.0462 1.0462 0.0000 0.0000 0.0000 35.9102
#
#
#
# Elastic Compliance Matrix: (Units=1/GPa)
#
#
# Indices 1 2 3 4 5 6 
#
# 1 0.013572 0.000057 -0.002206 0.000000 0.000000 0.000394
# 2 0.000057 0.013572 -0.002206 0.000000 0.000000 -0.000394
# 3 -0.002206 -0.002206 0.010951 0.000000 0.000000 0.000000
# 4 0.000000 0.000000 0.000000 0.030171 0.000000 0.000000
# 5 0.000000 0.000000 0.000000 0.000000 0.030171 0.000000
# 6 0.000394 -0.000394 0.000000 0.000000 0.000000 0.027870
#
#
# Mechanical properties :
#
#
# Convention : Reuss Voigt Hill
#
# Bulk Modulus (GPa) = 34.03180 35.32513 34.67847
# Shear Modulus (GPa) = 34.52705 34.86525 34.69615
#
# Velocity S-wave (km/s) = 3.85823 3.87708 3.86767
# Velocity P-wave (km/s) = 5.87541 5.93906 5.90732
#
# Compressibility (1/GPa) = 0.02938428
#
# Stress axis : x y z
#
# Youngs Moduli (GPa) = 73.67841 73.67841 91.31577
#
# Poissons Ratio (x) = -0.00419 0.20147
# Poissons Ratio (y) = -0.00419 0.20147
# Poissons Ratio (z) = 0.16256 0.16256
#
# Static dielectric constant tensor:
#      x y z
#    x 1.906700 0.000000 0.000000 
#    y 0.000000 1.906700 0.000000 
#    z 0.000000 0.000000 1.849090 
# 
# From -- ./inp_files/4685.got.cif
#   From: 2010.05.17/outbox.cif.g08.bks.cpg/sg88_3_cif.got.tgz:4685.got - 2010.06.03 19:11:41.
