data_PCOD9546745
_publ_section_title
;
Structure prediction by ZEFSAII (Michael W. Deem and Ramdas Pophale) SiO2 
 PCOD9546745
Probable space group: I 41/A
;
_chemical_formula_sum "Si O2"
_cell_formula_units_Z 92
_cell_length_a 13.803646
_cell_length_b 13.803646
_cell_length_c 25.005934
_cell_angle_alpha 90.000000
_cell_angle_beta 90.000000
_cell_angle_gamma 90.000000
_cell_volume 4764.646741
_symmetry_space_group_name_H-M "I 41/A"
_symmetry_group_IT_number 88
_space_group.IT_coordinate_system_code '2'
_symmetry_cell_setting 'tetragonal'
loop_
_space_group_symop_operation_xyz
x,y,z
3/4-y,1/4+x,1/4+z
-x,1/2-y,z
1/4+y,1/4-x,1/4+z
-x,-y,-z
1/4+y,3/4-x,3/4-z
x,1/2+y,-z
3/4-y,3/4+x,3/4-z
1/2+x,1/2+y,1/2+z
1/4-y,3/4+x,3/4+z
1/2-x,-y,1/2+z
3/4+y,3/4-x,3/4+z
1/2-x,1/2-y,1/2-z
3/4+y,1/4-x,1/4-z
1/2+x,y,1/2-z
1/4-y,1/4+x,1/4-z
loop_
_atom_site_type_symbol
_atom_site_label
_atom_site_fract_x
_atom_site_fract_y
_atom_site_fract_z
Si Si1 0.694635 0.842856 0.448494
Si Si2 0.241672 0.851217 0.497642
Si Si3 0.000000 0.750000 0.375000
Si Si4 0.152658 0.414053 0.603524
Si Si5 0.368412 0.418203 0.634408
Si Si6 0.500000 0.750000 0.843536
Si Si7 0.391967 0.994233 0.478396
O O1 0.759133 0.757817 0.475084
O O2 0.747480 0.873020 0.392715
O O3 0.586785 0.802975 0.437547
O O4 0.675919 0.930330 0.489835
O O5 0.181205 0.923446 0.458814
O O6 0.211266 0.862965 0.557983
O O7 0.351251 0.888086 0.491947
O O8 0.931504 0.665966 0.399196
O O9 0.257320 0.381523 0.628004
O O10 0.443500 0.331540 0.626525
O O11 0.384956 0.495515 0.586145
O O12 0.500000 0.000000 0.500000
#
# Coordination Sequence:
#
# PCOD9546745 Si02
#       7
#    16  16   4  16  16   8  16
#     4  12  22  43  71  96 134 180 218 280 336 399
#     4  11  24  42  66 101 134 172 226 272 337 404
#     4  12  20  42  68  92 136 172 230 264 340 374
#     4  11  23  42  68  93 132 181 216 280 328 395
#     4  11  24  43  65 102 134 171 228 274 337 403
#     4  12  22  43  68  97 137 170 231 268 342 400
#     4  11  22  40  70  93 131 175 214 277 330 395
#
# _framework density 19.308879999999998
#
# number of rings (size 3 to 8) (size 9 to 14) (size 15 to 20)
#    0.000    0.696    8.696    0.000    0.000    4.870 
#    0.000    1.739    0.000    2.087    0.000    0.000 
#    0.000    0.000    0.000    0.000    0.000    0.000 
#
# Total GULP energy -256148.379714 kJ/mol
# GULP energy per Si atom -5568.443037 kJ/mol
# Density = 1.926493 g / cm^3
# Si number density = 19.308880 Si / 1000 Ang^3
#
#
#
# Elastic Constant Matrix: (Units=GPa)
#
#
# Indices 1 2 3 4 5 6 
#
# 1 87.6168 30.0436 52.9576 0.0000 0.0000 5.3314
# 2 30.0436 87.6168 52.9576 0.0000 0.0000 -5.3314
# 3 52.9576 52.9576 160.9985 0.0000 0.0000 0.0000
# 4 0.0000 0.0000 0.0000 21.1650 0.0000 0.0000
# 5 0.0000 0.0000 0.0000 0.0000 21.1650 0.0000
# 6 5.3314 -5.3314 0.0000 0.0000 0.0000 42.8774
#
#
#
# Elastic Compliance Matrix: (Units=1/GPa)
#
#
# Indices 1 2 3 4 5 6 
#
# 1 0.014926 -0.002852 -0.003972 0.000000 0.000000 -0.002211
# 2 -0.002852 0.014926 -0.003972 0.000000 0.000000 0.002211
# 3 -0.003972 -0.003972 0.008824 0.000000 0.000000 0.000000
# 4 0.000000 0.000000 0.000000 0.047248 0.000000 0.000000
# 5 0.000000 0.000000 0.000000 0.000000 0.047248 0.000000
# 6 -0.002211 0.002211 0.000000 0.000000 0.000000 0.023872
#
#
# Mechanical properties :
#
#
# Convention : Reuss Voigt Hill
#
# Bulk Modulus (GPa) = 58.52747 67.57221 63.04984
# Shear Modulus (GPa) = 27.12518 30.39303 28.75911
#
# Velocity S-wave (km/s) = 3.75214 3.97173 3.86349
# Velocity P-wave (km/s) = 7.01059 7.49027 7.25440
#
# Compressibility (1/GPa) = 0.01708600
#
# Stress axis : x y z
#
# Youngs Moduli (GPa) = 66.99546 66.99546 113.32719
#
# Poissons Ratio (x) = 0.19109 0.45009
# Poissons Ratio (y) = 0.19109 0.45009
# Poissons Ratio (z) = 0.26608 0.26608
#
# Static dielectric constant tensor:
#      x y z
#    x 1.717930 0.000000 0.000000 
#    y 0.000000 1.717930 0.000000 
#    z 0.000000 0.000000 1.694530 
# 
# From -- ./inp_files/6561.got.cif
#   From: 2010.05.17/outbox.cif.g08.bks.cpg/sg88_4_cif.got.tgz:6561.got - 2010.06.03 19:11:41.
