data_PCOD9546149
_publ_section_title
;
Structure prediction by ZEFSAII (Michael W. Deem and Ramdas Pophale) SiO2 
 PCOD9546149
Probable space group: I 4/M
;
_chemical_formula_sum "Si O2"
_cell_formula_units_Z 56
_cell_length_a 12.695447
_cell_length_b 12.695447
_cell_length_c 14.815038
_cell_angle_alpha 90.000000
_cell_angle_beta 90.000000
_cell_angle_gamma 90.000000
_cell_volume 2387.804483
_symmetry_space_group_name_H-M "I 4/M"
_symmetry_group_IT_number 87
_symmetry_cell_setting 'tetragonal'
loop_
_space_group_symop_operation_xyz
x,y,z
-y,x,z
-x,-y,z
y,-x,z
-x,-y,-z
y,-x,-z
x,y,-z
-y,x,-z
1/2+x,1/2+y,1/2+z
1/2-y,1/2+x,1/2+z
1/2-x,1/2-y,1/2+z
1/2+y,1/2-x,1/2+z
1/2-x,1/2-y,1/2-z
1/2+y,1/2-x,1/2-z
1/2+x,1/2+y,1/2-z
1/2-y,1/2+x,1/2-z
loop_
_atom_site_type_symbol
_atom_site_label
_atom_site_fract_x
_atom_site_fract_y
_atom_site_fract_z
Si Si1 0.575826 0.662886 0.000000
Si Si2 0.152422 0.576720 0.135266
Si Si3 0.925125 0.651475 0.852503
Si Si4 0.631143 0.401396 0.392782
O O1 0.450057 0.634487 0.000000
O O2 0.602399 0.739293 0.085060
O O3 0.047108 0.644442 0.112713
O O4 0.155118 0.576954 0.243850
O O5 0.125324 0.455765 0.112608
O O6 0.858251 0.753659 0.878473
O O7 0.639880 0.521425 0.355263
O O8 0.616090 0.401307 0.500000
#
# Coordination Sequence:
#
# PCOD9546149 Si02
#       4
#     8  16  16  16
#     4  11  26  43  56  80 122 165 198 229 278 348
#     4   9  21  39  59  85 113 147 191 241 286 332
#     4   9  19  38  62  86 111 143 191 242 289 334
#     4   9  19  33  50  80 116 143 174 225 288 343
#
# _framework density 23.452507000000001
#
# number of rings (size 3 to 8) (size 9 to 14) (size 15 to 20)
#    0.000    2.714    0.000    2.571    4.000    5.714 
#    0.000    8.571    0.000    0.000    0.000    0.000 
#    0.000    0.000    0.000    0.000    0.000    0.000 
#
# Total GULP energy -156062.238389 kJ/mol
# GULP energy per Si atom -5573.651371 kJ/mol
# Density = 2.339913 g / cm^3
# Si number density = 23.452507 Si / 1000 Ang^3
#
#
#
# Elastic Constant Matrix: (Units=GPa)
#
#
# Indices 1 2 3 4 5 6 
#
# 1 98.8843 8.1244 9.3260 0.0000 0.0000 13.7359
# 2 8.1244 98.8843 9.3260 0.0000 0.0000 -13.7359
# 3 9.3260 9.3260 61.5239 0.0000 0.0000 0.0000
# 4 0.0000 0.0000 0.0000 81.2252 0.0000 0.0000
# 5 0.0000 0.0000 0.0000 0.0000 81.2252 0.0000
# 6 13.7359 -13.7359 0.0000 0.0000 0.0000 -3.1504
#
#
#
# Elastic Compliance Matrix: (Units=1/GPa)
#
#
# Indices 1 2 3 4 5 6 
#
# 1 0.007174 0.002424 -0.001455 0.000000 0.000000 0.020709
# 2 0.002424 0.007174 -0.001455 0.000000 0.000000 -0.020709
# 3 -0.001455 -0.001455 0.016695 0.000000 0.000000 0.000000
# 4 0.000000 0.000000 0.000000 0.012311 0.000000 0.000000
# 5 0.000000 0.000000 0.000000 0.000000 0.012311 0.000000
# 6 0.020709 -0.020709 0.000000 0.000000 0.000000 -0.136834
#
#
# Mechanical properties :
#
#
# Convention : Reuss Voigt Hill
#
# Bulk Modulus (GPa) = 33.25321 34.76056 34.00689
# Shear Modulus (GPa) = -71.25254 47.36109 -11.94572
#
# Velocity S-wave (km/s) = -5.51793 4.49870 -2.25934
# Velocity P-wave (km/s) = 5.13683 6.46825 2.77950
#
# Compressibility (1/GPa) = 0.03007228
#
# Stress axis : x y z
#
# Youngs Moduli (GPa) = 139.38859 139.38858 59.89837
#
# Poissons Ratio (x) = -0.33794 0.08715
# Poissons Ratio (y) = -0.33794 0.08715
# Poissons Ratio (z) = 0.20281 0.20281
#
# Static dielectric constant tensor:
#      x y z
#    x 1.917000 0.000000 0.000000 
#    y 0.000000 1.917000 0.000000 
#    z 0.000000 0.000000 1.866040 
# 
# From -- ./inp_files/3289.got.cif
#   From: 2010.05.17/outbox.cif.g08.bks.cpg/sg87_2_cif.got.tgz:3289.got - 2010.06.03 19:07:00.
