data_PCOD9546351
_publ_section_title
;
Structure prediction by ZEFSAII (Michael W. Deem and Ramdas Pophale) SiO2 
 PCOD9546351
Probable space group: I 41/A
;
_chemical_formula_sum "Si O2"
_cell_formula_units_Z 128
_cell_length_a 24.001654
_cell_length_b 24.001654
_cell_length_c 9.043227
_cell_angle_alpha 90.000000
_cell_angle_beta 90.000000
_cell_angle_gamma 90.000000
_cell_volume 5209.616737
_symmetry_space_group_name_H-M "I 41/A"
_symmetry_group_IT_number 88
_space_group.IT_coordinate_system_code '2'
_symmetry_cell_setting 'tetragonal'
loop_
_space_group_symop_operation_xyz
x,y,z
3/4-y,1/4+x,1/4+z
-x,1/2-y,z
1/4+y,1/4-x,1/4+z
-x,-y,-z
1/4+y,3/4-x,3/4-z
x,1/2+y,-z
3/4-y,3/4+x,3/4-z
1/2+x,1/2+y,1/2+z
1/4-y,3/4+x,3/4+z
1/2-x,-y,1/2+z
3/4+y,3/4-x,3/4+z
1/2-x,1/2-y,1/2-z
3/4+y,1/4-x,1/4-z
1/2+x,y,1/2-z
1/4-y,1/4+x,1/4-z
loop_
_atom_site_type_symbol
_atom_site_label
_atom_site_fract_x
_atom_site_fract_y
_atom_site_fract_z
Si Si1 0.666860 0.230340 0.145090
Si Si2 0.777090 0.555400 0.635975
Si Si3 0.670059 0.601880 0.803597
Si Si4 0.381441 0.108611 0.241553
Si Si5 0.032136 0.488714 0.271244
Si Si6 0.412198 0.732647 0.121935
Si Si7 0.313886 0.684213 0.299455
Si Si8 0.022917 0.831757 0.848018
O O1 0.678229 0.164103 0.133521
O O2 0.635182 0.238557 0.299771
O O3 0.721477 0.266714 0.114108
O O4 0.626155 0.249435 0.014424
O O5 0.750079 0.546131 0.475509
O O6 0.728444 0.577897 0.746176
O O7 0.830044 0.597406 0.633446
O O8 0.632822 0.606501 0.654412
O O9 0.630866 0.565464 0.909389
O O10 0.416580 0.051785 0.256178
O O11 0.430890 0.152959 0.226131
O O12 0.052141 0.524683 0.411200
O O13 0.976074 0.456938 0.322810
O O14 0.441448 0.788905 0.174739
O O15 0.374746 0.703572 0.246364
O O16 0.053524 0.784567 0.948361
#
# Coordination Sequence:
#
# PCOD9546351 Si02
#       8
#    16  16  16  16  16  16  16  16
#     4  10  22  40  63  97 130 177 226 273 350 406
#     4  10  24  43  66  97 129 179 234 288 349 410
#     4  10  22  41  66  91 134 179 225 277 344 415
#     4  10  24  41  63  96 131 172 222 285 333 413
#     4  10  24  41  68 100 136 176 231 285 345 420
#     4  10  20  36  62  96 139 177 220 284 343 415
#     4  10  22  43  67 100 137 181 229 282 352 425
#     4  10  24  41  64  95 131 175 218 276 346 419
#
# _framework density 24.569946999999999
#
# number of rings (size 3 to 8) (size 9 to 14) (size 15 to 20)
#    0.000    2.000    1.250    0.000    8.750    7.000 
#    0.000    2.500    0.000    0.000    0.000    0.000 
#    0.000    0.000    0.000    0.000    0.000    0.000 
#
# Total GULP energy -358001.621738 kJ/mol
# GULP energy per Si atom -5593.775340 kJ/mol
# Density = 2.451402 g / cm^3
# Si number density = 24.569947 Si / 1000 Ang^3
#
#
#
# Elastic Constant Matrix: (Units=GPa)
#
#
# Indices 1 2 3 4 5 6 
#
# 1 84.9599 29.3234 15.1150 0.0000 0.0000 11.0287
# 2 29.3234 84.9599 15.1150 0.0000 0.0000 -11.0287
# 3 15.1150 15.1150 68.8305 0.0000 0.0000 0.0000
# 4 0.0000 0.0000 0.0000 21.8405 0.0000 0.0000
# 5 0.0000 0.0000 0.0000 0.0000 21.8405 0.0000
# 6 11.0287 -11.0287 0.0000 0.0000 0.0000 44.2027
#
#
#
# Elastic Compliance Matrix: (Units=1/GPa)
#
#
# Indices 1 2 3 4 5 6 
#
# 1 0.014618 -0.005329 -0.002040 0.000000 0.000000 -0.004977
# 2 -0.005329 0.014618 -0.002040 0.000000 0.000000 0.004977
# 3 -0.002040 -0.002040 0.015424 0.000000 0.000000 0.000000
# 4 0.000000 0.000000 0.000000 0.045786 0.000000 0.000000
# 5 0.000000 0.000000 0.000000 0.000000 0.045786 0.000000
# 6 -0.004977 0.004977 0.000000 0.000000 0.000000 0.025107
#
#
# Mechanical properties :
#
#
# Convention : Reuss Voigt Hill
#
# Bulk Modulus (GPa) = 38.69378 39.76191 39.22785
# Shear Modulus (GPa) = 26.48692 29.52320 28.00506
#
# Velocity S-wave (km/s) = 3.28689 3.47017 3.37977
# Velocity P-wave (km/s) = 5.49431 5.68105 5.58846
#
# Compressibility (1/GPa) = 0.02584394
#
# Stress axis : x y z
#
# Youngs Moduli (GPa) = 68.40706 68.40706 64.83231
#
# Poissons Ratio (x) = 0.36451 0.13226
# Poissons Ratio (y) = 0.36451 0.13226
# Poissons Ratio (z) = 0.13955 0.13955
#
# Static dielectric constant tensor:
#      x y z
#    x 1.975570 0.000000 0.000000 
#    y 0.000000 1.975570 0.000000 
#    z 0.000000 0.000000 1.924160 
# 
# From -- ./inp_files/2754.got.cif
#   From: 2010.05.17/outbox.cif.g08.bks.cpg/sg88_2_cif.got.tgz:2754.got - 2010.06.03 19:11:41.
