data_PCOD9546508
_publ_section_title
;
Structure prediction by ZEFSAII (Michael W. Deem and Ramdas Pophale) SiO2 
 PCOD9546508
Probable space group: I 41/A
;
_chemical_formula_sum "Si O2"
_cell_formula_units_Z 108
_cell_length_a 14.389827
_cell_length_b 14.389827
_cell_length_c 24.886127
_cell_angle_alpha 90.000000
_cell_angle_beta 90.000000
_cell_angle_gamma 90.000000
_cell_volume 5153.098673
_symmetry_space_group_name_H-M "I 41/A"
_symmetry_group_IT_number 88
_space_group.IT_coordinate_system_code '2'
_symmetry_cell_setting 'tetragonal'
loop_
_space_group_symop_operation_xyz
x,y,z
3/4-y,1/4+x,1/4+z
-x,1/2-y,z
1/4+y,1/4-x,1/4+z
-x,-y,-z
1/4+y,3/4-x,3/4-z
x,1/2+y,-z
3/4-y,3/4+x,3/4-z
1/2+x,1/2+y,1/2+z
1/4-y,3/4+x,3/4+z
1/2-x,-y,1/2+z
3/4+y,3/4-x,3/4+z
1/2-x,1/2-y,1/2-z
3/4+y,1/4-x,1/4-z
1/2+x,y,1/2-z
1/4-y,1/4+x,1/4-z
loop_
_atom_site_type_symbol
_atom_site_label
_atom_site_fract_x
_atom_site_fract_y
_atom_site_fract_z
Si Si1 0.910760 0.561723 0.753833
Si Si2 0.956201 0.395955 0.335318
Si Si3 0.265366 0.829720 0.794126
Si Si4 0.512663 0.599546 0.638803
Si Si5 0.500000 0.250000 0.076463
Si Si6 0.019038 0.048864 0.584341
Si Si7 0.500000 0.750000 0.125000
Si Si8 0.156782 0.139706 0.763364
O O1 0.816140 0.600981 0.777815
O O2 0.985558 0.569979 0.801622
O O3 0.883564 0.456628 0.742176
O O4 0.953983 0.615892 0.703304
O O5 0.864288 0.380039 0.299675
O O6 0.949925 0.320822 0.382828
O O7 0.975531 0.494050 0.364909
O O8 0.250000 0.750000 0.750000
O O9 0.236793 0.787929 0.851740
O O10 0.424440 0.654063 0.613185
O O11 0.559813 0.317623 0.039226
O O12 0.942666 0.050737 0.537333
O O13 0.037701 0.157337 0.595320
O O14 0.103811 0.986478 0.560000
#
# Coordination Sequence:
#
# PCOD9546508 Si02
#       8
#    16  16  16  16   8  16   4  16
#     4  11  23  40  63  93 133 173 220 272 333 402
#     4  11  23  41  63 102 132 175 229 279 336 404
#     4  11  23  40  63  97 131 178 221 281 342 405
#     4   9  19  38  62  91 128 173 219 267 333 407
#     4  10  21  42  72  91 135 176 222 281 336 404
#     4  10  24  41  65  92 128 167 228 275 339 409
#     4  12  22  40  68  88 124 176 204 286 336 392
#     4  10  22  44  63  95 125 175 216 277 339 407
#
# _framework density 20.958262999999999
#
# number of rings (size 3 to 8) (size 9 to 14) (size 15 to 20)
#    0.000    1.630    0.000    4.000    2.074    3.556 
#   13.333    0.000    0.000    0.000    0.000    0.000 
#    0.000    0.000    0.000    0.000    0.000    0.000 
#
# Total GULP energy -301187.763276 kJ/mol
# GULP energy per Si atom -5577.551172 kJ/mol
# Density = 2.091056 g / cm^3
# Si number density = 20.958263 Si / 1000 Ang^3
#
#
#
# Elastic Constant Matrix: (Units=GPa)
#
#
# Indices 1 2 3 4 5 6 
#
# 1 62.8411 -7.7159 -0.7755 0.0000 0.0000 2.1664
# 2 -7.7159 62.8411 -0.7755 0.0000 0.0000 -2.1664
# 3 -0.7755 -0.7755 42.2481 0.0000 0.0000 0.0000
# 4 0.0000 0.0000 0.0000 29.6344 0.0000 0.0000
# 5 0.0000 0.0000 0.0000 0.0000 29.6344 0.0000
# 6 2.1664 -2.1664 0.0000 0.0000 0.0000 1.3157
#
#
#
# Elastic Compliance Matrix: (Units=1/GPa)
#
#
# Indices 1 2 3 4 5 6 
#
# 1 0.016959 0.001191 0.000333 0.000000 0.000000 -0.025962
# 2 0.001191 0.016959 0.000333 0.000000 0.000000 0.025962
# 3 0.000333 0.000333 0.023682 0.000000 0.000000 0.000000
# 4 0.000000 0.000000 0.000000 0.033745 0.000000 0.000000
# 5 0.000000 0.000000 0.000000 0.000000 0.033745 0.000000
# 6 -0.025962 0.025962 0.000000 0.000000 0.000000 0.845560
#
#
# Mechanical properties :
#
#
# Convention : Reuss Voigt Hill
#
# Bulk Modulus (GPa) = 16.30938 16.59960 16.45449
# Shear Modulus (GPa) = 5.06396 23.93005 14.49700
#
# Velocity S-wave (km/s) = 1.55610 3.38271 2.63289
# Velocity P-wave (km/s) = 3.32074 4.81607 4.13653
#
# Compressibility (1/GPa) = 0.06131442
#
# Stress axis : x y z
#
# Youngs Moduli (GPa) = 58.96729 58.96729 42.22626
#
# Poissons Ratio (x) = -0.07025 -0.01407
# Poissons Ratio (y) = -0.07025 -0.01407
# Poissons Ratio (z) = -0.01965 -0.01965
#
# Static dielectric constant tensor:
#      x y z
#    x 1.570930 0.000000 0.000000 
#    y 0.000000 1.570930 0.000000 
#    z 0.000000 0.000000 1.764260 
# 
# From -- ./inp_files/5377.got.cif
#   From: 2010.05.17/outbox.cif.g08.bks.cpg/sg88_3_cif.got.tgz:5377.got - 2010.06.03 19:11:41.
