data_PCOD9546326
_publ_section_title
;
Structure prediction by ZEFSAII (Michael W. Deem and Ramdas Pophale) SiO2 
 PCOD9546326
Probable space group: I 41/A
;
_chemical_formula_sum "Si O2"
_cell_formula_units_Z 52
_cell_length_a 10.331803
_cell_length_b 10.331803
_cell_length_c 19.523335
_cell_angle_alpha 90.000000
_cell_angle_beta 90.000000
_cell_angle_gamma 90.000000
_cell_volume 2084.040909
_symmetry_space_group_name_H-M "I 41/A"
_symmetry_group_IT_number 88
_space_group.IT_coordinate_system_code '2'
_symmetry_cell_setting 'tetragonal'
loop_
_space_group_symop_operation_xyz
x,y,z
3/4-y,1/4+x,1/4+z
-x,1/2-y,z
1/4+y,1/4-x,1/4+z
-x,-y,-z
1/4+y,3/4-x,3/4-z
x,1/2+y,-z
3/4-y,3/4+x,3/4-z
1/2+x,1/2+y,1/2+z
1/4-y,3/4+x,3/4+z
1/2-x,-y,1/2+z
3/4+y,3/4-x,3/4+z
1/2-x,1/2-y,1/2-z
3/4+y,1/4-x,1/4-z
1/2+x,y,1/2-z
1/4-y,1/4+x,1/4-z
loop_
_atom_site_type_symbol
_atom_site_label
_atom_site_fract_x
_atom_site_fract_y
_atom_site_fract_z
Si Si1 0.451370 0.058161 0.857735
Si Si2 0.901048 0.132926 0.272688
Si Si3 0.579951 0.481781 0.609141
Si Si4 0.500000 0.750000 0.625000
O O1 0.360953 0.182305 0.844834
O O2 0.525223 0.996942 0.792620
O O3 0.363851 0.940103 0.885003
O O4 0.792238 0.123836 0.214429
O O5 0.838395 0.195017 0.341573
O O6 0.000000 0.250000 0.254726
O O7 0.550394 0.609154 0.651902
#
# Coordination Sequence:
#
# PCOD9546326 Si02
#       4
#    16  16  16   4
#     4  10  21  39  58  80 121 166 196 239 298 359
#     4   9  18  37  61  88 119 153 198 253 306 347
#     4  10  20  34  61  89 118 151 197 257 301 356
#     4  12  20  32  60 100 112 148 208 252 316 348
#
# _framework density 24.951525
#
# number of rings (size 3 to 8) (size 9 to 14) (size 15 to 20)
#    0.000    2.154    1.538    1.846    0.000    0.000 
#    0.000    6.154    0.000    0.000    0.000    0.000 
#    0.000    0.000    0.000    0.000    0.000    0.000 
#
# Total GULP energy -144992.577114 kJ/mol
# GULP energy per Si atom -5576.637581 kJ/mol
# Density = 2.489473 g / cm^3
# Si number density = 24.951525 Si / 1000 Ang^3
#
#
#
# Elastic Constant Matrix: (Units=GPa)
#
#
# Indices 1 2 3 4 5 6 
#
# 1 140.9616 50.8853 33.2572 0.0000 0.0000 20.7196
# 2 50.8853 140.9616 33.2572 0.0000 0.0000 -20.7196
# 3 33.2572 33.2572 45.5861 0.0000 0.0000 0.0000
# 4 0.0000 0.0000 0.0000 27.5619 0.0000 0.0000
# 5 0.0000 0.0000 0.0000 0.0000 27.5619 0.0000
# 6 20.7196 -20.7196 0.0000 0.0000 0.0000 86.8296
#
#
#
# Elastic Compliance Matrix: (Units=1/GPa)
#
#
# Indices 1 2 3 4 5 6 
#
# 1 0.009724 -0.002747 -0.005090 0.000000 0.000000 -0.002976
# 2 -0.002747 0.009724 -0.005090 0.000000 0.000000 0.002976
# 3 -0.005090 -0.005090 0.029364 0.000000 0.000000 0.000000
# 4 0.000000 0.000000 0.000000 0.036282 0.000000 0.000000
# 5 0.000000 0.000000 0.000000 0.000000 0.036282 0.000000
# 6 -0.002976 0.002976 0.000000 0.000000 0.000000 0.012937
#
#
# Mechanical properties :
#
#
# Convention : Reuss Voigt Hill
#
# Bulk Modulus (GPa) = 43.55930 62.47877 53.01904
# Shear Modulus (GPa) = 29.79390 42.39799 36.09594
#
# Velocity S-wave (km/s) = 3.45928 4.12662 3.80760
# Velocity P-wave (km/s) = 5.78368 6.91374 6.37380
#
# Compressibility (1/GPa) = 0.02295721
#
# Stress axis : x y z
#
# Youngs Moduli (GPa) = 102.83817 102.83817 34.05563
#
# Poissons Ratio (x) = 0.28246 0.17335
# Poissons Ratio (y) = 0.28246 0.17335
# Poissons Ratio (z) = 0.52348 0.52348
#
# Static dielectric constant tensor:
#      x y z
#    x 2.010300 0.000000 0.000000 
#    y 0.000000 2.010300 0.000000 
#    z 0.000000 0.000000 1.182140 
# 
# From -- ./inp_files/5034.got.cif
#   From: 2010.05.17/outbox.cif.g08.bks.cpg/sg88_3_cif.got.tgz:5034.got - 2010.06.03 19:11:41.
