data_PCOD9546739
_publ_section_title
;
Structure prediction by ZEFSAII (Michael W. Deem and Ramdas Pophale) SiO2 
 PCOD9546739
Probable space group: I 41/A
;
_chemical_formula_sum "Si O2"
_cell_formula_units_Z 64
_cell_length_a 23.113920
_cell_length_b 23.113920
_cell_length_c 5.158979
_cell_angle_alpha 90.000000
_cell_angle_beta 90.000000
_cell_angle_gamma 90.000000
_cell_volume 2756.201544
_symmetry_space_group_name_H-M "I 41/A"
_symmetry_group_IT_number 88
_space_group.IT_coordinate_system_code '2'
_symmetry_cell_setting 'tetragonal'
loop_
_space_group_symop_operation_xyz
x,y,z
3/4-y,1/4+x,1/4+z
-x,1/2-y,z
1/4+y,1/4-x,1/4+z
-x,-y,-z
1/4+y,3/4-x,3/4-z
x,1/2+y,-z
3/4-y,3/4+x,3/4-z
1/2+x,1/2+y,1/2+z
1/4-y,3/4+x,3/4+z
1/2-x,-y,1/2+z
3/4+y,3/4-x,3/4+z
1/2-x,1/2-y,1/2-z
3/4+y,1/4-x,1/4-z
1/2+x,y,1/2-z
1/4-y,1/4+x,1/4-z
loop_
_atom_site_type_symbol
_atom_site_label
_atom_site_fract_x
_atom_site_fract_y
_atom_site_fract_z
Si Si1 0.082198 0.518947 0.436999
Si Si2 0.833432 0.708997 0.790141
Si Si3 0.313777 0.558711 0.355513
Si Si4 0.352242 0.336245 0.467690
O O1 0.062734 0.548474 0.704946
O O2 0.145960 0.546109 0.380535
O O3 0.084846 0.449404 0.431282
O O4 0.041597 0.540181 0.203885
O O5 0.857758 0.771782 0.858207
O O6 0.884616 0.663725 0.719882
O O7 0.257491 0.566274 0.532339
O O8 0.371531 0.576664 0.498484
#
# Coordination Sequence:
#
# PCOD9546739 Si02
#       4
#    16  16  16  16
#     4  11  23  43  67  96 127 167 214 267 320 380
#     4  11  26  41  68  95 128 172 214 264 321 375
#     4  11  22  39  67 101 132 166 208 268 330 381
#     4  11  23  43  64  95 132 171 216 263 314 384
#
# _framework density 23.220364
#
# number of rings (size 3 to 8) (size 9 to 14) (size 15 to 20)
#    0.000    1.000    0.000    7.500    0.000    8.500 
#    0.000    0.000    0.000    6.000    0.000    0.000 
#    0.000    0.000    0.000    0.000    0.000    0.000 
#
# Total GULP energy -179208.259564 kJ/mol
# GULP energy per Si atom -5600.258111 kJ/mol
# Density = 2.316751 g / cm^3
# Si number density = 23.220364 Si / 1000 Ang^3
#
#
#
# Elastic Constant Matrix: (Units=GPa)
#
#
# Indices 1 2 3 4 5 6 
#
# 1 167.4994 46.2907 10.5127 0.0000 0.0000 2.9895
# 2 46.2907 167.4994 10.5127 0.0000 0.0000 -2.9895
# 3 10.5127 10.5127 62.5634 0.0000 0.0000 0.0000
# 4 0.0000 0.0000 0.0000 26.7029 0.0000 0.0000
# 5 0.0000 0.0000 0.0000 0.0000 26.7029 0.0000
# 6 2.9895 -2.9895 0.0000 0.0000 0.0000 34.7534
#
#
#
# Elastic Compliance Matrix: (Units=1/GPa)
#
#
# Indices 1 2 3 4 5 6 
#
# 1 0.006521 -0.001765 -0.000799 0.000000 0.000000 -0.000713
# 2 -0.001765 0.006521 -0.000799 0.000000 0.000000 0.000713
# 3 -0.000799 -0.000799 0.016252 0.000000 0.000000 0.000000
# 4 0.000000 0.000000 0.000000 0.037449 0.000000 0.000000
# 5 0.000000 0.000000 0.000000 0.000000 0.037449 0.000000
# 6 -0.000713 0.000713 0.000000 0.000000 0.000000 0.028897
#
#
# Mechanical properties :
#
#
# Convention : Reuss Voigt Hill
#
# Bulk Modulus (GPa) = 44.31088 59.13271 51.72180
# Shear Modulus (GPa) = 33.93572 39.64826 36.79199
#
# Velocity S-wave (km/s) = 3.82706 4.13665 3.98486
# Velocity P-wave (km/s) = 6.21713 6.95248 6.59506
#
# Compressibility (1/GPa) = 0.02256782
#
# Stress axis : x y z
#
# Youngs Moduli (GPa) = 153.35693 153.35693 61.52948
#
# Poissons Ratio (x) = 0.27062 0.04917
# Poissons Ratio (y) = 0.27062 0.04917
# Poissons Ratio (z) = 0.12256 0.12256
#
# Static dielectric constant tensor:
#      x y z
#    x 1.916530 0.000000 0.000000 
#    y 0.000000 1.916530 0.000000 
#    z 0.000000 0.000000 1.937030 
# 
# From -- ./inp_files/571.got.cif
#   From: 2010.05.17/outbox.cif.g08.bks.cpg/sg88_1_cif.got.tgz:571.got - 2010.06.03 19:11:41.
