data_PCOD9546686
_publ_section_title
;
Structure prediction by ZEFSAII (Michael W. Deem and Ramdas Pophale) SiO2 
 PCOD9546686
Probable space group: I 41/A
;
_chemical_formula_sum "Si O2"
_cell_formula_units_Z 96
_cell_length_a 13.865211
_cell_length_b 13.865211
_cell_length_c 20.551261
_cell_angle_alpha 90.000000
_cell_angle_beta 90.000000
_cell_angle_gamma 90.000000
_cell_volume 3950.858183
_symmetry_space_group_name_H-M "I 41/A"
_symmetry_group_IT_number 88
_space_group.IT_coordinate_system_code '2'
_symmetry_cell_setting 'tetragonal'
loop_
_space_group_symop_operation_xyz
x,y,z
3/4-y,1/4+x,1/4+z
-x,1/2-y,z
1/4+y,1/4-x,1/4+z
-x,-y,-z
1/4+y,3/4-x,3/4-z
x,1/2+y,-z
3/4-y,3/4+x,3/4-z
1/2+x,1/2+y,1/2+z
1/4-y,3/4+x,3/4+z
1/2-x,-y,1/2+z
3/4+y,3/4-x,3/4+z
1/2-x,1/2-y,1/2-z
3/4+y,1/4-x,1/4-z
1/2+x,y,1/2-z
1/4-y,1/4+x,1/4-z
loop_
_atom_site_type_symbol
_atom_site_label
_atom_site_fract_x
_atom_site_fract_y
_atom_site_fract_z
Si Si1 0.377003 0.331510 0.180404
Si Si2 0.637887 0.739643 0.162670
Si Si3 0.602848 0.364746 0.367084
Si Si4 0.276530 0.468650 0.275943
Si Si5 0.076439 0.594388 0.546062
Si Si6 0.410524 0.614897 0.777575
O O1 0.296607 0.398636 0.214111
O O2 0.387184 0.334531 0.102540
O O3 0.478533 0.376946 0.203975
O O4 0.370734 0.221948 0.204885
O O5 0.579336 0.650680 0.130688
O O6 0.752572 0.721827 0.167264
O O7 0.614001 0.760261 0.238843
O O8 0.620956 0.252803 0.351312
O O9 0.678225 0.405266 0.417337
O O10 0.591669 0.413687 0.298019
O O11 0.302647 0.577939 0.261245
O O12 0.169244 0.457105 0.304817
#
# Coordination Sequence:
#
# PCOD9546686 Si02
#       6
#    16  16  16  16  16  16
#     4  11  23  44  65 101 151 174 235 304 356 445
#     4  10  24  50  77  97 138 190 231 299 372 431
#     4  11  20  40  65  94 139 187 223 276 362 430
#     4  12  24  40  70 103 140 188 239 302 353 437
#     4  11  26  44  73 109 133 181 249 295 355 444
#     4  11  24  40  65 101 139 186 227 290 365 430
#
# _framework density 24.29852
#
# number of rings (size 3 to 8) (size 9 to 14) (size 15 to 20)
#    0.000    1.000    3.333    3.500    4.667    2.667 
#    3.000    0.000    0.000    0.000    0.000    0.000 
#    0.000    0.000    0.000    0.000    0.000    0.000 
#
# Total GULP energy -268314.928958 kJ/mol
# GULP energy per Si atom -5589.894353 kJ/mol
# Density = 2.424322 g / cm^3
# Si number density = 24.298520 Si / 1000 Ang^3
#
#
#
# Elastic Constant Matrix: (Units=GPa)
#
#
# Indices 1 2 3 4 5 6 
#
# 1 61.6266 7.5251 15.5657 0.0000 0.0000 -4.7196
# 2 7.5251 61.6266 15.5657 0.0000 0.0000 4.7196
# 3 15.5657 15.5657 113.4884 0.0000 0.0000 0.0000
# 4 0.0000 0.0000 0.0000 29.8469 0.0000 0.0000
# 5 0.0000 0.0000 0.0000 0.0000 29.8469 0.0000
# 6 -4.7196 4.7196 0.0000 0.0000 0.0000 23.2652
#
#
#
# Elastic Compliance Matrix: (Units=1/GPa)
#
#
# Indices 1 2 3 4 5 6 
#
# 1 0.017287 -0.001875 -0.002114 0.000000 0.000000 0.003887
# 2 -0.001875 0.017287 -0.002114 0.000000 0.000000 -0.003887
# 3 -0.002114 -0.002114 0.009391 0.000000 0.000000 0.000000
# 4 0.000000 0.000000 0.000000 0.033504 0.000000 0.000000
# 5 0.000000 0.000000 0.000000 0.000000 0.033504 0.000000
# 6 0.003887 -0.003887 0.000000 0.000000 0.000000 0.044560
#
#
# Mechanical properties :
#
#
# Convention : Reuss Voigt Hill
#
# Bulk Modulus (GPa) = 31.48532 34.89496 33.19014
# Shear Modulus (GPa) = 28.03848 29.79749 28.91799
#
# Velocity S-wave (km/s) = 3.40062 3.50567 3.45354
# Velocity P-wave (km/s) = 5.32962 5.54783 5.43982
#
# Compressibility (1/GPa) = 0.03176083
#
# Stress axis : x y z
#
# Youngs Moduli (GPa) = 57.84591 57.84591 106.48094
#
# Poissons Ratio (x) = 0.10844 0.22509
# Poissons Ratio (y) = 0.10844 0.22509
# Poissons Ratio (z) = 0.12228 0.12228
#
# Static dielectric constant tensor:
#      x y z
#    x 1.971120 0.000000 0.000000 
#    y 0.000000 1.971120 0.000000 
#    z 0.000000 0.000000 1.936930 
# 
# From -- ./inp_files/4661.got.cif
#   From: 2010.05.17/outbox.cif.g08.bks.cpg/sg88_3_cif.got.tgz:4661.got - 2010.06.03 19:11:41.
