data_PCOD9546082
_publ_section_title
;
Structure prediction by ZEFSAII (Michael W. Deem and Ramdas Pophale) SiO2 
 PCOD9546082
Probable space group: I 4/M
;
_chemical_formula_sum "Si O2"
_cell_formula_units_Z 56
_cell_length_a 9.361733
_cell_length_b 9.361733
_cell_length_c 31.689673
_cell_angle_alpha 90.000000
_cell_angle_beta 90.000000
_cell_angle_gamma 90.000000
_cell_volume 2777.347740
_symmetry_space_group_name_H-M "I 4/M"
_symmetry_group_IT_number 87
_symmetry_cell_setting 'tetragonal'
loop_
_space_group_symop_operation_xyz
x,y,z
-y,x,z
-x,-y,z
y,-x,z
-x,-y,-z
y,-x,-z
x,y,-z
-y,x,-z
1/2+x,1/2+y,1/2+z
1/2-y,1/2+x,1/2+z
1/2-x,1/2-y,1/2+z
1/2+y,1/2-x,1/2+z
1/2-x,1/2-y,1/2-z
1/2+y,1/2-x,1/2-z
1/2+x,1/2+y,1/2-z
1/2-y,1/2+x,1/2-z
loop_
_atom_site_type_symbol
_atom_site_label
_atom_site_fract_x
_atom_site_fract_y
_atom_site_fract_z
Si Si1 0.758500 0.040742 0.000000
Si Si2 0.838972 0.182508 0.211574
Si Si3 0.878246 0.646982 0.088415
Si Si4 0.841289 0.331232 0.124326
O O1 0.660114 0.063335 0.958858
O O2 0.887941 0.158720 0.000000
O O3 0.750000 0.250000 0.250000
O O4 0.796007 0.275061 0.170082
O O5 0.012360 0.194419 0.212715
O O6 0.853405 0.497039 0.111958
O O7 0.733802 0.733121 0.091023
O O8 0.999825 0.727522 0.115572
#
# Coordination Sequence:
#
# PCOD9546082 Si02
#       4
#     8  16  16  16
#     4  11  22  39  69 106 140 185 244 303 359 420
#     4  11  26  45  71 104 140 179 230 290 352 423
#     4  11  24  41  69 100 138 188 232 296 348 420
#     4  11  24  43  67  99 136 184 234 287 351 422
#
# _framework density 20.163121
#
# number of rings (size 3 to 8) (size 9 to 14) (size 15 to 20)
#    0.000    1.000    5.714    0.000    4.000    5.143 
#    0.000    0.000    0.000    1.714    0.000    0.000 
#    0.000    0.000    0.000    0.000    0.000    0.000 
#
# Total GULP energy -155939.127429 kJ/mol
# GULP energy per Si atom -5569.254551 kJ/mol
# Density = 2.011723 g / cm^3
# Si number density = 20.163121 Si / 1000 Ang^3
#
#
#
# Elastic Constant Matrix: (Units=GPa)
#
#
# Indices 1 2 3 4 5 6 
#
# 1 80.0274 50.5893 39.4023 0.0000 0.0000 -4.3109
# 2 50.5893 80.0274 39.4023 0.0000 0.0000 4.3109
# 3 39.4023 39.4023 169.3830 0.0000 0.0000 0.0000
# 4 0.0000 0.0000 0.0000 32.1764 0.0000 0.0000
# 5 0.0000 0.0000 0.0000 0.0000 32.1764 0.0000
# 6 -4.3109 4.3109 0.0000 0.0000 0.0000 32.9332
#
#
#
# Elastic Compliance Matrix: (Units=1/GPa)
#
#
# Indices 1 2 3 4 5 6 
#
# 1 0.022115 -0.013209 -0.002072 0.000000 0.000000 0.004624
# 2 -0.013209 0.022115 -0.002072 0.000000 0.000000 -0.004624
# 3 -0.002072 -0.002072 0.006868 0.000000 0.000000 0.000000
# 4 0.000000 0.000000 0.000000 0.031079 0.000000 0.000000
# 5 0.000000 0.000000 0.000000 0.000000 0.031079 0.000000
# 6 0.004624 -0.004624 0.000000 0.000000 0.000000 0.031575
#
#
# Mechanical properties :
#
#
# Convention : Reuss Voigt Hill
#
# Bulk Modulus (GPa) = 61.00313 65.35838 63.18076
# Shear Modulus (GPa) = 27.02725 32.79346 29.91036
#
# Velocity S-wave (km/s) = 3.66516 4.03725 3.85570
# Velocity P-wave (km/s) = 6.94490 7.36327 7.15714
#
# Compressibility (1/GPa) = 0.01639260
#
# Stress axis : x y z
#
# Youngs Moduli (GPa) = 45.21854 45.21854 145.61048
#
# Poissons Ratio (x) = 0.59729 0.30166
# Poissons Ratio (y) = 0.59729 0.30166
# Poissons Ratio (z) = 0.09368 0.09368
#
# Static dielectric constant tensor:
#      x y z
#    x 1.747840 0.000000 0.000000 
#    y 0.000000 1.747840 0.000000 
#    z 0.000000 0.000000 1.744640 
# 
# From -- ./inp_files/5646.got.cif
#   From: 2010.05.17/outbox.cif.g08.bks.cpg/sg87_3_cif.got.tgz:5646.got - 2010.06.03 19:07:00.
