data_PCOD9546215
_publ_section_title
;
Structure prediction by ZEFSAII (Michael W. Deem and Ramdas Pophale) SiO2 
 PCOD9546215
Probable space group: I 41/A
;
_chemical_formula_sum "Si O2"
_cell_formula_units_Z 88
_cell_length_a 16.902767
_cell_length_b 16.902767
_cell_length_c 13.513120
_cell_angle_alpha 90.000000
_cell_angle_beta 90.000000
_cell_angle_gamma 90.000000
_cell_volume 3860.746116
_symmetry_space_group_name_H-M "I 41/A"
_symmetry_group_IT_number 88
_space_group.IT_coordinate_system_code '2'
_symmetry_cell_setting 'tetragonal'
loop_
_space_group_symop_operation_xyz
x,y,z
3/4-y,1/4+x,1/4+z
-x,1/2-y,z
1/4+y,1/4-x,1/4+z
-x,-y,-z
1/4+y,3/4-x,3/4-z
x,1/2+y,-z
3/4-y,3/4+x,3/4-z
1/2+x,1/2+y,1/2+z
1/4-y,3/4+x,3/4+z
1/2-x,-y,1/2+z
3/4+y,3/4-x,3/4+z
1/2-x,1/2-y,1/2-z
3/4+y,1/4-x,1/4-z
1/2+x,y,1/2-z
1/4-y,1/4+x,1/4-z
loop_
_atom_site_type_symbol
_atom_site_label
_atom_site_fract_x
_atom_site_fract_y
_atom_site_fract_z
Si Si1 0.816734 0.337503 0.282748
Si Si2 0.259004 0.665915 0.505468
Si Si3 0.000000 0.250000 0.394925
Si Si4 0.737200 0.153328 0.445728
Si Si5 0.439379 0.151152 0.822919
Si Si6 0.369928 0.155992 0.174887
O O1 0.762400 0.352414 0.379382
O O2 0.878467 0.409950 0.281499
O O3 0.784142 0.343785 0.170822
O O4 0.843404 0.244915 0.289333
O O5 0.263201 0.760469 0.506542
O O6 0.181542 0.645114 0.439772
O O7 0.930864 0.283812 0.464562
O O8 0.962303 0.177327 0.336797
O O9 0.668923 0.108005 0.503777
O O10 0.829526 0.131900 0.430120
O O11 0.394876 0.227657 0.867271
#
# Coordination Sequence:
#
# PCOD9546215 Si02
#       6
#    16  16   8  16  16  16
#     4  11  22  40  65  94 139 178 222 277 336 399
#     4  11  22  42  67  98 133 178 229 279 338 402
#     4  10  17  38  67  98 116 176 220 273 321 406
#     4  11  22  38  64  97 136 176 220 278 339 390
#     4   9  20  40  71  91 131 167 224 275 342 392
#     4  11  22  38  67  99 135 175 224 274 330 407
#
# _framework density 22.793520000000001
#
# number of rings (size 3 to 8) (size 9 to 14) (size 15 to 20)
#    0.000    1.636    3.636    5.455    0.000    0.000 
#    0.000    8.182    0.000    0.000    0.000    0.000 
#    0.000    0.000    0.000    0.000    0.000    0.000 
#
# Total GULP energy -245016.715691 kJ/mol
# GULP energy per Si atom -5568.561720 kJ/mol
# Density = 2.274164 g / cm^3
# Si number density = 22.793520 Si / 1000 Ang^3
#
#
#
# Elastic Constant Matrix: (Units=GPa)
#
#
# Indices 1 2 3 4 5 6 
#
# 1 93.0940 38.9566 21.2079 0.0000 0.0000 -2.8441
# 2 38.9566 93.0940 21.2079 0.0000 0.0000 2.8441
# 3 21.2079 21.2079 57.9338 0.0000 0.0000 0.0000
# 4 0.0000 0.0000 0.0000 30.5699 0.0000 0.0000
# 5 0.0000 0.0000 0.0000 0.0000 30.5699 0.0000
# 6 -2.8441 2.8441 0.0000 0.0000 0.0000 37.8742
#
#
#
# Elastic Compliance Matrix: (Units=1/GPa)
#
#
# Indices 1 2 3 4 5 6 
#
# 1 0.013600 -0.005018 -0.003142 0.000000 0.000000 0.001398
# 2 -0.005018 0.013600 -0.003142 0.000000 0.000000 -0.001398
# 3 -0.003142 -0.003142 0.019561 0.000000 0.000000 0.000000
# 4 0.000000 0.000000 0.000000 0.032712 0.000000 0.000000
# 5 0.000000 0.000000 0.000000 0.000000 0.032712 0.000000
# 6 0.001398 -0.001398 0.000000 0.000000 0.000000 0.026613
#
#
# Mechanical properties :
#
#
# Convention : Reuss Voigt Hill
#
# Bulk Modulus (GPa) = 41.39302 45.20743 43.30023
# Shear Modulus (GPa) = 29.50646 30.65275 30.07961
#
# Velocity S-wave (km/s) = 3.60183 3.67113 3.63665
# Velocity P-wave (km/s) = 5.95794 6.15192 6.05571
#
# Compressibility (1/GPa) = 0.02415866
#
# Stress axis : x y z
#
# Youngs Moduli (GPa) = 73.52840 73.52840 51.12160
#
# Poissons Ratio (x) = 0.36898 0.16060
# Poissons Ratio (y) = 0.36898 0.16060
# Poissons Ratio (z) = 0.23100 0.23100
#
# Static dielectric constant tensor:
#      x y z
#    x 2.095000 0.000000 0.000000 
#    y 0.000000 2.095000 0.000000 
#    z 0.000000 0.000000 1.872000 
# 
# From -- ./inp_files/3226.got.cif
#   From: 2010.05.17/outbox.cif.g08.bks.cpg/sg88_2_cif.got.tgz:3226.got - 2010.06.03 19:11:41.
