data_PCOD9546168
_publ_section_title
;
Structure prediction by ZEFSAII (Michael W. Deem and Ramdas Pophale) SiO2 
 PCOD9546168
Probable space group: I 4/M
;
_chemical_formula_sum "Si O2"
_cell_formula_units_Z 96
_cell_length_a 14.861657
_cell_length_b 14.861657
_cell_length_c 22.280655
_cell_angle_alpha 90.000000
_cell_angle_beta 90.000000
_cell_angle_gamma 90.000000
_cell_volume 4921.102620
_symmetry_space_group_name_H-M "I 4/M"
_symmetry_group_IT_number 87
_symmetry_cell_setting 'tetragonal'
loop_
_space_group_symop_operation_xyz
x,y,z
-y,x,z
-x,-y,z
y,-x,z
-x,-y,-z
y,-x,-z
x,y,-z
-y,x,-z
1/2+x,1/2+y,1/2+z
1/2-y,1/2+x,1/2+z
1/2-x,1/2-y,1/2+z
1/2+y,1/2-x,1/2+z
1/2-x,1/2-y,1/2-z
1/2+y,1/2-x,1/2-z
1/2+x,1/2+y,1/2-z
1/2-y,1/2+x,1/2-z
loop_
_atom_site_type_symbol
_atom_site_label
_atom_site_fract_x
_atom_site_fract_y
_atom_site_fract_z
Si Si1 0.102396 0.611698 0.870973
Si Si2 0.344035 0.201158 0.249652
Si Si3 0.603356 0.114189 0.000000
Si Si4 0.110755 0.396154 0.500000
Si Si5 0.053124 0.143090 0.935570
Si Si6 0.644274 0.450763 0.301262
Si Si7 0.602867 0.111738 0.869968
O O1 0.146530 0.649851 0.811709
O O2 0.132657 0.650642 0.935839
O O3 0.121545 0.505044 0.870871
O O4 0.995138 0.621115 0.867664
O O5 0.250000 0.250000 0.250000
O O6 0.421182 0.277507 0.256502
O O7 0.348357 0.140043 0.308843
O O8 0.494832 0.130171 0.000000
O O9 0.637191 0.146867 0.934938
O O10 0.611554 0.005191 0.000000
O O11 0.066175 0.181779 0.869173
O O12 0.949105 0.110766 0.936192
O O13 0.069718 0.190138 0.000000
O O14 0.610152 0.553695 0.295276
#
# Coordination Sequence:
#
# PCOD9546168 Si02
#       7
#    16  16   8   8  16  16  16
#     4   9  18  35  61  82 105 138 172 223 273 328
#     4  12  25  33  49  79 114 141 177 221 260 307
#     4   7  12  28  55  84 106 129 168 214 262 331
#     4   7  12  28  57  84 100 129 174 210 270 333
#     4   7  10  22  47  70  86 117 169 212 241 286
#     4   9  20  37  53  68  97 144 184 218 259 309
#     4   9  18  35  59  84 107 137 174 216 275 326
#
# _framework density 19.507825
#
# number of rings (size 3 to 8) (size 9 to 14) (size 15 to 20)
#    0.000    3.167    0.000    4.500    4.667    1.333 
#    1.500    0.833    0.000    0.000    0.000    0.000 
#    0.000    1.333    0.000    0.000    0.000    0.000 
#
# Total GULP energy -267591.332078 kJ/mol
# GULP energy per Si atom -5574.819418 kJ/mol
# Density = 1.946342 g / cm^3
# Si number density = 19.507825 Si / 1000 Ang^3
#
#
#
# Elastic Constant Matrix: (Units=GPa)
#
#
# Indices 1 2 3 4 5 6 
#
# 1 27.0390 0.5825 24.7390 0.0000 0.0000 3.4958
# 2 0.5825 27.0390 24.7390 0.0000 0.0000 -3.4958
# 3 24.7390 24.7390 189.4715 0.0000 0.0000 0.0000
# 4 0.0000 0.0000 0.0000 6.6769 0.0000 0.0000
# 5 0.0000 0.0000 0.0000 0.0000 6.6769 0.0000
# 6 3.4958 -3.4958 0.0000 0.0000 0.0000 12.5574
#
#
#
# Elastic Compliance Matrix: (Units=1/GPa)
#
#
# Indices 1 2 3 4 5 6 
#
# 1 0.044028 0.003228 -0.006170 0.000000 0.000000 -0.011358
# 2 0.003228 0.044028 -0.006170 0.000000 0.000000 0.011358
# 3 -0.006170 -0.006170 0.006889 0.000000 0.000000 0.000000
# 4 0.000000 0.000000 0.000000 0.149770 0.000000 0.000000
# 5 0.000000 0.000000 0.000000 0.000000 0.149770 0.000000
# 6 -0.011358 0.011358 0.000000 0.000000 0.000000 0.085958
#
#
# Mechanical properties :
#
#
# Convention : Reuss Voigt Hill
#
# Bulk Modulus (GPa) = 13.03426 38.18561 25.60993
# Shear Modulus (GPa) = 9.53759 18.08150 13.80954
#
# Velocity S-wave (km/s) = 2.21353 3.04778 2.66352
# Velocity P-wave (km/s) = 3.63717 5.65706 4.75559
#
# Compressibility (1/GPa) = 0.07672087
#
# Stress axis : x y z
#
# Youngs Moduli (GPa) = 22.71288 22.71288 145.15685
#
# Poissons Ratio (x) = -0.07332 0.89564
# Poissons Ratio (y) = -0.07332 0.89564
# Poissons Ratio (z) = 0.14014 0.14014
#
# Static dielectric constant tensor:
#      x y z
#    x 1.688940 0.000000 0.000000 
#    y 0.000000 1.688940 0.000000 
#    z 0.000000 0.000000 1.783470 
# 
# From -- ./inp_files/5350.got.cif
#   From: 2010.05.17/outbox.cif.g08.bks.cpg/sg87_3_cif.got.tgz:5350.got - 2010.06.03 19:07:00.
