data_PCOD9546555
_publ_section_title
;
Structure prediction by ZEFSAII (Michael W. Deem and Ramdas Pophale) SiO2 
 PCOD9546555
Probable space group: I 41/A
;
_chemical_formula_sum "Si O2"
_cell_formula_units_Z 92
_cell_length_a 13.964265
_cell_length_b 13.964265
_cell_length_c 23.176735
_cell_angle_alpha 90.000000
_cell_angle_beta 90.000000
_cell_angle_gamma 90.000000
_cell_volume 4519.479479
_symmetry_space_group_name_H-M "I 41/A"
_symmetry_group_IT_number 88
_space_group.IT_coordinate_system_code '2'
_symmetry_cell_setting 'tetragonal'
loop_
_space_group_symop_operation_xyz
x,y,z
3/4-y,1/4+x,1/4+z
-x,1/2-y,z
1/4+y,1/4-x,1/4+z
-x,-y,-z
1/4+y,3/4-x,3/4-z
x,1/2+y,-z
3/4-y,3/4+x,3/4-z
1/2+x,1/2+y,1/2+z
1/4-y,3/4+x,3/4+z
1/2-x,-y,1/2+z
3/4+y,3/4-x,3/4+z
1/2-x,1/2-y,1/2-z
3/4+y,1/4-x,1/4-z
1/2+x,y,1/2-z
1/4-y,1/4+x,1/4-z
loop_
_atom_site_type_symbol
_atom_site_label
_atom_site_fract_x
_atom_site_fract_y
_atom_site_fract_z
Si Si1 0.000000 0.250000 0.125000
Si Si2 0.921534 0.613989 0.301188
Si Si3 0.885940 0.923401 0.156147
Si Si4 0.806932 0.133348 0.590186
Si Si5 0.000000 0.750000 0.535543
Si Si6 0.050474 0.948903 0.944039
Si Si7 0.750690 0.502312 0.249272
O O1 0.093664 0.230377 0.167805
O O2 0.891329 0.644088 0.364635
O O3 0.839675 0.542983 0.282449
O O4 0.022668 0.561386 0.301514
O O5 0.924057 0.701267 0.257235
O O6 0.794957 0.878455 0.121866
O O7 0.836552 0.995051 0.203616
O O8 0.947759 0.835246 0.180595
O O9 0.951683 0.982515 0.111990
O O10 0.820053 0.040400 0.550876
O O11 0.159353 0.959368 0.966671
O O12 0.000000 0.000000 0.000000
#
# Coordination Sequence:
#
# PCOD9546555 Si02
#       7
#     4  16  16  16   8  16  16
#     4  12  28  46  84 112 138 192 260 292 370 456
#     4  11  23  37  65  92 133 176 224 274 346 414
#     4  10  24  43  64 102 140 180 232 287 354 428
#     4  10  22  40  62  92 134 176 223 275 345 416
#     4  12  24  38  66 100 137 175 234 284 340 432
#     4  11  26  47  74 102 142 182 238 304 365 424
#     4  10  23  44  66  94 137 182 224 289 350 417
#
# _framework density 20.356325999999999
#
# number of rings (size 3 to 8) (size 9 to 14) (size 15 to 20)
#    0.000    1.391    1.739    2.087    4.870    6.261 
#    0.000    0.000    0.000    0.000    0.000    0.000 
#    0.000    0.000    0.000    0.000    0.000    0.000 
#
# Total GULP energy -256116.287105 kJ/mol
# GULP energy per Si atom -5567.745372 kJ/mol
# Density = 2.030999 g / cm^3
# Si number density = 20.356326 Si / 1000 Ang^3
#
#
#
# Elastic Constant Matrix: (Units=GPa)
#
#
# Indices 1 2 3 4 5 6 
#
# 1 75.9490 47.3602 40.8472 0.0000 0.0000 -3.5321
# 2 47.3602 75.9490 40.8472 0.0000 0.0000 3.5321
# 3 40.8472 40.8472 97.2132 0.0000 0.0000 0.0000
# 4 0.0000 0.0000 0.0000 45.9377 0.0000 0.0000
# 5 0.0000 0.0000 0.0000 0.0000 45.9377 0.0000
# 6 -3.5321 3.5321 0.0000 0.0000 0.0000 11.9717
#
#
#
# Elastic Compliance Matrix: (Units=1/GPa)
#
#
# Indices 1 2 3 4 5 6 
#
# 1 0.024484 -0.013246 -0.004722 0.000000 0.000000 0.011132
# 2 -0.013246 0.024484 -0.004722 0.000000 0.000000 -0.011132
# 3 -0.004722 -0.004722 0.014255 0.000000 0.000000 0.000000
# 4 0.000000 0.000000 0.000000 0.021769 0.000000 0.000000
# 5 0.000000 0.000000 0.000000 0.000000 0.021769 0.000000
# 6 0.011132 -0.011132 0.000000 0.000000 0.000000 0.090099
#
#
# Mechanical properties :
#
#
# Convention : Reuss Voigt Hill
#
# Bulk Modulus (GPa) = 56.04454 56.35782 56.20118
# Shear Modulus (GPa) = 20.14621 28.77320 24.45971
#
# Velocity S-wave (km/s) = 3.14933 3.76370 3.47014
# Velocity P-wave (km/s) = 6.38873 6.82884 6.61245
#
# Compressibility (1/GPa) = 0.01784295
#
# Stress axis : x y z
#
# Youngs Moduli (GPa) = 40.84339 40.84339 70.15126
#
# Poissons Ratio (x) = 0.54100 0.33126
# Poissons Ratio (y) = 0.54100 0.33126
# Poissons Ratio (z) = 0.19286 0.19286
#
# Static dielectric constant tensor:
#      x y z
#    x 1.737210 0.000000 0.000000 
#    y 0.000000 1.737210 0.000000 
#    z 0.000000 0.000000 1.800130 
# 
# From -- ./inp_files/4750.got.cif
#   From: 2010.05.17/outbox.cif.g08.bks.cpg/sg88_3_cif.got.tgz:4750.got - 2010.06.03 19:11:41.
