data_PCOD9546813
_publ_section_title
;
Structure prediction by ZEFSAII (Michael W. Deem and Ramdas Pophale) SiO2 
 PCOD9546813
Probable space group: I 41/A
;
_chemical_formula_sum "Si O2"
_cell_formula_units_Z 52
_cell_length_a 16.303483
_cell_length_b 16.303483
_cell_length_c 8.085662
_cell_angle_alpha 90.000000
_cell_angle_beta 90.000000
_cell_angle_gamma 90.000000
_cell_volume 2149.197728
_symmetry_space_group_name_H-M "I 41/A"
_symmetry_group_IT_number 88
_space_group.IT_coordinate_system_code '2'
_symmetry_cell_setting 'tetragonal'
loop_
_space_group_symop_operation_xyz
x,y,z
3/4-y,1/4+x,1/4+z
-x,1/2-y,z
1/4+y,1/4-x,1/4+z
-x,-y,-z
1/4+y,3/4-x,3/4-z
x,1/2+y,-z
3/4-y,3/4+x,3/4-z
1/2+x,1/2+y,1/2+z
1/4-y,3/4+x,3/4+z
1/2-x,-y,1/2+z
3/4+y,3/4-x,3/4+z
1/2-x,1/2-y,1/2-z
3/4+y,1/4-x,1/4-z
1/2+x,y,1/2-z
1/4-y,1/4+x,1/4-z
loop_
_atom_site_type_symbol
_atom_site_label
_atom_site_fract_x
_atom_site_fract_y
_atom_site_fract_z
Si Si1 0.749995 0.101962 0.990720
Si Si2 0.000000 0.250000 0.125000
Si Si3 0.397535 0.821936 0.163383
Si Si4 0.053308 0.583789 0.015766
O O1 0.817353 0.130106 0.122700
O O2 0.690730 0.040373 0.085778
O O3 0.689223 0.171976 0.926063
O O4 0.914610 0.248480 0.223005
O O5 0.475633 0.841340 0.044591
O O6 0.404271 0.887424 0.312549
O O7 0.000000 0.500000 0.000000
#
# Coordination Sequence:
#
# PCOD9546813 Si02
#       4
#    16   4  16  16
#     4  12  27  48  74 112 160 207 267 338 399 487
#     4  12  28  48  86 108 168 212 262 344 408 504
#     4  11  25  48  78 113 158 209 266 336 407 487
#     4  12  26  48  78 120 156 211 272 330 415 487
#
# _framework density 24.195074999999999
#
# number of rings (size 3 to 8) (size 9 to 14) (size 15 to 20)
#    0.000    0.308    3.077    5.538    4.308    3.692 
#    0.000    0.000    0.000    0.000    0.000    0.000 
#    0.000    0.000    0.000    0.000    0.000    0.000 
#
# Total GULP energy -145360.975447 kJ/mol
# GULP energy per Si atom -5590.806748 kJ/mol
# Density = 2.414001 g / cm^3
# Si number density = 24.195075 Si / 1000 Ang^3
#
#
#
# Elastic Constant Matrix: (Units=GPa)
#
#
# Indices 1 2 3 4 5 6 
#
# 1 93.0268 16.6796 19.5178 0.0000 0.0000 -10.8568
# 2 16.6796 93.0268 19.5178 0.0000 0.0000 10.8568
# 3 19.5178 19.5178 68.7023 0.0000 0.0000 0.0000
# 4 0.0000 0.0000 0.0000 43.7497 0.0000 0.0000
# 5 0.0000 0.0000 0.0000 0.0000 43.7497 0.0000
# 6 -10.8568 10.8568 0.0000 0.0000 0.0000 43.9231
#
#
#
# Elastic Compliance Matrix: (Units=1/GPa)
#
#
# Indices 1 2 3 4 5 6 
#
# 1 0.012114 -0.001974 -0.002881 0.000000 0.000000 0.003482
# 2 -0.001974 0.012114 -0.002881 0.000000 0.000000 -0.003482
# 3 -0.002881 -0.002881 0.016192 0.000000 0.000000 0.000000
# 4 0.000000 0.000000 0.000000 0.022857 0.000000 0.000000
# 5 0.000000 0.000000 0.000000 0.000000 0.022857 0.000000
# 6 0.003482 -0.003482 0.000000 0.000000 0.000000 0.024489
#
#
# Mechanical properties :
#
#
# Convention : Reuss Voigt Hill
#
# Bulk Modulus (GPa) = 40.08043 40.68734 40.38389
# Shear Modulus (GPa) = 37.19902 39.55388 38.37645
#
# Velocity S-wave (km/s) = 3.92530 4.04764 3.98694
# Velocity P-wave (km/s) = 6.09471 6.22072 6.15804
#
# Compressibility (1/GPa) = 0.02494983
#
# Stress axis : x y z
#
# Youngs Moduli (GPa) = 82.54671 82.54671 61.75749
#
# Poissons Ratio (x) = 0.16295 0.17791
# Poissons Ratio (y) = 0.16295 0.17791
# Poissons Ratio (z) = 0.23780 0.23780
#
# Static dielectric constant tensor:
#      x y z
#    x 1.923520 0.000000 0.000000 
#    y 0.000000 1.923520 0.000000 
#    z 0.000000 0.000000 1.968900 
# 
# From -- ./inp_files/1200.got.cif
#   From: 2010.05.17/outbox.cif.g08.bks.cpg/sg88_1_cif.got.tgz:1200.got - 2010.06.03 19:11:41.
