data_PCOD9546245
_publ_section_title
;
Structure prediction by ZEFSAII (Michael W. Deem and Ramdas Pophale) SiO2 
 PCOD9546245
Probable space group: I 41/A
;
_chemical_formula_sum "Si O2"
_cell_formula_units_Z 120
_cell_length_a 18.492469
_cell_length_b 18.492469
_cell_length_c 17.987939
_cell_angle_alpha 90.000000
_cell_angle_beta 90.000000
_cell_angle_gamma 90.000000
_cell_volume 6151.360858
_symmetry_space_group_name_H-M "I 41/A"
_symmetry_group_IT_number 88
_space_group.IT_coordinate_system_code '2'
_symmetry_cell_setting 'tetragonal'
loop_
_space_group_symop_operation_xyz
x,y,z
3/4-y,1/4+x,1/4+z
-x,1/2-y,z
1/4+y,1/4-x,1/4+z
-x,-y,-z
1/4+y,3/4-x,3/4-z
x,1/2+y,-z
3/4-y,3/4+x,3/4-z
1/2+x,1/2+y,1/2+z
1/4-y,3/4+x,3/4+z
1/2-x,-y,1/2+z
3/4+y,3/4-x,3/4+z
1/2-x,1/2-y,1/2-z
3/4+y,1/4-x,1/4-z
1/2+x,y,1/2-z
1/4-y,1/4+x,1/4-z
loop_
_atom_site_type_symbol
_atom_site_label
_atom_site_fract_x
_atom_site_fract_y
_atom_site_fract_z
Si Si1 0.354097 0.241102 0.190472
Si Si2 0.000000 0.750000 0.148090
Si Si3 0.343732 0.729403 0.326379
Si Si4 0.716250 0.534838 0.159505
Si Si5 0.372196 0.019664 0.423327
Si Si6 0.886567 0.999749 0.459827
Si Si7 0.349718 0.898497 0.825661
Si Si8 0.395310 0.291482 0.355617
O O1 0.430994 0.225754 0.151694
O O2 0.290314 0.183435 0.188082
O O3 0.329020 0.316516 0.152690
O O4 0.371272 0.259972 0.275961
O O5 0.071794 0.767961 0.193681
O O6 0.306883 0.807775 0.325922
O O7 0.299620 0.682462 0.266484
O O8 0.342328 0.684537 0.404295
O O9 0.723606 0.448722 0.158277
O O10 0.712650 0.574602 0.238830
O O11 0.650622 0.549072 0.103315
O O12 0.790636 0.560789 0.122523
O O13 0.347125 0.071098 0.491931
O O14 0.407314 0.079476 0.368046
O O15 0.470267 0.335435 0.347149
#
# Coordination Sequence:
#
# PCOD9546245 Si02
#       8
#    16   8  16  16  16  16  16  16
#     4  10  21  36  54  78 118 156 191 238 302 352
#     4  10  18  38  59  81 112 154 204 242 296 380
#     4   9  20  38  63  81 116 158 200 246 316 352
#     4  11  21  37  61  88 119 153 205 250 307 359
#     4  11  22  34  59  84 117 159 199 246 291 362
#     4  10  21  40  60  87 120 158 196 259 310 371
#     4   9  19  37  56  83 112 155 189 245 293 361
#     4  10  21  34  50  78 115 155 189 239 287 350
#
# _framework density 19.507878999999999
#
# number of rings (size 3 to 8) (size 9 to 14) (size 15 to 20)
#    0.000    2.000    1.333    3.200    3.733    0.000 
#    0.000    6.667    0.000    0.000    0.000    0.000 
#    0.000    0.000    0.000    0.000    0.000    0.000 
#
# Total GULP energy -334071.448969 kJ/mol
# GULP energy per Si atom -5567.857483 kJ/mol
# Density = 1.946348 g / cm^3
# Si number density = 19.507879 Si / 1000 Ang^3
#
#
#
# Elastic Constant Matrix: (Units=GPa)
#
#
# Indices 1 2 3 4 5 6 
#
# 1 94.4596 36.4077 25.9137 0.0000 0.0000 5.1854
# 2 36.4077 94.4596 25.9137 0.0000 0.0000 -5.1854
# 3 25.9137 25.9137 38.2557 0.0000 0.0000 0.0000
# 4 0.0000 0.0000 0.0000 19.5583 0.0000 0.0000
# 5 0.0000 0.0000 0.0000 0.0000 19.5583 0.0000
# 6 5.1854 -5.1854 0.0000 0.0000 0.0000 25.1493
#
#
#
# Elastic Compliance Matrix: (Units=1/GPa)
#
#
# Indices 1 2 3 4 5 6 
#
# 1 0.014164 -0.003721 -0.007074 0.000000 0.000000 -0.003688
# 2 -0.003721 0.014164 -0.007074 0.000000 0.000000 0.003688
# 3 -0.007074 -0.007074 0.035723 0.000000 0.000000 0.000000
# 4 0.000000 0.000000 0.000000 0.051129 0.000000 0.000000
# 5 0.000000 0.000000 0.000000 0.000000 0.051129 0.000000
# 6 -0.003688 0.003688 0.000000 0.000000 0.000000 0.041283
#
#
# Mechanical properties :
#
#
# Convention : Reuss Voigt Hill
#
# Bulk Modulus (GPa) = 35.31858 44.84946 40.08402
# Shear Modulus (GPa) = 19.78105 22.11582 20.94844
#
# Velocity S-wave (km/s) = 3.18780 3.37068 3.28051
# Velocity P-wave (km/s) = 5.62970 6.17972 5.91111
#
# Compressibility (1/GPa) = 0.02831371
#
# Stress axis : x y z
#
# Youngs Moduli (GPa) = 70.60288 70.60288 27.99309
#
# Poissons Ratio (x) = 0.26271 0.19802
# Poissons Ratio (y) = 0.26271 0.19802
# Poissons Ratio (z) = 0.49942 0.49942
#
# Static dielectric constant tensor:
#      x y z
#    x 1.740410 0.000000 0.000000 
#    y 0.000000 1.740410 0.000000 
#    z 0.000000 0.000000 1.693590 
# 
# From -- ./inp_files/4868.got.cif
#   From: 2010.05.17/outbox.cif.g08.bks.cpg/sg88_3_cif.got.tgz:4868.got - 2010.06.03 19:11:41.
