data_PCOD9546097
_publ_section_title
;
Structure prediction by ZEFSAII (Michael W. Deem and Ramdas Pophale) SiO2 
 PCOD9546097
Probable space group: I 4/M
;
_chemical_formula_sum "Si O2"
_cell_formula_units_Z 56
_cell_length_a 10.146144
_cell_length_b 10.146144
_cell_length_c 30.207536
_cell_angle_alpha 90.000000
_cell_angle_beta 90.000000
_cell_angle_gamma 90.000000
_cell_volume 3109.691777
_symmetry_space_group_name_H-M "I 4/M"
_symmetry_group_IT_number 87
_symmetry_cell_setting 'tetragonal'
loop_
_space_group_symop_operation_xyz
x,y,z
-y,x,z
-x,-y,z
y,-x,z
-x,-y,-z
y,-x,-z
x,y,-z
-y,x,-z
1/2+x,1/2+y,1/2+z
1/2-y,1/2+x,1/2+z
1/2-x,1/2-y,1/2+z
1/2+y,1/2-x,1/2+z
1/2-x,1/2-y,1/2-z
1/2+y,1/2-x,1/2-z
1/2+x,1/2+y,1/2-z
1/2-y,1/2+x,1/2-z
loop_
_atom_site_type_symbol
_atom_site_label
_atom_site_fract_x
_atom_site_fract_y
_atom_site_fract_z
Si Si1 0.625708 0.073502 0.324681
Si Si2 0.217229 0.039962 0.751089
Si Si3 0.195421 0.891730 0.500000
Si Si4 0.107985 0.195651 0.596725
O O1 0.571075 0.174896 0.288047
O O2 0.712089 0.141822 0.362288
O O3 0.500000 0.000000 0.344923
O O4 0.713490 0.969142 0.296768
O O5 0.102353 0.147549 0.755017
O O6 0.254139 0.859413 0.548068
O O7 0.049050 0.829117 0.500000
O O8 0.949650 0.171483 0.599539
#
# Coordination Sequence:
#
# PCOD9546097 Si02
#       4
#    16  16   8  16
#     4  12  22  34  51  78 105 138 174 212 259 309
#     4  11  23  38  54  71 101 141 178 218 258 301
#     4   7  12  28  51  78 104 129 166 210 262 311
#     4   9  18  32  55  80 105 136 169 213 264 311
#
# _framework density 18.008213999999999
#
# number of rings (size 3 to 8) (size 9 to 14) (size 15 to 20)
#    0.000    1.857    2.857    4.286    4.000    2.286 
#    0.000    0.714    0.000    0.000    0.000    0.000 
#    0.000    2.286    0.000    0.000    0.000    0.000 
#
# Total GULP energy -156136.772939 kJ/mol
# GULP energy per Si atom -5576.313319 kJ/mol
# Density = 1.796723 g / cm^3
# Si number density = 18.008214 Si / 1000 Ang^3
#
#
#
# Elastic Constant Matrix: (Units=GPa)
#
#
# Indices 1 2 3 4 5 6 
#
# 1 106.5104 -62.7354 10.3577 0.0000 0.0000 48.7293
# 2 -62.7354 106.5104 10.3577 0.0000 0.0000 -48.7293
# 3 10.3577 10.3577 110.3405 0.0000 0.0000 0.0000
# 4 0.0000 0.0000 0.0000 11.9389 0.0000 0.0000
# 5 0.0000 0.0000 0.0000 0.0000 11.9389 0.0000
# 6 48.7293 -48.7293 0.0000 0.0000 0.0000 50.2968
#
#
#
# Elastic Compliance Matrix: (Units=1/GPa)
#
#
# Indices 1 2 3 4 5 6 
#
# 1 0.018635 0.005271 -0.002244 0.000000 0.000000 -0.012948
# 2 0.005271 0.018635 -0.002244 0.000000 0.000000 0.012948
# 3 -0.002244 -0.002244 0.009484 0.000000 0.000000 0.000000
# 4 0.000000 0.000000 0.000000 0.083760 0.000000 0.000000
# 5 0.000000 0.000000 0.000000 0.000000 0.083760 0.000000
# 6 -0.012948 0.012948 0.000000 0.000000 0.000000 0.044971
#
#
# Mechanical properties :
#
#
# Convention : Reuss Voigt Hill
#
# Bulk Modulus (GPa) = 20.69537 26.59125 23.64331
# Shear Modulus (GPa) = 18.26242 39.19370 28.72806
#
# Velocity S-wave (km/s) = 3.18797 4.67029 3.99842
# Velocity P-wave (km/s) = 5.00680 6.62422 5.87147
#
# Compressibility (1/GPa) = 0.04831998
#
# Stress axis : x y z
#
# Youngs Moduli (GPa) = 53.66156 53.66156 105.43899
#
# Poissons Ratio (x) = -0.28284 0.23661
# Poissons Ratio (y) = -0.28284 0.23661
# Poissons Ratio (z) = 0.12042 0.12042
#
# Static dielectric constant tensor:
#      x y z
#    x 1.630940 0.000000 0.000000 
#    y 0.000000 1.630940 0.000000 
#    z 0.000000 0.000000 1.642450 
# 
# From -- ./inp_files/6104.got.cif
#   From: 2010.05.17/outbox.cif.g08.bks.cpg/sg87_4_cif.got.tgz:6104.got - 2010.06.03 19:07:00.
