data_PCOD9546946
_publ_section_title
;
Structure prediction by ZEFSAII (Michael W. Deem and Ramdas Pophale) SiO2 
 PCOD9546946
Probable space group: P 4 2 2
;
_chemical_formula_sum "Si O2"
_cell_formula_units_Z 48
_cell_length_a 13.856536
_cell_length_b 13.856536
_cell_length_c 11.955355
_cell_angle_alpha 90.000000
_cell_angle_beta 90.000000
_cell_angle_gamma 90.000000
_cell_volume 2295.471079
_symmetry_space_group_name_H-M "P 4 2 2"
_symmetry_group_IT_number 89
_symmetry_cell_setting 'tetragonal'
loop_
_space_group_symop_operation_xyz
x,y,z
-y,x,z
-x,-y,z
y,-x,z
x,-y,-z
-x,y,-z
y,x,-z
-y,-x,-z
loop_
_atom_site_type_symbol
_atom_site_label
_atom_site_fract_x
_atom_site_fract_y
_atom_site_fract_z
Si Si1 0.901840 0.236764 0.059795
Si Si2 0.000000 0.161394 0.500000
Si Si3 0.176318 0.652903 0.707139
Si Si4 0.661902 0.290138 0.887162
Si Si5 0.220218 0.566893 0.322843
Si Si6 0.707548 0.962331 0.288404
Si Si7 0.713748 0.286253 0.500000
O O1 0.816871 0.316094 0.063132
O O2 0.926597 0.223085 0.189395
O O3 0.855919 0.144082 0.000000
O O4 0.000000 0.267089 0.000000
O O5 0.015720 0.230314 0.604312
O O6 0.908436 0.091565 0.500000
O O7 0.245308 0.680647 0.811015
O O8 0.197506 0.544702 0.666650
O O9 0.205802 0.716730 0.598171
O O10 0.065474 0.661559 0.742140
O O11 0.580685 0.279859 0.792800
O O12 0.648257 0.351744 0.000000
O O13 0.121010 0.628575 0.309910
O O14 0.275192 0.616367 0.426735
#
# Coordination Sequence:
#
# PCOD9546946 Si02
#       7
#     8   4   8   8   8   8   4
#     4  10  21  37  58  86 119 166 213 254 299 351
#     4  11  28  40  55  84 126 172 209 252 310 363
#     4  11  22  39  63  90 125 156 206 261 320 380
#     4   9  20  38  61  89 121 163 202 248 316 385
#     4  10  22  38  62  94 119 160 202 260 321 375
#     4  11  23  37  65  86 127 158 212 260 308 375
#     4  10  22  38  60  85 119 162 200 250 316 390
#
# _framework density 20.910741999999999
#
# number of rings (size 3 to 8) (size 9 to 14) (size 15 to 20)
#    0.000    1.750    0.000    4.000   11.667    0.833 
#    0.000    2.500    0.000   25.500    0.000    4.667 
#    0.000    0.000    0.000    0.000    0.000    0.000 
#
# Total GULP energy -267944.001092 kJ/mol
# GULP energy per Si atom -5582.166689 kJ/mol
# Density = 2.086315 g / cm^3
# Si number density = 20.910742 Si / 1000 Ang^3
#
#
#
# Elastic Constant Matrix: (Units=GPa)
#
#
# Indices 1 2 3 4 5 6 
#
# 1 64.2327 29.9094 21.3059 0.0000 0.0000 0.0000
# 2 29.9094 64.2325 21.3055 0.0000 0.0000 0.0000
# 3 21.3059 21.3055 145.9226 0.0000 0.0000 0.0000
# 4 0.0000 0.0000 0.0000 36.9713 0.0000 0.0000
# 5 0.0000 0.0000 0.0000 0.0000 36.9599 0.0000
# 6 0.0000 0.0000 0.0000 0.0000 0.0000 12.1705
#
#
#
# Elastic Compliance Matrix: (Units=1/GPa)
#
#
# Indices 1 2 3 4 5 6 
#
# 1 0.020254 -0.008880 -0.001661 0.000000 0.000000 0.000000
# 2 -0.008880 0.020254 -0.001661 0.000000 0.000000 0.000000
# 3 -0.001661 -0.001661 0.007338 0.000000 0.000000 0.000000
# 4 0.000000 0.000000 0.000000 0.027048 0.000000 0.000000
# 5 0.000000 0.000000 0.000000 0.000000 0.027056 0.000000
# 6 0.000000 0.000000 0.000000 0.000000 0.000000 0.082166
#
#
# Mechanical properties :
#
#
# Convention : Reuss Voigt Hill
#
# Bulk Modulus (GPa) = 42.65658 46.60328 44.62993
# Shear Modulus (GPa) = 23.11236 30.67815 26.89526
#
# Velocity S-wave (km/s) = 3.32819 3.83443 3.59024
# Velocity P-wave (km/s) = 5.93404 6.47603 6.21095
#
# Compressibility (1/GPa) = 0.02344304
#
# Stress axis : x y z
#
# Youngs Moduli (GPa) = 49.37214 49.37208 136.27905
#
# Poissons Ratio (x) = 0.43845 0.22632
# Poissons Ratio (y) = 0.43845 0.22631
# Poissons Ratio (z) = 0.08199 0.08199
#
# Static dielectric constant tensor:
#      x y z
#    x 1.718480 0.000000 0.000000 
#    y 0.000000 1.718480 0.000000 
#    z 0.000000 0.000000 1.775700 
# 
# From -- ./inp_files/1814.got.cif
#   From: 2010.05.17/outbox.cif.g08.bks.cpg/sg89_1_cif.got.tgz:1814.got - 2010.06.03 19:15:31.
