data_PCOD9546579
_publ_section_title
;
Structure prediction by ZEFSAII (Michael W. Deem and Ramdas Pophale) SiO2 
 PCOD9546579
Probable space group: I 41/A
;
_chemical_formula_sum "Si O2"
_cell_formula_units_Z 64
_cell_length_a 21.590713
_cell_length_b 21.590713
_cell_length_c 6.308542
_cell_angle_alpha 90.000000
_cell_angle_beta 90.000000
_cell_angle_gamma 90.000000
_cell_volume 2940.782923
_symmetry_space_group_name_H-M "I 41/A"
_symmetry_group_IT_number 88
_space_group.IT_coordinate_system_code '2'
_symmetry_cell_setting 'tetragonal'
loop_
_space_group_symop_operation_xyz
x,y,z
3/4-y,1/4+x,1/4+z
-x,1/2-y,z
1/4+y,1/4-x,1/4+z
-x,-y,-z
1/4+y,3/4-x,3/4-z
x,1/2+y,-z
3/4-y,3/4+x,3/4-z
1/2+x,1/2+y,1/2+z
1/4-y,3/4+x,3/4+z
1/2-x,-y,1/2+z
3/4+y,3/4-x,3/4+z
1/2-x,1/2-y,1/2-z
3/4+y,1/4-x,1/4-z
1/2+x,y,1/2-z
1/4-y,1/4+x,1/4-z
loop_
_atom_site_type_symbol
_atom_site_label
_atom_site_fract_x
_atom_site_fract_y
_atom_site_fract_z
Si Si1 0.485788 0.900396 0.370660
Si Si2 0.401649 0.116906 0.910361
Si Si3 0.211924 0.698824 0.969170
Si Si4 0.793567 0.420662 0.334518
O O1 0.422711 0.866304 0.314358
O O2 0.542441 0.867946 0.249511
O O3 0.503066 0.912826 0.615368
O O4 0.478553 0.970408 0.280528
O O5 0.344728 0.093405 0.767394
O O6 0.424307 0.060956 0.057770
O O7 0.213338 0.640565 0.808432
O O8 0.728291 0.435768 0.443361
#
# Coordination Sequence:
#
# PCOD9546579 Si02
#       4
#    16  16  16  16
#     4  10  23  39  63  91 121 166 213 264 314 378
#     4  11  23  42  63  88 127 165 215 261 315 377
#     4  10  22  42  63  89 126 168 211 257 321 381
#     4  11  25  37  62  98 128 163 203 259 323 387
#
# _framework density 21.762913000000001
#
# number of rings (size 3 to 8) (size 9 to 14) (size 15 to 20)
#    0.000    1.500    0.000    3.750    7.000    8.500 
#    0.000    0.000    0.000    0.000    0.000    0.000 
#    0.000    0.000    0.000    0.000    0.000    0.000 
#
# Total GULP energy -179039.204337 kJ/mol
# GULP energy per Si atom -5594.975136 kJ/mol
# Density = 2.171338 g / cm^3
# Si number density = 21.762913 Si / 1000 Ang^3
#
#
#
# Elastic Constant Matrix: (Units=GPa)
#
#
# Indices 1 2 3 4 5 6 
#
# 1 53.3401 5.5777 -1.7573 0.0000 0.0000 7.2017
# 2 5.5777 53.3401 -1.7573 0.0000 0.0000 -7.2017
# 3 -1.7573 -1.7573 42.9556 0.0000 0.0000 0.0000
# 4 0.0000 0.0000 0.0000 21.6837 0.0000 0.0000
# 5 0.0000 0.0000 0.0000 0.0000 21.6837 0.0000
# 6 7.2017 -7.2017 0.0000 0.0000 0.0000 22.5935
#
#
#
# Elastic Compliance Matrix: (Units=1/GPa)
#
#
# Indices 1 2 3 4 5 6 
#
# 1 0.020089 -0.003075 0.000696 0.000000 0.000000 -0.007383
# 2 -0.003075 0.020089 0.000696 0.000000 0.000000 0.007383
# 3 0.000696 0.000696 0.023337 0.000000 0.000000 0.000000
# 4 0.000000 0.000000 0.000000 0.046118 0.000000 0.000000
# 5 0.000000 0.000000 0.000000 0.000000 0.046118 0.000000
# 6 -0.007383 0.007383 0.000000 0.000000 0.000000 0.048967
#
#
# Mechanical properties :
#
#
# Convention : Reuss Voigt Hill
#
# Bulk Modulus (GPa) = 16.62520 17.08467 16.85494
# Shear Modulus (GPa) = 21.91713 23.03036 22.47375
#
# Velocity S-wave (km/s) = 3.17691 3.25659 3.21699
# Velocity P-wave (km/s) = 4.59487 4.69126 4.64331
#
# Compressibility (1/GPa) = 0.06014964
#
# Stress axis : x y z
#
# Youngs Moduli (GPa) = 49.77868 49.77868 42.85082
#
# Poissons Ratio (x) = 0.15305 -0.02983
# Poissons Ratio (y) = 0.15305 -0.02983
# Poissons Ratio (z) = -0.03465 -0.03465
#
# Static dielectric constant tensor:
#      x y z
#    x 1.772060 0.000000 0.000000 
#    y 0.000000 1.772060 0.000000 
#    z 0.000000 0.000000 1.799940 
# 
# From -- ./inp_files/539.got.cif
#   From: 2010.05.17/outbox.cif.g08.bks.cpg/sg88_1_cif.got.tgz:539.got - 2010.06.03 19:11:41.
