data_PCOD9546526
_publ_section_title
;
Structure prediction by ZEFSAII (Michael W. Deem and Ramdas Pophale) SiO2 
 PCOD9546526
Probable space group: I 41/A
;
_chemical_formula_sum "Si O2"
_cell_formula_units_Z 112
_cell_length_a 14.905172
_cell_length_b 14.905172
_cell_length_c 21.968882
_cell_angle_alpha 90.000000
_cell_angle_beta 90.000000
_cell_angle_gamma 90.000000
_cell_volume 4880.698048
_symmetry_space_group_name_H-M "I 41/A"
_symmetry_group_IT_number 88
_space_group.IT_coordinate_system_code '2'
_symmetry_cell_setting 'tetragonal'
loop_
_space_group_symop_operation_xyz
x,y,z
3/4-y,1/4+x,1/4+z
-x,1/2-y,z
1/4+y,1/4-x,1/4+z
-x,-y,-z
1/4+y,3/4-x,3/4-z
x,1/2+y,-z
3/4-y,3/4+x,3/4-z
1/2+x,1/2+y,1/2+z
1/4-y,3/4+x,3/4+z
1/2-x,-y,1/2+z
3/4+y,3/4-x,3/4+z
1/2-x,1/2-y,1/2-z
3/4+y,1/4-x,1/4-z
1/2+x,y,1/2-z
1/4-y,1/4+x,1/4-z
loop_
_atom_site_type_symbol
_atom_site_label
_atom_site_fract_x
_atom_site_fract_y
_atom_site_fract_z
Si Si1 0.197768 0.579502 0.246272
Si Si2 0.250512 0.978788 0.877622
Si Si3 0.418089 0.302988 0.676141
Si Si4 0.029013 0.957809 0.753588
Si Si5 0.403529 0.378026 0.171950
Si Si6 0.980903 0.848868 0.973786
Si Si7 0.460154 0.999356 0.384355
O O1 0.246382 0.536714 0.186229
O O2 0.241302 0.554610 0.311189
O O3 0.164626 0.675571 0.220989
O O4 0.099158 0.535813 0.255021
O O5 0.307750 0.893270 0.857191
O O6 0.145365 0.972166 0.892463
O O7 0.500000 0.250000 0.708048
O O8 0.388985 0.230444 0.626537
O O9 0.449042 0.393462 0.637916
O O10 0.088758 0.867792 0.747909
O O11 0.944081 0.960651 0.710333
O O12 0.000062 0.957748 0.823104
O O13 0.397593 0.300374 0.221163
O O14 0.000000 0.750000 0.944204
O O15 0.993849 0.940030 0.936633
#
# Coordination Sequence:
#
# PCOD9546526 Si02
#       7
#    16  16  16  16  16  16  16
#     4  10  22  45  69  97 138 183 236 300 360 433
#     4  10  22  42  68 100 138 183 243 289 367 419
#     4  10  22  42  64  95 132 185 239 292 354 423
#     4   9  20  37  63  93 137 182 213 289 340 423
#     4  11  22  38  63  96 139 181 239 283 351 430
#     4  10  22  37  65 101 150 180 228 281 350 444
#     4  10  23  41  68 101 145 186 231 291 356 431
#
# _framework density 22.947537000000001
#
# number of rings (size 3 to 8) (size 9 to 14) (size 15 to 20)
#    0.000    2.286    0.000    3.857    4.000    4.000 
#   10.286   11.429    0.000    0.000    0.000    0.000 
#    0.000    0.000    0.000    0.000    0.000    0.000 
#
# Total GULP energy -311876.276982 kJ/mol
# GULP energy per Si atom -5569.219232 kJ/mol
# Density = 2.289531 g / cm^3
# Si number density = 22.947537 Si / 1000 Ang^3
#
#
#
# Elastic Constant Matrix: (Units=GPa)
#
#
# Indices 1 2 3 4 5 6 
#
# 1 74.2120 38.6418 27.7335 0.0000 0.0000 1.1210
# 2 38.6418 74.2120 27.7335 0.0000 0.0000 -1.1210
# 3 27.7335 27.7335 117.2533 0.0000 0.0000 0.0000
# 4 0.0000 0.0000 0.0000 29.7337 0.0000 0.0000
# 5 0.0000 0.0000 0.0000 0.0000 29.7337 0.0000
# 6 1.1210 -1.1210 0.0000 0.0000 0.0000 42.2625
#
#
#
# Elastic Compliance Matrix: (Units=1/GPa)
#
#
# Indices 1 2 3 4 5 6 
#
# 1 0.019094 -0.009067 -0.002372 0.000000 0.000000 -0.000747
# 2 -0.009067 0.019094 -0.002372 0.000000 0.000000 0.000747
# 3 -0.002372 -0.002372 0.009650 0.000000 0.000000 0.000000
# 4 0.000000 0.000000 0.000000 0.033632 0.000000 0.000000
# 5 0.000000 0.000000 0.000000 0.000000 0.033632 0.000000
# 6 -0.000747 0.000747 0.000000 0.000000 0.000000 0.023701
#
#
# Mechanical properties :
#
#
# Convention : Reuss Voigt Hill
#
# Bulk Modulus (GPa) = 49.46227 50.43276 49.94752
# Shear Modulus (GPa) = 28.87471 31.78386 30.32929
#
# Velocity S-wave (km/s) = 3.55109 3.72569 3.63943
# Velocity P-wave (km/s) = 6.19798 6.36654 6.28282
#
# Compressibility (1/GPa) = 0.02021743
#
# Stress axis : x y z
#
# Youngs Moduli (GPa) = 52.37362 52.37362 103.62242
#
# Poissons Ratio (x) = 0.47487 0.24575
# Poissons Ratio (y) = 0.47487 0.24575
# Poissons Ratio (z) = 0.12421 0.12421
#
# Static dielectric constant tensor:
#      x y z
#    x 1.992150 0.000000 0.000000 
#    y 0.000000 1.992150 0.000000 
#    z 0.000000 0.000000 1.940270 
# 
# From -- ./inp_files/5349.got.cif
#   From: 2010.05.17/outbox.cif.g08.bks.cpg/sg88_3_cif.got.tgz:5349.got - 2010.06.03 19:11:41.
