data_PCOD9546588
_publ_section_title
;
Structure prediction by ZEFSAII (Michael W. Deem and Ramdas Pophale) SiO2 
 PCOD9546588
Probable space group: I 41/A
;
_chemical_formula_sum "Si O2"
_cell_formula_units_Z 52
_cell_length_a 15.371573
_cell_length_b 15.371573
_cell_length_c 10.470336
_cell_angle_alpha 90.000000
_cell_angle_beta 90.000000
_cell_angle_gamma 90.000000
_cell_volume 2473.986027
_symmetry_space_group_name_H-M "I 41/A"
_symmetry_group_IT_number 88
_space_group.IT_coordinate_system_code '2'
_symmetry_cell_setting 'tetragonal'
loop_
_space_group_symop_operation_xyz
x,y,z
3/4-y,1/4+x,1/4+z
-x,1/2-y,z
1/4+y,1/4-x,1/4+z
-x,-y,-z
1/4+y,3/4-x,3/4-z
x,1/2+y,-z
3/4-y,3/4+x,3/4-z
1/2+x,1/2+y,1/2+z
1/4-y,3/4+x,3/4+z
1/2-x,-y,1/2+z
3/4+y,3/4-x,3/4+z
1/2-x,1/2-y,1/2-z
3/4+y,1/4-x,1/4-z
1/2+x,y,1/2-z
1/4-y,1/4+x,1/4-z
loop_
_atom_site_type_symbol
_atom_site_label
_atom_site_fract_x
_atom_site_fract_y
_atom_site_fract_z
Si Si1 0.000000 0.250000 0.125000
Si Si2 0.528618 0.618690 0.161605
Si Si3 0.236604 0.575090 0.139093
Si Si4 0.534913 0.588481 0.440835
O O1 0.917162 0.234650 0.214875
O O2 0.449234 0.653526 0.077858
O O3 0.582842 0.536743 0.112679
O O4 0.491775 0.601600 0.302253
O O5 0.232715 0.534975 0.280784
O O6 0.137701 0.583130 0.089622
O O7 0.500000 0.500000 0.500000
#
# Coordination Sequence:
#
# PCOD9546588 Si02
#       4
#     4  16  16  16
#     4  12  20  40  70  84 128 192 196 282 356 384
#     4  10  22  43  66  99 134 175 227 280 339 418
#     4  10  23  42  62  98 131 175 227 281 343 411
#     4  11  25  43  63  98 137 169 234 280 341 413
#
# _framework density 21.018713000000002
#
# number of rings (size 3 to 8) (size 9 to 14) (size 15 to 20)
#    0.000    1.538    0.000    5.538    4.308    4.923 
#   11.077    0.000    0.000    0.000    0.000    0.000 
#    0.000    0.000    0.000    0.000    0.000    0.000 
#
# Total GULP energy -145379.051281 kJ/mol
# GULP energy per Si atom -5591.501972 kJ/mol
# Density = 2.097087 g / cm^3
# Si number density = 21.018713 Si / 1000 Ang^3
#
#
#
# Elastic Constant Matrix: (Units=GPa)
#
#
# Indices 1 2 3 4 5 6 
#
# 1 89.4906 13.3841 2.6930 0.0000 0.0000 0.6462
# 2 13.3841 89.4906 2.6930 0.0000 0.0000 -0.6462
# 3 2.6930 2.6930 89.6105 0.0000 0.0000 0.0000
# 4 0.0000 0.0000 0.0000 35.4166 0.0000 0.0000
# 5 0.0000 0.0000 0.0000 0.0000 35.4166 0.0000
# 6 0.6462 -0.6462 0.0000 0.0000 0.0000 31.1273
#
#
#
# Elastic Compliance Matrix: (Units=1/GPa)
#
#
# Indices 1 2 3 4 5 6 
#
# 1 0.011440 -0.001704 -0.000293 0.000000 0.000000 -0.000273
# 2 -0.001704 0.011440 -0.000293 0.000000 0.000000 0.000273
# 3 -0.000293 -0.000293 0.011177 0.000000 0.000000 0.000000
# 4 0.000000 0.000000 0.000000 0.028235 0.000000 0.000000
# 5 0.000000 0.000000 0.000000 0.000000 0.028235 0.000000
# 6 -0.000273 0.000273 0.000000 0.000000 0.000000 0.032137
#
#
# Mechanical properties :
#
#
# Convention : Reuss Voigt Hill
#
# Bulk Modulus (GPa) = 33.92313 34.01465 33.96889
# Shear Modulus (GPa) = 36.47775 37.04687 36.76231
#
# Velocity S-wave (km/s) = 4.17044 4.20285 4.18667
# Velocity P-wave (km/s) = 6.27412 6.30635 6.29026
#
# Compressibility (1/GPa) = 0.02947841
#
# Stress axis : x y z
#
# Youngs Moduli (GPa) = 87.41256 87.41256 89.46953
#
# Poissons Ratio (x) = 0.14896 0.02618
# Poissons Ratio (y) = 0.14896 0.02618
# Poissons Ratio (z) = 0.02558 0.02558
#
# Static dielectric constant tensor:
#      x y z
#    x 1.745720 0.000000 0.000000 
#    y 0.000000 1.745720 0.000000 
#    z 0.000000 0.000000 1.752360 
# 
# From -- ./inp_files/1217.got.cif
#   From: 2010.05.17/outbox.cif.g08.bks.cpg/sg88_1_cif.got.tgz:1217.got - 2010.06.03 19:11:41.
