data_PCOD9546523
_publ_section_title
;
Structure prediction by ZEFSAII (Michael W. Deem and Ramdas Pophale) SiO2 
 PCOD9546523
Probable space group: I 41/A
;
_chemical_formula_sum "Si O2"
_cell_formula_units_Z 64
_cell_length_a 19.677345
_cell_length_b 19.677345
_cell_length_c 5.748173
_cell_angle_alpha 90.000000
_cell_angle_beta 90.000000
_cell_angle_gamma 90.000000
_cell_volume 2225.680550
_symmetry_space_group_name_H-M "I 41/A"
_symmetry_group_IT_number 88
_space_group.IT_coordinate_system_code '2'
_symmetry_cell_setting 'tetragonal'
loop_
_space_group_symop_operation_xyz
x,y,z
3/4-y,1/4+x,1/4+z
-x,1/2-y,z
1/4+y,1/4-x,1/4+z
-x,-y,-z
1/4+y,3/4-x,3/4-z
x,1/2+y,-z
3/4-y,3/4+x,3/4-z
1/2+x,1/2+y,1/2+z
1/4-y,3/4+x,3/4+z
1/2-x,-y,1/2+z
3/4+y,3/4-x,3/4+z
1/2-x,1/2-y,1/2-z
3/4+y,1/4-x,1/4-z
1/2+x,y,1/2-z
1/4-y,1/4+x,1/4-z
loop_
_atom_site_type_symbol
_atom_site_label
_atom_site_fract_x
_atom_site_fract_y
_atom_site_fract_z
Si Si1 0.580949 0.038630 0.225408
Si Si2 0.832005 0.543062 0.755711
Si Si3 0.957214 0.085217 0.001515
Si Si4 0.412883 0.207935 0.768998
O O1 0.659334 0.052629 0.284789
O O2 0.534075 0.071534 0.429527
O O3 0.565636 0.960001 0.277898
O O4 0.558400 0.082763 0.002477
O O5 0.786001 0.567681 0.545384
O O6 0.911089 0.558205 0.784851
O O7 0.941921 0.162615 0.942353
O O8 0.428863 0.288085 0.775960
#
# Coordination Sequence:
#
# PCOD9546523 Si02
#       4
#    16  16  16  16
#     4   9  19  39  61  81 112 153 202 244 286 352
#     4   9  18  35  57  83 109 139 183 236 290 341
#     4   9  19  39  63  81 108 157 206 244 283 349
#     4  10  22  35  53  87 123 152 187 238 307 364
#
# _framework density 28.755251000000001
#
# number of rings (size 3 to 8) (size 9 to 14) (size 15 to 20)
#    0.000    2.750    0.000    0.000    0.000    9.000 
#    0.000   30.000    0.000    0.000    0.000    0.000 
#    0.000    0.000    0.000    0.000    0.000    0.000 
#
# Total GULP energy -178752.318026 kJ/mol
# GULP energy per Si atom -5586.009938 kJ/mol
# Density = 2.868980 g / cm^3
# Si number density = 28.755251 Si / 1000 Ang^3
#
#
#
# Elastic Constant Matrix: (Units=GPa)
#
#
# Indices 1 2 3 4 5 6 
#
# 1 112.1377 58.7346 68.8162 0.0000 0.0000 2.6154
# 2 58.7346 112.1377 68.8162 0.0000 0.0000 -2.6154
# 3 68.8162 68.8162 77.4956 0.0000 0.0000 0.0000
# 4 0.0000 0.0000 0.0000 47.0639 0.0000 0.0000
# 5 0.0000 0.0000 0.0000 0.0000 47.0639 0.0000
# 6 2.6154 -2.6154 0.0000 0.0000 0.0000 52.4029
#
#
#
# Elastic Compliance Matrix: (Units=1/GPa)
#
#
# Indices 1 2 3 4 5 6 
#
# 1 0.019685 0.000868 -0.018251 0.000000 0.000000 -0.000939
# 2 0.000868 0.019685 -0.018251 0.000000 0.000000 0.000939
# 3 -0.018251 -0.018251 0.045318 0.000000 0.000000 0.000000
# 4 0.000000 0.000000 0.000000 0.021248 0.000000 0.000000
# 5 0.000000 0.000000 0.000000 0.000000 0.021248 0.000000
# 6 -0.000939 0.000939 0.000000 0.000000 0.000000 0.019177
#
#
# Mechanical properties :
#
#
# Convention : Reuss Voigt Hill
#
# Bulk Modulus (GPa) = 74.51798 77.16722 75.84260
# Shear Modulus (GPa) = 22.51211 36.33307 29.42259
#
# Velocity S-wave (km/s) = 2.80105 3.55847 3.20223
# Velocity P-wave (km/s) = 6.03589 6.61648 6.33284
#
# Compressibility (1/GPa) = 0.01341958
#
# Stress axis : x y z
#
# Youngs Moduli (GPa) = 50.79941 50.79941 22.06630
#
# Poissons Ratio (x) = -0.04408 0.40273
# Poissons Ratio (y) = -0.04408 0.40273
# Poissons Ratio (z) = 0.92715 0.92715
#
# Static dielectric constant tensor:
#      x y z
#    x 2.203000 0.000000 0.000000 
#    y 0.000000 2.203000 0.000000 
#    z 0.000000 0.000000 2.303240 
# 
# From -- ./inp_files/560.got.cif
#   From: 2010.05.17/outbox.cif.g08.bks.cpg/sg88_1_cif.got.tgz:560.got - 2010.06.03 19:11:41.
