data_PCOD9546392
_publ_section_title
;
Structure prediction by ZEFSAII (Michael W. Deem and Ramdas Pophale) SiO2 
 PCOD9546392
Probable space group: I 41/A
;
_chemical_formula_sum "Si O2"
_cell_formula_units_Z 72
_cell_length_a 10.350725
_cell_length_b 10.350725
_cell_length_c 26.806289
_cell_angle_alpha 90.000000
_cell_angle_beta 90.000000
_cell_angle_gamma 90.000000
_cell_volume 2871.959003
_symmetry_space_group_name_H-M "I 41/A"
_symmetry_group_IT_number 88
_space_group.IT_coordinate_system_code '2'
_symmetry_cell_setting 'tetragonal'
loop_
_space_group_symop_operation_xyz
x,y,z
3/4-y,1/4+x,1/4+z
-x,1/2-y,z
1/4+y,1/4-x,1/4+z
-x,-y,-z
1/4+y,3/4-x,3/4-z
x,1/2+y,-z
3/4-y,3/4+x,3/4-z
1/2+x,1/2+y,1/2+z
1/4-y,3/4+x,3/4+z
1/2-x,-y,1/2+z
3/4+y,3/4-x,3/4+z
1/2-x,1/2-y,1/2-z
3/4+y,1/4-x,1/4-z
1/2+x,y,1/2-z
1/4-y,1/4+x,1/4-z
loop_
_atom_site_type_symbol
_atom_site_label
_atom_site_fract_x
_atom_site_fract_y
_atom_site_fract_z
Si Si1 0.633843 0.502007 0.158163
Si Si2 0.638598 0.126130 0.146794
Si Si3 0.000000 0.250000 0.125000
Si Si4 0.000000 0.250000 0.625000
Si Si5 0.758493 0.219386 0.440956
Si Si6 0.286684 0.529540 0.495267
O O1 0.506338 0.423759 0.146044
O O2 0.755633 0.524536 0.122399
O O3 0.576692 0.648890 0.159897
O O4 0.698865 0.434489 0.205457
O O5 0.658780 0.235216 0.106132
O O6 0.680407 0.142628 0.204265
O O7 0.030483 0.366732 0.163831
O O8 0.795054 0.083541 0.466723
O O9 0.766058 0.334288 0.482728
#
# Coordination Sequence:
#
# PCOD9546392 Si02
#       6
#    16  16   4   4  16  16
#     4   9  19  37  62  93 131 180 225 280 336 408
#     4  10  20  40  64  94 138 174 227 279 340 398
#     4  12  24  44  64  96 134 180 216 284 348 404
#     4   8  16  36  56  88 134 176 224 288 340 384
#     4  11  24  41  68  94 137 174 230 279 342 404
#     4  11  21  41  66  99 133 178 228 281 341 411
#
# _framework density 25.069996
#
# number of rings (size 3 to 8) (size 9 to 14) (size 15 to 20)
#    0.000    1.778    4.444    0.000    0.000    0.889 
#    4.000    4.444    0.000    0.000    0.000    0.000 
#    0.000    0.000    0.000    0.000    0.000    0.000 
#
# Total GULP energy -200672.496133 kJ/mol
# GULP energy per Si atom -5574.236004 kJ/mol
# Density = 2.501294 g / cm^3
# Si number density = 25.069996 Si / 1000 Ang^3
#
#
#
# Elastic Constant Matrix: (Units=GPa)
#
#
# Indices 1 2 3 4 5 6 
#
# 1 110.4426 37.0988 57.4270 0.0000 0.0000 11.3252
# 2 37.0988 110.4426 57.4270 0.0000 0.0000 -11.3252
# 3 57.4270 57.4270 172.7391 0.0000 0.0000 0.0000
# 4 0.0000 0.0000 0.0000 2.2175 0.0000 0.0000
# 5 0.0000 0.0000 0.0000 0.0000 2.2175 0.0000
# 6 11.3252 -11.3252 0.0000 0.0000 0.0000 28.1712
#
#
#
# Elastic Compliance Matrix: (Units=1/GPa)
#
#
# Indices 1 2 3 4 5 6 
#
# 1 0.012356 -0.003211 -0.003040 0.000000 0.000000 -0.006258
# 2 -0.003211 0.012356 -0.003040 0.000000 0.000000 0.006258
# 3 -0.003040 -0.003040 0.007810 0.000000 0.000000 0.000000
# 4 0.000000 0.000000 0.000000 0.450951 0.000000 0.000000
# 5 0.000000 0.000000 0.000000 0.000000 0.450950 0.000000
# 6 -0.006258 0.006258 0.000000 0.000000 0.000000 0.040529
#
#
# Mechanical properties :
#
#
# Convention : Reuss Voigt Hill
#
# Bulk Modulus (GPa) = 71.74177 77.50331 74.62254
# Shear Modulus (GPa) = 5.00911 22.63269 13.82090
#
# Velocity S-wave (km/s) = 1.41506 3.00789 2.35051
# Velocity P-wave (km/s) = 5.59898 6.56087 6.09892
#
# Compressibility (1/GPa) = 0.01393888
#
# Stress axis : x y z
#
# Youngs Moduli (GPa) = 80.93444 80.93444 128.03493
#
# Poissons Ratio (x) = 0.25991 0.38923
# Poissons Ratio (y) = 0.25991 0.38923
# Poissons Ratio (z) = 0.24604 0.24604
#
# Static dielectric constant tensor:
#      x y z
#    x 2.016600 0.000000 0.000000 
#    y 0.000000 2.016600 0.000000 
#    z 0.000000 0.000000 2.059920 
# 
# From -- ./inp_files/5773.got.cif
#   From: 2010.05.17/outbox.cif.g08.bks.cpg/sg88_3_cif.got.tgz:5773.got - 2010.06.03 19:11:41.
