data_PCOD9546139
_publ_section_title
;
Structure prediction by ZEFSAII (Michael W. Deem and Ramdas Pophale) SiO2 
 PCOD9546139
Probable space group: I 4/M
;
_chemical_formula_sum "Si O2"
_cell_formula_units_Z 48
_cell_length_a 12.030526
_cell_length_b 12.030526
_cell_length_c 13.750531
_cell_angle_alpha 90.000000
_cell_angle_beta 90.000000
_cell_angle_gamma 90.000000
_cell_volume 1990.163246
_symmetry_space_group_name_H-M "I 4/M"
_symmetry_group_IT_number 87
_symmetry_cell_setting 'tetragonal'
loop_
_space_group_symop_operation_xyz
x,y,z
-y,x,z
-x,-y,z
y,-x,z
-x,-y,-z
y,-x,-z
x,y,-z
-y,x,-z
1/2+x,1/2+y,1/2+z
1/2-y,1/2+x,1/2+z
1/2-x,1/2-y,1/2+z
1/2+y,1/2-x,1/2+z
1/2-x,1/2-y,1/2-z
1/2+y,1/2-x,1/2-z
1/2+x,1/2+y,1/2-z
1/2-y,1/2+x,1/2-z
loop_
_atom_site_type_symbol
_atom_site_label
_atom_site_fract_x
_atom_site_fract_y
_atom_site_fract_z
Si Si1 0.412861 0.336110 0.114851
Si Si2 0.110338 0.601736 0.208672
Si Si3 0.474680 0.677326 0.616153
O O1 0.544534 0.356198 0.130682
O O2 0.370436 0.237117 0.182428
O O3 0.397333 0.306884 0.000000
O O4 0.108020 0.466713 0.193048
O O5 0.046559 0.699020 0.151148
O O6 0.378914 0.590657 0.647336
O O7 0.474811 0.677775 0.500000
#
# Coordination Sequence:
#
# PCOD9546139 Si02
#       3
#    16  16  16
#     4   9  20  42  70  93 115 158 220 270 308 362
#     4  11  25  39  55  90 135 169 199 247 318 383
#     4   9  20  42  70  93 115 158 220 270 308 362
#
# _framework density 24.118624000000001
#
# number of rings (size 3 to 8) (size 9 to 14) (size 15 to 20)
#    0.000    2.333    0.000    3.000    0.000   10.667 
#    0.000   23.333    0.000    0.000    0.000    0.000 
#    0.000    0.000    0.000    0.000    0.000    0.000 
#
# Total GULP energy -133648.383559 kJ/mol
# GULP energy per Si atom -5568.682648 kJ/mol
# Density = 2.406373 g / cm^3
# Si number density = 24.118624 Si / 1000 Ang^3
#
#
#
# Elastic Constant Matrix: (Units=GPa)
#
#
# Indices 1 2 3 4 5 6 
#
# 1 160.1288 53.1484 55.8615 0.0000 0.0000 -4.6433
# 2 53.1484 160.1288 55.8615 0.0000 0.0000 4.6433
# 3 55.8615 55.8615 75.0364 0.0000 0.0000 0.0000
# 4 0.0000 0.0000 0.0000 24.0492 0.0000 0.0000
# 5 0.0000 0.0000 0.0000 0.0000 24.0492 0.0000
# 6 -4.6433 4.6433 0.0000 0.0000 0.0000 15.9276
#
#
#
# Elastic Compliance Matrix: (Units=1/GPa)
#
#
# Indices 1 2 3 4 5 6 
#
# 1 0.008638 -0.000952 -0.005722 0.000000 0.000000 0.002796
# 2 -0.000952 0.008638 -0.005722 0.000000 0.000000 -0.002796
# 3 -0.005722 -0.005722 0.021846 0.000000 0.000000 0.000000
# 4 0.000000 0.000000 0.000000 0.041581 0.000000 0.000000
# 5 0.000000 0.000000 0.000000 0.000000 0.041581 0.000000
# 6 0.002796 -0.002796 0.000000 0.000000 0.000000 0.064414
#
#
# Mechanical properties :
#
#
# Convention : Reuss Voigt Hill
#
# Bulk Modulus (GPa) = 69.78026 80.55964 75.16995
# Shear Modulus (GPa) = 23.11934 28.16669 25.64302
#
# Velocity S-wave (km/s) = 3.09943 3.42107 3.26422
# Velocity P-wave (km/s) = 6.46557 7.00564 6.74101
#
# Compressibility (1/GPa) = 0.01433070
#
# Stress axis : x y z
#
# Youngs Moduli (GPa) = 115.76515 115.76515 45.77393
#
# Poissons Ratio (x) = 0.11021 0.26192
# Poissons Ratio (y) = 0.11021 0.26192
# Poissons Ratio (z) = 0.66241 0.66241
#
# Static dielectric constant tensor:
#      x y z
#    x 2.006390 0.000000 0.000000 
#    y 0.000000 2.006390 0.000000 
#    z 0.000000 0.000000 1.964310 
# 
# From -- ./inp_files/4071.got.cif
#   From: 2010.05.17/outbox.cif.g08.bks.cpg/sg87_3_cif.got.tgz:4071.got - 2010.06.03 19:07:00.
