data_PCOD9546823
_publ_section_title
;
Structure prediction by ZEFSAII (Michael W. Deem and Ramdas Pophale) SiO2 
 PCOD9546823
Probable space group: I 41/A
;
_chemical_formula_sum "Si O2"
_cell_formula_units_Z 96
_cell_length_a 14.645121
_cell_length_b 14.645121
_cell_length_c 20.222783
_cell_angle_alpha 90.000000
_cell_angle_beta 90.000000
_cell_angle_gamma 90.000000
_cell_volume 4337.373784
_symmetry_space_group_name_H-M "I 41/A"
_symmetry_group_IT_number 88
_space_group.IT_coordinate_system_code '2'
_symmetry_cell_setting 'tetragonal'
loop_
_space_group_symop_operation_xyz
x,y,z
3/4-y,1/4+x,1/4+z
-x,1/2-y,z
1/4+y,1/4-x,1/4+z
-x,-y,-z
1/4+y,3/4-x,3/4-z
x,1/2+y,-z
3/4-y,3/4+x,3/4-z
1/2+x,1/2+y,1/2+z
1/4-y,3/4+x,3/4+z
1/2-x,-y,1/2+z
3/4+y,3/4-x,3/4+z
1/2-x,1/2-y,1/2-z
3/4+y,1/4-x,1/4-z
1/2+x,y,1/2-z
1/4-y,1/4+x,1/4-z
loop_
_atom_site_type_symbol
_atom_site_label
_atom_site_fract_x
_atom_site_fract_y
_atom_site_fract_z
Si Si1 0.045149 0.575923 0.704514
Si Si2 0.537103 0.113478 0.352401
Si Si3 0.347937 0.407282 0.913520
Si Si4 0.473160 0.048932 0.568160
Si Si5 0.645725 0.628582 0.355557
Si Si6 0.035458 0.853564 0.463957
O O1 0.008219 0.590607 0.778256
O O2 0.100121 0.481317 0.698707
O O3 0.114055 0.659441 0.691989
O O4 0.965152 0.578700 0.651251
O O5 0.448681 0.145058 0.393797
O O6 0.578172 0.025248 0.386860
O O7 0.320703 0.511662 0.900945
O O8 0.441789 0.410523 0.955789
O O9 0.371776 0.354521 0.845343
O O10 0.563408 0.077649 0.608256
O O11 0.500000 0.000000 0.500000
O O12 0.615833 0.665125 0.283792
O O13 0.000000 0.750000 0.456919
#
# Coordination Sequence:
#
# PCOD9546823 Si02
#       6
#    16  16  16  16  16  16
#     4  12  27  47  76 109 149 195 254 307 376 449
#     4  11  26  49  75  99 146 199 245 314 376 435
#     4  12  26  46  75 111 152 196 248 309 376 453
#     4  12  27  48  71 109 147 193 254 310 369 444
#     4  12  29  45  76 109 150 198 245 308 373 460
#     4  12  23  49  73 107 154 195 240 304 380 445
#
# _framework density 22.133209000000001
#
# number of rings (size 3 to 8) (size 9 to 14) (size 15 to 20)
#    0.000    0.167    5.000    3.000   11.667    1.333 
#    0.000    0.000    0.000    0.000    0.000    0.000 
#    0.000    0.000    0.000    0.000    0.000    0.000 
#
# Total GULP energy -268889.845708 kJ/mol
# GULP energy per Si atom -5601.871786 kJ/mol
# Density = 2.208283 g / cm^3
# Si number density = 22.133209 Si / 1000 Ang^3
#
#
#
# Elastic Constant Matrix: (Units=GPa)
#
#
# Indices 1 2 3 4 5 6 
#
# 1 88.7067 5.1072 24.3944 0.0000 0.0000 -3.5068
# 2 5.1072 88.7067 24.3944 0.0000 0.0000 3.5068
# 3 24.3944 24.3944 125.6500 0.0000 0.0000 0.0000
# 4 0.0000 0.0000 0.0000 27.5112 0.0000 0.0000
# 5 0.0000 0.0000 0.0000 0.0000 27.5112 0.0000
# 6 -3.5068 3.5068 0.0000 0.0000 0.0000 9.5015
#
#
#
# Elastic Compliance Matrix: (Units=1/GPa)
#
#
# Indices 1 2 3 4 5 6 
#
# 1 0.012100 -0.000244 -0.002302 0.000000 0.000000 0.004556
# 2 -0.000244 0.012100 -0.002302 0.000000 0.000000 -0.004556
# 3 -0.002302 -0.002302 0.008852 0.000000 0.000000 0.000000
# 4 0.000000 0.000000 0.000000 0.036349 0.000000 0.000000
# 5 0.000000 0.000000 0.000000 0.000000 0.036349 0.000000
# 6 0.004556 -0.004556 0.000000 0.000000 0.000000 0.108610
#
#
# Mechanical properties :
#
#
# Convention : Reuss Voigt Hill
#
# Bulk Modulus (GPa) = 42.81209 45.65061 44.23135
# Shear Modulus (GPa) = 21.56647 29.51592 25.54119
#
# Velocity S-wave (km/s) = 3.12492 3.65575 3.40071
# Velocity P-wave (km/s) = 5.69254 6.20399 5.95376
#
# Compressibility (1/GPa) = 0.02335789
#
# Stress axis : x y z
#
# Youngs Moduli (GPa) = 82.64279 82.64279 112.96343
#
# Poissons Ratio (x) = 0.02014 0.26003
# Poissons Ratio (y) = 0.02014 0.26003
# Poissons Ratio (z) = 0.19023 0.19023
#
# Static dielectric constant tensor:
#      x y z
#    x 1.810820 0.000000 0.000000 
#    y 0.000000 1.810820 0.000000 
#    z 0.000000 0.000000 1.777470 
# 
# From -- ./inp_files/4672.got.cif
#   From: 2010.05.17/outbox.cif.g08.bks.cpg/sg88_3_cif.got.tgz:4672.got - 2010.06.03 19:11:41.
