data_PCOD9546693
_publ_section_title
;
Structure prediction by ZEFSAII (Michael W. Deem and Ramdas Pophale) SiO2 
 PCOD9546693
Probable space group: I 41/A
;
_chemical_formula_sum "Si O2"
_cell_formula_units_Z 112
_cell_length_a 13.580655
_cell_length_b 13.580655
_cell_length_c 26.713045
_cell_angle_alpha 90.000000
_cell_angle_beta 90.000000
_cell_angle_gamma 90.000000
_cell_volume 4926.798823
_symmetry_space_group_name_H-M "I 41/A"
_symmetry_group_IT_number 88
_space_group.IT_coordinate_system_code '2'
_symmetry_cell_setting 'tetragonal'
loop_
_space_group_symop_operation_xyz
x,y,z
3/4-y,1/4+x,1/4+z
-x,1/2-y,z
1/4+y,1/4-x,1/4+z
-x,-y,-z
1/4+y,3/4-x,3/4-z
x,1/2+y,-z
3/4-y,3/4+x,3/4-z
1/2+x,1/2+y,1/2+z
1/4-y,3/4+x,3/4+z
1/2-x,-y,1/2+z
3/4+y,3/4-x,3/4+z
1/2-x,1/2-y,1/2-z
3/4+y,1/4-x,1/4-z
1/2+x,y,1/2-z
1/4-y,1/4+x,1/4-z
loop_
_atom_site_type_symbol
_atom_site_label
_atom_site_fract_x
_atom_site_fract_y
_atom_site_fract_z
Si Si1 0.227991 0.949145 0.276957
Si Si2 0.383356 0.758578 0.867152
Si Si3 0.892476 0.647041 0.012916
Si Si4 0.067237 0.848235 0.226192
Si Si5 0.074406 0.996897 0.729103
Si Si6 0.290942 0.950503 0.382996
Si Si7 0.607922 0.154571 0.349580
O O1 0.178729 0.857747 0.247283
O O2 0.219856 0.936336 0.336207
O O3 0.170022 0.045571 0.259380
O O4 0.342271 0.977656 0.269651
O O5 0.500000 0.750000 0.864166
O O6 0.357954 0.801741 0.812291
O O7 0.364581 0.817604 0.918624
O O8 0.342894 0.649915 0.875050
O O9 0.853978 0.760444 0.018687
O O10 0.940400 0.639015 0.958128
O O11 0.000000 0.750000 0.226210
O O12 0.006761 0.919921 0.262900
O O13 0.138554 0.000061 0.679157
O O14 0.317781 0.064221 0.392705
O O15 0.498425 0.120577 0.364993
#
# Coordination Sequence:
#
# PCOD9546693 Si02
#       7
#    16  16  16  16  16  16  16
#     4  11  25  44  72 102 141 181 238 295 360 422
#     4  11  24  44  72  96 138 180 239 286 348 425
#     4  11  25  44  69 106 141 189 231 288 350 433
#     4  10  25  50  70 102 136 187 234 307 357 421
#     4  11  23  46  71 102 142 178 243 290 355 431
#     4  12  25  44  70 103 135 192 231 296 357 428
#     4  11  27  44  69 103 150 187 229 285 352 432
#
# _framework density 22.732814000000001
#
# number of rings (size 3 to 8) (size 9 to 14) (size 15 to 20)
#    0.000    1.000    4.286    0.857    8.000    2.286 
#    5.143    0.000    0.000    0.000    0.000    0.000 
#    0.000    0.000    0.000    0.000    0.000    0.000 
#
# Total GULP energy -312663.169584 kJ/mol
# GULP energy per Si atom -5583.270885 kJ/mol
# Density = 2.268107 g / cm^3
# Si number density = 22.732814 Si / 1000 Ang^3
#
#
#
# Elastic Constant Matrix: (Units=GPa)
#
#
# Indices 1 2 3 4 5 6 
#
# 1 69.5786 20.7034 19.8545 0.0000 0.0000 -3.4602
# 2 20.7034 69.5786 19.8545 0.0000 0.0000 3.4602
# 3 19.8545 19.8545 166.3156 0.0000 0.0000 0.0000
# 4 0.0000 0.0000 0.0000 36.1332 0.0000 0.0000
# 5 0.0000 0.0000 0.0000 0.0000 36.1332 0.0000
# 6 -3.4602 3.4602 0.0000 0.0000 0.0000 38.3295
#
#
#
# Elastic Compliance Matrix: (Units=1/GPa)
#
#
# Indices 1 2 3 4 5 6 
#
# 1 0.016208 -0.004517 -0.001396 0.000000 0.000000 0.001871
# 2 -0.004517 0.016208 -0.001396 0.000000 0.000000 -0.001871
# 3 -0.001396 -0.001396 0.006346 0.000000 0.000000 0.000000
# 4 0.000000 0.000000 0.000000 0.027675 0.000000 0.000000
# 5 0.000000 0.000000 0.000000 0.000000 0.027675 0.000000
# 6 0.001871 -0.001871 0.000000 0.000000 0.000000 0.026427
#
#
# Mechanical properties :
#
#
# Convention : Reuss Voigt Hill
#
# Bulk Modulus (GPa) = 41.41807 47.36643 44.39225
# Shear Modulus (GPa) = 34.91509 38.45655 36.68582
#
# Velocity S-wave (km/s) = 3.92329 4.11746 4.02155
# Velocity P-wave (km/s) = 6.22752 6.59439 6.41358
#
# Compressibility (1/GPa) = 0.02414405
#
# Stress axis : x y z
#
# Youngs Moduli (GPa) = 61.69912 61.69912 157.58293
#
# Poissons Ratio (x) = 0.27872 0.21992
# Poissons Ratio (y) = 0.27872 0.21992
# Poissons Ratio (z) = 0.08611 0.08611
#
# Static dielectric constant tensor:
#      x y z
#    x 1.937560 0.000000 0.000000 
#    y 0.000000 1.937560 0.000000 
#    z 0.000000 0.000000 1.923160 
# 
# From -- ./inp_files/5330.got.cif
#   From: 2010.05.17/outbox.cif.g08.bks.cpg/sg88_3_cif.got.tgz:5330.got - 2010.06.03 19:11:41.
