data_PCOD9546487
_publ_section_title
;
Structure prediction by ZEFSAII (Michael W. Deem and Ramdas Pophale) SiO2 
 PCOD9546487
Probable space group: I 41/A
;
_chemical_formula_sum "Si O2"
_cell_formula_units_Z 56
_cell_length_a 11.095978
_cell_length_b 11.095978
_cell_length_c 17.659858
_cell_angle_alpha 90.000000
_cell_angle_beta 90.000000
_cell_angle_gamma 90.000000
_cell_volume 2174.294569
_symmetry_space_group_name_H-M "I 41/A"
_symmetry_group_IT_number 88
_space_group.IT_coordinate_system_code '2'
_symmetry_cell_setting 'tetragonal'
loop_
_space_group_symop_operation_xyz
x,y,z
3/4-y,1/4+x,1/4+z
-x,1/2-y,z
1/4+y,1/4-x,1/4+z
-x,-y,-z
1/4+y,3/4-x,3/4-z
x,1/2+y,-z
3/4-y,3/4+x,3/4-z
1/2+x,1/2+y,1/2+z
1/4-y,3/4+x,3/4+z
1/2-x,-y,1/2+z
3/4+y,3/4-x,3/4+z
1/2-x,1/2-y,1/2-z
3/4+y,1/4-x,1/4-z
1/2+x,y,1/2-z
1/4-y,1/4+x,1/4-z
loop_
_atom_site_type_symbol
_atom_site_label
_atom_site_fract_x
_atom_site_fract_y
_atom_site_fract_z
Si Si1 0.074855 0.624406 0.476203
Si Si2 0.911803 0.388689 0.078717
Si Si3 0.860701 0.460063 0.375989
Si Si4 0.500000 0.750000 0.807996
O O1 0.171631 0.599443 0.542819
O O2 0.150320 0.632295 0.396882
O O3 0.000000 0.750000 0.485675
O O4 0.000000 0.500000 0.500000
O O5 0.844925 0.272428 0.113366
O O6 0.821680 0.496176 0.076181
O O7 0.966565 0.358479 0.997683
O O8 0.969807 0.371946 0.352025
#
# Coordination Sequence:
#
# PCOD9546487 Si02
#       4
#    16  16  16   8
#     4  12  32  53  81 119 168 225 286 347 432 511
#     4   9  20  39  69 109 146 186 256 335 411 474
#     4  12  26  47  79 107 158 212 272 343 414 504
#     4  10  21  40  70 110 149 186 268 322 412 478
#
# _framework density 25.755481
#
# number of rings (size 3 to 8) (size 9 to 14) (size 15 to 20)
#    0.000    1.429    1.429    4.286   12.000    0.000 
#    0.000    0.000    0.000    0.000    0.000    0.000 
#    0.000    0.000    0.000    0.000    0.000    0.000 
#
# Total GULP energy -156047.870840 kJ/mol
# GULP energy per Si atom -5573.138244 kJ/mol
# Density = 2.569686 g / cm^3
# Si number density = 25.755481 Si / 1000 Ang^3
#
#
#
# Elastic Constant Matrix: (Units=GPa)
#
#
# Indices 1 2 3 4 5 6 
#
# 1 119.2088 89.2097 20.2001 0.0000 0.0000 20.9613
# 2 89.2097 119.2088 20.2001 0.0000 0.0000 -20.9613
# 3 20.2001 20.2001 67.9299 0.0000 0.0000 0.0000
# 4 0.0000 0.0000 0.0000 29.1308 0.0000 0.0000
# 5 0.0000 0.0000 0.0000 0.0000 29.1308 0.0000
# 6 20.9613 -20.9613 0.0000 0.0000 0.0000 39.4901
#
#
#
# Elastic Compliance Matrix: (Units=1/GPa)
#
#
# Indices 1 2 3 4 5 6 
#
# 1 0.067090 -0.061998 -0.001514 0.000000 0.000000 -0.068520
# 2 -0.061998 0.067090 -0.001514 0.000000 0.000000 0.068520
# 3 -0.001514 -0.001514 0.015622 0.000000 0.000000 0.000000
# 4 0.000000 0.000000 0.000000 0.034328 0.000000 0.000000
# 5 0.000000 0.000000 0.000000 0.000000 0.034328 0.000000
# 6 -0.068520 0.068520 0.000000 0.000000 0.000000 0.098063
#
#
# Mechanical properties :
#
#
# Convention : Reuss Voigt Hill
#
# Bulk Modulus (GPa) = 50.63711 62.84081 56.73896
# Shear Modulus (GPa) = 11.03376 31.33284 21.18330
#
# Velocity S-wave (km/s) = 2.07204 3.49169 2.87100
# Velocity P-wave (km/s) = 5.04260 6.38027 5.75047
#
# Compressibility (1/GPa) = 0.01974836
#
# Stress axis : x y z
#
# Youngs Moduli (GPa) = 14.90543 14.90543 64.01429
#
# Poissons Ratio (x) = 0.92411 0.09692
# Poissons Ratio (y) = 0.92411 0.09692
# Poissons Ratio (z) = 0.02257 0.02257
#
# Static dielectric constant tensor:
#      x y z
#    x 2.204140 0.000000 0.000000 
#    y 0.000000 2.204140 0.000000 
#    z 0.000000 0.000000 5.228780 
# 
# From -- ./inp_files/4302.got.cif
#   From: 2010.05.17/outbox.cif.g08.bks.cpg/sg88_3_cif.got.tgz:4302.got - 2010.06.03 19:11:41.
