data_PCOD9546266
_publ_section_title
;
Structure prediction by ZEFSAII (Michael W. Deem and Ramdas Pophale) SiO2 
 PCOD9546266
Probable space group: I 41/A
;
_chemical_formula_sum "Si O2"
_cell_formula_units_Z 96
_cell_length_a 16.544197
_cell_length_b 16.544197
_cell_length_c 16.560663
_cell_angle_alpha 90.000000
_cell_angle_beta 90.000000
_cell_angle_gamma 90.000000
_cell_volume 4532.826594
_symmetry_space_group_name_H-M "I 41/A"
_symmetry_group_IT_number 88
_space_group.IT_coordinate_system_code '2'
_symmetry_cell_setting 'tetragonal'
loop_
_space_group_symop_operation_xyz
x,y,z
3/4-y,1/4+x,1/4+z
-x,1/2-y,z
1/4+y,1/4-x,1/4+z
-x,-y,-z
1/4+y,3/4-x,3/4-z
x,1/2+y,-z
3/4-y,3/4+x,3/4-z
1/2+x,1/2+y,1/2+z
1/4-y,3/4+x,3/4+z
1/2-x,-y,1/2+z
3/4+y,3/4-x,3/4+z
1/2-x,1/2-y,1/2-z
3/4+y,1/4-x,1/4-z
1/2+x,y,1/2-z
1/4-y,1/4+x,1/4-z
loop_
_atom_site_type_symbol
_atom_site_label
_atom_site_fract_x
_atom_site_fract_y
_atom_site_fract_z
Si Si1 0.094675 0.416713 0.387433
Si Si2 0.703922 0.762801 0.042905
Si Si3 0.276742 0.490235 0.377177
Si Si4 0.005888 0.079761 0.889199
Si Si5 0.109993 0.432732 0.564443
Si Si6 0.384929 0.050082 0.483576
O O1 0.040423 0.456933 0.319251
O O2 0.188089 0.449169 0.386327
O O3 0.100608 0.321824 0.372388
O O4 0.067475 0.441621 0.477339
O O5 0.676679 0.698447 0.109238
O O6 0.655340 0.846881 0.053668
O O7 0.694491 0.732247 0.951719
O O8 0.254019 0.575348 0.334761
O O9 0.335234 0.428573 0.329572
O O10 0.321303 0.499796 0.461892
O O11 0.052729 0.004718 0.932432
O O12 0.934113 0.100342 0.950467
#
# Coordination Sequence:
#
# PCOD9546266 Si02
#       6
#    16  16  16  16  16  16
#     4   9  18  36  55  84 118 156 194 252 301 355
#     4  10  21  35  58  83 122 156 207 246 307 370
#     4  10  19  33  59  87 114 150 204 253 289 350
#     4   9  21  35  53  87 119 155 194 241 308 356
#     4  10  20  35  54  89 114 156 199 252 309 353
#     4  10  20  34  55  88 122 152 194 251 300 352
#
# _framework density 21.178837999999999
#
# number of rings (size 3 to 8) (size 9 to 14) (size 15 to 20)
#    0.000    2.333    1.667    0.500    9.333    0.333 
#    0.000    0.000    0.000    3.000    0.000    0.000 
#    0.000    0.000    0.000    0.000    0.000    0.000 
#
# Total GULP energy -267438.218187 kJ/mol
# GULP energy per Si atom -5571.629546 kJ/mol
# Density = 2.113063 g / cm^3
# Si number density = 21.178838 Si / 1000 Ang^3
#
#
#
# Elastic Constant Matrix: (Units=GPa)
#
#
# Indices 1 2 3 4 5 6 
#
# 1 30.6631 3.3077 3.9941 0.0000 0.0000 -0.6597
# 2 3.3077 30.6631 3.9941 0.0000 0.0000 0.6597
# 3 3.9941 3.9941 87.9470 0.0000 0.0000 0.0000
# 4 0.0000 0.0000 0.0000 29.8124 0.0000 0.0000
# 5 0.0000 0.0000 0.0000 0.0000 29.8124 0.0000
# 6 -0.6597 0.6597 0.0000 0.0000 0.0000 8.1811
#
#
#
# Elastic Compliance Matrix: (Units=1/GPa)
#
#
# Indices 1 2 3 4 5 6 
#
# 1 0.033227 -0.003472 -0.001351 0.000000 0.000000 0.002959
# 2 -0.003472 0.033227 -0.001351 0.000000 0.000000 -0.002959
# 3 -0.001351 -0.001351 0.011493 0.000000 0.000000 0.000000
# 4 0.000000 0.000000 0.000000 0.033543 0.000000 0.000000
# 5 0.000000 0.000000 0.000000 0.000000 0.033543 0.000000
# 6 0.002959 -0.002959 0.000000 0.000000 0.000000 0.122710
#
#
# Mechanical properties :
#
#
# Convention : Reuss Voigt Hill
#
# Bulk Modulus (GPa) = 15.24449 19.09613 17.17031
# Shear Modulus (GPa) = 16.55860 22.75968 19.65914
#
# Velocity S-wave (km/s) = 2.79919 3.28173 3.05002
# Velocity P-wave (km/s) = 4.20248 4.83693 4.53082
#
# Compressibility (1/GPa) = 0.06559747
#
# Stress axis : x y z
#
# Youngs Moduli (GPa) = 30.09629 30.09629 87.00776
#
# Poissons Ratio (x) = 0.10449 0.11758
# Poissons Ratio (y) = 0.10449 0.11758
# Poissons Ratio (z) = 0.04067 0.04067
#
# Static dielectric constant tensor:
#      x y z
#    x 1.800730 0.000000 0.000000 
#    y 0.000000 1.800730 0.000000 
#    z 0.000000 0.000000 1.823110 
# 
# From -- ./inp_files/3918.got.cif
#   From: 2010.05.17/outbox.cif.g08.bks.cpg/sg88_2_cif.got.tgz:3918.got - 2010.06.03 19:11:41.
