data_PCOD9546613
_publ_section_title
;
Structure prediction by ZEFSAII (Michael W. Deem and Ramdas Pophale) SiO2 
 PCOD9546613
Probable space group: I 41/A
;
_chemical_formula_sum "Si O2"
_cell_formula_units_Z 112
_cell_length_a 13.994274
_cell_length_b 13.994274
_cell_length_c 29.397631
_cell_angle_alpha 90.000000
_cell_angle_beta 90.000000
_cell_angle_gamma 90.000000
_cell_volume 5757.223376
_symmetry_space_group_name_H-M "I 41/A"
_symmetry_group_IT_number 88
_space_group.IT_coordinate_system_code '2'
_symmetry_cell_setting 'tetragonal'
loop_
_space_group_symop_operation_xyz
x,y,z
3/4-y,1/4+x,1/4+z
-x,1/2-y,z
1/4+y,1/4-x,1/4+z
-x,-y,-z
1/4+y,3/4-x,3/4-z
x,1/2+y,-z
3/4-y,3/4+x,3/4-z
1/2+x,1/2+y,1/2+z
1/4-y,3/4+x,3/4+z
1/2-x,-y,1/2+z
3/4+y,3/4-x,3/4+z
1/2-x,1/2-y,1/2-z
3/4+y,1/4-x,1/4-z
1/2+x,y,1/2-z
1/4-y,1/4+x,1/4-z
loop_
_atom_site_type_symbol
_atom_site_label
_atom_site_fract_x
_atom_site_fract_y
_atom_site_fract_z
Si Si1 0.960322 0.541704 0.545714
Si Si2 0.437540 0.929040 0.381140
Si Si3 0.300194 0.710869 0.705261
Si Si4 0.000000 0.250000 0.248456
Si Si5 0.838146 0.000095 0.208669
Si Si6 0.500000 0.250000 0.082301
Si Si7 0.992434 0.088869 0.629369
Si Si8 0.811396 0.802962 0.050297
O O1 0.846526 0.528335 0.541794
O O2 0.983466 0.653969 0.553294
O O3 0.003700 0.484504 0.587706
O O4 0.000000 0.500000 0.500000
O O5 0.403669 0.981902 0.335520
O O6 0.505516 0.843083 0.364273
O O7 0.354876 0.877026 0.411740
O O8 0.487445 0.005349 0.412720
O O9 0.250000 0.750000 0.750000
O O10 0.410099 0.733300 0.715769
O O11 0.283273 0.598304 0.701480
O O12 0.997313 0.345301 0.280268
O O13 0.893726 0.015560 0.256437
O O14 0.088186 0.154252 0.625831
O O15 0.995108 0.022427 0.674340
#
# Coordination Sequence:
#
# PCOD9546613 Si02
#       8
#    16  16  16   8  16   8  16  16
#     4  11  24  44  68  97 136 177 229 288 347 407
#     4  11  22  43  69  99 135 182 233 281 337 420
#     4  11  23  41  67  97 138 178 223 280 346 418
#     4  10  23  40  71  97 132 187 220 277 349 410
#     4  10  23  40  64 101 132 168 230 281 325 412
#     4  10  23  44  72  97 129 182 234 284 335 418
#     4  11  25  42  66  97 133 177 223 291 356 412
#     4  11  21  44  67  95 136 174 232 280 340 419
#
# _framework density 19.453823
#
# number of rings (size 3 to 8) (size 9 to 14) (size 15 to 20)
#    0.000    1.286    5.714    1.286    0.000    8.000 
#    2.571    3.571    0.000    0.000    0.000    0.000 
#    0.000    0.000    0.000    0.000    0.000    0.000 
#
# Total GULP energy -312468.331165 kJ/mol
# GULP energy per Si atom -5579.791628 kJ/mol
# Density = 1.940955 g / cm^3
# Si number density = 19.453823 Si / 1000 Ang^3
#
#
#
# Elastic Constant Matrix: (Units=GPa)
#
#
# Indices 1 2 3 4 5 6 
#
# 1 96.9424 26.6264 28.0343 0.0000 0.0000 4.4438
# 2 26.6264 96.9424 28.0343 0.0000 0.0000 -4.4438
# 3 28.0343 28.0343 114.5242 0.0000 0.0000 0.0000
# 4 0.0000 0.0000 0.0000 21.5527 0.0000 0.0000
# 5 0.0000 0.0000 0.0000 0.0000 21.5527 0.0000
# 6 4.4438 -4.4438 0.0000 0.0000 0.0000 33.5157
#
#
#
# Elastic Compliance Matrix: (Units=1/GPa)
#
#
# Indices 1 2 3 4 5 6 
#
# 1 0.011784 -0.002680 -0.002229 0.000000 0.000000 -0.001918
# 2 -0.002680 0.011784 -0.002229 0.000000 0.000000 0.001918
# 3 -0.002229 -0.002229 0.009823 0.000000 0.000000 0.000000
# 4 0.000000 0.000000 0.000000 0.046398 0.000000 0.000000
# 5 0.000000 0.000000 0.000000 0.000000 0.046398 0.000000
# 6 -0.001918 0.001918 0.000000 0.000000 0.000000 0.030345
#
#
# Mechanical properties :
#
#
# Convention : Reuss Voigt Hill
#
# Bulk Modulus (GPa) = 52.31110 52.64433 52.47771
# Shear Modulus (GPa) = 28.22022 30.37183 29.29602
#
# Velocity S-wave (km/s) = 3.81284 3.95552 3.88484
# Velocity P-wave (km/s) = 6.80676 6.92687 6.86707
#
# Compressibility (1/GPa) = 0.01911640
#
# Stress axis : x y z
#
# Youngs Moduli (GPa) = 84.86174 84.86174 101.80388
#
# Poissons Ratio (x) = 0.22743 0.22687
# Poissons Ratio (y) = 0.22743 0.22687
# Poissons Ratio (z) = 0.18912 0.18912
#
# Static dielectric constant tensor:
#      x y z
#    x 1.644240 0.000000 0.000000 
#    y 0.000000 1.644240 0.000000 
#    z 0.000000 0.000000 1.601010 
# 
# From -- ./inp_files/5899.got.cif
#   From: 2010.05.17/outbox.cif.g08.bks.cpg/sg88_3_cif.got.tgz:5899.got - 2010.06.03 19:11:41.
