data_PCOD9546755
_publ_section_title
;
Structure prediction by ZEFSAII (Michael W. Deem and Ramdas Pophale) SiO2 
 PCOD9546755
Probable space group: I 41/A
;
_chemical_formula_sum "Si O2"
_cell_formula_units_Z 96
_cell_length_a 15.473142
_cell_length_b 15.473142
_cell_length_c 18.402917
_cell_angle_alpha 90.000000
_cell_angle_beta 90.000000
_cell_angle_gamma 90.000000
_cell_volume 4405.991852
_symmetry_space_group_name_H-M "I 41/A"
_symmetry_group_IT_number 88
_space_group.IT_coordinate_system_code '2'
_symmetry_cell_setting 'tetragonal'
loop_
_space_group_symop_operation_xyz
x,y,z
3/4-y,1/4+x,1/4+z
-x,1/2-y,z
1/4+y,1/4-x,1/4+z
-x,-y,-z
1/4+y,3/4-x,3/4-z
x,1/2+y,-z
3/4-y,3/4+x,3/4-z
1/2+x,1/2+y,1/2+z
1/4-y,3/4+x,3/4+z
1/2-x,-y,1/2+z
3/4+y,3/4-x,3/4+z
1/2-x,1/2-y,1/2-z
3/4+y,1/4-x,1/4-z
1/2+x,y,1/2-z
1/4-y,1/4+x,1/4-z
loop_
_atom_site_type_symbol
_atom_site_label
_atom_site_fract_x
_atom_site_fract_y
_atom_site_fract_z
Si Si1 0.978467 0.654313 0.123378
Si Si2 0.917063 0.441576 0.989697
Si Si3 0.723640 0.376584 0.597603
Si Si4 0.725947 0.512301 0.230963
Si Si5 0.448144 0.374516 0.364584
Si Si6 0.764668 0.231065 0.495044
O O1 0.880533 0.636697 0.096547
O O2 0.995087 0.591069 0.190403
O O3 0.000000 0.750000 0.147718
O O4 0.048388 0.635260 0.060026
O O5 0.836021 0.485326 0.950158
O O6 0.892326 0.419920 0.072963
O O7 0.000000 0.500000 0.000000
O O8 0.758408 0.453459 0.545216
O O9 0.749083 0.410894 0.677030
O O10 0.764814 0.286713 0.569091
O O11 0.622466 0.515266 0.245657
O O12 0.535888 0.346822 0.406719
O O13 0.479902 0.431856 0.298441
#
# Coordination Sequence:
#
# PCOD9546755 Si02
#       6
#    16  16  16  16  16  16
#     4  12  26  44  70 106 144 186 235 298 364 434
#     4  12  22  38  68 102 142 177 225 290 366 442
#     4  12  26  48  74 104 148 193 245 307 365 435
#     4  12  26  46  74 105 144 194 243 302 370 429
#     4  11  23  37  64 108 149 180 218 288 373 450
#     4  12  25  48  70 103 144 191 249 296 356 438
#
# _framework density 21.788509999999999
#
# number of rings (size 3 to 8) (size 9 to 14) (size 15 to 20)
#    0.000    0.167    6.667    3.000    2.333    0.000 
#    3.000    1.667    0.000    0.000    0.000    0.000 
#    0.000    0.000    0.000    0.000    0.000    0.000 
#
# Total GULP energy -268155.315392 kJ/mol
# GULP energy per Si atom -5586.569071 kJ/mol
# Density = 2.173892 g / cm^3
# Si number density = 21.788510 Si / 1000 Ang^3
#
#
#
# Elastic Constant Matrix: (Units=GPa)
#
#
# Indices 1 2 3 4 5 6 
#
# 1 88.3790 13.0846 21.3072 0.0000 0.0000 -4.3906
# 2 13.0846 88.3790 21.3072 0.0000 0.0000 4.3906
# 3 21.3072 21.3072 55.7498 0.0000 0.0000 0.0000
# 4 0.0000 0.0000 0.0000 28.5027 0.0000 0.0000
# 5 0.0000 0.0000 0.0000 0.0000 28.5027 0.0000
# 6 -4.3906 4.3906 0.0000 0.0000 0.0000 21.1627
#
#
#
# Elastic Compliance Matrix: (Units=1/GPa)
#
#
# Indices 1 2 3 4 5 6 
#
# 1 0.012675 -0.000935 -0.004487 0.000000 0.000000 0.002824
# 2 -0.000935 0.012675 -0.004487 0.000000 0.000000 -0.002824
# 3 -0.004487 -0.004487 0.021367 0.000000 0.000000 0.000000
# 4 0.000000 0.000000 0.000000 0.035084 0.000000 0.000000
# 5 0.000000 0.000000 0.000000 0.000000 0.035084 0.000000
# 6 0.002824 -0.002824 0.000000 0.000000 0.000000 0.048425
#
#
# Mechanical properties :
#
#
# Convention : Reuss Voigt Hill
#
# Bulk Modulus (GPa) = 37.17544 38.21176 37.69360
# Shear Modulus (GPa) = 25.76041 27.42087 26.59064
#
# Velocity S-wave (km/s) = 3.44218 3.55139 3.49721
# Velocity P-wave (km/s) = 5.73560 5.86448 5.80040
#
# Compressibility (1/GPa) = 0.02689948
#
# Stress axis : x y z
#
# Youngs Moduli (GPa) = 78.89294 78.89294 46.80087
#
# Poissons Ratio (x) = 0.07377 0.21000
# Poissons Ratio (y) = 0.07377 0.21000
# Poissons Ratio (z) = 0.35400 0.35400
#
# Static dielectric constant tensor:
#      x y z
#    x 1.852310 0.000000 0.000000 
#    y 0.000000 1.852310 0.000000 
#    z 0.000000 0.000000 1.891580 
# 
# From -- ./inp_files/4722.got.cif
#   From: 2010.05.17/outbox.cif.g08.bks.cpg/sg88_3_cif.got.tgz:4722.got - 2010.06.03 19:11:41.
