data_PCOD9546569
_publ_section_title
;
Structure prediction by ZEFSAII (Michael W. Deem and Ramdas Pophale) SiO2 
 PCOD9546569
Probable space group: I 41/A
;
_chemical_formula_sum "Si O2"
_cell_formula_units_Z 92
_cell_length_a 14.540014
_cell_length_b 14.540014
_cell_length_c 19.838047
_cell_angle_alpha 90.000000
_cell_angle_beta 90.000000
_cell_angle_gamma 90.000000
_cell_volume 4194.001334
_symmetry_space_group_name_H-M "I 41/A"
_symmetry_group_IT_number 88
_space_group.IT_coordinate_system_code '2'
_symmetry_cell_setting 'tetragonal'
loop_
_space_group_symop_operation_xyz
x,y,z
3/4-y,1/4+x,1/4+z
-x,1/2-y,z
1/4+y,1/4-x,1/4+z
-x,-y,-z
1/4+y,3/4-x,3/4-z
x,1/2+y,-z
3/4-y,3/4+x,3/4-z
1/2+x,1/2+y,1/2+z
1/4-y,3/4+x,3/4+z
1/2-x,-y,1/2+z
3/4+y,3/4-x,3/4+z
1/2-x,1/2-y,1/2-z
3/4+y,1/4-x,1/4-z
1/2+x,y,1/2-z
1/4-y,1/4+x,1/4-z
loop_
_atom_site_type_symbol
_atom_site_label
_atom_site_fract_x
_atom_site_fract_y
_atom_site_fract_z
Si Si1 0.500000 0.750000 0.625000
Si Si2 0.492311 0.552496 0.196737
Si Si3 0.000000 0.250000 0.760060
Si Si4 0.830676 0.049052 0.070931
Si Si5 0.276492 0.013616 0.809316
Si Si6 0.481032 0.563744 0.675751
Si Si7 0.954832 0.054158 0.439354
O O1 0.457101 0.672210 0.672978
O O2 0.508903 0.659663 0.212925
O O3 0.381467 0.544316 0.198013
O O4 0.536750 0.492800 0.257028
O O5 0.525420 0.503958 0.128352
O O6 0.908045 0.255907 0.806517
O O7 0.817545 0.158677 0.075366
O O8 0.924230 0.025152 0.111538
O O9 0.745160 0.013410 0.114535
O O10 0.818592 0.014885 0.994749
O O11 0.206706 0.096730 0.796477
O O12 0.000000 0.000000 0.500000
#
# Coordination Sequence:
#
# PCOD9546569 Si02
#       7
#     4  16   8  16  16  16  16
#     4   8  16  38  72  94 140 176 216 286 356 416
#     4  11  26  44  70 100 138 184 235 295 348 427
#     4  12  28  50  72 103 144 189 240 298 360 427
#     4  10  22  40  66  97 134 178 226 286 349 425
#     4  11  24  42  68  95 138 178 232 286 353 421
#     4   9  20  41  65 101 134 176 230 281 357 419
#     4  12  27  45  70 100 136 186 242 288 357 424
#
# _framework density 21.936093
#
# number of rings (size 3 to 8) (size 9 to 14) (size 15 to 20)
#    0.000    1.391    1.739    2.087    9.739    2.087 
#    0.000    0.000    0.000    0.000    0.000    0.000 
#    0.000    0.000    0.000    0.000    0.000    0.000 
#
# Total GULP energy -256542.007901 kJ/mol
# GULP energy per Si atom -5577.000172 kJ/mol
# Density = 2.188617 g / cm^3
# Si number density = 21.936093 Si / 1000 Ang^3
#
#
#
# Elastic Constant Matrix: (Units=GPa)
#
#
# Indices 1 2 3 4 5 6 
#
# 1 90.0986 24.7220 36.9412 0.0000 0.0000 -7.1429
# 2 24.7220 90.0986 36.9412 0.0000 0.0000 7.1429
# 3 36.9412 36.9412 91.4892 0.0000 0.0000 0.0000
# 4 0.0000 0.0000 0.0000 7.0546 0.0000 0.0000
# 5 0.0000 0.0000 0.0000 0.0000 7.0546 0.0000
# 6 -7.1429 7.1429 0.0000 0.0000 0.0000 30.2975
#
#
#
# Elastic Compliance Matrix: (Units=1/GPa)
#
#
# Indices 1 2 3 4 5 6 
#
# 1 0.013947 -0.002180 -0.004751 0.000000 0.000000 0.003802
# 2 -0.002180 0.013947 -0.004751 0.000000 0.000000 -0.003802
# 3 -0.004751 -0.004751 0.014767 0.000000 0.000000 0.000000
# 4 0.000000 0.000000 0.000000 0.141752 0.000000 0.000000
# 5 0.000000 0.000000 0.000000 0.000000 0.141752 0.000000
# 6 0.003802 -0.003802 0.000000 0.000000 0.000000 0.034799
#
#
# Mechanical properties :
#
#
# Convention : Reuss Voigt Hill
#
# Bulk Modulus (GPa) = 51.82512 52.09946 51.96229
# Shear Modulus (GPa) = 12.79559 20.42012 16.60785
#
# Velocity S-wave (km/s) = 2.41781 3.05436 2.75453
# Velocity P-wave (km/s) = 5.60992 6.02005 5.81860
#
# Compressibility (1/GPa) = 0.01929566
#
# Stress axis : x y z
#
# Youngs Moduli (GPa) = 71.70239 71.70239 67.71902
#
# Poissons Ratio (x) = 0.15633 0.32173
# Poissons Ratio (y) = 0.15633 0.32173
# Poissons Ratio (z) = 0.34065 0.34065
#
# Static dielectric constant tensor:
#      x y z
#    x 2.319740 0.000000 0.000000 
#    y 0.000000 2.319740 0.000000 
#    z 0.000000 0.000000 1.810480 
# 
# From -- ./inp_files/4738.got.cif
#   From: 2010.05.17/outbox.cif.g08.bks.cpg/sg88_3_cif.got.tgz:4738.got - 2010.06.03 19:11:41.
