data_PCOD9546735
_publ_section_title
;
Structure prediction by ZEFSAII (Michael W. Deem and Ramdas Pophale) SiO2 
 PCOD9546735
Probable space group: I 41/A
;
_chemical_formula_sum "Si O2"
_cell_formula_units_Z 88
_cell_length_a 16.348949
_cell_length_b 16.348949
_cell_length_c 14.652578
_cell_angle_alpha 90.000000
_cell_angle_beta 90.000000
_cell_angle_gamma 90.000000
_cell_volume 3916.460223
_symmetry_space_group_name_H-M "I 41/A"
_symmetry_group_IT_number 88
_space_group.IT_coordinate_system_code '2'
_symmetry_cell_setting 'tetragonal'
loop_
_space_group_symop_operation_xyz
x,y,z
3/4-y,1/4+x,1/4+z
-x,1/2-y,z
1/4+y,1/4-x,1/4+z
-x,-y,-z
1/4+y,3/4-x,3/4-z
x,1/2+y,-z
3/4-y,3/4+x,3/4-z
1/2+x,1/2+y,1/2+z
1/4-y,3/4+x,3/4+z
1/2-x,-y,1/2+z
3/4+y,3/4-x,3/4+z
1/2-x,1/2-y,1/2-z
3/4+y,1/4-x,1/4-z
1/2+x,y,1/2-z
1/4-y,1/4+x,1/4-z
loop_
_atom_site_type_symbol
_atom_site_label
_atom_site_fract_x
_atom_site_fract_y
_atom_site_fract_z
Si Si1 0.431974 0.448674 0.390417
Si Si2 0.000000 0.750000 0.644204
Si Si3 0.517307 0.382750 0.892830
Si Si4 0.242211 0.188684 0.987351
Si Si5 0.077563 0.888238 0.000946
Si Si6 0.134494 0.142778 0.821104
O O1 0.504994 0.464041 0.319382
O O2 0.483158 0.402438 0.469245
O O3 0.401501 0.534519 0.433800
O O4 0.370619 0.390744 0.333562
O O5 0.049950 0.680961 0.699947
O O6 0.069720 0.793984 0.585750
O O7 0.583034 0.318099 0.853123
O O8 0.500422 0.455690 0.825021
O O9 0.549743 0.415494 0.989286
O O10 0.179966 0.147680 0.916974
O O11 0.302563 0.122000 0.031090
#
# Coordination Sequence:
#
# PCOD9546735 Si02
#       6
#    16   8  16  16  16  16
#     4  11  24  43  71  99 138 175 232 280 346 415
#     4  12  20  39  73 100 122 174 234 282 335 397
#     4   9  19  36  64  96 129 168 220 279 334 396
#     4  11  22  39  66  93 136 172 224 279 339 404
#     4  11  24  41  71 101 138 180 227 287 344 411
#     4  11  22  38  65  98 134 176 226 284 339 408
#
# _framework density 22.469270000000002
#
# number of rings (size 3 to 8) (size 9 to 14) (size 15 to 20)
#    0.000    1.273    3.636    3.818    0.000    0.000 
#    0.000    0.000   24.000    0.000    0.000    0.000 
#    0.000    0.000    0.000    0.000    0.000    0.000 
#
# Total GULP energy -245726.387649 kJ/mol
# GULP energy per Si atom -5584.690628 kJ/mol
# Density = 2.241813 g / cm^3
# Si number density = 22.469270 Si / 1000 Ang^3
#
#
#
# Elastic Constant Matrix: (Units=GPa)
#
#
# Indices 1 2 3 4 5 6 
#
# 1 79.3589 28.2760 48.6454 0.0000 0.0000 3.5807
# 2 28.2760 79.3589 48.6454 0.0000 0.0000 -3.5807
# 3 48.6454 48.6454 100.8893 0.0000 0.0000 0.0000
# 4 0.0000 0.0000 0.0000 49.4131 0.0000 0.0000
# 5 0.0000 0.0000 0.0000 0.0000 49.4131 0.0000
# 6 3.5807 -3.5807 0.0000 0.0000 0.0000 17.0736
#
#
#
# Elastic Compliance Matrix: (Units=1/GPa)
#
#
# Indices 1 2 3 4 5 6 
#
# 1 0.018318 -0.001851 -0.007940 0.000000 0.000000 -0.004230
# 2 -0.001851 0.018318 -0.007940 0.000000 0.000000 0.004230
# 3 -0.007940 -0.007940 0.017569 0.000000 0.000000 0.000000
# 4 0.000000 0.000000 0.000000 0.020238 0.000000 0.000000
# 5 0.000000 0.000000 0.000000 0.000000 0.020238 0.000000
# 6 -0.004230 0.004230 0.000000 0.000000 0.000000 0.060344
#
#
# Mechanical properties :
#
#
# Convention : Reuss Voigt Hill
#
# Bulk Modulus (GPa) = 53.35153 56.74895 55.05024
# Shear Modulus (GPa) = 25.41490 32.11596 28.76543
#
# Velocity S-wave (km/s) = 3.36683 3.78475 3.58189
# Velocity P-wave (km/s) = 6.23777 6.66410 6.45445
#
# Compressibility (1/GPa) = 0.01874361
#
# Stress axis : x y z
#
# Youngs Moduli (GPa) = 54.58986 54.58986 56.91886
#
# Poissons Ratio (x) = 0.10102 0.45195
# Poissons Ratio (y) = 0.10102 0.45195
# Poissons Ratio (z) = 0.43346 0.43346
#
# Static dielectric constant tensor:
#      x y z
#    x 1.848830 0.000000 0.000000 
#    y 0.000000 1.848830 0.000000 
#    z 0.000000 0.000000 1.881550 
# 
# From -- ./inp_files/3217.got.cif
#   From: 2010.05.17/outbox.cif.g08.bks.cpg/sg88_2_cif.got.tgz:3217.got - 2010.06.03 19:11:41.
