data_PCOD9546627
_publ_section_title
;
Structure prediction by ZEFSAII (Michael W. Deem and Ramdas Pophale) SiO2 
 PCOD9546627
Probable space group: I 41/A
;
_chemical_formula_sum "Si O2"
_cell_formula_units_Z 48
_cell_length_a 19.062410
_cell_length_b 19.062410
_cell_length_c 5.215598
_cell_angle_alpha 90.000000
_cell_angle_beta 90.000000
_cell_angle_gamma 90.000000
_cell_volume 1895.220401
_symmetry_space_group_name_H-M "I 41/A"
_symmetry_group_IT_number 88
_space_group.IT_coordinate_system_code '2'
_symmetry_cell_setting 'tetragonal'
loop_
_space_group_symop_operation_xyz
x,y,z
3/4-y,1/4+x,1/4+z
-x,1/2-y,z
1/4+y,1/4-x,1/4+z
-x,-y,-z
1/4+y,3/4-x,3/4-z
x,1/2+y,-z
3/4-y,3/4+x,3/4-z
1/2+x,1/2+y,1/2+z
1/4-y,3/4+x,3/4+z
1/2-x,-y,1/2+z
3/4+y,3/4-x,3/4+z
1/2-x,1/2-y,1/2-z
3/4+y,1/4-x,1/4-z
1/2+x,y,1/2-z
1/4-y,1/4+x,1/4-z
loop_
_atom_site_type_symbol
_atom_site_label
_atom_site_fract_x
_atom_site_fract_y
_atom_site_fract_z
Si Si1 0.102004 0.133644 0.808464
Si Si2 0.845337 0.222354 0.951411
Si Si3 0.852488 0.482978 0.136581
O O1 0.153043 0.197173 0.878474
O O2 0.067605 0.133661 0.531701
O O3 0.042132 0.134326 0.029705
O O4 0.141110 0.060932 0.872160
O O5 0.771652 0.181558 0.002205
O O6 0.804529 0.435173 0.320712
#
# Coordination Sequence:
#
# PCOD9546627 Si02
#       3
#    16  16  16
#     4  10  23  42  68 101 135 174 223 277 337 397
#     4  10  23  42  68 101 135 174 223 277 337 397
#     4  10  26  44  71  96 134 182 229 280 334 406
#
# _framework density 25.326868000000001
#
# number of rings (size 3 to 8) (size 9 to 14) (size 15 to 20)
#    2.000    0.000    0.000    2.000    4.667    5.333 
#    0.000    3.333    0.000    0.000    0.000    0.000 
#    0.000    0.000    0.000    0.000    0.000    0.000 
#
# Total GULP energy -133995.379491 kJ/mol
# GULP energy per Si atom -5583.140812 kJ/mol
# Density = 2.526922 g / cm^3
# Si number density = 25.326868 Si / 1000 Ang^3
#
#
#
# Elastic Constant Matrix: (Units=GPa)
#
#
# Indices 1 2 3 4 5 6 
#
# 1 -329.7410 377.6706 12.5040 0.0000 0.0000 58.8430
# 2 377.6706 -329.7410 12.5040 0.0000 0.0000 -58.8430
# 3 12.5040 12.5040 128.3813 0.0000 0.0000 0.0000
# 4 0.0000 0.0000 0.0000 26.5016 0.0000 0.0000
# 5 0.0000 0.0000 0.0000 0.0000 26.5016 0.0000
# 6 58.8430 -58.8430 0.0000 0.0000 0.0000 -5.3964
#
#
#
# Elastic Compliance Matrix: (Units=1/GPa)
#
#
# Indices 1 2 3 4 5 6 
#
# 1 0.011859 0.010122 -0.002141 0.000000 0.000000 0.018936
# 2 0.010122 0.011859 -0.002141 0.000000 0.000000 -0.018936
# 3 -0.002141 -0.002141 0.008206 0.000000 0.000000 0.000000
# 4 0.000000 0.000000 0.000000 0.037734 0.000000 0.000000
# 5 0.000000 0.000000 0.000000 0.000000 0.037734 0.000000
# 6 0.018936 -0.018936 0.000000 0.000000 0.000000 0.227646
#
#
# Mechanical properties :
#
#
# Convention : Reuss Voigt Hill
#
# Bulk Modulus (GPa) = 22.93331 30.47295 26.70313
# Shear Modulus (GPa) = 14.79766 -52.73061 -18.96647
#
# Velocity S-wave (km/s) = 2.41978 -4.56785 -2.73951
# Velocity P-wave (km/s) = 4.10874 3.97018 0.74814
#
# Compressibility (1/GPa) = 0.04360469
#
# Stress axis : x y z
#
# Youngs Moduli (GPa) = 84.32579 84.32579 121.85714
#
# Poissons Ratio (x) = -0.85356 0.26088
# Poissons Ratio (y) = -0.85356 0.26088
# Poissons Ratio (z) = 0.18053 0.18053
#
# Static dielectric constant tensor:
#      x y z
#    x 2.001200 0.000000 0.000000 
#    y 0.000000 2.001200 0.000000 
#    z 0.000000 0.000000 1.991780 
# 
# From -- ./inp_files/360.got.cif
#   From: 2010.05.17/outbox.cif.g08.bks.cpg/sg88_1_cif.got.tgz:360.got - 2010.06.03 19:11:41.
