data_PCOD9546805
_publ_section_title
;
Structure prediction by ZEFSAII (Michael W. Deem and Ramdas Pophale) SiO2 
 PCOD9546805
Probable space group: I 41/A
;
_chemical_formula_sum "Si O2"
_cell_formula_units_Z 88
_cell_length_a 16.471638
_cell_length_b 16.471638
_cell_length_c 13.907450
_cell_angle_alpha 90.000000
_cell_angle_beta 90.000000
_cell_angle_gamma 90.000000
_cell_volume 3773.297827
_symmetry_space_group_name_H-M "I 41/A"
_symmetry_group_IT_number 88
_space_group.IT_coordinate_system_code '2'
_symmetry_cell_setting 'tetragonal'
loop_
_space_group_symop_operation_xyz
x,y,z
3/4-y,1/4+x,1/4+z
-x,1/2-y,z
1/4+y,1/4-x,1/4+z
-x,-y,-z
1/4+y,3/4-x,3/4-z
x,1/2+y,-z
3/4-y,3/4+x,3/4-z
1/2+x,1/2+y,1/2+z
1/4-y,3/4+x,3/4+z
1/2-x,-y,1/2+z
3/4+y,3/4-x,3/4+z
1/2-x,1/2-y,1/2-z
3/4+y,1/4-x,1/4-z
1/2+x,y,1/2-z
1/4-y,1/4+x,1/4-z
loop_
_atom_site_type_symbol
_atom_site_label
_atom_site_fract_x
_atom_site_fract_y
_atom_site_fract_z
Si Si1 0.464275 0.621158 0.981819
Si Si2 0.000000 0.750000 0.375000
Si Si3 0.589998 0.018683 0.120791
Si Si4 0.385391 0.611770 0.696858
Si Si5 0.061498 0.563149 0.131727
Si Si6 0.890989 0.520470 0.164456
Si Si7 0.500000 0.250000 0.375000
O O1 0.515946 0.672252 0.058214
O O2 0.423526 0.545982 0.036556
O O3 0.519836 0.585859 0.896876
O O4 0.392611 0.678853 0.946574
O O5 0.586245 0.975979 0.223493
O O6 0.675394 0.063549 0.108786
O O7 0.415512 0.519776 0.686397
O O8 0.333136 0.630611 0.791930
O O9 0.322762 0.625469 0.609914
O O10 0.455745 0.679238 0.686194
O O11 0.967717 0.552264 0.103359
#
# Coordination Sequence:
#
# PCOD9546805 Si02
#       7
#    16   4  16  16  16  16   4
#     4  11  25  44  73 104 144 192 243 311 369 459
#     4  12  24  50  72 108 150 192 248 308 382 452
#     4  11  26  45  70 108 147 195 250 304 387 439
#     4  12  28  48  72 108 146 197 243 314 371 450
#     4  12  27  46  74 106 144 190 255 301 386 445
#     4  12  26  45  71 104 146 193 248 310 372 453
#     4  12  28  50  76 104 152 194 256 304 370 460
#
# _framework density 23.321774000000001
#
# number of rings (size 3 to 8) (size 9 to 14) (size 15 to 20)
#    0.000    0.364    1.818    6.000    7.636    3.636 
#    0.000    0.000    0.000    0.000    0.000    0.000 
#    0.000    0.000    0.000    0.000    0.000    0.000 
#
# Total GULP energy -246494.610174 kJ/mol
# GULP energy per Si atom -5602.150231 kJ/mol
# Density = 2.326869 g / cm^3
# Si number density = 23.321774 Si / 1000 Ang^3
#
#
#
# Elastic Constant Matrix: (Units=GPa)
#
#
# Indices 1 2 3 4 5 6 
#
# 1 91.9001 20.5039 5.8092 0.0000 0.0000 1.0464
# 2 20.5039 91.9001 5.8092 0.0000 0.0000 -1.0464
# 3 5.8092 5.8092 63.8856 0.0000 0.0000 0.0000
# 4 0.0000 0.0000 0.0000 32.0132 0.0000 0.0000
# 5 0.0000 0.0000 0.0000 0.0000 32.0132 0.0000
# 6 1.0464 -1.0464 0.0000 0.0000 0.0000 50.5411
#
#
#
# Elastic Compliance Matrix: (Units=1/GPa)
#
#
# Indices 1 2 3 4 5 6 
#
# 1 0.011498 -0.002517 -0.000817 0.000000 0.000000 -0.000290
# 2 -0.002517 0.011498 -0.000817 0.000000 0.000000 0.000290
# 3 -0.000817 -0.000817 0.015802 0.000000 0.000000 0.000000
# 4 0.000000 0.000000 0.000000 0.031237 0.000000 0.000000
# 5 0.000000 0.000000 0.000000 0.000000 0.031237 0.000000
# 6 -0.000290 0.000290 0.000000 0.000000 0.000000 0.019798
#
#
# Mechanical properties :
#
#
# Convention : Reuss Voigt Hill
#
# Bulk Modulus (GPa) = 32.79041 34.65891 33.72466
# Shear Modulus (GPa) = 35.83319 37.28440 36.55879
#
# Velocity S-wave (km/s) = 3.92403 4.00271 3.96357
# Velocity P-wave (km/s) = 5.88398 6.02127 5.95302
#
# Compressibility (1/GPa) = 0.03049672
#
# Stress axis : x y z
#
# Youngs Moduli (GPa) = 86.97259 86.97259 63.28513
#
# Poissons Ratio (x) = 0.21891 0.05168
# Poissons Ratio (y) = 0.21891 0.05168
# Poissons Ratio (z) = 0.07103 0.07103
#
# Static dielectric constant tensor:
#      x y z
#    x 1.856090 0.000000 0.000000 
#    y 0.000000 1.856090 0.000000 
#    z 0.000000 0.000000 1.889630 
# 
# From -- ./inp_files/3239.got.cif
#   From: 2010.05.17/outbox.cif.g08.bks.cpg/sg88_2_cif.got.tgz:3239.got - 2010.06.03 19:11:41.
