data_PCOD9546150
_publ_section_title
;
Structure prediction by ZEFSAII (Michael W. Deem and Ramdas Pophale) SiO2 
 PCOD9546150
Probable space group: I 4/M
;
_chemical_formula_sum "Si O2"
_cell_formula_units_Z 72
_cell_length_a 22.439109
_cell_length_b 22.439109
_cell_length_c 7.525349
_cell_angle_alpha 90.000000
_cell_angle_beta 90.000000
_cell_angle_gamma 90.000000
_cell_volume 3789.115662
_symmetry_space_group_name_H-M "I 4/M"
_symmetry_group_IT_number 87
_symmetry_cell_setting 'tetragonal'
loop_
_space_group_symop_operation_xyz
x,y,z
-y,x,z
-x,-y,z
y,-x,z
-x,-y,-z
y,-x,-z
x,y,-z
-y,x,-z
1/2+x,1/2+y,1/2+z
1/2-y,1/2+x,1/2+z
1/2-x,1/2-y,1/2+z
1/2+y,1/2-x,1/2+z
1/2-x,1/2-y,1/2-z
1/2+y,1/2-x,1/2-z
1/2+x,1/2+y,1/2-z
1/2-y,1/2+x,1/2-z
loop_
_atom_site_type_symbol
_atom_site_label
_atom_site_fract_x
_atom_site_fract_y
_atom_site_fract_z
Si Si1 0.194362 0.935789 0.216244
Si Si2 0.679392 0.012224 0.791778
Si Si3 0.115501 0.627001 0.285286
Si Si4 0.818376 0.738453 0.211354
Si Si5 0.596260 0.469984 0.000000
O O1 0.213029 0.867745 0.267107
O O2 0.137681 0.956792 0.328220
O O3 0.253437 0.973927 0.271326
O O4 0.185674 0.939703 0.000000
O O5 0.655900 0.945979 0.771813
O O6 0.630988 0.059974 0.722728
O O7 0.684131 0.025646 0.000000
O O8 0.113160 0.627962 0.500000
O O9 0.173083 0.663710 0.222071
O O10 0.750000 0.750000 0.250000
O O11 0.825519 0.736203 0.000000
O O12 0.572195 0.537845 0.000000
#
# Coordination Sequence:
#
# PCOD9546150 Si02
#       5
#    16  16  16  16   8
#     4   9  21  42  62  84 122 159 192 242 297 354
#     4   9  19  36  54  79 114 152 194 234 285 347
#     4   9  19  34  51  75 111 149 188 236 285 342
#     4   9  19  35  55  83 116 148 187 241 299 350
#     4  11  26  44  64  92 118 151 202 248 296 356
#
# _framework density 19.001795999999999
#
# number of rings (size 3 to 8) (size 9 to 14) (size 15 to 20)
#    0.000    2.778    0.000    2.667    3.111    4.889 
#    4.000    7.778    0.000    0.000    0.000    0.000 
#    0.000    0.000    0.000    0.000    0.000    0.000 
#
# Total GULP energy -200585.965272 kJ/mol
# GULP energy per Si atom -5571.832369 kJ/mol
# Density = 1.895855 g / cm^3
# Si number density = 19.001796 Si / 1000 Ang^3
#
#
#
# Elastic Constant Matrix: (Units=GPa)
#
#
# Indices 1 2 3 4 5 6 
#
# 1 152.9902 90.6055 30.4545 0.0000 0.0000 -15.3600
# 2 90.6055 152.9902 30.4545 0.0000 0.0000 15.3600
# 3 30.4545 30.4545 68.6325 0.0000 0.0000 0.0000
# 4 0.0000 0.0000 0.0000 28.3796 0.0000 0.0000
# 5 0.0000 0.0000 0.0000 0.0000 28.3796 0.0000
# 6 -15.3600 15.3600 0.0000 0.0000 0.0000 21.6626
#
#
#
# Elastic Compliance Matrix: (Units=1/GPa)
#
#
# Indices 1 2 3 4 5 6 
#
# 1 0.014623 -0.010006 -0.002049 0.000000 0.000000 0.017463
# 2 -0.010006 0.014623 -0.002049 0.000000 0.000000 -0.017463
# 3 -0.002049 -0.002049 0.016389 0.000000 0.000000 0.000000
# 4 0.000000 0.000000 0.000000 0.035237 0.000000 0.000000
# 5 0.000000 0.000000 0.000000 0.000000 0.035237 0.000000
# 6 0.017463 -0.017463 0.000000 0.000000 0.000000 0.070927
#
#
# Mechanical properties :
#
#
# Convention : Reuss Voigt Hill
#
# Bulk Modulus (GPa) = 57.37908 75.29353 66.33630
# Shear Modulus (GPa) = 22.61912 30.55759 26.58835
#
# Velocity S-wave (km/s) = 3.45391 4.01452 3.74472
# Velocity P-wave (km/s) = 6.79472 7.82297 7.32691
#
# Compressibility (1/GPa) = 0.01742796
#
# Stress axis : x y z
#
# Youngs Moduli (GPa) = 68.38440 68.38440 61.01765
#
# Poissons Ratio (x) = 0.68424 0.12502
# Poissons Ratio (y) = 0.68424 0.12502
# Poissons Ratio (z) = 0.14011 0.14011
#
# Static dielectric constant tensor:
#      x y z
#    x 1.676770 0.000000 0.000000 
#    y 0.000000 1.676770 0.000000 
#    z 0.000000 0.000000 1.705510 
# 
# From -- ./inp_files/1068.got.cif
#   From: 2010.05.17/outbox.cif.g08.bks.cpg/sg87_1_cif.got.tgz:1068.got - 2010.06.03 19:07:00.
