data_PCOD9546704
_publ_section_title
;
Structure prediction by ZEFSAII (Michael W. Deem and Ramdas Pophale) SiO2 
 PCOD9546704
Probable space group: I 41/A
;
_chemical_formula_sum "Si O2"
_cell_formula_units_Z 68
_cell_length_a 12.041598
_cell_length_b 12.041598
_cell_length_c 17.633071
_cell_angle_alpha 90.000000
_cell_angle_beta 90.000000
_cell_angle_gamma 90.000000
_cell_volume 2556.796748
_symmetry_space_group_name_H-M "I 41/A"
_symmetry_group_IT_number 88
_space_group.IT_coordinate_system_code '2'
_symmetry_cell_setting 'tetragonal'
loop_
_space_group_symop_operation_xyz
x,y,z
3/4-y,1/4+x,1/4+z
-x,1/2-y,z
1/4+y,1/4-x,1/4+z
-x,-y,-z
1/4+y,3/4-x,3/4-z
x,1/2+y,-z
3/4-y,3/4+x,3/4-z
1/2+x,1/2+y,1/2+z
1/4-y,3/4+x,3/4+z
1/2-x,-y,1/2+z
3/4+y,3/4-x,3/4+z
1/2-x,1/2-y,1/2-z
3/4+y,1/4-x,1/4-z
1/2+x,y,1/2-z
1/4-y,1/4+x,1/4-z
loop_
_atom_site_type_symbol
_atom_site_label
_atom_site_fract_x
_atom_site_fract_y
_atom_site_fract_z
Si Si1 0.505895 0.878410 0.854342
Si Si2 0.563542 0.527481 0.711367
Si Si3 0.114978 0.886649 0.504912
Si Si4 0.275570 0.037346 0.875501
Si Si5 0.000000 0.250000 0.125000
O O1 0.500000 0.750000 0.836618
O O2 0.417986 0.939943 0.800569
O O3 0.502773 0.890599 0.945931
O O4 0.626557 0.931278 0.835908
O O5 0.474243 0.428501 0.717963
O O6 0.665370 0.500308 0.656401
O O7 0.508575 0.638430 0.675369
O O8 0.184656 0.988995 0.540458
O O9 0.116921 0.905014 0.415350
#
# Coordination Sequence:
#
# PCOD9546704 Si02
#       5
#    16  16  16  16   4
#     4   9  19  34  50  79 112 148 185 223 281 342
#     4  11  19  31  52  82 116 149 176 228 284 342
#     4   9  20  36  53  81 117 148 183 235 277 341
#     4   9  20  34  53  81 114 147 189 229 280 339
#     4  12  16  28  44  88 120 140 180 214 284 352
#
# _framework density 26.595776000000001
#
# number of rings (size 3 to 8) (size 9 to 14) (size 15 to 20)
#    1.412    0.941    3.529    0.000    0.000    2.824 
#    0.000    0.000    0.000    5.647    0.000    0.000 
#    0.000    0.000    0.000    0.000    0.000    0.000 
#
# Total GULP energy -189677.063814 kJ/mol
# GULP energy per Si atom -5578.737171 kJ/mol
# Density = 2.653524 g / cm^3
# Si number density = 26.595776 Si / 1000 Ang^3
#
#
#
# Elastic Constant Matrix: (Units=GPa)
#
#
# Indices 1 2 3 4 5 6 
#
# 1 79.5966 -1.3398 1.2285 0.0000 0.0000 -0.9608
# 2 -1.3398 79.5966 1.2285 0.0000 0.0000 0.9608
# 3 1.2285 1.2285 128.0444 0.0000 0.0000 0.0000
# 4 0.0000 0.0000 0.0000 28.5110 0.0000 0.0000
# 5 0.0000 0.0000 0.0000 0.0000 28.5110 0.0000
# 6 -0.9608 0.9608 0.0000 0.0000 0.0000 47.0869
#
#
#
# Elastic Compliance Matrix: (Units=1/GPa)
#
#
# Indices 1 2 3 4 5 6 
#
# 1 0.012572 0.000210 -0.000123 0.000000 0.000000 0.000252
# 2 0.000210 0.012572 -0.000123 0.000000 0.000000 -0.000252
# 3 -0.000123 -0.000123 0.007812 0.000000 0.000000 0.000000
# 4 0.000000 0.000000 0.000000 0.035074 0.000000 0.000000
# 5 0.000000 0.000000 0.000000 0.000000 0.035074 0.000000
# 6 0.000252 -0.000252 0.000000 0.000000 0.000000 0.021248
#
#
# Mechanical properties :
#
#
# Convention : Reuss Voigt Hill
#
# Bulk Modulus (GPa) = 30.40788 32.16353 31.28571
# Shear Modulus (GPa) = 36.93214 39.89648 38.41431
#
# Velocity S-wave (km/s) = 3.73050 3.87732 3.80462
# Velocity P-wave (km/s) = 5.47847 5.67138 5.57576
#
# Compressibility (1/GPa) = 0.03288621
#
# Stress axis : x y z
#
# Youngs Moduli (GPa) = 79.54289 79.54288 128.00581
#
# Poissons Ratio (x) = -0.01674 0.01570
# Poissons Ratio (y) = -0.01674 0.01570
# Poissons Ratio (z) = 0.00975 0.00975
#
# Static dielectric constant tensor:
#      x y z
#    x 2.239960 0.000000 0.000000 
#    y 0.000000 2.239960 0.000000 
#    z 0.000000 0.000000 2.244440 
# 
# From -- ./inp_files/4496.got.cif
#   From: 2010.05.17/outbox.cif.g08.bks.cpg/sg88_3_cif.got.tgz:4496.got - 2010.06.03 19:11:41.
