data_PCOD9546777
_publ_section_title
;
Structure prediction by ZEFSAII (Michael W. Deem and Ramdas Pophale) SiO2 
 PCOD9546777
Probable space group: I 41/A
;
_chemical_formula_sum "Si O2"
_cell_formula_units_Z 88
_cell_length_a 15.618392
_cell_length_b 15.618392
_cell_length_c 14.823153
_cell_angle_alpha 90.000000
_cell_angle_beta 90.000000
_cell_angle_gamma 90.000000
_cell_volume 3615.873504
_symmetry_space_group_name_H-M "I 41/A"
_symmetry_group_IT_number 88
_space_group.IT_coordinate_system_code '2'
_symmetry_cell_setting 'tetragonal'
loop_
_space_group_symop_operation_xyz
x,y,z
3/4-y,1/4+x,1/4+z
-x,1/2-y,z
1/4+y,1/4-x,1/4+z
-x,-y,-z
1/4+y,3/4-x,3/4-z
x,1/2+y,-z
3/4-y,3/4+x,3/4-z
1/2+x,1/2+y,1/2+z
1/4-y,3/4+x,3/4+z
1/2-x,-y,1/2+z
3/4+y,3/4-x,3/4+z
1/2-x,1/2-y,1/2-z
3/4+y,1/4-x,1/4-z
1/2+x,y,1/2-z
1/4-y,1/4+x,1/4-z
loop_
_atom_site_type_symbol
_atom_site_label
_atom_site_fract_x
_atom_site_fract_y
_atom_site_fract_z
Si Si1 0.312187 0.385007 0.310886
Si Si2 0.805594 0.456303 0.378825
Si Si3 0.096354 0.333588 0.763058
Si Si4 0.804889 0.267585 0.616421
Si Si5 0.000000 0.250000 0.928729
Si Si6 0.336376 0.264426 0.471634
O O1 0.256795 0.463057 0.352091
O O2 0.291527 0.392397 0.205483
O O3 0.302642 0.309239 0.381450
O O4 0.414876 0.400488 0.303748
O O5 0.829795 0.395921 0.462182
O O6 0.885357 0.520955 0.380676
O O7 0.162463 0.274205 0.708896
O O8 0.020308 0.361696 0.697810
O O9 0.059945 0.300763 0.857900
O O10 0.729794 0.226076 0.555475
O O11 0.930209 0.295871 0.993078
#
# Coordination Sequence:
#
# PCOD9546777 Si02
#       6
#    16  16  16  16   8  16
#     4  11  24  44  70  98 143 184 229 285 349 409
#     4  11  23  45  69  97 141 180 224 290 346 402
#     4  12  23  46  71  99 138 182 228 293 348 401
#     4  11  25  46  71 100 139 180 234 288 346 415
#     4  12  24  42  72 106 134 184 236 283 345 416
#     4  11  24  43  67 105 136 184 231 287 340 421
#
# _framework density 24.337135
#
# number of rings (size 3 to 8) (size 9 to 14) (size 15 to 20)
#    0.000    0.727    7.273    2.727    0.000    3.636 
#    0.000    0.000    0.000    0.000    0.000    0.000 
#    0.000    0.000    0.000    0.000    0.000    0.000 
#
# Total GULP energy -245382.473661 kJ/mol
# GULP energy per Si atom -5576.874401 kJ/mol
# Density = 2.428174 g / cm^3
# Si number density = 24.337135 Si / 1000 Ang^3
#
#
#
# Elastic Constant Matrix: (Units=GPa)
#
#
# Indices 1 2 3 4 5 6 
#
# 1 57.0222 2.3584 26.9211 0.0000 0.0000 8.0437
# 2 2.3584 57.0222 26.9211 0.0000 0.0000 -8.0437
# 3 26.9211 26.9211 102.6701 0.0000 0.0000 0.0000
# 4 0.0000 0.0000 0.0000 18.0541 0.0000 0.0000
# 5 0.0000 0.0000 0.0000 0.0000 18.0541 0.0000
# 6 8.0437 -8.0437 0.0000 0.0000 0.0000 1.2150
#
#
#
# Elastic Compliance Matrix: (Units=1/GPa)
#
#
# Indices 1 2 3 4 5 6 
#
# 1 0.001401 0.020692 -0.005793 0.000000 0.000000 0.127708
# 2 0.020692 0.001401 -0.005793 0.000000 0.000000 -0.127708
# 3 -0.005793 -0.005793 0.012778 0.000000 0.000000 0.000000
# 4 0.000000 0.000000 0.000000 0.055389 0.000000 0.000000
# 5 0.000000 0.000000 0.000000 0.000000 0.055389 0.000000
# 6 0.127708 -0.127708 0.000000 0.000000 0.000000 -0.867881
#
#
# Mechanical properties :
#
#
# Convention : Reuss Voigt Hill
#
# Bulk Modulus (GPa) = 29.59263 36.56840 33.08052
# Shear Modulus (GPa) = -6.68030 18.16556 5.74263
#
# Velocity S-wave (km/s) = -1.65857 2.73502 1.53777
# Velocity P-wave (km/s) = 2.91857 5.00322 4.09574
#
# Compressibility (1/GPa) = 0.03379219
#
# Stress axis : x y z
#
# Youngs Moduli (GPa) = 713.57143 713.57236 78.26002
#
# Poissons Ratio (x) = -14.76513 0.45336
# Poissons Ratio (y) = -14.76511 0.45336
# Poissons Ratio (z) = 4.13376 4.13376
#
# Static dielectric constant tensor:
#      x y z
#    x 1.985470 0.000000 0.000000 
#    y 0.000000 1.985470 0.000000 
#    z 0.000000 0.000000 1.947730 
# 
# From -- ./inp_files/3191.got.cif
#   From: 2010.05.17/outbox.cif.g08.bks.cpg/sg88_2_cif.got.tgz:3191.got - 2010.06.03 19:11:41.
