data_PCOD9546837
_publ_section_title
;
Structure prediction by ZEFSAII (Michael W. Deem and Ramdas Pophale) SiO2 
 PCOD9546837
Probable space group: I 41/A
;
_chemical_formula_sum "Si O2"
_cell_formula_units_Z 112
_cell_length_a 29.030366
_cell_length_b 29.030366
_cell_length_c 5.657522
_cell_angle_alpha 90.000000
_cell_angle_beta 90.000000
_cell_angle_gamma 90.000000
_cell_volume 4767.945405
_symmetry_space_group_name_H-M "I 41/A"
_symmetry_group_IT_number 88
_space_group.IT_coordinate_system_code '2'
_symmetry_cell_setting 'tetragonal'
loop_
_space_group_symop_operation_xyz
x,y,z
3/4-y,1/4+x,1/4+z
-x,1/2-y,z
1/4+y,1/4-x,1/4+z
-x,-y,-z
1/4+y,3/4-x,3/4-z
x,1/2+y,-z
3/4-y,3/4+x,3/4-z
1/2+x,1/2+y,1/2+z
1/4-y,3/4+x,3/4+z
1/2-x,-y,1/2+z
3/4+y,3/4-x,3/4+z
1/2-x,1/2-y,1/2-z
3/4+y,1/4-x,1/4-z
1/2+x,y,1/2-z
1/4-y,1/4+x,1/4-z
loop_
_atom_site_type_symbol
_atom_site_label
_atom_site_fract_x
_atom_site_fract_y
_atom_site_fract_z
Si Si1 0.557641 0.497679 0.672889
Si Si2 0.105643 0.633286 0.137224
Si Si3 0.364063 0.062533 0.457207
Si Si4 0.314852 0.636206 0.245977
Si Si5 0.155486 0.221333 0.665343
Si Si6 0.256401 0.062623 0.960943
Si Si7 0.479022 0.406544 0.425452
O O1 0.589265 0.465063 0.507664
O O2 0.590636 0.534641 0.805515
O O3 0.540206 0.460220 0.867752
O O4 0.527518 0.537497 0.543409
O O5 0.084929 0.596918 0.325497
O O6 0.120312 0.679813 0.267726
O O7 0.066491 0.626345 0.937457
O O8 0.154231 0.617982 0.019767
O O9 0.349315 0.097130 0.660991
O O10 0.321469 0.027703 0.428097
O O11 0.277763 0.611457 0.084216
O O12 0.141868 0.240235 0.403061
O O13 0.153136 0.250279 0.910618
O O14 0.295008 0.025571 0.004556
#
# Coordination Sequence:
#
# PCOD9546837 Si02
#       7
#    16  16  16  16  16  16  16
#     4  12  24  45  75 108 154 194 256 314 377 445
#     4  12  26  50  74  99 150 194 244 300 392 462
#     4  12  23  43  64  98 137 205 253 303 365 444
#     4  12  23  43  64  98 137 205 253 303 365 444
#     4  12  28  49  79 115 151 193 249 312 381 459
#     4  12  22  35  53  88 134 186 264 320 353 409
#     4  12  28  49  79 115 151 193 249 312 381 459
#
# _framework density 23.490200999999999
#
# number of rings (size 3 to 8) (size 9 to 14) (size 15 to 20)
#    0.000    0.000    4.286    6.857    0.000    2.286 
#    0.000    0.000    0.000    2.571    0.000    0.000 
#    0.000    0.000    0.000    0.000    0.000    0.000 
#
# Total GULP energy -312427.034924 kJ/mol
# GULP energy per Si atom -5579.054195 kJ/mol
# Density = 2.343674 g / cm^3
# Si number density = 23.490201 Si / 1000 Ang^3
#
#
#
# Elastic Constant Matrix: (Units=GPa)
#
#
# Indices 1 2 3 4 5 6 
#
# 1 93.6024 13.1330 46.3588 0.0000 0.0000 -16.7561
# 2 13.1330 93.6024 46.3588 0.0000 0.0000 16.7561
# 3 46.3588 46.3588 129.8918 0.0000 0.0000 0.0000
# 4 0.0000 0.0000 0.0000 49.1893 0.0000 0.0000
# 5 0.0000 0.0000 0.0000 0.0000 49.1893 0.0000
# 6 -16.7561 16.7561 0.0000 0.0000 0.0000 51.4354
#
#
#
# Elastic Compliance Matrix: (Units=1/GPa)
#
#
# Indices 1 2 3 4 5 6 
#
# 1 0.013978 -0.000399 -0.004846 0.000000 0.000000 0.004684
# 2 -0.000399 0.013978 -0.004846 0.000000 0.000000 -0.004684
# 3 -0.004846 -0.004846 0.011158 0.000000 0.000000 0.000000
# 4 0.000000 0.000000 0.000000 0.020330 0.000000 0.000000
# 5 0.000000 0.000000 0.000000 0.000000 0.020330 0.000000
# 6 0.004684 -0.004684 0.000000 0.000000 0.000000 0.022494
#
#
# Mechanical properties :
#
#
# Convention : Reuss Voigt Hill
#
# Bulk Modulus (GPa) = 52.82512 58.75529 55.79021
# Shear Modulus (GPa) = 38.83143 44.04585 41.43864
#
# Velocity S-wave (km/s) = 4.07023 4.33491 4.20465
# Velocity P-wave (km/s) = 6.68027 7.07971 6.88289
#
# Compressibility (1/GPa) = 0.01893039
#
# Stress axis : x y z
#
# Youngs Moduli (GPa) = 71.53969 71.53969 89.62144
#
# Poissons Ratio (x) = 0.02858 0.43433
# Poissons Ratio (y) = 0.02858 0.43433
# Poissons Ratio (z) = 0.34670 0.34670
#
# Static dielectric constant tensor:
#      x y z
#    x 1.935090 0.000000 0.000000 
#    y 0.000000 1.935090 0.000000 
#    z 0.000000 0.000000 1.939040 
# 
# From -- ./inp_files/788.got.cif
#   From: 2010.05.17/outbox.cif.g08.bks.cpg/sg88_1_cif.got.tgz:788.got - 2010.06.03 19:11:41.
