data_PCOD9546979
_publ_section_title
;
Structure prediction by ZEFSAII (Michael W. Deem and Ramdas Pophale) SiO2 
 PCOD9546979
Probable space group: P 4 2 2
;
_chemical_formula_sum "Si O2"
_cell_formula_units_Z 24
_cell_length_a 10.441262
_cell_length_b 10.441262
_cell_length_c 9.896348
_cell_angle_alpha 90.000000
_cell_angle_beta 90.000000
_cell_angle_gamma 90.000000
_cell_volume 1078.899385
_symmetry_space_group_name_H-M "P 4 2 2"
_symmetry_group_IT_number 89
_symmetry_cell_setting 'tetragonal'
loop_
_space_group_symop_operation_xyz
x,y,z
-y,x,z
-x,-y,z
y,-x,z
x,-y,-z
-x,y,-z
y,x,-z
-y,-x,-z
loop_
_atom_site_type_symbol
_atom_site_label
_atom_site_fract_x
_atom_site_fract_y
_atom_site_fract_z
Si Si1 0.808547 0.629855 0.915860
Si Si2 0.288538 0.260523 0.357149
Si Si3 0.350560 0.994148 0.296631
O O1 0.730399 0.618620 0.772446
O O2 0.948904 0.660566 0.855527
O O3 0.806029 0.500000 0.000000
O O4 0.742152 0.742152 0.000000
O O5 0.322892 0.322892 0.500000
O O6 0.283663 0.106391 0.382385
O O7 0.148771 0.303623 0.310119
O O8 0.500000 0.000000 0.331940
#
# Coordination Sequence:
#
# PCOD9546979 Si02
#       3
#     8   8   8
#     4  10  23  42  67  98 137 179 232 287 355 419
#     4  10  23  40  68 102 134 179 234 284 351 422
#     4  10  23  43  70  96 141 179 232 286 349 415
#
# _framework density 22.244890999999999
#
# number of rings (size 3 to 8) (size 9 to 14) (size 15 to 20)
#    2.000    0.000    0.000    3.000    0.000    8.333 
#    0.000    1.667    0.000    7.000    0.000    4.667 
#    0.000    0.000    0.000    0.000    0.000    0.000 
#
# Total GULP energy -133757.763044 kJ/mol
# GULP energy per Si atom -5573.240127 kJ/mol
# Density = 2.219426 g / cm^3
# Si number density = 22.244891 Si / 1000 Ang^3
#
#
#
# Elastic Constant Matrix: (Units=GPa)
#
#
# Indices 1 2 3 4 5 6 
#
# 1 79.7833 70.2338 24.0184 0.0000 0.0000 0.0000
# 2 70.2338 79.7833 24.0184 0.0000 0.0000 0.0000
# 3 24.0184 24.0184 192.4183 0.0000 0.0000 0.0000
# 4 0.0000 0.0000 0.0000 2.3691 0.0000 0.0000
# 5 0.0000 0.0000 0.0000 0.0000 2.3691 0.0000
# 6 0.0000 0.0000 0.0000 0.0000 0.0000 -170.8839
#
#
#
# Elastic Compliance Matrix: (Units=1/GPa)
#
#
# Indices 1 2 3 4 5 6 
#
# 1 0.055830 -0.048887 -0.000867 0.000000 0.000000 0.000000
# 2 -0.048887 0.055830 -0.000867 0.000000 0.000000 0.000000
# 3 -0.000867 -0.000867 0.005413 0.000000 0.000000 0.000000
# 4 0.000000 0.000000 0.000000 0.422107 0.000000 0.000000
# 5 0.000000 0.000000 0.000000 0.000000 0.422107 0.000000
# 6 0.000000 0.000000 0.000000 0.000000 0.000000 -0.005852
#
#
# Mechanical properties :
#
#
# Convention : Reuss Voigt Hill
#
# Bulk Modulus (GPa) = 63.15755 65.39181 64.27468
# Shear Modulus (GPa) = 4.70830 -17.64820 -6.46995
#
# Velocity S-wave (km/s) = 1.45642 -2.81972 -1.70729
# Velocity P-wave (km/s) = 5.59301 4.34270 5.00704
#
# Compressibility (1/GPa) = 0.01583342
#
# Stress axis : x y z
#
# Youngs Moduli (GPa) = 17.91144 17.91144 184.72734
#
# Poissons Ratio (x) = 0.87563 0.16010
# Poissons Ratio (y) = 0.87563 0.16010
# Poissons Ratio (z) = 0.01552 0.01552
#
# Static dielectric constant tensor:
#      x y z
#    x 1.816700 0.000000 0.000000 
#    y 0.000000 1.816700 0.000000 
#    z 0.000000 0.000000 2.003020 
# 
# From -- ./inp_files/1457.got.cif
#   From: 2010.05.17/outbox.cif.g08.bks.cpg/sg89_1_cif.got.tgz:1457.got - 2010.06.03 19:15:31.
