data_PCOD9546758
_publ_section_title
;
Structure prediction by ZEFSAII (Michael W. Deem and Ramdas Pophale) SiO2 
 PCOD9546758
Probable space group: I 41/A
;
_chemical_formula_sum "Si O2"
_cell_formula_units_Z 72
_cell_length_a 15.095811
_cell_length_b 15.095811
_cell_length_c 14.964450
_cell_angle_alpha 90.000000
_cell_angle_beta 90.000000
_cell_angle_gamma 90.000000
_cell_volume 3410.151387
_symmetry_space_group_name_H-M "I 41/A"
_symmetry_group_IT_number 88
_space_group.IT_coordinate_system_code '2'
_symmetry_cell_setting 'tetragonal'
loop_
_space_group_symop_operation_xyz
x,y,z
3/4-y,1/4+x,1/4+z
-x,1/2-y,z
1/4+y,1/4-x,1/4+z
-x,-y,-z
1/4+y,3/4-x,3/4-z
x,1/2+y,-z
3/4-y,3/4+x,3/4-z
1/2+x,1/2+y,1/2+z
1/4-y,3/4+x,3/4+z
1/2-x,-y,1/2+z
3/4+y,3/4-x,3/4+z
1/2-x,1/2-y,1/2-z
3/4+y,1/4-x,1/4-z
1/2+x,y,1/2-z
1/4-y,1/4+x,1/4-z
loop_
_atom_site_type_symbol
_atom_site_label
_atom_site_fract_x
_atom_site_fract_y
_atom_site_fract_z
Si Si1 0.253497 0.395934 0.731026
Si Si2 0.500000 0.750000 0.625000
Si Si3 0.834856 0.050537 0.908510
Si Si4 0.443949 0.925471 0.190050
Si Si5 0.177716 0.298361 0.049824
Si Si6 0.500000 0.250000 0.875000
O O1 0.189225 0.397815 0.816891
O O2 0.246914 0.493603 0.687001
O O3 0.220314 0.328895 0.655449
O O4 0.353405 0.388314 0.766340
O O5 0.492500 0.658788 0.678394
O O6 0.909095 0.978874 0.884472
O O7 0.853080 0.120182 0.986671
O O8 0.507291 0.841032 0.178956
O O9 0.490077 0.999827 0.248996
#
# Coordination Sequence:
#
# PCOD9546758 Si02
#       6
#    16   4  16  16  16   4
#     4   9  19  38  62  87 120 165 209 254 320 384
#     4  12  28  44  62  96 128 166 228 264 300 388
#     4   9  19  39  63  85 116 162 207 256 320 379
#     4  11  23  38  61  93 131 168 211 268 322 380
#     4  11  24  41  63  92 127 166 212 267 320 380
#     4  12  24  36  58  96 128 160 216 266 308 380
#
# _framework density 21.113432
#
# number of rings (size 3 to 8) (size 9 to 14) (size 15 to 20)
#    0.000    1.778    0.000    5.333    0.000    8.000 
#    0.000    1.111    0.000    0.000    0.000    0.000 
#    0.000    0.000    0.000    0.000    0.000    0.000 
#
# Total GULP energy -201235.833253 kJ/mol
# GULP energy per Si atom -5589.884257 kJ/mol
# Density = 2.106538 g / cm^3
# Si number density = 21.113432 Si / 1000 Ang^3
#
#
#
# Elastic Constant Matrix: (Units=GPa)
#
#
# Indices 1 2 3 4 5 6 
#
# 1 80.9543 23.0063 16.0404 0.0000 0.0000 2.2128
# 2 23.0063 80.9543 16.0404 0.0000 0.0000 -2.2128
# 3 16.0404 16.0404 50.0257 0.0000 0.0000 0.0000
# 4 0.0000 0.0000 0.0000 28.3348 0.0000 0.0000
# 5 0.0000 0.0000 0.0000 0.0000 28.3348 0.0000
# 6 2.2128 -2.2128 0.0000 0.0000 0.0000 33.9116
#
#
#
# Elastic Compliance Matrix: (Units=1/GPa)
#
#
# Indices 1 2 3 4 5 6 
#
# 1 0.014009 -0.003334 -0.003423 0.000000 0.000000 -0.001132
# 2 -0.003334 0.014009 -0.003423 0.000000 0.000000 0.001132
# 3 -0.003423 -0.003423 0.022185 0.000000 0.000000 0.000000
# 4 0.000000 0.000000 0.000000 0.035292 0.000000 0.000000
# 5 0.000000 0.000000 0.000000 0.000000 0.035292 0.000000
# 6 -0.001132 0.001132 0.000000 0.000000 0.000000 0.029636
#
#
# Mechanical properties :
#
#
# Convention : Reuss Voigt Hill
#
# Bulk Modulus (GPa) = 33.50803 35.78984 34.64894
# Shear Modulus (GPa) = 27.66529 28.57270 28.11899
#
# Velocity S-wave (km/s) = 3.62376 3.68271 3.65335
# Velocity P-wave (km/s) = 5.78046 5.92209 5.85170
#
# Compressibility (1/GPa) = 0.02984359
#
# Stress axis : x y z
#
# Youngs Moduli (GPa) = 71.38120 71.38120 45.07586
#
# Poissons Ratio (x) = 0.23798 0.15429
# Poissons Ratio (y) = 0.23798 0.15429
# Poissons Ratio (z) = 0.24433 0.24433
#
# Static dielectric constant tensor:
#      x y z
#    x 1.764420 0.000000 0.000000 
#    y 0.000000 1.764420 0.000000 
#    z 0.000000 0.000000 1.776700 
# 
# From -- ./inp_files/3842.got.cif
#   From: 2010.05.17/outbox.cif.g08.bks.cpg/sg88_2_cif.got.tgz:3842.got - 2010.06.03 19:11:41.
