data_PCOD9546996
_publ_section_title
;
Structure prediction by ZEFSAII (Michael W. Deem and Ramdas Pophale) SiO2 
 PCOD9546996
Probable space group: P 4 2 2
;
_chemical_formula_sum "Si O2"
_cell_formula_units_Z 48
_cell_length_a 9.490690
_cell_length_b 9.490690
_cell_length_c 29.227683
_cell_angle_alpha 90.000000
_cell_angle_beta 90.000000
_cell_angle_gamma 90.000000
_cell_volume 2632.630839
_symmetry_space_group_name_H-M "P 4 2 2"
_symmetry_group_IT_number 89
_symmetry_cell_setting 'tetragonal'
loop_
_space_group_symop_operation_xyz
x,y,z
-y,x,z
-x,-y,z
y,-x,z
x,-y,-z
-x,y,-z
y,x,-z
-y,-x,-z
loop_
_atom_site_type_symbol
_atom_site_label
_atom_site_fract_x
_atom_site_fract_y
_atom_site_fract_z
Si Si1 0.353235 0.145913 0.022650
Si Si2 0.858581 0.806924 0.706707
Si Si3 0.712403 0.601976 0.887580
Si Si4 0.626756 0.699501 0.219648
Si Si5 0.830639 0.841145 0.445156
Si Si6 0.682825 0.346985 0.372973
O O1 0.355328 0.166413 0.077045
O O2 0.500000 0.184512 0.000000
O O3 0.249774 0.249774 0.000000
O O4 0.316415 0.000000 0.000000
O O5 0.806168 0.719099 0.750820
O O6 0.780349 0.726641 0.665262
O O7 0.029019 0.810028 0.705362
O O8 0.563570 0.680684 0.896011
O O9 0.738564 0.630558 0.834120
O O10 0.458589 0.687079 0.229173
O O11 0.824834 0.824834 0.500000
O O12 0.718135 0.743770 0.419909
O O13 0.993819 0.807421 0.432668
O O14 0.691449 0.516807 0.369072
#
# Coordination Sequence:
#
# PCOD9546996 Si02
#       6
#     8   8   8   8   8   8
#     4  11  22  36  56  83 114 149 191 232 277 335
#     4  11  24  41  59  84 117 152 193 235 286 351
#     4   9  17  34  60  86 111 145 186 234 283 327
#     4   9  19  37  61  88 115 143 184 235 288 344
#     4   9  19  37  60  87 120 159 202 246 293 348
#     4  11  24  39  58  86 119 154 197 249 299 346
#
# _framework density 18.232713
#
# number of rings (size 3 to 8) (size 9 to 14) (size 15 to 20)
#    0.000    2.000    1.667    3.500    0.000    8.333 
#    3.000    2.500    0.000    0.000    0.000    0.000 
#    0.000    0.000    0.000    0.000    0.000    0.000 
#
# Total GULP energy -267495.164260 kJ/mol
# GULP energy per Si atom -5572.815922 kJ/mol
# Density = 1.819121 g / cm^3
# Si number density = 18.232713 Si / 1000 Ang^3
#
#
#
# Elastic Constant Matrix: (Units=GPa)
#
#
# Indices 1 2 3 4 5 6 
#
# 1 93.7873 63.7010 47.4047 0.0000 0.0000 0.0000
# 2 63.7010 93.7873 47.4047 0.0000 0.0000 0.0000
# 3 47.4047 47.4047 84.9615 0.0000 0.0000 0.0000
# 4 0.0000 0.0000 0.0000 31.7415 0.0000 0.0000
# 5 0.0000 0.0000 0.0000 0.0000 31.7415 0.0000
# 6 0.0000 0.0000 0.0000 0.0000 0.0000 34.2235
#
#
#
# Elastic Compliance Matrix: (Units=1/GPa)
#
#
# Indices 1 2 3 4 5 6 
#
# 1 0.021399 -0.011838 -0.005335 0.000000 0.000000 0.000000
# 2 -0.011838 0.021399 -0.005335 0.000000 0.000000 0.000000
# 3 -0.005335 -0.005335 0.017723 0.000000 0.000000 0.000000
# 4 0.000000 0.000000 0.000000 0.031505 0.000000 0.000000
# 5 0.000000 0.000000 0.000000 0.000000 0.031505 0.000000
# 6 0.000000 0.000000 0.000000 0.000000 0.000000 0.029220
#
#
# Mechanical properties :
#
#
# Convention : Reuss Voigt Hill
#
# Bulk Modulus (GPa) = 64.48849 65.50631 64.99740
# Shear Modulus (GPa) = 24.63841 27.14299 25.89070
#
# Velocity S-wave (km/s) = 3.68003 3.86255 3.77239
# Velocity P-wave (km/s) = 7.31459 7.47652 7.39600
#
# Compressibility (1/GPa) = 0.01550664
#
# Stress axis : x y z
#
# Youngs Moduli (GPa) = 46.73011 46.73011 56.42341
#
# Poissons Ratio (x) = 0.55320 0.30100
# Poissons Ratio (y) = 0.55320 0.30100
# Poissons Ratio (z) = 0.24929 0.24929
#
# Static dielectric constant tensor:
#      x y z
#    x 1.601070 0.000000 0.000000 
#    y 0.000000 1.601070 0.000000 
#    z 0.000000 0.000000 1.653210 
# 
# From -- ./inp_files/2968.got.cif
#   From: 2010.05.17/outbox.cif.g08.bks.cpg/sg89_2_cif.got.tgz:2968.got - 2010.06.03 19:15:31.
