data_PCOD9546716
_publ_section_title
;
Structure prediction by ZEFSAII (Michael W. Deem and Ramdas Pophale) SiO2 
 PCOD9546716
Probable space group: I 41/A
;
_chemical_formula_sum "Si O2"
_cell_formula_units_Z 96
_cell_length_a 24.912718
_cell_length_b 24.912718
_cell_length_c 7.838071
_cell_angle_alpha 90.000000
_cell_angle_beta 90.000000
_cell_angle_gamma 90.000000
_cell_volume 4864.647961
_symmetry_space_group_name_H-M "I 41/A"
_symmetry_group_IT_number 88
_space_group.IT_coordinate_system_code '2'
_symmetry_cell_setting 'tetragonal'
loop_
_space_group_symop_operation_xyz
x,y,z
3/4-y,1/4+x,1/4+z
-x,1/2-y,z
1/4+y,1/4-x,1/4+z
-x,-y,-z
1/4+y,3/4-x,3/4-z
x,1/2+y,-z
3/4-y,3/4+x,3/4-z
1/2+x,1/2+y,1/2+z
1/4-y,3/4+x,3/4+z
1/2-x,-y,1/2+z
3/4+y,3/4-x,3/4+z
1/2-x,1/2-y,1/2-z
3/4+y,1/4-x,1/4-z
1/2+x,y,1/2-z
1/4-y,1/4+x,1/4-z
loop_
_atom_site_type_symbol
_atom_site_label
_atom_site_fract_x
_atom_site_fract_y
_atom_site_fract_z
Si Si1 0.456436 0.928554 0.238303
Si Si2 0.805000 0.816102 0.057656
Si Si3 0.842368 0.126480 0.210915
Si Si4 0.449572 0.921382 0.842699
Si Si5 0.262510 0.930249 0.896766
Si Si6 0.074979 0.451350 0.701121
O O1 0.417953 0.903792 0.381139
O O2 0.520560 0.925840 0.278314
O O3 0.442846 0.992218 0.227102
O O4 0.447019 0.908158 0.043739
O O5 0.834926 0.760150 0.026290
O O6 0.816130 0.828616 0.255901
O O7 0.828212 0.866129 0.961126
O O8 0.783064 0.100112 0.213785
O O9 0.854030 0.158618 0.037677
O O10 0.437517 0.984985 0.818817
O O11 0.293754 0.977505 0.800240
O O12 0.301735 0.882796 0.960743
#
# Coordination Sequence:
#
# PCOD9546716 Si02
#       6
#    16  16  16  16  16  16
#     4   9  18  37  58  76 111 142 185 248 273 321
#     4   9  18  33  56  79 108 142 179 233 291 327
#     4  11  21  33  57  85 103 147 191 224 281 339
#     4   8  18  36  52  80 108 136 186 237 276 330
#     4  11  25  37  50  79 120 158 188 222 275 345
#     4   8  18  36  57  76 103 152 194 226 278 324
#
# _framework density 19.734211999999999
#
# number of rings (size 3 to 8) (size 9 to 14) (size 15 to 20)
#    0.000    2.667    0.000    3.000    2.333   11.333 
#    0.000    3.333    0.000    0.500    0.000    0.000 
#    0.000    0.000    0.000    0.000    0.000    0.000 
#
# Total GULP energy -267660.117328 kJ/mol
# GULP energy per Si atom -5576.252444 kJ/mol
# Density = 1.968930 g / cm^3
# Si number density = 19.734212 Si / 1000 Ang^3
#
#
#
# Elastic Constant Matrix: (Units=GPa)
#
#
# Indices 1 2 3 4 5 6 
#
# 1 51.1141 9.8081 28.9355 0.0000 0.0000 0.8717
# 2 9.8081 51.1141 28.9355 0.0000 0.0000 -0.8717
# 3 28.9355 28.9355 52.3995 0.0000 0.0000 0.0000
# 4 0.0000 0.0000 0.0000 25.0019 0.0000 0.0000
# 5 0.0000 0.0000 0.0000 0.0000 25.0019 0.0000
# 6 0.8717 -0.8717 0.0000 0.0000 0.0000 10.3678
#
#
#
# Elastic Compliance Matrix: (Units=1/GPa)
#
#
# Indices 1 2 3 4 5 6 
#
# 1 0.029410 0.005114 -0.019065 0.000000 0.000000 -0.002043
# 2 0.005114 0.029410 -0.019065 0.000000 0.000000 0.002043
# 3 -0.019065 -0.019065 0.040139 0.000000 0.000000 0.000000
# 4 0.000000 0.000000 0.000000 0.039997 0.000000 0.000000
# 5 0.000000 0.000000 0.000000 0.000000 0.039997 0.000000
# 6 -0.002043 0.002043 0.000000 0.000000 0.000000 0.096796
#
#
# Mechanical properties :
#
#
# Convention : Reuss Voigt Hill
#
# Bulk Modulus (GPa) = 30.36796 32.22064 31.29430
# Shear Modulus (GPa) = 14.17415 17.87089 16.02252
#
# Velocity S-wave (km/s) = 2.68293 3.01255 2.85250
# Velocity P-wave (km/s) = 5.00194 5.33511 5.17121
#
# Compressibility (1/GPa) = 0.03292944
#
# Stress axis : x y z
#
# Youngs Moduli (GPa) = 34.00215 34.00215 24.91320
#
# Poissons Ratio (x) = -0.17389 0.47496
# Poissons Ratio (y) = -0.17389 0.47496
# Poissons Ratio (z) = 0.64823 0.64823
#
# Static dielectric constant tensor:
#      x y z
#    x 1.705450 0.000000 0.000000 
#    y 0.000000 1.705450 0.000000 
#    z 0.000000 0.000000 1.747580 
# 
# From -- ./inp_files/1721.got.cif
#   From: 2010.05.17/outbox.cif.g08.bks.cpg/sg88_1_cif.got.tgz:1721.got - 2010.06.03 19:11:41.
