data_PCOD9546993
_publ_section_title
;
Structure prediction by ZEFSAII (Michael W. Deem and Ramdas Pophale) SiO2 
 PCOD9546993
Probable space group: P 4 2 2
;
_chemical_formula_sum "Si O2"
_cell_formula_units_Z 60
_cell_length_a 12.027536
_cell_length_b 12.027536
_cell_length_c 21.657890
_cell_angle_alpha 90.000000
_cell_angle_beta 90.000000
_cell_angle_gamma 90.000000
_cell_volume 3133.065502
_symmetry_space_group_name_H-M "P 4 2 2"
_symmetry_group_IT_number 89
_symmetry_cell_setting 'tetragonal'
loop_
_space_group_symop_operation_xyz
x,y,z
-y,x,z
-x,-y,z
y,-x,z
x,-y,-z
-x,y,-z
y,x,-z
-y,-x,-z
loop_
_atom_site_type_symbol
_atom_site_label
_atom_site_fract_x
_atom_site_fract_y
_atom_site_fract_z
Si Si1 0.135359 0.870065 0.224686
Si Si2 0.677905 0.039237 0.063299
Si Si3 0.374964 0.639465 0.428470
Si Si4 0.500000 0.000000 0.167292
Si Si5 0.479911 0.773117 0.761543
Si Si6 0.183773 0.762114 0.095190
Si Si7 0.712243 0.264158 0.308651
Si Si8 0.667538 0.436239 0.109221
O O1 0.189087 0.805451 0.166081
O O2 0.195746 0.822741 0.285347
O O3 0.002970 0.848131 0.221781
O O4 0.598092 0.037721 0.121871
O O5 0.735709 0.157346 0.058080
O O6 0.769312 0.943820 0.075768
O O7 0.622960 0.000000 0.000000
O O8 0.349714 0.508146 0.418265
O O9 0.343376 0.656624 0.500000
O O10 0.316000 0.721518 0.380489
O O11 0.469375 0.104986 0.208735
O O12 0.599637 0.759520 0.730200
O O13 0.384756 0.754614 0.712143
O O14 0.455245 0.687018 0.817435
O O15 0.225575 0.634904 0.089270
O O16 0.638516 0.561533 0.089499
#
# Coordination Sequence:
#
# PCOD9546993 Si02
#       8
#     8   8   8   4   8   8   8   8
#     4  11  23  40  60  85 118 158 197 251 316 366
#     4  12  26  43  64  85 113 154 203 245 304 380
#     4   9  18  34  56  87 133 176 203 233 279 343
#     4  12  25  42  58  88 123 158 192 256 316 356
#     4  12  23  34  59  91 127 156 198 244 306 364
#     4  12  23  42  62  89 115 150 192 255 308 363
#     4  12  22  35  58  96 124 164 197 247 290 363
#     4  11  21  36  58  88 120 155 184 230 307 372
#
# _framework density 19.150573999999999
#
# number of rings (size 3 to 8) (size 9 to 14) (size 15 to 20)
#    0.000    0.667    6.667    2.600    1.867    0.533 
#    0.000    0.667    0.000    0.800    0.000    7.467 
#    0.000    0.000    0.000    0.000    0.000    0.000 
#
# Total GULP energy -335169.550354 kJ/mol
# GULP energy per Si atom -5586.159173 kJ/mol
# Density = 1.910699 g / cm^3
# Si number density = 19.150574 Si / 1000 Ang^3
#
#
#
# Elastic Constant Matrix: (Units=GPa)
#
#
# Indices 1 2 3 4 5 6 
#
# 1 63.8426 24.5867 12.6093 0.0000 0.0000 0.0000
# 2 24.5867 63.8426 12.6093 0.0000 0.0000 0.0000
# 3 12.6093 12.6093 71.6284 0.0000 0.0000 0.0000
# 4 0.0000 0.0000 0.0000 13.0506 0.0000 0.0000
# 5 0.0000 0.0000 0.0000 0.0000 13.0506 0.0000
# 6 0.0000 0.0000 0.0000 0.0000 0.0000 31.5990
#
#
#
# Elastic Compliance Matrix: (Units=1/GPa)
#
#
# Indices 1 2 3 4 5 6 
#
# 1 0.018690 -0.006784 -0.002096 0.000000 0.000000 0.000000
# 2 -0.006784 0.018690 -0.002096 0.000000 0.000000 0.000000
# 3 -0.002096 -0.002096 0.014699 0.000000 0.000000 0.000000
# 4 0.000000 0.000000 0.000000 0.076625 0.000000 0.000000
# 5 0.000000 0.000000 0.000000 0.000000 0.076625 0.000000
# 6 0.000000 0.000000 0.000000 0.000000 0.000000 0.031647
#
#
# Mechanical properties :
#
#
# Convention : Reuss Voigt Hill
#
# Bulk Modulus (GPa) = 33.19229 33.21383 33.20306
# Shear Modulus (GPa) = 18.58947 21.50724 20.04836
#
# Velocity S-wave (km/s) = 3.11899 3.35484 3.23906
# Velocity P-wave (km/s) = 5.50824 5.69103 5.60038
#
# Compressibility (1/GPa) = 0.03012748
#
# Stress axis : x y z
#
# Youngs Moduli (GPa) = 53.50446 53.50446 68.03240
#
# Poissons Ratio (x) = 0.36297 0.14259
# Poissons Ratio (y) = 0.36297 0.14259
# Poissons Ratio (z) = 0.11214 0.11214
#
# Static dielectric constant tensor:
#      x y z
#    x 1.695260 0.000000 0.000000 
#    y 0.000000 1.695260 0.000000 
#    z 0.000000 0.000000 1.695540 
# 
# From -- ./inp_files/2649.got.cif
#   From: 2010.05.17/outbox.cif.g08.bks.cpg/sg89_2_cif.got.tgz:2649.got - 2010.06.03 19:15:31.
