data_PCOD9546205
_publ_section_title
;
Structure prediction by ZEFSAII (Michael W. Deem and Ramdas Pophale) SiO2 
 PCOD9546205
Probable space group: I 41/A
;
_chemical_formula_sum "Si O2"
_cell_formula_units_Z 128
_cell_length_a 21.963170
_cell_length_b 21.963170
_cell_length_c 17.000863
_cell_angle_alpha 90.000000
_cell_angle_beta 90.000000
_cell_angle_gamma 90.000000
_cell_volume 8200.890514
_symmetry_space_group_name_H-M "I 41/A"
_symmetry_group_IT_number 88
_space_group.IT_coordinate_system_code '2'
_symmetry_cell_setting 'tetragonal'
loop_
_space_group_symop_operation_xyz
x,y,z
3/4-y,1/4+x,1/4+z
-x,1/2-y,z
1/4+y,1/4-x,1/4+z
-x,-y,-z
1/4+y,3/4-x,3/4-z
x,1/2+y,-z
3/4-y,3/4+x,3/4-z
1/2+x,1/2+y,1/2+z
1/4-y,3/4+x,3/4+z
1/2-x,-y,1/2+z
3/4+y,3/4-x,3/4+z
1/2-x,1/2-y,1/2-z
3/4+y,1/4-x,1/4-z
1/2+x,y,1/2-z
1/4-y,1/4+x,1/4-z
loop_
_atom_site_type_symbol
_atom_site_label
_atom_site_fract_x
_atom_site_fract_y
_atom_site_fract_z
Si Si1 0.335553 0.518805 0.264881
Si Si2 0.217113 0.334768 0.586066
Si Si3 0.043703 0.981322 0.336554
Si Si4 0.325292 0.428156 0.590403
Si Si5 0.094251 0.224151 0.650319
Si Si6 0.600206 0.025157 0.010688
Si Si7 0.704570 0.027156 0.427029
Si Si8 0.610827 0.881442 0.977010
O O1 0.399827 0.513539 0.221897
O O2 0.312754 0.588341 0.273170
O O3 0.334493 0.489524 0.350965
O O4 0.283733 0.485817 0.212415
O O5 0.248464 0.273172 0.555922
O O6 0.260288 0.393431 0.587553
O O7 0.202753 0.322509 0.678238
O O8 0.160485 0.349587 0.532013
O O9 0.038360 0.909340 0.359140
O O10 0.057866 0.022568 0.413115
O O11 0.333652 0.444942 0.499225
O O12 0.317759 0.489061 0.643500
O O13 0.370446 0.382703 0.636730
O O14 0.068411 0.291792 0.638245
O O15 0.104777 0.202594 0.740825
O O16 0.613999 0.953333 0.997571
#
# Coordination Sequence:
#
# PCOD9546205 Si02
#       8
#    16  16  16  16  16  16  16  16
#     4  11  18  31  46  70  97 123 157 192 244 286
#     4  11  18  30  42  68  96 126 163 188 231 270
#     4  11  22  30  45  66  98 136 156 195 229 279
#     4  10  18  30  50  72  93 118 156 202 241 287
#     4  10  20  31  43  64  95 137 174 191 218 270
#     4  10  18  29  45  66  97 126 161 191 230 278
#     4  10  18  29  50  73  93 118 153 199 246 293
#     4  10  17  30  46  66  92 123 161 198 230 274
#
# _framework density 15.608060999999999
#
# number of rings (size 3 to 8) (size 9 to 14) (size 15 to 20)
#    0.000    1.625    6.250    2.625    0.000    0.000 
#    0.000    0.000    0.000    0.750    0.000    0.000 
#    0.000    0.000    0.000    0.000    0.000    0.500 
#
# Total GULP energy -356454.499193 kJ/mol
# GULP energy per Si atom -5569.601550 kJ/mol
# Density = 1.557254 g / cm^3
# Si number density = 15.608061 Si / 1000 Ang^3
#
#
#
# Elastic Constant Matrix: (Units=GPa)
#
#
# Indices 1 2 3 4 5 6 
#
# 1 37.3606 -6.7426 16.4266 0.0000 0.0000 5.9800
# 2 -6.7426 37.3606 16.4266 0.0000 0.0000 -5.9800
# 3 16.4266 16.4266 84.2886 0.0000 0.0000 0.0000
# 4 0.0000 0.0000 0.0000 19.6961 0.0000 0.0000
# 5 0.0000 0.0000 0.0000 0.0000 19.6961 0.0000
# 6 5.9800 -5.9800 0.0000 0.0000 0.0000 16.9948
#
#
#
# Elastic Compliance Matrix: (Units=1/GPa)
#
#
# Indices 1 2 3 4 5 6 
#
# 1 0.033181 0.008115 -0.008048 0.000000 0.000000 -0.008820
# 2 0.008115 0.033181 -0.008048 0.000000 0.000000 0.008820
# 3 -0.008048 -0.008048 0.015001 0.000000 0.000000 0.000000
# 4 0.000000 0.000000 0.000000 0.050772 0.000000 0.000000
# 5 0.000000 0.000000 0.000000 0.000000 0.050772 0.000000
# 6 -0.008820 0.008820 0.000000 0.000000 0.000000 0.065049
#
#
# Mechanical properties :
#
#
# Convention : Reuss Voigt Hill
#
# Bulk Modulus (GPa) = 15.29028 23.47009 19.38018
# Shear Modulus (GPa) = 17.49986 20.13735 18.81860
#
# Velocity S-wave (km/s) = 3.35207 3.59582 3.47608
# Velocity P-wave (km/s) = 4.97991 5.68416 5.34365
#
# Compressibility (1/GPa) = 0.06540103
#
# Stress axis : x y z
#
# Youngs Moduli (GPa) = 30.13777 30.13777 66.66295
#
# Poissons Ratio (x) = -0.24457 0.53650
# Poissons Ratio (y) = -0.24457 0.53650
# Poissons Ratio (z) = 0.24255 0.24255
#
# Static dielectric constant tensor:
#      x y z
#    x 1.546010 0.000000 0.000000 
#    y 0.000000 1.546010 0.000000 
#    z 0.000000 0.000000 1.549730 
# 
# From -- ./inp_files/4085.got.cif
#   From: 2010.05.17/outbox.cif.g08.bks.cpg/sg88_3_cif.got.tgz:4085.got - 2010.06.03 19:11:41.
