data_PCOD9546292
_publ_section_title
;
Structure prediction by ZEFSAII (Michael W. Deem and Ramdas Pophale) SiO2 
 PCOD9546292
Probable space group: I 41/A
;
_chemical_formula_sum "Si O2"
_cell_formula_units_Z 120
_cell_length_a 13.331642
_cell_length_b 13.331642
_cell_length_c 36.207678
_cell_angle_alpha 90.000000
_cell_angle_beta 90.000000
_cell_angle_gamma 90.000000
_cell_volume 6435.287590
_symmetry_space_group_name_H-M "I 41/A"
_symmetry_group_IT_number 88
_space_group.IT_coordinate_system_code '2'
_symmetry_cell_setting 'tetragonal'
loop_
_space_group_symop_operation_xyz
x,y,z
3/4-y,1/4+x,1/4+z
-x,1/2-y,z
1/4+y,1/4-x,1/4+z
-x,-y,-z
1/4+y,3/4-x,3/4-z
x,1/2+y,-z
3/4-y,3/4+x,3/4-z
1/2+x,1/2+y,1/2+z
1/4-y,3/4+x,3/4+z
1/2-x,-y,1/2+z
3/4+y,3/4-x,3/4+z
1/2-x,1/2-y,1/2-z
3/4+y,1/4-x,1/4-z
1/2+x,y,1/2-z
1/4-y,1/4+x,1/4-z
loop_
_atom_site_type_symbol
_atom_site_label
_atom_site_fract_x
_atom_site_fract_y
_atom_site_fract_z
Si Si1 0.377340 0.394472 0.095824
Si Si2 0.000000 0.750000 0.209030
Si Si3 0.398617 0.126135 0.975918
Si Si4 0.054651 0.350122 0.919139
Si Si5 0.225556 0.559774 0.527076
Si Si6 0.821499 0.669319 0.731267
Si Si7 0.475316 0.105759 0.895567
Si Si8 0.506951 0.045463 0.228720
O O1 0.432150 0.317515 0.067961
O O2 0.343795 0.345430 0.133765
O O3 0.285912 0.431652 0.070971
O O4 0.448942 0.488307 0.106146
O O5 0.926848 0.808125 0.237414
O O6 0.467972 0.131118 0.939398
O O7 0.296133 0.186493 0.965313
O O8 0.369233 0.010038 0.983948
O O9 0.144547 0.317050 0.946832
O O10 0.000000 0.250000 0.904759
O O11 0.969448 0.405799 0.942022
O O12 0.321251 0.494465 0.518401
O O13 0.244115 0.664340 0.506538
O O14 0.750000 0.750000 0.750000
O O15 0.931060 0.630485 0.745319
O O16 0.391945 0.171156 0.873131
#
# Coordination Sequence:
#
# PCOD9546292 Si02
#       8
#    16   8  16  16  16  16  16  16
#     4  11  23  40  58  86 124 162 197 247 309 365
#     4  12  22  40  59  82 124 156 194 246 305 370
#     4  10  22  37  59  89 119 159 200 248 304 372
#     4  10  20  36  59  83 113 158 196 244 297 359
#     4  10  21  39  59  88 118 152 203 254 306 369
#     4  10  20  36  61  91 113 151 207 255 305 362
#     4  10  21  40  59  88 122 162 208 249 298 364
#     4  10  19  37  61  85 121 151 201 255 298 361
#
# _framework density 18.647186999999999
#
# number of rings (size 3 to 8) (size 9 to 14) (size 15 to 20)
#    0.000    1.733    3.333    1.600    0.000    3.200 
#    7.200    1.333    0.000    0.000    0.000    0.000 
#    0.000    0.000    0.000    0.000    0.000    0.000 
#
# Total GULP energy -334265.208617 kJ/mol
# GULP energy per Si atom -5571.086810 kJ/mol
# Density = 1.860474 g / cm^3
# Si number density = 18.647187 Si / 1000 Ang^3
#
#
#
# Elastic Constant Matrix: (Units=GPa)
#
#
# Indices 1 2 3 4 5 6 
#
# 1 60.9371 16.8634 27.4920 0.0000 0.0000 5.4915
# 2 16.8634 60.9371 27.4920 0.0000 0.0000 -5.4915
# 3 27.4920 27.4920 68.7592 0.0000 0.0000 0.0000
# 4 0.0000 0.0000 0.0000 22.1876 0.0000 0.0000
# 5 0.0000 0.0000 0.0000 0.0000 22.1876 0.0000
# 6 5.4915 -5.4915 0.0000 0.0000 0.0000 14.6003
#
#
#
# Elastic Compliance Matrix: (Units=1/GPa)
#
#
# Indices 1 2 3 4 5 6 
#
# 1 0.021476 -0.003560 -0.007163 0.000000 0.000000 -0.009417
# 2 -0.003560 0.021476 -0.007163 0.000000 0.000000 0.009417
# 3 -0.007163 -0.007163 0.020272 0.000000 0.000000 0.000000
# 4 0.000000 0.000000 0.000000 0.045070 0.000000 0.000000
# 5 0.000000 0.000000 0.000000 0.000000 0.045070 0.000000
# 6 -0.009417 0.009417 0.000000 0.000000 0.000000 0.075575
#
#
# Mechanical properties :
#
#
# Convention : Reuss Voigt Hill
#
# Bulk Modulus (GPa) = 36.42951 37.14759 36.78855
# Shear Modulus (GPa) = 18.25734 19.71419 18.98576
#
# Velocity S-wave (km/s) = 3.13244 3.25502 3.19432
# Velocity P-wave (km/s) = 5.71503 5.83878 5.77724
#
# Compressibility (1/GPa) = 0.02745028
#
# Stress axis : x y z
#
# Youngs Moduli (GPa) = 46.56386 46.56386 49.32980
#
# Poissons Ratio (x) = 0.16577 0.35337
# Poissons Ratio (y) = 0.16577 0.35337
# Poissons Ratio (z) = 0.33355 0.33355
#
# Static dielectric constant tensor:
#      x y z
#    x 1.741670 0.000000 0.000000 
#    y 0.000000 1.741670 0.000000 
#    z 0.000000 0.000000 1.633100 
# 
# From -- ./inp_files/6641.got.cif
#   From: 2010.05.17/outbox.cif.g08.bks.cpg/sg88_4_cif.got.tgz:6641.got - 2010.06.03 19:11:41.
