data_PCOD9546387
_publ_section_title
;
Structure prediction by ZEFSAII (Michael W. Deem and Ramdas Pophale) SiO2 
 PCOD9546387
Probable space group: I 41/A
;
_chemical_formula_sum "Si O2"
_cell_formula_units_Z 96
_cell_length_a 19.377833
_cell_length_b 19.377833
_cell_length_c 11.680986
_cell_angle_alpha 90.000000
_cell_angle_beta 90.000000
_cell_angle_gamma 90.000000
_cell_volume 4386.215053
_symmetry_space_group_name_H-M "I 41/A"
_symmetry_group_IT_number 88
_space_group.IT_coordinate_system_code '2'
_symmetry_cell_setting 'tetragonal'
loop_
_space_group_symop_operation_xyz
x,y,z
3/4-y,1/4+x,1/4+z
-x,1/2-y,z
1/4+y,1/4-x,1/4+z
-x,-y,-z
1/4+y,3/4-x,3/4-z
x,1/2+y,-z
3/4-y,3/4+x,3/4-z
1/2+x,1/2+y,1/2+z
1/4-y,3/4+x,3/4+z
1/2-x,-y,1/2+z
3/4+y,3/4-x,3/4+z
1/2-x,1/2-y,1/2-z
3/4+y,1/4-x,1/4-z
1/2+x,y,1/2-z
1/4-y,1/4+x,1/4-z
loop_
_atom_site_type_symbol
_atom_site_label
_atom_site_fract_x
_atom_site_fract_y
_atom_site_fract_z
Si Si1 0.256212 0.640264 0.346135
Si Si2 0.606446 0.271096 0.364097
Si Si3 0.309880 0.866537 0.808890
Si Si4 0.761437 0.751147 0.540453
Si Si5 0.368161 0.469843 0.840575
Si Si6 0.341700 0.410290 0.439929
O O1 0.330943 0.615926 0.393042
O O2 0.232299 0.701215 0.428163
O O3 0.268899 0.653675 0.212810
O O4 0.195550 0.582547 0.351147
O O5 0.564835 0.204201 0.318387
O O6 0.678003 0.252795 0.430246
O O7 0.629636 0.333171 0.281114
O O8 0.311130 0.872646 0.672183
O O9 0.237868 0.898062 0.851679
O O10 0.303482 0.789333 0.858018
O O11 0.792360 0.677647 0.503786
O O12 0.338448 0.542555 0.797506
#
# Coordination Sequence:
#
# PCOD9546387 Si02
#       6
#    16  16  16  16  16  16
#     4  12  22  42  66  88 134 172 213 276 335 395
#     4  10  20  40  62  89 137 176 207 274 346 411
#     4  11  20  39  65  92 133 168 209 278 342 388
#     4  11  24  41  63  99 128 172 224 271 339 409
#     4  12  24  40  63  99 126 168 222 271 330 406
#     4  11  21  36  61  96 128 165 220 271 331 394
#
# _framework density 21.886749999999999
#
# number of rings (size 3 to 8) (size 9 to 14) (size 15 to 20)
#    0.000    0.833    6.667    3.500    0.000    0.667 
#    3.000    0.000    0.000    0.500    0.000    0.000 
#    0.000    0.000    0.000    0.000    0.000    0.000 
#
# Total GULP energy -267712.697693 kJ/mol
# GULP energy per Si atom -5577.347869 kJ/mol
# Density = 2.183693 g / cm^3
# Si number density = 21.886750 Si / 1000 Ang^3
#
#
#
# Elastic Constant Matrix: (Units=GPa)
#
#
# Indices 1 2 3 4 5 6 
#
# 1 86.2253 27.1863 20.6489 0.0000 0.0000 -0.7413
# 2 27.1863 86.2253 20.6489 0.0000 0.0000 0.7413
# 3 20.6489 20.6489 96.5921 0.0000 0.0000 0.0000
# 4 0.0000 0.0000 0.0000 36.3620 0.0000 0.0000
# 5 0.0000 0.0000 0.0000 0.0000 36.3620 0.0000
# 6 -0.7413 0.7413 0.0000 0.0000 0.0000 34.4114
#
#
#
# Elastic Compliance Matrix: (Units=1/GPa)
#
#
# Indices 1 2 3 4 5 6 
#
# 1 0.013254 -0.003693 -0.002044 0.000000 0.000000 0.000365
# 2 -0.003693 0.013254 -0.002044 0.000000 0.000000 -0.000365
# 3 -0.002044 -0.002044 0.011227 0.000000 0.000000 0.000000
# 4 0.000000 0.000000 0.000000 0.027501 0.000000 0.000000
# 5 0.000000 0.000000 0.000000 0.000000 0.027501 0.000000
# 6 0.000365 -0.000365 0.000000 0.000000 0.000000 0.029076
#
#
# Mechanical properties :
#
#
# Convention : Reuss Voigt Hill
#
# Bulk Modulus (GPa) = 45.09776 45.11231 45.10503
# Shear Modulus (GPa) = 34.53827 34.79765 34.66796
#
# Velocity S-wave (km/s) = 3.97677 3.99168 3.98423
# Velocity P-wave (km/s) = 6.46034 6.47310 6.46673
#
# Compressibility (1/GPa) = 0.02217405
#
# Stress axis : x y z
#
# Youngs Moduli (GPa) = 75.44634 75.44634 89.07301
#
# Poissons Ratio (x) = 0.27860 0.18207
# Poissons Ratio (y) = 0.27860 0.18207
# Poissons Ratio (z) = 0.15422 0.15422
#
# Static dielectric constant tensor:
#      x y z
#    x 1.883080 0.000000 0.000000 
#    y 0.000000 1.883080 0.000000 
#    z 0.000000 0.000000 1.812590 
# 
# From -- ./inp_files/2607.got.cif
#   From: 2010.05.17/outbox.cif.g08.bks.cpg/sg88_2_cif.got.tgz:2607.got - 2010.06.03 19:11:41.
