data_PCOD9546900
_publ_section_title
;
Structure prediction by ZEFSAII (Michael W. Deem and Ramdas Pophale) SiO2 
 PCOD9546900
Probable space group: P 4 2 2
;
_chemical_formula_sum "Si O2"
_cell_formula_units_Z 64
_cell_length_a 20.710670
_cell_length_b 20.710670
_cell_length_c 12.371242
_cell_angle_alpha 90.000000
_cell_angle_beta 90.000000
_cell_angle_gamma 90.000000
_cell_volume 5306.419741
_symmetry_space_group_name_H-M "P 4 2 2"
_symmetry_group_IT_number 89
_symmetry_cell_setting 'tetragonal'
loop_
_space_group_symop_operation_xyz
x,y,z
-y,x,z
-x,-y,z
y,-x,z
x,-y,-z
-x,y,-z
y,x,-z
-y,-x,-z
loop_
_atom_site_type_symbol
_atom_site_label
_atom_site_fract_x
_atom_site_fract_y
_atom_site_fract_z
Si Si1 0.108473 0.882407 0.623628
Si Si2 0.252490 0.930696 0.636380
Si Si3 0.089515 0.671784 0.817873
Si Si4 0.041402 0.903386 0.842550
Si Si5 0.084827 0.734516 0.603093
Si Si6 0.691302 0.064043 0.859207
Si Si7 0.921726 0.573140 0.007994
Si Si8 0.212654 0.888249 0.038407
O O1 0.095313 0.904688 0.500000
O O2 0.177812 0.911977 0.653511
O O3 0.054547 0.897446 0.713409
O O4 0.115374 0.804766 0.623693
O O5 0.278666 0.903439 0.522915
O O6 0.292976 0.910356 0.740398
O O7 0.255082 0.008078 0.621804
O O8 0.102681 0.680804 0.691303
O O9 0.100983 0.604927 0.879235
O O10 0.125817 0.730055 0.877694
O O11 0.013288 0.684329 0.844277
O O12 0.067775 0.840203 0.900959
O O13 0.967555 0.917936 0.871557
O O14 0.627009 0.092370 0.915728
O O15 0.751604 0.077999 0.937765
O O16 0.897465 0.500000 0.000000
O O17 0.000000 0.569596 0.000000
O O18 0.174596 0.825405 0.000000
#
# Coordination Sequence:
#
# PCOD9546900 Si02
#       8
#     8   8   8   8   8   8   8   8
#     4  10  18  28  41  50  60  87 125 160 192 221
#     4   9  17  27  40  51  66  86 116 152 185 216
#     4   9  17  28  41  57  68  85 114 136 177 220
#     4  11  24  32  34  44  62  88 120 161 202 229
#     4   9  16  27  39  53  66  85 114 152 183 219
#     4   9  18  28  40  57  67  88 113 135 177 219
#     4   8  14  26  43  60  75  86 101 128 163 215
#     4  11  21  27  40  46  66  90 114 149 179 221
#
# _framework density 12.060862
#
# number of rings (size 3 to 8) (size 9 to 14) (size 15 to 20)
#    0.000    2.500    1.250    2.625    5.250    1.500 
#    0.000    1.250    0.000    0.750    0.000    5.250 
#    0.000    0.000    0.000    0.000    0.000    0.000 
#
# Total GULP energy -356510.890264 kJ/mol
# GULP energy per Si atom -5570.482660 kJ/mol
# Density = 1.203341 g / cm^3
# Si number density = 12.060862 Si / 1000 Ang^3
#
#
#
# Elastic Constant Matrix: (Units=GPa)
#
#
# Indices 1 2 3 4 5 6 
#
# 1 48.9921 11.4443 25.5078 0.0000 0.0000 0.0000
# 2 11.4443 48.9918 25.5076 0.0000 0.0000 0.0000
# 3 25.5078 25.5076 85.9463 0.0000 0.0000 0.0000
# 4 0.0000 0.0000 0.0000 9.2687 0.0000 0.0000
# 5 0.0000 0.0000 0.0000 0.0000 9.2684 0.0000
# 6 0.0000 0.0000 0.0000 0.0000 0.0000 3.3788
#
#
#
# Elastic Compliance Matrix: (Units=1/GPa)
#
#
# Indices 1 2 3 4 5 6 
#
# 1 0.024355 -0.002278 -0.006552 0.000000 0.000000 0.000000
# 2 -0.002278 0.024355 -0.006552 0.000000 0.000000 0.000000
# 3 -0.006552 -0.006552 0.015524 0.000000 0.000000 0.000000
# 4 0.000000 0.000000 0.000000 0.107889 0.000000 0.000000
# 5 0.000000 0.000000 0.000000 0.000000 0.107894 0.000000
# 6 0.000000 0.000000 0.000000 0.000000 0.000000 0.295967
#
#
# Mechanical properties :
#
#
# Convention : Reuss Voigt Hill
#
# Bulk Modulus (GPa) = 29.87755 34.31663 32.09709
# Shear Modulus (GPa) = 8.09185 12.48121 10.28653
#
# Velocity S-wave (km/s) = 2.59302 3.22040 2.92359
# Velocity P-wave (km/s) = 5.81301 6.50712 6.16983
#
# Compressibility (1/GPa) = 0.03346994
#
# Stress axis : x y z
#
# Youngs Moduli (GPa) = 41.05941 41.05918 64.41472
#
# Poissons Ratio (x) = 0.09352 0.42206
# Poissons Ratio (y) = 0.09352 0.42206
# Poissons Ratio (z) = 0.26903 0.26903
#
# Static dielectric constant tensor:
#      x y z
#    x 1.379240 0.000000 0.000000 
#    y 0.000000 1.379240 0.000000 
#    z 0.000000 0.000000 1.457880 
# 
# From -- ./inp_files/1953.got.cif
#   From: 2010.05.17/outbox.cif.g08.bks.cpg/sg89_1_cif.got.tgz:1953.got - 2010.06.03 19:15:31.
