data_PCOD9546635
_publ_section_title
;
Structure prediction by ZEFSAII (Michael W. Deem and Ramdas Pophale) SiO2 
 PCOD9546635
Probable space group: I 41/A
;
_chemical_formula_sum "Si O2"
_cell_formula_units_Z 40
_cell_length_a 9.089796
_cell_length_b 9.089796
_cell_length_c 19.993030
_cell_angle_alpha 90.000000
_cell_angle_beta 90.000000
_cell_angle_gamma 90.000000
_cell_volume 1651.911934
_symmetry_space_group_name_H-M "I 41/A"
_symmetry_group_IT_number 88
_space_group.IT_coordinate_system_code '2'
_symmetry_cell_setting 'tetragonal'
loop_
_space_group_symop_operation_xyz
x,y,z
3/4-y,1/4+x,1/4+z
-x,1/2-y,z
1/4+y,1/4-x,1/4+z
-x,-y,-z
1/4+y,3/4-x,3/4-z
x,1/2+y,-z
3/4-y,3/4+x,3/4-z
1/2+x,1/2+y,1/2+z
1/4-y,3/4+x,3/4+z
1/2-x,-y,1/2+z
3/4+y,3/4-x,3/4+z
1/2-x,1/2-y,1/2-z
3/4+y,1/4-x,1/4-z
1/2+x,y,1/2-z
1/4-y,1/4+x,1/4-z
loop_
_atom_site_type_symbol
_atom_site_label
_atom_site_fract_x
_atom_site_fract_y
_atom_site_fract_z
Si Si1 0.290071 0.844607 0.919133
Si Si2 0.500000 0.250000 0.375000
Si Si3 0.178820 0.000330 0.556677
Si Si4 0.000000 0.750000 0.375000
O O1 0.346719 0.675157 0.929339
O O2 0.114886 0.826383 0.922520
O O3 0.302570 0.922746 0.846474
O O4 0.321269 0.956230 0.979195
O O5 0.055988 0.107622 0.586025
#
# Coordination Sequence:
#
# PCOD9546635 Si02
#       4
#    16   4  16   4
#     4  10  23  43  70 100 136 177 223 275 332 397
#     4   8  20  40  66 104 136 176 224 270 332 400
#     4  11  25  45  70 101 136 176 223 276 334 397
#     4  12  28  44  66 100 136 176 224 278 340 396
#
# _framework density 24.214364
#
# number of rings (size 3 to 8) (size 9 to 14) (size 15 to 20)
#    0.000    1.600    0.000    2.400    0.000   25.600 
#    0.000    0.000    0.000    0.000    0.000    0.000 
#    0.000    0.000    0.000    0.000    0.000    0.000 
#
# Total GULP energy -111535.297361 kJ/mol
# GULP energy per Si atom -5576.764868 kJ/mol
# Density = 2.415925 g / cm^3
# Si number density = 24.214364 Si / 1000 Ang^3
#
#
#
# Elastic Constant Matrix: (Units=GPa)
#
#
# Indices 1 2 3 4 5 6 
#
# 1 98.9457 112.4085 62.9403 0.0000 0.0000 -60.1018
# 2 112.4085 98.9457 62.9403 0.0000 0.0000 60.1018
# 3 62.9403 62.9403 99.4500 0.0000 0.0000 0.0000
# 4 0.0000 0.0000 0.0000 28.9069 0.0000 0.0000
# 5 0.0000 0.0000 0.0000 0.0000 28.9069 0.0000
# 6 -60.1018 60.1018 0.0000 0.0000 0.0000 -67.6647
#
#
#
# Elastic Compliance Matrix: (Units=1/GPa)
#
#
# Indices 1 2 3 4 5 6 
#
# 1 0.009156 -0.001562 -0.004806 0.000000 0.000000 -0.009520
# 2 -0.001562 0.009156 -0.004806 0.000000 0.000000 0.009520
# 3 -0.004806 -0.004806 0.016139 0.000000 0.000000 0.000000
# 4 0.000000 0.000000 0.000000 0.034594 0.000000 0.000000
# 5 0.000000 0.000000 0.000000 0.000000 0.034594 0.000000
# 6 -0.009520 0.009520 0.000000 0.000000 0.000000 0.002132
#
#
# Mechanical properties :
#
#
# Convention : Reuss Voigt Hill
#
# Bulk Modulus (GPa) = 82.62959 85.99107 84.31033
# Shear Modulus (GPa) = 37.83533 1.96664 19.90099
#
# Velocity S-wave (km/s) = 3.95716 0.90219 2.86993
# Velocity P-wave (km/s) = 7.42139 6.05597 6.77318
#
# Compressibility (1/GPa) = 0.01210220
#
# Stress axis : x y z
#
# Youngs Moduli (GPa) = 109.22238 109.22238 61.96334
#
# Poissons Ratio (x) = 0.17059 0.29780
# Poissons Ratio (y) = 0.17059 0.29780
# Poissons Ratio (z) = 0.52492 0.52492
#
# Static dielectric constant tensor:
#      x y z
#    x 2.086420 0.000000 0.000000 
#    y 0.000000 2.086420 0.000000 
#    z 0.000000 0.000000 1.962020 
# 
# From -- ./inp_files/2935.got.cif
#   From: 2010.05.17/outbox.cif.g08.bks.cpg/sg88_2_cif.got.tgz:2935.got - 2010.06.03 19:11:41.
