data_PCOD9546754
_publ_section_title
;
Structure prediction by ZEFSAII (Michael W. Deem and Ramdas Pophale) SiO2 
 PCOD9546754
Probable space group: I 41/A
;
_chemical_formula_sum "Si O2"
_cell_formula_units_Z 96
_cell_length_a 14.153027
_cell_length_b 14.153027
_cell_length_c 21.535549
_cell_angle_alpha 90.000000
_cell_angle_beta 90.000000
_cell_angle_gamma 90.000000
_cell_volume 4313.746480
_symmetry_space_group_name_H-M "I 41/A"
_symmetry_group_IT_number 88
_space_group.IT_coordinate_system_code '2'
_symmetry_cell_setting 'tetragonal'
loop_
_space_group_symop_operation_xyz
x,y,z
3/4-y,1/4+x,1/4+z
-x,1/2-y,z
1/4+y,1/4-x,1/4+z
-x,-y,-z
1/4+y,3/4-x,3/4-z
x,1/2+y,-z
3/4-y,3/4+x,3/4-z
1/2+x,1/2+y,1/2+z
1/4-y,3/4+x,3/4+z
1/2-x,-y,1/2+z
3/4+y,3/4-x,3/4+z
1/2-x,1/2-y,1/2-z
3/4+y,1/4-x,1/4-z
1/2+x,y,1/2-z
1/4-y,1/4+x,1/4-z
loop_
_atom_site_type_symbol
_atom_site_label
_atom_site_fract_x
_atom_site_fract_y
_atom_site_fract_z
Si Si1 0.894090 0.541529 0.508053
Si Si2 0.935070 0.616842 0.382516
Si Si3 0.038442 0.856089 0.027526
Si Si4 0.036084 0.891428 0.895804
Si Si5 0.608069 0.987030 0.233526
Si Si6 0.960530 0.420308 0.839172
O O1 0.874587 0.591532 0.442009
O O2 0.817641 0.458502 0.516217
O O3 0.888930 0.624657 0.559412
O O4 0.000000 0.500000 0.500000
O O5 0.894311 0.709111 0.348625
O O6 0.939063 0.535525 0.332657
O O7 0.150530 0.867692 0.017533
O O8 0.007239 0.882175 0.097293
O O9 0.000000 0.750000 0.018715
O O10 0.000196 0.909139 0.965694
O O11 0.107588 0.804281 0.893148
O O12 0.081478 0.980075 0.862333
O O13 0.540809 0.943554 0.287511
#
# Coordination Sequence:
#
# PCOD9546754 Si02
#       6
#    16  16  16  16  16  16
#     4  12  28  48  74 111 155 203 261 327 397 481
#     4  11  23  44  72  98 145 202 247 312 396 460
#     4  12  27  47  77 112 153 199 261 328 396 479
#     4  11  22  50  75 103 153 202 244 319 399 463
#     4  12  26  48  74 109 150 201 262 325 391 483
#     4  12  28  46  78 111 156 202 265 325 403 480
#
# _framework density 22.254435999999998
#
# number of rings (size 3 to 8) (size 9 to 14) (size 15 to 20)
#    0.000    0.333    6.667    1.500    7.000    1.333 
#    6.000    0.000    0.000    0.000    0.000    0.000 
#    0.000    0.000    0.000    0.000    0.000    0.000 
#
# Total GULP energy -268033.221996 kJ/mol
# GULP energy per Si atom -5584.025458 kJ/mol
# Density = 2.220378 g / cm^3
# Si number density = 22.254436 Si / 1000 Ang^3
#
#
#
# Elastic Constant Matrix: (Units=GPa)
#
#
# Indices 1 2 3 4 5 6 
#
# 1 97.8892 46.5779 39.3492 0.0000 0.0000 -0.6873
# 2 46.5779 97.8892 39.3492 0.0000 0.0000 0.6873
# 3 39.3492 39.3492 159.9344 0.0000 0.0000 0.0000
# 4 0.0000 0.0000 0.0000 37.0673 0.0000 0.0000
# 5 0.0000 0.0000 0.0000 0.0000 37.0673 0.0000
# 6 -0.6873 0.6873 0.0000 0.0000 0.0000 26.8105
#
#
#
# Elastic Compliance Matrix: (Units=1/GPa)
#
#
# Indices 1 2 3 4 5 6 
#
# 1 0.013748 -0.005754 -0.001967 0.000000 0.000000 0.000500
# 2 -0.005754 0.013748 -0.001967 0.000000 0.000000 -0.000500
# 3 -0.001967 -0.001967 0.007220 0.000000 0.000000 0.000000
# 4 0.000000 0.000000 0.000000 0.026978 0.000000 0.000000
# 5 0.000000 0.000000 0.000000 0.000000 0.026978 0.000000
# 6 0.000500 -0.000500 0.000000 0.000000 0.000000 0.037324
#
#
# Mechanical properties :
#
#
# Convention : Reuss Voigt Hill
#
# Bulk Modulus (GPa) = 65.18730 67.36279 66.27504
# Shear Modulus (GPa) = 33.22589 35.55147 34.38868
#
# Velocity S-wave (km/s) = 3.86813 4.00121 3.93523
# Velocity P-wave (km/s) = 7.02177 7.18897 7.10587
#
# Compressibility (1/GPa) = 0.01534041
#
# Stress axis : x y z
#
# Youngs Moduli (GPa) = 72.73900 72.73900 138.49894
#
# Poissons Ratio (x) = 0.41857 0.27237
# Poissons Ratio (y) = 0.41857 0.27237
# Poissons Ratio (z) = 0.14305 0.14305
#
# Static dielectric constant tensor:
#      x y z
#    x 1.891860 0.000000 0.000000 
#    y 0.000000 1.891860 0.000000 
#    z 0.000000 0.000000 1.855410 
# 
# From -- ./inp_files/4660.got.cif
#   From: 2010.05.17/outbox.cif.g08.bks.cpg/sg88_3_cif.got.tgz:4660.got - 2010.06.03 19:11:41.
