data_PCOD9546553
_publ_section_title
;
Structure prediction by ZEFSAII (Michael W. Deem and Ramdas Pophale) SiO2 
 PCOD9546553
Probable space group: I 41/A
;
_chemical_formula_sum "Si O2"
_cell_formula_units_Z 112
_cell_length_a 14.124870
_cell_length_b 14.124870
_cell_length_c 28.036911
_cell_angle_alpha 90.000000
_cell_angle_beta 90.000000
_cell_angle_gamma 90.000000
_cell_volume 5593.698856
_symmetry_space_group_name_H-M "I 41/A"
_symmetry_group_IT_number 88
_space_group.IT_coordinate_system_code '2'
_symmetry_cell_setting 'tetragonal'
loop_
_space_group_symop_operation_xyz
x,y,z
3/4-y,1/4+x,1/4+z
-x,1/2-y,z
1/4+y,1/4-x,1/4+z
-x,-y,-z
1/4+y,3/4-x,3/4-z
x,1/2+y,-z
3/4-y,3/4+x,3/4-z
1/2+x,1/2+y,1/2+z
1/4-y,3/4+x,3/4+z
1/2-x,-y,1/2+z
3/4+y,3/4-x,3/4+z
1/2-x,1/2-y,1/2-z
3/4+y,1/4-x,1/4-z
1/2+x,y,1/2-z
1/4-y,1/4+x,1/4-z
loop_
_atom_site_type_symbol
_atom_site_label
_atom_site_fract_x
_atom_site_fract_y
_atom_site_fract_z
Si Si1 0.973295 0.641136 0.638845
Si Si2 0.263701 0.196589 0.531354
Si Si3 0.905496 0.643759 0.358569
Si Si4 0.225849 0.055253 0.460088
Si Si5 0.121963 0.560821 0.230603
Si Si6 0.014238 0.589836 0.535090
Si Si7 0.706112 0.041785 0.625887
O O1 0.862414 0.620859 0.647495
O O2 0.000000 0.750000 0.630433
O O3 0.031344 0.595718 0.681457
O O4 0.995613 0.579675 0.591536
O O5 0.166430 0.186486 0.562381
O O6 0.286881 0.104801 0.500621
O O7 0.249414 0.282266 0.494949
O O8 0.888705 0.756746 0.354106
O O9 0.807745 0.595154 0.373253
O O10 0.125667 0.110978 0.464238
O O11 0.203478 0.949938 0.478438
O O12 0.272520 0.047226 0.408222
O O13 0.096328 0.673227 0.228428
O O14 0.169671 0.531249 0.180177
O O15 0.000000 0.500000 0.500000
#
# Coordination Sequence:
#
# PCOD9546553 Si02
#       7
#    16  16  16  16  16  16  16
#     4  11  24  43  65  85 127 179 221 266 319 386
#     4  12  24  41  65  98 124 174 226 266 328 391
#     4  11  22  36  62  95 136 174 202 245 330 405
#     4  11  22  36  64  91 124 163 214 266 322 386
#     4  10  22  40  58  89 135 172 210 262 319 392
#     4   9  22  38  59  94 131 165 202 254 323 400
#     4  11  22  42  61  90 134 170 214 269 324 388
#
# _framework density 20.022528999999999
#
# number of rings (size 3 to 8) (size 9 to 14) (size 15 to 20)
#    0.000    1.286    4.286    0.857    6.000    4.571 
#    0.000    0.714    3.143    0.000    0.000    0.000 
#    0.000    0.000    0.000    0.000    0.000    0.000 
#
# Total GULP energy -312222.955739 kJ/mol
# GULP energy per Si atom -5575.409924 kJ/mol
# Density = 1.997696 g / cm^3
# Si number density = 20.022529 Si / 1000 Ang^3
#
#
#
# Elastic Constant Matrix: (Units=GPa)
#
#
# Indices 1 2 3 4 5 6 
#
# 1 67.6235 17.2741 39.2128 0.0000 0.0000 -4.3142
# 2 17.2741 67.6235 39.2128 0.0000 0.0000 4.3142
# 3 39.2128 39.2128 120.9772 0.0000 0.0000 0.0000
# 4 0.0000 0.0000 0.0000 26.3247 0.0000 0.0000
# 5 0.0000 0.0000 0.0000 0.0000 26.3247 0.0000
# 6 -4.3142 4.3142 0.0000 0.0000 0.0000 13.0420
#
#
#
# Elastic Compliance Matrix: (Units=1/GPa)
#
#
# Indices 1 2 3 4 5 6 
#
# 1 0.018934 -0.002121 -0.005450 0.000000 0.000000 0.006965
# 2 -0.002121 0.018934 -0.005450 0.000000 0.000000 -0.006965
# 3 -0.005450 -0.005450 0.011799 0.000000 0.000000 0.000000
# 4 0.000000 0.000000 0.000000 0.037987 0.000000 0.000000
# 5 0.000000 0.000000 0.000000 0.000000 0.037987 0.000000
# 6 0.006965 -0.006965 0.000000 0.000000 0.000000 0.081283
#
#
# Mechanical properties :
#
#
# Convention : Reuss Voigt Hill
#
# Bulk Modulus (GPa) = 42.32561 49.73595 46.03078
# Shear Modulus (GPa) = 20.76066 23.83992 22.30029
#
# Velocity S-wave (km/s) = 3.22353 3.45433 3.34092
# Velocity P-wave (km/s) = 5.91944 6.38778 6.15807
#
# Compressibility (1/GPa) = 0.02362636
#
# Stress axis : x y z
#
# Youngs Moduli (GPa) = 52.81515 52.81515 84.75374
#
# Poissons Ratio (x) = 0.11201 0.46188
# Poissons Ratio (y) = 0.11201 0.46188
# Poissons Ratio (z) = 0.28783 0.28783
#
# Static dielectric constant tensor:
#      x y z
#    x 1.765760 0.000000 0.000000 
#    y 0.000000 1.765760 0.000000 
#    z 0.000000 0.000000 1.747540 
# 
# From -- ./inp_files/5859.got.cif
#   From: 2010.05.17/outbox.cif.g08.bks.cpg/sg88_3_cif.got.tgz:5859.got - 2010.06.03 19:11:41.
