data_PCOD9546382
_publ_section_title
;
Structure prediction by ZEFSAII (Michael W. Deem and Ramdas Pophale) SiO2 
 PCOD9546382
Probable space group: I 41/A
;
_chemical_formula_sum "Si O2"
_cell_formula_units_Z 72
_cell_length_a 14.405457
_cell_length_b 14.405457
_cell_length_c 15.819641
_cell_angle_alpha 90.000000
_cell_angle_beta 90.000000
_cell_angle_gamma 90.000000
_cell_volume 3282.847469
_symmetry_space_group_name_H-M "I 41/A"
_symmetry_group_IT_number 88
_space_group.IT_coordinate_system_code '2'
_symmetry_cell_setting 'tetragonal'
loop_
_space_group_symop_operation_xyz
x,y,z
3/4-y,1/4+x,1/4+z
-x,1/2-y,z
1/4+y,1/4-x,1/4+z
-x,-y,-z
1/4+y,3/4-x,3/4-z
x,1/2+y,-z
3/4-y,3/4+x,3/4-z
1/2+x,1/2+y,1/2+z
1/4-y,3/4+x,3/4+z
1/2-x,-y,1/2+z
3/4+y,3/4-x,3/4+z
1/2-x,1/2-y,1/2-z
3/4+y,1/4-x,1/4-z
1/2+x,y,1/2-z
1/4-y,1/4+x,1/4-z
loop_
_atom_site_type_symbol
_atom_site_label
_atom_site_fract_x
_atom_site_fract_y
_atom_site_fract_z
Si Si1 0.469992 0.891532 0.590741
Si Si2 0.500000 0.250000 0.737947
Si Si3 0.767638 0.675559 0.122141
Si Si4 0.529806 0.393620 0.598369
Si Si5 0.178038 0.839011 0.312179
O O1 0.569568 0.855147 0.623997
O O2 0.473826 0.886704 0.488792
O O3 0.455461 0.997827 0.617488
O O4 0.484529 0.337598 0.675666
O O5 0.589254 0.273560 0.792805
O O6 0.869180 0.653865 0.086898
O O7 0.771029 0.654707 0.222461
O O8 0.689118 0.610652 0.084201
O O9 0.738194 0.783725 0.118981
#
# Coordination Sequence:
#
# PCOD9546382 Si02
#       5
#    16   8  16  16  16
#     4  10  22  44  67  93 132 177 220 275 330 395
#     4  10  20  39  65  94 134 170 208 280 334 397
#     4  10  22  41  63  93 133 171 219 277 322 409
#     4  10  23  42  64  99 131 169 225 272 331 397
#     4  10  21  40  64  97 131 175 222 269 343 394
#
# _framework density 21.932179999999999
#
# number of rings (size 3 to 8) (size 9 to 14) (size 15 to 20)
#    0.000    2.000    0.000    2.667    6.222    0.000 
#   12.000    2.222    0.000    0.000    0.000    0.000 
#    0.000    0.000    0.000    0.000    0.000    0.000 
#
# Total GULP energy -201363.039394 kJ/mol
# GULP energy per Si atom -5593.417761 kJ/mol
# Density = 2.188226 g / cm^3
# Si number density = 21.932180 Si / 1000 Ang^3
#
#
#
# Elastic Constant Matrix: (Units=GPa)
#
#
# Indices 1 2 3 4 5 6 
#
# 1 71.0155 12.1109 8.0134 0.0000 0.0000 9.1440
# 2 12.1109 71.0155 8.0134 0.0000 0.0000 -9.1440
# 3 8.0134 8.0134 35.6295 0.0000 0.0000 0.0000
# 4 0.0000 0.0000 0.0000 28.4938 0.0000 0.0000
# 5 0.0000 0.0000 0.0000 0.0000 28.4937 0.0000
# 6 9.1440 -9.1440 0.0000 0.0000 0.0000 23.6076
#
#
#
# Elastic Compliance Matrix: (Units=1/GPa)
#
#
# Indices 1 2 3 4 5 6 
#
# 1 0.015936 -0.003361 -0.002828 0.000000 0.000000 -0.007474
# 2 -0.003361 0.015936 -0.002828 0.000000 0.000000 0.007474
# 3 -0.002828 -0.002828 0.029339 0.000000 0.000000 0.000000
# 4 0.000000 0.000000 0.000000 0.035095 0.000000 0.000000
# 5 0.000000 0.000000 0.000000 0.000000 0.035095 0.000000
# 6 -0.007474 0.007474 0.000000 0.000000 0.000000 0.048149
#
#
# Mechanical properties :
#
#
# Convention : Reuss Voigt Hill
#
# Bulk Modulus (GPa) = 23.16096 25.99287 24.57691
# Shear Modulus (GPa) = 23.58728 26.08721 24.83725
#
# Velocity S-wave (km/s) = 3.28299 3.45258 3.36885
# Velocity P-wave (km/s) = 4.99538 5.26982 5.13443
#
# Compressibility (1/GPa) = 0.04317611
#
# Stress axis : x y z
#
# Youngs Moduli (GPa) = 62.75032 62.75032 34.08448
#
# Poissons Ratio (x) = 0.21090 0.09640
# Poissons Ratio (y) = 0.21090 0.09640
# Poissons Ratio (z) = 0.17747 0.17748
#
# Static dielectric constant tensor:
#      x y z
#    x 1.809730 0.000000 0.000000 
#    y 0.000000 1.809730 0.000000 
#    z 0.000000 0.000000 1.825760 
# 
# From -- ./inp_files/3828.got.cif
#   From: 2010.05.17/outbox.cif.g08.bks.cpg/sg88_2_cif.got.tgz:3828.got - 2010.06.03 19:11:41.
