data_PCOD9546564
_publ_section_title
;
Structure prediction by ZEFSAII (Michael W. Deem and Ramdas Pophale) SiO2 
 PCOD9546564
Probable space group: I 41/A
;
_chemical_formula_sum "Si O2"
_cell_formula_units_Z 112
_cell_length_a 13.534374
_cell_length_b 13.534374
_cell_length_c 25.734851
_cell_angle_alpha 90.000000
_cell_angle_beta 90.000000
_cell_angle_gamma 90.000000
_cell_volume 4714.091466
_symmetry_space_group_name_H-M "I 41/A"
_symmetry_group_IT_number 88
_space_group.IT_coordinate_system_code '2'
_symmetry_cell_setting 'tetragonal'
loop_
_space_group_symop_operation_xyz
x,y,z
3/4-y,1/4+x,1/4+z
-x,1/2-y,z
1/4+y,1/4-x,1/4+z
-x,-y,-z
1/4+y,3/4-x,3/4-z
x,1/2+y,-z
3/4-y,3/4+x,3/4-z
1/2+x,1/2+y,1/2+z
1/4-y,3/4+x,3/4+z
1/2-x,-y,1/2+z
3/4+y,3/4-x,3/4+z
1/2-x,1/2-y,1/2-z
3/4+y,1/4-x,1/4-z
1/2+x,y,1/2-z
1/4-y,1/4+x,1/4-z
loop_
_atom_site_type_symbol
_atom_site_label
_atom_site_fract_x
_atom_site_fract_y
_atom_site_fract_z
Si Si1 0.148368 0.209541 0.145589
Si Si2 0.866413 0.982999 0.275679
Si Si3 0.858445 0.445097 0.422438
Si Si4 0.392735 0.710872 0.752471
Si Si5 0.144721 0.769030 0.627921
Si Si6 0.477270 0.602724 0.141493
Si Si7 0.105045 0.212318 0.787124
O O1 0.060001 0.135063 0.133832
O O2 0.168130 0.239567 0.205643
O O3 0.251825 0.174286 0.123386
O O4 0.885735 0.091730 0.253492
O O5 0.759217 0.979822 0.303638
O O6 0.864323 0.891708 0.236023
O O7 0.953687 0.945837 0.314574
O O8 0.839132 0.336856 0.399615
O O9 0.909678 0.516535 0.380880
O O10 0.944834 0.426429 0.464682
O O11 0.500000 0.750000 0.736829
O O12 0.378992 0.744516 0.811780
O O13 0.062857 0.832187 0.597837
O O14 0.401437 0.694800 0.150011
O O15 0.000000 0.250000 0.764904
#
# Coordination Sequence:
#
# PCOD9546564 Si02
#       7
#    16  16  16  16  16  16  16
#     4  11  24  46  71  96 136 184 232 298 359 422
#     4  11  23  39  67 102 134 182 245 283 363 441
#     4  10  22  43  62  98 135 179 225 291 354 434
#     4  12  24  45  72 102 140 190 240 301 370 441
#     4  11  24  43  70  97 141 177 239 291 368 427
#     4   9  19  36  61  88 126 173 219 275 342 421
#     4  10  22  40  65  96 137 187 220 294 362 433
#
# _framework density 23.758555000000001
#
# number of rings (size 3 to 8) (size 9 to 14) (size 15 to 20)
#    0.000    1.429    1.429    4.714    6.000    0.000 
#    5.143    0.000    0.000    0.000    0.000    0.000 
#    0.000    0.000    0.000    0.000    0.000    0.000 
#
# Total GULP energy -312783.716884 kJ/mol
# GULP energy per Si atom -5585.423516 kJ/mol
# Density = 2.370448 g / cm^3
# Si number density = 23.758555 Si / 1000 Ang^3
#
#
#
# Elastic Constant Matrix: (Units=GPa)
#
#
# Indices 1 2 3 4 5 6 
#
# 1 91.8098 6.0718 5.1687 0.0000 0.0000 -1.6996
# 2 6.0718 91.8098 5.1687 0.0000 0.0000 1.6996
# 3 5.1687 5.1687 76.2189 0.0000 0.0000 0.0000
# 4 0.0000 0.0000 0.0000 15.6241 0.0000 0.0000
# 5 0.0000 0.0000 0.0000 0.0000 15.6241 0.0000
# 6 -1.6996 1.6996 0.0000 0.0000 0.0000 22.3481
#
#
#
# Elastic Compliance Matrix: (Units=1/GPa)
#
#
# Indices 1 2 3 4 5 6 
#
# 1 0.010994 -0.000704 -0.000698 0.000000 0.000000 0.000890
# 2 -0.000704 0.010994 -0.000698 0.000000 0.000000 -0.000890
# 3 -0.000698 -0.000698 0.013215 0.000000 0.000000 0.000000
# 4 0.000000 0.000000 0.000000 0.064004 0.000000 0.000000
# 5 0.000000 0.000000 0.000000 0.000000 0.064004 0.000000
# 6 0.000890 -0.000890 0.000000 0.000000 0.000000 0.044882
#
#
# Mechanical properties :
#
#
# Convention : Reuss Voigt Hill
#
# Bulk Modulus (GPa) = 32.25419 32.51744 32.38582
# Shear Modulus (GPa) = 22.45908 26.94788 24.70348
#
# Velocity S-wave (km/s) = 3.07792 3.37150 3.22805
# Velocity P-wave (km/s) = 5.12218 5.37330 5.24924
#
# Compressibility (1/GPa) = 0.03100373
#
# Stress axis : x y z
#
# Youngs Moduli (GPa) = 90.95524 90.95524 75.67301
#
# Poissons Ratio (x) = 0.06406 0.05281
# Poissons Ratio (y) = 0.06406 0.05281
# Poissons Ratio (z) = 0.06347 0.06347
#
# Static dielectric constant tensor:
#      x y z
#    x 1.922400 0.000000 0.000000 
#    y 0.000000 1.922400 0.000000 
#    z 0.000000 0.000000 1.948870 
# 
# From -- ./inp_files/5355.got.cif
#   From: 2010.05.17/outbox.cif.g08.bks.cpg/sg88_3_cif.got.tgz:5355.got - 2010.06.03 19:11:41.
