data_PCOD9546259
_publ_section_title
;
Structure prediction by ZEFSAII (Michael W. Deem and Ramdas Pophale) SiO2 
 PCOD9546259
Probable space group: I 41/A
;
_chemical_formula_sum "Si O2"
_cell_formula_units_Z 120
_cell_length_a 18.119501
_cell_length_b 18.119501
_cell_length_c 14.261400
_cell_angle_alpha 90.000000
_cell_angle_beta 90.000000
_cell_angle_gamma 90.000000
_cell_volume 4682.250316
_symmetry_space_group_name_H-M "I 41/A"
_symmetry_group_IT_number 88
_space_group.IT_coordinate_system_code '2'
_symmetry_cell_setting 'tetragonal'
loop_
_space_group_symop_operation_xyz
x,y,z
3/4-y,1/4+x,1/4+z
-x,1/2-y,z
1/4+y,1/4-x,1/4+z
-x,-y,-z
1/4+y,3/4-x,3/4-z
x,1/2+y,-z
3/4-y,3/4+x,3/4-z
1/2+x,1/2+y,1/2+z
1/4-y,3/4+x,3/4+z
1/2-x,-y,1/2+z
3/4+y,3/4-x,3/4+z
1/2-x,1/2-y,1/2-z
3/4+y,1/4-x,1/4-z
1/2+x,y,1/2-z
1/4-y,1/4+x,1/4-z
loop_
_atom_site_type_symbol
_atom_site_label
_atom_site_fract_x
_atom_site_fract_y
_atom_site_fract_z
Si Si1 0.162476 0.228383 0.851875
Si Si2 0.500000 0.750000 0.834887
Si Si3 0.839341 0.070439 0.527120
Si Si4 0.698075 0.388086 0.595450
Si Si5 0.929341 0.663469 0.340395
Si Si6 0.935381 0.830238 0.922991
Si Si7 0.717455 0.666463 0.552674
Si Si8 0.707393 0.183056 0.068989
O O1 0.185052 0.165209 0.780403
O O2 0.194275 0.310380 0.847476
O O3 0.190751 0.195994 0.951067
O O4 0.074887 0.245441 0.857856
O O5 0.428622 0.733178 0.767352
O O6 0.859305 0.127266 0.610189
O O7 0.779005 0.105070 0.459997
O O8 0.814592 0.999699 0.585414
O O9 0.618687 0.427041 0.597654
O O10 0.736671 0.362852 0.499154
O O11 0.910802 0.749854 0.340317
O O12 0.948569 0.613456 0.250117
O O13 0.906557 0.745742 0.906010
O O14 0.858893 0.871038 0.912636
O O15 0.755362 0.739307 0.598516
#
# Coordination Sequence:
#
# PCOD9546259 Si02
#       8
#    16   8  16  16  16  16  16  16
#     4  10  21  35  58  85 114 148 195 249 291 338
#     4   8  17  32  60  88 107 132 192 256 296 334
#     4  11  22  33  54  79 114 158 187 236 290 354
#     4  10  23  37  58  77 121 160 198 234 300 354
#     4  10  19  31  51  78 109 145 195 237 273 331
#     4   8  16  37  65  85 108 144 189 248 308 348
#     4  10  21  38  56  89 115 149 196 242 291 356
#     4  10  21  39  56  81 117 159 198 241 285 362
#
# _framework density 25.628701
#
# number of rings (size 3 to 8) (size 9 to 14) (size 15 to 20)
#    0.000    2.400    1.333    1.200    5.600    1.067 
#    2.400    0.000    0.000    7.200    0.000    0.000 
#    0.000    0.000    0.000    0.000    0.000    0.000 
#
# Total GULP energy -334835.327875 kJ/mol
# GULP energy per Si atom -5580.588798 kJ/mol
# Density = 2.557037 g / cm^3
# Si number density = 25.628701 Si / 1000 Ang^3
#
#
#
# Elastic Constant Matrix: (Units=GPa)
#
#
# Indices 1 2 3 4 5 6 
#
# 1 68.5244 11.7995 8.6677 0.0000 0.0000 2.7243
# 2 11.7995 68.5244 8.6677 0.0000 0.0000 -2.7243
# 3 8.6677 8.6677 36.7021 0.0000 0.0000 0.0000
# 4 0.0000 0.0000 0.0000 13.0734 0.0000 0.0000
# 5 0.0000 0.0000 0.0000 0.0000 13.0734 0.0000
# 6 2.7243 -2.7243 0.0000 0.0000 0.0000 15.8465
#
#
#
# Elastic Compliance Matrix: (Units=1/GPa)
#
#
# Indices 1 2 3 4 5 6 
#
# 1 0.015522 -0.002403 -0.003098 0.000000 0.000000 -0.003082
# 2 -0.002403 0.015522 -0.003098 0.000000 0.000000 0.003082
# 3 -0.003098 -0.003098 0.028710 0.000000 0.000000 0.000000
# 4 0.000000 0.000000 0.000000 0.076491 0.000000 0.000000
# 5 0.000000 0.000000 0.000000 0.000000 0.076491 0.000000
# 6 -0.003082 0.003082 0.000000 0.000000 0.000000 0.064165
#
#
# Mechanical properties :
#
#
# Convention : Reuss Voigt Hill
#
# Bulk Modulus (GPa) = 23.49958 25.78008 24.63983
# Shear Modulus (GPa) = 16.21879 18.03971 17.12925
#
# Velocity S-wave (km/s) = 2.51835 2.65596 2.58807
# Velocity P-wave (km/s) = 4.20063 4.41434 4.30881
#
# Compressibility (1/GPa) = 0.04255395
#
# Stress axis : x y z
#
# Youngs Moduli (GPa) = 64.42648 64.42648 34.83145
#
# Poissons Ratio (x) = 0.15484 0.10791
# Poissons Ratio (y) = 0.15484 0.10791
# Poissons Ratio (z) = 0.19960 0.19960
#
# Static dielectric constant tensor:
#      x y z
#    x 2.062580 0.000000 0.000000 
#    y 0.000000 2.062580 0.000000 
#    z 0.000000 0.000000 2.056130 
# 
# From -- ./inp_files/4866.got.cif
#   From: 2010.05.17/outbox.cif.g08.bks.cpg/sg88_3_cif.got.tgz:4866.got - 2010.06.03 19:11:41.
