data_PCOD9546519
_publ_section_title
;
Structure prediction by ZEFSAII (Michael W. Deem and Ramdas Pophale) SiO2 
 PCOD9546519
Probable space group: I 41/A
;
_chemical_formula_sum "Si O2"
_cell_formula_units_Z 48
_cell_length_a 18.993115
_cell_length_b 18.993115
_cell_length_c 5.072029
_cell_angle_alpha 90.000000
_cell_angle_beta 90.000000
_cell_angle_gamma 90.000000
_cell_volume 1829.675714
_symmetry_space_group_name_H-M "I 41/A"
_symmetry_group_IT_number 88
_space_group.IT_coordinate_system_code '2'
_symmetry_cell_setting 'tetragonal'
loop_
_space_group_symop_operation_xyz
x,y,z
3/4-y,1/4+x,1/4+z
-x,1/2-y,z
1/4+y,1/4-x,1/4+z
-x,-y,-z
1/4+y,3/4-x,3/4-z
x,1/2+y,-z
3/4-y,3/4+x,3/4-z
1/2+x,1/2+y,1/2+z
1/4-y,3/4+x,3/4+z
1/2-x,-y,1/2+z
3/4+y,3/4-x,3/4+z
1/2-x,1/2-y,1/2-z
3/4+y,1/4-x,1/4-z
1/2+x,y,1/2-z
1/4-y,1/4+x,1/4-z
loop_
_atom_site_type_symbol
_atom_site_label
_atom_site_fract_x
_atom_site_fract_y
_atom_site_fract_z
Si Si1 0.163987 0.943109 0.998297
Si Si2 0.592496 0.813214 0.661964
Si Si3 0.274325 0.703997 0.001387
O O1 0.243161 0.919378 0.946573
O O2 0.122825 0.871112 0.038975
O O3 0.119474 0.981034 0.762913
O O4 0.586925 0.736846 0.529074
O O5 0.644726 0.810313 0.913064
O O6 0.250000 0.750000 0.750000
O O7 0.250000 0.750000 0.250000
#
# Coordination Sequence:
#
# PCOD9546519 Si02
#       3
#    16  16  16
#     4  10  23  43  71 115 150 207 265 330 395 477
#     4  10  21  45  77 116 156 206 260 325 404 480
#     4  11  24  48  76 110 155 207 260 331 396 478
#
# _framework density 26.234157
#
# number of rings (size 3 to 8) (size 9 to 14) (size 15 to 20)
#    0.000    1.667    3.333    0.000    0.000    5.333 
#   12.000    0.000    0.000    0.000    0.000    0.000 
#    0.000    0.000    0.000    0.000    0.000    0.000 
#
# Total GULP energy -134242.007024 kJ/mol
# GULP energy per Si atom -5593.416959 kJ/mol
# Density = 2.617445 g / cm^3
# Si number density = 26.234157 Si / 1000 Ang^3
#
#
#
# Elastic Constant Matrix: (Units=GPa)
#
#
# Indices 1 2 3 4 5 6 
#
# 1 213.4108 84.6268 49.8811 0.0000 0.0000 -7.9521
# 2 84.6268 213.4108 49.8811 0.0000 0.0000 7.9521
# 3 49.8811 49.8811 147.9560 0.0000 0.0000 0.0000
# 4 0.0000 0.0000 0.0000 1.7429 0.0000 0.0000
# 5 0.0000 0.0000 0.0000 0.0000 1.7429 0.0000
# 6 -7.9521 7.9521 0.0000 0.0000 0.0000 56.3319
#
#
#
# Elastic Compliance Matrix: (Units=1/GPa)
#
#
# Indices 1 2 3 4 5 6 
#
# 1 0.005842 -0.002060 -0.001275 0.000000 0.000000 0.001116
# 2 -0.002060 0.005842 -0.001275 0.000000 0.000000 -0.001116
# 3 -0.001275 -0.001275 0.007619 0.000000 0.000000 0.000000
# 4 0.000000 0.000000 0.000000 0.573754 0.000000 0.000000
# 5 0.000000 0.000000 0.000000 0.000000 0.573754 0.000000
# 6 0.001116 -0.001116 0.000000 0.000000 0.000000 0.018067
#
#
# Mechanical properties :
#
#
# Convention : Reuss Voigt Hill
#
# Bulk Modulus (GPa) = 99.18283 104.83952 102.01118
# Shear Modulus (GPa) = 4.17551 37.98945 21.08248
#
# Velocity S-wave (km/s) = 1.26297 3.80951 2.83791
# Velocity P-wave (km/s) = 6.32579 7.70711 7.05036
#
# Compressibility (1/GPa) = 0.01008239
#
# Stress axis : x y z
#
# Youngs Moduli (GPa) = 171.16259 171.16259 131.25931
#
# Poissons Ratio (x) = 0.35265 0.16737
# Poissons Ratio (y) = 0.35265 0.16737
# Poissons Ratio (z) = 0.21824 0.21824
#
# Static dielectric constant tensor:
#      x y z
#    x 2.184070 0.000000 0.000000 
#    y 0.000000 2.184070 0.000000 
#    z 0.000000 0.000000 2.088410 
# 
# From -- ./inp_files/334.got.cif
#   From: 2010.05.17/outbox.cif.g08.bks.cpg/sg88_1_cif.got.tgz:334.got - 2010.06.03 19:11:41.
