data_PCOD9546108
_publ_section_title
;
Structure prediction by ZEFSAII (Michael W. Deem and Ramdas Pophale) SiO2 
 PCOD9546108
Probable space group: I 4/M
;
_chemical_formula_sum "Si O2"
_cell_formula_units_Z 48
_cell_length_a 8.458077
_cell_length_b 8.458077
_cell_length_c 29.510511
_cell_angle_alpha 90.000000
_cell_angle_beta 90.000000
_cell_angle_gamma 90.000000
_cell_volume 2111.154410
_symmetry_space_group_name_H-M "I 4/M"
_symmetry_group_IT_number 87
_symmetry_cell_setting 'tetragonal'
loop_
_space_group_symop_operation_xyz
x,y,z
-y,x,z
-x,-y,z
y,-x,z
-x,-y,-z
y,-x,-z
x,y,-z
-y,x,-z
1/2+x,1/2+y,1/2+z
1/2-y,1/2+x,1/2+z
1/2-x,1/2-y,1/2+z
1/2+y,1/2-x,1/2+z
1/2-x,1/2-y,1/2-z
1/2+y,1/2-x,1/2-z
1/2+x,1/2+y,1/2-z
1/2-y,1/2+x,1/2-z
loop_
_atom_site_type_symbol
_atom_site_label
_atom_site_fract_x
_atom_site_fract_y
_atom_site_fract_z
Si Si1 0.000000 0.500000 0.750000
Si Si2 0.000000 0.000000 0.608116
Si Si3 0.340861 0.096638 0.409592
Si Si4 0.746099 0.413874 0.315550
Si Si5 0.348522 0.281128 0.500000
O O1 0.895757 0.389737 0.716975
O O2 0.011072 0.194747 0.606263
O O3 0.389061 0.206446 0.367484
O O4 0.295420 0.190534 0.455034
O O5 0.500000 0.000000 0.420449
O O6 0.694039 0.594624 0.306994
O O7 0.539296 0.288844 0.500000
#
# Coordination Sequence:
#
# PCOD9546108 Si02
#       5
#     4   4  16  16   8
#     4  12  24  44  72 102 136 188 248 308 380 450
#     4  12  28  45  80 112 144 212 240 304 372 441
#     4  12  25  46  69 108 149 190 248 305 363 444
#     4  11  24  45  69 101 142 188 239 309 376 443
#     4  11  23  41  70 104 147 201 242 299 368 437
#
# _framework density 22.736374999999999
#
# number of rings (size 3 to 8) (size 9 to 14) (size 15 to 20)
#    0.000    0.500    1.667    7.500    0.000    4.667 
#    0.000    0.000    0.000    0.000    0.000    0.000 
#    0.000    0.000    0.000    0.000    0.000    0.000 
#
# Total GULP energy -133875.854734 kJ/mol
# GULP energy per Si atom -5578.160614 kJ/mol
# Density = 2.268463 g / cm^3
# Si number density = 22.736375 Si / 1000 Ang^3
#
#
#
# Elastic Constant Matrix: (Units=GPa)
#
#
# Indices 1 2 3 4 5 6 
#
# 1 70.0249 6.5028 5.3154 0.0000 0.0000 -12.5965
# 2 6.5028 70.0249 5.3155 0.0000 0.0000 12.5965
# 3 5.3154 5.3155 123.2813 0.0000 0.0000 0.0000
# 4 0.0000 0.0000 0.0000 15.6247 0.0000 0.0000
# 5 0.0000 0.0000 0.0000 0.0000 15.6247 0.0000
# 6 -12.5965 12.5965 0.0000 0.0000 0.0000 28.2703
#
#
#
# Elastic Compliance Matrix: (Units=1/GPa)
#
#
# Indices 1 2 3 4 5 6 
#
# 1 0.016134 -0.002988 -0.000567 0.000000 0.000000 0.008520
# 2 -0.002988 0.016134 -0.000567 0.000000 0.000000 -0.008520
# 3 -0.000567 -0.000567 0.008160 0.000000 0.000000 0.000000
# 4 0.000000 0.000000 0.000000 0.064001 0.000000 0.000000
# 5 0.000000 0.000000 0.000000 0.000000 0.064001 0.000000
# 6 0.008520 -0.008520 0.000000 0.000000 0.000000 0.042965
#
#
# Mechanical properties :
#
#
# Convention : Reuss Voigt Hill
#
# Bulk Modulus (GPa) = 31.07036 33.06649 32.06843
# Shear Modulus (GPa) = 21.70450 28.31711 25.01081
#
# Velocity S-wave (km/s) = 3.09304 3.53293 3.32028
# Velocity P-wave (km/s) = 5.14305 5.58723 5.36973
#
# Compressibility (1/GPa) = 0.03218501
#
# Stress axis : x y z
#
# Youngs Moduli (GPa) = 61.98175 61.98176 122.54287
#
# Poissons Ratio (x) = 0.18519 0.06946
# Poissons Ratio (y) = 0.18519 0.06946
# Poissons Ratio (z) = 0.03513 0.03513
#
# Static dielectric constant tensor:
#      x y z
#    x 1.844860 0.000000 0.000000 
#    y 0.000000 1.844860 0.000000 
#    z 0.000000 0.000000 1.806480 
# 
# From -- ./inp_files/6416.got.cif
#   From: 2010.05.17/outbox.cif.g08.bks.cpg/sg87_4_cif.got.tgz:6416.got - 2010.06.03 19:07:00.
