data_PCOD9546898
_publ_section_title
;
Structure prediction by ZEFSAII (Michael W. Deem and Ramdas Pophale) SiO2 
 PCOD9546898
Probable space group: P 4 2 2
;
_chemical_formula_sum "Si O2"
_cell_formula_units_Z 48
_cell_length_a 18.115292
_cell_length_b 18.115292
_cell_length_c 10.039082
_cell_angle_alpha 90.000000
_cell_angle_beta 90.000000
_cell_angle_gamma 90.000000
_cell_volume 3294.463340
_symmetry_space_group_name_H-M "P 4 2 2"
_symmetry_group_IT_number 89
_symmetry_cell_setting 'tetragonal'
loop_
_space_group_symop_operation_xyz
x,y,z
-y,x,z
-x,-y,z
y,-x,z
x,-y,-z
-x,y,-z
y,x,-z
-y,-x,-z
loop_
_atom_site_type_symbol
_atom_site_label
_atom_site_fract_x
_atom_site_fract_y
_atom_site_fract_z
Si Si1 0.585159 0.303775 0.029491
Si Si2 0.344185 0.226950 0.724847
Si Si3 0.341101 0.229460 0.219769
Si Si4 0.914144 0.585279 0.161017
Si Si5 0.297216 0.413704 0.526797
Si Si6 0.413813 0.084966 0.160495
O O1 0.605372 0.277546 0.177111
O O2 0.500000 0.293322 0.000000
O O3 0.613848 0.386153 0.000000
O O4 0.633215 0.254875 0.926832
O O5 0.262351 0.260160 0.749060
O O6 0.360892 0.143975 0.769598
O O7 0.371113 0.243201 0.576009
O O8 0.393798 0.270815 0.325328
O O9 0.357959 0.142853 0.225575
O O10 0.895584 0.499375 0.193031
O O11 0.999586 0.598054 0.197856
O O12 0.909852 0.592135 0.000454
O O13 0.296207 0.500000 0.500000
O O14 0.376684 0.376684 0.500000
#
# Coordination Sequence:
#
# PCOD9546898 Si02
#       6
#     8   8   8   8   8   8
#     4  10  18  27  41  57  75 103 136 172 210 244
#     4  10  19  30  44  61  82 109 140 175 213 253
#     4  10  19  30  44  61  82 109 140 175 213 253
#     4   9  16  26  43  65  86 108 135 171 213 257
#     4  10  20  31  43  59  81 113 148 182 218 250
#     4   9  16  26  43  65  86 108 135 171 213 257
#
# _framework density 14.569900000000001
#
# number of rings (size 3 to 8) (size 9 to 14) (size 15 to 20)
#    0.000    2.333    1.667    4.000    0.000    0.333 
#    0.000    0.833    0.000    9.000    0.000    0.000 
#    0.000    0.667    0.000    3.667    0.000    9.333 
#
# Total GULP energy -267460.295317 kJ/mol
# GULP energy per Si atom -5572.089486 kJ/mol
# Density = 1.453674 g / cm^3
# Si number density = 14.569900 Si / 1000 Ang^3
#
#
#
# Elastic Constant Matrix: (Units=GPa)
#
#
# Indices 1 2 3 4 5 6 
#
# 1 84.2223 41.5998 2.4767 0.0000 0.0000 0.0000
# 2 41.5998 84.2204 2.4767 0.0000 0.0000 0.0000
# 3 2.4767 2.4767 28.9839 0.0000 0.0000 0.0000
# 4 0.0000 0.0000 0.0000 12.4799 0.0000 0.0000
# 5 0.0000 0.0000 0.0000 0.0000 12.4802 0.0000
# 6 0.0000 0.0000 0.0000 0.0000 0.0000 20.2034
#
#
#
# Elastic Compliance Matrix: (Units=1/GPa)
#
#
# Indices 1 2 3 4 5 6 
#
# 1 0.015718 -0.007744 -0.000681 0.000000 0.000000 0.000000
# 2 -0.007744 0.015719 -0.000681 0.000000 0.000000 0.000000
# 3 -0.000681 -0.000681 0.034618 0.000000 0.000000 0.000000
# 4 0.000000 0.000000 0.000000 0.080129 0.000000 0.000000
# 5 0.000000 0.000000 0.000000 0.000000 0.080127 0.000000
# 6 0.000000 0.000000 0.000000 0.000000 0.000000 0.049497
#
#
# Mechanical properties :
#
#
# Convention : Reuss Voigt Hill
#
# Bulk Modulus (GPa) = 20.90221 32.28144 26.59183
# Shear Modulus (GPa) = 16.13067 19.09092 17.61080
#
# Velocity S-wave (km/s) = 3.33096 3.62373 3.48042
# Velocity P-wave (km/s) = 5.40102 6.30182 5.86873
#
# Compressibility (1/GPa) = 0.04784184
#
# Stress axis : x y z
#
# Youngs Moduli (GPa) = 63.62014 63.61869 28.88640
#
# Poissons Ratio (x) = 0.49265 0.01968
# Poissons Ratio (y) = 0.49267 0.01969
# Poissons Ratio (z) = 0.04335 0.04335
#
# Static dielectric constant tensor:
#      x y z
#    x 1.491590 0.000000 0.000000 
#    y 0.000000 1.491590 0.000000 
#    z 0.000000 0.000000 1.483370 
# 
# From -- ./inp_files/1194.got.cif
#   From: 2010.05.17/outbox.cif.g08.bks.cpg/sg89_1_cif.got.tgz:1194.got - 2010.06.03 19:15:31.
