data_PCOD9546357
_publ_section_title
;
Structure prediction by ZEFSAII (Michael W. Deem and Ramdas Pophale) SiO2 
 PCOD9546357
Probable space group: I 41/A
;
_chemical_formula_sum "Si O2"
_cell_formula_units_Z 120
_cell_length_a 18.484997
_cell_length_b 18.484997
_cell_length_c 15.624023
_cell_angle_alpha 90.000000
_cell_angle_beta 90.000000
_cell_angle_gamma 90.000000
_cell_volume 5338.652322
_symmetry_space_group_name_H-M "I 41/A"
_symmetry_group_IT_number 88
_space_group.IT_coordinate_system_code '2'
_symmetry_cell_setting 'tetragonal'
loop_
_space_group_symop_operation_xyz
x,y,z
3/4-y,1/4+x,1/4+z
-x,1/2-y,z
1/4+y,1/4-x,1/4+z
-x,-y,-z
1/4+y,3/4-x,3/4-z
x,1/2+y,-z
3/4-y,3/4+x,3/4-z
1/2+x,1/2+y,1/2+z
1/4-y,3/4+x,3/4+z
1/2-x,-y,1/2+z
3/4+y,3/4-x,3/4+z
1/2-x,1/2-y,1/2-z
3/4+y,1/4-x,1/4-z
1/2+x,y,1/2-z
1/4-y,1/4+x,1/4-z
loop_
_atom_site_type_symbol
_atom_site_label
_atom_site_fract_x
_atom_site_fract_y
_atom_site_fract_z
Si Si1 0.395873 0.082807 0.019536
Si Si2 0.500000 0.750000 0.412462
Si Si3 0.795770 0.057460 0.012298
Si Si4 0.248230 0.828003 0.846034
Si Si5 0.463434 0.339956 0.430040
Si Si6 0.493514 0.384293 0.682601
Si Si7 0.231538 0.933853 0.382918
Si Si8 0.483243 0.629262 0.127361
O O1 0.326239 0.081116 0.956366
O O2 0.463161 0.081473 0.954545
O O3 0.391653 0.160745 0.064099
O O4 0.384153 0.019847 0.088469
O O5 0.545435 0.703181 0.481269
O O6 0.465734 0.687927 0.352318
O O7 0.778776 0.124940 0.072370
O O8 0.789889 0.986599 0.072798
O O9 0.870402 0.048485 0.961789
O O10 0.732041 0.053877 0.941818
O O11 0.172545 0.805246 0.805771
O O12 0.297131 0.761701 0.875797
O O13 0.544967 0.332221 0.391210
O O14 0.515467 0.404970 0.779118
O O15 0.421703 0.691565 0.132155
#
# Coordination Sequence:
#
# PCOD9546357 Si02
#       8
#    16   8  16  16  16  16  16  16
#     4  10  20  37  60  88 118 160 212 261 324 390
#     4  10  23  44  61  90 124 172 220 268 329 384
#     4   9  21  38  59  89 124 165 205 261 334 390
#     4  11  23  39  65  93 128 167 220 274 335 402
#     4   9  23  44  63  88 130 174 217 278 338 401
#     4  11  23  38  63  95 121 170 223 269 328 403
#     4   9  19  38  57  83 121 161 197 259 326 392
#     4   9  18  37  60  83 118 157 201 259 316 379
#
# _framework density 22.477582999999999
#
# number of rings (size 3 to 8) (size 9 to 14) (size 15 to 20)
#    0.000    2.400    0.000    2.400    5.600    3.733 
#    2.400    4.000    0.000    0.000    0.000    0.000 
#    0.000    0.000    0.000    0.000    0.000    0.000 
#
# Total GULP energy -334941.006881 kJ/mol
# GULP energy per Si atom -5582.350115 kJ/mol
# Density = 2.242642 g / cm^3
# Si number density = 22.477583 Si / 1000 Ang^3
#
#
#
# Elastic Constant Matrix: (Units=GPa)
#
#
# Indices 1 2 3 4 5 6 
#
# 1 52.5178 2.4324 14.1855 0.0000 0.0000 -3.3982
# 2 2.4324 52.5178 14.1855 0.0000 0.0000 3.3982
# 3 14.1855 14.1855 97.4113 0.0000 0.0000 0.0000
# 4 0.0000 0.0000 0.0000 13.5395 0.0000 0.0000
# 5 0.0000 0.0000 0.0000 0.0000 13.5395 0.0000
# 6 -3.3982 3.3982 0.0000 0.0000 0.0000 14.7020
#
#
#
# Elastic Compliance Matrix: (Units=1/GPa)
#
#
# Indices 1 2 3 4 5 6 
#
# 1 0.020145 -0.000467 -0.002866 0.000000 0.000000 0.004764
# 2 -0.000467 0.020145 -0.002866 0.000000 0.000000 -0.004764
# 3 -0.002866 -0.002866 0.011100 0.000000 0.000000 0.000000
# 4 0.000000 0.000000 0.000000 0.073858 0.000000 0.000000
# 5 0.000000 0.000000 0.000000 0.000000 0.073858 0.000000
# 6 0.004764 -0.004764 0.000000 0.000000 0.000000 0.070220
#
#
# Mechanical properties :
#
#
# Convention : Reuss Voigt Hill
#
# Bulk Modulus (GPa) = 25.64521 29.33932 27.49226
# Shear Modulus (GPa) = 16.96514 19.79909 18.38212
#
# Velocity S-wave (km/s) = 2.75027 2.97111 2.86282
# Velocity P-wave (km/s) = 4.63889 4.98508 4.81510
#
# Compressibility (1/GPa) = 0.03899364
#
# Stress axis : x y z
#
# Youngs Moduli (GPa) = 49.63990 49.63990 90.08727
#
# Poissons Ratio (x) = 0.02320 0.25815
# Poissons Ratio (y) = 0.02320 0.25815
# Poissons Ratio (z) = 0.14225 0.14225
#
# Static dielectric constant tensor:
#      x y z
#    x 1.840160 0.000000 0.000000 
#    y 0.000000 1.840160 0.000000 
#    z 0.000000 0.000000 1.873180 
# 
# From -- ./inp_files/3375.got.cif
#   From: 2010.05.17/outbox.cif.g08.bks.cpg/sg88_2_cif.got.tgz:3375.got - 2010.06.03 19:11:41.
