data_PCOD9546548
_publ_section_title
;
Structure prediction by ZEFSAII (Michael W. Deem and Ramdas Pophale) SiO2 
 PCOD9546548
Probable space group: I 41/A
;
_chemical_formula_sum "Si O2"
_cell_formula_units_Z 72
_cell_length_a 11.795167
_cell_length_b 11.795167
_cell_length_c 21.314893
_cell_angle_alpha 90.000000
_cell_angle_beta 90.000000
_cell_angle_gamma 90.000000
_cell_volume 2965.455048
_symmetry_space_group_name_H-M "I 41/A"
_symmetry_group_IT_number 88
_space_group.IT_coordinate_system_code '2'
_symmetry_cell_setting 'tetragonal'
loop_
_space_group_symop_operation_xyz
x,y,z
3/4-y,1/4+x,1/4+z
-x,1/2-y,z
1/4+y,1/4-x,1/4+z
-x,-y,-z
1/4+y,3/4-x,3/4-z
x,1/2+y,-z
3/4-y,3/4+x,3/4-z
1/2+x,1/2+y,1/2+z
1/4-y,3/4+x,3/4+z
1/2-x,-y,1/2+z
3/4+y,3/4-x,3/4+z
1/2-x,1/2-y,1/2-z
3/4+y,1/4-x,1/4-z
1/2+x,y,1/2-z
1/4-y,1/4+x,1/4-z
loop_
_atom_site_type_symbol
_atom_site_label
_atom_site_fract_x
_atom_site_fract_y
_atom_site_fract_z
Si Si1 0.407382 0.119303 0.347579
Si Si2 0.743993 0.316268 0.507622
Si Si3 0.500000 0.250000 0.016251
Si Si4 0.311928 0.251091 0.630181
Si Si5 0.276851 0.516742 0.082224
O O1 0.372464 0.251639 0.344012
O O2 0.476852 0.058543 0.292263
O O3 0.295982 0.052516 0.366503
O O4 0.879847 0.283759 0.516845
O O5 0.659326 0.319033 0.567060
O O6 0.751442 0.442307 0.478803
O O7 0.529153 0.349781 0.066120
O O8 0.227353 0.162438 0.662049
O O9 0.265727 0.359281 0.595105
#
# Coordination Sequence:
#
# PCOD9546548 Si02
#       5
#    16  16   8  16  16
#     4   9  18  37  62  86 125 160 200 264 314 368
#     4  10  22  39  65  91 124 171 208 265 329 370
#     4  10  22  44  62  95 133 162 220 276 302 398
#     4  11  24  41  66  90 129 171 213 266 325 379
#     4  10  23  40  59  95 126 161 215 261 313 389
#
# _framework density 24.279578000000001
#
# number of rings (size 3 to 8) (size 9 to 14) (size 15 to 20)
#    0.000    2.000    2.222    0.000    3.111    5.778 
#    0.000    6.667    0.000    0.000    0.000    0.000 
#    0.000    0.000    0.000    0.000    0.000    0.000 
#
# Total GULP energy -200401.938118 kJ/mol
# GULP energy per Si atom -5566.720503 kJ/mol
# Density = 2.422432 g / cm^3
# Si number density = 24.279578 Si / 1000 Ang^3
#
#
#
# Elastic Constant Matrix: (Units=GPa)
#
#
# Indices 1 2 3 4 5 6 
#
# 1 89.8184 10.6031 -5.3955 0.0000 0.0000 13.1656
# 2 10.6031 89.8184 -5.3955 0.0000 0.0000 -13.1656
# 3 -5.3955 -5.3955 32.4150 0.0000 0.0000 0.0000
# 4 0.0000 0.0000 0.0000 -11.6433 0.0000 0.0000
# 5 0.0000 0.0000 0.0000 0.0000 -11.6433 0.0000
# 6 13.1656 -13.1656 0.0000 0.0000 0.0000 31.6553
#
#
#
# Elastic Compliance Matrix: (Units=1/GPa)
#
#
# Indices 1 2 3 4 5 6 
#
# 1 0.012394 -0.002255 0.001688 0.000000 0.000000 -0.006093
# 2 -0.002255 0.012394 0.001688 0.000000 0.000000 0.006093
# 3 0.001688 0.001688 0.031412 0.000000 0.000000 0.000000
# 4 0.000000 0.000000 0.000000 -0.085886 0.000000 0.000000
# 5 0.000000 0.000000 0.000000 0.000000 -0.085886 0.000000
# 6 -0.006093 0.006093 0.000000 0.000000 0.000000 0.036658
#
#
# Mechanical properties :
#
#
# Convention : Reuss Voigt Hill
#
# Bulk Modulus (GPa) = 17.11119 23.51957 20.31538
# Shear Modulus (GPa) = -81.07031 15.82304 -32.62364
#
# Velocity S-wave (km/s) = -5.78471 2.55561 -3.66958
# Velocity P-wave (km/s) = 6.12815 4.29141 3.09338
#
# Compressibility (1/GPa) = 0.05844130
#
# Stress axis : x y z
#
# Youngs Moduli (GPa) = 80.68302 80.68302 31.83523
#
# Poissons Ratio (x) = 0.18192 -0.05373
# Poissons Ratio (y) = 0.18192 -0.05373
# Poissons Ratio (z) = -0.13617 -0.13617
#
# Static dielectric constant tensor:
#      x y z
#    x 2.063980 0.000000 0.000000 
#    y 0.000000 2.063980 0.000000 
#    z 0.000000 0.000000 2.062060 
# 
# From -- ./inp_files/5703.got.cif
#   From: 2010.05.17/outbox.cif.g08.bks.cpg/sg88_3_cif.got.tgz:5703.got - 2010.06.03 19:11:41.
