data_PCOD9546446
_publ_section_title
;
Structure prediction by ZEFSAII (Michael W. Deem and Ramdas Pophale) SiO2 
 PCOD9546446
Probable space group: I 41/A
;
_chemical_formula_sum "Si O2"
_cell_formula_units_Z 68
_cell_length_a 16.120119
_cell_length_b 16.120119
_cell_length_c 10.084643
_cell_angle_alpha 90.000000
_cell_angle_beta 90.000000
_cell_angle_gamma 90.000000
_cell_volume 2620.577546
_symmetry_space_group_name_H-M "I 41/A"
_symmetry_group_IT_number 88
_space_group.IT_coordinate_system_code '2'
_symmetry_cell_setting 'tetragonal'
loop_
_space_group_symop_operation_xyz
x,y,z
3/4-y,1/4+x,1/4+z
-x,1/2-y,z
1/4+y,1/4-x,1/4+z
-x,-y,-z
1/4+y,3/4-x,3/4-z
x,1/2+y,-z
3/4-y,3/4+x,3/4-z
1/2+x,1/2+y,1/2+z
1/4-y,3/4+x,3/4+z
1/2-x,-y,1/2+z
3/4+y,3/4-x,3/4+z
1/2-x,1/2-y,1/2-z
3/4+y,1/4-x,1/4-z
1/2+x,y,1/2-z
1/4-y,1/4+x,1/4-z
loop_
_atom_site_type_symbol
_atom_site_label
_atom_site_fract_x
_atom_site_fract_y
_atom_site_fract_z
Si Si1 0.000000 0.250000 0.125000
Si Si2 0.637270 0.729244 0.145054
Si Si3 0.722896 0.442645 0.288757
Si Si4 0.064653 0.362460 0.314200
Si Si5 0.965948 0.059341 0.882534
O O1 0.993287 0.331872 0.215581
O O2 0.567800 0.660192 0.104062
O O3 0.656491 0.708561 0.298518
O O4 0.705137 0.726398 0.026682
O O5 0.722343 0.515188 0.391348
O O6 0.631043 0.405966 0.280135
O O7 0.795518 0.380829 0.336702
O O8 0.109898 0.274870 0.354459
O O9 0.000000 0.000000 0.000000
#
# Coordination Sequence:
#
# PCOD9546446 Si02
#       5
#     4  16  16  16  16
#     4  12  20  36  70  96 124 160 204 282 360 376
#     4   9  17  33  60  95 124 154 200 268 328 380
#     4  11  25  41  60  84 126 177 218 255 308 386
#     4  10  21  37  63  94 124 159 213 270 325 386
#     4   9  19  38  61  87 124 163 208 264 323 381
#
# _framework density 25.94848
#
# number of rings (size 3 to 8) (size 9 to 14) (size 15 to 20)
#    0.000    2.118    0.000    4.235    3.294    0.000 
#    0.000    0.000    0.000   12.706    0.000    0.000 
#    0.000    0.000    0.000    0.000    0.000    0.000 
#
# Total GULP energy -189690.337952 kJ/mol
# GULP energy per Si atom -5579.127587 kJ/mol
# Density = 2.588942 g / cm^3
# Si number density = 25.948480 Si / 1000 Ang^3
#
#
#
# Elastic Constant Matrix: (Units=GPa)
#
#
# Indices 1 2 3 4 5 6 
#
# 1 36.9128 7.6107 42.2683 0.0000 0.0000 0.5008
# 2 7.6107 36.9128 42.2683 0.0000 0.0000 -0.5008
# 3 42.2683 42.2683 226.9407 0.0000 0.0000 0.0000
# 4 0.0000 0.0000 0.0000 43.2872 0.0000 0.0000
# 5 0.0000 0.0000 0.0000 0.0000 43.2872 0.0000
# 6 0.5008 -0.5008 0.0000 0.0000 0.0000 1.8881
#
#
#
# Elastic Compliance Matrix: (Units=1/GPa)
#
#
# Indices 1 2 3 4 5 6 
#
# 1 0.034594 0.000154 -0.006472 0.000000 0.000000 -0.009135
# 2 0.000154 0.034594 -0.006472 0.000000 0.000000 0.009135
# 3 -0.006472 -0.006472 0.006817 0.000000 0.000000 0.000000
# 4 0.000000 0.000000 0.000000 0.023102 0.000000 0.000000
# 5 0.000000 0.000000 0.000000 0.000000 0.023102 0.000000
# 6 -0.009135 0.009135 0.000000 0.000000 0.000000 0.534466
#
#
# Mechanical properties :
#
#
# Convention : Reuss Voigt Hill
#
# Bulk Modulus (GPa) = 19.83100 53.89564 36.86332
# Shear Modulus (GPa) = 7.15245 31.60044 19.37644
#
# Velocity S-wave (km/s) = 1.66204 3.49351 2.73560
# Velocity P-wave (km/s) = 3.36782 6.09000 4.92089
#
# Compressibility (1/GPa) = 0.05042609
#
# Stress axis : x y z
#
# Youngs Moduli (GPa) = 28.90681 28.90681 146.68610
#
# Poissons Ratio (x) = -0.00446 0.94935
# Poissons Ratio (y) = -0.00446 0.94935
# Poissons Ratio (z) = 0.18708 0.18708
#
# Static dielectric constant tensor:
#      x y z
#    x 2.096040 0.000000 0.000000 
#    y 0.000000 2.096040 0.000000 
#    z 0.000000 0.000000 2.147990 
# 
# From -- ./inp_files/1487.got.cif
#   From: 2010.05.17/outbox.cif.g08.bks.cpg/sg88_1_cif.got.tgz:1487.got - 2010.06.03 19:11:41.
