data_PCOD9546111
_publ_section_title
;
Structure prediction by ZEFSAII (Michael W. Deem and Ramdas Pophale) SiO2 
 PCOD9546111
Probable space group: I 4/M
;
_chemical_formula_sum "Si O2"
_cell_formula_units_Z 48
_cell_length_a 17.108047
_cell_length_b 17.108047
_cell_length_c 8.668692
_cell_angle_alpha 90.000000
_cell_angle_beta 90.000000
_cell_angle_gamma 90.000000
_cell_volume 2537.198477
_symmetry_space_group_name_H-M "I 4/M"
_symmetry_group_IT_number 87
_symmetry_cell_setting 'tetragonal'
loop_
_space_group_symop_operation_xyz
x,y,z
-y,x,z
-x,-y,z
y,-x,z
-x,-y,-z
y,-x,-z
x,y,-z
-y,x,-z
1/2+x,1/2+y,1/2+z
1/2-y,1/2+x,1/2+z
1/2-x,1/2-y,1/2+z
1/2+y,1/2-x,1/2+z
1/2-x,1/2-y,1/2-z
1/2+y,1/2-x,1/2-z
1/2+x,1/2+y,1/2-z
1/2-y,1/2+x,1/2-z
loop_
_atom_site_type_symbol
_atom_site_label
_atom_site_fract_x
_atom_site_fract_y
_atom_site_fract_z
Si Si1 0.926772 0.893664 0.815289
Si Si2 0.898901 0.432643 0.315414
Si Si3 0.246704 0.662853 0.183203
O O1 0.881624 0.826485 0.726551
O O2 0.019423 0.894935 0.780629
O O3 0.918469 0.881503 0.000000
O O4 0.902269 0.435318 0.500000
O O5 0.896223 0.520728 0.249610
O O6 0.825085 0.383618 0.259141
O O7 0.250000 0.750000 0.250000
O O8 0.236239 0.665373 0.000000
#
# Coordination Sequence:
#
# PCOD9546111 Si02
#       3
#    16  16  16
#     4   9  20  41  67  93 125 165 207 255 317 378
#     4  11  23  43  68  95 127 166 210 259 318 378
#     4  12  26  42  63  93 129 168 213 263 315 371
#
# _framework density 18.918503999999999
#
# number of rings (size 3 to 8) (size 9 to 14) (size 15 to 20)
#    0.000    1.333    0.000    8.000    4.667    1.333 
#    0.000    1.667    0.000    0.000    0.000    0.000 
#    0.000    0.000    0.000    0.000    0.000    0.000 
#
# Total GULP energy -134262.717016 kJ/mol
# GULP energy per Si atom -5594.279876 kJ/mol
# Density = 1.887544 g / cm^3
# Si number density = 18.918504 Si / 1000 Ang^3
#
#
#
# Elastic Constant Matrix: (Units=GPa)
#
#
# Indices 1 2 3 4 5 6 
#
# 1 106.7972 91.7899 79.1475 0.0000 0.0000 3.1084
# 2 91.7899 106.7972 79.1475 0.0000 0.0000 -3.1084
# 3 79.1475 79.1475 181.3914 0.0000 0.0000 0.0000
# 4 0.0000 0.0000 0.0000 39.1948 0.0000 0.0000
# 5 0.0000 0.0000 0.0000 0.0000 39.1948 0.0000
# 6 3.1084 -3.1084 0.0000 0.0000 0.0000 24.3297
#
#
#
# Elastic Compliance Matrix: (Units=1/GPa)
#
#
# Indices 1 2 3 4 5 6 
#
# 1 0.039039 -0.031319 -0.003369 0.000000 0.000000 -0.008989
# 2 -0.031319 0.039039 -0.003369 0.000000 0.000000 0.008989
# 3 -0.003369 -0.003369 0.008453 0.000000 0.000000 0.000000
# 4 0.000000 0.000000 0.000000 0.025514 0.000000 0.000000
# 5 0.000000 0.000000 0.000000 0.000000 0.025514 0.000000
# 6 -0.008989 0.008989 0.000000 0.000000 0.000000 0.043399
#
#
# Mechanical properties :
#
#
# Convention : Reuss Voigt Hill
#
# Bulk Modulus (GPa) = 95.97742 99.46176 97.71959
# Shear Modulus (GPa) = 19.19063 30.20392 24.69728
#
# Velocity S-wave (km/s) = 3.18840 3.99999 3.61703
# Velocity P-wave (km/s) = 8.02475 8.60356 8.31919
#
# Compressibility (1/GPa) = 0.01041912
#
# Stress axis : x y z
#
# Youngs Moduli (GPa) = 25.61509 25.61509 118.30242
#
# Poissons Ratio (x) = 0.80223 0.39855
# Poissons Ratio (y) = 0.80223 0.39855
# Poissons Ratio (z) = 0.08630 0.08630
#
# Static dielectric constant tensor:
#      x y z
#    x 1.626950 0.000000 0.000000 
#    y 0.000000 1.626950 0.000000 
#    z 0.000000 0.000000 1.634040 
# 
# From -- ./inp_files/556.got.cif
#   From: 2010.05.17/outbox.cif.g08.bks.cpg/sg87_1_cif.got.tgz:556.got - 2010.06.03 19:07:00.
