data_PCOD9546206
_publ_section_title
;
Structure prediction by ZEFSAII (Michael W. Deem and Ramdas Pophale) SiO2 
 PCOD9546206
Probable space group: I 41/A
;
_chemical_formula_sum "Si O2"
_cell_formula_units_Z 128
_cell_length_a 17.484979
_cell_length_b 17.484979
_cell_length_c 25.999315
_cell_angle_alpha 90.000000
_cell_angle_beta 90.000000
_cell_angle_gamma 90.000000
_cell_volume 7948.627335
_symmetry_space_group_name_H-M "I 41/A"
_symmetry_group_IT_number 88
_space_group.IT_coordinate_system_code '2'
_symmetry_cell_setting 'tetragonal'
loop_
_space_group_symop_operation_xyz
x,y,z
3/4-y,1/4+x,1/4+z
-x,1/2-y,z
1/4+y,1/4-x,1/4+z
-x,-y,-z
1/4+y,3/4-x,3/4-z
x,1/2+y,-z
3/4-y,3/4+x,3/4-z
1/2+x,1/2+y,1/2+z
1/4-y,3/4+x,3/4+z
1/2-x,-y,1/2+z
3/4+y,3/4-x,3/4+z
1/2-x,1/2-y,1/2-z
3/4+y,1/4-x,1/4-z
1/2+x,y,1/2-z
1/4-y,1/4+x,1/4-z
loop_
_atom_site_type_symbol
_atom_site_label
_atom_site_fract_x
_atom_site_fract_y
_atom_site_fract_z
Si Si1 0.387804 0.723066 0.748743
Si Si2 0.800447 0.923878 0.634991
Si Si3 0.245225 0.498138 0.536890
Si Si4 0.652297 0.227884 0.446928
Si Si5 0.162965 0.519360 0.188426
Si Si6 0.382567 0.906037 0.764899
Si Si7 0.784302 0.228370 0.156108
Si Si8 0.883826 0.920552 0.089561
O O1 0.453216 0.681110 0.716068
O O2 0.383464 0.813804 0.757463
O O3 0.315311 0.704190 0.711789
O O4 0.387661 0.680012 0.803611
O O5 0.808130 0.960541 0.578822
O O6 0.728163 0.970533 0.658600
O O7 0.869931 0.926762 0.675342
O O8 0.773453 0.835672 0.635224
O O9 0.204765 0.453342 0.490700
O O10 0.302258 0.562447 0.513721
O O11 0.303091 0.438278 0.563380
O O12 0.709493 0.155678 0.448259
O O13 0.682686 0.291154 0.486479
O O14 0.653286 0.261041 0.388926
O O15 0.132756 0.585505 0.150251
O O16 0.744098 0.309933 0.162803
#
# Coordination Sequence:
#
# PCOD9546206 Si02
#       8
#    16  16  16  16  16  16  16  16
#     4  12  20  30  40  58  91 130 160 197 225 261
#     4  10  18  31  48  61  81 121 158 197 227 263
#     4  10  17  32  47  62  83 111 159 203 225 267
#     4  11  22  30  39  61  93 124 158 196 227 263
#     4   9  19  30  46  65  84 112 156 193 234 266
#     4  11  21  30  41  63  90 120 159 195 233 267
#     4  11  19  29  42  58  83 126 169 195 222 251
#     4  10  18  29  46  59  83 121 155 193 236 265
#
# _framework density 16.103408999999999
#
# number of rings (size 3 to 8) (size 9 to 14) (size 15 to 20)
#    0.000    1.500    6.250    1.500    1.750    0.000 
#    0.000    0.000    0.000    0.000    0.000    0.875 
#    0.000    0.000    0.000    0.000    0.000    0.000 
#
# Total GULP energy -356339.498437 kJ/mol
# GULP energy per Si atom -5567.804663 kJ/mol
# Density = 1.606676 g / cm^3
# Si number density = 16.103409 Si / 1000 Ang^3
#
#
#
# Elastic Constant Matrix: (Units=GPa)
#
#
# Indices 1 2 3 4 5 6 
#
# 1 18.3208 0.6042 20.9233 0.0000 0.0000 -2.3490
# 2 0.6042 18.3208 20.9232 0.0000 0.0000 2.3490
# 3 20.9233 20.9232 106.5025 0.0000 0.0000 0.0000
# 4 0.0000 0.0000 0.0000 24.1950 0.0000 0.0000
# 5 0.0000 0.0000 0.0000 0.0000 24.1950 0.0000
# 6 -2.3490 2.3490 0.0000 0.0000 0.0000 12.8752
#
#
#
# Elastic Compliance Matrix: (Units=1/GPa)
#
#
# Indices 1 2 3 4 5 6 
#
# 1 0.076369 0.017055 -0.018354 0.000000 0.000000 0.010821
# 2 0.017055 0.076369 -0.018354 0.000000 0.000000 -0.010821
# 3 -0.018354 -0.018354 0.016601 0.000000 0.000000 0.000000
# 4 0.000000 0.000000 0.000000 0.041331 0.000000 0.000000
# 5 0.000000 0.000000 0.000000 0.000000 0.041331 0.000000
# 6 0.010821 -0.010821 0.000000 0.000000 0.000000 0.081617
#
#
# Mechanical properties :
#
#
# Convention : Reuss Voigt Hill
#
# Bulk Modulus (GPa) = 7.69035 25.33838 16.51437
# Shear Modulus (GPa) = 12.01152 18.96595 15.48873
#
# Velocity S-wave (km/s) = 2.73408 3.43557 3.10470
# Velocity P-wave (km/s) = 3.84095 5.61307 4.80933
#
# Compressibility (1/GPa) = 0.13003310
#
# Stress axis : x y z
#
# Youngs Moduli (GPa) = 13.09435 13.09435 60.23748
#
# Poissons Ratio (x) = -0.22332 1.10559
# Poissons Ratio (y) = -0.22332 1.10559
# Poissons Ratio (z) = 0.24033 0.24033
#
# Static dielectric constant tensor:
#      x y z
#    x 1.555000 0.000000 0.000000 
#    y 0.000000 1.555000 0.000000 
#    z 0.000000 0.000000 1.610590 
# 
# From -- ./inp_files/5444.got.cif
#   From: 2010.05.17/outbox.cif.g08.bks.cpg/sg88_3_cif.got.tgz:5444.got - 2010.06.03 19:11:41.
