data_PCOD9546858
_publ_section_title
;
Structure prediction by ZEFSAII (Michael W. Deem and Ramdas Pophale) SiO2 
 PCOD9546858
Probable space group: I 41/A
;
_chemical_formula_sum "Si O2"
_cell_formula_units_Z 56
_cell_length_a 10.425511
_cell_length_b 10.425511
_cell_length_c 21.517348
_cell_angle_alpha 90.000000
_cell_angle_beta 90.000000
_cell_angle_gamma 90.000000
_cell_volume 2338.748088
_symmetry_space_group_name_H-M "I 41/A"
_symmetry_group_IT_number 88
_space_group.IT_coordinate_system_code '2'
_symmetry_cell_setting 'tetragonal'
loop_
_space_group_symop_operation_xyz
x,y,z
3/4-y,1/4+x,1/4+z
-x,1/2-y,z
1/4+y,1/4-x,1/4+z
-x,-y,-z
1/4+y,3/4-x,3/4-z
x,1/2+y,-z
3/4-y,3/4+x,3/4-z
1/2+x,1/2+y,1/2+z
1/4-y,3/4+x,3/4+z
1/2-x,-y,1/2+z
3/4+y,3/4-x,3/4+z
1/2-x,1/2-y,1/2-z
3/4+y,1/4-x,1/4-z
1/2+x,y,1/2-z
1/4-y,1/4+x,1/4-z
loop_
_atom_site_type_symbol
_atom_site_label
_atom_site_fract_x
_atom_site_fract_y
_atom_site_fract_z
Si Si1 0.261272 0.790385 0.320806
Si Si2 0.000000 0.750000 0.375000
Si Si3 0.856556 0.696217 0.056391
Si Si4 0.195101 0.095650 0.039074
Si Si5 0.500000 0.750000 0.625000
O O1 0.250000 0.750000 0.250000
O O2 0.320014 0.693084 0.370749
O O3 0.113703 0.813575 0.337441
O O4 0.339946 0.921116 0.325575
O O5 0.839546 0.554516 0.026702
O O6 0.000000 0.750000 0.051865
O O7 0.782399 0.810598 0.019906
O O8 0.086395 0.159459 0.081487
#
# Coordination Sequence:
#
# PCOD9546858 Si02
#       5
#    16   4  16  16   4
#     4  12  28  48  81 113 157 213 269 334 407 487
#     4  12  24  56  70 120 160 204 268 338 408 492
#     4  12  27  50  76 115 153 209 265 331 410 479
#     4  12  28  49  82 112 166 203 273 334 412 487
#     4  12  28  52  78 124 160 212 268 346 412 504
#
# _framework density 23.944433
#
# number of rings (size 3 to 8) (size 9 to 14) (size 15 to 20)
#    0.000    0.000    4.286    4.286    6.000    0.000 
#    0.000    0.000    0.000    0.000    0.000    0.000 
#    0.000    0.000    0.000    0.000    0.000    0.000 
#
# Total GULP energy -156683.521686 kJ/mol
# GULP energy per Si atom -5595.840060 kJ/mol
# Density = 2.388993 g / cm^3
# Si number density = 23.944433 Si / 1000 Ang^3
#
#
#
# Elastic Constant Matrix: (Units=GPa)
#
#
# Indices 1 2 3 4 5 6 
#
# 1 126.0504 22.5105 43.9193 0.0000 0.0000 -5.2938
# 2 22.5105 126.0504 43.9193 0.0000 0.0000 5.2938
# 3 43.9193 43.9193 126.2319 0.0000 0.0000 0.0000
# 4 0.0000 0.0000 0.0000 35.0151 0.0000 0.0000
# 5 0.0000 0.0000 0.0000 0.0000 35.0151 0.0000
# 6 -5.2938 5.2938 0.0000 0.0000 0.0000 50.6146
#
#
#
# Elastic Compliance Matrix: (Units=1/GPa)
#
#
# Indices 1 2 3 4 5 6 
#
# 1 0.009119 -0.000644 -0.002949 0.000000 0.000000 0.001021
# 2 -0.000644 0.009119 -0.002949 0.000000 0.000000 -0.001021
# 3 -0.002949 -0.002949 0.009974 0.000000 0.000000 0.000000
# 4 0.000000 0.000000 0.000000 0.028559 0.000000 0.000000
# 5 0.000000 0.000000 0.000000 0.000000 0.028559 0.000000
# 6 0.001021 -0.001021 0.000000 0.000000 0.000000 0.019971
#
#
# Mechanical properties :
#
#
# Convention : Reuss Voigt Hill
#
# Bulk Modulus (GPa) = 66.09931 66.55899 66.32915
# Shear Modulus (GPa) = 40.51051 41.99452 41.25252
#
# Velocity S-wave (km/s) = 4.11768 4.19242 4.15522
# Velocity P-wave (km/s) = 7.09029 7.16190 7.12619
#
# Compressibility (1/GPa) = 0.01512875
#
# Stress axis : x y z
#
# Youngs Moduli (GPa) = 109.66636 109.66636 100.26404
#
# Poissons Ratio (x) = 0.07062 0.29563
# Poissons Ratio (y) = 0.07062 0.29563
# Poissons Ratio (z) = 0.32335 0.32335
#
# Static dielectric constant tensor:
#      x y z
#    x 1.657450 0.000000 0.000000 
#    y 0.000000 1.657450 0.000000 
#    z 0.000000 0.000000 1.861740 
# 
# From -- ./inp_files/4355.got.cif
#   From: 2010.05.17/outbox.cif.g08.bks.cpg/sg88_3_cif.got.tgz:4355.got - 2010.06.03 19:11:41.
