data_PCOD9546637
_publ_section_title
;
Structure prediction by ZEFSAII (Michael W. Deem and Ramdas Pophale) SiO2 
 PCOD9546637
Probable space group: I 41/A
;
_chemical_formula_sum "Si O2"
_cell_formula_units_Z 88
_cell_length_a 14.098689
_cell_length_b 14.098689
_cell_length_c 18.984332
_cell_angle_alpha 90.000000
_cell_angle_beta 90.000000
_cell_angle_gamma 90.000000
_cell_volume 3773.573223
_symmetry_space_group_name_H-M "I 41/A"
_symmetry_group_IT_number 88
_space_group.IT_coordinate_system_code '2'
_symmetry_cell_setting 'tetragonal'
loop_
_space_group_symop_operation_xyz
x,y,z
3/4-y,1/4+x,1/4+z
-x,1/2-y,z
1/4+y,1/4-x,1/4+z
-x,-y,-z
1/4+y,3/4-x,3/4-z
x,1/2+y,-z
3/4-y,3/4+x,3/4-z
1/2+x,1/2+y,1/2+z
1/4-y,3/4+x,3/4+z
1/2-x,-y,1/2+z
3/4+y,3/4-x,3/4+z
1/2-x,1/2-y,1/2-z
3/4+y,1/4-x,1/4-z
1/2+x,y,1/2-z
1/4-y,1/4+x,1/4-z
loop_
_atom_site_type_symbol
_atom_site_label
_atom_site_fract_x
_atom_site_fract_y
_atom_site_fract_z
Si Si1 0.318471 0.138148 0.175139
Si Si2 0.218408 0.003027 0.789528
Si Si3 0.876363 0.152006 0.708696
Si Si4 0.000000 0.750000 0.707397
Si Si5 0.632319 0.233622 0.335013
Si Si6 0.592487 0.143013 0.789605
O O1 0.281806 0.058271 0.119642
O O2 0.429203 0.172917 0.169094
O O3 0.244269 0.222857 0.161388
O O4 0.288082 0.099306 0.252634
O O5 0.312839 0.063000 0.770851
O O6 0.136028 0.054159 0.746816
O O7 0.882242 0.153954 0.623650
O O8 0.852617 0.260199 0.729907
O O9 0.983963 0.144546 0.733766
O O10 0.080592 0.709017 0.760803
O O11 0.583734 0.158920 0.388751
#
# Coordination Sequence:
#
# PCOD9546637 Si02
#       6
#    16  16  16   8  16  16
#     4  12  26  42  68 104 140 185 242 299 364 435
#     4  12  23  41  63 101 139 180 241 296 351 433
#     4   9  19  38  64  90 133 181 227 285 353 426
#     4  10  23  44  66  94 134 177 230 294 360 428
#     4   9  20  45  73  99 136 183 228 294 362 433
#     4   9  19  39  62  91 130 181 227 283 358 421
#
# _framework density 23.320072
#
# number of rings (size 3 to 8) (size 9 to 14) (size 15 to 20)
#    0.000    2.000    1.818    4.364    0.000    4.364 
#    0.000    1.818    0.000    0.000    0.000    0.000 
#    0.000    0.000    0.000    0.000    0.000    0.000 
#
# Total GULP energy -244971.392582 kJ/mol
# GULP energy per Si atom -5567.531650 kJ/mol
# Density = 2.326699 g / cm^3
# Si number density = 23.320072 Si / 1000 Ang^3
#
#
#
# Elastic Constant Matrix: (Units=GPa)
#
#
# Indices 1 2 3 4 5 6 
#
# 1 97.7563 30.0905 11.9228 0.0000 0.0000 2.9159
# 2 30.0905 97.7563 11.9228 0.0000 0.0000 -2.9159
# 3 11.9228 11.9228 56.5953 0.0000 0.0000 0.0000
# 4 0.0000 0.0000 0.0000 9.4643 0.0000 0.0000
# 5 0.0000 0.0000 0.0000 0.0000 9.4643 0.0000
# 6 2.9159 -2.9159 0.0000 0.0000 0.0000 28.2566
#
#
#
# Elastic Compliance Matrix: (Units=1/GPa)
#
#
# Indices 1 2 3 4 5 6 
#
# 1 0.011526 -0.003385 -0.001715 0.000000 0.000000 -0.001539
# 2 -0.003385 0.011526 -0.001715 0.000000 0.000000 0.001539
# 3 -0.001715 -0.001715 0.018392 0.000000 0.000000 0.000000
# 4 0.000000 0.000000 0.000000 0.105660 0.000000 0.000000
# 5 0.000000 0.000000 0.000000 0.000000 0.105660 0.000000
# 6 -0.001539 0.001539 0.000000 0.000000 0.000000 0.035707
#
#
# Mechanical properties :
#
#
# Convention : Reuss Voigt Hill
#
# Bulk Modulus (GPa) = 35.95218 39.99778 37.97498
# Shear Modulus (GPa) = 16.05786 22.64852 19.35319
#
# Velocity S-wave (km/s) = 2.62694 3.11979 2.88391
# Velocity P-wave (km/s) = 4.96502 5.49239 5.23535
#
# Compressibility (1/GPa) = 0.02781472
#
# Stress axis : x y z
#
# Youngs Moduli (GPa) = 86.75698 86.75698 54.37148
#
# Poissons Ratio (x) = 0.29364 0.09326
# Poissons Ratio (y) = 0.29364 0.09326
# Poissons Ratio (z) = 0.14881 0.14881
#
# Static dielectric constant tensor:
#      x y z
#    x 1.952360 0.000000 0.000000 
#    y 0.000000 1.952360 0.000000 
#    z 0.000000 0.000000 2.006120 
# 
# From -- ./inp_files/4623.got.cif
#   From: 2010.05.17/outbox.cif.g08.bks.cpg/sg88_3_cif.got.tgz:4623.got - 2010.06.03 19:11:41.
