data_PCOD9546058
_publ_section_title
;
Structure prediction by ZEFSAII (Michael W. Deem and Ramdas Pophale) SiO2 
 PCOD9546058
Probable space group: I 4/M
;
_chemical_formula_sum "Si O2"
_cell_formula_units_Z 88
_cell_length_a 13.875493
_cell_length_b 13.875493
_cell_length_c 26.594321
_cell_angle_alpha 90.000000
_cell_angle_beta 90.000000
_cell_angle_gamma 90.000000
_cell_volume 5120.186165
_symmetry_space_group_name_H-M "I 4/M"
_symmetry_group_IT_number 87
_symmetry_cell_setting 'tetragonal'
loop_
_space_group_symop_operation_xyz
x,y,z
-y,x,z
-x,-y,z
y,-x,z
-x,-y,-z
y,-x,-z
x,y,-z
-y,x,-z
1/2+x,1/2+y,1/2+z
1/2-y,1/2+x,1/2+z
1/2-x,1/2-y,1/2+z
1/2+y,1/2-x,1/2+z
1/2-x,1/2-y,1/2-z
1/2+y,1/2-x,1/2-z
1/2+x,1/2+y,1/2-z
1/2-y,1/2+x,1/2-z
loop_
_atom_site_type_symbol
_atom_site_label
_atom_site_fract_x
_atom_site_fract_y
_atom_site_fract_z
Si Si1 0.658772 0.548447 0.500000
Si Si2 0.115483 0.103833 0.734177
Si Si3 0.586478 0.248813 0.393583
Si Si4 0.820243 0.611216 0.214084
Si Si5 0.393668 0.296305 0.338080
Si Si6 0.072486 0.408644 0.679149
O O1 0.561855 0.616323 0.500000
O O2 0.725975 0.569816 0.451712
O O3 0.211891 0.153185 0.714491
O O4 0.113762 0.126340 0.793450
O O5 0.007560 0.129530 0.719997
O O6 0.493487 0.297544 0.367194
O O7 0.680418 0.306444 0.375212
O O8 0.592441 0.141114 0.369777
O O9 0.884148 0.691962 0.187482
O O10 0.859556 0.595018 0.270995
O O11 0.826352 0.508590 0.185958
O O12 0.000000 0.500000 0.680847
#
# Coordination Sequence:
#
# PCOD9546058 Si02
#       6
#     8  16  16  16  16  16
#     4  11  24  42  63  86 116 146 184 243 300 351
#     4  11  22  33  49  80 119 155 190 234 278 330
#     4  12  24  39  60  85 110 150 190 241 289 341
#     4  12  22  36  54  83 118 161 192 228 274 346
#     4  12  22  35  57  82 117 152 194 227 283 344
#     4  12  21  37  55  79 117 156 196 225 267 340
#
# _framework density 17.186875000000001
#
# number of rings (size 3 to 8) (size 9 to 14) (size 15 to 20)
#    0.000    0.273    9.091    1.636    2.545    0.364 
#    0.000    0.455    0.000    0.000    0.000    0.000 
#    0.000    0.000    0.000    1.636    0.000    0.000 
#
# Total GULP energy -245245.840251 kJ/mol
# GULP energy per Si atom -5573.769097 kJ/mol
# Density = 1.714776 g / cm^3
# Si number density = 17.186875 Si / 1000 Ang^3
#
#
#
# Elastic Constant Matrix: (Units=GPa)
#
#
# Indices 1 2 3 4 5 6 
#
# 1 67.9879 31.4321 37.7151 0.0000 0.0000 2.3129
# 2 31.4321 67.9879 37.7151 0.0000 0.0000 -2.3129
# 3 37.7151 37.7151 98.8151 0.0000 0.0000 0.0000
# 4 0.0000 0.0000 0.0000 16.7430 0.0000 0.0000
# 5 0.0000 0.0000 0.0000 0.0000 16.7430 0.0000
# 6 2.3129 -2.3129 0.0000 0.0000 0.0000 19.3493
#
#
#
# Elastic Compliance Matrix: (Units=1/GPa)
#
#
# Indices 1 2 3 4 5 6 
#
# 1 0.020967 -0.006809 -0.005404 0.000000 0.000000 -0.003320
# 2 -0.006809 0.020967 -0.005404 0.000000 0.000000 0.003320
# 3 -0.005404 -0.005404 0.014245 0.000000 0.000000 0.000000
# 4 0.000000 0.000000 0.000000 0.059726 0.000000 0.000000
# 5 0.000000 0.000000 0.000000 0.000000 0.059726 0.000000
# 6 -0.003320 0.003320 0.000000 0.000000 0.000000 0.052475
#
#
# Mechanical properties :
#
#
# Convention : Reuss Voigt Hill
#
# Bulk Modulus (GPa) = 47.74164 49.83505 48.78835
# Shear Modulus (GPa) = 18.49652 19.09566 18.79609
#
# Velocity S-wave (km/s) = 3.28411 3.33687 3.31060
# Velocity P-wave (km/s) = 6.49760 6.62610 6.56216
#
# Compressibility (1/GPa) = 0.02094608
#
# Stress axis : x y z
#
# Youngs Moduli (GPa) = 47.69420 47.69420 70.20067
#
# Poissons Ratio (x) = 0.32474 0.37935
# Poissons Ratio (y) = 0.32474 0.37935
# Poissons Ratio (z) = 0.25773 0.25773
#
# Static dielectric constant tensor:
#      x y z
#    x 1.632840 0.000000 0.000000 
#    y 0.000000 1.632840 0.000000 
#    z 0.000000 0.000000 1.555400 
# 
# From -- ./inp_files/5185.got.cif
#   From: 2010.05.17/outbox.cif.g08.bks.cpg/sg87_3_cif.got.tgz:5185.got - 2010.06.03 19:07:00.
