data_PCOD9546888
_publ_section_title
;
Structure prediction by ZEFSAII (Michael W. Deem and Ramdas Pophale) SiO2 
 PCOD9546888
Probable space group: I 41/A
;
_chemical_formula_sum "Si O2"
_cell_formula_units_Z 48
_cell_length_a 15.000000
_cell_length_b 15.000000
_cell_length_c 21.000000
_cell_angle_alpha 90.000000
_cell_angle_beta 90.000000
_cell_angle_gamma 90.000000
_cell_volume 4725.000000
_symmetry_space_group_name_H-M "I 41/A"
_symmetry_group_IT_number 88
_space_group.IT_coordinate_system_code '2'
_symmetry_cell_setting 'tetragonal'
loop_
_space_group_symop_operation_xyz
x,y,z
3/4-y,1/4+x,1/4+z
-x,1/2-y,z
1/4+y,1/4-x,1/4+z
-x,-y,-z
1/4+y,3/4-x,3/4-z
x,1/2+y,-z
3/4-y,3/4+x,3/4-z
1/2+x,1/2+y,1/2+z
1/4-y,3/4+x,3/4+z
1/2-x,-y,1/2+z
3/4+y,3/4-x,3/4+z
1/2-x,1/2-y,1/2-z
3/4+y,1/4-x,1/4-z
1/2+x,y,1/2-z
1/4-y,1/4+x,1/4-z
loop_
_atom_site_type_symbol
_atom_site_label
_atom_site_fract_x
_atom_site_fract_y
_atom_site_fract_z
Si Si1 0.890013 0.878585 0.778906
Si Si2 0.250342 0.280992 0.824957
Si Si3 0.717685 0.022973 0.469418
Si Si4 0.214798 0.279753 0.149977
Si Si5 0.565987 0.328496 0.609595
Si Si6 0.784151 0.096511 0.602076
O O1 0.824015 0.955466 0.752652
O O2 0.827973 0.802411 0.811672
O O3 0.955847 0.915519 0.832643
O O4 0.934966 0.841582 0.714896
O O5 0.250000 0.250000 0.750000
O O6 0.153960 0.319432 0.846953
O O7 0.316971 0.362952 0.840795
O O8 0.272552 0.195264 0.868989
O O9 0.621083 0.047746 0.440432
O O10 0.743509 0.083953 0.530376
O O11 0.782829 0.011111 0.407627
O O12 0.321589 0.274563 0.138181
O O13 0.500000 0.250000 0.629119
#
# Coordination Sequence:
#
# PCOD9546888 Si02
#       6
#    16  16  16  16  16  16
#     4  11  24  42  71 103 148 181 229 292 368 444
#     4  12  27  49  73 107 144 192 253 304 370 435
#     4  11  21  46  70 100 137 192 239 288 369 433
#     4  11  25  43  73 107 145 182 235 293 367 447
#     4  11  26  47  71 104 145 184 242 298 353 430
#     4  12  25  47  76 101 145 195 248 307 364 439
#
# _framework density 10.15873
#
# number of rings (size 3 to 8) (size 9 to 14) (size 15 to 20)
#    0.000    0.667    6.667    2.000    7.000    0.333 
#    6.000    0.000    0.000    0.000    0.000    0.000 
#    0.000    0.000    0.000    0.000    0.000    0.000 
#
# Total GULP energy -268460.778535 kJ/mol
# GULP energy per Si atom -5592.932886 kJ/mol
# Density = 1.013561 g / cm^3
# Si number density = 10.158730 Si / 1000 Ang^3
#
#
#
# Elastic Constant Matrix: (Units=GPa)
#
#
# Indices 1 2 3 4 5 6 
#
# 1 73.7520 20.5112 14.9357 0.0000 0.0000 -0.7399
# 2 20.5112 73.7520 14.9357 0.0000 0.0000 0.7399
# 3 14.9357 14.9357 124.2483 0.0000 0.0000 0.0000
# 4 0.0000 0.0000 0.0000 35.8896 0.0000 0.0000
# 5 0.0000 0.0000 0.0000 0.0000 35.8896 0.0000
# 6 -0.7399 0.7399 0.0000 0.0000 0.0000 31.6836
#
#
#
# Elastic Compliance Matrix: (Units=1/GPa)
#
#
# Indices 1 2 3 4 5 6 
#
# 1 0.014912 -0.003883 -0.001326 0.000000 0.000000 0.000439
# 2 -0.003883 0.014912 -0.001326 0.000000 0.000000 -0.000439
# 3 -0.001326 -0.001326 0.008367 0.000000 0.000000 0.000000
# 4 0.000000 0.000000 0.000000 0.027863 0.000000 0.000000
# 5 0.000000 0.000000 0.000000 0.000000 0.027863 0.000000
# 6 0.000439 -0.000439 0.000000 0.000000 0.000000 0.031583
#
#
# Mechanical properties :
#
#
# Convention : Reuss Voigt Hill
#
# Bulk Modulus (GPa) = 39.80642 41.39083 40.59862
# Shear Modulus (GPa) = 34.02692 35.45056 34.73874
#
# Velocity S-wave (km/s) = 4.09683 4.18165 4.13946
# Velocity P-wave (km/s) = 6.48177 6.61296 6.54769
#
# Compressibility (1/GPa) = 0.02512158
#
# Stress axis : x y z
#
# Youngs Moduli (GPa) = 67.06126 67.06126 119.51526
#
# Poissons Ratio (x) = 0.26040 0.15845
# Poissons Ratio (y) = 0.26040 0.15845
# Poissons Ratio (z) = 0.08891 0.08891
#
# Static dielectric constant tensor:
#      x y z
#    x 1.735840 0.000000 0.000000 
#    y 0.000000 1.735840 0.000000 
#    z 0.000000 0.000000 1.713010 
# 
# From -- ./inp_files/4663.got.cif
#   From: 2010.05.17/outbox.ucp.g08.bks.cvg/sg88_3_cif.got.tgz:4663.got - 2010.06.11 10:35:41.
