data_PCOD9546759
_publ_section_title
;
Structure prediction by ZEFSAII (Michael W. Deem and Ramdas Pophale) SiO2 
 PCOD9546759
Probable space group: I 41/A
;
_chemical_formula_sum "Si O2"
_cell_formula_units_Z 72
_cell_length_a 15.066058
_cell_length_b 15.066058
_cell_length_c 14.952610
_cell_angle_alpha 90.000000
_cell_angle_beta 90.000000
_cell_angle_gamma 90.000000
_cell_volume 3394.034683
_symmetry_space_group_name_H-M "I 41/A"
_symmetry_group_IT_number 88
_space_group.IT_coordinate_system_code '2'
_symmetry_cell_setting 'tetragonal'
loop_
_space_group_symop_operation_xyz
x,y,z
3/4-y,1/4+x,1/4+z
-x,1/2-y,z
1/4+y,1/4-x,1/4+z
-x,-y,-z
1/4+y,3/4-x,3/4-z
x,1/2+y,-z
3/4-y,3/4+x,3/4-z
1/2+x,1/2+y,1/2+z
1/4-y,3/4+x,3/4+z
1/2-x,-y,1/2+z
3/4+y,3/4-x,3/4+z
1/2-x,1/2-y,1/2-z
3/4+y,1/4-x,1/4-z
1/2+x,y,1/2-z
1/4-y,1/4+x,1/4-z
loop_
_atom_site_type_symbol
_atom_site_label
_atom_site_fract_x
_atom_site_fract_y
_atom_site_fract_z
Si Si1 0.355217 0.496502 0.769139
Si Si2 0.053008 0.423519 0.949205
Si Si3 0.500000 0.750000 0.370874
Si Si4 0.196973 0.414830 0.091977
Si Si5 0.052611 0.928836 0.558114
O O1 0.357463 0.560270 0.682069
O O2 0.257404 0.510766 0.810603
O O3 0.422748 0.526149 0.846354
O O4 0.355725 0.394831 0.736256
O O5 0.096738 0.475485 0.866182
O O6 0.991901 0.341176 0.925147
O O7 0.130855 0.387497 0.013462
O O8 0.000000 0.500000 0.000000
O O9 0.408295 0.742450 0.318684
O O10 0.000000 0.000000 0.500000
#
# Coordination Sequence:
#
# PCOD9546759 Si02
#       5
#    16  16   8  16  16
#     4   9  19  40  63  86 119 163 211 256 317 383
#     4  11  23  39  61  93 129 166 211 268 325 383
#     4  12  26  40  62 100 130 164 226 268 307 390
#     4   9  19  38  63  85 116 164 205 255 324 382
#     4  11  24  41  63  92 128 168 213 267 318 377
#
# _framework density 21.21369
#
# number of rings (size 3 to 8) (size 9 to 14) (size 15 to 20)
#    0.000    1.778    0.000    5.333    0.000    7.111 
#    0.000    1.111    0.000    0.000    0.000    0.000 
#    0.000    0.000    0.000    0.000    0.000    0.000 
#
# Total GULP energy -201192.691350 kJ/mol
# GULP energy per Si atom -5588.685871 kJ/mol
# Density = 2.116541 g / cm^3
# Si number density = 21.213690 Si / 1000 Ang^3
#
#
#
# Elastic Constant Matrix: (Units=GPa)
#
#
# Indices 1 2 3 4 5 6 
#
# 1 79.4557 21.4044 19.4172 0.0000 0.0000 -2.1362
# 2 21.4044 79.4557 19.4172 0.0000 0.0000 2.1362
# 3 19.4172 19.4172 61.6214 0.0000 0.0000 0.0000
# 4 0.0000 0.0000 0.0000 29.4835 0.0000 0.0000
# 5 0.0000 0.0000 0.0000 0.0000 29.4835 0.0000
# 6 -2.1362 2.1362 0.0000 0.0000 0.0000 35.3985
#
#
#
# Elastic Compliance Matrix: (Units=1/GPa)
#
#
# Indices 1 2 3 4 5 6 
#
# 1 0.014293 -0.003010 -0.003556 0.000000 0.000000 0.001044
# 2 -0.003010 0.014293 -0.003556 0.000000 0.000000 -0.001044
# 3 -0.003556 -0.003556 0.018469 0.000000 0.000000 0.000000
# 4 0.000000 0.000000 0.000000 0.033917 0.000000 0.000000
# 5 0.000000 0.000000 0.000000 0.000000 0.033917 0.000000
# 6 0.001044 -0.001044 0.000000 0.000000 0.000000 0.028376
#
#
# Mechanical properties :
#
#
# Convention : Reuss Voigt Hill
#
# Bulk Modulus (GPa) = 37.29378 37.89002 37.59190
# Shear Modulus (GPa) = 28.99467 29.55937 29.27702
#
# Velocity S-wave (km/s) = 3.70102 3.73689 3.71900
# Velocity P-wave (km/s) = 5.99013 6.04310 6.01667
#
# Compressibility (1/GPa) = 0.02681412
#
# Stress axis : x y z
#
# Youngs Moduli (GPa) = 69.96257 69.96257 54.14515
#
# Poissons Ratio (x) = 0.21056 0.19252
# Poissons Ratio (y) = 0.21056 0.19252
# Poissons Ratio (z) = 0.24876 0.24876
#
# Static dielectric constant tensor:
#      x y z
#    x 1.783280 0.000000 0.000000 
#    y 0.000000 1.783280 0.000000 
#    z 0.000000 0.000000 1.808970 
# 
# From -- ./inp_files/3793.got.cif
#   From: 2010.05.17/outbox.cif.g08.bks.cpg/sg88_2_cif.got.tgz:3793.got - 2010.06.03 19:11:41.
