data_PCOD9546733
_publ_section_title
;
Structure prediction by ZEFSAII (Michael W. Deem and Ramdas Pophale) SiO2 
 PCOD9546733
Probable space group: I 41/A
;
_chemical_formula_sum "Si O2"
_cell_formula_units_Z 64
_cell_length_a 11.587896
_cell_length_b 11.587896
_cell_length_c 21.053569
_cell_angle_alpha 90.000000
_cell_angle_beta 90.000000
_cell_angle_gamma 90.000000
_cell_volume 2827.059217
_symmetry_space_group_name_H-M "I 41/A"
_symmetry_group_IT_number 88
_space_group.IT_coordinate_system_code '2'
_symmetry_cell_setting 'tetragonal'
loop_
_space_group_symop_operation_xyz
x,y,z
3/4-y,1/4+x,1/4+z
-x,1/2-y,z
1/4+y,1/4-x,1/4+z
-x,-y,-z
1/4+y,3/4-x,3/4-z
x,1/2+y,-z
3/4-y,3/4+x,3/4-z
1/2+x,1/2+y,1/2+z
1/4-y,3/4+x,3/4+z
1/2-x,-y,1/2+z
3/4+y,3/4-x,3/4+z
1/2-x,1/2-y,1/2-z
3/4+y,1/4-x,1/4-z
1/2+x,y,1/2-z
1/4-y,1/4+x,1/4-z
loop_
_atom_site_type_symbol
_atom_site_label
_atom_site_fract_x
_atom_site_fract_y
_atom_site_fract_z
Si Si1 0.927264 0.407835 0.722757
Si Si2 0.286965 0.585370 0.846588
Si Si3 0.072780 0.933484 0.150564
Si Si4 0.768323 0.242941 0.657627
O O1 0.005527 0.419502 0.783310
O O2 0.004380 0.412080 0.658867
O O3 0.844866 0.519508 0.712857
O O4 0.846124 0.295668 0.713559
O O5 0.156089 0.544225 0.851008
O O6 0.307126 0.721081 0.849169
O O7 0.361828 0.527370 0.904641
O O8 0.157251 0.824237 0.146622
#
# Coordination Sequence:
#
# PCOD9546733 Si02
#       4
#    16  16  16  16
#     4   9  22  41  67  99 133 176 218 287 340 397
#     4   9  23  42  66 102 136 171 236 276 324 437
#     4  11  21  45  71  97 138 183 222 280 361 387
#     4   9  21  45  63  99 140 165 235 281 318 423
#
# _framework density 22.638363999999999
#
# number of rings (size 3 to 8) (size 9 to 14) (size 15 to 20)
#    1.500    1.000    0.000    0.750    0.000   10.000 
#    9.000    7.500    0.000    0.000    0.000    0.000 
#    0.000    0.000    0.000    0.000    0.000    0.000 
#
# Total GULP energy -178650.756080 kJ/mol
# GULP energy per Si atom -5582.836127 kJ/mol
# Density = 2.258684 g / cm^3
# Si number density = 22.638364 Si / 1000 Ang^3
#
#
#
# Elastic Constant Matrix: (Units=GPa)
#
#
# Indices 1 2 3 4 5 6 
#
# 1 145.2867 52.7494 31.2955 0.0000 0.0000 1.5998
# 2 52.7494 145.2867 31.2955 0.0000 0.0000 -1.5998
# 3 31.2955 31.2955 48.1620 0.0000 0.0000 0.0000
# 4 0.0000 0.0000 0.0000 25.8935 0.0000 0.0000
# 5 0.0000 0.0000 0.0000 0.0000 25.8935 0.0000
# 6 1.5998 -1.5998 0.0000 0.0000 0.0000 20.3110
#
#
#
# Elastic Compliance Matrix: (Units=1/GPa)
#
#
# Indices 1 2 3 4 5 6 
#
# 1 0.008595 -0.002241 -0.004129 0.000000 0.000000 -0.000854
# 2 -0.002241 0.008595 -0.004129 0.000000 0.000000 0.000854
# 3 -0.004129 -0.004129 0.026130 0.000000 0.000000 0.000000
# 4 0.000000 0.000000 0.000000 0.038620 0.000000 0.000000
# 5 0.000000 0.000000 0.000000 0.000000 0.038620 0.000000
# 6 -0.000854 0.000854 0.000000 0.000000 0.000000 0.049369
#
#
# Mechanical properties :
#
#
# Convention : Reuss Voigt Hill
#
# Bulk Modulus (GPa) = 44.79892 63.26850 54.03371
# Shear Modulus (GPa) = 25.20575 29.31261 27.25918
#
# Velocity S-wave (km/s) = 3.34040 3.60226 3.47380
# Velocity P-wave (km/s) = 5.89148 6.73126 6.32532
#
# Compressibility (1/GPa) = 0.02232197
#
# Stress axis : x y z
#
# Youngs Moduli (GPa) = 116.34243 116.34243 38.27072
#
# Poissons Ratio (x) = 0.26068 0.15803
# Poissons Ratio (y) = 0.26068 0.15803
# Poissons Ratio (z) = 0.48041 0.48041
#
# Static dielectric constant tensor:
#      x y z
#    x 1.880300 0.000000 0.000000 
#    y 0.000000 1.880300 0.000000 
#    z 0.000000 0.000000 1.907400 
# 
# From -- ./inp_files/5142.got.cif
#   From: 2010.05.17/outbox.cif.g08.bks.cpg/sg88_3_cif.got.tgz:5142.got - 2010.06.03 19:11:41.
