data_PCOD9546321
_publ_section_title
;
Structure prediction by ZEFSAII (Michael W. Deem and Ramdas Pophale) SiO2 
 PCOD9546321
Probable space group: I 41/A
;
_chemical_formula_sum "Si O2"
_cell_formula_units_Z 96
_cell_length_a 17.342650
_cell_length_b 17.342650
_cell_length_c 15.751313
_cell_angle_alpha 90.000000
_cell_angle_beta 90.000000
_cell_angle_gamma 90.000000
_cell_volume 4737.483175
_symmetry_space_group_name_H-M "I 41/A"
_symmetry_group_IT_number 88
_space_group.IT_coordinate_system_code '2'
_symmetry_cell_setting 'tetragonal'
loop_
_space_group_symop_operation_xyz
x,y,z
3/4-y,1/4+x,1/4+z
-x,1/2-y,z
1/4+y,1/4-x,1/4+z
-x,-y,-z
1/4+y,3/4-x,3/4-z
x,1/2+y,-z
3/4-y,3/4+x,3/4-z
1/2+x,1/2+y,1/2+z
1/4-y,3/4+x,3/4+z
1/2-x,-y,1/2+z
3/4+y,3/4-x,3/4+z
1/2-x,1/2-y,1/2-z
3/4+y,1/4-x,1/4-z
1/2+x,y,1/2-z
1/4-y,1/4+x,1/4-z
loop_
_atom_site_type_symbol
_atom_site_label
_atom_site_fract_x
_atom_site_fract_y
_atom_site_fract_z
Si Si1 0.168370 0.990270 0.776447
Si Si2 0.624449 0.267354 0.237020
Si Si3 0.500000 0.750000 0.125000
Si Si4 0.630995 0.776463 0.243873
Si Si5 0.729095 0.650944 0.341086
Si Si6 0.722114 0.631010 0.714110
Si Si7 0.500000 0.250000 0.106188
Si Si8 0.500000 0.250000 0.375000
O O1 0.115745 0.981570 0.692173
O O2 0.187413 0.078299 0.798086
O O3 0.131747 0.957533 0.863748
O O4 0.249951 0.948659 0.755712
O O5 0.654146 0.178608 0.240980
O O6 0.700239 0.318102 0.226370
O O7 0.563917 0.289137 0.164391
O O8 0.573095 0.276779 0.320430
O O9 0.579137 0.730500 0.174976
O O10 0.683606 0.725316 0.306258
O O11 0.684981 0.837022 0.196533
O O12 0.559546 0.801093 0.302379
#
# Coordination Sequence:
#
# PCOD9546321 Si02
#       8
#    16  16   4  16  16  16   8   4
#     4  10  20  36  58  82 112 146 182 228 274 322
#     4  10  21  36  56  82 110 144 183 224 273 327
#     4  10  20  38  60  82 112 146 180 226 276 326
#     4  10  21  36  56  82 110 144 183 224 273 327
#     4  10  21  37  57  81 110 145 184 225 274 326
#     4  10  21  37  57  81 110 145 184 225 274 326
#     4  10  20  34  52  78 112 142 180 226 268 322
#     4  10  20  38  60  82 112 146 180 226 276 326
#
# _framework density 20.263923999999999
#
# number of rings (size 3 to 8) (size 9 to 14) (size 15 to 20)
#    0.000    2.000    0.000    4.000    0.000    5.333 
#    0.000    0.000    0.000    6.000    0.000    0.000 
#    0.000    0.000    0.000    0.000    0.000    0.000 
#
# Total GULP energy -267224.476622 kJ/mol
# GULP energy per Si atom -5567.176596 kJ/mol
# Density = 2.021780 g / cm^3
# Si number density = 20.263924 Si / 1000 Ang^3
#
#
#
# Elastic Constant Matrix: (Units=GPa)
#
#
# Indices 1 2 3 4 5 6 
#
# 1 48.3063 -12.1695 18.5811 0.0000 0.0000 5.5959
# 2 -12.1695 48.3063 18.5811 0.0000 0.0000 -5.5959
# 3 18.5811 18.5811 101.9926 0.0000 0.0000 0.0000
# 4 0.0000 0.0000 0.0000 87.0535 0.0000 0.0000
# 5 0.0000 0.0000 0.0000 0.0000 87.0535 0.0000
# 6 5.5959 -5.5959 0.0000 0.0000 0.0000 39.7723
#
#
#
# Elastic Compliance Matrix: (Units=1/GPa)
#
#
# Indices 1 2 3 4 5 6 
#
# 1 0.025515 0.008537 -0.006204 0.000000 0.000000 -0.002389
# 2 0.008537 0.025515 -0.006204 0.000000 0.000000 0.002389
# 3 -0.006204 -0.006204 0.012065 0.000000 0.000000 0.000000
# 4 0.000000 0.000000 0.000000 0.011487 0.000000 0.000000
# 5 0.000000 0.000000 0.000000 0.000000 0.011487 0.000000
# 6 -0.002389 0.002389 0.000000 0.000000 0.000000 0.025815
#
#
# Mechanical properties :
#
#
# Convention : Reuss Voigt Hill
#
# Bulk Modulus (GPa) = 18.06524 27.62120 22.84322
# Shear Modulus (GPa) = 36.21184 54.35001 45.28092
#
# Velocity S-wave (km/s) = 4.23189 5.18452 4.73224
# Velocity P-wave (km/s) = 5.72825 7.03558 6.41530
#
# Compressibility (1/GPa) = 0.05535494
#
# Stress axis : x y z
#
# Youngs Moduli (GPa) = 39.19265 39.19265 82.88415
#
# Poissons Ratio (x) = -0.33460 0.51419
# Poissons Ratio (y) = -0.33460 0.51419
# Poissons Ratio (z) = 0.24314 0.24314
#
# Static dielectric constant tensor:
#      x y z
#    x 1.793360 0.000000 0.000000 
#    y 0.000000 1.793360 0.000000 
#    z 0.000000 0.000000 1.778430 
# 
# From -- ./inp_files/3955.got.cif
#   From: 2010.05.17/outbox.cif.g08.bks.cpg/sg88_2_cif.got.tgz:3955.got - 2010.06.03 19:11:41.
