data_PCOD9546302
_publ_section_title
;
Structure prediction by ZEFSAII (Michael W. Deem and Ramdas Pophale) SiO2 
 PCOD9546302
Probable space group: I 41/A
;
_chemical_formula_sum "Si O2"
_cell_formula_units_Z 80
_cell_length_a 16.571359
_cell_length_b 16.571359
_cell_length_c 12.853881
_cell_angle_alpha 90.000000
_cell_angle_beta 90.000000
_cell_angle_gamma 90.000000
_cell_volume 3529.803479
_symmetry_space_group_name_H-M "I 41/A"
_symmetry_group_IT_number 88
_space_group.IT_coordinate_system_code '2'
_symmetry_cell_setting 'tetragonal'
loop_
_space_group_symop_operation_xyz
x,y,z
3/4-y,1/4+x,1/4+z
-x,1/2-y,z
1/4+y,1/4-x,1/4+z
-x,-y,-z
1/4+y,3/4-x,3/4-z
x,1/2+y,-z
3/4-y,3/4+x,3/4-z
1/2+x,1/2+y,1/2+z
1/4-y,3/4+x,3/4+z
1/2-x,-y,1/2+z
3/4+y,3/4-x,3/4+z
1/2-x,1/2-y,1/2-z
3/4+y,1/4-x,1/4-z
1/2+x,y,1/2-z
1/4-y,1/4+x,1/4-z
loop_
_atom_site_type_symbol
_atom_site_label
_atom_site_fract_x
_atom_site_fract_y
_atom_site_fract_z
Si Si1 0.161885 0.242130 0.443240
Si Si2 0.605115 0.072259 0.048687
Si Si3 0.658674 0.160857 0.697484
Si Si4 0.560535 0.911116 0.719092
Si Si5 0.107363 0.651531 0.749348
O O1 0.140188 0.156481 0.496044
O O2 0.114680 0.320186 0.484842
O O3 0.254463 0.264372 0.455005
O O4 0.138036 0.226008 0.321711
O O5 0.507769 0.082297 0.043515
O O6 0.627342 0.078658 0.170668
O O7 0.627130 0.986798 0.001326
O O8 0.663408 0.139747 0.574886
O O9 0.605630 0.894264 0.612443
O O10 0.488788 0.846632 0.735387
#
# Coordination Sequence:
#
# PCOD9546302 Si02
#       5
#    16  16  16  16  16
#     4  10  21  39  65  93 138 186 233 302 379 439
#     4   8  20  38  62  92 135 175 231 309 362 431
#     4  10  19  40  63  92 133 180 243 297 363 448
#     4  11  21  37  65  98 130 184 245 300 375 440
#     4   9  21  37  63  96 133 169 239 312 364 430
#
# _framework density 22.664152999999999
#
# number of rings (size 3 to 8) (size 9 to 14) (size 15 to 20)
#    1.200    1.200    0.000    2.400    0.000    2.000 
#   10.800    4.000    0.000    0.000    0.000    0.000 
#    0.000    0.000    0.000    0.000    0.000    0.000 
#
# Total GULP energy -223096.783717 kJ/mol
# GULP energy per Si atom -5577.419593 kJ/mol
# Density = 2.261257 g / cm^3
# Si number density = 22.664153 Si / 1000 Ang^3
#
#
#
# Elastic Constant Matrix: (Units=GPa)
#
#
# Indices 1 2 3 4 5 6 
#
# 1 50.2082 48.4276 45.0828 0.0000 0.0000 -2.4980
# 2 48.4276 50.2082 45.0828 0.0000 0.0000 2.4980
# 3 45.0828 45.0828 75.2551 0.0000 0.0000 0.0000
# 4 0.0000 0.0000 0.0000 26.5016 0.0000 0.0000
# 5 0.0000 0.0000 0.0000 0.0000 26.5016 0.0000
# 6 -2.4980 2.4980 0.0000 0.0000 0.0000 10.8822
#
#
#
# Elastic Compliance Matrix: (Units=1/GPa)
#
#
# Indices 1 2 3 4 5 6 
#
# 1 0.800125 -0.777714 -0.013426 0.000000 0.000000 0.362197
# 2 -0.777714 0.800125 -0.013426 0.000000 0.000000 -0.362197
# 3 -0.013426 -0.013426 0.029374 0.000000 0.000000 0.000000
# 4 0.000000 0.000000 0.000000 0.037734 0.000000 0.000000
# 5 0.000000 0.000000 0.000000 0.000000 0.037734 0.000000
# 6 0.362197 -0.362197 0.000000 0.000000 0.000000 0.258180
#
#
# Mechanical properties :
#
#
# Convention : Reuss Voigt Hill
#
# Bulk Modulus (GPa) = 48.79660 50.31754 49.55707
# Shear Modulus (GPa) = 1.39695 15.24896 8.32295
#
# Velocity S-wave (km/s) = 0.78594 2.59670 1.91840
# Velocity P-wave (km/s) = 4.73293 5.58928 5.17884
#
# Compressibility (1/GPa) = 0.02049323
#
# Stress axis : x y z
#
# Youngs Moduli (GPa) = 1.24980 1.24980 34.04364
#
# Poissons Ratio (x) = 0.97199 0.45706
# Poissons Ratio (y) = 0.97199 0.45706
# Poissons Ratio (z) = 0.01678 0.01678
#
# Static dielectric constant tensor:
#      x y z
#    x 1.853220 0.000000 0.000000 
#    y 0.000000 1.853220 0.000000 
#    z 0.000000 0.000000 1.896030 
# 
# From -- ./inp_files/3142.got.cif
#   From: 2010.05.17/outbox.cif.g08.bks.cpg/sg88_2_cif.got.tgz:3142.got - 2010.06.03 19:11:41.
