data_PCOD9546437
_publ_section_title
;
Structure prediction by ZEFSAII (Michael W. Deem and Ramdas Pophale) SiO2 
 PCOD9546437
Probable space group: I 41/A
;
_chemical_formula_sum "Si O2"
_cell_formula_units_Z 68
_cell_length_a 11.150776
_cell_length_b 11.150776
_cell_length_c 26.417933
_cell_angle_alpha 90.000000
_cell_angle_beta 90.000000
_cell_angle_gamma 90.000000
_cell_volume 3284.800648
_symmetry_space_group_name_H-M "I 41/A"
_symmetry_group_IT_number 88
_space_group.IT_coordinate_system_code '2'
_symmetry_cell_setting 'tetragonal'
loop_
_space_group_symop_operation_xyz
x,y,z
3/4-y,1/4+x,1/4+z
-x,1/2-y,z
1/4+y,1/4-x,1/4+z
-x,-y,-z
1/4+y,3/4-x,3/4-z
x,1/2+y,-z
3/4-y,3/4+x,3/4-z
1/2+x,1/2+y,1/2+z
1/4-y,3/4+x,3/4+z
1/2-x,-y,1/2+z
3/4+y,3/4-x,3/4+z
1/2-x,1/2-y,1/2-z
3/4+y,1/4-x,1/4-z
1/2+x,y,1/2-z
1/4-y,1/4+x,1/4-z
loop_
_atom_site_type_symbol
_atom_site_label
_atom_site_fract_x
_atom_site_fract_y
_atom_site_fract_z
Si Si1 0.861583 0.532690 0.489976
Si Si2 0.000000 0.750000 0.875000
Si Si3 0.234247 0.861160 0.915637
Si Si4 0.170518 0.792918 0.396208
Si Si5 0.331169 0.616126 0.898703
O O1 0.788693 0.419620 0.466549
O O2 0.849046 0.638638 0.448548
O O3 0.815416 0.582957 0.542873
O O4 0.000000 0.500000 0.500000
O O5 0.107510 0.790553 0.912184
O O6 0.322755 0.759074 0.894344
O O7 0.201639 0.974933 0.881108
O O8 0.115841 0.661044 0.394667
O O9 0.304729 0.801191 0.375297
#
# Coordination Sequence:
#
# PCOD9546437 Si02
#       5
#    16   4  16  16  16
#     4  11  22  37  62  91 121 163 207 255 319 382
#     4   8  16  44  64  80 120 168 200 256 316 364
#     4   9  21  39  63  85 121 160 203 261 309 368
#     4  10  21  37  56  84 127 159 199 259 313 369
#     4  10  21  40  60  87 118 160 208 248 315 367
#
# _framework density 20.701408000000001
#
# number of rings (size 3 to 8) (size 9 to 14) (size 15 to 20)
#    0.000    2.118    2.353    0.000    3.294    0.941 
#    0.000   18.824    0.000    0.000    0.000    0.000 
#    0.000    0.000    0.000    0.000    0.000    0.000 
#
# Total GULP energy -189558.421494 kJ/mol
# GULP energy per Si atom -5575.247691 kJ/mol
# Density = 2.065429 g / cm^3
# Si number density = 20.701408 Si / 1000 Ang^3
#
#
#
# Elastic Constant Matrix: (Units=GPa)
#
#
# Indices 1 2 3 4 5 6 
#
# 1 58.8164 35.8759 8.0864 0.0000 0.0000 3.8595
# 2 35.8759 58.8164 8.0863 0.0000 0.0000 -3.8595
# 3 8.0864 8.0863 84.2707 0.0000 0.0000 0.0000
# 4 0.0000 0.0000 0.0000 20.3415 0.0000 0.0000
# 5 0.0000 0.0000 0.0000 0.0000 20.3416 0.0000
# 6 3.8595 -3.8595 0.0000 0.0000 0.0000 39.5609
#
#
#
# Elastic Compliance Matrix: (Units=1/GPa)
#
#
# Indices 1 2 3 4 5 6 
#
# 1 0.027903 -0.017167 -0.001030 0.000000 0.000000 -0.004397
# 2 -0.017167 0.027903 -0.001030 0.000000 0.000000 0.004397
# 3 -0.001030 -0.001030 0.012064 0.000000 0.000000 0.000000
# 4 0.000000 0.000000 0.000000 0.049160 0.000000 0.000000
# 5 0.000000 0.000000 0.000000 0.000000 0.049160 0.000000
# 6 -0.004397 0.004397 0.000000 0.000000 0.000000 0.026135
#
#
# Mechanical properties :
#
#
# Convention : Reuss Voigt Hill
#
# Bulk Modulus (GPa) = 33.99484 34.00009 33.99746
# Shear Modulus (GPa) = 20.78243 26.03914 23.41078
#
# Velocity S-wave (km/s) = 3.17190 3.55046 3.36650
# Velocity P-wave (km/s) = 5.46550 5.76779 5.61868
#
# Compressibility (1/GPa) = 0.02941623
#
# Stress axis : x y z
#
# Youngs Moduli (GPa) = 35.83783 35.83783 82.88962
#
# Poissons Ratio (x) = 0.61523 0.08540
# Poissons Ratio (y) = 0.61523 0.08540
# Poissons Ratio (z) = 0.03692 0.03692
#
# Static dielectric constant tensor:
#      x y z
#    x 1.788250 0.000000 0.000000 
#    y 0.000000 1.788250 0.000000 
#    z 0.000000 0.000000 1.717820 
# 
# From -- ./inp_files/5711.got.cif
#   From: 2010.05.17/outbox.cif.g08.bks.cpg/sg88_3_cif.got.tgz:5711.got - 2010.06.03 19:11:41.
