data_PCOD9546184
_publ_section_title
;
Structure prediction by ZEFSAII (Michael W. Deem and Ramdas Pophale) SiO2 
 PCOD9546184
Probable space group: I 4/M
;
_chemical_formula_sum "Si O2"
_cell_formula_units_Z 48
_cell_length_a 24.000000
_cell_length_b 24.000000
_cell_length_c 9.000000
_cell_angle_alpha 90.000000
_cell_angle_beta 90.000000
_cell_angle_gamma 90.000000
_cell_volume 5184.000000
_symmetry_space_group_name_H-M "I 4/M"
_symmetry_group_IT_number 87
_symmetry_cell_setting 'tetragonal'
loop_
_space_group_symop_operation_xyz
x,y,z
-y,x,z
-x,-y,z
y,-x,z
-x,-y,-z
y,-x,-z
x,y,-z
-y,x,-z
1/2+x,1/2+y,1/2+z
1/2-y,1/2+x,1/2+z
1/2-x,1/2-y,1/2+z
1/2+y,1/2-x,1/2+z
1/2-x,1/2-y,1/2-z
1/2+y,1/2-x,1/2-z
1/2+x,1/2+y,1/2-z
1/2-y,1/2+x,1/2-z
loop_
_atom_site_type_symbol
_atom_site_label
_atom_site_fract_x
_atom_site_fract_y
_atom_site_fract_z
Si Si1 0.413013 0.534911 0.679520
Si Si2 0.619403 0.161071 0.330513
Si Si3 0.498857 0.202288 0.670862
Si Si4 0.236833 0.688478 0.680471
Si Si5 0.204465 0.920438 0.319554
Si Si6 0.539893 0.920242 0.751182
O O1 0.429211 0.469749 0.714644
O O2 0.405305 0.537950 0.500000
O O3 0.356092 0.557509 0.758005
O O4 0.633983 0.176831 0.500000
O O5 0.750000 0.250000 0.250000
O O6 0.563984 0.195573 0.284005
O O7 0.673493 0.171362 0.229130
O O8 0.496562 0.221853 0.500000
O O9 0.463189 0.245803 0.768395
O O10 0.475560 0.138346 0.672082
O O11 0.241436 0.689544 0.500000
O O12 0.276980 0.639639 0.748723
O O13 0.099582 0.596182 0.833936
O O14 0.203154 0.916817 0.500000
O O15 0.479565 0.939049 0.820744
#
# Coordination Sequence:
#
# PCOD9546184 Si02
#       6
#    16  16  16  16  16  16
#     4   9  20  42  72 102 130 162 200 248 312 379
#     4  10  21  38  60  89 125 163 206 261 317 371
#     4  10  21  37  59  88 126 170 212 256 310 365
#     4  12  26  45  67  89 120 164 213 263 316 374
#     4  12  25  41  64  95 131 169 210 255 307 368
#     4   9  18  32  55  89 126 164 208 256 307 362
#
# _framework density 9.2592590000000001
#
# number of rings (size 3 to 8) (size 9 to 14) (size 15 to 20)
#    0.000    1.667    1.667    3.500    0.000    3.333 
#    0.000    9.167    0.000    0.000    0.000    0.000 
#    0.000    0.000    0.000    0.000    0.000    0.000 
#
# Total GULP energy -267388.066007 kJ/mol
# GULP energy per Si atom -5570.584708 kJ/mol
# Density = 0.923818 g / cm^3
# Si number density = 9.259259 Si / 1000 Ang^3
#
#
#
# Elastic Constant Matrix: (Units=GPa)
#
#
# Indices 1 2 3 4 5 6 
#
# 1 155.7815 72.4330 64.1876 0.0000 0.0000 -5.7774
# 2 72.4330 155.7815 64.1876 0.0000 0.0000 5.7774
# 3 64.1876 64.1876 130.9150 0.0000 0.0000 0.0000
# 4 0.0000 0.0000 0.0000 27.3155 0.0000 0.0000
# 5 0.0000 0.0000 0.0000 0.0000 27.3155 0.0000
# 6 -5.7774 5.7774 0.0000 0.0000 0.0000 37.7969
#
#
#
# Elastic Compliance Matrix: (Units=1/GPa)
#
#
# Indices 1 2 3 4 5 6 
#
# 1 0.009154 -0.003103 -0.002967 0.000000 0.000000 0.001874
# 2 -0.003103 0.009154 -0.002967 0.000000 0.000000 -0.001874
# 3 -0.002967 -0.002967 0.010548 0.000000 0.000000 0.000000
# 4 0.000000 0.000000 0.000000 0.036609 0.000000 0.000000
# 5 0.000000 0.000000 0.000000 0.000000 0.036609 0.000000
# 6 0.001874 -0.001874 0.000000 0.000000 0.000000 0.027030
#
#
# Mechanical properties :
#
#
# Convention : Reuss Voigt Hill
#
# Bulk Modulus (GPa) = 92.74389 93.78826 93.26608
# Shear Modulus (GPa) = 33.16271 34.59692 33.87981
#
# Velocity S-wave (km/s) = 4.23636 4.32700 4.28192
# Velocity P-wave (km/s) = 8.60926 8.70169 8.65560
#
# Compressibility (1/GPa) = 0.01078238
#
# Stress axis : x y z
#
# Youngs Moduli (GPa) = 109.24078 109.24078 94.80824
#
# Poissons Ratio (x) = 0.33903 0.28126
# Poissons Ratio (y) = 0.33903 0.28126
# Poissons Ratio (z) = 0.32408 0.32408
#
# Static dielectric constant tensor:
#      x y z
#    x 1.644990 0.000000 0.000000 
#    y 0.000000 1.644990 0.000000 
#    z 0.000000 0.000000 1.656320 
# 
# From -- ./inp_files/1339.got.cif
#   From: 2010.05.17/outbox.ucp.g08.bks.cvg/sg87_1_cif.got.tgz:1339.got - 2010.06.11 10:35:24.
