data_PCOD9546287
_publ_section_title
;
Structure prediction by ZEFSAII (Michael W. Deem and Ramdas Pophale) SiO2 
 PCOD9546287
Probable space group: I 41/A
;
_chemical_formula_sum "Si O2"
_cell_formula_units_Z 96
_cell_length_a 22.611109
_cell_length_b 22.611109
_cell_length_c 6.923392
_cell_angle_alpha 90.000000
_cell_angle_beta 90.000000
_cell_angle_gamma 90.000000
_cell_volume 3539.668973
_symmetry_space_group_name_H-M "I 41/A"
_symmetry_group_IT_number 88
_space_group.IT_coordinate_system_code '2'
_symmetry_cell_setting 'tetragonal'
loop_
_space_group_symop_operation_xyz
x,y,z
3/4-y,1/4+x,1/4+z
-x,1/2-y,z
1/4+y,1/4-x,1/4+z
-x,-y,-z
1/4+y,3/4-x,3/4-z
x,1/2+y,-z
3/4-y,3/4+x,3/4-z
1/2+x,1/2+y,1/2+z
1/4-y,3/4+x,3/4+z
1/2-x,-y,1/2+z
3/4+y,3/4-x,3/4+z
1/2-x,1/2-y,1/2-z
3/4+y,1/4-x,1/4-z
1/2+x,y,1/2-z
1/4-y,1/4+x,1/4-z
loop_
_atom_site_type_symbol
_atom_site_label
_atom_site_fract_x
_atom_site_fract_y
_atom_site_fract_z
Si Si1 0.323902 0.501168 0.748615
Si Si2 0.909867 0.236475 0.684088
Si Si3 0.047245 0.905548 0.729412
Si Si4 0.625222 0.924838 0.412181
Si Si5 0.572074 0.039910 0.229708
Si Si6 0.838032 0.161971 0.411753
O O1 0.279726 0.449929 0.687957
O O2 0.328710 0.542648 0.560353
O O3 0.386696 0.471393 0.756085
O O4 0.936187 0.291867 0.570989
O O5 0.898004 0.256816 0.901521
O O6 0.858569 0.214457 0.545378
O O7 0.070069 0.909443 0.947264
O O8 0.108818 0.887412 0.615662
O O9 0.998325 0.956596 0.680658
O O10 0.663438 0.865750 0.364922
O O11 0.600957 0.974369 0.261474
O O12 0.572305 0.068752 0.445542
#
# Coordination Sequence:
#
# PCOD9546287 Si02
#       6
#    16  16  16  16  16  16
#     4  11  20  41  67  86 121 163 212 265 332 392
#     4   9  19  37  60  87 129 176 215 262 324 394
#     4  10  19  36  62  89 127 164 213 271 322 389
#     4  10  19  37  60  92 125 168 216 271 329 395
#     4  10  20  35  62  88 126 166 215 270 332 385
#     4   9  20  38  61  90 125 165 213 267 325 393
#
# _framework density 27.121179000000001
#
# number of rings (size 3 to 8) (size 9 to 14) (size 15 to 20)
#    0.000    2.167    5.000    0.500    0.000    2.667 
#    3.000    6.667    0.000    0.000    0.000    0.000 
#    0.000    0.000    0.000    0.000    0.000    0.000 
#
# Total GULP energy -267884.302507 kJ/mol
# GULP energy per Si atom -5580.922969 kJ/mol
# Density = 2.705945 g / cm^3
# Si number density = 27.121179 Si / 1000 Ang^3
#
#
#
# Elastic Constant Matrix: (Units=GPa)
#
#
# Indices 1 2 3 4 5 6 
#
# 1 134.5496 -2.0410 26.1016 0.0000 0.0000 -5.4508
# 2 -2.0410 134.5496 26.1016 0.0000 0.0000 5.4508
# 3 26.1016 26.1016 61.1237 0.0000 0.0000 0.0000
# 4 0.0000 0.0000 0.0000 34.6804 0.0000 0.0000
# 5 0.0000 0.0000 0.0000 0.0000 34.6804 0.0000
# 6 -5.4508 5.4508 0.0000 0.0000 0.0000 62.8255
#
#
#
# Elastic Compliance Matrix: (Units=1/GPa)
#
#
# Indices 1 2 3 4 5 6 
#
# 1 0.008223 0.000850 -0.003874 0.000000 0.000000 0.000640
# 2 0.000850 0.008223 -0.003874 0.000000 0.000000 -0.000640
# 3 -0.003874 -0.003874 0.019669 0.000000 0.000000 0.000000
# 4 0.000000 0.000000 0.000000 0.028835 0.000000 0.000000
# 5 0.000000 0.000000 0.000000 0.000000 0.028835 0.000000
# 6 0.000640 -0.000640 0.000000 0.000000 0.000000 0.016028
#
#
# Mechanical properties :
#
#
# Convention : Reuss Voigt Hill
#
# Bulk Modulus (GPa) = 44.80773 47.83858 46.32316
# Shear Modulus (GPa) = 38.15389 45.10799 41.63094
#
# Velocity S-wave (km/s) = 3.75479 4.08266 3.92215
# Velocity P-wave (km/s) = 5.94602 6.31675 6.13418
#
# Compressibility (1/GPa) = 0.02231758
#
# Stress axis : x y z
#
# Youngs Moduli (GPa) = 121.61560 121.61560 50.84067
#
# Poissons Ratio (x) = -0.10343 0.19698
# Poissons Ratio (y) = -0.10343 0.19698
# Poissons Ratio (z) = 0.47119 0.47119
#
# Static dielectric constant tensor:
#      x y z
#    x 2.187890 0.000000 0.000000 
#    y 0.000000 2.187890 0.000000 
#    z 0.000000 0.000000 2.077520 
# 
# From -- ./inp_files/1740.got.cif
#   From: 2010.05.17/outbox.cif.g08.bks.cpg/sg88_1_cif.got.tgz:1740.got - 2010.06.03 19:11:41.
