data_PCOD9546406
_publ_section_title
;
Structure prediction by ZEFSAII (Michael W. Deem and Ramdas Pophale) SiO2 
 PCOD9546406
Probable space group: I 41/A
;
_chemical_formula_sum "Si O2"
_cell_formula_units_Z 96
_cell_length_a 22.992476
_cell_length_b 22.992476
_cell_length_c 8.358611
_cell_angle_alpha 90.000000
_cell_angle_beta 90.000000
_cell_angle_gamma 90.000000
_cell_volume 4418.812743
_symmetry_space_group_name_H-M "I 41/A"
_symmetry_group_IT_number 88
_space_group.IT_coordinate_system_code '2'
_symmetry_cell_setting 'tetragonal'
loop_
_space_group_symop_operation_xyz
x,y,z
3/4-y,1/4+x,1/4+z
-x,1/2-y,z
1/4+y,1/4-x,1/4+z
-x,-y,-z
1/4+y,3/4-x,3/4-z
x,1/2+y,-z
3/4-y,3/4+x,3/4-z
1/2+x,1/2+y,1/2+z
1/4-y,3/4+x,3/4+z
1/2-x,-y,1/2+z
3/4+y,3/4-x,3/4+z
1/2-x,1/2-y,1/2-z
3/4+y,1/4-x,1/4-z
1/2+x,y,1/2-z
1/4-y,1/4+x,1/4-z
loop_
_atom_site_type_symbol
_atom_site_label
_atom_site_fract_x
_atom_site_fract_y
_atom_site_fract_z
Si Si1 0.750046 0.334934 0.324707
Si Si2 0.302573 0.948393 0.547214
Si Si3 0.354299 0.388829 0.030151
Si Si4 0.718140 0.276027 0.992971
Si Si5 0.411065 0.217145 0.860324
Si Si6 0.229260 0.135131 0.771184
O O1 0.706334 0.384992 0.375836
O O2 0.815226 0.361064 0.330430
O O3 0.729539 0.315097 0.150645
O O4 0.752543 0.283527 0.451656
O O5 0.252403 0.952467 0.675383
O O6 0.297332 0.895093 0.427851
O O7 0.418915 0.361704 0.017573
O O8 0.355263 0.458912 0.022472
O O9 0.317825 0.370546 0.868978
O O10 0.648451 0.272975 0.962377
O O11 0.750222 0.303267 0.840814
O O12 0.435303 0.281470 0.812819
#
# Coordination Sequence:
#
# PCOD9546406 Si02
#       6
#    16  16  16  16  16  16
#     4  11  23  38  60  91 135 162 212 265 344 396
#     4  12  22  37  59  92 125 172 208 261 330 401
#     4  11  23  37  61  98 128 170 217 271 334 401
#     4  10  22  43  63  93 125 171 215 277 333 390
#     4  10  20  42  67  91 123 171 232 278 321 386
#     4  11  22  39  62  92 133 167 222 263 322 406
#
# _framework density 21.725294000000002
#
# number of rings (size 3 to 8) (size 9 to 14) (size 15 to 20)
#    0.000    1.167    5.000    2.000    2.333    0.667 
#    0.000    0.000    0.000    0.000    0.000    0.000 
#    0.000    0.000    0.000    0.000    0.000    0.000 
#
# Total GULP energy -267978.291006 kJ/mol
# GULP energy per Si atom -5582.881063 kJ/mol
# Density = 2.167585 g / cm^3
# Si number density = 21.725294 Si / 1000 Ang^3
#
#
#
# Elastic Constant Matrix: (Units=GPa)
#
#
# Indices 1 2 3 4 5 6 
#
# 1 126.9079 38.4246 34.5429 0.0000 0.0000 4.1901
# 2 38.4246 126.9079 34.5429 0.0000 0.0000 -4.1901
# 3 34.5429 34.5429 86.6960 0.0000 0.0000 0.0000
# 4 0.0000 0.0000 0.0000 33.4869 0.0000 0.0000
# 5 0.0000 0.0000 0.0000 0.0000 33.4869 0.0000
# 6 4.1901 -4.1901 0.0000 0.0000 0.0000 36.6376
#
#
#
# Elastic Compliance Matrix: (Units=1/GPa)
#
#
# Indices 1 2 3 4 5 6 
#
# 1 0.009341 -0.002084 -0.002891 0.000000 0.000000 -0.001307
# 2 -0.002084 0.009341 -0.002891 0.000000 0.000000 0.001307
# 3 -0.002891 -0.002891 0.013839 0.000000 0.000000 0.000000
# 4 0.000000 0.000000 0.000000 0.029862 0.000000 0.000000
# 5 0.000000 0.000000 0.000000 0.000000 0.029862 0.000000
# 6 -0.001307 0.001307 0.000000 0.000000 0.000000 0.027593
#
#
# Mechanical properties :
#
#
# Convention : Reuss Voigt Hill
#
# Bulk Modulus (GPa) = 59.57150 61.72583 60.64867
# Shear Modulus (GPa) = 35.41882 36.25572 35.83727
#
# Velocity S-wave (km/s) = 4.04208 4.08956 4.06589
# Velocity P-wave (km/s) = 7.01886 7.12551 7.07239
#
# Compressibility (1/GPa) = 0.01678655
#
# Stress axis : x y z
#
# Youngs Moduli (GPa) = 107.05553 107.05553 72.26194
#
# Poissons Ratio (x) = 0.22314 0.20893
# Poissons Ratio (y) = 0.22314 0.20893
# Poissons Ratio (z) = 0.30953 0.30953
#
# Static dielectric constant tensor:
#      x y z
#    x 1.853570 0.000000 0.000000 
#    y 0.000000 1.853570 0.000000 
#    z 0.000000 0.000000 1.827650 
# 
# From -- ./inp_files/1743.got.cif
#   From: 2010.05.17/outbox.cif.g08.bks.cpg/sg88_1_cif.got.tgz:1743.got - 2010.06.03 19:11:41.
