data_PCOD9546414
_publ_section_title
;
Structure prediction by ZEFSAII (Michael W. Deem and Ramdas Pophale) SiO2 
 PCOD9546414
Probable space group: I 41/A
;
_chemical_formula_sum "Si O2"
_cell_formula_units_Z 92
_cell_length_a 14.042043
_cell_length_b 14.042043
_cell_length_c 20.534346
_cell_angle_alpha 90.000000
_cell_angle_beta 90.000000
_cell_angle_gamma 90.000000
_cell_volume 4048.941227
_symmetry_space_group_name_H-M "I 41/A"
_symmetry_group_IT_number 88
_space_group.IT_coordinate_system_code '2'
_symmetry_cell_setting 'tetragonal'
loop_
_space_group_symop_operation_xyz
x,y,z
3/4-y,1/4+x,1/4+z
-x,1/2-y,z
1/4+y,1/4-x,1/4+z
-x,-y,-z
1/4+y,3/4-x,3/4-z
x,1/2+y,-z
3/4-y,3/4+x,3/4-z
1/2+x,1/2+y,1/2+z
1/4-y,3/4+x,3/4+z
1/2-x,-y,1/2+z
3/4+y,3/4-x,3/4+z
1/2-x,1/2-y,1/2-z
3/4+y,1/4-x,1/4-z
1/2+x,y,1/2-z
1/4-y,1/4+x,1/4-z
loop_
_atom_site_type_symbol
_atom_site_label
_atom_site_fract_x
_atom_site_fract_y
_atom_site_fract_z
Si Si1 0.500000 0.750000 0.950831
Si Si2 0.000000 0.250000 0.625000
Si Si3 0.843611 0.712053 0.454259
Si Si4 0.737260 0.917768 0.581917
Si Si5 0.104687 0.756686 0.969896
Si Si6 0.052410 0.095757 0.357913
Si Si7 0.320790 0.527848 0.721262
O O1 0.485341 0.658665 0.904853
O O2 0.588846 0.725342 0.998408
O O3 0.927662 0.326338 0.654902
O O4 0.754635 0.760074 0.418150
O O5 0.810355 0.627013 0.499199
O O6 0.682974 0.816524 0.571465
O O7 0.847318 0.910358 0.604282
O O8 0.695097 0.973477 0.644290
O O9 0.718420 0.976683 0.515694
O O10 0.000000 0.750000 0.941870
O O11 0.097977 0.809810 0.039632
O O12 0.138835 0.648497 0.981804
#
# Coordination Sequence:
#
# PCOD9546414 Si02
#       7
#     8   4  16  16  16  16  16
#     4  11  24  43  76 106 149 187 240 310 364 431
#     4  10  20  48  68 100 148 186 244 310 364 442
#     4  10  24  44  69 106 143 190 241 301 371 442
#     4  12  26  48  73 107 145 196 244 309 364 445
#     4  11  26  46  69 104 143 193 244 301 370 436
#     4  11  22  46  73 103 145 189 244 296 369 436
#     4  11  27  43  72 105 146 186 249 302 366 438
#
# _framework density 22.721990000000002
#
# number of rings (size 3 to 8) (size 9 to 14) (size 15 to 20)
#    0.000    1.043    2.609    3.130    7.304    2.087 
#    0.000    2.609    0.000    0.000    0.000    0.000 
#    0.000    0.000    0.000    0.000    0.000    0.000 
#
# Total GULP energy -256285.182524 kJ/mol
# GULP energy per Si atom -5571.417011 kJ/mol
# Density = 2.267027 g / cm^3
# Si number density = 22.721990 Si / 1000 Ang^3
#
#
#
# Elastic Constant Matrix: (Units=GPa)
#
#
# Indices 1 2 3 4 5 6 
#
# 1 77.4009 33.8676 27.7490 0.0000 0.0000 3.3045
# 2 33.8676 77.4009 27.7490 0.0000 0.0000 -3.3045
# 3 27.7490 27.7490 40.5479 0.0000 0.0000 0.0000
# 4 0.0000 0.0000 0.0000 9.9295 0.0000 0.0000
# 5 0.0000 0.0000 0.0000 0.0000 9.9295 0.0000
# 6 3.3045 -3.3045 0.0000 0.0000 0.0000 22.4729
#
#
#
# Elastic Compliance Matrix: (Units=1/GPa)
#
#
# Indices 1 2 3 4 5 6 
#
# 1 0.018570 -0.004925 -0.009338 0.000000 0.000000 -0.003455
# 2 -0.004925 0.018570 -0.009338 0.000000 0.000000 0.003455
# 3 -0.009338 -0.009338 0.037443 0.000000 0.000000 0.000000
# 4 0.000000 0.000000 0.000000 0.100710 0.000000 0.000000
# 5 0.000000 0.000000 0.000000 0.000000 0.100710 0.000000
# 6 -0.003455 0.003455 0.000000 0.000000 0.000000 0.045514
#
#
# Mechanical properties :
#
#
# Convention : Reuss Voigt Hill
#
# Bulk Modulus (GPa) = 36.52146 41.56456 39.04301
# Shear Modulus (GPa) = 13.23291 15.53199 14.38245
#
# Velocity S-wave (km/s) = 2.41588 2.61735 2.51863
# Velocity P-wave (km/s) = 4.88774 5.24084 5.06737
#
# Compressibility (1/GPa) = 0.02738116
#
# Stress axis : x y z
#
# Youngs Moduli (GPa) = 53.85002 53.85002 26.70730
#
# Poissons Ratio (x) = 0.26523 0.24939
# Poissons Ratio (y) = 0.26523 0.24939
# Poissons Ratio (z) = 0.50284 0.50284
#
# Static dielectric constant tensor:
#      x y z
#    x 1.928170 0.000000 0.000000 
#    y 0.000000 1.928170 0.000000 
#    z 0.000000 0.000000 2.026190 
# 
# From -- ./inp_files/4744.got.cif
#   From: 2010.05.17/outbox.cif.g08.bks.cpg/sg88_3_cif.got.tgz:4744.got - 2010.06.03 19:11:41.
