data_PCOD9546799
_publ_section_title
;
Structure prediction by ZEFSAII (Michael W. Deem and Ramdas Pophale) SiO2 
 PCOD9546799
Probable space group: I 41/A
;
_chemical_formula_sum "Si O2"
_cell_formula_units_Z 48
_cell_length_a 10.481889
_cell_length_b 10.481889
_cell_length_c 18.207333
_cell_angle_alpha 90.000000
_cell_angle_beta 90.000000
_cell_angle_gamma 90.000000
_cell_volume 2000.439622
_symmetry_space_group_name_H-M "I 41/A"
_symmetry_group_IT_number 88
_space_group.IT_coordinate_system_code '2'
_symmetry_cell_setting 'tetragonal'
loop_
_space_group_symop_operation_xyz
x,y,z
3/4-y,1/4+x,1/4+z
-x,1/2-y,z
1/4+y,1/4-x,1/4+z
-x,-y,-z
1/4+y,3/4-x,3/4-z
x,1/2+y,-z
3/4-y,3/4+x,3/4-z
1/2+x,1/2+y,1/2+z
1/4-y,3/4+x,3/4+z
1/2-x,-y,1/2+z
3/4+y,3/4-x,3/4+z
1/2-x,1/2-y,1/2-z
3/4+y,1/4-x,1/4-z
1/2+x,y,1/2-z
1/4-y,1/4+x,1/4-z
loop_
_atom_site_type_symbol
_atom_site_label
_atom_site_fract_x
_atom_site_fract_y
_atom_site_fract_z
Si Si1 0.246933 0.107792 0.673798
Si Si2 0.309747 0.269965 0.971795
Si Si3 0.832544 0.850601 0.891799
O O1 0.354037 0.116613 0.737265
O O2 0.270583 0.185390 0.599011
O O3 0.101938 0.141567 0.695496
O O4 0.253266 0.960277 0.647676
O O5 0.227198 0.202405 0.034518
O O6 0.847193 0.724155 0.842795
#
# Coordination Sequence:
#
# PCOD9546799 Si02
#       3
#    16  16  16
#     4  11  24  48  73 108 146 192 245 302 362 437
#     4  11  24  48  73 109 147 194 243 302 365 434
#     4   9  20  44  69 105 143 189 246 297 355 430
#
# _framework density 23.994726
#
# number of rings (size 3 to 8) (size 9 to 14) (size 15 to 20)
#    0.000    1.667    3.333    0.000    0.000    3.333 
#   36.000    0.000    0.000    0.000    0.000    0.000 
#    0.000    0.000    0.000    0.000    0.000    0.000 
#
# Total GULP energy -134031.563722 kJ/mol
# GULP energy per Si atom -5584.648488 kJ/mol
# Density = 2.394011 g / cm^3
# Si number density = 23.994726 Si / 1000 Ang^3
#
#
#
# Elastic Constant Matrix: (Units=GPa)
#
#
# Indices 1 2 3 4 5 6 
#
# 1 117.5912 32.3857 40.3341 0.0000 0.0000 -9.3656
# 2 32.3857 117.5912 40.3341 0.0000 0.0000 9.3656
# 3 40.3341 40.3341 75.5964 0.0000 0.0000 0.0000
# 4 0.0000 0.0000 0.0000 21.4495 0.0000 0.0000
# 5 0.0000 0.0000 0.0000 0.0000 21.4495 0.0000
# 6 -9.3656 9.3656 0.0000 0.0000 0.0000 11.4337
#
#
#
# Elastic Compliance Matrix: (Units=1/GPa)
#
#
# Indices 1 2 3 4 5 6 
#
# 1 0.011833 -0.002481 -0.004989 0.000000 0.000000 0.011725
# 2 -0.002481 0.011833 -0.004989 0.000000 0.000000 -0.011725
# 3 -0.004989 -0.004989 0.018552 0.000000 0.000000 0.000000
# 4 0.000000 0.000000 0.000000 0.046621 0.000000 0.000000
# 5 0.000000 0.000000 0.000000 0.000000 0.046621 0.000000
# 6 0.011725 -0.011725 0.000000 0.000000 0.000000 0.106669
#
#
# Mechanical properties :
#
#
# Convention : Reuss Voigt Hill
#
# Bulk Modulus (GPa) = 57.81192 59.65405 58.73299
# Shear Modulus (GPa) = 18.32747 24.04820 21.18783
#
# Velocity S-wave (km/s) = 2.76671 3.16923 2.97479
# Velocity P-wave (km/s) = 5.86107 6.18929 6.02742
#
# Compressibility (1/GPa) = 0.01729747
#
# Stress axis : x y z
#
# Youngs Moduli (GPa) = 84.51240 84.51241 53.90190
#
# Poissons Ratio (x) = 0.20970 0.26894
# Poissons Ratio (y) = 0.20970 0.26894
# Poissons Ratio (z) = 0.42166 0.42166
#
# Static dielectric constant tensor:
#      x y z
#    x 1.934930 0.000000 0.000000 
#    y 0.000000 1.934930 0.000000 
#    z 0.000000 0.000000 2.009970 
# 
# From -- ./inp_files/3580.got.cif
#   From: 2010.05.17/outbox.cif.g08.bks.cpg/sg88_2_cif.got.tgz:3580.got - 2010.06.03 19:11:41.
