data_PCOD9546760
_publ_section_title
;
Structure prediction by ZEFSAII (Michael W. Deem and Ramdas Pophale) SiO2 
 PCOD9546760
Probable space group: I 41/A
;
_chemical_formula_sum "Si O2"
_cell_formula_units_Z 76
_cell_length_a 14.154693
_cell_length_b 14.154693
_cell_length_c 19.570449
_cell_angle_alpha 90.000000
_cell_angle_beta 90.000000
_cell_angle_gamma 90.000000
_cell_volume 3921.043844
_symmetry_space_group_name_H-M "I 41/A"
_symmetry_group_IT_number 88
_space_group.IT_coordinate_system_code '2'
_symmetry_cell_setting 'tetragonal'
loop_
_space_group_symop_operation_xyz
x,y,z
3/4-y,1/4+x,1/4+z
-x,1/2-y,z
1/4+y,1/4-x,1/4+z
-x,-y,-z
1/4+y,3/4-x,3/4-z
x,1/2+y,-z
3/4-y,3/4+x,3/4-z
1/2+x,1/2+y,1/2+z
1/4-y,3/4+x,3/4+z
1/2-x,-y,1/2+z
3/4+y,3/4-x,3/4+z
1/2-x,1/2-y,1/2-z
3/4+y,1/4-x,1/4-z
1/2+x,y,1/2-z
1/4-y,1/4+x,1/4-z
loop_
_atom_site_type_symbol
_atom_site_label
_atom_site_fract_x
_atom_site_fract_y
_atom_site_fract_z
Si Si1 0.000000 0.750000 0.875000
Si Si2 0.262538 0.471258 0.888811
Si Si3 0.070732 0.566439 0.933276
Si Si4 0.171997 0.825487 0.657234
Si Si5 0.500000 0.750000 0.319715
Si Si6 0.186746 0.343181 0.763080
O O1 0.933851 0.825951 0.910836
O O2 0.167972 0.510089 0.924977
O O3 0.305510 0.564958 0.853675
O O4 0.230396 0.397519 0.829768
O O5 0.335865 0.437724 0.947617
O O6 0.995644 0.506762 0.888242
O O7 0.051411 0.580405 0.013165
O O8 0.077852 0.800198 0.617030
O O9 0.581035 0.805161 0.277910
O O10 0.250000 0.250000 0.750000
#
# Coordination Sequence:
#
# PCOD9546760 Si02
#       6
#     4  16  16  16   8  16
#     4  12  22  36  64 108 142 168 224 278 356 426
#     4  12  24  47  73 100 145 187 239 295 357 430
#     4  11  23  39  67 105 139 181 221 291 360 421
#     4  11  23  43  69  99 139 180 232 289 354 418
#     4  12  25  48  71 103 143 190 244 300 358 423
#     4  12  28  48  74 105 142 196 246 304 360 431
#
# _framework density 19.382593
#
# number of rings (size 3 to 8) (size 9 to 14) (size 15 to 20)
#    0.000    0.421    8.421    0.632    0.000    1.684 
#    7.579    0.000    0.000    0.000    0.000    0.000 
#    0.000    0.000    0.000    0.000    0.000    0.000 
#
# Total GULP energy -211732.583031 kJ/mol
# GULP energy per Si atom -5571.910080 kJ/mol
# Density = 1.933848 g / cm^3
# Si number density = 19.382593 Si / 1000 Ang^3
#
#
#
# Elastic Constant Matrix: (Units=GPa)
#
#
# Indices 1 2 3 4 5 6 
#
# 1 142.9324 57.0635 49.0797 0.0000 0.0000 -5.7834
# 2 57.0635 142.9324 49.0797 0.0000 0.0000 5.7834
# 3 49.0797 49.0797 72.6729 0.0000 0.0000 0.0000
# 4 0.0000 0.0000 0.0000 23.3935 0.0000 0.0000
# 5 0.0000 0.0000 0.0000 0.0000 23.3935 0.0000
# 6 -5.7834 5.7834 0.0000 0.0000 0.0000 56.0779
#
#
#
# Elastic Compliance Matrix: (Units=1/GPa)
#
#
# Indices 1 2 3 4 5 6 
#
# 1 0.009644 -0.002165 -0.005051 0.000000 0.000000 0.001218
# 2 -0.002165 0.009644 -0.005051 0.000000 0.000000 -0.001218
# 3 -0.005051 -0.005051 0.020583 0.000000 0.000000 0.000000
# 4 0.000000 0.000000 0.000000 0.042747 0.000000 0.000000
# 5 0.000000 0.000000 0.000000 0.000000 0.042747 0.000000
# 6 0.001218 -0.001218 0.000000 0.000000 0.000000 0.018084
#
#
# Mechanical properties :
#
#
# Convention : Reuss Voigt Hill
#
# Bulk Modulus (GPa) = 65.20238 74.33151 69.76695
# Shear Modulus (GPa) = 28.88567 34.12730 31.50649
#
# Velocity S-wave (km/s) = 3.86461 4.20064 4.03613
# Velocity P-wave (km/s) = 7.32300 7.87147 7.60219
#
# Compressibility (1/GPa) = 0.01533686
#
# Stress axis : x y z
#
# Youngs Moduli (GPa) = 103.68636 103.68637 48.58418
#
# Poissons Ratio (x) = 0.22451 0.24540
# Poissons Ratio (y) = 0.22451 0.24540
# Poissons Ratio (z) = 0.52373 0.52373
#
# Static dielectric constant tensor:
#      x y z
#    x 1.682800 0.000000 0.000000 
#    y 0.000000 1.682800 0.000000 
#    z 0.000000 0.000000 1.710060 
# 
# From -- ./inp_files/4561.got.cif
#   From: 2010.05.17/outbox.cif.g08.bks.cpg/sg88_3_cif.got.tgz:4561.got - 2010.06.03 19:11:41.
