data_PCOD9546545
_publ_section_title
;
Structure prediction by ZEFSAII (Michael W. Deem and Ramdas Pophale) SiO2 
 PCOD9546545
Probable space group: I 41/A
;
_chemical_formula_sum "Si O2"
_cell_formula_units_Z 96
_cell_length_a 18.053546
_cell_length_b 18.053546
_cell_length_c 15.911151
_cell_angle_alpha 90.000000
_cell_angle_beta 90.000000
_cell_angle_gamma 90.000000
_cell_volume 5185.929770
_symmetry_space_group_name_H-M "I 41/A"
_symmetry_group_IT_number 88
_space_group.IT_coordinate_system_code '2'
_symmetry_cell_setting 'tetragonal'
loop_
_space_group_symop_operation_xyz
x,y,z
3/4-y,1/4+x,1/4+z
-x,1/2-y,z
1/4+y,1/4-x,1/4+z
-x,-y,-z
1/4+y,3/4-x,3/4-z
x,1/2+y,-z
3/4-y,3/4+x,3/4-z
1/2+x,1/2+y,1/2+z
1/4-y,3/4+x,3/4+z
1/2-x,-y,1/2+z
3/4+y,3/4-x,3/4+z
1/2-x,1/2-y,1/2-z
3/4+y,1/4-x,1/4-z
1/2+x,y,1/2-z
1/4-y,1/4+x,1/4-z
loop_
_atom_site_type_symbol
_atom_site_label
_atom_site_fract_x
_atom_site_fract_y
_atom_site_fract_z
Si Si1 0.057936 0.389200 0.047148
Si Si2 0.017964 0.164505 0.345470
Si Si3 0.251742 0.563434 0.779177
Si Si4 0.893291 0.862376 0.975443
Si Si5 0.925184 0.959648 0.528803
Si Si6 0.206301 0.063937 0.596447
O O1 0.110094 0.460644 0.047922
O O2 0.064033 0.358709 0.141446
O O3 0.973094 0.401314 0.023453
O O4 0.084161 0.328342 0.979498
O O5 0.941698 0.134294 0.304850
O O6 0.000000 0.250000 0.369997
O O7 0.050401 0.112386 0.417725
O O8 0.323254 0.583239 0.723803
O O9 0.283326 0.513257 0.853850
O O10 0.191643 0.514656 0.729719
O O11 0.873144 0.935274 0.449989
O O12 0.877379 0.015834 0.588957
O O13 0.000000 0.000000 0.500000
#
# Coordination Sequence:
#
# PCOD9546545 Si02
#       6
#    16  16  16  16  16  16
#     4  11  20  34  56  87 124 155 189 240 300 363
#     4  10  22  39  61  90 126 163 198 250 313 369
#     4  11  20  38  57  88 120 150 205 246 301 367
#     4  11  21  34  57  88 121 159 192 239 304 368
#     4  11  23  46  65  92 125 165 217 265 316 376
#     4  10  23  39  67  87 118 165 202 266 316 354
#
# _framework density 18.511628000000002
#
# number of rings (size 3 to 8) (size 9 to 14) (size 15 to 20)
#    0.000    1.333    5.000    1.500    0.000    0.000 
#    3.000    0.000    0.000    0.000    0.000    0.000 
#    0.000    0.000    0.000    0.000    0.000    0.000 
#
# Total GULP energy -267544.205732 kJ/mol
# GULP energy per Si atom -5573.837619 kJ/mol
# Density = 1.846949 g / cm^3
# Si number density = 18.511628 Si / 1000 Ang^3
#
#
#
# Elastic Constant Matrix: (Units=GPa)
#
#
# Indices 1 2 3 4 5 6 
#
# 1 95.7918 61.0746 45.3905 0.0000 0.0000 7.3395
# 2 61.0746 95.7918 45.3905 0.0000 0.0000 -7.3395
# 3 45.3905 45.3905 78.3186 0.0000 0.0000 0.0000
# 4 0.0000 0.0000 0.0000 34.1808 0.0000 0.0000
# 5 0.0000 0.0000 0.0000 0.0000 34.1808 0.0000
# 6 7.3395 -7.3395 0.0000 0.0000 0.0000 26.6918
#
#
#
# Elastic Compliance Matrix: (Units=1/GPa)
#
#
# Indices 1 2 3 4 5 6 
#
# 1 0.021093 -0.011501 -0.005559 0.000000 0.000000 -0.008962
# 2 -0.011501 0.021093 -0.005559 0.000000 0.000000 0.008962
# 3 -0.005559 -0.005559 0.019212 0.000000 0.000000 0.000000
# 4 0.000000 0.000000 0.000000 0.029256 0.000000 0.000000
# 5 0.000000 0.000000 0.000000 0.000000 0.029256 0.000000
# 6 -0.008962 0.008962 0.000000 0.000000 0.000000 0.042394
#
#
# Mechanical properties :
#
#
# Convention : Reuss Voigt Hill
#
# Bulk Modulus (GPa) = 61.88314 63.73482 62.80898
# Shear Modulus (GPa) = 23.48204 26.88043 25.18124
#
# Velocity S-wave (km/s) = 3.56547 3.81476 3.69222
# Velocity P-wave (km/s) = 7.10296 7.34217 7.22355
#
# Compressibility (1/GPa) = 0.01615949
#
# Stress axis : x y z
#
# Youngs Moduli (GPa) = 47.40943 47.40943 52.05040
#
# Poissons Ratio (x) = 0.54525 0.28936
# Poissons Ratio (y) = 0.54525 0.28936
# Poissons Ratio (z) = 0.26356 0.26356
#
# Static dielectric constant tensor:
#      x y z
#    x 1.641360 0.000000 0.000000 
#    y 0.000000 1.641360 0.000000 
#    z 0.000000 0.000000 1.656220 
# 
# From -- ./inp_files/3923.got.cif
#   From: 2010.05.17/outbox.cif.g08.bks.cpg/sg88_2_cif.got.tgz:3923.got - 2010.06.03 19:11:41.
