data_PCOD9546127
_publ_section_title
;
Structure prediction by ZEFSAII (Michael W. Deem and Ramdas Pophale) SiO2 
 PCOD9546127
Probable space group: I 4/M
;
_chemical_formula_sum "Si O2"
_cell_formula_units_Z 72
_cell_length_a 16.874235
_cell_length_b 16.874235
_cell_length_c 13.831793
_cell_angle_alpha 90.000000
_cell_angle_beta 90.000000
_cell_angle_gamma 90.000000
_cell_volume 3938.462067
_symmetry_space_group_name_H-M "I 4/M"
_symmetry_group_IT_number 87
_symmetry_cell_setting 'tetragonal'
loop_
_space_group_symop_operation_xyz
x,y,z
-y,x,z
-x,-y,z
y,-x,z
-x,-y,-z
y,-x,-z
x,y,-z
-y,x,-z
1/2+x,1/2+y,1/2+z
1/2-y,1/2+x,1/2+z
1/2-x,1/2-y,1/2+z
1/2+y,1/2-x,1/2+z
1/2-x,1/2-y,1/2-z
1/2+y,1/2-x,1/2-z
1/2+x,1/2+y,1/2-z
1/2-y,1/2+x,1/2-z
loop_
_atom_site_type_symbol
_atom_site_label
_atom_site_fract_x
_atom_site_fract_y
_atom_site_fract_z
Si Si1 0.507071 0.838109 0.500000
Si Si2 0.896362 0.441994 0.706231
Si Si3 0.392463 0.574204 0.709847
Si Si4 0.743946 0.161694 0.707753
Si Si5 0.702172 0.820144 0.000000
Si Si6 0.891203 0.823597 0.000000
O O1 0.529380 0.885650 0.596602
O O2 0.414185 0.816054 0.500000
O O3 0.558204 0.757128 0.500000
O O4 0.898689 0.520582 0.773091
O O5 0.823873 0.386311 0.735395
O O6 0.393202 0.480314 0.728035
O O7 0.326547 0.618014 0.772757
O O8 0.371001 0.588399 0.597335
O O9 0.750000 0.250000 0.750000
O O10 0.718658 0.167362 0.596502
O O11 0.797136 0.808134 0.000000
#
# Coordination Sequence:
#
# PCOD9546127 Si02
#       6
#     8  16  16  16   8   8
#     4  12  22  42  68  97 139 176 226 279 342 410
#     4  11  25  42  67  97 134 179 225 278 339 402
#     4  11  24  42  69 101 133 172 223 281 334 396
#     4  12  25  43  69  97 136 179 221 273 341 406
#     4  12  24  43  68 100 132 182 223 277 341 410
#     4  12  22  37  69  99 134 171 219 275 343 402
#
# _framework density 18.281245999999999
#
# number of rings (size 3 to 8) (size 9 to 14) (size 15 to 20)
#    0.000    0.444    6.667    2.000    3.111    3.556 
#    0.000    1.111    0.000    1.333    0.000    0.000 
#    0.000    0.000    0.000    0.000    0.000    0.000 
#
# Total GULP energy -201385.474950 kJ/mol
# GULP energy per Si atom -5594.040971 kJ/mol
# Density = 1.823964 g / cm^3
# Si number density = 18.281246 Si / 1000 Ang^3
#
#
#
# Elastic Constant Matrix: (Units=GPa)
#
#
# Indices 1 2 3 4 5 6 
#
# 1 131.7074 95.7394 71.5469 0.0000 0.0000 -10.1686
# 2 95.7394 131.7074 71.5469 0.0000 0.0000 10.1686
# 3 71.5469 71.5469 155.6314 0.0000 0.0000 0.0000
# 4 0.0000 0.0000 0.0000 33.8864 0.0000 0.0000
# 5 0.0000 0.0000 0.0000 0.0000 33.8864 0.0000
# 6 -10.1686 10.1686 0.0000 0.0000 0.0000 36.3871
#
#
#
# Elastic Compliance Matrix: (Units=1/GPa)
#
#
# Indices 1 2 3 4 5 6 
#
# 1 0.019603 -0.013417 -0.002844 0.000000 0.000000 0.009228
# 2 -0.013417 0.019603 -0.002844 0.000000 0.000000 -0.009228
# 3 -0.002844 -0.002844 0.009040 0.000000 0.000000 0.000000
# 4 0.000000 0.000000 0.000000 0.029510 0.000000 0.000000
# 5 0.000000 0.000000 0.000000 0.000000 0.029510 0.000000
# 6 0.009228 -0.009228 0.000000 0.000000 0.000000 0.032640
#
#
# Mechanical properties :
#
#
# Convention : Reuss Voigt Hill
#
# Bulk Modulus (GPa) = 99.63469 99.63475 99.63472
# Shear Modulus (GPa) = 27.55415 32.84618 30.20016
#
# Velocity S-wave (km/s) = 3.88653 4.24337 4.06886
# Velocity P-wave (km/s) = 8.64636 8.86722 8.75748
#
# Compressibility (1/GPa) = 0.01003666
#
# Stress axis : x y z
#
# Youngs Moduli (GPa) = 51.01298 51.01298 110.61902
#
# Poissons Ratio (x) = 0.68445 0.31457
# Poissons Ratio (y) = 0.68445 0.31457
# Poissons Ratio (z) = 0.14506 0.14506
#
# Static dielectric constant tensor:
#      x y z
#    x 1.614760 0.000000 0.000000 
#    y 0.000000 1.614760 0.000000 
#    z 0.000000 0.000000 1.607450 
# 
# From -- ./inp_files/2496.got.cif
#   From: 2010.05.17/outbox.cif.g08.bks.cpg/sg87_2_cif.got.tgz:2496.got - 2010.06.03 19:07:00.
