data_PCOD9546180
_publ_section_title
;
Structure prediction by ZEFSAII (Michael W. Deem and Ramdas Pophale) SiO2 
 PCOD9546180
Probable space group: I 4/M
;
_chemical_formula_sum "Si O2"
_cell_formula_units_Z 60
_cell_length_a 27.000000
_cell_length_b 27.000000
_cell_length_c 9.000000
_cell_angle_alpha 90.000000
_cell_angle_beta 90.000000
_cell_angle_gamma 90.000000
_cell_volume 6561.000000
_symmetry_space_group_name_H-M "I 4/M"
_symmetry_group_IT_number 87
_symmetry_cell_setting 'tetragonal'
loop_
_space_group_symop_operation_xyz
x,y,z
-y,x,z
-x,-y,z
y,-x,z
-x,-y,-z
y,-x,-z
x,y,-z
-y,x,-z
1/2+x,1/2+y,1/2+z
1/2-y,1/2+x,1/2+z
1/2-x,1/2-y,1/2+z
1/2+y,1/2-x,1/2+z
1/2-x,1/2-y,1/2-z
1/2+y,1/2-x,1/2-z
1/2+x,1/2+y,1/2-z
1/2-y,1/2+x,1/2-z
loop_
_atom_site_type_symbol
_atom_site_label
_atom_site_fract_x
_atom_site_fract_y
_atom_site_fract_z
Si Si1 0.263549 0.451285 0.677843
Si Si2 0.631957 0.791850 0.823801
Si Si3 0.160034 0.736819 0.819589
Si Si4 0.470453 0.184946 0.321491
Si Si5 0.921472 0.125093 0.814364
Si Si6 0.998827 0.425190 0.178535
Si Si7 0.820085 0.160613 0.322131
Si Si8 0.069533 0.046337 0.500000
O O1 0.259035 0.453169 0.500000
O O2 0.240714 0.398133 0.721223
O O3 0.231065 0.496699 0.736697
O O4 0.322286 0.449704 0.707071
O O5 0.684116 0.816619 0.779336
O O6 0.584356 0.813669 0.743681
O O7 0.635091 0.732820 0.798776
O O8 0.626973 0.800156 0.000000
O O9 0.184513 0.782700 0.733465
O O10 0.164567 0.743500 0.000000
O O11 0.466796 0.188330 0.500000
O O12 0.497134 0.132902 0.288066
O O13 0.863785 0.136564 0.777026
O O14 0.938151 0.092858 0.665333
O O15 0.926290 0.112244 0.000000
O O16 0.047300 0.453223 0.241890
O O17 0.995659 0.431876 0.000000
O O18 0.832014 0.158930 0.500000
O O19 0.013438 0.067098 0.500000
#
# Coordination Sequence:
#
# PCOD9546180 Si02
#       8
#    16  16  16  16  16  16  16   8
#     4   8  17  36  59  83 113 153 203 248 299 371
#     4  10  22  35  52  83 121 158 196 247 306 364
#     4   9  18  34  57  81 111 158 202 242 305 374
#     4  10  22  37  54  82 115 151 198 253 306 363
#     4  10  21  42  70  95 125 172 212 245 314 375
#     4  10  21  37  59  80 106 148 197 253 309 368
#     4  10  19  35  58  90 125 156 202 251 303 368
#     4  11  26  46  68 100 136 164 206 265 304 354
#
# _framework density 9.1449470000000002
#
# number of rings (size 3 to 8) (size 9 to 14) (size 15 to 20)
#    0.000    2.333    0.667    2.400    1.867    4.267 
#    1.200    2.000    0.000    0.000    0.000    0.000 
#    0.000    0.000    0.000    0.000    0.000    0.000 
#
# Total GULP energy -334145.188494 kJ/mol
# GULP energy per Si atom -5569.086475 kJ/mol
# Density = 0.912413 g / cm^3
# Si number density = 9.144947 Si / 1000 Ang^3
#
#
#
# Elastic Constant Matrix: (Units=GPa)
#
#
# Indices 1 2 3 4 5 6 
#
# 1 43.2882 13.3856 20.4985 0.0000 0.0000 3.4967
# 2 13.3856 43.2882 20.4985 0.0000 0.0000 -3.4967
# 3 20.4985 20.4985 68.0002 0.0000 0.0000 0.0000
# 4 0.0000 0.0000 0.0000 31.3674 0.0000 0.0000
# 5 0.0000 0.0000 0.0000 0.0000 31.3674 0.0000
# 6 3.4967 -3.4967 0.0000 0.0000 0.0000 20.4411
#
#
#
# Elastic Compliance Matrix: (Units=1/GPa)
#
#
# Indices 1 2 3 4 5 6 
#
# 1 0.028701 -0.006135 -0.006802 0.000000 0.000000 -0.005959
# 2 -0.006135 0.028701 -0.006802 0.000000 0.000000 0.005959
# 3 -0.006802 -0.006802 0.018807 0.000000 0.000000 0.000000
# 4 0.000000 0.000000 0.000000 0.031880 0.000000 0.000000
# 5 0.000000 0.000000 0.000000 0.000000 0.031880 0.000000
# 6 -0.005959 0.005959 0.000000 0.000000 0.000000 0.050960
#
#
# Mechanical properties :
#
#
# Convention : Reuss Voigt Hill
#
# Bulk Modulus (GPa) = 27.22665 29.26019 28.24342
# Shear Modulus (GPa) = 20.60578 23.31480 21.96029
#
# Velocity S-wave (km/s) = 3.36016 3.57422 3.46884
# Velocity P-wave (km/s) = 5.47473 5.75032 5.61422
#
# Compressibility (1/GPa) = 0.03672872
#
# Stress axis : x y z
#
# Youngs Moduli (GPa) = 34.84257 34.84257 53.17194
#
# Poissons Ratio (x) = 0.21376 0.36169
# Poissons Ratio (y) = 0.21376 0.36169
# Poissons Ratio (z) = 0.23701 0.23701
#
# Static dielectric constant tensor:
#      x y z
#    x 1.637720 0.000000 0.000000 
#    y 0.000000 1.637720 0.000000 
#    z 0.000000 0.000000 1.636770 
# 
# From -- ./inp_files/1693.got.cif
#   From: 2010.05.17/outbox.ucp.g08.bks.cvg/sg87_1_cif.got.tgz:1693.got - 2010.06.11 10:35:24.
