data_PCOD9546378
_publ_section_title
;
Structure prediction by ZEFSAII (Michael W. Deem and Ramdas Pophale) SiO2 
 PCOD9546378
Probable space group: I 41/A
;
_chemical_formula_sum "Si O2"
_cell_formula_units_Z 128
_cell_length_a 24.667445
_cell_length_b 24.667445
_cell_length_c 10.012161
_cell_angle_alpha 90.000000
_cell_angle_beta 90.000000
_cell_angle_gamma 90.000000
_cell_volume 6092.228188
_symmetry_space_group_name_H-M "I 41/A"
_symmetry_group_IT_number 88
_space_group.IT_coordinate_system_code '2'
_symmetry_cell_setting 'tetragonal'
loop_
_space_group_symop_operation_xyz
x,y,z
3/4-y,1/4+x,1/4+z
-x,1/2-y,z
1/4+y,1/4-x,1/4+z
-x,-y,-z
1/4+y,3/4-x,3/4-z
x,1/2+y,-z
3/4-y,3/4+x,3/4-z
1/2+x,1/2+y,1/2+z
1/4-y,3/4+x,3/4+z
1/2-x,-y,1/2+z
3/4+y,3/4-x,3/4+z
1/2-x,1/2-y,1/2-z
3/4+y,1/4-x,1/4-z
1/2+x,y,1/2-z
1/4-y,1/4+x,1/4-z
loop_
_atom_site_type_symbol
_atom_site_label
_atom_site_fract_x
_atom_site_fract_y
_atom_site_fract_z
Si Si1 0.110996 0.842508 0.294466
Si Si2 0.799834 0.631447 0.098851
Si Si3 0.262038 0.825021 0.711008
Si Si4 0.015304 0.006552 0.227663
Si Si5 0.616098 0.465233 0.081892
Si Si6 0.204343 0.973079 0.939460
Si Si7 0.115699 0.564045 0.209273
Si Si8 0.479629 0.091625 0.927491
O O1 0.145147 0.875426 0.183301
O O2 0.140350 0.848797 0.437497
O O3 0.053798 0.870013 0.324916
O O4 0.122373 0.779111 0.266972
O O5 0.750213 0.623426 0.199838
O O6 0.796632 0.692593 0.047011
O O7 0.788712 0.589283 0.983086
O O8 0.285724 0.784258 0.598991
O O9 0.269755 0.799933 0.855613
O O10 0.273344 0.888683 0.696494
O O11 0.198880 0.825050 0.661460
O O12 0.001283 0.960880 0.339337
O O13 0.664011 0.421982 0.099775
O O14 0.560348 0.433240 0.042345
O O15 0.617729 0.510103 0.197969
O O16 0.237378 0.979022 0.802456
#
# Coordination Sequence:
#
# PCOD9546378 Si02
#       8
#    16  16  16  16  16  16  16  16
#     4  10  21  36  63  83 118 151 202 263 325 380
#     4  10  22  39  62  86 120 170 211 254 322 385
#     4  11  23  37  58  84 118 169 211 257 306 372
#     4  10  21  41  62  81 119 162 220 260 301 381
#     4   9  22  33  56  79 122 154 201 251 309 373
#     4  12  28  42  62  98 142 180 215 264 336 412
#     4  10  21  35  50  84 113 157 198 250 298 371
#     4  10  20  39  58  90 112 152 202 263 323 381
#
# _framework density 21.010373999999999
#
# number of rings (size 3 to 8) (size 9 to 14) (size 15 to 20)
#    0.000    1.750    2.500    0.750   10.500    1.750 
#    0.000    0.000    0.000    0.000    0.000    0.000 
#    0.000    0.000    0.000    0.000    0.000    0.000 
#
# Total GULP energy -356815.531133 kJ/mol
# GULP energy per Si atom -5575.242674 kJ/mol
# Density = 2.096255 g / cm^3
# Si number density = 21.010374 Si / 1000 Ang^3
#
#
#
# Elastic Constant Matrix: (Units=GPa)
#
#
# Indices 1 2 3 4 5 6 
#
# 1 75.8327 27.2964 14.6227 0.0000 0.0000 -0.7701
# 2 27.2964 75.8327 14.6227 0.0000 0.0000 0.7701
# 3 14.6227 14.6227 59.6568 0.0000 0.0000 0.0000
# 4 0.0000 0.0000 0.0000 24.1451 0.0000 0.0000
# 5 0.0000 0.0000 0.0000 0.0000 24.1451 0.0000
# 6 -0.7701 0.7701 0.0000 0.0000 0.0000 27.4639
#
#
#
# Elastic Compliance Matrix: (Units=1/GPa)
#
#
# Indices 1 2 3 4 5 6 
#
# 1 0.015521 -0.005100 -0.002554 0.000000 0.000000 0.000578
# 2 -0.005100 0.015521 -0.002554 0.000000 0.000000 -0.000578
# 3 -0.002554 -0.002554 0.018015 0.000000 0.000000 0.000000
# 4 0.000000 0.000000 0.000000 0.041416 0.000000 0.000000
# 5 0.000000 0.000000 0.000000 0.000000 0.041416 0.000000
# 6 0.000578 -0.000578 0.000000 0.000000 0.000000 0.036444
#
#
# Mechanical properties :
#
#
# Convention : Reuss Voigt Hill
#
# Bulk Modulus (GPa) = 34.91699 36.04509 35.48104
# Shear Modulus (GPa) = 25.21458 25.46950 25.34204
#
# Velocity S-wave (km/s) = 3.46801 3.48549 3.47676
# Velocity P-wave (km/s) = 5.71761 5.77852 5.74815
#
# Compressibility (1/GPa) = 0.02863935
#
# Stress axis : x y z
#
# Youngs Moduli (GPa) = 64.42795 64.42795 55.51005
#
# Poissons Ratio (x) = 0.32860 0.14179
# Poissons Ratio (y) = 0.32860 0.14179
# Poissons Ratio (z) = 0.16457 0.16457
#
# Static dielectric constant tensor:
#      x y z
#    x 1.838450 0.000000 0.000000 
#    y 0.000000 1.838450 0.000000 
#    z 0.000000 0.000000 1.844590 
# 
# From -- ./inp_files/2751.got.cif
#   From: 2010.05.17/outbox.cif.g08.bks.cpg/sg88_2_cif.got.tgz:2751.got - 2010.06.03 19:11:41.
