data_PCOD9546811
_publ_section_title
;
Structure prediction by ZEFSAII (Michael W. Deem and Ramdas Pophale) SiO2 
 PCOD9546811
Probable space group: I 41/A
;
_chemical_formula_sum "Si O2"
_cell_formula_units_Z 72
_cell_length_a 17.770275
_cell_length_b 17.770275
_cell_length_c 10.323388
_cell_angle_alpha 90.000000
_cell_angle_beta 90.000000
_cell_angle_gamma 90.000000
_cell_volume 3259.947063
_symmetry_space_group_name_H-M "I 41/A"
_symmetry_group_IT_number 88
_space_group.IT_coordinate_system_code '2'
_symmetry_cell_setting 'tetragonal'
loop_
_space_group_symop_operation_xyz
x,y,z
3/4-y,1/4+x,1/4+z
-x,1/2-y,z
1/4+y,1/4-x,1/4+z
-x,-y,-z
1/4+y,3/4-x,3/4-z
x,1/2+y,-z
3/4-y,3/4+x,3/4-z
1/2+x,1/2+y,1/2+z
1/4-y,3/4+x,3/4+z
1/2-x,-y,1/2+z
3/4+y,3/4-x,3/4+z
1/2-x,1/2-y,1/2-z
3/4+y,1/4-x,1/4-z
1/2+x,y,1/2-z
1/4-y,1/4+x,1/4-z
loop_
_atom_site_type_symbol
_atom_site_label
_atom_site_fract_x
_atom_site_fract_y
_atom_site_fract_z
Si Si1 0.000000 0.250000 0.125000
Si Si2 0.642847 0.680741 0.268368
Si Si3 0.031836 0.510465 0.701915
Si Si4 0.000000 0.250000 0.625000
Si Si5 0.081699 0.042235 0.895381
Si Si6 0.123772 0.368521 0.087514
O O1 0.947788 0.185696 0.058672
O O2 0.700464 0.696726 0.154154
O O3 0.681899 0.719201 0.393725
O O4 0.565174 0.717978 0.219449
O O5 0.628798 0.593060 0.294832
O O6 0.101768 0.562427 0.733722
O O7 0.999659 0.467985 0.828243
O O8 0.107723 0.956579 0.909891
O O9 0.089710 0.089597 0.026944
#
# Coordination Sequence:
#
# PCOD9546811 Si02
#       6
#     4  16  16   4  16  16
#     4  12  24  46  68 108 130 192 242 300 340 414
#     4  11  25  47  73 107 146 182 244 295 352 429
#     4  11  25  48  72 104 146 191 238 298 350 427
#     4  12  24  42  80 102 132 200 230 288 358 420
#     4  12  24  47  69 109 144 185 237 299 354 429
#     4  12  27  45  75 101 148 188 240 297 360 427
#
# _framework density 22.086247
#
# number of rings (size 3 to 8) (size 9 to 14) (size 15 to 20)
#    0.000    0.444    6.667    0.667    0.000    7.111 
#    0.000    0.000    0.000    0.000    0.000    0.000 
#    0.000    0.000    0.000    0.000    0.000    0.000 
#
# Total GULP energy -201177.569291 kJ/mol
# GULP energy per Si atom -5588.265814 kJ/mol
# Density = 2.203598 g / cm^3
# Si number density = 22.086247 Si / 1000 Ang^3
#
#
#
# Elastic Constant Matrix: (Units=GPa)
#
#
# Indices 1 2 3 4 5 6 
#
# 1 140.3015 53.3269 32.7669 0.0000 0.0000 -8.7043
# 2 53.3269 140.3015 32.7669 0.0000 0.0000 8.7043
# 3 32.7669 32.7669 55.1804 0.0000 0.0000 0.0000
# 4 0.0000 0.0000 0.0000 22.0974 0.0000 0.0000
# 5 0.0000 0.0000 0.0000 0.0000 22.0974 0.0000
# 6 -8.7043 8.7043 0.0000 0.0000 0.0000 29.1916
#
#
#
# Elastic Compliance Matrix: (Units=1/GPa)
#
#
# Indices 1 2 3 4 5 6 
#
# 1 0.009345 -0.002882 -0.003838 0.000000 0.000000 0.003646
# 2 -0.002882 0.009345 -0.003838 0.000000 0.000000 -0.003646
# 3 -0.003838 -0.003838 0.022681 0.000000 0.000000 0.000000
# 4 0.000000 0.000000 0.000000 0.045254 0.000000 0.000000
# 5 0.000000 0.000000 0.000000 0.000000 0.045254 0.000000
# 6 0.003646 -0.003646 0.000000 0.000000 0.000000 0.036431
#
#
# Mechanical properties :
#
#
# Convention : Reuss Voigt Hill
#
# Bulk Modulus (GPa) = 49.37007 63.72273 56.54640
# Shear Modulus (GPa) = 25.48696 29.13880 27.31288
#
# Velocity S-wave (km/s) = 3.40070 3.63618 3.52041
# Velocity P-wave (km/s) = 6.14992 6.82228 6.49481
#
# Compressibility (1/GPa) = 0.02025519
#
# Stress axis : x y z
#
# Youngs Moduli (GPa) = 107.00374 107.00374 44.09043
#
# Poissons Ratio (x) = 0.30837 0.16923
# Poissons Ratio (y) = 0.30837 0.16923
# Poissons Ratio (z) = 0.41070 0.41070
#
# Static dielectric constant tensor:
#      x y z
#    x 1.790130 0.000000 0.000000 
#    y 0.000000 1.790130 0.000000 
#    z 0.000000 0.000000 1.849180 
# 
# From -- ./inp_files/2472.got.cif
#   From: 2010.05.17/outbox.cif.g08.bks.cpg/sg88_2_cif.got.tgz:2472.got - 2010.06.03 19:11:41.
