data_PCOD9546859
_publ_section_title
;
Structure prediction by ZEFSAII (Michael W. Deem and Ramdas Pophale) SiO2 
 PCOD9546859
Probable space group: I 41/A
;
_chemical_formula_sum "Si O2"
_cell_formula_units_Z 48
_cell_length_a 14.142435
_cell_length_b 14.142435
_cell_length_c 9.048705
_cell_angle_alpha 90.000000
_cell_angle_beta 90.000000
_cell_angle_gamma 90.000000
_cell_volume 1809.817622
_symmetry_space_group_name_H-M "I 41/A"
_symmetry_group_IT_number 88
_space_group.IT_coordinate_system_code '2'
_symmetry_cell_setting 'tetragonal'
loop_
_space_group_symop_operation_xyz
x,y,z
3/4-y,1/4+x,1/4+z
-x,1/2-y,z
1/4+y,1/4-x,1/4+z
-x,-y,-z
1/4+y,3/4-x,3/4-z
x,1/2+y,-z
3/4-y,3/4+x,3/4-z
1/2+x,1/2+y,1/2+z
1/4-y,3/4+x,3/4+z
1/2-x,-y,1/2+z
3/4+y,3/4-x,3/4+z
1/2-x,1/2-y,1/2-z
3/4+y,1/4-x,1/4-z
1/2+x,y,1/2-z
1/4-y,1/4+x,1/4-z
loop_
_atom_site_type_symbol
_atom_site_label
_atom_site_fract_x
_atom_site_fract_y
_atom_site_fract_z
Si Si1 0.336754 0.305096 0.518579
Si Si2 0.955865 0.113545 0.938344
Si Si3 0.164367 0.061771 0.542916
O O1 0.310064 0.312446 0.344655
O O2 0.432443 0.363632 0.559097
O O3 0.385358 0.203130 0.535895
O O4 0.249523 0.333406 0.623295
O O5 0.917612 0.089773 0.774648
O O6 0.250158 0.059284 0.653495
#
# Coordination Sequence:
#
# PCOD9546859 Si02
#       3
#    16  16  16
#     4   9  20  41  67  94 127 168 212 260 316 376
#     4   9  20  41  67  94 127 168 212 260 316 376
#     4  12  25  40  59  92 130 170 212 260 314 376
#
# _framework density 26.522009000000001
#
# number of rings (size 3 to 8) (size 9 to 14) (size 15 to 20)
#    0.000    2.000    0.000    5.000    0.000    5.333 
#    0.000   11.667    0.000    0.000    0.000    0.000 
#    0.000    0.000    0.000    0.000    0.000    0.000 
#
# Total GULP energy -133950.016420 kJ/mol
# GULP energy per Si atom -5581.250684 kJ/mol
# Density = 2.646164 g / cm^3
# Si number density = 26.522009 Si / 1000 Ang^3
#
#
#
# Elastic Constant Matrix: (Units=GPa)
#
#
# Indices 1 2 3 4 5 6 
#
# 1 76.4515 -1.9594 49.5322 0.0000 0.0000 -8.2696
# 2 -1.9594 76.4515 49.5322 0.0000 0.0000 8.2696
# 3 49.5322 49.5322 177.2953 0.0000 0.0000 0.0000
# 4 0.0000 0.0000 0.0000 66.4824 0.0000 0.0000
# 5 0.0000 0.0000 0.0000 0.0000 66.4824 0.0000
# 6 -8.2696 8.2696 0.0000 0.0000 0.0000 18.7240
#
#
#
# Elastic Compliance Matrix: (Units=1/GPa)
#
#
# Indices 1 2 3 4 5 6 
#
# 1 0.017712 0.003648 -0.005968 0.000000 0.000000 0.006211
# 2 0.003648 0.017712 -0.005968 0.000000 0.000000 -0.006211
# 3 -0.005968 -0.005968 0.008975 0.000000 0.000000 0.000000
# 4 0.000000 0.000000 0.000000 0.015042 0.000000 0.000000
# 5 0.000000 0.000000 0.000000 0.000000 0.015042 0.000000
# 6 0.006211 -0.006211 0.000000 0.000000 0.000000 0.058894
#
#
# Mechanical properties :
#
#
# Convention : Reuss Voigt Hill
#
# Bulk Modulus (GPa) = 35.93892 58.26759 47.10326
# Shear Modulus (GPa) = 31.40233 45.87733 38.63983
#
# Velocity S-wave (km/s) = 3.44468 4.16358 3.82107
# Velocity P-wave (km/s) = 5.42228 6.71797 6.10460
#
# Compressibility (1/GPa) = 0.02782499
#
# Stress axis : x y z
#
# Youngs Moduli (GPa) = 56.45934 56.45934 111.42438
#
# Poissons Ratio (x) = -0.20599 0.66493
# Poissons Ratio (y) = -0.20599 0.66493
# Poissons Ratio (z) = 0.33692 0.33692
#
# Static dielectric constant tensor:
#      x y z
#    x 2.183720 0.000000 0.000000 
#    y 0.000000 2.183720 0.000000 
#    z 0.000000 0.000000 2.142140 
# 
# From -- ./inp_files/1132.got.cif
#   From: 2010.05.17/outbox.cif.g08.bks.cpg/sg88_1_cif.got.tgz:1132.got - 2010.06.03 19:11:41.
