data_PCOD9546443
_publ_section_title
;
Structure prediction by ZEFSAII (Michael W. Deem and Ramdas Pophale) SiO2 
 PCOD9546443
Probable space group: I 41/A
;
_chemical_formula_sum "Si O2"
_cell_formula_units_Z 32
_cell_length_a 7.036296
_cell_length_b 7.036296
_cell_length_c 27.876151
_cell_angle_alpha 90.000000
_cell_angle_beta 90.000000
_cell_angle_gamma 90.000000
_cell_volume 1380.133222
_symmetry_space_group_name_H-M "I 41/A"
_symmetry_group_IT_number 88
_space_group.IT_coordinate_system_code '2'
_symmetry_cell_setting 'tetragonal'
loop_
_space_group_symop_operation_xyz
x,y,z
3/4-y,1/4+x,1/4+z
-x,1/2-y,z
1/4+y,1/4-x,1/4+z
-x,-y,-z
1/4+y,3/4-x,3/4-z
x,1/2+y,-z
3/4-y,3/4+x,3/4-z
1/2+x,1/2+y,1/2+z
1/4-y,3/4+x,3/4+z
1/2-x,-y,1/2+z
3/4+y,3/4-x,3/4+z
1/2-x,1/2-y,1/2-z
3/4+y,1/4-x,1/4-z
1/2+x,y,1/2-z
1/4-y,1/4+x,1/4-z
loop_
_atom_site_type_symbol
_atom_site_label
_atom_site_fract_x
_atom_site_fract_y
_atom_site_fract_z
Si Si1 0.500000 0.250000 0.153008
Si Si2 0.794111 0.944607 0.183629
Si Si3 0.000000 0.750000 0.256319
O O1 0.345541 0.376872 0.180825
O O2 0.628043 0.381955 0.117875
O O3 0.966872 0.933681 0.221846
O O4 0.671234 0.776149 0.206857
#
# Coordination Sequence:
#
# PCOD9546443 Si02
#       3
#     8  16   8
#     4  11  22  38  62  91 122 160 202 249 298 356
#     4  10  21  37  61  87 122 160 201 246 301 358
#     4   9  20  41  60  85 122 166 200 243 304 361
#
# _framework density 23.186164999999999
#
# number of rings (size 3 to 8) (size 9 to 14) (size 15 to 20)
#    0.000    2.000    0.000    3.000    0.000    3.000 
#    0.000    0.000    0.000    0.000    0.000    0.000 
#    0.000    0.000    0.000    0.000    0.000    0.000 
#
# Total GULP energy -89104.085293 kJ/mol
# GULP energy per Si atom -5569.005331 kJ/mol
# Density = 2.313339 g / cm^3
# Si number density = 23.186165 Si / 1000 Ang^3
#
#
#
# Elastic Constant Matrix: (Units=GPa)
#
#
# Indices 1 2 3 4 5 6 
#
# 1 97.4761 53.2026 42.8548 0.0000 0.0000 2.0111
# 2 53.2026 97.4761 42.8548 0.0000 0.0000 -2.0111
# 3 42.8548 42.8548 86.4340 0.0000 0.0000 0.0000
# 4 0.0000 0.0000 0.0000 31.2933 0.0000 0.0000
# 5 0.0000 0.0000 0.0000 0.0000 31.2933 0.0000
# 6 2.0111 -2.0111 0.0000 0.0000 0.0000 64.6141
#
#
#
# Elastic Compliance Matrix: (Units=1/GPa)
#
#
# Indices 1 2 3 4 5 6 
#
# 1 0.015947 -0.006704 -0.004583 0.000000 0.000000 -0.000705
# 2 -0.006704 0.015947 -0.004583 0.000000 0.000000 0.000705
# 3 -0.004583 -0.004583 0.016114 0.000000 0.000000 0.000000
# 4 0.000000 0.000000 0.000000 0.031956 0.000000 0.000000
# 5 0.000000 0.000000 0.000000 0.000000 0.031956 0.000000
# 6 -0.000705 0.000705 0.000000 0.000000 0.000000 0.015520
#
#
# Mechanical properties :
#
#
# Convention : Reuss Voigt Hill
#
# Bulk Modulus (GPa) = 61.46617 62.13450 61.80034
# Shear Modulus (GPa) = 30.37608 34.93840 32.65724
#
# Velocity S-wave (km/s) = 3.62345 3.88605 3.75704
# Velocity P-wave (km/s) = 6.63877 6.85503 6.74776
#
# Compressibility (1/GPa) = 0.01626911
#
# Stress axis : x y z
#
# Youngs Moduli (GPa) = 62.70666 62.70666 62.05712
#
# Poissons Ratio (x) = 0.42036 0.28441
# Poissons Ratio (y) = 0.42036 0.28441
# Poissons Ratio (z) = 0.28739 0.28739
#
# Static dielectric constant tensor:
#      x y z
#    x 2.284070 0.000000 0.000000 
#    y 0.000000 2.284070 0.000000 
#    z 0.000000 0.000000 1.851340 
# 
# From -- ./inp_files/4143.got.cif
#   From: 2010.05.17/outbox.cif.g08.bks.cpg/sg88_3_cif.got.tgz:4143.got - 2010.06.03 19:11:41.
