data_PCOD9546003
_publ_section_title
;
Structure prediction by ZEFSAII (Michael W. Deem and Ramdas Pophale) SiO2 
 PCOD9546003
Probable space group: I 4/M
;
_chemical_formula_sum "Si O2"
_cell_formula_units_Z 72
_cell_length_a 11.915920
_cell_length_b 11.915920
_cell_length_c 27.817361
_cell_angle_alpha 90.000000
_cell_angle_beta 90.000000
_cell_angle_gamma 90.000000
_cell_volume 3949.763428
_symmetry_space_group_name_H-M "I 4/M"
_symmetry_group_IT_number 87
_symmetry_cell_setting 'tetragonal'
loop_
_space_group_symop_operation_xyz
x,y,z
-y,x,z
-x,-y,z
y,-x,z
-x,-y,-z
y,-x,-z
x,y,-z
-y,x,-z
1/2+x,1/2+y,1/2+z
1/2-y,1/2+x,1/2+z
1/2-x,1/2-y,1/2+z
1/2+y,1/2-x,1/2+z
1/2-x,1/2-y,1/2-z
1/2+y,1/2-x,1/2-z
1/2+x,1/2+y,1/2-z
1/2-y,1/2+x,1/2-z
loop_
_atom_site_type_symbol
_atom_site_label
_atom_site_fract_x
_atom_site_fract_y
_atom_site_fract_z
Si Si1 0.318117 0.550411 0.241257
Si Si2 0.987487 0.631068 0.666376
Si Si3 0.584468 0.327783 0.500000
Si Si4 0.262035 0.874996 0.845586
Si Si5 0.789467 0.600736 0.600514
O O1 0.366880 0.424452 0.234875
O O2 0.213778 0.568144 0.205229
O O3 0.274291 0.570838 0.295143
O O4 0.916180 0.627781 0.617114
O O5 0.000000 0.500000 0.682630
O O6 0.113388 0.673138 0.658782
O O7 0.644433 0.450227 0.500000
O O8 0.616262 0.255133 0.546870
O O9 0.174116 0.785533 0.863667
O O10 0.268365 0.972526 0.885023
#
# Coordination Sequence:
#
# PCOD9546003 Si02
#       5
#    16  16   8  16  16
#     4  11  23  38  60  87 117 165 211 244 282 342
#     4  10  25  38  55  84 123 166 193 234 291 360
#     4  11  22  38  67  95 113 146 199 258 311 361
#     4  11  22  37  59  87 123 157 195 244 298 350
#     4  11  22  40  60  88 121 151 194 249 303 355
#
# _framework density 18.228940999999999
#
# number of rings (size 3 to 8) (size 9 to 14) (size 15 to 20)
#    0.000    1.222    4.444    1.333    6.222    2.222 
#    0.000    6.111    0.000    0.000    0.000    0.000 
#    0.000    5.333    0.000    0.000    0.000    0.000 
#
# Total GULP energy -200960.602688 kJ/mol
# GULP energy per Si atom -5582.238964 kJ/mol
# Density = 1.818745 g / cm^3
# Si number density = 18.228941 Si / 1000 Ang^3
#
#
#
# Elastic Constant Matrix: (Units=GPa)
#
#
# Indices 1 2 3 4 5 6 
#
# 1 76.6722 23.5757 45.9416 0.0000 0.0000 6.6603
# 2 23.5757 76.6722 45.9416 0.0000 0.0000 -6.6603
# 3 45.9416 45.9416 120.5215 0.0000 0.0000 0.0000
# 4 0.0000 0.0000 0.0000 25.2775 0.0000 0.0000
# 5 0.0000 0.0000 0.0000 0.0000 25.2775 0.0000
# 6 6.6603 -6.6603 0.0000 0.0000 0.0000 13.3583
#
#
#
# Elastic Compliance Matrix: (Units=1/GPa)
#
#
# Indices 1 2 3 4 5 6 
#
# 1 0.018429 -0.003097 -0.005844 0.000000 0.000000 -0.010733
# 2 -0.003097 0.018429 -0.005844 0.000000 0.000000 0.010733
# 3 -0.005844 -0.005844 0.012753 0.000000 0.000000 0.000000
# 4 0.000000 0.000000 0.000000 0.039561 0.000000 0.000000
# 5 0.000000 0.000000 0.000000 0.000000 0.039561 0.000000
# 6 -0.010733 0.010733 0.000000 0.000000 0.000000 0.085562
#
#
# Mechanical properties :
#
#
# Convention : Reuss Voigt Hill
#
# Bulk Modulus (GPa) = 49.90189 56.08711 52.99450
# Shear Modulus (GPa) = 19.95634 23.34310 21.64972
#
# Velocity S-wave (km/s) = 3.31231 3.58236 3.44998
# Velocity P-wave (km/s) = 6.48560 6.92431 6.70854
#
# Compressibility (1/GPa) = 0.02003932
#
# Stress axis : x y z
#
# Youngs Moduli (GPa) = 54.26194 54.26194 78.41317
#
# Poissons Ratio (x) = 0.16805 0.45828
# Poissons Ratio (y) = 0.16805 0.45828
# Poissons Ratio (z) = 0.31713 0.31713
#
# Static dielectric constant tensor:
#      x y z
#    x 1.642060 0.000000 0.000000 
#    y 0.000000 1.642060 0.000000 
#    z 0.000000 0.000000 1.603000 
# 
# From -- ./inp_files/6177.got.cif
#   From: 2010.05.17/outbox.cif.g08.bks.cpg/sg87_4_cif.got.tgz:6177.got - 2010.06.03 19:07:00.
