data_PCOD9546810
_publ_section_title
;
Structure prediction by ZEFSAII (Michael W. Deem and Ramdas Pophale) SiO2 
 PCOD9546810
Probable space group: I 41/A
;
_chemical_formula_sum "Si O2"
_cell_formula_units_Z 48
_cell_length_a 10.474813
_cell_length_b 10.474813
_cell_length_c 17.259706
_cell_angle_alpha 90.000000
_cell_angle_beta 90.000000
_cell_angle_gamma 90.000000
_cell_volume 1893.764411
_symmetry_space_group_name_H-M "I 41/A"
_symmetry_group_IT_number 88
_space_group.IT_coordinate_system_code '2'
_symmetry_cell_setting 'tetragonal'
loop_
_space_group_symop_operation_xyz
x,y,z
3/4-y,1/4+x,1/4+z
-x,1/2-y,z
1/4+y,1/4-x,1/4+z
-x,-y,-z
1/4+y,3/4-x,3/4-z
x,1/2+y,-z
3/4-y,3/4+x,3/4-z
1/2+x,1/2+y,1/2+z
1/4-y,3/4+x,3/4+z
1/2-x,-y,1/2+z
3/4+y,3/4-x,3/4+z
1/2-x,1/2-y,1/2-z
3/4+y,1/4-x,1/4-z
1/2+x,y,1/2-z
1/4-y,1/4+x,1/4-z
loop_
_atom_site_type_symbol
_atom_site_label
_atom_site_fract_x
_atom_site_fract_y
_atom_site_fract_z
Si Si1 0.555606 0.118648 0.710489
Si Si2 0.297252 0.692732 0.116503
Si Si3 0.520453 0.048903 0.410281
O O1 0.500000 0.250000 0.744525
O O2 0.692729 0.148337 0.676062
O O3 0.557774 0.010384 0.776026
O O4 0.465951 0.079492 0.639680
O O5 0.345072 0.834955 0.131814
O O6 0.394002 0.117986 0.371814
O O7 0.500000 0.000000 0.500000
#
# Coordination Sequence:
#
# PCOD9546810 Si02
#       3
#    16  16  16
#     4  12  27  44  79 107 147 198 257 319 390 472
#     4  11  25  47  69 108 148 192 248 316 392 461
#     4  11  28  51  78 115 161 214 272 336 411 494
#
# _framework density 25.346343000000001
#
# number of rings (size 3 to 8) (size 9 to 14) (size 15 to 20)
#    0.000    0.667    3.333    3.000   14.000    0.000 
#    0.000    0.000    0.000    0.000    0.000    0.000 
#    0.000    0.000    0.000    0.000    0.000    0.000 
#
# Total GULP energy -134076.259569 kJ/mol
# GULP energy per Si atom -5586.510815 kJ/mol
# Density = 2.528865 g / cm^3
# Si number density = 25.346343 Si / 1000 Ang^3
#
#
#
# Elastic Constant Matrix: (Units=GPa)
#
#
# Indices 1 2 3 4 5 6 
#
# 1 85.2826 16.5305 24.6788 0.0000 0.0000 -5.3408
# 2 16.5305 85.2826 24.6788 0.0000 0.0000 5.3408
# 3 24.6788 24.6788 223.2513 0.0000 0.0000 0.0000
# 4 0.0000 0.0000 0.0000 31.9624 0.0000 0.0000
# 5 0.0000 0.0000 0.0000 0.0000 31.9624 0.0000
# 6 -5.3408 5.3408 0.0000 0.0000 0.0000 32.7566
#
#
#
# Elastic Compliance Matrix: (Units=1/GPa)
#
#
# Indices 1 2 3 4 5 6 
#
# 1 0.012651 -0.002272 -0.001147 0.000000 0.000000 0.002433
# 2 -0.002272 0.012651 -0.001147 0.000000 0.000000 -0.002433
# 3 -0.001147 -0.001147 0.004733 0.000000 0.000000 0.000000
# 4 0.000000 0.000000 0.000000 0.031287 0.000000 0.000000
# 5 0.000000 0.000000 0.000000 0.000000 0.031287 0.000000
# 6 0.002433 -0.002433 0.000000 0.000000 0.000000 0.031322
#
#
# Mechanical properties :
#
#
# Convention : Reuss Voigt Hill
#
# Bulk Modulus (GPa) = 47.84652 58.39919 53.12285
# Shear Modulus (GPa) = 35.70673 41.19819 38.45246
#
# Velocity S-wave (km/s) = 3.75741 4.03601 3.89920
# Velocity P-wave (km/s) = 6.14347 6.69400 6.42464
#
# Compressibility (1/GPa) = 0.02090016
#
# Stress axis : x y z
#
# Youngs Moduli (GPa) = 79.04799 79.04799 211.28735
#
# Poissons Ratio (x) = 0.17963 0.24239
# Poissons Ratio (y) = 0.17963 0.24239
# Poissons Ratio (z) = 0.09069 0.09069
#
# Static dielectric constant tensor:
#      x y z
#    x 2.044940 0.000000 0.000000 
#    y 0.000000 2.044940 0.000000 
#    z 0.000000 0.000000 2.111630 
# 
# From -- ./inp_files/3589.got.cif
#   From: 2010.05.17/outbox.cif.g08.bks.cpg/sg88_2_cif.got.tgz:3589.got - 2010.06.03 19:11:41.
