data_PCOD9546424
_publ_section_title
;
Structure prediction by ZEFSAII (Michael W. Deem and Ramdas Pophale) SiO2 
 PCOD9546424
Probable space group: I 41/A
;
_chemical_formula_sum "Si O2"
_cell_formula_units_Z 112
_cell_length_a 14.377986
_cell_length_b 14.377986
_cell_length_c 29.331941
_cell_angle_alpha 90.000000
_cell_angle_beta 90.000000
_cell_angle_gamma 90.000000
_cell_volume 6063.688956
_symmetry_space_group_name_H-M "I 41/A"
_symmetry_group_IT_number 88
_space_group.IT_coordinate_system_code '2'
_symmetry_cell_setting 'tetragonal'
loop_
_space_group_symop_operation_xyz
x,y,z
3/4-y,1/4+x,1/4+z
-x,1/2-y,z
1/4+y,1/4-x,1/4+z
-x,-y,-z
1/4+y,3/4-x,3/4-z
x,1/2+y,-z
3/4-y,3/4+x,3/4-z
1/2+x,1/2+y,1/2+z
1/4-y,3/4+x,3/4+z
1/2-x,-y,1/2+z
3/4+y,3/4-x,3/4+z
1/2-x,1/2-y,1/2-z
3/4+y,1/4-x,1/4-z
1/2+x,y,1/2-z
1/4-y,1/4+x,1/4-z
loop_
_atom_site_type_symbol
_atom_site_label
_atom_site_fract_x
_atom_site_fract_y
_atom_site_fract_z
Si Si1 0.705794 0.455680 0.113500
Si Si2 0.388839 0.767234 0.819711
Si Si3 0.683581 0.097746 0.539117
Si Si4 0.791623 0.557235 0.032975
Si Si5 0.059878 0.374005 0.145092
Si Si6 0.729418 0.262336 0.481206
Si Si7 0.036945 0.148618 0.830444
O O1 0.686542 0.484634 0.165342
O O2 0.731130 0.536112 0.077876
O O3 0.793965 0.383767 0.113903
O O4 0.617444 0.393834 0.096457
O O5 0.500000 0.750000 0.813454
O O6 0.340520 0.675462 0.800206
O O7 0.346461 0.858163 0.797528
O O8 0.372085 0.770239 0.873938
O O9 0.707211 0.202927 0.526065
O O10 0.703303 0.039209 0.494065
O O11 0.758497 0.632199 0.996197
O O12 0.112859 0.274859 0.141282
O O13 0.010474 0.399940 0.193233
O O14 0.824667 0.229285 0.458686
O O15 0.000000 0.250000 0.817802
#
# Coordination Sequence:
#
# PCOD9546424 Si02
#       7
#    16  16  16  16  16  16  16
#     4  10  23  38  59  89 119 164 209 259 318 365
#     4  10  21  36  58  89 123 167 201 241 307 366
#     4  11  22  38  57  86 128 160 206 254 301 381
#     4  12  23  38  61  89 126 163 211 257 306 377
#     4  10  21  36  55  85 129 164 201 242 298 371
#     4  11  23  39  62  92 119 162 211 257 312 374
#     4   9  20  41  64  83 119 157 204 257 314 375
#
# _framework density 18.470604000000002
#
# number of rings (size 3 to 8) (size 9 to 14) (size 15 to 20)
#    0.000    1.571    4.286    1.286    8.000    3.429 
#    0.000    0.714    3.143    0.000    0.000    0.000 
#    0.000    0.000    0.000    0.000    0.000    0.000 
#
# Total GULP energy -312340.177942 kJ/mol
# GULP energy per Si atom -5577.503178 kJ/mol
# Density = 1.842856 g / cm^3
# Si number density = 18.470604 Si / 1000 Ang^3
#
#
#
# Elastic Constant Matrix: (Units=GPa)
#
#
# Indices 1 2 3 4 5 6 
#
# 1 47.3355 -0.9508 14.4268 0.0000 0.0000 7.3760
# 2 -0.9508 47.3355 14.4268 0.0000 0.0000 -7.3760
# 3 14.4268 14.4268 79.8503 0.0000 0.0000 0.0000
# 4 0.0000 0.0000 0.0000 25.2305 0.0000 0.0000
# 5 0.0000 0.0000 0.0000 0.0000 25.2305 0.0000
# 6 7.3760 -7.3760 0.0000 0.0000 0.0000 19.7966
#
#
#
# Elastic Compliance Matrix: (Units=1/GPa)
#
#
# Indices 1 2 3 4 5 6 
#
# 1 0.023829 0.000459 -0.004388 0.000000 0.000000 -0.008707
# 2 0.000459 0.023829 -0.004388 0.000000 0.000000 0.008707
# 3 -0.004388 -0.004388 0.014109 0.000000 0.000000 0.000000
# 4 0.000000 0.000000 0.000000 0.039635 0.000000 0.000000
# 5 0.000000 0.000000 0.000000 0.000000 0.039635 0.000000
# 6 -0.008707 0.008707 0.000000 0.000000 0.000000 0.057002
#
#
# Mechanical properties :
#
#
# Convention : Reuss Voigt Hill
#
# Bulk Modulus (GPa) = 22.15668 25.59186 23.87427
# Shear Modulus (GPa) = 21.76583 23.82611 22.79597
#
# Velocity S-wave (km/s) = 3.43651 3.59548 3.51689
# Velocity P-wave (km/s) = 5.26952 5.57872 5.42633
#
# Compressibility (1/GPa) = 0.04513312
#
# Stress axis : x y z
#
# Youngs Moduli (GPa) = 41.96520 41.96520 70.87619
#
# Poissons Ratio (x) = -0.01927 0.31102
# Poissons Ratio (y) = -0.01927 0.31102
# Poissons Ratio (z) = 0.18415 0.18415
#
# Static dielectric constant tensor:
#      x y z
#    x 1.656070 0.000000 0.000000 
#    y 0.000000 1.656070 0.000000 
#    z 0.000000 0.000000 1.668660 
# 
# From -- ./inp_files/6577.got.cif
#   From: 2010.05.17/outbox.cif.g08.bks.cpg/sg88_4_cif.got.tgz:6577.got - 2010.06.03 19:11:41.
