data_PCOD9546368
_publ_section_title
;
Structure prediction by ZEFSAII (Michael W. Deem and Ramdas Pophale) SiO2 
 PCOD9546368
Probable space group: I 41/A
;
_chemical_formula_sum "Si O2"
_cell_formula_units_Z 88
_cell_length_a 15.848409
_cell_length_b 15.848409
_cell_length_c 12.858717
_cell_angle_alpha 90.000000
_cell_angle_beta 90.000000
_cell_angle_gamma 90.000000
_cell_volume 3229.750539
_symmetry_space_group_name_H-M "I 41/A"
_symmetry_group_IT_number 88
_space_group.IT_coordinate_system_code '2'
_symmetry_cell_setting 'tetragonal'
loop_
_space_group_symop_operation_xyz
x,y,z
3/4-y,1/4+x,1/4+z
-x,1/2-y,z
1/4+y,1/4-x,1/4+z
-x,-y,-z
1/4+y,3/4-x,3/4-z
x,1/2+y,-z
3/4-y,3/4+x,3/4-z
1/2+x,1/2+y,1/2+z
1/4-y,3/4+x,3/4+z
1/2-x,-y,1/2+z
3/4+y,3/4-x,3/4+z
1/2-x,1/2-y,1/2-z
3/4+y,1/4-x,1/4-z
1/2+x,y,1/2-z
1/4-y,1/4+x,1/4-z
loop_
_atom_site_type_symbol
_atom_site_label
_atom_site_fract_x
_atom_site_fract_y
_atom_site_fract_z
Si Si1 0.168112 0.420010 0.935120
Si Si2 0.101885 0.312033 0.570817
Si Si3 0.500000 0.250000 0.642886
Si Si4 0.956439 0.953299 0.872719
Si Si5 0.766584 0.039274 0.569896
Si Si6 0.630922 0.166496 0.517281
O O1 0.077491 0.462175 0.927541
O O2 0.213941 0.404363 0.828197
O O3 0.187906 0.363543 0.032185
O O4 0.237123 0.500778 0.948790
O O5 0.108671 0.236727 0.653967
O O6 0.082650 0.261853 0.463936
O O7 0.174305 0.378533 0.572159
O O8 0.585847 0.243975 0.577012
O O9 0.943298 0.876288 0.950766
O O10 0.043959 0.946910 0.814615
O O11 0.675239 0.092605 0.580720
#
# Coordination Sequence:
#
# PCOD9546368 Si02
#       6
#    16  16   8  16  16  16
#     4   9  21  40  58  84 128 158 206 255 305 364
#     4   9  21  40  59  87 123 156 203 259 309 368
#     4  10  21  41  58  90 126 160 202 263 303 368
#     4  10  22  39  59  92 122 167 204 257 304 368
#     4  10  20  38  61  85 118 164 202 254 307 369
#     4  11  22  36  64  90 121 166 209 250 315 363
#
# _framework density 27.246684999999999
#
# number of rings (size 3 to 8) (size 9 to 14) (size 15 to 20)
#    0.000    2.364    0.000    2.182    2.545    3.636 
#    9.818    4.545    0.000    0.000    0.000    0.000 
#    0.000    0.000    0.000    0.000    0.000    0.000 
#
# Total GULP energy -245189.811755 kJ/mol
# GULP energy per Si atom -5572.495722 kJ/mol
# Density = 2.718467 g / cm^3
# Si number density = 27.246685 Si / 1000 Ang^3
#
#
#
# Elastic Constant Matrix: (Units=GPa)
#
#
# Indices 1 2 3 4 5 6 
#
# 1 80.5380 46.2658 34.9649 0.0000 0.0000 4.1053
# 2 46.2658 80.5380 34.9649 0.0000 0.0000 -4.1053
# 3 34.9649 34.9649 78.5576 0.0000 0.0000 0.0000
# 4 0.0000 0.0000 0.0000 20.4695 0.0000 0.0000
# 5 0.0000 0.0000 0.0000 0.0000 20.4695 0.0000
# 6 4.1053 -4.1053 0.0000 0.0000 0.0000 63.8117
#
#
#
# Elastic Compliance Matrix: (Units=1/GPa)
#
#
# Indices 1 2 3 4 5 6 
#
# 1 0.020043 -0.009592 -0.004652 0.000000 0.000000 -0.001907
# 2 -0.009592 0.020043 -0.004652 0.000000 0.000000 0.001907
# 3 -0.004652 -0.004652 0.016870 0.000000 0.000000 0.000000
# 4 0.000000 0.000000 0.000000 0.048853 0.000000 0.000000
# 5 0.000000 0.000000 0.000000 0.000000 0.048853 0.000000
# 6 -0.001907 0.001907 0.000000 0.000000 0.000000 0.015916
#
#
# Mechanical properties :
#
#
# Convention : Reuss Voigt Hill
#
# Bulk Modulus (GPa) = 52.17510 52.44719 52.31115
# Shear Modulus (GPa) = 23.28187 29.17932 26.23059
#
# Velocity S-wave (km/s) = 2.92633 3.27606 3.10612
# Velocity P-wave (km/s) = 5.53250 5.79663 5.66610
#
# Compressibility (1/GPa) = 0.01916623
#
# Stress axis : x y z
#
# Youngs Moduli (GPa) = 49.89208 49.89208 59.27512
#
# Poissons Ratio (x) = 0.47855 0.27574
# Poissons Ratio (y) = 0.47855 0.27574
# Poissons Ratio (z) = 0.23209 0.23209
#
# Static dielectric constant tensor:
#      x y z
#    x 2.150820 0.000000 0.000000 
#    y 0.000000 2.150820 0.000000 
#    z 0.000000 0.000000 2.423520 
# 
# From -- ./inp_files/3192.got.cif
#   From: 2010.05.17/outbox.cif.g08.bks.cpg/sg88_2_cif.got.tgz:3192.got - 2010.06.03 19:11:41.
