data_PCOD9546643
_publ_section_title
;
Structure prediction by ZEFSAII (Michael W. Deem and Ramdas Pophale) SiO2 
 PCOD9546643
Probable space group: I 41/A
;
_chemical_formula_sum "Si O2"
_cell_formula_units_Z 108
_cell_length_a 13.974325
_cell_length_b 13.974325
_cell_length_c 25.768069
_cell_angle_alpha 90.000000
_cell_angle_beta 90.000000
_cell_angle_gamma 90.000000
_cell_volume 5032.033846
_symmetry_space_group_name_H-M "I 41/A"
_symmetry_group_IT_number 88
_space_group.IT_coordinate_system_code '2'
_symmetry_cell_setting 'tetragonal'
loop_
_space_group_symop_operation_xyz
x,y,z
3/4-y,1/4+x,1/4+z
-x,1/2-y,z
1/4+y,1/4-x,1/4+z
-x,-y,-z
1/4+y,3/4-x,3/4-z
x,1/2+y,-z
3/4-y,3/4+x,3/4-z
1/2+x,1/2+y,1/2+z
1/4-y,3/4+x,3/4+z
1/2-x,-y,1/2+z
3/4+y,3/4-x,3/4+z
1/2-x,1/2-y,1/2-z
3/4+y,1/4-x,1/4-z
1/2+x,y,1/2-z
1/4-y,1/4+x,1/4-z
loop_
_atom_site_type_symbol
_atom_site_label
_atom_site_fract_x
_atom_site_fract_y
_atom_site_fract_z
Si Si1 0.072479 0.912927 0.161976
Si Si2 0.806849 0.708468 0.825207
Si Si3 0.957071 0.856965 0.251301
Si Si4 0.500000 0.750000 0.413647
Si Si5 0.831959 0.026092 0.557364
Si Si6 0.500000 0.250000 0.375000
Si Si7 0.118684 0.088170 0.966854
Si Si8 0.559021 0.884192 0.144202
O O1 0.163390 0.906345 0.200060
O O2 0.979557 0.913408 0.198799
O O3 0.057404 0.823314 0.123458
O O4 0.083632 0.005434 0.125898
O O5 0.737302 0.791763 0.805027
O O6 0.825726 0.634300 0.778911
O O7 0.906542 0.754644 0.840279
O O8 0.846518 0.861508 0.268287
O O9 0.000000 0.750000 0.245050
O O10 0.015138 0.902869 0.299785
O O11 0.575359 0.689564 0.448042
O O12 0.723154 0.062455 0.553906
O O13 0.873886 0.041885 0.615299
O O14 0.614800 0.783248 0.142581
#
# Coordination Sequence:
#
# PCOD9546643 Si02
#       8
#    16  16  16   8  16   4  16  16
#     4  11  25  44  63 105 140 179 227 288 334 416
#     4  10  24  44  67  95 137 165 237 283 343 409
#     4  11  22  42  62  98 143 180 224 273 334 409
#     4  10  23  44  72  95 149 178 224 287 356 396
#     4  11  24  40  71  98 130 184 232 270 347 401
#     4  12  22  40  72  92 124 180 204 298 348 384
#     4  10  23  46  67 100 128 181 227 284 342 409
#     4   9  17  37  60  91 133 169 216 264 311 397
#
# _framework density 21.462494
#
# number of rings (size 3 to 8) (size 9 to 14) (size 15 to 20)
#    0.000    1.630    3.704    1.333    6.222    1.778 
#   10.667    0.000    0.000    0.000    0.000    0.000 
#    0.000    0.000    0.000    0.000    0.000    0.000 
#
# Total GULP energy -301533.858856 kJ/mol
# GULP energy per Si atom -5583.960349 kJ/mol
# Density = 2.141364 g / cm^3
# Si number density = 21.462494 Si / 1000 Ang^3
#
#
#
# Elastic Constant Matrix: (Units=GPa)
#
#
# Indices 1 2 3 4 5 6 
#
# 1 73.6940 13.1910 14.6686 0.0000 0.0000 1.7070
# 2 13.1910 73.6940 14.6686 0.0000 0.0000 -1.7070
# 3 14.6686 14.6686 95.0889 0.0000 0.0000 0.0000
# 4 0.0000 0.0000 0.0000 16.4662 0.0000 0.0000
# 5 0.0000 0.0000 0.0000 0.0000 16.4662 0.0000
# 6 1.7070 -1.7070 0.0000 0.0000 0.0000 20.9518
#
#
#
# Elastic Compliance Matrix: (Units=1/GPa)
#
#
# Indices 1 2 3 4 5 6 
#
# 1 0.014373 -0.002231 -0.001873 0.000000 0.000000 -0.001353
# 2 -0.002231 0.014373 -0.001873 0.000000 0.000000 0.001353
# 3 -0.001873 -0.001873 0.011094 0.000000 0.000000 0.000000
# 4 0.000000 0.000000 0.000000 0.060730 0.000000 0.000000
# 5 0.000000 0.000000 0.000000 0.000000 0.060730 0.000000
# 6 -0.001353 0.001353 0.000000 0.000000 0.000000 0.047949
#
#
# Mechanical properties :
#
#
# Convention : Reuss Voigt Hill
#
# Bulk Modulus (GPa) = 35.86025 36.39258 36.12641
# Shear Modulus (GPa) = 21.69192 24.10676 22.89934
#
# Velocity S-wave (km/s) = 3.18258 3.35506 3.26996
# Velocity P-wave (km/s) = 5.49997 5.65701 5.57904
#
# Compressibility (1/GPa) = 0.02788603
#
# Stress axis : x y z
#
# Youngs Moduli (GPa) = 69.57409 69.57409 90.13593
#
# Poissons Ratio (x) = 0.15524 0.16883
# Poissons Ratio (y) = 0.15524 0.16883
# Poissons Ratio (z) = 0.13031 0.13031
#
# Static dielectric constant tensor:
#      x y z
#    x 1.789200 0.000000 0.000000 
#    y 0.000000 1.789200 0.000000 
#    z 0.000000 0.000000 1.812620 
# 
# From -- ./inp_files/5401.got.cif
#   From: 2010.05.17/outbox.cif.g08.bks.cpg/sg88_3_cif.got.tgz:5401.got - 2010.06.03 19:11:41.
