data_PCOD9546880
_publ_section_title
;
Structure prediction by ZEFSAII (Michael W. Deem and Ramdas Pophale) SiO2 
 PCOD9546880
Probable space group: I 41/A
;
_chemical_formula_sum "Si O2"
_cell_formula_units_Z 96
_cell_length_a 21.290356
_cell_length_b 21.290356
_cell_length_c 8.282004
_cell_angle_alpha 90.000000
_cell_angle_beta 90.000000
_cell_angle_gamma 90.000000
_cell_volume 3754.060633
_symmetry_space_group_name_H-M "I 41/A"
_symmetry_group_IT_number 88
_space_group.IT_coordinate_system_code '2'
_symmetry_cell_setting 'tetragonal'
loop_
_space_group_symop_operation_xyz
x,y,z
3/4-y,1/4+x,1/4+z
-x,1/2-y,z
1/4+y,1/4-x,1/4+z
-x,-y,-z
1/4+y,3/4-x,3/4-z
x,1/2+y,-z
3/4-y,3/4+x,3/4-z
1/2+x,1/2+y,1/2+z
1/4-y,3/4+x,3/4+z
1/2-x,-y,1/2+z
3/4+y,3/4-x,3/4+z
1/2-x,1/2-y,1/2-z
3/4+y,1/4-x,1/4-z
1/2+x,y,1/2-z
1/4-y,1/4+x,1/4-z
loop_
_atom_site_type_symbol
_atom_site_label
_atom_site_fract_x
_atom_site_fract_y
_atom_site_fract_z
Si Si1 0.402437 0.254460 0.346824
Si Si2 0.083692 0.952873 0.532592
Si Si3 0.902197 0.249919 0.629419
Si Si4 0.660451 0.634818 0.838626
Si Si5 0.325228 0.639818 0.064906
Si Si6 0.787794 0.170112 0.039926
O O1 0.447958 0.300323 0.454293
O O2 0.378033 0.304855 0.218750
O O3 0.339973 0.222844 0.423429
O O4 0.034228 0.896565 0.499492
O O5 0.150569 0.917107 0.541515
O O6 0.089415 0.003619 0.672953
O O7 0.070609 0.999030 0.378072
O O8 0.950399 0.198952 0.700011
O O9 0.860288 0.204257 0.520664
O O10 0.636920 0.604560 0.011519
O O11 0.731515 0.657752 0.838916
O O12 0.643457 0.578069 0.721743
#
# Coordination Sequence:
#
# PCOD9546880 Si02
#       6
#    16  16  16  16  16  16
#     4   9  17  30  48  72  98 122 154 198 242 289
#     4   9  17  30  48  70  94 126 161 195 237 286
#     4   9  17  30  48  72  98 122 154 198 242 289
#     4   9  17  30  50  70  93 129 164 195 238 286
#     4   9  17  30  50  70  93 129 164 195 238 286
#     4   9  17  30  48  70  94 126 161 195 237 286
#
# _framework density 25.572310999999999
#
# number of rings (size 3 to 8) (size 9 to 14) (size 15 to 20)
#    0.000    3.000    0.000    1.000    0.000    0.000 
#    0.000   28.333    0.000   48.000    0.000    0.000 
#    0.000    0.000    0.000    0.000    0.000    0.000 
#
# Total GULP energy -267453.999185 kJ/mol
# GULP energy per Si atom -5571.958316 kJ/mol
# Density = 2.551411 g / cm^3
# Si number density = 25.572311 Si / 1000 Ang^3
#
#
#
# Elastic Constant Matrix: (Units=GPa)
#
#
# Indices 1 2 3 4 5 6 
#
# 1 197.6138 99.7619 38.6835 0.0000 0.0000 -1.2592
# 2 99.7619 197.6138 38.6835 0.0000 0.0000 1.2592
# 3 38.6835 38.6835 41.9412 0.0000 0.0000 0.0000
# 4 0.0000 0.0000 0.0000 22.9712 0.0000 0.0000
# 5 0.0000 0.0000 0.0000 0.0000 22.9712 0.0000
# 6 -1.2592 1.2592 0.0000 0.0000 0.0000 34.7184
#
#
#
# Elastic Compliance Matrix: (Units=1/GPa)
#
#
# Indices 1 2 3 4 5 6 
#
# 1 0.007327 -0.002902 -0.004081 0.000000 0.000000 0.000371
# 2 -0.002902 0.007327 -0.004081 0.000000 0.000000 -0.000371
# 3 -0.004081 -0.004081 0.031371 0.000000 0.000000 0.000000
# 4 0.000000 0.000000 0.000000 0.043533 0.000000 0.000000
# 5 0.000000 0.000000 0.000000 0.000000 0.043533 0.000000
# 6 0.000371 -0.000371 0.000000 0.000000 0.000000 0.028830
#
#
# Mechanical properties :
#
#
# Convention : Reuss Voigt Hill
#
# Bulk Modulus (GPa) = 41.84746 87.93630 64.89188
# Shear Modulus (GPa) = 26.03989 33.46812 29.75400
#
# Velocity S-wave (km/s) = 3.19452 3.62161 3.41475
# Velocity P-wave (km/s) = 5.47782 7.20764 6.40143
#
# Compressibility (1/GPa) = 0.02389632
#
# Stress axis : x y z
#
# Youngs Moduli (GPa) = 136.48606 136.48606 31.87701
#
# Poissons Ratio (x) = 0.39613 0.13008
# Poissons Ratio (y) = 0.39613 0.13008
# Poissons Ratio (z) = 0.55697 0.55697
#
# Static dielectric constant tensor:
#      x y z
#    x 2.012720 0.000000 0.000000 
#    y 0.000000 2.012720 0.000000 
#    z 0.000000 0.000000 2.168620 
# 
# From -- ./inp_files/2597.got.cif
#   From: 2010.05.17/outbox.cif.g08.bks.cpg/sg88_2_cif.got.tgz:2597.got - 2010.06.03 19:11:41.
