data_PCOD9546505
_publ_section_title
;
Structure prediction by ZEFSAII (Michael W. Deem and Ramdas Pophale) SiO2 
 PCOD9546505
Probable space group: I 41/A
;
_chemical_formula_sum "Si O2"
_cell_formula_units_Z 80
_cell_length_a 14.542464
_cell_length_b 14.542464
_cell_length_c 17.451231
_cell_angle_alpha 90.000000
_cell_angle_beta 90.000000
_cell_angle_gamma 90.000000
_cell_volume 3690.643209
_symmetry_space_group_name_H-M "I 41/A"
_symmetry_group_IT_number 88
_space_group.IT_coordinate_system_code '2'
_symmetry_cell_setting 'tetragonal'
loop_
_space_group_symop_operation_xyz
x,y,z
3/4-y,1/4+x,1/4+z
-x,1/2-y,z
1/4+y,1/4-x,1/4+z
-x,-y,-z
1/4+y,3/4-x,3/4-z
x,1/2+y,-z
3/4-y,3/4+x,3/4-z
1/2+x,1/2+y,1/2+z
1/4-y,3/4+x,3/4+z
1/2-x,-y,1/2+z
3/4+y,3/4-x,3/4+z
1/2-x,1/2-y,1/2-z
3/4+y,1/4-x,1/4-z
1/2+x,y,1/2-z
1/4-y,1/4+x,1/4-z
loop_
_atom_site_type_symbol
_atom_site_label
_atom_site_fract_x
_atom_site_fract_y
_atom_site_fract_z
Si Si1 0.136011 0.645126 0.772475
Si Si2 0.644424 0.762930 0.380775
Si Si3 0.991725 0.897316 0.352730
Si Si4 0.513628 0.607854 0.325589
Si Si5 0.199883 0.323881 0.170329
O O1 0.053559 0.614365 0.716917
O O2 0.132807 0.755276 0.784641
O O3 0.231397 0.624752 0.727952
O O4 0.131474 0.598841 0.855041
O O5 0.751804 0.755478 0.362248
O O6 0.593135 0.667393 0.365240
O O7 0.581943 0.834278 0.332307
O O8 0.912310 0.835035 0.390205
O O9 0.966938 0.907907 0.263225
O O10 0.494352 0.516761 0.372957
#
# Coordination Sequence:
#
# PCOD9546505 Si02
#       5
#    16  16  16  16  16
#     4  10  22  41  66  94 132 167 222 269 336 393
#     4  10  21  42  66  90 127 177 212 272 338 391
#     4  11  23  41  66  99 131 174 226 272 331 403
#     4  10  22  42  63  92 133 166 224 274 331 401
#     4  10  22  41  63  97 128 171 218 275 326 404
#
# _framework density 21.676438999999998
#
# number of rings (size 3 to 8) (size 9 to 14) (size 15 to 20)
#    0.000    1.800    2.000    2.400    0.000   11.600 
#    7.200    0.000    0.000    0.000    0.000    0.000 
#    0.000    0.000    0.000    0.000    0.000    0.000 
#
# Total GULP energy -223479.315565 kJ/mol
# GULP energy per Si atom -5586.982889 kJ/mol
# Density = 2.162710 g / cm^3
# Si number density = 21.676439 Si / 1000 Ang^3
#
#
#
# Elastic Constant Matrix: (Units=GPa)
#
#
# Indices 1 2 3 4 5 6 
#
# 1 100.0273 47.9937 13.7680 0.0000 0.0000 -1.8882
# 2 47.9937 100.0273 13.7680 0.0000 0.0000 1.8882
# 3 13.7680 13.7680 88.7431 0.0000 0.0000 0.0000
# 4 0.0000 0.0000 0.0000 32.1568 0.0000 0.0000
# 5 0.0000 0.0000 0.0000 0.0000 32.1568 0.0000
# 6 -1.8882 1.8882 0.0000 0.0000 0.0000 11.5083
#
#
#
# Elastic Compliance Matrix: (Units=1/GPa)
#
#
# Indices 1 2 3 4 5 6 
#
# 1 0.013203 -0.006247 -0.001079 0.000000 0.000000 0.003191
# 2 -0.006247 0.013203 -0.001079 0.000000 0.000000 -0.003191
# 3 -0.001079 -0.001079 0.011603 0.000000 0.000000 0.000000
# 4 0.000000 0.000000 0.000000 0.031098 0.000000 0.000000
# 5 0.000000 0.000000 0.000000 0.000000 0.031098 0.000000
# 6 0.003191 -0.003191 0.000000 0.000000 0.000000 0.087941
#
#
# Mechanical properties :
#
#
# Convention : Reuss Voigt Hill
#
# Bulk Modulus (GPa) = 47.17109 48.87299 48.02204
# Shear Modulus (GPa) = 23.58238 29.38227 26.48232
#
# Velocity S-wave (km/s) = 3.30195 3.68570 3.49909
# Velocity P-wave (km/s) = 6.02875 6.38028 6.20701
#
# Compressibility (1/GPa) = 0.02119942
#
# Stress axis : x y z
#
# Youngs Moduli (GPa) = 75.73887 75.73888 86.18192
#
# Poissons Ratio (x) = 0.47312 0.09301
# Poissons Ratio (y) = 0.47312 0.09301
# Poissons Ratio (z) = 0.08174 0.08174
#
# Static dielectric constant tensor:
#      x y z
#    x 1.792950 0.000000 0.000000 
#    y 0.000000 1.792950 0.000000 
#    z 0.000000 0.000000 1.812970 
# 
# From -- ./inp_files/4532.got.cif
#   From: 2010.05.17/outbox.cif.g08.bks.cpg/sg88_3_cif.got.tgz:4532.got - 2010.06.03 19:11:41.
