data_PCOD9546874
_publ_section_title
;
Structure prediction by ZEFSAII (Michael W. Deem and Ramdas Pophale) SiO2 
 PCOD9546874
Probable space group: I 41/A
;
_chemical_formula_sum "Si O2"
_cell_formula_units_Z 36
_cell_length_a 11.977896
_cell_length_b 11.977896
_cell_length_c 8.806579
_cell_angle_alpha 90.000000
_cell_angle_beta 90.000000
_cell_angle_gamma 90.000000
_cell_volume 1263.479824
_symmetry_space_group_name_H-M "I 41/A"
_symmetry_group_IT_number 88
_space_group.IT_coordinate_system_code '2'
_symmetry_cell_setting 'tetragonal'
loop_
_space_group_symop_operation_xyz
x,y,z
3/4-y,1/4+x,1/4+z
-x,1/2-y,z
1/4+y,1/4-x,1/4+z
-x,-y,-z
1/4+y,3/4-x,3/4-z
x,1/2+y,-z
3/4-y,3/4+x,3/4-z
1/2+x,1/2+y,1/2+z
1/4-y,3/4+x,3/4+z
1/2-x,-y,1/2+z
3/4+y,3/4-x,3/4+z
1/2-x,1/2-y,1/2-z
3/4+y,1/4-x,1/4-z
1/2+x,y,1/2-z
1/4-y,1/4+x,1/4-z
loop_
_atom_site_type_symbol
_atom_site_label
_atom_site_fract_x
_atom_site_fract_y
_atom_site_fract_z
Si Si1 0.604931 0.312493 0.991408
Si Si2 0.823855 0.071624 0.109480
Si Si3 0.000000 0.250000 0.125000
O O1 0.500000 0.250000 0.083246
O O2 0.710469 0.370802 0.064504
O O3 0.642047 0.216686 0.871478
O O4 0.701691 0.078191 0.181976
O O5 0.883337 0.184027 0.156426
#
# Coordination Sequence:
#
# PCOD9546874 Si02
#       3
#    16  16   4
#     4   6  18  41  72 115 143 198 259 316 372 470
#     4  12  28  50  82 115 165 209 268 325 403 474
#     4  12  32  52  76 118 176 200 256 342 416 448
#
# _framework density 28.492740000000001
#
# number of rings (size 3 to 8) (size 9 to 14) (size 15 to 20)
#    2.667    0.000    0.000    1.333    9.333    1.778 
#    0.000    0.000    0.000    0.000    0.000    0.000 
#    0.000    0.000    0.000    0.000    0.000    0.000 
#
# Total GULP energy -100203.286254 kJ/mol
# GULP energy per Si atom -5566.849236 kJ/mol
# Density = 2.842789 g / cm^3
# Si number density = 28.492740 Si / 1000 Ang^3
#
#
#
# Elastic Constant Matrix: (Units=GPa)
#
#
# Indices 1 2 3 4 5 6 
#
# 1 93.9363 7.6821 4.2097 0.0000 0.0000 -5.2135
# 2 7.6821 93.9363 4.2097 0.0000 0.0000 5.2135
# 3 4.2097 4.2097 25.9010 0.0000 0.0000 0.0000
# 4 0.0000 0.0000 0.0000 33.0492 0.0000 0.0000
# 5 0.0000 0.0000 0.0000 0.0000 33.0492 0.0000
# 6 -5.2135 5.2135 0.0000 0.0000 0.0000 74.8561
#
#
#
# Elastic Compliance Matrix: (Units=1/GPa)
#
#
# Indices 1 2 3 4 5 6 
#
# 1 0.010834 -0.000859 -0.001621 0.000000 0.000000 0.000814
# 2 -0.000859 0.010834 -0.001621 0.000000 0.000000 -0.000814
# 3 -0.001621 -0.001621 0.039136 0.000000 0.000000 0.000000
# 4 0.000000 0.000000 0.000000 0.030258 0.000000 0.000000
# 5 0.000000 0.000000 0.000000 0.000000 0.030258 0.000000
# 6 0.000814 -0.000814 0.000000 0.000000 0.000000 0.013472
#
#
# Mechanical properties :
#
#
# Convention : Reuss Voigt Hill
#
# Bulk Modulus (GPa) = 19.01115 27.33072 23.17094
# Shear Modulus (GPa) = 31.14750 41.36904 36.25827
#
# Velocity S-wave (km/s) = 3.30990 3.81453 3.57114
# Velocity P-wave (km/s) = 4.61455 5.38645 5.01537
#
# Compressibility (1/GPa) = 0.05260071
#
# Stress axis : x y z
#
# Youngs Moduli (GPa) = 92.30571 92.30571 25.55220
#
# Poissons Ratio (x) = 0.07924 0.04143
# Poissons Ratio (y) = 0.07924 0.04143
# Poissons Ratio (z) = 0.14965 0.14965
#
# Static dielectric constant tensor:
#      x y z
#    x 2.121650 0.000000 0.000000 
#    y 0.000000 2.121650 0.000000 
#    z 0.000000 0.000000 2.170250 
# 
# From -- ./inp_files/2015.got.cif
#   From: 2010.05.17/outbox.cif.g08.bks.cpg/sg88_2_cif.got.tgz:2015.got - 2010.06.03 19:11:41.
