data_PCOD9546856
_publ_section_title
;
Structure prediction by ZEFSAII (Michael W. Deem and Ramdas Pophale) SiO2 
 PCOD9546856
Probable space group: I 41/A
;
_chemical_formula_sum "Si O2"
_cell_formula_units_Z 56
_cell_length_a 15.323007
_cell_length_b 15.323007
_cell_length_c 9.325582
_cell_angle_alpha 90.000000
_cell_angle_beta 90.000000
_cell_angle_gamma 90.000000
_cell_volume 2189.595769
_symmetry_space_group_name_H-M "I 41/A"
_symmetry_group_IT_number 88
_space_group.IT_coordinate_system_code '2'
_symmetry_cell_setting 'tetragonal'
loop_
_space_group_symop_operation_xyz
x,y,z
3/4-y,1/4+x,1/4+z
-x,1/2-y,z
1/4+y,1/4-x,1/4+z
-x,-y,-z
1/4+y,3/4-x,3/4-z
x,1/2+y,-z
3/4-y,3/4+x,3/4-z
1/2+x,1/2+y,1/2+z
1/4-y,3/4+x,3/4+z
1/2-x,-y,1/2+z
3/4+y,3/4-x,3/4+z
1/2-x,1/2-y,1/2-z
3/4+y,1/4-x,1/4-z
1/2+x,y,1/2-z
1/4-y,1/4+x,1/4-z
loop_
_atom_site_type_symbol
_atom_site_label
_atom_site_fract_x
_atom_site_fract_y
_atom_site_fract_z
Si Si1 0.322277 0.994091 0.687458
Si Si2 0.000000 0.750000 0.375000
Si Si3 0.486835 0.043555 0.342110
Si Si4 0.500000 0.750000 0.625000
Si Si5 0.567874 0.061654 0.921599
O O1 0.253489 0.934618 0.768248
O O2 0.416926 0.961489 0.725087
O O3 0.163189 0.057378 0.512217
O O4 0.964981 0.838904 0.446368
O O5 0.466322 0.148325 0.335041
O O6 0.500000 0.000000 0.500000
O O7 0.432502 0.975998 0.241308
O O8 0.500000 0.000000 0.000000
#
# Coordination Sequence:
#
# PCOD9546856 Si02
#       5
#    16   4  16   4  16
#     4  12  27  50  74 115 162 212 280 344 421 516
#     4  12  24  50  84 110 168 206 276 350 416 506
#     4  12  29  52  81 122 164 221 285 348 443 522
#     4  12  32  54  84 118 184 218 284 362 440 518
#     4  12  26  50  79 117 160 216 278 346 421 511
#
# _framework density 25.575496999999999
#
# number of rings (size 3 to 8) (size 9 to 14) (size 15 to 20)
#    0.000    0.000    5.714    1.714    8.000    4.571 
#    0.000    0.000    0.000    0.000    0.000    0.000 
#    0.000    0.000    0.000    0.000    0.000    0.000 
#
# Total GULP energy -156053.555102 kJ/mol
# GULP energy per Si atom -5573.341254 kJ/mol
# Density = 2.551729 g / cm^3
# Si number density = 25.575497 Si / 1000 Ang^3
#
#
#
# Elastic Constant Matrix: (Units=GPa)
#
#
# Indices 1 2 3 4 5 6 
#
# 1 163.3807 0.5219 12.5124 0.0000 0.0000 -3.6777
# 2 0.5219 163.3807 12.5124 0.0000 0.0000 3.6777
# 3 12.5124 12.5124 135.3015 0.0000 0.0000 0.0000
# 4 0.0000 0.0000 0.0000 10.5431 0.0000 0.0000
# 5 0.0000 0.0000 0.0000 0.0000 10.5431 0.0000
# 6 -3.6777 3.6777 0.0000 0.0000 0.0000 49.5335
#
#
#
# Elastic Compliance Matrix: (Units=1/GPa)
#
#
# Indices 1 2 3 4 5 6 
#
# 1 0.006175 0.000014 -0.000572 0.000000 0.000000 0.000457
# 2 0.000014 0.006175 -0.000572 0.000000 0.000000 -0.000457
# 3 -0.000572 -0.000572 0.007497 0.000000 0.000000 0.000000
# 4 0.000000 0.000000 0.000000 0.094849 0.000000 0.000000
# 5 0.000000 0.000000 0.000000 0.000000 0.094849 0.000000
# 6 0.000457 -0.000457 0.000000 0.000000 0.000000 0.020256
#
#
# Mechanical properties :
#
#
# Convention : Reuss Voigt Hill
#
# Bulk Modulus (GPa) = 56.86777 57.01739 56.94258
# Shear Modulus (GPa) = 21.01512 43.22500 32.12006
#
# Velocity S-wave (km/s) = 2.86962 4.11554 3.54770
# Velocity P-wave (km/s) = 5.76742 6.70266 6.25255
#
# Compressibility (1/GPa) = 0.01758465
#
# Stress axis : x y z
#
# Youngs Moduli (GPa) = 161.94975 161.94975 133.39104
#
# Poissons Ratio (x) = -0.00224 0.07634
# Poissons Ratio (y) = -0.00224 0.07634
# Poissons Ratio (z) = 0.09269 0.09269
#
# Static dielectric constant tensor:
#      x y z
#    x 1.985150 0.000000 0.000000 
#    y 0.000000 1.985150 0.000000 
#    z 0.000000 0.000000 2.114700 
# 
# From -- ./inp_files/2267.got.cif
#   From: 2010.05.17/outbox.cif.g08.bks.cpg/sg88_2_cif.got.tgz:2267.got - 2010.06.03 19:11:41.
