data_PCOD9546192
_publ_section_title
;
Structure prediction by ZEFSAII (Michael W. Deem and Ramdas Pophale) SiO2 
 PCOD9546192
Probable space group: I 4/M
;
_chemical_formula_sum "Si O2"
_cell_formula_units_Z 44
_cell_length_a 12.000000
_cell_length_b 12.000000
_cell_length_c 30.000000
_cell_angle_alpha 90.000000
_cell_angle_beta 90.000000
_cell_angle_gamma 90.000000
_cell_volume 4320.000000
_symmetry_space_group_name_H-M "I 4/M"
_symmetry_group_IT_number 87
_symmetry_cell_setting 'tetragonal'
loop_
_space_group_symop_operation_xyz
x,y,z
-y,x,z
-x,-y,z
y,-x,z
-x,-y,-z
y,-x,-z
x,y,-z
-y,x,-z
1/2+x,1/2+y,1/2+z
1/2-y,1/2+x,1/2+z
1/2-x,1/2-y,1/2+z
1/2+y,1/2-x,1/2+z
1/2-x,1/2-y,1/2-z
1/2+y,1/2-x,1/2-z
1/2+x,1/2+y,1/2-z
1/2-y,1/2+x,1/2-z
loop_
_atom_site_type_symbol
_atom_site_label
_atom_site_fract_x
_atom_site_fract_y
_atom_site_fract_z
Si Si1 0.921892 0.163343 0.811016
Si Si2 0.935286 0.175656 0.917498
Si Si3 0.485779 0.306051 0.000000
Si Si4 0.957522 0.329961 0.744317
Si Si5 0.012872 0.191926 0.344419
Si Si6 0.562626 0.874743 0.078023
O O1 0.921837 0.179733 0.863826
O O2 0.885102 0.264056 0.780731
O O3 0.051031 0.141790 0.799484
O O4 0.900655 0.303333 0.930467
O O5 0.064564 0.140208 0.929862
O O6 0.600269 0.383503 0.000000
O O7 0.476778 0.217340 0.041012
O O8 0.883755 0.435997 0.730341
O O9 0.995138 0.249544 0.704129
O O10 0.036479 0.298932 0.377396
O O11 0.898777 0.115168 0.350285
O O12 0.500000 0.000000 0.078033
#
# Coordination Sequence:
#
# PCOD9546192 Si02
#       6
#    16  16   8  16  16  16
#     4   9  18  35  57  80 117 171 227 274 327 394
#     4   9  21  40  66 102 141 186 231 283 348 410
#     4  11  27  54  82 109 144 184 226 283 355 430
#     4  11  24  36  55  89 132 177 238 296 356 411
#     4  11  26  45  67 100 140 189 243 301 363 426
#     4  12  27  44  77 108 140 182 233 290 349 426
#
# _framework density 10.185185000000001
#
# number of rings (size 3 to 8) (size 9 to 14) (size 15 to 20)
#    0.000    1.545    0.000    4.636   10.182    7.273 
#    0.000    0.000    0.000    1.091    0.000    0.000 
#    0.000    0.000    0.000    0.000    0.000    0.000 
#
# Total GULP energy -245118.695852 kJ/mol
# GULP energy per Si atom -5570.879451 kJ/mol
# Density = 1.016200 g / cm^3
# Si number density = 10.185185 Si / 1000 Ang^3
#
#
#
# Elastic Constant Matrix: (Units=GPa)
#
#
# Indices 1 2 3 4 5 6 
#
# 1 143.3914 45.1356 19.9732 0.0000 0.0000 3.8828
# 2 45.1356 143.3914 19.9732 0.0000 0.0000 -3.8828
# 3 19.9732 19.9732 48.4258 0.0000 0.0000 0.0000
# 4 0.0000 0.0000 0.0000 33.4874 0.0000 0.0000
# 5 0.0000 0.0000 0.0000 0.0000 33.4874 0.0000
# 6 3.8828 -3.8828 0.0000 0.0000 0.0000 35.4826
#
#
#
# Elastic Compliance Matrix: (Units=1/GPa)
#
#
# Indices 1 2 3 4 5 6 
#
# 1 0.008039 -0.002227 -0.002397 0.000000 0.000000 -0.001123
# 2 -0.002227 0.008039 -0.002397 0.000000 0.000000 0.001123
# 3 -0.002397 -0.002397 0.022628 0.000000 0.000000 0.000000
# 4 0.000000 0.000000 0.000000 0.029862 0.000000 0.000000
# 5 0.000000 0.000000 0.000000 0.000000 0.029862 0.000000
# 6 -0.001123 0.001123 0.000000 0.000000 0.000000 0.028429
#
#
# Mechanical properties :
#
#
# Convention : Reuss Voigt Hill
#
# Bulk Modulus (GPa) = 40.54640 56.15249 48.34945
# Shear Modulus (GPa) = 33.52941 37.16661 35.34801
#
# Velocity S-wave (km/s) = 4.06148 4.27610 4.17017
# Velocity P-wave (km/s) = 6.47626 7.21150 6.85374
#
# Compressibility (1/GPa) = 0.02466310
#
# Stress axis : x y z
#
# Youngs Moduli (GPa) = 124.38948 124.38948 44.19375
#
# Poissons Ratio (x) = 0.27702 0.10594
# Poissons Ratio (y) = 0.27702 0.10594
# Poissons Ratio (z) = 0.29819 0.29819
#
# Static dielectric constant tensor:
#      x y z
#    x 1.734860 0.000000 0.000000 
#    y 0.000000 1.734860 0.000000 
#    z 0.000000 0.000000 1.769250 
# 
# From -- ./inp_files/6584.got.cif
#   From: 2010.05.17/outbox.ucp.g08.bks.cvg/sg87_4_cif.got.tgz:6584.got - 2010.06.11 10:35:24.
