data_PCOD9546396
_publ_section_title
;
Structure prediction by ZEFSAII (Michael W. Deem and Ramdas Pophale) SiO2 
 PCOD9546396
Probable space group: I 41/A
;
_chemical_formula_sum "Si O2"
_cell_formula_units_Z 84
_cell_length_a 13.185771
_cell_length_b 13.185771
_cell_length_c 26.498166
_cell_angle_alpha 90.000000
_cell_angle_beta 90.000000
_cell_angle_gamma 90.000000
_cell_volume 4607.091889
_symmetry_space_group_name_H-M "I 41/A"
_symmetry_group_IT_number 88
_space_group.IT_coordinate_system_code '2'
_symmetry_cell_setting 'tetragonal'
loop_
_space_group_symop_operation_xyz
x,y,z
3/4-y,1/4+x,1/4+z
-x,1/2-y,z
1/4+y,1/4-x,1/4+z
-x,-y,-z
1/4+y,3/4-x,3/4-z
x,1/2+y,-z
3/4-y,3/4+x,3/4-z
1/2+x,1/2+y,1/2+z
1/4-y,3/4+x,3/4+z
1/2-x,-y,1/2+z
3/4+y,3/4-x,3/4+z
1/2-x,1/2-y,1/2-z
3/4+y,1/4-x,1/4-z
1/2+x,y,1/2-z
1/4-y,1/4+x,1/4-z
loop_
_atom_site_type_symbol
_atom_site_label
_atom_site_fract_x
_atom_site_fract_y
_atom_site_fract_z
Si Si1 0.334872 0.979407 0.284363
Si Si2 0.384160 0.284918 0.009294
Si Si3 0.872567 0.138943 0.131617
Si Si4 0.782335 0.050410 0.817572
Si Si5 0.350147 0.392967 0.912003
Si Si6 0.000000 0.750000 0.375000
O O1 0.344719 0.084277 0.315338
O O2 0.442544 0.925020 0.283959
O O3 0.292058 0.985271 0.227448
O O4 0.253703 0.909694 0.313786
O O5 0.500000 0.250000 0.999983
O O6 0.376165 0.384788 0.043634
O O7 0.325944 0.314556 0.957348
O O8 0.863721 0.260645 0.132021
O O9 0.795619 0.091894 0.090780
O O10 0.720626 0.100644 0.863264
O O11 0.462775 0.354691 0.899521
#
# Coordination Sequence:
#
# PCOD9546396 Si02
#       6
#    16  16  16  16  16   4
#     4  10  22  40  60  89 122 159 204 258 310 364
#     4  11  22  39  60  86 126 163 204 249 312 369
#     4  10  20  40  68  90 120 163 204 252 312 366
#     4  10  22  39  61  90 125 155 209 258 306 362
#     4  10  23  36  59  87 118 163 201 257 300 367
#     4  12  20  36  56  88 120 160 212 236 316 368
#
# _framework density 18.232761
#
# number of rings (size 3 to 8) (size 9 to 14) (size 15 to 20)
#    0.000    1.714    2.857    1.143    2.667    2.286 
#    0.000    0.000    0.000    0.000    0.000    0.000 
#    0.000    0.000    0.000    0.000    0.000    0.000 
#
# Total GULP energy -233968.844995 kJ/mol
# GULP energy per Si atom -5570.686786 kJ/mol
# Density = 1.819126 g / cm^3
# Si number density = 18.232761 Si / 1000 Ang^3
#
#
#
# Elastic Constant Matrix: (Units=GPa)
#
#
# Indices 1 2 3 4 5 6 
#
# 1 82.9795 44.7308 47.1595 0.0000 0.0000 1.2513
# 2 44.7308 82.9795 47.1595 0.0000 0.0000 -1.2513
# 3 47.1595 47.1595 123.2316 0.0000 0.0000 0.0000
# 4 0.0000 0.0000 0.0000 16.8281 0.0000 0.0000
# 5 0.0000 0.0000 0.0000 0.0000 16.8281 0.0000
# 6 1.2513 -1.2513 0.0000 0.0000 0.0000 34.3442
#
#
#
# Elastic Compliance Matrix: (Units=1/GPa)
#
#
# Indices 1 2 3 4 5 6 
#
# 1 0.018561 -0.007646 -0.004177 0.000000 0.000000 -0.000955
# 2 -0.007646 0.018561 -0.004177 0.000000 0.000000 0.000955
# 3 -0.004177 -0.004177 0.011312 0.000000 0.000000 0.000000
# 4 0.000000 0.000000 0.000000 0.059424 0.000000 0.000000
# 5 0.000000 0.000000 0.000000 0.000000 0.059424 0.000000
# 6 -0.000955 0.000955 0.000000 0.000000 0.000000 0.029187
#
#
# Mechanical properties :
#
#
# Convention : Reuss Voigt Hill
#
# Bulk Modulus (GPa) = 60.85039 63.03225 61.94132
# Shear Modulus (GPa) = 21.37226 23.60946 22.49086
#
# Velocity S-wave (km/s) = 3.42744 3.60236 3.51599
# Velocity P-wave (km/s) = 7.00784 7.20754 7.10839
#
# Compressibility (1/GPa) = 0.01643375
#
# Stress axis : x y z
#
# Youngs Moduli (GPa) = 53.87583 53.87583 88.40246
#
# Poissons Ratio (x) = 0.41193 0.36927
# Poissons Ratio (y) = 0.41193 0.36927
# Poissons Ratio (z) = 0.22505 0.22505
#
# Static dielectric constant tensor:
#      x y z
#    x 1.622140 0.000000 0.000000 
#    y 0.000000 1.622140 0.000000 
#    z 0.000000 0.000000 1.696860 
# 
# From -- ./inp_files/6447.got.cif
#   From: 2010.05.17/outbox.cif.g08.bks.cpg/sg88_4_cif.got.tgz:6447.got - 2010.06.03 19:11:41.
