data_PCOD9546694
_publ_section_title
;
Structure prediction by ZEFSAII (Michael W. Deem and Ramdas Pophale) SiO2 
 PCOD9546694
Probable space group: I 41/A
;
_chemical_formula_sum "Si O2"
_cell_formula_units_Z 68
_cell_length_a 13.187780
_cell_length_b 13.187780
_cell_length_c 15.062213
_cell_angle_alpha 90.000000
_cell_angle_beta 90.000000
_cell_angle_gamma 90.000000
_cell_volume 2619.583052
_symmetry_space_group_name_H-M "I 41/A"
_symmetry_group_IT_number 88
_space_group.IT_coordinate_system_code '2'
_symmetry_cell_setting 'tetragonal'
loop_
_space_group_symop_operation_xyz
x,y,z
3/4-y,1/4+x,1/4+z
-x,1/2-y,z
1/4+y,1/4-x,1/4+z
-x,-y,-z
1/4+y,3/4-x,3/4-z
x,1/2+y,-z
3/4-y,3/4+x,3/4-z
1/2+x,1/2+y,1/2+z
1/4-y,3/4+x,3/4+z
1/2-x,-y,1/2+z
3/4+y,3/4-x,3/4+z
1/2-x,1/2-y,1/2-z
3/4+y,1/4-x,1/4-z
1/2+x,y,1/2-z
1/4-y,1/4+x,1/4-z
loop_
_atom_site_type_symbol
_atom_site_label
_atom_site_fract_x
_atom_site_fract_y
_atom_site_fract_z
Si Si1 0.348492 0.900941 0.025972
Si Si2 0.500000 0.750000 0.625000
Si Si3 0.984255 0.485914 0.809997
Si Si4 0.352206 0.337794 0.775443
Si Si5 0.402825 0.191157 0.218970
O O1 0.469367 0.893771 0.003963
O O2 0.345958 0.023110 0.031380
O O3 0.271703 0.855976 0.952714
O O4 0.324811 0.857526 0.122903
O O5 0.498370 0.651836 0.562923
O O6 0.957625 0.389599 0.746210
O O7 0.937927 0.581854 0.757204
O O8 0.307867 0.699529 0.844740
O O9 0.500000 0.250000 0.175276
#
# Coordination Sequence:
#
# PCOD9546694 Si02
#       5
#    16   4  16  16  16
#     4  11  24  40  70 103 154 189 250 311 379 459
#     4   8  24  52  68 108 142 196 252 300 388 432
#     4  12  24  44  77 107 152 202 252 321 371 463
#     4  11  23  41  65 111 143 195 247 310 394 443
#     4  10  25  50  75 112 149 200 256 313 387 444
#
# _framework density 25.958331000000001
#
# number of rings (size 3 to 8) (size 9 to 14) (size 15 to 20)
#    0.706    0.471    2.353    3.529    6.588    0.941 
#    8.471    0.000    0.000    0.000    0.000    0.000 
#    0.000    0.000    0.000    0.000    0.000    0.000 
#
# Total GULP energy -189468.801920 kJ/mol
# GULP energy per Si atom -5572.611821 kJ/mol
# Density = 2.589925 g / cm^3
# Si number density = 25.958331 Si / 1000 Ang^3
#
#
#
# Elastic Constant Matrix: (Units=GPa)
#
#
# Indices 1 2 3 4 5 6 
#
# 1 107.6314 45.0380 42.7845 0.0000 0.0000 -5.4228
# 2 45.0380 107.6314 42.7845 0.0000 0.0000 5.4228
# 3 42.7845 42.7845 154.2873 0.0000 0.0000 0.0000
# 4 0.0000 0.0000 0.0000 15.1603 0.0000 0.0000
# 5 0.0000 0.0000 0.0000 0.0000 15.1603 0.0000
# 6 -5.4228 5.4228 0.0000 0.0000 0.0000 18.5713
#
#
#
# Elastic Compliance Matrix: (Units=1/GPa)
#
#
# Indices 1 2 3 4 5 6 
#
# 1 0.012291 -0.004536 -0.002151 0.000000 0.000000 0.004914
# 2 -0.004536 0.012291 -0.002151 0.000000 0.000000 -0.004914
# 3 -0.002151 -0.002151 0.007674 0.000000 0.000000 0.000000
# 4 0.000000 0.000000 0.000000 0.065962 0.000000 0.000000
# 5 0.000000 0.000000 0.000000 0.000000 0.065962 0.000000
# 6 0.004914 -0.004914 0.000000 0.000000 0.000000 0.056716
#
#
# Mechanical properties :
#
#
# Convention : Reuss Voigt Hill
#
# Bulk Modulus (GPa) = 68.57466 70.08489 69.32977
# Shear Modulus (GPa) = 20.53962 25.70794 23.12378
#
# Velocity S-wave (km/s) = 2.81597 3.15040 2.98787
# Velocity P-wave (km/s) = 6.08667 6.34752 6.21846
#
# Compressibility (1/GPa) = 0.01458265
#
# Stress axis : x y z
#
# Youngs Moduli (GPa) = 81.35705 81.35705 130.30720
#
# Poissons Ratio (x) = 0.36904 0.28024
# Poissons Ratio (y) = 0.36904 0.28024
# Poissons Ratio (z) = 0.17497 0.17497
#
# Static dielectric constant tensor:
#      x y z
#    x 2.084410 0.000000 0.000000 
#    y 0.000000 2.084410 0.000000 
#    z 0.000000 0.000000 2.095600 
# 
# From -- ./inp_files/3113.got.cif
#   From: 2010.05.17/outbox.cif.g08.bks.cpg/sg88_2_cif.got.tgz:3113.got - 2010.06.03 19:11:41.
