data_PCOD9546073
_publ_section_title
;
Structure prediction by ZEFSAII (Michael W. Deem and Ramdas Pophale) SiO2 
 PCOD9546073
Probable space group: I 4/M
;
_chemical_formula_sum "Si O2"
_cell_formula_units_Z 96
_cell_length_a 24.063831
_cell_length_b 24.063831
_cell_length_c 9.003728
_cell_angle_alpha 90.000000
_cell_angle_beta 90.000000
_cell_angle_gamma 90.000000
_cell_volume 5213.770427
_symmetry_space_group_name_H-M "I 4/M"
_symmetry_group_IT_number 87
_symmetry_cell_setting 'tetragonal'
loop_
_space_group_symop_operation_xyz
x,y,z
-y,x,z
-x,-y,z
y,-x,z
-x,-y,-z
y,-x,-z
x,y,-z
-y,x,-z
1/2+x,1/2+y,1/2+z
1/2-y,1/2+x,1/2+z
1/2-x,1/2-y,1/2+z
1/2+y,1/2-x,1/2+z
1/2-x,1/2-y,1/2-z
1/2+y,1/2-x,1/2-z
1/2+x,1/2+y,1/2-z
1/2-y,1/2+x,1/2-z
loop_
_atom_site_type_symbol
_atom_site_label
_atom_site_fract_x
_atom_site_fract_y
_atom_site_fract_z
Si Si1 0.511562 0.916405 0.321564
Si Si2 0.682928 0.306443 0.171047
Si Si3 0.317590 0.929705 0.679848
Si Si4 0.488565 0.410234 0.321637
Si Si5 0.681714 0.194743 0.670728
Si Si6 0.929085 0.812750 0.321336
O O1 0.507622 0.920665 0.500000
O O2 0.456371 0.940076 0.243448
O O3 0.526773 0.855270 0.265928
O O4 0.662480 0.250448 0.248394
O O5 0.750607 0.304999 0.173814
O O6 0.668919 0.367349 0.233969
O O7 0.665516 0.304721 0.000000
O O8 0.324870 0.933485 0.500000
O O9 0.334116 0.866542 0.726747
O O10 0.252298 0.936795 0.712222
O O11 0.546130 0.439891 0.279471
O O12 0.488132 0.405041 0.500000
O O13 0.475372 0.352073 0.246833
O O14 0.664432 0.198098 0.500000
O O15 0.928443 0.817522 0.500000
#
# Coordination Sequence:
#
# PCOD9546073 Si02
#       6
#    16  16  16  16  16  16
#     4  11  22  38  60  82 104 135 175 215 257 305
#     4   8  14  25  41  65  98 132 166 203 245 297
#     4   9  18  34  53  77 110 140 170 213 261 307
#     4   9  19  36  55  74  99 133 174 219 263 309
#     4   8  14  25  43  66  95 133 170 203 242 292
#     4   9  18  32  52  78 107 137 169 213 265 311
#
# _framework density 18.412779
#
# number of rings (size 3 to 8) (size 9 to 14) (size 15 to 20)
#    0.000    3.000    0.000    4.500    0.000    2.667 
#    0.000    5.833    0.000    4.000    0.000    0.000 
#    0.000    0.000    0.000    0.000    0.000    0.000 
#
# Total GULP energy -267391.750247 kJ/mol
# GULP energy per Si atom -5570.661463 kJ/mol
# Density = 1.837087 g / cm^3
# Si number density = 18.412779 Si / 1000 Ang^3
#
#
#
# Elastic Constant Matrix: (Units=GPa)
#
#
# Indices 1 2 3 4 5 6 
#
# 1 43.9066 31.4950 22.2339 0.0000 0.0000 0.2984
# 2 31.4950 43.9066 22.2339 0.0000 0.0000 -0.2984
# 3 22.2339 22.2339 42.2649 0.0000 0.0000 0.0000
# 4 0.0000 0.0000 0.0000 22.9470 0.0000 0.0000
# 5 0.0000 0.0000 0.0000 0.0000 22.9470 0.0000
# 6 0.2984 -0.2984 0.0000 0.0000 0.0000 19.7306
#
#
#
# Elastic Compliance Matrix: (Units=1/GPa)
#
#
# Indices 1 2 3 4 5 6 
#
# 1 0.049928 -0.030701 -0.010115 0.000000 0.000000 -0.001220
# 2 -0.030701 0.049928 -0.010115 0.000000 0.000000 0.001220
# 3 -0.010115 -0.010115 0.034302 0.000000 0.000000 0.000000
# 4 0.000000 0.000000 0.000000 0.043579 0.000000 0.000000
# 5 0.000000 0.000000 0.000000 0.000000 0.043579 0.000000
# 6 -0.001220 0.001220 0.000000 0.000000 0.000000 0.050720
#
#
# Mechanical properties :
#
#
# Convention : Reuss Voigt Hill
#
# Bulk Modulus (GPa) = 30.96166 31.33374 31.14770
# Shear Modulus (GPa) = 12.99842 16.73262 14.86552
#
# Velocity S-wave (km/s) = 2.65985 3.01782 2.84447
# Velocity P-wave (km/s) = 5.12688 5.40345 5.26698
#
# Compressibility (1/GPa) = 0.03229801
#
# Stress axis : x y z
#
# Youngs Moduli (GPa) = 20.02878 20.02878 29.15252
#
# Poissons Ratio (x) = 0.61490 0.29487
# Poissons Ratio (y) = 0.61490 0.29487
# Poissons Ratio (z) = 0.20259 0.20259
#
# Static dielectric constant tensor:
#      x y z
#    x 1.654750 0.000000 0.000000 
#    y 0.000000 1.654750 0.000000 
#    z 0.000000 0.000000 1.619240 
# 
# From -- ./inp_files/1444.got.cif
#   From: 2010.05.17/outbox.cif.g08.bks.cpg/sg87_1_cif.got.tgz:1444.got - 2010.06.03 19:07:00.
