data_PCOD9546957
_publ_section_title
;
Structure prediction by ZEFSAII (Michael W. Deem and Ramdas Pophale) SiO2 
 PCOD9546957
Probable space group: P 4 2 2
;
_chemical_formula_sum "Si O2"
_cell_formula_units_Z 38
_cell_length_a 19.126569
_cell_length_b 19.126569
_cell_length_c 5.084116
_cell_angle_alpha 90.000000
_cell_angle_beta 90.000000
_cell_angle_gamma 90.000000
_cell_volume 1859.899998
_symmetry_space_group_name_H-M "P 4 2 2"
_symmetry_group_IT_number 89
_symmetry_cell_setting 'tetragonal'
loop_
_space_group_symop_operation_xyz
x,y,z
-y,x,z
-x,-y,z
y,-x,z
x,-y,-z
-x,y,-z
y,x,-z
-y,-x,-z
loop_
_atom_site_type_symbol
_atom_site_label
_atom_site_fract_x
_atom_site_fract_y
_atom_site_fract_z
Si Si1 0.160700 0.735338 0.632212
Si Si2 0.635198 0.294519 0.258200
Si Si3 0.564674 0.122470 0.812228
Si Si4 0.079427 0.710776 0.100585
Si Si5 0.243224 0.500000 0.500000
Si Si6 0.500000 0.000000 0.500000
O O1 0.201898 0.798103 0.500000
O O2 0.221606 0.678186 0.698375
O O3 0.102388 0.715023 0.408185
O O4 0.124240 0.757707 0.902834
O O5 0.656754 0.343247 0.500000
O O6 0.551224 0.282231 0.292045
O O7 0.666781 0.333220 0.000000
O O8 0.634074 0.108952 0.970982
O O9 0.556429 0.192049 0.641494
O O10 0.550599 0.051996 0.652747
O O11 0.500000 0.128024 0.000000
O O12 0.000000 0.715915 0.000000
#
# Coordination Sequence:
#
# PCOD9546957 Si02
#       6
#     8   8   8   8   4   2
#     4  11  23  43  62  89 129 178 220 268 322 389
#     4  11  24  41  65  94 126 167 225 282 341 399
#     4  11  23  35  57  84 129 179 217 265 315 391
#     4  12  24  38  62  94 131 171 218 265 325 386
#     4  11  24  41  64  91 128 167 226 276 346 403
#     4  10  22  36  44  86 128 186 226 250 308 390
#
# _framework density 20.431206
#
# number of rings (size 3 to 8) (size 9 to 14) (size 15 to 20)
#    0.000    0.842    2.105    6.632    8.842    0.000 
#    0.000    0.000    0.000    0.316    0.000    1.474 
#    0.000   29.474    0.000    0.000    0.000    0.000 
#
# Total GULP energy -211834.533508 kJ/mol
# GULP energy per Si atom -5574.592987 kJ/mol
# Density = 2.038470 g / cm^3
# Si number density = 20.431206 Si / 1000 Ang^3
#
#
#
# Elastic Constant Matrix: (Units=GPa)
#
#
# Indices 1 2 3 4 5 6 
#
# 1 77.9378 48.6522 35.4627 0.0000 0.0000 0.0000
# 2 48.6522 77.9367 35.4621 0.0000 0.0000 0.0000
# 3 35.4627 35.4621 118.6829 0.0000 0.0000 0.0000
# 4 0.0000 0.0000 0.0000 45.0007 0.0000 0.0000
# 5 0.0000 0.0000 0.0000 0.0000 45.0007 0.0000
# 6 0.0000 0.0000 0.0000 0.0000 0.0000 -43.6966
#
#
#
# Elastic Compliance Matrix: (Units=1/GPa)
#
#
# Indices 1 2 3 4 5 6 
#
# 1 0.021817 -0.012330 -0.002835 0.000000 0.000000 0.000000
# 2 -0.012330 0.021818 -0.002835 0.000000 0.000000 0.000000
# 3 -0.002835 -0.002835 0.010120 0.000000 0.000000 0.000000
# 4 0.000000 0.000000 0.000000 0.022222 0.000000 0.000000
# 5 0.000000 0.000000 0.000000 0.000000 0.022222 0.000000
# 6 0.000000 0.000000 0.000000 0.000000 0.000000 -0.022885
#
#
# Mechanical properties :
#
#
# Convention : Reuss Voigt Hill
#
# Bulk Modulus (GPa) = 56.31933 57.07905 56.69919
# Shear Modulus (GPa) = 42.65063 19.59299 31.12181
#
# Velocity S-wave (km/s) = 4.57390 3.10009 3.90712
# Velocity P-wave (km/s) = 7.45113 6.38842 6.94014
#
# Compressibility (1/GPa) = 0.01775589
#
# Stress axis : x y z
#
# Youngs Moduli (GPa) = 45.83494 45.83441 98.81422
#
# Poissons Ratio (x) = 0.56512 0.28014
# Poissons Ratio (y) = 0.56513 0.28013
# Poissons Ratio (z) = 0.12994 0.12994
#
# Static dielectric constant tensor:
#      x y z
#    x 1.680260 0.000000 0.000000 
#    y 0.000000 1.680260 0.000000 
#    z 0.000000 0.000000 1.824310 
# 
# From -- ./inp_files/335.got.cif
#   From: 2010.05.17/outbox.cif.g08.bks.cpg/sg89_1_cif.got.tgz:335.got - 2010.06.03 19:15:31.
