data_PCOD9546154
_publ_section_title
;
Structure prediction by ZEFSAII (Michael W. Deem and Ramdas Pophale) SiO2 
 PCOD9546154
Probable space group: I 4/M
;
_chemical_formula_sum "Si O2"
_cell_formula_units_Z 56
_cell_length_a 10.440006
_cell_length_b 10.440006
_cell_length_c 24.212133
_cell_angle_alpha 90.000000
_cell_angle_beta 90.000000
_cell_angle_gamma 90.000000
_cell_volume 2638.970573
_symmetry_space_group_name_H-M "I 4/M"
_symmetry_group_IT_number 87
_symmetry_cell_setting 'tetragonal'
loop_
_space_group_symop_operation_xyz
x,y,z
-y,x,z
-x,-y,z
y,-x,z
-x,-y,-z
y,-x,-z
x,y,-z
-y,x,-z
1/2+x,1/2+y,1/2+z
1/2-y,1/2+x,1/2+z
1/2-x,1/2-y,1/2+z
1/2+y,1/2-x,1/2+z
1/2-x,1/2-y,1/2-z
1/2+y,1/2-x,1/2-z
1/2+x,1/2+y,1/2-z
1/2-y,1/2+x,1/2-z
loop_
_atom_site_type_symbol
_atom_site_label
_atom_site_fract_x
_atom_site_fract_y
_atom_site_fract_z
Si Si1 0.933331 0.623197 0.399046
Si Si2 0.287609 0.460282 0.808620
Si Si3 0.913690 0.803022 0.500000
Si Si4 0.288795 0.452331 0.315522
O O1 0.037440 0.687767 0.357905
O O2 0.888333 0.722044 0.445156
O O3 0.816667 0.579120 0.360456
O O4 0.000000 0.500000 0.425607
O O5 0.401140 0.357213 0.813505
O O6 0.234181 0.443505 0.746942
O O7 0.064280 0.838012 0.500000
O O8 0.407184 0.352681 0.320113
#
# Coordination Sequence:
#
# PCOD9546154 Si02
#       4
#    16  16   8  16
#     4  12  26  38  68 100 130 164 222 274 321 382
#     4   9  20  39  63  93 133 177 218 262 317 378
#     4  11  27  52  74  91 122 170 222 281 333 376
#     4   9  22  41  61  94 139 180 210 255 326 399
#
# _framework density 21.220396000000001
#
# number of rings (size 3 to 8) (size 9 to 14) (size 15 to 20)
#    0.000    1.857    0.000    3.857   12.000    4.571 
#    0.000    0.000    0.000    1.714    0.000    0.000 
#    0.000    0.000    0.000    0.000    0.000    0.000 
#
# Total GULP energy -156705.076108 kJ/mol
# GULP energy per Si atom -5596.609861 kJ/mol
# Density = 2.117210 g / cm^3
# Si number density = 21.220396 Si / 1000 Ang^3
#
#
#
# Elastic Constant Matrix: (Units=GPa)
#
#
# Indices 1 2 3 4 5 6 
#
# 1 57.6535 5.8600 28.4972 0.0000 0.0000 1.0283
# 2 5.8600 57.6535 28.4972 0.0000 0.0000 -1.0283
# 3 28.4972 28.4972 111.8182 0.0000 0.0000 0.0000
# 4 0.0000 0.0000 0.0000 36.1073 0.0000 0.0000
# 5 0.0000 0.0000 0.0000 0.0000 36.1073 0.0000
# 6 1.0283 -1.0283 0.0000 0.0000 0.0000 14.5810
#
#
#
# Elastic Compliance Matrix: (Units=1/GPa)
#
#
# Indices 1 2 3 4 5 6 
#
# 1 0.019887 0.000526 -0.005202 0.000000 0.000000 -0.001365
# 2 0.000526 0.019887 -0.005202 0.000000 0.000000 0.001365
# 3 -0.005202 -0.005202 0.011595 0.000000 0.000000 0.000000
# 4 0.000000 0.000000 0.000000 0.027695 0.000000 0.000000
# 5 0.000000 0.000000 0.000000 0.000000 0.027695 0.000000
# 6 -0.001365 0.001365 0.000000 0.000000 0.000000 0.068775
#
#
# Mechanical properties :
#
#
# Convention : Reuss Voigt Hill
#
# Bulk Modulus (GPa) = 31.63399 39.20374 35.41887
# Shear Modulus (GPa) = 24.29190 28.31051 26.30120
#
# Velocity S-wave (km/s) = 3.38708 3.65652 3.52437
# Velocity P-wave (km/s) = 5.49874 6.02839 5.76965
#
# Compressibility (1/GPa) = 0.03161157
#
# Stress axis : x y z
#
# Youngs Moduli (GPa) = 50.28320 50.28320 86.24599
#
# Poissons Ratio (x) = -0.02643 0.44868
# Poissons Ratio (y) = -0.02643 0.44868
# Poissons Ratio (z) = 0.26159 0.26159
#
# Static dielectric constant tensor:
#      x y z
#    x 1.779480 0.000000 0.000000 
#    y 0.000000 1.779480 0.000000 
#    z 0.000000 0.000000 1.718860 
# 
# From -- ./inp_files/4902.got.cif
#   From: 2010.05.17/outbox.cif.g08.bks.cpg/sg87_3_cif.got.tgz:4902.got - 2010.06.03 19:07:00.
