data_PCOD9546563
_publ_section_title
;
Structure prediction by ZEFSAII (Michael W. Deem and Ramdas Pophale) SiO2 
 PCOD9546563
Probable space group: I 41/A
;
_chemical_formula_sum "Si O2"
_cell_formula_units_Z 92
_cell_length_a 14.055508
_cell_length_b 14.055508
_cell_length_c 20.307566
_cell_angle_alpha 90.000000
_cell_angle_beta 90.000000
_cell_angle_gamma 90.000000
_cell_volume 4011.908013
_symmetry_space_group_name_H-M "I 41/A"
_symmetry_group_IT_number 88
_space_group.IT_coordinate_system_code '2'
_symmetry_cell_setting 'tetragonal'
loop_
_space_group_symop_operation_xyz
x,y,z
3/4-y,1/4+x,1/4+z
-x,1/2-y,z
1/4+y,1/4-x,1/4+z
-x,-y,-z
1/4+y,3/4-x,3/4-z
x,1/2+y,-z
3/4-y,3/4+x,3/4-z
1/2+x,1/2+y,1/2+z
1/4-y,3/4+x,3/4+z
1/2-x,-y,1/2+z
3/4+y,3/4-x,3/4+z
1/2-x,1/2-y,1/2-z
3/4+y,1/4-x,1/4-z
1/2+x,y,1/2-z
1/4-y,1/4+x,1/4-z
loop_
_atom_site_type_symbol
_atom_site_label
_atom_site_fract_x
_atom_site_fract_y
_atom_site_fract_z
Si Si1 0.767464 0.423990 0.399550
Si Si2 0.000000 0.250000 0.751627
Si Si3 0.620067 0.112601 0.465139
Si Si4 0.000000 0.250000 0.125000
Si Si5 0.868938 0.397092 0.899813
Si Si6 0.197755 0.272443 0.819150
Si Si7 0.801864 0.737101 0.522174
O O1 0.731698 0.385494 0.328287
O O2 0.692881 0.508210 0.411708
O O3 0.873822 0.467320 0.401028
O O4 0.764603 0.341909 0.456331
O O5 0.089315 0.276104 0.795795
O O6 0.017639 0.143342 0.722401
O O7 0.569562 0.186333 0.417846
O O8 0.567523 0.109592 0.534529
O O9 0.717447 0.162582 0.491248
O O10 0.801505 0.312054 0.872192
O O11 0.942265 0.411726 0.840659
O O12 0.250000 0.250000 0.750000
#
# Coordination Sequence:
#
# PCOD9546563 Si02
#       7
#    16   8  16   4  16  16  16
#     4  10  22  40  65  92 125 173 217 270 331 389
#     4   8  18  37  66  83 118 166 208 262 330 382
#     4  11  23  41  62  95 138 162 217 263 331 403
#     4  12  24  42  64 104 136 174 204 278 320 404
#     4  10  24  40  64  95 126 172 216 271 333 401
#     4  10  22  43  65  93 128 171 221 276 333 397
#     4   9  19  40  61  89 122 166 212 264 324 389
#
# _framework density 22.931732
#
# number of rings (size 3 to 8) (size 9 to 14) (size 15 to 20)
#    0.000    2.087    1.739    0.000    7.304    6.261 
#    3.130    0.000    0.000    1.043    0.000    0.000 
#    0.000    0.000    0.000    0.000    0.000    0.000 
#
# Total GULP energy -256107.555801 kJ/mol
# GULP energy per Si atom -5567.555561 kJ/mol
# Density = 2.287954 g / cm^3
# Si number density = 22.931732 Si / 1000 Ang^3
#
#
#
# Elastic Constant Matrix: (Units=GPa)
#
#
# Indices 1 2 3 4 5 6 
#
# 1 97.8903 13.3364 4.4946 0.0000 0.0000 8.5783
# 2 13.3364 97.8903 4.4946 0.0000 0.0000 -8.5783
# 3 4.4946 4.4946 82.7386 0.0000 0.0000 0.0000
# 4 0.0000 0.0000 0.0000 5.4067 0.0000 0.0000
# 5 0.0000 0.0000 0.0000 0.0000 5.4067 0.0000
# 6 8.5783 -8.5783 0.0000 0.0000 0.0000 19.4924
#
#
#
# Elastic Compliance Matrix: (Units=1/GPa)
#
#
# Indices 1 2 3 4 5 6 
#
# 1 0.011008 -0.001978 -0.000491 0.000000 0.000000 -0.005715
# 2 -0.001978 0.011008 -0.000491 0.000000 0.000000 0.005715
# 3 -0.000491 -0.000491 0.012140 0.000000 0.000000 0.000000
# 4 0.000000 0.000000 0.000000 0.184957 0.000000 0.000000
# 5 0.000000 0.000000 0.000000 0.000000 0.184957 0.000000
# 6 -0.005715 0.005715 0.000000 0.000000 0.000000 0.056332
#
#
# Mechanical properties :
#
#
# Convention : Reuss Voigt Hill
#
# Bulk Modulus (GPa) = 35.41337 35.90783 35.66060
# Shear Modulus (GPa) = 10.51007 23.14070 16.82539
#
# Velocity S-wave (km/s) = 2.14316 3.18010 2.71166
# Velocity P-wave (km/s) = 4.64765 5.40154 5.03871
#
# Compressibility (1/GPa) = 0.02823792
#
# Stress axis : x y z
#
# Youngs Moduli (GPa) = 90.84008 90.84008 82.37537
#
# Poissons Ratio (x) = 0.17969 0.04041
# Poissons Ratio (y) = 0.17969 0.04041
# Poissons Ratio (z) = 0.04456 0.04456
#
# Static dielectric constant tensor:
#      x y z
#    x 1.870970 0.000000 0.000000 
#    y 0.000000 1.870970 0.000000 
#    z 0.000000 0.000000 1.983070 
# 
# From -- ./inp_files/4776.got.cif
#   From: 2010.05.17/outbox.cif.g08.bks.cpg/sg88_3_cif.got.tgz:4776.got - 2010.06.03 19:11:41.
