data_PCOD9546631
_publ_section_title
;
Structure prediction by ZEFSAII (Michael W. Deem and Ramdas Pophale) SiO2 
 PCOD9546631
Probable space group: I 41/A
;
_chemical_formula_sum "Si O2"
_cell_formula_units_Z 96
_cell_length_a 13.803568
_cell_length_b 13.803568
_cell_length_c 20.459300
_cell_angle_alpha 90.000000
_cell_angle_beta 90.000000
_cell_angle_gamma 90.000000
_cell_volume 3898.284119
_symmetry_space_group_name_H-M "I 41/A"
_symmetry_group_IT_number 88
_space_group.IT_coordinate_system_code '2'
_symmetry_cell_setting 'tetragonal'
loop_
_space_group_symop_operation_xyz
x,y,z
3/4-y,1/4+x,1/4+z
-x,1/2-y,z
1/4+y,1/4-x,1/4+z
-x,-y,-z
1/4+y,3/4-x,3/4-z
x,1/2+y,-z
3/4-y,3/4+x,3/4-z
1/2+x,1/2+y,1/2+z
1/4-y,3/4+x,3/4+z
1/2-x,-y,1/2+z
3/4+y,3/4-x,3/4+z
1/2-x,1/2-y,1/2-z
3/4+y,1/4-x,1/4-z
1/2+x,y,1/2-z
1/4-y,1/4+x,1/4-z
loop_
_atom_site_type_symbol
_atom_site_label
_atom_site_fract_x
_atom_site_fract_y
_atom_site_fract_z
Si Si1 0.604845 0.026515 0.230476
Si Si2 0.079510 0.020378 0.799359
Si Si3 0.374010 0.667738 0.146334
Si Si4 0.912251 0.305364 0.365830
Si Si5 0.813758 0.299983 0.803456
Si Si6 0.111267 0.131467 0.134768
O O1 0.628769 0.107406 0.176972
O O2 0.639270 0.069922 0.300735
O O3 0.490947 0.026121 0.247448
O O4 0.620013 0.917089 0.202767
O O5 0.143550 0.104713 0.771623
O O6 0.014542 0.080935 0.853407
O O7 0.145560 0.938186 0.829930
O O8 0.391788 0.785233 0.150831
O O9 0.257596 0.668306 0.137371
O O10 0.000000 0.250000 0.328042
O O11 0.974507 0.356106 0.423106
O O12 0.750000 0.250000 0.750000
O O13 0.127818 0.249138 0.137634
#
# Coordination Sequence:
#
# PCOD9546631 Si02
#       6
#    16  16  16  16  16  16
#     4  11  23  43  74 100 138 197 236 302 375 442
#     4  10  24  43  68 103 145 179 248 311 367 450
#     4  11  25  43  68 103 145 190 247 304 362 450
#     4  10  23  43  64  98 138 181 242 295 366 436
#     4  11  24  44  68  98 142 198 243 304 369 434
#     4   9  21  43  70 104 142 183 235 299 381 447
#
# _framework density 24.62622
#
# number of rings (size 3 to 8) (size 9 to 14) (size 15 to 20)
#    0.000    1.667    1.667    1.000    9.333    3.333 
#    9.000    0.000    0.000    0.000    0.000    0.000 
#    0.000    0.000    0.000    0.000    0.000    0.000 
#
# Total GULP energy -267263.063473 kJ/mol
# GULP energy per Si atom -5567.980489 kJ/mol
# Density = 2.457017 g / cm^3
# Si number density = 24.626220 Si / 1000 Ang^3
#
#
#
# Elastic Constant Matrix: (Units=GPa)
#
#
# Indices 1 2 3 4 5 6 
#
# 1 89.8585 43.2594 22.9405 0.0000 0.0000 -27.1227
# 2 43.2594 89.8585 22.9405 0.0000 0.0000 27.1227
# 3 22.9405 22.9405 63.9298 0.0000 0.0000 0.0000
# 4 0.0000 0.0000 0.0000 32.3908 0.0000 0.0000
# 5 0.0000 0.0000 0.0000 0.0000 32.3908 0.0000
# 6 -27.1227 27.1227 0.0000 0.0000 0.0000 19.2650
#
#
#
# Elastic Compliance Matrix: (Units=1/GPa)
#
#
# Indices 1 2 3 4 5 6 
#
# 1 -0.012508 0.021081 -0.003076 0.000000 0.000000 -0.047289
# 2 0.021081 -0.012508 -0.003076 0.000000 0.000000 0.047289
# 3 -0.003076 -0.003076 0.017850 0.000000 0.000000 0.000000
# 4 0.000000 0.000000 0.000000 0.030873 0.000000 0.000000
# 5 0.000000 0.000000 0.000000 0.000000 0.030873 0.000000
# 6 -0.047289 0.047289 0.000000 0.000000 0.000000 -0.081246
#
#
# Mechanical properties :
#
#
# Convention : Reuss Voigt Hill
#
# Bulk Modulus (GPa) = 44.07203 46.88085 45.47644
# Shear Modulus (GPa) = -102.12339 27.10973 -37.50683
#
# Velocity S-wave (km/s) = -6.44666 3.32150 -3.90685
# Velocity P-wave (km/s) = 6.12187 5.81276 1.35815
#
# Compressibility (1/GPa) = 0.02269013
#
# Stress axis : x y z
#
# Youngs Moduli (GPa) = -79.94743 -79.94743 56.02299
#
# Poissons Ratio (x) = 1.68534 0.17233
# Poissons Ratio (y) = 1.68534 0.17233
# Poissons Ratio (z) = -0.24593 -0.24593
#
# Static dielectric constant tensor:
#      x y z
#    x 2.006680 0.000000 0.000000 
#    y 0.000000 2.006680 0.000000 
#    z 0.000000 0.000000 2.009990 
# 
# From -- ./inp_files/4673.got.cif
#   From: 2010.05.17/outbox.cif.g08.bks.cpg/sg88_3_cif.got.tgz:4673.got - 2010.06.03 19:11:41.
