data_PCOD9546312
_publ_section_title
;
Structure prediction by ZEFSAII (Michael W. Deem and Ramdas Pophale) SiO2 
 PCOD9546312
Probable space group: I 41/A
;
_chemical_formula_sum "Si O2"
_cell_formula_units_Z 80
_cell_length_a 30.642315
_cell_length_b 30.642315
_cell_length_c 4.976229
_cell_angle_alpha 90.000000
_cell_angle_beta 90.000000
_cell_angle_gamma 90.000000
_cell_volume 4672.437527
_symmetry_space_group_name_H-M "I 41/A"
_symmetry_group_IT_number 88
_space_group.IT_coordinate_system_code '2'
_symmetry_cell_setting 'tetragonal'
loop_
_space_group_symop_operation_xyz
x,y,z
3/4-y,1/4+x,1/4+z
-x,1/2-y,z
1/4+y,1/4-x,1/4+z
-x,-y,-z
1/4+y,3/4-x,3/4-z
x,1/2+y,-z
3/4-y,3/4+x,3/4-z
1/2+x,1/2+y,1/2+z
1/4-y,3/4+x,3/4+z
1/2-x,-y,1/2+z
3/4+y,3/4-x,3/4+z
1/2-x,1/2-y,1/2-z
3/4+y,1/4-x,1/4-z
1/2+x,y,1/2-z
1/4-y,1/4+x,1/4-z
loop_
_atom_site_type_symbol
_atom_site_label
_atom_site_fract_x
_atom_site_fract_y
_atom_site_fract_z
Si Si1 0.684504 0.500357 0.497490
Si Si2 0.360191 0.421047 0.743708
Si Si3 0.277291 0.197660 0.027090
Si Si4 0.877544 0.574754 0.024769
Si Si5 0.717520 0.204544 0.964740
O O1 0.711720 0.532100 0.684743
O O2 0.669091 0.534657 0.270643
O O3 0.641559 0.474197 0.579883
O O4 0.409213 0.437727 0.704562
O O5 0.340460 0.387234 0.521622
O O6 0.356116 0.398910 0.029240
O O7 0.256996 0.203838 0.321212
O O8 0.294998 0.244686 0.930119
O O9 0.237732 0.186953 0.816148
O O10 0.926286 0.569980 0.139201
#
# Coordination Sequence:
#
# PCOD9546312 Si02
#       5
#    16  16  16  16  16
#     4  10  20  30  43  64  92 138 169 202 232 274
#     4  11  22  33  50  71 100 129 170 214 248 291
#     4  10  20  35  54  73  97 131 172 210 258 307
#     4  11  22  33  50  71 100 129 170 214 248 291
#     4  10  20  35  54  73  97 131 172 210 258 307
#
# _framework density 17.121684999999999
#
# number of rings (size 3 to 8) (size 9 to 14) (size 15 to 20)
#    0.000    1.600    2.000    3.600    5.600    0.000 
#    0.000    0.000    0.000    0.000    0.000    0.000 
#    0.000    4.800    0.000    0.000    0.000    0.000 
#
# Total GULP energy -222814.016838 kJ/mol
# GULP energy per Si atom -5570.350421 kJ/mol
# Density = 1.708271 g / cm^3
# Si number density = 17.121685 Si / 1000 Ang^3
#
#
#
# Elastic Constant Matrix: (Units=GPa)
#
#
# Indices 1 2 3 4 5 6 
#
# 1 57.6755 25.1877 -1.5785 0.0000 0.0000 6.1500
# 2 25.1877 57.6755 -1.5785 0.0000 0.0000 -6.1500
# 3 -1.5785 -1.5785 52.0180 0.0000 0.0000 0.0000
# 4 0.0000 0.0000 0.0000 16.4847 0.0000 0.0000
# 5 0.0000 0.0000 0.0000 0.0000 16.4847 0.0000
# 6 6.1500 -6.1500 0.0000 0.0000 0.0000 13.4819
#
#
#
# Elastic Compliance Matrix: (Units=1/GPa)
#
#
# Indices 1 2 3 4 5 6 
#
# 1 0.024644 -0.012562 0.000367 0.000000 0.000000 -0.016972
# 2 -0.012562 0.024644 0.000367 0.000000 0.000000 0.016972
# 3 0.000367 0.000367 0.019246 0.000000 0.000000 0.000000
# 4 0.000000 0.000000 0.000000 0.060662 0.000000 0.000000
# 5 0.000000 0.000000 0.000000 0.000000 0.060662 0.000000
# 6 -0.016972 0.016972 0.000000 0.000000 0.000000 0.089658
#
#
# Mechanical properties :
#
#
# Convention : Reuss Voigt Hill
#
# Bulk Modulus (GPa) = 22.28316 23.49229 22.88772
# Shear Modulus (GPa) = 15.71663 18.97950 17.34806
#
# Velocity S-wave (km/s) = 3.03303 3.33304 3.18657
# Velocity P-wave (km/s) = 5.03076 5.34441 5.18996
#
# Compressibility (1/GPa) = 0.04487695
#
# Stress axis : x y z
#
# Youngs Moduli (GPa) = 40.57728 40.57728 51.95791
#
# Poissons Ratio (x) = 0.50974 -0.01905
# Poissons Ratio (y) = 0.50974 -0.01905
# Poissons Ratio (z) = -0.01488 -0.01488
#
# Static dielectric constant tensor:
#      x y z
#    x 1.633700 0.000000 0.000000 
#    y 0.000000 1.633700 0.000000 
#    z 0.000000 0.000000 1.639630 
# 
# From -- ./inp_files/734.got.cif
#   From: 2010.05.17/outbox.cif.g08.bks.cpg/sg88_1_cif.got.tgz:734.got - 2010.06.03 19:11:41.
