data_PCOD9546053
_publ_section_title
;
Structure prediction by ZEFSAII (Michael W. Deem and Ramdas Pophale) SiO2 
 PCOD9546053
Probable space group: I 4/M
;
_chemical_formula_sum "Si O2"
_cell_formula_units_Z 92
_cell_length_a 15.760007
_cell_length_b 15.760007
_cell_length_c 20.257497
_cell_angle_alpha 90.000000
_cell_angle_beta 90.000000
_cell_angle_gamma 90.000000
_cell_volume 5031.512956
_symmetry_space_group_name_H-M "I 4/M"
_symmetry_group_IT_number 87
_symmetry_cell_setting 'tetragonal'
loop_
_space_group_symop_operation_xyz
x,y,z
-y,x,z
-x,-y,z
y,-x,z
-x,-y,-z
y,-x,-z
x,y,-z
-y,x,-z
1/2+x,1/2+y,1/2+z
1/2-y,1/2+x,1/2+z
1/2-x,1/2-y,1/2+z
1/2+y,1/2-x,1/2+z
1/2-x,1/2-y,1/2-z
1/2+y,1/2-x,1/2-z
1/2+x,1/2+y,1/2-z
1/2-y,1/2+x,1/2-z
loop_
_atom_site_type_symbol
_atom_site_label
_atom_site_fract_x
_atom_site_fract_y
_atom_site_fract_z
Si Si1 0.865881 0.948299 0.500000
Si Si2 0.087021 0.550524 0.579005
Si Si3 0.755870 0.561830 0.875541
Si Si4 0.000000 0.000000 0.728108
Si Si5 0.695118 0.951761 0.177194
Si Si6 0.377054 0.660634 0.247748
Si Si7 0.085721 0.292724 0.714137
O O1 0.808442 0.929902 0.436151
O O2 0.952913 0.894699 0.500000
O O3 0.093625 0.551265 0.500000
O O4 0.080764 0.647309 0.604338
O O5 0.165303 0.500419 0.612038
O O6 0.000000 0.500000 0.596921
O O7 0.724656 0.618346 0.814324
O O8 0.751831 0.466380 0.846322
O O9 0.077290 0.070342 0.729650
O O10 0.792061 0.923763 0.191538
O O11 0.644279 0.865149 0.185806
O O12 0.670194 0.015089 0.236702
O O13 0.279564 0.634612 0.254925
#
# Coordination Sequence:
#
# PCOD9546053 Si02
#       7
#     8  16  16   4  16  16  16
#     4  11  24  36  59  88 124 172 213 248 304 381
#     4  11  23  41  62  86 124 165 204 250 308 377
#     4  11  21  39  59  88 124 162 205 251 309 372
#     4  12  20  40  60  89 121 164 200 252 318 380
#     4  11  22  36  62  89 118 159 199 252 312 369
#     4  11  23  38  61  89 126 159 202 260 310 371
#     4  11  22  37  59  93 124 153 201 256 311 371
#
# _framework density 18.284758
#
# number of rings (size 3 to 8) (size 9 to 14) (size 15 to 20)
#    0.000    0.957    6.087    3.652    0.000    0.000 
#    0.000    0.000    0.000    1.043    0.000    0.609 
#    0.000    0.000    0.000    0.000    0.000    0.000 
#
# Total GULP energy -256265.825134 kJ/mol
# GULP energy per Si atom -5570.996199 kJ/mol
# Density = 1.824314 g / cm^3
# Si number density = 18.284758 Si / 1000 Ang^3
#
#
#
# Elastic Constant Matrix: (Units=GPa)
#
#
# Indices 1 2 3 4 5 6 
#
# 1 95.3474 18.8292 18.0820 0.0000 0.0000 -1.5386
# 2 18.8292 95.3474 18.0820 0.0000 0.0000 1.5386
# 3 18.0820 18.0820 50.3715 0.0000 0.0000 0.0000
# 4 0.0000 0.0000 0.0000 16.1311 0.0000 0.0000
# 5 0.0000 0.0000 0.0000 0.0000 16.1311 0.0000
# 6 -1.5386 1.5386 0.0000 0.0000 0.0000 28.5654
#
#
#
# Elastic Compliance Matrix: (Units=1/GPa)
#
#
# Indices 1 2 3 4 5 6 
#
# 1 0.011490 -0.001608 -0.003547 0.000000 0.000000 0.000705
# 2 -0.001608 0.011490 -0.003547 0.000000 0.000000 -0.000705
# 3 -0.003547 -0.003547 0.022399 0.000000 0.000000 0.000000
# 4 0.000000 0.000000 0.000000 0.061992 0.000000 0.000000
# 5 0.000000 0.000000 0.000000 0.000000 0.061992 0.000000
# 6 0.000705 -0.000705 0.000000 0.000000 0.000000 0.035083
#
#
# Mechanical properties :
#
#
# Convention : Reuss Voigt Hill
#
# Bulk Modulus (GPa) = 35.74774 39.00584 37.37679
# Shear Modulus (GPa) = 21.62866 24.57041 23.09954
#
# Velocity S-wave (km/s) = 3.44303 3.66972 3.55818
# Velocity P-wave (km/s) = 5.94970 6.27172 6.11283
#
# Compressibility (1/GPa) = 0.02797380
#
# Stress axis : x y z
#
# Youngs Moduli (GPa) = 87.03565 87.03565 44.64426
#
# Poissons Ratio (x) = 0.13992 0.15837
# Poissons Ratio (y) = 0.13992 0.15837
# Poissons Ratio (z) = 0.30875 0.30875
#
# Static dielectric constant tensor:
#      x y z
#    x 1.643040 0.000000 0.000000 
#    y 0.000000 1.643040 0.000000 
#    z 0.000000 0.000000 1.635560 
# 
# From -- ./inp_files/5332.got.cif
#   From: 2010.05.17/outbox.cif.g08.bks.cpg/sg87_3_cif.got.tgz:5332.got - 2010.06.03 19:07:00.
