data_PCOD9546223
_publ_section_title
;
Structure prediction by ZEFSAII (Michael W. Deem and Ramdas Pophale) SiO2 
 PCOD9546223
Probable space group: I 41/A
;
_chemical_formula_sum "Si O2"
_cell_formula_units_Z 128
_cell_length_a 20.662432
_cell_length_b 20.662432
_cell_length_c 18.147148
_cell_angle_alpha 90.000000
_cell_angle_beta 90.000000
_cell_angle_gamma 90.000000
_cell_volume 7747.672523
_symmetry_space_group_name_H-M "I 41/A"
_symmetry_group_IT_number 88
_space_group.IT_coordinate_system_code '2'
_symmetry_cell_setting 'tetragonal'
loop_
_space_group_symop_operation_xyz
x,y,z
3/4-y,1/4+x,1/4+z
-x,1/2-y,z
1/4+y,1/4-x,1/4+z
-x,-y,-z
1/4+y,3/4-x,3/4-z
x,1/2+y,-z
3/4-y,3/4+x,3/4-z
1/2+x,1/2+y,1/2+z
1/4-y,3/4+x,3/4+z
1/2-x,-y,1/2+z
3/4+y,3/4-x,3/4+z
1/2-x,1/2-y,1/2-z
3/4+y,1/4-x,1/4-z
1/2+x,y,1/2-z
1/4-y,1/4+x,1/4-z
loop_
_atom_site_type_symbol
_atom_site_label
_atom_site_fract_x
_atom_site_fract_y
_atom_site_fract_z
Si Si1 0.060782 0.467951 0.856573
Si Si2 0.371247 0.694560 0.578769
Si Si3 0.366085 0.061967 0.496285
Si Si4 0.289317 0.912516 0.003363
Si Si5 0.242102 0.589747 0.953210
Si Si6 0.228434 0.030305 0.649921
Si Si7 0.186233 0.332893 0.345601
Si Si8 0.609300 0.666135 0.527350
O O1 0.057227 0.545173 0.847918
O O2 0.109397 0.448486 0.921464
O O3 0.092941 0.444868 0.780208
O O4 0.991306 0.443768 0.882002
O O5 0.392385 0.628126 0.539203
O O6 0.382787 0.756872 0.528091
O O7 0.403345 0.693889 0.659358
O O8 0.288621 0.073649 0.496349
O O9 0.391868 0.998189 0.453117
O O10 0.316599 0.967483 0.948474
O O11 0.305034 0.925519 0.088182
O O12 0.239678 0.527007 0.899860
O O13 0.303947 0.627379 0.921015
O O14 0.177245 0.632464 0.947009
O O15 0.250906 0.568574 0.037775
O O16 0.122046 0.342982 0.297389
#
# Coordination Sequence:
#
# PCOD9546223 Si02
#       8
#    16  16  16  16  16  16  16  16
#     4  11  21  33  52  73 102 151 186 221 271 328
#     4  11  23  34  52  74 115 150 188 225 274 319
#     4  11  19  33  49  76 107 144 182 221 261 330
#     4  10  18  31  48  78 103 134 177 221 279 325
#     4  11  18  32  51  77 104 139 178 223 278 327
#     4  10  18  29  51  76 104 128 170 234 271 325
#     4  12  21  34  53  74 107 147 190 221 265 340
#     4  12  23  36  48  78 114 153 189 223 266 335
#
# _framework density 16.521090999999998
#
# number of rings (size 3 to 8) (size 9 to 14) (size 15 to 20)
#    0.000    1.000    7.500    1.875    1.750    0.250 
#    0.000    0.000    0.000    0.000    3.250    4.375 
#    0.000    0.000    0.000    0.000    0.000    0.000 
#
# Total GULP energy -356686.689460 kJ/mol
# GULP energy per Si atom -5573.229523 kJ/mol
# Density = 1.648349 g / cm^3
# Si number density = 16.521091 Si / 1000 Ang^3
#
#
#
# Elastic Constant Matrix: (Units=GPa)
#
#
# Indices 1 2 3 4 5 6 
#
# 1 61.5480 17.1815 34.5106 0.0000 0.0000 0.4762
# 2 17.1815 61.5480 34.5106 0.0000 0.0000 -0.4762
# 3 34.5106 34.5106 109.0260 0.0000 0.0000 0.0000
# 4 0.0000 0.0000 0.0000 23.7813 0.0000 0.0000
# 5 0.0000 0.0000 0.0000 0.0000 23.7813 0.0000
# 6 0.4762 -0.4762 0.0000 0.0000 0.0000 7.2926
#
#
#
# Elastic Compliance Matrix: (Units=1/GPa)
#
#
# Indices 1 2 3 4 5 6 
#
# 1 0.020076 -0.002495 -0.005565 0.000000 0.000000 -0.001474
# 2 -0.002495 0.020076 -0.005565 0.000000 0.000000 0.001474
# 3 -0.005565 -0.005565 0.012695 0.000000 0.000000 0.000000
# 4 0.000000 0.000000 0.000000 0.042050 0.000000 0.000000
# 5 0.000000 0.000000 0.000000 0.000000 0.042050 0.000000
# 6 -0.001474 0.001474 0.000000 0.000000 0.000000 0.137318
#
#
# Mechanical properties :
#
#
# Convention : Reuss Voigt Hill
#
# Bulk Modulus (GPa) = 39.06788 44.94749 42.00769
# Shear Modulus (GPa) = 16.12663 20.69898 18.41281
#
# Velocity S-wave (km/s) = 3.12769 3.54345 3.34204
# Velocity P-wave (km/s) = 6.06151 6.63374 6.35407
#
# Compressibility (1/GPa) = 0.02559648
#
# Stress axis : x y z
#
# Youngs Moduli (GPa) = 49.81132 49.81132 78.77091
#
# Poissons Ratio (x) = 0.12430 0.43834
# Poissons Ratio (y) = 0.12430 0.43834
# Poissons Ratio (z) = 0.27719 0.27719
#
# Static dielectric constant tensor:
#      x y z
#    x 1.600060 0.000000 0.000000 
#    y 0.000000 1.600060 0.000000 
#    z 0.000000 0.000000 1.596020 
# 
# From -- ./inp_files/4095.got.cif
#   From: 2010.05.17/outbox.cif.g08.bks.cpg/sg88_3_cif.got.tgz:4095.got - 2010.06.03 19:11:41.
