data_PCOD9546435
_publ_section_title
;
Structure prediction by ZEFSAII (Michael W. Deem and Ramdas Pophale) SiO2 
 PCOD9546435
Probable space group: I 41/A
;
_chemical_formula_sum "Si O2"
_cell_formula_units_Z 64
_cell_length_a 20.963818
_cell_length_b 20.963818
_cell_length_c 7.207137
_cell_angle_alpha 90.000000
_cell_angle_beta 90.000000
_cell_angle_gamma 90.000000
_cell_volume 3167.404570
_symmetry_space_group_name_H-M "I 41/A"
_symmetry_group_IT_number 88
_space_group.IT_coordinate_system_code '2'
_symmetry_cell_setting 'tetragonal'
loop_
_space_group_symop_operation_xyz
x,y,z
3/4-y,1/4+x,1/4+z
-x,1/2-y,z
1/4+y,1/4-x,1/4+z
-x,-y,-z
1/4+y,3/4-x,3/4-z
x,1/2+y,-z
3/4-y,3/4+x,3/4-z
1/2+x,1/2+y,1/2+z
1/4-y,3/4+x,3/4+z
1/2-x,-y,1/2+z
3/4+y,3/4-x,3/4+z
1/2-x,1/2-y,1/2-z
3/4+y,1/4-x,1/4-z
1/2+x,y,1/2-z
1/4-y,1/4+x,1/4-z
loop_
_atom_site_type_symbol
_atom_site_label
_atom_site_fract_x
_atom_site_fract_y
_atom_site_fract_z
Si Si1 0.699038 0.711469 0.047199
Si Si2 0.371793 0.860974 0.714568
Si Si3 0.508233 0.914496 0.811322
Si Si4 0.760054 0.080748 0.870877
O O1 0.761312 0.752594 0.995503
O O2 0.661474 0.743903 0.215078
O O3 0.732427 0.650814 0.146957
O O4 0.657470 0.684395 0.877795
O O5 0.446192 0.876866 0.740469
O O6 0.361623 0.823274 0.524899
O O7 0.336411 0.929514 0.737659
O O8 0.788428 0.047686 0.692770
#
# Coordination Sequence:
#
# PCOD9546435 Si02
#       4
#    16  16  16  16
#     4   9  20  39  56  80 113 149 187 228 286 343
#     4  10  21  37  54  83 110 145 194 228 277 342
#     4  10  21  37  59  79 112 152 185 235 286 331
#     4   9  19  33  53  84 111 139 183 233 285 339
#
# _framework density 20.205817
#
# number of rings (size 3 to 8) (size 9 to 14) (size 15 to 20)
#    0.000    2.500    0.000    0.750    3.500    2.500 
#    0.000    0.000    0.000    0.000    0.000    0.000 
#    0.000    0.000    0.000    0.000    0.000    0.000 
#
# Total GULP energy -178414.219846 kJ/mol
# GULP energy per Si atom -5575.444370 kJ/mol
# Density = 2.015983 g / cm^3
# Si number density = 20.205817 Si / 1000 Ang^3
#
#
#
# Elastic Constant Matrix: (Units=GPa)
#
#
# Indices 1 2 3 4 5 6 
#
# 1 20.5855 23.6281 7.6988 0.0000 0.0000 -6.5103
# 2 23.6281 20.5855 7.6988 0.0000 0.0000 6.5103
# 3 7.6988 7.6988 35.6096 0.0000 0.0000 0.0000
# 4 0.0000 0.0000 0.0000 27.3857 0.0000 0.0000
# 5 0.0000 0.0000 0.0000 0.0000 27.3857 0.0000
# 6 -6.5103 6.5103 0.0000 0.0000 0.0000 30.3764
#
#
#
# Elastic Compliance Matrix: (Units=1/GPa)
#
#
# Indices 1 2 3 4 5 6 
#
# 1 -0.073488 0.097947 -0.005288 0.000000 0.000000 -0.036742
# 2 0.097947 -0.073488 -0.005288 0.000000 0.000000 0.036742
# 3 -0.005288 -0.005288 0.030369 0.000000 0.000000 0.000000
# 4 0.000000 0.000000 0.000000 0.036515 0.000000 0.000000
# 5 0.000000 0.000000 0.000000 0.000000 0.036515 0.000000
# 6 -0.036742 0.036742 0.000000 0.000000 0.000000 0.017171
#
#
# Mechanical properties :
#
#
# Convention : Reuss Voigt Hill
#
# Bulk Modulus (GPa) = 17.20138 17.20354 17.20246
# Shear Modulus (GPa) = -27.50747 19.54655 -3.98046
#
# Velocity S-wave (km/s) = -3.69367 3.11363 -1.40508
# Velocity P-wave (km/s) = 3.10795 4.63238 2.42895
#
# Compressibility (1/GPa) = 0.05813486
#
# Stress axis : x y z
#
# Youngs Moduli (GPa) = -13.60766 -13.60766 32.92849
#
# Poissons Ratio (x) = 1.33283 0.17413
# Poissons Ratio (y) = 1.33283 0.17413
# Poissons Ratio (z) = -0.07196 -0.07196
#
# Static dielectric constant tensor:
#      x y z
#    x 1.727210 0.000000 0.000000 
#    y 0.000000 1.727210 0.000000 
#    z 0.000000 0.000000 1.719820 
# 
# From -- ./inp_files/540.got.cif
#   From: 2010.05.17/outbox.cif.g08.bks.cpg/sg88_1_cif.got.tgz:540.got - 2010.06.03 19:11:41.
