data_PCOD9546573
_publ_section_title
;
Structure prediction by ZEFSAII (Michael W. Deem and Ramdas Pophale) SiO2 
 PCOD9546573
Probable space group: I 41/A
;
_chemical_formula_sum "Si O2"
_cell_formula_units_Z 96
_cell_length_a 14.364069
_cell_length_b 14.364069
_cell_length_c 21.065718
_cell_angle_alpha 90.000000
_cell_angle_beta 90.000000
_cell_angle_gamma 90.000000
_cell_volume 4346.415406
_symmetry_space_group_name_H-M "I 41/A"
_symmetry_group_IT_number 88
_space_group.IT_coordinate_system_code '2'
_symmetry_cell_setting 'tetragonal'
loop_
_space_group_symop_operation_xyz
x,y,z
3/4-y,1/4+x,1/4+z
-x,1/2-y,z
1/4+y,1/4-x,1/4+z
-x,-y,-z
1/4+y,3/4-x,3/4-z
x,1/2+y,-z
3/4-y,3/4+x,3/4-z
1/2+x,1/2+y,1/2+z
1/4-y,3/4+x,3/4+z
1/2-x,-y,1/2+z
3/4+y,3/4-x,3/4+z
1/2-x,1/2-y,1/2-z
3/4+y,1/4-x,1/4-z
1/2+x,y,1/2-z
1/4-y,1/4+x,1/4-z
loop_
_atom_site_type_symbol
_atom_site_label
_atom_site_fract_x
_atom_site_fract_y
_atom_site_fract_z
Si Si1 0.627938 0.408846 0.127162
Si Si2 0.214017 0.240515 0.321492
Si Si3 0.092448 0.804845 0.503069
Si Si4 0.287545 0.904256 0.155078
Si Si5 0.399617 0.510076 0.304478
Si Si6 0.850498 0.194131 0.940247
O O1 0.711451 0.341638 0.147024
O O2 0.577460 0.367304 0.065863
O O3 0.666837 0.510761 0.116645
O O4 0.554524 0.401338 0.184515
O O5 0.250000 0.250000 0.250000
O O6 0.264425 0.173852 0.372481
O O7 0.109656 0.195232 0.327082
O O8 0.117460 0.878181 0.448101
O O9 0.169448 0.728019 0.524848
O O10 0.000000 0.750000 0.485466
O O11 0.202484 0.944596 0.197239
O O12 0.233553 0.836668 0.106963
O O13 0.406765 0.422294 0.259487
#
# Coordination Sequence:
#
# PCOD9546573 Si02
#       6
#    16  16  16  16  16  16
#     4  11  22  41  65  90 129 177 217 275 346 403
#     4  10  22  41  67  94 126 175 222 276 339 404
#     4  11  23  42  64  94 133 178 222 278 344 408
#     4  11  23  39  67  95 131 179 225 278 335 415
#     4  10  22  42  63  96 133 169 224 275 337 410
#     4  11  22  41  62  95 132 170 221 277 335 408
#
# _framework density 22.087167999999998
#
# number of rings (size 3 to 8) (size 9 to 14) (size 15 to 20)
#    0.000    1.333    1.667    5.500    0.000    5.333 
#    3.000    0.000    0.000    0.000    0.000    0.000 
#    0.000    0.000    0.000    0.000    0.000    0.000 
#
# Total GULP energy -267992.582421 kJ/mol
# GULP energy per Si atom -5583.178800 kJ/mol
# Density = 2.203690 g / cm^3
# Si number density = 22.087168 Si / 1000 Ang^3
#
#
#
# Elastic Constant Matrix: (Units=GPa)
#
#
# Indices 1 2 3 4 5 6 
#
# 1 72.0383 34.3349 24.3459 0.0000 0.0000 -1.3312
# 2 34.3349 72.0383 24.3459 0.0000 0.0000 1.3312
# 3 24.3459 24.3459 71.9942 0.0000 0.0000 0.0000
# 4 0.0000 0.0000 0.0000 32.3208 0.0000 0.0000
# 5 0.0000 0.0000 0.0000 0.0000 32.3208 0.0000
# 6 -1.3312 1.3312 0.0000 0.0000 0.0000 25.9563
#
#
#
# Elastic Compliance Matrix: (Units=1/GPa)
#
#
# Indices 1 2 3 4 5 6 
#
# 1 0.018871 -0.007748 -0.003761 0.000000 0.000000 0.001365
# 2 -0.007748 0.018871 -0.003761 0.000000 0.000000 -0.001365
# 3 -0.003761 -0.003761 0.016434 0.000000 0.000000 0.000000
# 4 0.000000 0.000000 0.000000 0.030940 0.000000 0.000000
# 5 0.000000 0.000000 0.000000 0.000000 0.030940 0.000000
# 6 0.001365 -0.001365 0.000000 0.000000 0.000000 0.038666
#
#
# Mechanical properties :
#
#
# Convention : Reuss Voigt Hill
#
# Bulk Modulus (GPa) = 42.31202 42.45825 42.38514
# Shear Modulus (GPa) = 25.88776 26.98916 26.43846
#
# Velocity S-wave (km/s) = 3.42727 3.49942 3.46353
# Velocity P-wave (km/s) = 5.90423 5.96596 5.93518
#
# Compressibility (1/GPa) = 0.02363395
#
# Stress axis : x y z
#
# Youngs Moduli (GPa) = 52.99161 52.99161 60.84990
#
# Poissons Ratio (x) = 0.41060 0.22887
# Poissons Ratio (y) = 0.41060 0.22887
# Poissons Ratio (z) = 0.19932 0.19932
#
# Static dielectric constant tensor:
#      x y z
#    x 1.819460 0.000000 0.000000 
#    y 0.000000 1.819460 0.000000 
#    z 0.000000 0.000000 1.816810 
# 
# From -- ./inp_files/4676.got.cif
#   From: 2010.05.17/outbox.cif.g08.bks.cpg/sg88_3_cif.got.tgz:4676.got - 2010.06.03 19:11:41.
