data_PCOD9546251
_publ_section_title
;
Structure prediction by ZEFSAII (Michael W. Deem and Ramdas Pophale) SiO2 
 PCOD9546251
Probable space group: I 41/A
;
_chemical_formula_sum "Si O2"
_cell_formula_units_Z 108
_cell_length_a 14.160244
_cell_length_b 14.160244
_cell_length_c 29.297176
_cell_angle_alpha 90.000000
_cell_angle_beta 90.000000
_cell_angle_gamma 90.000000
_cell_volume 5874.450300
_symmetry_space_group_name_H-M "I 41/A"
_symmetry_group_IT_number 88
_space_group.IT_coordinate_system_code '2'
_symmetry_cell_setting 'tetragonal'
loop_
_space_group_symop_operation_xyz
x,y,z
3/4-y,1/4+x,1/4+z
-x,1/2-y,z
1/4+y,1/4-x,1/4+z
-x,-y,-z
1/4+y,3/4-x,3/4-z
x,1/2+y,-z
3/4-y,3/4+x,3/4-z
1/2+x,1/2+y,1/2+z
1/4-y,3/4+x,3/4+z
1/2-x,-y,1/2+z
3/4+y,3/4-x,3/4+z
1/2-x,1/2-y,1/2-z
3/4+y,1/4-x,1/4-z
1/2+x,y,1/2-z
1/4-y,1/4+x,1/4-z
loop_
_atom_site_type_symbol
_atom_site_label
_atom_site_fract_x
_atom_site_fract_y
_atom_site_fract_z
Si Si1 0.000000 0.750000 0.375000
Si Si2 0.500000 0.750000 0.432309
Si Si3 0.149374 0.820492 0.606797
Si Si4 0.310160 0.754101 0.296937
Si Si5 0.904987 0.051174 0.796749
Si Si6 0.234219 0.544916 0.080750
Si Si7 0.067644 0.943763 0.370626
Si Si8 0.200591 0.746973 0.037424
O O1 0.027987 0.846170 0.350010
O O2 0.470364 0.831262 0.396415
O O3 0.410693 0.736771 0.465093
O O4 0.205822 0.732636 0.586493
O O5 0.208911 0.898659 0.633638
O O6 0.089898 0.874093 0.566075
O O7 0.250000 0.750000 0.250000
O O8 0.377057 0.661923 0.294723
O O9 0.230768 0.740931 0.336012
O O10 0.804908 0.000128 0.805952
O O11 0.957392 0.010726 0.752654
O O12 0.327573 0.565489 0.110579
O O13 0.221326 0.635880 0.047523
O O14 0.053778 0.021942 0.332999
#
# Coordination Sequence:
#
# PCOD9546251 Si02
#       8
#     4   8  16  16  16  16  16  16
#     4  12  20  28  54  84 124 160 196 220 302 380
#     4  10  18  44  65  80 107 181 212 238 313 382
#     4  11  20  44  65  85 127 172 210 257 311 388
#     4  11  23  36  60  91 128 166 211 255 310 379
#     4  11  25  38  60 100 120 157 217 264 316 371
#     4  10  23  41  61  88 125 163 210 251 316 380
#     4  11  21  37  54  88 127 169 199 240 317 379
#     4  11  23  39  64  85 126 159 207 267 303 375
#
# _framework density 18.384699999999999
#
# number of rings (size 3 to 8) (size 9 to 14) (size 15 to 20)
#    0.000    1.185    5.926    0.889    8.296    0.000 
#    0.000    4.444    0.000    0.000    0.000    0.000 
#    0.000    0.000    0.000    0.000    0.000    0.000 
#
# Total GULP energy -300894.434468 kJ/mol
# GULP energy per Si atom -5572.119157 kJ/mol
# Density = 1.834286 g / cm^3
# Si number density = 18.384700 Si / 1000 Ang^3
#
#
#
# Elastic Constant Matrix: (Units=GPa)
#
#
# Indices 1 2 3 4 5 6 
#
# 1 80.9948 48.1208 23.4307 0.0000 0.0000 3.6226
# 2 48.1208 80.9948 23.4307 0.0000 0.0000 -3.6226
# 3 23.4307 23.4307 71.2414 0.0000 0.0000 0.0000
# 4 0.0000 0.0000 0.0000 22.0066 0.0000 0.0000
# 5 0.0000 0.0000 0.0000 0.0000 22.0066 0.0000
# 6 3.6226 -3.6226 0.0000 0.0000 0.0000 20.2230
#
#
#
# Elastic Compliance Matrix: (Units=1/GPa)
#
#
# Indices 1 2 3 4 5 6 
#
# 1 0.020232 -0.011437 -0.002893 0.000000 0.000000 -0.005673
# 2 -0.011437 0.020232 -0.002893 0.000000 0.000000 0.005673
# 3 -0.002893 -0.002893 0.015939 0.000000 0.000000 0.000000
# 4 0.000000 0.000000 0.000000 0.045441 0.000000 0.000000
# 5 0.000000 0.000000 0.000000 0.000000 0.045441 0.000000
# 6 -0.005673 0.005673 0.000000 0.000000 0.000000 0.051481
#
#
# Mechanical properties :
#
#
# Convention : Reuss Voigt Hill
#
# Bulk Modulus (GPa) = 45.53958 47.02171 46.28064
# Shear Modulus (GPa) = 20.78734 22.06384 21.42559
#
# Velocity S-wave (km/s) = 3.36622 3.46803 3.41750
# Velocity P-wave (km/s) = 6.31923 6.45511 6.38753
#
# Compressibility (1/GPa) = 0.02195892
#
# Stress axis : x y z
#
# Youngs Moduli (GPa) = 49.42624 49.42624 62.73743
#
# Poissons Ratio (x) = 0.56531 0.18147
# Poissons Ratio (y) = 0.56531 0.18147
# Poissons Ratio (z) = 0.14297 0.14297
#
# Static dielectric constant tensor:
#      x y z
#    x 1.669400 0.000000 0.000000 
#    y 0.000000 1.669400 0.000000 
#    z 0.000000 0.000000 1.643890 
# 
# From -- ./inp_files/5909.got.cif
#   From: 2010.05.17/outbox.cif.g08.bks.cpg/sg88_3_cif.got.tgz:5909.got - 2010.06.03 19:11:41.
