data_PCOD9546472
_publ_section_title
;
Structure prediction by ZEFSAII (Michael W. Deem and Ramdas Pophale) SiO2 
 PCOD9546472
Probable space group: I 41/A
;
_chemical_formula_sum "Si O2"
_cell_formula_units_Z 104
_cell_length_a 23.426173
_cell_length_b 23.426173
_cell_length_c 7.684062
_cell_angle_alpha 90.000000
_cell_angle_beta 90.000000
_cell_angle_gamma 90.000000
_cell_volume 4216.902432
_symmetry_space_group_name_H-M "I 41/A"
_symmetry_group_IT_number 88
_space_group.IT_coordinate_system_code '2'
_symmetry_cell_setting 'tetragonal'
loop_
_space_group_symop_operation_xyz
x,y,z
3/4-y,1/4+x,1/4+z
-x,1/2-y,z
1/4+y,1/4-x,1/4+z
-x,-y,-z
1/4+y,3/4-x,3/4-z
x,1/2+y,-z
3/4-y,3/4+x,3/4-z
1/2+x,1/2+y,1/2+z
1/4-y,3/4+x,3/4+z
1/2-x,-y,1/2+z
3/4+y,3/4-x,3/4+z
1/2-x,1/2-y,1/2-z
3/4+y,1/4-x,1/4-z
1/2+x,y,1/2-z
1/4-y,1/4+x,1/4-z
loop_
_atom_site_type_symbol
_atom_site_label
_atom_site_fract_x
_atom_site_fract_y
_atom_site_fract_z
Si Si1 0.891064 0.442218 0.382735
Si Si2 0.000000 0.750000 0.604871
Si Si3 0.838797 0.115253 0.228821
Si Si4 0.747601 0.358036 0.977811
Si Si5 0.996847 0.872353 0.972687
Si Si6 0.976289 0.541428 0.267377
Si Si7 0.500407 0.125823 0.066065
O O1 0.865446 0.466800 0.558184
O O2 0.852929 0.423206 0.223756
O O3 0.931987 0.490611 0.294862
O O4 0.932752 0.391038 0.441755
O O5 0.941524 0.760537 0.713512
O O6 0.989097 0.690287 0.511214
O O7 0.782949 0.118835 0.349423
O O8 0.877322 0.063374 0.288861
O O9 0.866492 0.178595 0.239939
O O10 0.987388 0.121634 0.228897
O O11 0.735094 0.290030 0.974517
O O12 0.026507 0.920476 0.093041
O O13 0.970959 0.583668 0.431046
#
# Coordination Sequence:
#
# PCOD9546472 Si02
#       7
#    16   8  16  16  16  16  16
#     4  10  23  44  67 103 129 179 236 273 335 412
#     4  12  25  43  64 105 151 186 221 279 354 423
#     4  10  24  44  69  98 128 173 228 286 344 394
#     4  10  22  45  70  96 133 172 223 285 339 404
#     4  10  23  40  62 100 137 181 230 271 341 407
#     4  10  23  42  68  97 131 187 234 270 323 415
#     4  10  21  39  63  91 138 185 223 273 331 401
#
# _framework density 24.662652000000001
#
# number of rings (size 3 to 8) (size 9 to 14) (size 15 to 20)
#    0.000    1.846    0.000    3.231    4.308    9.846 
#   16.615    0.000    0.000    0.000    0.000    0.000 
#    0.000    0.000    0.000    0.000    0.000    0.000 
#
# Total GULP energy -291451.980310 kJ/mol
# GULP energy per Si atom -5604.845775 kJ/mol
# Density = 2.460652 g / cm^3
# Si number density = 24.662652 Si / 1000 Ang^3
#
#
#
# Elastic Constant Matrix: (Units=GPa)
#
#
# Indices 1 2 3 4 5 6 
#
# 1 97.6360 15.0866 16.1402 0.0000 0.0000 13.8971
# 2 15.0866 97.6360 16.1402 0.0000 0.0000 -13.8971
# 3 16.1402 16.1402 112.0850 0.0000 0.0000 0.0000
# 4 0.0000 0.0000 0.0000 33.8701 0.0000 0.0000
# 5 0.0000 0.0000 0.0000 0.0000 33.8701 0.0000
# 6 13.8971 -13.8971 0.0000 0.0000 0.0000 21.0984
#
#
#
# Elastic Compliance Matrix: (Units=1/GPa)
#
#
# Indices 1 2 3 4 5 6 
#
# 1 0.012410 -0.003157 -0.001332 0.000000 0.000000 -0.010253
# 2 -0.003157 0.012410 -0.001332 0.000000 0.000000 0.010253
# 3 -0.001332 -0.001332 0.009306 0.000000 0.000000 0.000000
# 4 0.000000 0.000000 0.000000 0.029525 0.000000 0.000000
# 5 0.000000 0.000000 0.000000 0.000000 0.029525 0.000000
# 6 -0.010253 0.010253 0.000000 0.000000 0.000000 0.060904
#
#
# Mechanical properties :
#
#
# Convention : Reuss Voigt Hill
#
# Bulk Modulus (GPa) = 44.48066 44.67677 44.57872
# Shear Modulus (GPa) = 28.86592 35.10038 31.98315
#
# Velocity S-wave (km/s) = 3.42487 3.77665 3.60505
# Velocity P-wave (km/s) = 5.80641 6.09688 5.95342
#
# Compressibility (1/GPa) = 0.02248168
#
# Stress axis : x y z
#
# Youngs Moduli (GPa) = 80.58324 80.58324 107.46291
#
# Poissons Ratio (x) = 0.25437 0.14319
# Poissons Ratio (y) = 0.25437 0.14319
# Poissons Ratio (z) = 0.10737 0.10737
#
# Static dielectric constant tensor:
#      x y z
#    x 1.934240 0.000000 0.000000 
#    y 0.000000 1.934240 0.000000 
#    z 0.000000 0.000000 1.998110 
# 
# From -- ./inp_files/3339.got.cif
#   From: 2010.05.17/outbox.cif.g08.bks.cpg/sg88_2_cif.got.tgz:3339.got - 2010.06.03 19:11:41.
