data_PCOD9546083
_publ_section_title
;
Structure prediction by ZEFSAII (Michael W. Deem and Ramdas Pophale) SiO2 
 PCOD9546083
Probable space group: I 4/M
;
_chemical_formula_sum "Si O2"
_cell_formula_units_Z 64
_cell_length_a 20.902240
_cell_length_b 20.902240
_cell_length_c 7.672299
_cell_angle_alpha 90.000000
_cell_angle_beta 90.000000
_cell_angle_gamma 90.000000
_cell_volume 3352.055337
_symmetry_space_group_name_H-M "I 4/M"
_symmetry_group_IT_number 87
_symmetry_cell_setting 'tetragonal'
loop_
_space_group_symop_operation_xyz
x,y,z
-y,x,z
-x,-y,z
y,-x,z
-x,-y,-z
y,-x,-z
x,y,-z
-y,x,-z
1/2+x,1/2+y,1/2+z
1/2-y,1/2+x,1/2+z
1/2-x,1/2-y,1/2+z
1/2+y,1/2-x,1/2+z
1/2-x,1/2-y,1/2-z
1/2+y,1/2-x,1/2-z
1/2+x,1/2+y,1/2-z
1/2-y,1/2+x,1/2-z
loop_
_atom_site_type_symbol
_atom_site_label
_atom_site_fract_x
_atom_site_fract_y
_atom_site_fract_z
Si Si1 0.800170 0.013421 0.500000
Si Si2 0.468170 0.192856 0.295825
Si Si3 0.360514 0.372681 0.000000
Si Si4 0.181594 0.777478 0.803791
Si Si5 0.152950 0.395377 0.790034
O O1 0.753277 0.023146 0.667082
O O2 0.856916 0.065032 0.500000
O O3 0.832980 0.944177 0.500000
O O4 0.462269 0.211174 0.500000
O O5 0.531725 0.149532 0.272941
O O6 0.406290 0.150621 0.245672
O O7 0.330994 0.338734 0.830990
O O8 0.250000 0.750000 0.750000
O O9 0.133287 0.718055 0.787409
O O10 0.183857 0.801725 0.000000
O O11 0.159070 0.395504 0.000000
#
# Coordination Sequence:
#
# PCOD9546083 Si02
#       5
#     8  16   8  16  16
#     4  12  26  47  68  96 135 172 227 278 335 394
#     4  11  24  40  65  95 136 176 220 270 332 396
#     4  12  26  45  68  97 132 175 220 282 328 393
#     4  12  22  38  65  97 129 167 221 276 337 387
#     4  11  22  40  62  94 134 178 220 270 330 398
#
# _framework density 19.092763000000001
#
# number of rings (size 3 to 8) (size 9 to 14) (size 15 to 20)
#    0.000    0.500    6.250    2.250    3.500    3.750 
#    0.000    2.500    0.000    0.000    0.000    3.500 
#    0.000    0.000    0.000    0.000    0.000    0.000 
#
# Total GULP energy -178974.265521 kJ/mol
# GULP energy per Si atom -5592.945798 kJ/mol
# Density = 1.904931 g / cm^3
# Si number density = 19.092763 Si / 1000 Ang^3
#
#
#
# Elastic Constant Matrix: (Units=GPa)
#
#
# Indices 1 2 3 4 5 6 
#
# 1 65.2337 26.1148 27.9532 0.0000 0.0000 -0.5593
# 2 26.1148 65.2337 27.9532 0.0000 0.0000 0.5593
# 3 27.9532 27.9532 137.5667 0.0000 0.0000 0.0000
# 4 0.0000 0.0000 0.0000 17.7258 0.0000 0.0000
# 5 0.0000 0.0000 0.0000 0.0000 17.7258 0.0000
# 6 -0.5593 0.5593 0.0000 0.0000 0.0000 36.7391
#
#
#
# Elastic Compliance Matrix: (Units=1/GPa)
#
#
# Indices 1 2 3 4 5 6 
#
# 1 0.019038 -0.006536 -0.002540 0.000000 0.000000 0.000389
# 2 -0.006536 0.019038 -0.002540 0.000000 0.000000 -0.000389
# 3 -0.002540 -0.002540 0.008302 0.000000 0.000000 0.000000
# 4 0.000000 0.000000 0.000000 0.056415 0.000000 0.000000
# 5 0.000000 0.000000 0.000000 0.000000 0.056415 0.000000
# 6 0.000389 -0.000389 0.000000 0.000000 0.000000 0.027231
#
#
# Mechanical properties :
#
#
# Convention : Reuss Voigt Hill
#
# Bulk Modulus (GPa) = 43.20801 48.00848 45.60824
# Shear Modulus (GPa) = 23.00051 26.83901 24.91976
#
# Velocity S-wave (km/s) = 3.47460 3.75336 3.61667
# Velocity P-wave (km/s) = 6.22711 6.63197 6.43272
#
# Compressibility (1/GPa) = 0.02314386
#
# Stress axis : x y z
#
# Youngs Moduli (GPa) = 52.52652 52.52652 120.45898
#
# Poissons Ratio (x) = 0.34332 0.30601
# Poissons Ratio (y) = 0.34332 0.30601
# Poissons Ratio (z) = 0.13343 0.13343
#
# Static dielectric constant tensor:
#      x y z
#    x 1.689650 0.000000 0.000000 
#    y 0.000000 1.689650 0.000000 
#    z 0.000000 0.000000 1.671070 
# 
# From -- ./inp_files/994.got.cif
#   From: 2010.05.17/outbox.cif.g08.bks.cpg/sg87_1_cif.got.tgz:994.got - 2010.06.03 19:07:00.
