data_PCOD9546626
_publ_section_title
;
Structure prediction by ZEFSAII (Michael W. Deem and Ramdas Pophale) SiO2 
 PCOD9546626
Probable space group: I 41/A
;
_chemical_formula_sum "Si O2"
_cell_formula_units_Z 72
_cell_length_a 14.684454
_cell_length_b 14.684454
_cell_length_c 17.082748
_cell_angle_alpha 90.000000
_cell_angle_beta 90.000000
_cell_angle_gamma 90.000000
_cell_volume 3683.607433
_symmetry_space_group_name_H-M "I 41/A"
_symmetry_group_IT_number 88
_space_group.IT_coordinate_system_code '2'
_symmetry_cell_setting 'tetragonal'
loop_
_space_group_symop_operation_xyz
x,y,z
3/4-y,1/4+x,1/4+z
-x,1/2-y,z
1/4+y,1/4-x,1/4+z
-x,-y,-z
1/4+y,3/4-x,3/4-z
x,1/2+y,-z
3/4-y,3/4+x,3/4-z
1/2+x,1/2+y,1/2+z
1/4-y,3/4+x,3/4+z
1/2-x,-y,1/2+z
3/4+y,3/4-x,3/4+z
1/2-x,1/2-y,1/2-z
3/4+y,1/4-x,1/4-z
1/2+x,y,1/2-z
1/4-y,1/4+x,1/4-z
loop_
_atom_site_type_symbol
_atom_site_label
_atom_site_fract_x
_atom_site_fract_y
_atom_site_fract_z
Si Si1 0.678932 0.631716 0.701928
Si Si2 0.630715 0.757716 0.080786
Si Si3 0.000000 0.750000 0.187101
Si Si4 0.096958 0.106942 0.038751
Si Si5 0.978279 0.408972 0.311615
O O1 0.654468 0.739224 0.698586
O O2 0.648662 0.589920 0.619863
O O3 0.784504 0.624383 0.722825
O O4 0.621448 0.590768 0.773501
O O5 0.589383 0.666404 0.120609
O O6 0.738793 0.757396 0.082108
O O7 0.587129 0.761939 0.994032
O O8 0.088052 0.764405 0.132732
O O9 0.120665 0.205804 0.006194
#
# Coordination Sequence:
#
# PCOD9546626 Si02
#       5
#    16  16   8  16  16
#     4  11  24  40  62  94 135 171 217 267 322 387
#     4   9  24  47  64  91 127 163 222 276 315 387
#     4  10  23  42  67  92 122 172 218 252 333 388
#     4  11  24  40  62  94 135 171 217 267 322 387
#     4  12  23  39  69  93 127 174 209 269 330 387
#
# _framework density 19.546057999999999
#
# number of rings (size 3 to 8) (size 9 to 14) (size 15 to 20)
#    0.000    1.556    4.444    0.000    6.222    5.333 
#    0.000    0.000    0.000    0.000    0.000    0.000 
#    0.000    0.000    0.000    0.000    0.000    0.000 
#
# Total GULP energy -201143.777336 kJ/mol
# GULP energy per Si atom -5587.327148 kJ/mol
# Density = 1.950157 g / cm^3
# Si number density = 19.546058 Si / 1000 Ang^3
#
#
#
# Elastic Constant Matrix: (Units=GPa)
#
#
# Indices 1 2 3 4 5 6 
#
# 1 64.0383 -10.6844 12.2146 0.0000 0.0000 5.4822
# 2 -10.6844 64.0383 12.2146 0.0000 0.0000 -5.4822
# 3 12.2146 12.2146 100.1048 0.0000 0.0000 0.0000
# 4 0.0000 0.0000 0.0000 16.0108 0.0000 0.0000
# 5 0.0000 0.0000 0.0000 0.0000 16.0108 0.0000
# 6 5.4822 -5.4822 0.0000 0.0000 0.0000 10.4486
#
#
#
# Elastic Compliance Matrix: (Units=1/GPa)
#
#
# Indices 1 2 3 4 5 6 
#
# 1 0.017175 0.002676 -0.002422 0.000000 0.000000 -0.007607
# 2 0.002676 0.017175 -0.002422 0.000000 0.000000 0.007607
# 3 -0.002422 -0.002422 0.010581 0.000000 0.000000 0.000000
# 4 0.000000 0.000000 0.000000 0.062458 0.000000 0.000000
# 5 0.000000 0.000000 0.000000 0.000000 0.062458 0.000000
# 6 -0.007607 0.007607 0.000000 0.000000 0.000000 0.103689
#
#
# Mechanical properties :
#
#
# Convention : Reuss Voigt Hill
#
# Bulk Modulus (GPa) = 24.63342 28.40788 26.52065
# Shear Modulus (GPa) = 17.15827 22.78982 19.97405
#
# Velocity S-wave (km/s) = 2.96605 3.41831 3.20018
# Velocity P-wave (km/s) = 4.93559 5.49046 5.22040
#
# Compressibility (1/GPa) = 0.04059526
#
# Stress axis : x y z
#
# Youngs Moduli (GPa) = 58.22258 58.22259 94.51212
#
# Poissons Ratio (x) = -0.15583 0.22894
# Poissons Ratio (y) = -0.15583 0.22894
# Poissons Ratio (z) = 0.14103 0.14103
#
# Static dielectric constant tensor:
#      x y z
#    x 1.660860 0.000000 0.000000 
#    y 0.000000 1.660860 0.000000 
#    z 0.000000 0.000000 1.673460 
# 
# From -- ./inp_files/3823.got.cif
#   From: 2010.05.17/outbox.cif.g08.bks.cpg/sg88_2_cif.got.tgz:3823.got - 2010.06.03 19:11:41.
