data_PCOD9546945
_publ_section_title
;
Structure prediction by ZEFSAII (Michael W. Deem and Ramdas Pophale) SiO2 
 PCOD9546945
Probable space group: P 4 2 2
;
_chemical_formula_sum "Si O2"
_cell_formula_units_Z 48
_cell_length_a 15.076946
_cell_length_b 15.076946
_cell_length_c 11.560397
_cell_angle_alpha 90.000000
_cell_angle_beta 90.000000
_cell_angle_gamma 90.000000
_cell_volume 2627.843560
_symmetry_space_group_name_H-M "P 4 2 2"
_symmetry_group_IT_number 89
_symmetry_cell_setting 'tetragonal'
loop_
_space_group_symop_operation_xyz
x,y,z
-y,x,z
-x,-y,z
y,-x,z
x,-y,-z
-x,y,-z
y,x,-z
-y,-x,-z
loop_
_atom_site_type_symbol
_atom_site_label
_atom_site_fract_x
_atom_site_fract_y
_atom_site_fract_z
Si Si1 0.602793 0.808531 0.968449
Si Si2 0.692624 0.661124 0.367831
Si Si3 0.537320 0.141375 0.371573
Si Si4 0.640125 0.172155 0.775180
Si Si5 0.022508 0.599763 0.815713
Si Si6 0.374329 0.571257 0.845483
O O1 0.646214 0.794327 0.093406
O O2 0.500000 0.824538 0.000000
O O3 0.633151 0.895563 0.895277
O O4 0.605741 0.717824 0.896902
O O5 0.663462 0.663462 0.500000
O O6 0.787262 0.614746 0.370217
O O7 0.691232 0.758763 0.307890
O O8 0.633097 0.596027 0.289613
O O9 0.500000 0.130136 0.500000
O O10 0.458396 0.171884 0.283879
O O11 0.580670 0.056282 0.313524
O O12 0.656195 0.066872 0.798074
O O13 0.000000 0.500000 0.861211
O O14 0.383820 0.467793 0.877366
#
# Coordination Sequence:
#
# PCOD9546945 Si02
#       6
#     8   8   8   8   8   8
#     4  12  20  37  58  80 111 145 197 249 304 355
#     4  12  23  40  58  78 114 153 208 249 298 349
#     4  11  21  38  57  84 111 153 191 249 292 356
#     4  11  24  35  59  86 109 151 195 248 309 358
#     4  10  21  37  58  86 110 141 193 247 317 366
#     4  11  26  41  55  78 114 164 212 253 290 336
#
# _framework density 18.265927999999999
#
# number of rings (size 3 to 8) (size 9 to 14) (size 15 to 20)
#    0.000    0.833    6.667    2.500    0.000    7.000 
#    0.000    3.333    0.000    0.000    0.000    0.000 
#    0.000    0.667    0.000    1.500    8.000    0.667 
#
# Total GULP energy -267724.782738 kJ/mol
# GULP energy per Si atom -5577.599640 kJ/mol
# Density = 1.822435 g / cm^3
# Si number density = 18.265928 Si / 1000 Ang^3
#
#
#
# Elastic Constant Matrix: (Units=GPa)
#
#
# Indices 1 2 3 4 5 6 
#
# 1 92.4795 31.1985 49.5077 0.0000 0.0000 0.0000
# 2 31.1985 92.4795 49.5077 0.0000 0.0000 0.0000
# 3 49.5077 49.5077 161.7478 0.0000 0.0000 0.0000
# 4 0.0000 0.0000 0.0000 21.3602 0.0000 0.0000
# 5 0.0000 0.0000 0.0000 0.0000 21.3602 0.0000
# 6 0.0000 0.0000 0.0000 0.0000 0.0000 14.8891
#
#
#
# Elastic Compliance Matrix: (Units=1/GPa)
#
#
# Indices 1 2 3 4 5 6 
#
# 1 0.013514 -0.002804 -0.003278 0.000000 0.000000 0.000000
# 2 -0.002804 0.013514 -0.003278 0.000000 0.000000 0.000000
# 3 -0.003278 -0.003278 0.008189 0.000000 0.000000 0.000000
# 4 0.000000 0.000000 0.000000 0.046816 0.000000 0.000000
# 5 0.000000 0.000000 0.000000 0.000000 0.046816 0.000000
# 6 0.000000 0.000000 0.000000 0.000000 0.000000 0.067163
#
#
# Mechanical properties :
#
#
# Convention : Reuss Voigt Hill
#
# Bulk Modulus (GPa) = 60.61829 67.45938 64.03884
# Shear Modulus (GPa) = 22.70334 25.95479 24.32906
#
# Velocity S-wave (km/s) = 3.52935 3.77363 3.65353
# Velocity P-wave (km/s) = 7.06166 7.48325 7.27551
#
# Compressibility (1/GPa) = 0.01649667
#
# Stress axis : x y z
#
# Youngs Moduli (GPa) = 73.99680 73.99680 122.11246
#
# Poissons Ratio (x) = 0.20750 0.40030
# Poissons Ratio (y) = 0.20750 0.40030
# Poissons Ratio (z) = 0.24257 0.24257
#
# Static dielectric constant tensor:
#      x y z
#    x 1.683120 0.000000 0.000000 
#    y 0.000000 1.683120 0.000000 
#    z 0.000000 0.000000 1.724240 
# 
# From -- ./inp_files/1778.got.cif
#   From: 2010.05.17/outbox.cif.g08.bks.cpg/sg89_1_cif.got.tgz:1778.got - 2010.06.03 19:15:31.
