data_PCOD9546705
_publ_section_title
;
Structure prediction by ZEFSAII (Michael W. Deem and Ramdas Pophale) SiO2 
 PCOD9546705
Probable space group: I 41/A
;
_chemical_formula_sum "Si O2"
_cell_formula_units_Z 64
_cell_length_a 17.890769
_cell_length_b 17.890769
_cell_length_c 8.344639
_cell_angle_alpha 90.000000
_cell_angle_beta 90.000000
_cell_angle_gamma 90.000000
_cell_volume 2670.948842
_symmetry_space_group_name_H-M "I 41/A"
_symmetry_group_IT_number 88
_space_group.IT_coordinate_system_code '2'
_symmetry_cell_setting 'tetragonal'
loop_
_space_group_symop_operation_xyz
x,y,z
3/4-y,1/4+x,1/4+z
-x,1/2-y,z
1/4+y,1/4-x,1/4+z
-x,-y,-z
1/4+y,3/4-x,3/4-z
x,1/2+y,-z
3/4-y,3/4+x,3/4-z
1/2+x,1/2+y,1/2+z
1/4-y,3/4+x,3/4+z
1/2-x,-y,1/2+z
3/4+y,3/4-x,3/4+z
1/2-x,1/2-y,1/2-z
3/4+y,1/4-x,1/4-z
1/2+x,y,1/2-z
1/4-y,1/4+x,1/4-z
loop_
_atom_site_type_symbol
_atom_site_label
_atom_site_fract_x
_atom_site_fract_y
_atom_site_fract_z
Si Si1 0.285741 0.916867 0.850712
Si Si2 0.723342 0.638713 0.293239
Si Si3 0.421816 0.459069 0.633397
Si Si4 0.386444 0.269745 0.924295
O O1 0.212431 0.942255 0.943652
O O2 0.259413 0.836852 0.775965
O O3 0.349244 0.951752 0.971629
O O4 0.659910 0.578897 0.340337
O O5 0.741406 0.681091 0.457102
O O6 0.682681 0.689783 0.161799
O O7 0.479564 0.390941 0.663473
O O8 0.453950 0.328760 0.936429
#
# Coordination Sequence:
#
# PCOD9546705 Si02
#       4
#    16  16  16  16
#     4  12  18  32  54  90 122 138 176 240 308 356
#     4  11  19  33  58  87 114 145 185 240 294 341
#     4  11  19  33  58  87 114 145 185 240 294 341
#     4   9  21  38  57  80 108 156 210 232 254 339
#
# _framework density 23.961523
#
# number of rings (size 3 to 8) (size 9 to 14) (size 15 to 20)
#    0.000    1.250    7.500    0.750    0.000    0.000 
#    0.000    1.250    0.000    0.000    0.000    3.500 
#    0.000    0.000    0.000    0.000    0.000    0.000 
#
# Total GULP energy -178204.629854 kJ/mol
# GULP energy per Si atom -5568.894683 kJ/mol
# Density = 2.390699 g / cm^3
# Si number density = 23.961523 Si / 1000 Ang^3
#
#
#
# Elastic Constant Matrix: (Units=GPa)
#
#
# Indices 1 2 3 4 5 6 
#
# 1 67.6288 56.5654 5.9577 0.0000 0.0000 -0.3146
# 2 56.5654 67.6288 5.9577 0.0000 0.0000 0.3146
# 3 5.9577 5.9577 61.7331 0.0000 0.0000 0.0000
# 4 0.0000 0.0000 0.0000 -6.2008 0.0000 0.0000
# 5 0.0000 0.0000 0.0000 0.0000 -6.2008 0.0000
# 6 -0.3146 0.3146 0.0000 0.0000 0.0000 52.7905
#
#
#
# Elastic Compliance Matrix: (Units=1/GPa)
#
#
# Indices 1 2 3 4 5 6 
#
# 1 0.049273 -0.041146 -0.000784 0.000000 0.000000 0.000539
# 2 -0.041146 0.049273 -0.000784 0.000000 0.000000 -0.000539
# 3 -0.000784 -0.000784 0.016350 0.000000 0.000000 0.000000
# 4 0.000000 0.000000 0.000000 -0.161269 0.000000 0.000000
# 5 0.000000 0.000000 0.000000 0.000000 -0.161269 0.000000
# 6 0.000539 -0.000539 0.000000 0.000000 0.000000 0.018949
#
#
# Mechanical properties :
#
#
# Convention : Reuss Voigt Hill
#
# Bulk Modulus (GPa) = 33.93609 37.10580 35.52095
# Shear Modulus (GPa) = -53.50835 16.64511 -18.43162
#
# Velocity S-wave (km/s) = -4.73069 2.63850 -2.77649
# Velocity P-wave (km/s) = 3.95547 4.98010 2.13959
#
# Compressibility (1/GPa) = 0.02946715
#
# Stress axis : x y z
#
# Youngs Moduli (GPa) = 20.29521 20.29521 61.16150
#
# Poissons Ratio (x) = 0.83506 0.04797
# Poissons Ratio (y) = 0.83506 0.04797
# Poissons Ratio (z) = 0.01592 0.01592
#
# Static dielectric constant tensor:
#      x y z
#    x 1.993420 0.000000 0.000000 
#    y 0.000000 1.993420 0.000000 
#    z 0.000000 0.000000 1.902090 
# 
# From -- ./inp_files/1469.got.cif
#   From: 2010.05.17/outbox.cif.g08.bks.cpg/sg88_1_cif.got.tgz:1469.got - 2010.06.03 19:11:41.
