data_PCOD9546002
_publ_section_title
;
Structure prediction by ZEFSAII (Michael W. Deem and Ramdas Pophale) SiO2 
 PCOD9546002
Probable space group: I 4/M
;
_chemical_formula_sum "Si O2"
_cell_formula_units_Z 80
_cell_length_a 11.957131
_cell_length_b 11.957131
_cell_length_c 33.355609
_cell_angle_alpha 90.000000
_cell_angle_beta 90.000000
_cell_angle_gamma 90.000000
_cell_volume 4768.950877
_symmetry_space_group_name_H-M "I 4/M"
_symmetry_group_IT_number 87
_symmetry_cell_setting 'tetragonal'
loop_
_space_group_symop_operation_xyz
x,y,z
-y,x,z
-x,-y,z
y,-x,z
-x,-y,-z
y,-x,-z
x,y,-z
-y,x,-z
1/2+x,1/2+y,1/2+z
1/2-y,1/2+x,1/2+z
1/2-x,1/2-y,1/2+z
1/2+y,1/2-x,1/2+z
1/2-x,1/2-y,1/2-z
1/2+y,1/2-x,1/2-z
1/2+x,1/2+y,1/2-z
1/2-y,1/2+x,1/2-z
loop_
_atom_site_type_symbol
_atom_site_label
_atom_site_fract_x
_atom_site_fract_y
_atom_site_fract_z
Si Si1 0.423788 0.327276 0.546313
Si Si2 0.369101 0.009976 0.683182
Si Si3 0.896518 0.702376 0.875117
Si Si4 0.876262 0.261019 0.169067
Si Si5 0.320020 0.449189 0.756131
O O1 0.554983 0.358591 0.552165
O O2 0.408941 0.293296 0.500000
O O3 0.385455 0.236007 0.578615
O O4 0.328655 0.884168 0.676626
O O5 0.500000 0.000000 0.696406
O O6 0.369163 0.079662 0.641832
O O7 0.287498 0.067663 0.715384
O O8 0.821686 0.785961 0.848850
O O9 0.023734 0.725454 0.862404
O O10 0.929026 0.217099 0.210449
O O11 0.425349 0.367091 0.762606
#
# Coordination Sequence:
#
# PCOD9546002 Si02
#       5
#    16  16  16  16  16
#     4   9  17  30  54  86 110 129 164 217 271 319
#     4  10  25  36  49  73 105 145 179 213 259 309
#     4  11  20  35  55  76 108 139 170 214 263 318
#     4  11  22  34  53  77 103 139 180 217 260 314
#     4  11  23  38  55  74  99 137 192 233 260 292
#
# _framework density 16.775179000000001
#
# number of rings (size 3 to 8) (size 9 to 14) (size 15 to 20)
#    0.000    1.600    4.000    1.800    5.600    2.000 
#    0.000    0.000    0.000    6.600    0.000    0.000 
#    0.000    0.000    0.000    6.200    0.000    0.000 
#
# Total GULP energy -223187.564082 kJ/mol
# GULP energy per Si atom -5579.689102 kJ/mol
# Density = 1.673700 g / cm^3
# Si number density = 16.775179 Si / 1000 Ang^3
#
#
#
# Elastic Constant Matrix: (Units=GPa)
#
#
# Indices 1 2 3 4 5 6 
#
# 1 62.9111 17.8878 38.0457 0.0000 0.0000 -4.4023
# 2 17.8878 62.9111 38.0457 0.0000 0.0000 4.4023
# 3 38.0457 38.0457 124.4656 0.0000 0.0000 0.0000
# 4 0.0000 0.0000 0.0000 22.5111 0.0000 0.0000
# 5 0.0000 0.0000 0.0000 0.0000 22.5111 0.0000
# 6 -4.4023 4.4023 0.0000 0.0000 0.0000 13.1898
#
#
#
# Elastic Compliance Matrix: (Units=1/GPa)
#
#
# Indices 1 2 3 4 5 6 
#
# 1 0.020570 -0.003191 -0.005312 0.000000 0.000000 0.007931
# 2 -0.003191 0.020570 -0.005312 0.000000 0.000000 -0.007931
# 3 -0.005312 -0.005312 0.011282 0.000000 0.000000 0.000000
# 4 0.000000 0.000000 0.000000 0.044423 0.000000 0.000000
# 5 0.000000 0.000000 0.000000 0.000000 0.044423 0.000000
# 6 0.007931 -0.007931 0.000000 0.000000 0.000000 0.081110
#
#
# Mechanical properties :
#
#
# Convention : Reuss Voigt Hill
#
# Bulk Modulus (GPa) = 40.33701 48.69399 44.51550
# Shear Modulus (GPa) = 19.35929 22.06297 20.71113
#
# Velocity S-wave (km/s) = 3.40081 3.63052 3.51754
# Velocity P-wave (km/s) = 6.28637 6.83116 6.56442
#
# Compressibility (1/GPa) = 0.02479113
#
# Stress axis : x y z
#
# Youngs Moduli (GPa) = 48.61339 48.61339 88.63654
#
# Poissons Ratio (x) = 0.15514 0.47087
# Poissons Ratio (y) = 0.15514 0.47087
# Poissons Ratio (z) = 0.25825 0.25825
#
# Static dielectric constant tensor:
#      x y z
#    x 1.578170 0.000000 0.000000 
#    y 0.000000 1.578170 0.000000 
#    z 0.000000 0.000000 1.557970 
# 
# From -- ./inp_files/6472.got.cif
#   From: 2010.05.17/outbox.cif.g08.bks.cpg/sg87_4_cif.got.tgz:6472.got - 2010.06.03 19:07:00.
