data_PCOD9546762
_publ_section_title
;
Structure prediction by ZEFSAII (Michael W. Deem and Ramdas Pophale) SiO2 
 PCOD9546762
Probable space group: I 41/A
;
_chemical_formula_sum "Si O2"
_cell_formula_units_Z 80
_cell_length_a 26.651134
_cell_length_b 26.651134
_cell_length_c 5.049574
_cell_angle_alpha 90.000000
_cell_angle_beta 90.000000
_cell_angle_gamma 90.000000
_cell_volume 3586.626284
_symmetry_space_group_name_H-M "I 41/A"
_symmetry_group_IT_number 88
_space_group.IT_coordinate_system_code '2'
_symmetry_cell_setting 'tetragonal'
loop_
_space_group_symop_operation_xyz
x,y,z
3/4-y,1/4+x,1/4+z
-x,1/2-y,z
1/4+y,1/4-x,1/4+z
-x,-y,-z
1/4+y,3/4-x,3/4-z
x,1/2+y,-z
3/4-y,3/4+x,3/4-z
1/2+x,1/2+y,1/2+z
1/4-y,3/4+x,3/4+z
1/2-x,-y,1/2+z
3/4+y,3/4-x,3/4+z
1/2-x,1/2-y,1/2-z
3/4+y,1/4-x,1/4-z
1/2+x,y,1/2-z
1/4-y,1/4+x,1/4-z
loop_
_atom_site_type_symbol
_atom_site_label
_atom_site_fract_x
_atom_site_fract_y
_atom_site_fract_z
Si Si1 0.599438 0.519244 0.926555
Si Si2 0.395043 0.123486 0.250709
Si Si3 0.814516 0.699939 0.675651
Si Si4 0.698782 0.942833 0.617327
Si Si5 0.835043 0.810452 0.485944
O O1 0.562455 0.548956 0.725495
O O2 0.655269 0.540017 0.879294
O O3 0.594927 0.463517 0.812673
O O4 0.578735 0.527485 0.220856
O O5 0.368786 0.174060 0.153725
O O6 0.349689 0.082255 0.246766
O O7 0.414802 0.121390 0.548778
O O8 0.439612 0.109763 0.052043
O O9 0.816510 0.757455 0.595408
O O10 0.749852 0.940609 0.786693
#
# Coordination Sequence:
#
# PCOD9546762 Si02
#       5
#    16  16  16  16  16
#     4  11  23  41  62  96 124 171 226 261 316 388
#     4  11  25  42  63  97 128 168 224 262 325 397
#     4  11  24  42  67  92 128 167 216 275 330 374
#     4  11  25  38  61  94 139 185 215 259 318 399
#     4  12  23  43  67  92 127 168 216 280 323 377
#
# _framework density 22.305084000000001
#
# number of rings (size 3 to 8) (size 9 to 14) (size 15 to 20)
#    0.000    0.800    2.000    6.000    5.600    0.000 
#    0.000    0.000    0.000    3.600    0.000    0.000 
#    0.000    0.000    0.000    0.000    0.000    0.000 
#
# Total GULP energy -223829.153923 kJ/mol
# GULP energy per Si atom -5595.728848 kJ/mol
# Density = 2.225432 g / cm^3
# Si number density = 22.305084 Si / 1000 Ang^3
#
#
#
# Elastic Constant Matrix: (Units=GPa)
#
#
# Indices 1 2 3 4 5 6 
#
# 1 56.8007 6.7583 19.1212 0.0000 0.0000 -1.3764
# 2 6.7583 56.8007 19.1212 0.0000 0.0000 1.3764
# 3 19.1212 19.1212 82.1869 0.0000 0.0000 0.0000
# 4 0.0000 0.0000 0.0000 21.6308 0.0000 0.0000
# 5 0.0000 0.0000 0.0000 0.0000 21.6308 0.0000
# 6 -1.3764 1.3764 0.0000 0.0000 0.0000 19.3270
#
#
#
# Elastic Compliance Matrix: (Units=1/GPa)
#
#
# Indices 1 2 3 4 5 6 
#
# 1 0.019178 -0.000884 -0.004256 0.000000 0.000000 0.001429
# 2 -0.000884 0.019178 -0.004256 0.000000 0.000000 -0.001429
# 3 -0.004256 -0.004256 0.014148 0.000000 0.000000 0.000000
# 4 0.000000 0.000000 0.000000 0.046230 0.000000 0.000000
# 5 0.000000 0.000000 0.000000 0.000000 0.046230 0.000000
# 6 0.001429 -0.001429 0.000000 0.000000 0.000000 0.051945
#
#
# Mechanical properties :
#
#
# Convention : Reuss Voigt Hill
#
# Bulk Modulus (GPa) = 29.66351 31.75442 30.70897
# Shear Modulus (GPa) = 22.03237 22.57022 22.30129
#
# Velocity S-wave (km/s) = 3.14630 3.18447 3.16544
# Velocity P-wave (km/s) = 5.15041 5.27147 5.21129
#
# Compressibility (1/GPa) = 0.03371145
#
# Stress axis : x y z
#
# Youngs Moduli (GPa) = 52.14312 52.14312 70.68198
#
# Poissons Ratio (x) = 0.04608 0.30084
# Poissons Ratio (y) = 0.04608 0.30084
# Poissons Ratio (z) = 0.22194 0.22194
#
# Static dielectric constant tensor:
#      x y z
#    x 1.832780 0.000000 0.000000 
#    y 0.000000 1.832780 0.000000 
#    z 0.000000 0.000000 1.842880 
# 
# From -- ./inp_files/682.got.cif
#   From: 2010.05.17/outbox.cif.g08.bks.cpg/sg88_1_cif.got.tgz:682.got - 2010.06.03 19:11:41.
