data_PCOD9546213
_publ_section_title
;
Structure prediction by ZEFSAII (Michael W. Deem and Ramdas Pophale) SiO2 
 PCOD9546213
Probable space group: I 41/A
;
_chemical_formula_sum "Si O2"
_cell_formula_units_Z 76
_cell_length_a 14.922377
_cell_length_b 14.922377
_cell_length_c 14.291362
_cell_angle_alpha 90.000000
_cell_angle_beta 90.000000
_cell_angle_gamma 90.000000
_cell_volume 3182.362408
_symmetry_space_group_name_H-M "I 41/A"
_symmetry_group_IT_number 88
_space_group.IT_coordinate_system_code '2'
_symmetry_cell_setting 'tetragonal'
loop_
_space_group_symop_operation_xyz
x,y,z
3/4-y,1/4+x,1/4+z
-x,1/2-y,z
1/4+y,1/4-x,1/4+z
-x,-y,-z
1/4+y,3/4-x,3/4-z
x,1/2+y,-z
3/4-y,3/4+x,3/4-z
1/2+x,1/2+y,1/2+z
1/4-y,3/4+x,3/4+z
1/2-x,-y,1/2+z
3/4+y,3/4-x,3/4+z
1/2-x,1/2-y,1/2-z
3/4+y,1/4-x,1/4-z
1/2+x,y,1/2-z
1/4-y,1/4+x,1/4-z
loop_
_atom_site_type_symbol
_atom_site_label
_atom_site_fract_x
_atom_site_fract_y
_atom_site_fract_z
Si Si1 0.701159 0.707895 0.631787
Si Si2 0.000000 0.750000 0.875000
Si Si3 0.000000 0.750000 0.631670
Si Si4 0.718046 0.322770 0.826880
Si Si5 0.134273 0.117810 0.959138
Si Si6 0.449455 0.082672 0.747877
O O1 0.601540 0.731725 0.665913
O O2 0.685502 0.628954 0.555709
O O3 0.777243 0.672569 0.701985
O O4 0.746788 0.786069 0.568538
O O5 0.961556 0.669698 0.693598
O O6 0.917413 0.774805 0.565882
O O7 0.750000 0.250000 0.750000
O O8 0.799475 0.377290 0.871166
O O9 0.648127 0.393144 0.784989
O O10 0.676195 0.265968 0.913405
#
# Coordination Sequence:
#
# PCOD9546213 Si02
#       6
#    16   4   8  16  16  16
#     4  10  25  44  68  93 130 174 232 281 334 407
#     4  12  26  52  68  90 128 192 242 280 334 380
#     4  10  17  37  60  86 132 168 220 262 341 395
#     4  11  21  35  60  95 135 171 213 273 343 413
#     4  10  22  40  64  98 130 168 217 283 332 403
#     4  10  21  36  59  97 130 175 213 275 339 409
#
# _framework density 23.881630000000001
#
# number of rings (size 3 to 8) (size 9 to 14) (size 15 to 20)
#    0.000    1.684    2.105    1.895    5.895    2.526 
#    0.000    0.000    0.000    0.000    0.000    0.000 
#    0.000    0.000    0.000    0.000    0.000    0.000 
#
# Total GULP energy -212429.618218 kJ/mol
# GULP energy per Si atom -5590.253111 kJ/mol
# Density = 2.382727 g / cm^3
# Si number density = 23.881630 Si / 1000 Ang^3
#
#
#
# Elastic Constant Matrix: (Units=GPa)
#
#
# Indices 1 2 3 4 5 6 
#
# 1 155.1384 57.7026 37.0053 0.0000 0.0000 -9.1464
# 2 57.7026 155.1384 37.0053 0.0000 0.0000 9.1464
# 3 37.0053 37.0053 87.6438 0.0000 0.0000 0.0000
# 4 0.0000 0.0000 0.0000 39.8372 0.0000 0.0000
# 5 0.0000 0.0000 0.0000 0.0000 39.8372 0.0000
# 6 -9.1464 9.1464 0.0000 0.0000 0.0000 52.9048
#
#
#
# Elastic Compliance Matrix: (Units=1/GPa)
#
#
# Indices 1 2 3 4 5 6 
#
# 1 0.008057 -0.002550 -0.002325 0.000000 0.000000 0.001834
# 2 -0.002550 0.008057 -0.002325 0.000000 0.000000 -0.001834
# 3 -0.002325 -0.002325 0.013373 0.000000 0.000000 0.000000
# 4 0.000000 0.000000 0.000000 0.025102 0.000000 0.000000
# 5 0.000000 0.000000 0.000000 0.000000 0.025102 0.000000
# 6 0.001834 -0.001834 0.000000 0.000000 0.000000 0.019536
#
#
# Mechanical properties :
#
#
# Convention : Reuss Voigt Hill
#
# Bulk Modulus (GPa) = 66.28454 73.48299 69.88376
# Shear Modulus (GPa) = 42.13798 44.26300 43.20049
#
# Velocity S-wave (km/s) = 4.20509 4.30982 4.25778
# Velocity P-wave (km/s) = 7.16888 7.45671 7.31421
#
# Compressibility (1/GPa) = 0.01508647
#
# Stress axis : x y z
#
# Youngs Moduli (GPa) = 124.11326 124.11326 74.77600
#
# Poissons Ratio (x) = 0.31653 0.17386
# Poissons Ratio (y) = 0.31653 0.17386
# Poissons Ratio (z) = 0.28858 0.28858
#
# Static dielectric constant tensor:
#      x y z
#    x 1.938670 0.000000 0.000000 
#    y 0.000000 1.938670 0.000000 
#    z 0.000000 0.000000 2.063270 
# 
# From -- ./inp_files/4549.got.cif
#   From: 2010.05.17/outbox.cif.g08.bks.cpg/sg88_3_cif.got.tgz:4549.got - 2010.06.03 19:11:41.
