data_PCOD9546393
_publ_section_title
;
Structure prediction by ZEFSAII (Michael W. Deem and Ramdas Pophale) SiO2 
 PCOD9546393
Probable space group: I 41/A
;
_chemical_formula_sum "Si O2"
_cell_formula_units_Z 112
_cell_length_a 15.280388
_cell_length_b 15.280388
_cell_length_c 24.360803
_cell_angle_alpha 90.000000
_cell_angle_beta 90.000000
_cell_angle_gamma 90.000000
_cell_volume 5688.010164
_symmetry_space_group_name_H-M "I 41/A"
_symmetry_group_IT_number 88
_space_group.IT_coordinate_system_code '2'
_symmetry_cell_setting 'tetragonal'
loop_
_space_group_symop_operation_xyz
x,y,z
3/4-y,1/4+x,1/4+z
-x,1/2-y,z
1/4+y,1/4-x,1/4+z
-x,-y,-z
1/4+y,3/4-x,3/4-z
x,1/2+y,-z
3/4-y,3/4+x,3/4-z
1/2+x,1/2+y,1/2+z
1/4-y,3/4+x,3/4+z
1/2-x,-y,1/2+z
3/4+y,3/4-x,3/4+z
1/2-x,1/2-y,1/2-z
3/4+y,1/4-x,1/4-z
1/2+x,y,1/2-z
1/4-y,1/4+x,1/4-z
loop_
_atom_site_type_symbol
_atom_site_label
_atom_site_fract_x
_atom_site_fract_y
_atom_site_fract_z
Si Si1 0.093220 0.196966 0.759124
Si Si2 0.224316 0.793345 0.663584
Si Si3 0.637826 0.713409 0.138872
Si Si4 0.287599 0.670605 0.448078
Si Si5 0.905734 0.780537 0.124265
Si Si6 0.742392 0.686905 0.537845
Si Si7 0.755714 0.110795 0.227591
O O1 0.149723 0.209104 0.704331
O O2 0.141349 0.221806 0.816509
O O3 0.000000 0.250000 0.748606
O O4 0.076734 0.093752 0.769878
O O5 0.124950 0.829271 0.653353
O O6 0.263796 0.797297 0.602891
O O7 0.261749 0.857060 0.710336
O O8 0.239670 0.696410 0.688993
O O9 0.559269 0.646339 0.126531
O O10 0.713611 0.690869 0.096548
O O11 0.372354 0.709594 0.418071
O O12 0.282006 0.727668 0.503069
O O13 0.292766 0.568633 0.460292
O O14 0.000000 0.750000 0.142397
O O15 0.682769 0.601686 0.525435
#
# Coordination Sequence:
#
# PCOD9546393 Si02
#       7
#    16  16  16  16  16  16  16
#     4  10  20  40  66  90 129 180 213 261 335 399
#     4  10  23  45  66  90 137 172 219 272 344 399
#     4  11  21  40  62  91 133 172 210 266 325 394
#     4  12  24  40  69  99 131 172 225 278 339 392
#     4  10  20  40  66  92 126 172 217 266 329 399
#     4  11  24  42  66 100 134 170 223 286 328 398
#     4  11  25  43  68  99 128 179 220 282 341 407
#
# _framework density 19.690542000000001
#
# number of rings (size 3 to 8) (size 9 to 14) (size 15 to 20)
#    0.000    1.286    5.714    0.000    2.000    4.000 
#    0.000    0.000    0.000    0.000    0.000    0.000 
#    0.000    0.000    0.000    0.000    0.000    0.000 
#
# Total GULP energy -311991.569758 kJ/mol
# GULP energy per Si atom -5571.278031 kJ/mol
# Density = 1.964573 g / cm^3
# Si number density = 19.690542 Si / 1000 Ang^3
#
#
#
# Elastic Constant Matrix: (Units=GPa)
#
#
# Indices 1 2 3 4 5 6 
#
# 1 51.6334 23.7265 25.0698 0.0000 0.0000 1.3017
# 2 23.7265 51.6334 25.0698 0.0000 0.0000 -1.3017
# 3 25.0698 25.0698 152.0948 0.0000 0.0000 0.0000
# 4 0.0000 0.0000 0.0000 26.9495 0.0000 0.0000
# 5 0.0000 0.0000 0.0000 0.0000 26.9495 0.0000
# 6 1.3017 -1.3017 0.0000 0.0000 0.0000 37.6016
#
#
#
# Elastic Compliance Matrix: (Units=1/GPa)
#
#
# Indices 1 2 3 4 5 6 
#
# 1 0.025427 -0.010523 -0.002457 0.000000 0.000000 -0.001245
# 2 -0.010523 0.025427 -0.002457 0.000000 0.000000 0.001245
# 3 -0.002457 -0.002457 0.007385 0.000000 0.000000 0.000000
# 4 0.000000 0.000000 0.000000 0.037106 0.000000 0.000000
# 5 0.000000 0.000000 0.000000 0.000000 0.037106 0.000000
# 6 -0.001245 0.001245 0.000000 0.000000 0.000000 0.026681
#
#
# Mechanical properties :
#
#
# Convention : Reuss Voigt Hill
#
# Bulk Modulus (GPa) = 36.54114 44.78818 40.66466
# Shear Modulus (GPa) = 25.10970 30.39982 27.75476
#
# Velocity S-wave (km/s) = 3.57489 3.93349 3.75847
# Velocity P-wave (km/s) = 5.96974 6.58978 6.28741
#
# Compressibility (1/GPa) = 0.02736642
#
# Stress axis : x y z
#
# Youngs Moduli (GPa) = 39.32848 39.32848 135.41495
#
# Poissons Ratio (x) = 0.41384 0.33267
# Poissons Ratio (y) = 0.41384 0.33267
# Poissons Ratio (z) = 0.09662 0.09662
#
# Static dielectric constant tensor:
#      x y z
#    x 1.676040 0.000000 0.000000 
#    y 0.000000 1.676040 0.000000 
#    z 0.000000 0.000000 1.708960 
# 
# From -- ./inp_files/5343.got.cif
#   From: 2010.05.17/outbox.cif.g08.bks.cpg/sg88_3_cif.got.tgz:5343.got - 2010.06.03 19:11:41.
