data_PCOD9546471
_publ_section_title
;
Structure prediction by ZEFSAII (Michael W. Deem and Ramdas Pophale) SiO2 
 PCOD9546471
Probable space group: I 41/A
;
_chemical_formula_sum "Si O2"
_cell_formula_units_Z 112
_cell_length_a 28.194191
_cell_length_b 28.194191
_cell_length_c 5.600338
_cell_angle_alpha 90.000000
_cell_angle_beta 90.000000
_cell_angle_gamma 90.000000
_cell_volume 4451.778155
_symmetry_space_group_name_H-M "I 41/A"
_symmetry_group_IT_number 88
_space_group.IT_coordinate_system_code '2'
_symmetry_cell_setting 'tetragonal'
loop_
_space_group_symop_operation_xyz
x,y,z
3/4-y,1/4+x,1/4+z
-x,1/2-y,z
1/4+y,1/4-x,1/4+z
-x,-y,-z
1/4+y,3/4-x,3/4-z
x,1/2+y,-z
3/4-y,3/4+x,3/4-z
1/2+x,1/2+y,1/2+z
1/4-y,3/4+x,3/4+z
1/2-x,-y,1/2+z
3/4+y,3/4-x,3/4+z
1/2-x,1/2-y,1/2-z
3/4+y,1/4-x,1/4-z
1/2+x,y,1/2-z
1/4-y,1/4+x,1/4-z
loop_
_atom_site_type_symbol
_atom_site_label
_atom_site_fract_x
_atom_site_fract_y
_atom_site_fract_z
Si Si1 0.813693 0.115175 0.797573
Si Si2 0.678951 0.706149 0.208874
Si Si3 0.134296 0.972910 0.198869
Si Si4 0.335504 0.217821 0.196433
Si Si5 0.248018 0.173638 0.062031
Si Si6 0.572128 0.762216 0.530691
Si Si7 0.414494 0.347007 0.890853
O O1 0.825637 0.062383 0.710271
O O2 0.778109 0.106299 0.014727
O O3 0.783377 0.148300 0.622516
O O4 0.864976 0.140327 0.826845
O O5 0.710957 0.710592 0.446351
O O6 0.705471 0.662068 0.087810
O O7 0.679209 0.749364 0.027468
O O8 0.624250 0.689825 0.203840
O O9 0.118298 0.966704 0.925882
O O10 0.373293 0.241425 0.377361
O O11 0.284161 0.196111 0.258479
O O12 0.369813 0.178858 0.077725
O O13 0.545369 0.711786 0.549884
O O14 0.574197 0.791126 0.280990
#
# Coordination Sequence:
#
# PCOD9546471 Si02
#       7
#    16  16  16  16  16  16  16
#     4   9  21  40  58  93 124 157 208 261 310 396
#     4  10  22  40  60  94 126 161 215 268 306 383
#     4  10  21  39  63  88 127 160 203 259 320 378
#     4  11  23  40  64  93 129 168 214 264 322 373
#     4  10  22  40  67  91 123 169 209 258 327 379
#     4  11  24  39  59  91 128 169 222 265 313 382
#     4  10  22  40  62  87 128 166 211 263 319 373
#
# _framework density 25.158484999999999
#
# number of rings (size 3 to 8) (size 9 to 14) (size 15 to 20)
#    0.000    1.857    1.429    1.286    2.000    8.571 
#    2.571    1.429    0.000    0.000    0.000    0.000 
#    0.000    0.000    0.000    0.000    0.000    0.000 
#
# Total GULP energy -312534.956092 kJ/mol
# GULP energy per Si atom -5580.981359 kJ/mol
# Density = 2.510122 g / cm^3
# Si number density = 25.158485 Si / 1000 Ang^3
#
#
#
# Elastic Constant Matrix: (Units=GPa)
#
#
# Indices 1 2 3 4 5 6 
#
# 1 124.5828 47.9409 24.8143 0.0000 0.0000 0.6544
# 2 47.9409 124.5828 24.8143 0.0000 0.0000 -0.6544
# 3 24.8143 24.8143 40.5717 0.0000 0.0000 0.0000
# 4 0.0000 0.0000 0.0000 21.6601 0.0000 0.0000
# 5 0.0000 0.0000 0.0000 0.0000 21.6601 0.0000
# 6 0.6544 -0.6544 0.0000 0.0000 0.0000 15.0579
#
#
#
# Elastic Compliance Matrix: (Units=1/GPa)
#
#
# Indices 1 2 3 4 5 6 
#
# 1 0.010046 -0.003012 -0.004302 0.000000 0.000000 -0.000567
# 2 -0.003012 0.010046 -0.004302 0.000000 0.000000 0.000567
# 3 -0.004302 -0.004302 0.029910 0.000000 0.000000 0.000000
# 4 0.000000 0.000000 0.000000 0.046168 0.000000 0.000000
# 5 0.000000 0.000000 0.000000 0.000000 0.046168 0.000000
# 6 -0.000567 0.000567 0.000000 0.000000 0.000000 0.066460
#
#
# Mechanical properties :
#
#
# Convention : Reuss Voigt Hill
#
# Bulk Modulus (GPa) = 37.35561 53.87513 45.61537
# Shear Modulus (GPa) = 20.75108 24.48682 22.61895
#
# Velocity S-wave (km/s) = 2.87507 3.12316 3.00168
# Velocity P-wave (km/s) = 5.08938 5.87080 5.49400
#
# Compressibility (1/GPa) = 0.02676974
#
# Stress axis : x y z
#
# Youngs Moduli (GPa) = 99.54605 99.54605 33.43355
#
# Poissons Ratio (x) = 0.29981 0.14383
# Poissons Ratio (y) = 0.29981 0.14383
# Poissons Ratio (z) = 0.42825 0.42825
#
# Static dielectric constant tensor:
#      x y z
#    x 1.998510 0.000000 0.000000 
#    y 0.000000 1.998510 0.000000 
#    z 0.000000 0.000000 2.173920 
# 
# From -- ./inp_files/800.got.cif
#   From: 2010.05.17/outbox.cif.g08.bks.cpg/sg88_1_cif.got.tgz:800.got - 2010.06.03 19:11:41.
