data_PCOD9546379
_publ_section_title
;
Structure prediction by ZEFSAII (Michael W. Deem and Ramdas Pophale) SiO2 
 PCOD9546379
Probable space group: I 41/A
;
_chemical_formula_sum "Si O2"
_cell_formula_units_Z 104
_cell_length_a 18.504700
_cell_length_b 18.504700
_cell_length_c 16.151431
_cell_angle_alpha 90.000000
_cell_angle_beta 90.000000
_cell_angle_gamma 90.000000
_cell_volume 5530.636350
_symmetry_space_group_name_H-M "I 41/A"
_symmetry_group_IT_number 88
_space_group.IT_coordinate_system_code '2'
_symmetry_cell_setting 'tetragonal'
loop_
_space_group_symop_operation_xyz
x,y,z
3/4-y,1/4+x,1/4+z
-x,1/2-y,z
1/4+y,1/4-x,1/4+z
-x,-y,-z
1/4+y,3/4-x,3/4-z
x,1/2+y,-z
3/4-y,3/4+x,3/4-z
1/2+x,1/2+y,1/2+z
1/4-y,3/4+x,3/4+z
1/2-x,-y,1/2+z
3/4+y,3/4-x,3/4+z
1/2-x,1/2-y,1/2-z
3/4+y,1/4-x,1/4-z
1/2+x,y,1/2-z
1/4-y,1/4+x,1/4-z
loop_
_atom_site_type_symbol
_atom_site_label
_atom_site_fract_x
_atom_site_fract_y
_atom_site_fract_z
Si Si1 0.000000 0.750000 0.375000
Si Si2 0.533081 0.527162 0.873888
Si Si3 0.000000 0.750000 0.875000
Si Si4 0.605915 0.439792 0.386035
Si Si5 0.030302 0.601423 0.803696
Si Si6 0.707220 0.455832 0.230222
Si Si7 0.045936 0.103369 0.542038
Si Si8 0.818070 0.546062 0.339149
O O1 0.016924 0.680400 0.430383
O O2 0.521428 0.564151 0.785172
O O3 0.484787 0.457371 0.895131
O O4 0.615656 0.499070 0.875994
O O5 0.521365 0.581597 0.950092
O O6 0.996324 0.681034 0.815330
O O7 0.519747 0.440953 0.370401
O O8 0.635275 0.364938 0.426697
O O9 0.645243 0.441732 0.296696
O O10 0.635585 0.507493 0.438058
O O11 0.772828 0.496588 0.276718
O O12 0.681734 0.511030 0.159638
O O13 0.132525 0.099917 0.547201
#
# Coordination Sequence:
#
# PCOD9546379 Si02
#       8
#     4  16   4  16  16  16  16  16
#     4  12  24  42  60  88 120 150 204 244 288 342
#     4  11  22  38  60  84 117 158 195 237 297 347
#     4   8  20  38  64  84 124 158 188 240 300 346
#     4  10  21  37  59  86 117 153 194 245 292 347
#     4  10  20  39  60  86 118 156 194 239 295 352
#     4  10  21  35  60  88 114 149 196 244 292 343
#     4  11  24  39  59  86 119 156 197 244 291 349
#     4  11  19  37  59  84 115 151 193 242 289 348
#
# _framework density 18.804345999999999
#
# number of rings (size 3 to 8) (size 9 to 14) (size 15 to 20)
#    0.000    1.538    4.615    0.923    0.000    1.231 
#    0.000    0.000    0.000    0.000    0.000    0.000 
#    0.000    0.000    0.000    0.000    0.000    0.000 
#
# Total GULP energy -290081.789603 kJ/mol
# GULP energy per Si atom -5578.495954 kJ/mol
# Density = 1.876155 g / cm^3
# Si number density = 18.804346 Si / 1000 Ang^3
#
#
#
# Elastic Constant Matrix: (Units=GPa)
#
#
# Indices 1 2 3 4 5 6 
#
# 1 45.8052 17.7447 11.5026 0.0000 0.0000 -3.4666
# 2 17.7447 45.8052 11.5026 0.0000 0.0000 3.4666
# 3 11.5026 11.5026 68.6039 0.0000 0.0000 0.0000
# 4 0.0000 0.0000 0.0000 16.7651 0.0000 0.0000
# 5 0.0000 0.0000 0.0000 0.0000 16.7651 0.0000
# 6 -3.4666 3.4666 0.0000 0.0000 0.0000 19.5742
#
#
#
# Elastic Compliance Matrix: (Units=1/GPa)
#
#
# Indices 1 2 3 4 5 6 
#
# 1 0.027010 -0.010258 -0.002809 0.000000 0.000000 0.006600
# 2 -0.010258 0.027010 -0.002809 0.000000 0.000000 -0.006600
# 3 -0.002809 -0.002809 0.015518 0.000000 0.000000 0.000000
# 4 0.000000 0.000000 0.000000 0.059648 0.000000 0.000000
# 5 0.000000 0.000000 0.000000 0.000000 0.059648 0.000000
# 6 0.006600 -0.006600 0.000000 0.000000 0.000000 0.053426
#
#
# Mechanical properties :
#
#
# Convention : Reuss Voigt Hill
#
# Bulk Modulus (GPa) = 26.46350 26.85714 26.66032
# Shear Modulus (GPa) = 17.44549 18.58514 18.01532
#
# Velocity S-wave (km/s) = 3.04918 3.14720 3.09858
# Velocity P-wave (km/s) = 5.14784 5.24594 5.19713
#
# Compressibility (1/GPa) = 0.03778790
#
# Stress axis : x y z
#
# Youngs Moduli (GPa) = 37.02300 37.02300 64.43989
#
# Poissons Ratio (x) = 0.37977 0.18100
# Poissons Ratio (y) = 0.37977 0.18100
# Poissons Ratio (z) = 0.10399 0.10399
#
# Static dielectric constant tensor:
#      x y z
#    x 1.651950 0.000000 0.000000 
#    y 0.000000 1.651950 0.000000 
#    z 0.000000 0.000000 1.639730 
# 
# From -- ./inp_files/3991.got.cif
#   From: 2010.05.17/outbox.cif.g08.bks.cpg/sg88_2_cif.got.tgz:3991.got - 2010.06.03 19:11:41.
