data_PCOD9546969
_publ_section_title
;
Structure prediction by ZEFSAII (Michael W. Deem and Ramdas Pophale) SiO2 
 PCOD9546969
Probable space group: P 4 2 2
;
_chemical_formula_sum "Si O2"
_cell_formula_units_Z 40
_cell_length_a 8.451316
_cell_length_b 8.451316
_cell_length_c 26.703355
_cell_angle_alpha 90.000000
_cell_angle_beta 90.000000
_cell_angle_gamma 90.000000
_cell_volume 1907.280245
_symmetry_space_group_name_H-M "P 4 2 2"
_symmetry_group_IT_number 89
_symmetry_cell_setting 'tetragonal'
loop_
_space_group_symop_operation_xyz
x,y,z
-y,x,z
-x,-y,z
y,-x,z
x,-y,-z
-x,y,-z
y,x,-z
-y,-x,-z
loop_
_atom_site_type_symbol
_atom_site_label
_atom_site_fract_x
_atom_site_fract_y
_atom_site_fract_z
Si Si1 0.912649 0.251223 0.338446
Si Si2 0.960218 0.260992 0.057660
Si Si3 0.750864 0.089037 0.779141
Si Si4 0.242725 0.431292 0.865620
Si Si5 0.000000 0.500000 0.409954
Si Si6 0.000000 0.737764 0.500000
O O1 0.897923 0.288783 0.279614
O O2 0.882988 0.405558 0.372192
O O3 0.095173 0.194062 0.347980
O O4 0.876565 0.398292 0.088852
O O5 0.122904 0.169705 0.069001
O O6 0.000000 0.303454 0.000000
O O7 0.614148 0.149391 0.815188
O O8 0.908773 0.194213 0.788582
O O9 0.394329 0.314745 0.867279
O O10 0.967903 0.636538 0.450360
O O11 0.150607 0.849394 0.500000
#
# Coordination Sequence:
#
# PCOD9546969 Si02
#       6
#     8   8   8   8   4   4
#     4   9  19  36  58  87 121 156 200 250 295 348
#     4   9  19  39  63  87 111 141 192 249 294 348
#     4   9  19  36  60  89 119 155 201 246 286 342
#     4  11  24  39  57  88 128 161 190 232 294 365
#     4  11  20  32  62  92 114 152 203 250 302 350
#     4  10  22  40  60  84 118 160 208 256 296 350
#
# _framework density 20.972273000000001
#
# number of rings (size 3 to 8) (size 9 to 14) (size 15 to 20)
#    0.000    2.300    0.000    4.200    0.000    9.600 
#    0.000   10.000    0.000   29.400    0.000    0.000 
#    0.000    0.000    0.000    0.000    0.000    0.000 
#
# Total GULP energy -222872.514299 kJ/mol
# GULP energy per Si atom -5571.812857 kJ/mol
# Density = 2.092454 g / cm^3
# Si number density = 20.972273 Si / 1000 Ang^3
#
#
#
# Elastic Constant Matrix: (Units=GPa)
#
#
# Indices 1 2 3 4 5 6 
#
# 1 94.2379 73.2953 70.2114 0.0000 0.0000 0.0000
# 2 73.2953 94.2384 70.2113 0.0000 0.0000 0.0000
# 3 70.2114 70.2113 126.0067 0.0000 0.0000 0.0000
# 4 0.0000 0.0000 0.0000 25.7298 0.0000 0.0000
# 5 0.0000 0.0000 0.0000 0.0000 25.7586 0.0000
# 6 0.0000 0.0000 0.0000 0.0000 0.0000 41.9872
#
#
#
# Elastic Compliance Matrix: (Units=1/GPa)
#
#
# Indices 1 2 3 4 5 6 
#
# 1 0.029474 -0.018275 -0.006241 0.000000 0.000000 0.000000
# 2 -0.018275 0.029474 -0.006240 0.000000 0.000000 0.000000
# 3 -0.006241 -0.006240 0.014890 0.000000 0.000000 0.000000
# 4 0.000000 0.000000 0.000000 0.038865 0.000000 0.000000
# 5 0.000000 0.000000 0.000000 0.000000 0.038822 0.000000
# 6 0.000000 0.000000 0.000000 0.000000 0.000000 0.023817
#
#
# Mechanical properties :
#
#
# Convention : Reuss Voigt Hill
#
# Bulk Modulus (GPa) = 81.11720 82.43547 81.77633
# Shear Modulus (GPa) = 20.75002 25.41277 23.08139
#
# Velocity S-wave (km/s) = 3.14889 3.48477 3.32108
# Velocity P-wave (km/s) = 7.20992 7.45545 7.33371
#
# Compressibility (1/GPa) = 0.01232784
#
# Stress axis : x y z
#
# Youngs Moduli (GPa) = 33.92773 33.92811 67.15705
#
# Poissons Ratio (x) = 0.62003 0.41910
# Poissons Ratio (y) = 0.62002 0.41908
# Poissons Ratio (z) = 0.21173 0.21172
#
# Static dielectric constant tensor:
#      x y z
#    x 1.746390 0.000000 0.000000 
#    y 0.000000 1.746370 0.000000 
#    z 0.000000 0.000000 1.754030 
# 
# From -- ./inp_files/2842.got.cif
#   From: 2010.05.17/outbox.cif.g08.bks.cpg/sg89_2_cif.got.tgz:2842.got - 2010.06.03 19:15:31.
