data_PCOD9546380
_publ_section_title
;
Structure prediction by ZEFSAII (Michael W. Deem and Ramdas Pophale) SiO2 
 PCOD9546380
Probable space group: I 41/A
;
_chemical_formula_sum "Si O2"
_cell_formula_units_Z 72
_cell_length_a 14.769518
_cell_length_b 14.769518
_cell_length_c 18.405037
_cell_angle_alpha 90.000000
_cell_angle_beta 90.000000
_cell_angle_gamma 90.000000
_cell_volume 4014.850144
_symmetry_space_group_name_H-M "I 41/A"
_symmetry_group_IT_number 88
_space_group.IT_coordinate_system_code '2'
_symmetry_cell_setting 'tetragonal'
loop_
_space_group_symop_operation_xyz
x,y,z
3/4-y,1/4+x,1/4+z
-x,1/2-y,z
1/4+y,1/4-x,1/4+z
-x,-y,-z
1/4+y,3/4-x,3/4-z
x,1/2+y,-z
3/4-y,3/4+x,3/4-z
1/2+x,1/2+y,1/2+z
1/4-y,3/4+x,3/4+z
1/2-x,-y,1/2+z
3/4+y,3/4-x,3/4+z
1/2-x,1/2-y,1/2-z
3/4+y,1/4-x,1/4-z
1/2+x,y,1/2-z
1/4-y,1/4+x,1/4-z
loop_
_atom_site_type_symbol
_atom_site_label
_atom_site_fract_x
_atom_site_fract_y
_atom_site_fract_z
Si Si1 0.155087 0.468595 0.171527
Si Si2 0.524067 0.941029 0.070549
Si Si3 0.638125 0.017547 0.835945
Si Si4 0.482275 0.447054 0.424968
Si Si5 0.000000 0.250000 0.625000
Si Si6 0.000000 0.250000 0.125000
O O1 0.214008 0.551798 0.143626
O O2 0.145583 0.471732 0.257789
O O3 0.202991 0.372989 0.152038
O O4 0.056988 0.476941 0.133698
O O5 0.631318 0.929673 0.080139
O O6 0.465640 0.980828 0.137212
O O7 0.489667 0.836761 0.072897
O O8 0.500000 0.000000 0.000000
O O9 0.500000 0.500000 0.500000
O O10 0.497549 0.338318 0.426031
#
# Coordination Sequence:
#
# PCOD9546380 Si02
#       6
#    16  16  16  16   4   4
#     4  11  22  39  63  91 121 158 202 247 302 363
#     4  10  20  39  61  84 122 156 197 245 302 351
#     4  11  22  39  63  91 121 158 202 247 302 363
#     4  10  20  39  61  84 122 156 197 245 302 351
#     4   8  20  36  60  86 116 156 196 250 300 348
#     4   8  20  36  60  86 116 156 196 250 300 348
#
# _framework density 17.933420000000002
#
# number of rings (size 3 to 8) (size 9 to 14) (size 15 to 20)
#    0.000    1.778    4.444    0.000    0.000    1.778 
#    8.000    0.000    0.000    0.000    0.000    0.000 
#    0.000    0.000    0.000    0.000    0.000    0.000 
#
# Total GULP energy -200496.565446 kJ/mol
# GULP energy per Si atom -5569.349040 kJ/mol
# Density = 1.789260 g / cm^3
# Si number density = 17.933420 Si / 1000 Ang^3
#
#
#
# Elastic Constant Matrix: (Units=GPa)
#
#
# Indices 1 2 3 4 5 6 
#
# 1 59.2767 15.7604 9.6972 0.0000 0.0000 1.3116
# 2 15.7604 59.2767 9.6972 0.0000 0.0000 -1.3116
# 3 9.6972 9.6972 68.1312 0.0000 0.0000 0.0000
# 4 0.0000 0.0000 0.0000 30.5593 0.0000 0.0000
# 5 0.0000 0.0000 0.0000 0.0000 30.5593 0.0000
# 6 1.3116 -1.3116 0.0000 0.0000 0.0000 23.8054
#
#
#
# Elastic Compliance Matrix: (Units=1/GPa)
#
#
# Indices 1 2 3 4 5 6 
#
# 1 0.018446 -0.004610 -0.001969 0.000000 0.000000 -0.001270
# 2 -0.004610 0.018446 -0.001969 0.000000 0.000000 0.001270
# 3 -0.001969 -0.001969 0.015238 0.000000 0.000000 0.000000
# 4 0.000000 0.000000 0.000000 0.032723 0.000000 0.000000
# 5 0.000000 0.000000 0.000000 0.000000 0.032723 0.000000
# 6 -0.001270 0.001270 0.000000 0.000000 0.000000 0.042147
#
#
# Mechanical properties :
#
#
# Convention : Reuss Voigt Hill
#
# Bulk Modulus (GPa) = 28.54486 28.55490 28.54988
# Shear Modulus (GPa) = 26.52529 27.08679 26.80604
#
# Velocity S-wave (km/s) = 3.85008 3.89061 3.87040
# Velocity P-wave (km/s) = 5.97627 6.01164 5.99398
#
# Compressibility (1/GPa) = 0.03503257
#
# Stress axis : x y z
#
# Youngs Moduli (GPa) = 54.21202 54.21202 65.62481
#
# Poissons Ratio (x) = 0.24994 0.12923
# Poissons Ratio (y) = 0.24994 0.12923
# Poissons Ratio (z) = 0.10676 0.10676
#
# Static dielectric constant tensor:
#      x y z
#    x 1.632440 0.000000 0.000000 
#    y 0.000000 1.632440 0.000000 
#    z 0.000000 0.000000 1.579000 
# 
# From -- ./inp_files/3837.got.cif
#   From: 2010.05.17/outbox.cif.g08.bks.cpg/sg88_2_cif.got.tgz:3837.got - 2010.06.03 19:11:41.
