data_PCOD9546235
_publ_section_title
;
Structure prediction by ZEFSAII (Michael W. Deem and Ramdas Pophale) SiO2 
 PCOD9546235
Probable space group: I 41/A
;
_chemical_formula_sum "Si O2"
_cell_formula_units_Z 128
_cell_length_a 19.499599
_cell_length_b 19.499599
_cell_length_c 17.325145
_cell_angle_alpha 90.000000
_cell_angle_beta 90.000000
_cell_angle_gamma 90.000000
_cell_volume 6587.615441
_symmetry_space_group_name_H-M "I 41/A"
_symmetry_group_IT_number 88
_space_group.IT_coordinate_system_code '2'
_symmetry_cell_setting 'tetragonal'
loop_
_space_group_symop_operation_xyz
x,y,z
3/4-y,1/4+x,1/4+z
-x,1/2-y,z
1/4+y,1/4-x,1/4+z
-x,-y,-z
1/4+y,3/4-x,3/4-z
x,1/2+y,-z
3/4-y,3/4+x,3/4-z
1/2+x,1/2+y,1/2+z
1/4-y,3/4+x,3/4+z
1/2-x,-y,1/2+z
3/4+y,3/4-x,3/4+z
1/2-x,1/2-y,1/2-z
3/4+y,1/4-x,1/4-z
1/2+x,y,1/2-z
1/4-y,1/4+x,1/4-z
loop_
_atom_site_type_symbol
_atom_site_label
_atom_site_fract_x
_atom_site_fract_y
_atom_site_fract_z
Si Si1 0.246399 0.578278 0.157779
Si Si2 0.140910 0.476736 0.230603
Si Si3 0.003905 0.863904 0.390084
Si Si4 0.286896 0.614701 0.428173
Si Si5 0.748329 0.278098 0.125186
Si Si6 0.252418 0.141933 0.282829
Si Si7 0.550014 0.931781 0.258626
Si Si8 0.672621 0.825373 0.270905
O O1 0.178278 0.542749 0.192093
O O2 0.307049 0.520172 0.154341
O O3 0.273410 0.636195 0.215527
O O4 0.235225 0.606971 0.072358
O O5 0.067117 0.462747 0.193375
O O6 0.190464 0.415056 0.208073
O O7 0.937675 0.818306 0.365864
O O8 0.991764 0.898645 0.473468
O O9 0.014190 0.918875 0.322987
O O10 0.354502 0.570209 0.448892
O O11 0.251997 0.656242 0.498459
O O12 0.300616 0.667209 0.357940
O O13 0.745369 0.330851 0.195362
O O14 0.769880 0.206897 0.164141
O O15 0.681419 0.253714 0.078079
O O16 0.604827 0.872549 0.271345
#
# Coordination Sequence:
#
# PCOD9546235 Si02
#       8
#    16  16  16  16  16  16  16  16
#     4  10  19  32  55  89 118 144 178 243 314 355
#     4  11  20  35  57  86 117 152 190 247 299 355
#     4   9  19  36  55  79 113 160 196 220 274 348
#     4  10  20  34  58  86 118 143 188 241 303 353
#     4  11  22  37  57  83 116 152 195 238 293 355
#     4  10  23  37  56  88 113 155 194 241 301 352
#     4  10  21  35  56  85 108 154 193 235 288 345
#     4  10  18  34  56  81 119 146 179 238 291 348
#
# _framework density 19.430399000000001
#
# number of rings (size 3 to 8) (size 9 to 14) (size 15 to 20)
#    0.000    1.875    3.750    0.750    1.750    0.500 
#    0.000    1.250    0.000    0.375    0.000    0.000 
#    0.000    0.000    0.000    0.000    0.000    0.000 
#
# Total GULP energy -356686.235727 kJ/mol
# GULP energy per Si atom -5573.222433 kJ/mol
# Density = 1.938617 g / cm^3
# Si number density = 19.430399 Si / 1000 Ang^3
#
#
#
# Elastic Constant Matrix: (Units=GPa)
#
#
# Indices 1 2 3 4 5 6 
#
# 1 45.4914 18.4055 12.1561 0.0000 0.0000 -7.1846
# 2 18.4055 45.4914 12.1561 0.0000 0.0000 7.1846
# 3 12.1561 12.1561 76.7011 0.0000 0.0000 0.0000
# 4 0.0000 0.0000 0.0000 28.5314 0.0000 0.0000
# 5 0.0000 0.0000 0.0000 0.0000 28.5314 0.0000
# 6 -7.1846 7.1846 0.0000 0.0000 0.0000 4.8091
#
#
#
# Elastic Compliance Matrix: (Units=1/GPa)
#
#
# Indices 1 2 3 4 5 6 
#
# 1 0.097308 -0.080654 -0.002640 0.000000 0.000000 0.265865
# 2 -0.080654 0.097308 -0.002640 0.000000 0.000000 -0.265865
# 3 -0.002640 -0.002640 0.013874 0.000000 0.000000 0.000000
# 4 0.000000 0.000000 0.000000 0.035049 0.000000 0.000000
# 5 0.000000 0.000000 0.000000 0.000000 0.035049 0.000000
# 6 0.265865 -0.265865 0.000000 0.000000 0.000000 1.002313
#
#
# Mechanical properties :
#
#
# Convention : Reuss Voigt Hill
#
# Bulk Modulus (GPa) = 27.30354 28.12434 27.71394
# Shear Modulus (GPa) = 3.41302 20.70546 12.05924
#
# Velocity S-wave (km/s) = 1.32678 3.26793 2.49396
# Velocity P-wave (km/s) = 4.05335 5.36143 4.75261
#
# Compressibility (1/GPa) = 0.03662529
#
# Stress axis : x y z
#
# Youngs Moduli (GPa) = 10.27661 10.27661 72.07587
#
# Poissons Ratio (x) = 0.82885 0.19025
# Poissons Ratio (y) = 0.82885 0.19025
# Poissons Ratio (z) = 0.02713 0.02713
#
# Static dielectric constant tensor:
#      x y z
#    x 1.699580 0.000000 0.000000 
#    y 0.000000 1.699580 0.000000 
#    z 0.000000 0.000000 1.710950 
# 
# From -- ./inp_files/4102.got.cif
#   From: 2010.05.17/outbox.cif.g08.bks.cpg/sg88_3_cif.got.tgz:4102.got - 2010.06.03 19:11:41.
