data_PCOD9546853
_publ_section_title
;
Structure prediction by ZEFSAII (Michael W. Deem and Ramdas Pophale) SiO2 
 PCOD9546853
Probable space group: I 41/A
;
_chemical_formula_sum "Si O2"
_cell_formula_units_Z 52
_cell_length_a 18.487785
_cell_length_b 18.487785
_cell_length_c 6.747049
_cell_angle_alpha 90.000000
_cell_angle_beta 90.000000
_cell_angle_gamma 90.000000
_cell_volume 2306.129164
_symmetry_space_group_name_H-M "I 41/A"
_symmetry_group_IT_number 88
_space_group.IT_coordinate_system_code '2'
_symmetry_cell_setting 'tetragonal'
loop_
_space_group_symop_operation_xyz
x,y,z
3/4-y,1/4+x,1/4+z
-x,1/2-y,z
1/4+y,1/4-x,1/4+z
-x,-y,-z
1/4+y,3/4-x,3/4-z
x,1/2+y,-z
3/4-y,3/4+x,3/4-z
1/2+x,1/2+y,1/2+z
1/4-y,3/4+x,3/4+z
1/2-x,-y,1/2+z
3/4+y,3/4-x,3/4+z
1/2-x,1/2-y,1/2-z
3/4+y,1/4-x,1/4-z
1/2+x,y,1/2-z
1/4-y,1/4+x,1/4-z
loop_
_atom_site_type_symbol
_atom_site_label
_atom_site_fract_x
_atom_site_fract_y
_atom_site_fract_z
Si Si1 0.542991 0.425502 0.488990
Si Si2 0.000000 0.750000 0.375000
Si Si3 0.907229 0.156930 0.380906
Si Si4 0.180969 0.578541 0.442905
O O1 0.500000 0.500000 0.500000
O O2 0.481750 0.365585 0.529154
O O3 0.578048 0.404831 0.279293
O O4 0.604806 0.428030 0.654451
O O5 0.020871 0.820963 0.499464
O O6 0.845033 0.130621 0.530529
O O7 0.172886 0.505874 0.570358
#
# Coordination Sequence:
#
# PCOD9546853 Si02
#       4
#    16   4  16  16
#     4  12  27  46  79 109 153 202 260 319 387 467
#     4  12  24  46  76 112 158 192 256 326 388 456
#     4  12  26  48  74 114 151 201 254 319 388 461
#     4  12  30  49  76 111 155 204 258 323 395 469
#
# _framework density 22.548608000000002
#
# number of rings (size 3 to 8) (size 9 to 14) (size 15 to 20)
#    0.000    0.000    3.077    5.538   12.923    2.462 
#    0.000    0.000    0.000    0.000    0.000    0.000 
#    0.000    0.000    0.000    0.000    0.000    0.000 
#
# Total GULP energy -145634.933017 kJ/mol
# GULP energy per Si atom -5601.343578 kJ/mol
# Density = 2.249729 g / cm^3
# Si number density = 22.548608 Si / 1000 Ang^3
#
#
#
# Elastic Constant Matrix: (Units=GPa)
#
#
# Indices 1 2 3 4 5 6 
#
# 1 98.3117 15.9348 46.7370 0.0000 0.0000 3.7576
# 2 15.9348 98.3117 46.7370 0.0000 0.0000 -3.7576
# 3 46.7370 46.7370 136.6793 0.0000 0.0000 0.0000
# 4 0.0000 0.0000 0.0000 45.8389 0.0000 0.0000
# 5 0.0000 0.0000 0.0000 0.0000 45.8389 0.0000
# 6 3.7576 -3.7576 0.0000 0.0000 0.0000 41.4086
#
#
#
# Elastic Compliance Matrix: (Units=1/GPa)
#
#
# Indices 1 2 3 4 5 6 
#
# 1 0.012197 -0.000044 -0.004156 0.000000 0.000000 -0.001111
# 2 -0.000044 0.012197 -0.004156 0.000000 0.000000 0.001111
# 3 -0.004156 -0.004156 0.010158 0.000000 0.000000 0.000000
# 4 0.000000 0.000000 0.000000 0.021816 0.000000 0.000000
# 5 0.000000 0.000000 0.000000 0.000000 0.021816 0.000000
# 6 -0.001111 0.001111 0.000000 0.000000 0.000000 0.024351
#
#
# Mechanical properties :
#
#
# Convention : Reuss Voigt Hill
#
# Bulk Modulus (GPa) = 56.04806 61.34673 58.69739
# Shear Modulus (GPa) = 39.93862 41.54356 40.74109
#
# Velocity S-wave (km/s) = 4.21316 4.29698 4.25527
# Velocity P-wave (km/s) = 6.96980 7.20307 7.08739
#
# Compressibility (1/GPa) = 0.01784183
#
# Stress axis : x y z
#
# Youngs Moduli (GPa) = 81.98814 81.98814 98.44011
#
# Poissons Ratio (x) = 0.00359 0.40909
# Poissons Ratio (y) = 0.00359 0.40909
# Poissons Ratio (z) = 0.34072 0.34072
#
# Static dielectric constant tensor:
#      x y z
#    x 1.852110 0.000000 0.000000 
#    y 0.000000 1.852110 0.000000 
#    z 0.000000 0.000000 1.881520 
# 
# From -- ./inp_files/392.got.cif
#   From: 2010.05.17/outbox.cif.g08.bks.cpg/sg88_1_cif.got.tgz:392.got - 2010.06.03 19:11:41.
