data_PCOD9546961
_publ_section_title
;
Structure prediction by ZEFSAII (Michael W. Deem and Ramdas Pophale) SiO2 
 PCOD9546961
Probable space group: P 4 2 2
;
_chemical_formula_sum "Si O2"
_cell_formula_units_Z 48
_cell_length_a 9.121585
_cell_length_b 9.121585
_cell_length_c 28.313490
_cell_angle_alpha 90.000000
_cell_angle_beta 90.000000
_cell_angle_gamma 90.000000
_cell_volume 2355.776168
_symmetry_space_group_name_H-M "P 4 2 2"
_symmetry_group_IT_number 89
_symmetry_cell_setting 'tetragonal'
loop_
_space_group_symop_operation_xyz
x,y,z
-y,x,z
-x,-y,z
y,-x,z
x,-y,-z
-x,y,-z
y,x,-z
-y,-x,-z
loop_
_atom_site_type_symbol
_atom_site_label
_atom_site_fract_x
_atom_site_fract_y
_atom_site_fract_z
Si Si1 0.759824 0.056886 0.739723
Si Si2 0.726210 0.437114 0.425359
Si Si3 0.000000 0.500000 0.078010
Si Si4 0.034568 0.757309 0.151789
Si Si5 0.500000 0.251570 0.000000
Si Si6 0.225729 0.961700 0.555319
Si Si7 0.726501 0.569047 0.688256
O O1 0.706221 0.054238 0.794080
O O2 0.631969 0.121243 0.707234
O O3 0.897379 0.168406 0.732370
O O4 0.674080 0.597229 0.441842
O O5 0.885008 0.380810 0.439397
O O6 0.725894 0.436116 0.368510
O O7 0.964062 0.365667 0.112528
O O8 0.858053 0.516492 0.044471
O O9 0.880316 0.841046 0.146454
O O10 0.641430 0.358571 0.000000
O O11 0.113068 0.837900 0.575800
O O12 0.211702 0.000000 0.500000
O O13 0.593352 0.676942 0.703723
#
# Coordination Sequence:
#
# PCOD9546961 Si02
#       7
#     8   8   4   8   4   8   8
#     4   9  19  34  51  76 111 147 183 226 272 316
#     4   9  19  37  59  83 111 142 178 220 265 317
#     4  11  20  34  60  82 102 148 194 224 277 340
#     4   9  19  35  53  77 110 144 184 234 277 320
#     4  10  22  38  54  80 116 144 178 234 288 334
#     4   9  19  37  55  77 109 140 172 216 268 321
#     4   9  19  35  54  79 112 146 181 223 268 319
#
# _framework density 20.375451000000002
#
# number of rings (size 3 to 8) (size 9 to 14) (size 15 to 20)
#    0.000    2.750    0.000    3.500    0.000    5.333 
#    0.000   13.333    0.000   10.000    0.000    0.000 
#    0.000    0.000    0.000    0.000    0.000    0.000 
#
# Total GULP energy -267546.445962 kJ/mol
# GULP energy per Si atom -5573.884291 kJ/mol
# Density = 2.032908 g / cm^3
# Si number density = 20.375451 Si / 1000 Ang^3
#
#
#
# Elastic Constant Matrix: (Units=GPa)
#
#
# Indices 1 2 3 4 5 6 
#
# 1 78.6095 63.3128 27.0415 0.0000 0.0000 0.0000
# 2 63.3128 78.6099 27.0416 0.0000 0.0000 0.0000
# 3 27.0415 27.0416 36.9811 0.0000 0.0000 0.0000
# 4 0.0000 0.0000 0.0000 20.6989 0.0000 0.0000
# 5 0.0000 0.0000 0.0000 0.0000 20.6993 0.0000
# 6 0.0000 0.0000 0.0000 0.0000 0.0000 -15.9961
#
#
#
# Elastic Compliance Matrix: (Units=1/GPa)
#
#
# Indices 1 2 3 4 5 6 
#
# 1 0.037570 -0.027802 -0.007143 0.000000 0.000000 0.000000
# 2 -0.027802 0.037570 -0.007143 0.000000 0.000000 0.000000
# 3 -0.007143 -0.007143 0.037487 0.000000 0.000000 0.000000
# 4 0.000000 0.000000 0.000000 0.048312 0.000000 0.000000
# 5 0.000000 0.000000 0.000000 0.000000 0.048311 0.000000
# 6 0.000000 0.000000 0.000000 0.000000 0.000000 -0.062515
#
#
# Mechanical properties :
#
#
# Convention : Reuss Voigt Hill
#
# Bulk Modulus (GPa) = 35.14679 47.66581 41.40630
# Shear Modulus (GPa) = 20.79924 10.20073 15.49998
#
# Velocity S-wave (km/s) = 3.19846 2.23992 2.76110
# Velocity P-wave (km/s) = 5.56122 5.48946 5.52546
#
# Compressibility (1/GPa) = 0.02845210
#
# Stress axis : x y z
#
# Youngs Moduli (GPa) = 26.61669 26.61686 26.67624
#
# Poissons Ratio (x) = 0.74001 0.19054
# Poissons Ratio (y) = 0.74001 0.19054
# Poissons Ratio (z) = 0.19011 0.19011
#
# Static dielectric constant tensor:
#      x y z
#    x 1.771380 0.000000 0.000000 
#    y 0.000000 1.771380 0.000000 
#    z 0.000000 0.000000 1.706320 
# 
# From -- ./inp_files/3000.got.cif
#   From: 2010.05.17/outbox.cif.g08.bks.cpg/sg89_2_cif.got.tgz:3000.got - 2010.06.03 19:15:31.
