data_PCOD9546010
_publ_section_title
;
Structure prediction by ZEFSAII (Michael W. Deem and Ramdas Pophale) SiO2 
 PCOD9546010
Probable space group: I 4/M
;
_chemical_formula_sum "Si O2"
_cell_formula_units_Z 96
_cell_length_a 15.912817
_cell_length_b 15.912817
_cell_length_c 19.754743
_cell_angle_alpha 90.000000
_cell_angle_beta 90.000000
_cell_angle_gamma 90.000000
_cell_volume 5002.251473
_symmetry_space_group_name_H-M "I 4/M"
_symmetry_group_IT_number 87
_symmetry_cell_setting 'tetragonal'
loop_
_space_group_symop_operation_xyz
x,y,z
-y,x,z
-x,-y,z
y,-x,z
-x,-y,-z
y,-x,-z
x,y,-z
-y,x,-z
1/2+x,1/2+y,1/2+z
1/2-y,1/2+x,1/2+z
1/2-x,1/2-y,1/2+z
1/2+y,1/2-x,1/2+z
1/2-x,1/2-y,1/2-z
1/2+y,1/2-x,1/2-z
1/2+x,1/2+y,1/2-z
1/2-y,1/2+x,1/2-z
loop_
_atom_site_type_symbol
_atom_site_label
_atom_site_fract_x
_atom_site_fract_y
_atom_site_fract_z
Si Si1 0.369477 0.778973 0.077055
Si Si2 0.376828 0.275757 0.653431
Si Si3 0.551870 0.370300 0.833289
Si Si4 0.874750 0.655035 0.267654
Si Si5 0.064786 0.792972 0.816028
Si Si6 0.475742 0.904161 0.853481
O O1 0.284703 0.819331 0.108022
O O2 0.407032 0.704601 0.123273
O O3 0.435817 0.855215 0.084347
O O4 0.358448 0.752290 0.000000
O O5 0.360824 0.244204 0.731349
O O6 0.349985 0.371111 0.642525
O O7 0.477483 0.270152 0.648116
O O8 0.605385 0.454834 0.847120
O O9 0.550356 0.341330 0.754847
O O10 0.791363 0.615223 0.297772
O O11 0.904225 0.594362 0.206099
O O12 0.947258 0.649399 0.323060
O O13 0.500000 0.000000 0.866592
#
# Coordination Sequence:
#
# PCOD9546010 Si02
#       6
#    16  16  16  16  16  16
#     4  11  26  45  60  84 127 177 222 254 297 379
#     4  11  23  36  59  92 124 159 203 258 319 375
#     4  11  23  41  67  99 132 160 202 261 328 390
#     4  11  17  32  54  91 123 151 194 246 322 380
#     4  12  21  35  62  98 126 155 193 264 330 379
#     4  11  18  32  58  89 122 160 200 257 320 377
#
# _framework density 19.191357
#
# number of rings (size 3 to 8) (size 9 to 14) (size 15 to 20)
#    0.000    0.833    8.333    1.500    0.000    1.333 
#    0.000    1.667    0.000    0.000    0.000    1.167 
#    0.000    0.000    0.000    0.000    0.000    0.000 
#
# Total GULP energy -268027.750488 kJ/mol
# GULP energy per Si atom -5583.911469 kJ/mol
# Density = 1.914768 g / cm^3
# Si number density = 19.191357 Si / 1000 Ang^3
#
#
#
# Elastic Constant Matrix: (Units=GPa)
#
#
# Indices 1 2 3 4 5 6 
#
# 1 72.1220 15.4112 11.8134 0.0000 0.0000 9.0597
# 2 15.4112 72.1220 11.8134 0.0000 0.0000 -9.0597
# 3 11.8134 11.8134 50.1326 0.0000 0.0000 0.0000
# 4 0.0000 0.0000 0.0000 8.0687 0.0000 0.0000
# 5 0.0000 0.0000 0.0000 0.0000 8.0687 0.0000
# 6 9.0597 -9.0597 0.0000 0.0000 0.0000 35.1363
#
#
#
# Elastic Compliance Matrix: (Units=1/GPa)
#
#
# Indices 1 2 3 4 5 6 
#
# 1 0.015708 -0.003508 -0.002875 0.000000 0.000000 -0.004955
# 2 -0.003508 0.015708 -0.002875 0.000000 0.000000 0.004955
# 3 -0.002875 -0.002875 0.021302 0.000000 0.000000 0.000000
# 4 0.000000 0.000000 0.000000 0.123935 0.000000 0.000000
# 5 0.000000 0.000000 0.000000 0.000000 0.123935 0.000000
# 6 -0.004955 0.004955 0.000000 0.000000 0.000000 0.031016
#
#
# Mechanical properties :
#
#
# Convention : Reuss Voigt Hill
#
# Bulk Modulus (GPa) = 29.23733 30.27252 29.75493
# Shear Modulus (GPa) = 13.83041 20.61066 17.22053
#
# Velocity S-wave (km/s) = 2.68742 3.28068 2.99876
# Velocity P-wave (km/s) = 4.98972 5.49170 5.24672
#
# Compressibility (1/GPa) = 0.03420285
#
# Stress axis : x y z
#
# Youngs Moduli (GPa) = 63.66053 63.66053 46.94388
#
# Poissons Ratio (x) = 0.22333 0.13496
# Poissons Ratio (y) = 0.22333 0.13496
# Poissons Ratio (z) = 0.18302 0.18302
#
# Static dielectric constant tensor:
#      x y z
#    x 1.706660 0.000000 0.000000 
#    y 0.000000 1.706660 0.000000 
#    z 0.000000 0.000000 1.633370 
# 
# From -- ./inp_files/5274.got.cif
#   From: 2010.05.17/outbox.cif.g08.bks.cpg/sg87_3_cif.got.tgz:5274.got - 2010.06.03 19:07:00.
