data_PCOD9546670
_publ_section_title
;
Structure prediction by ZEFSAII (Michael W. Deem and Ramdas Pophale) SiO2 
 PCOD9546670
Probable space group: I 41/A
;
_chemical_formula_sum "Si O2"
_cell_formula_units_Z 88
_cell_length_a 13.218483
_cell_length_b 13.218483
_cell_length_c 17.412709
_cell_angle_alpha 90.000000
_cell_angle_beta 90.000000
_cell_angle_gamma 90.000000
_cell_volume 3042.492917
_symmetry_space_group_name_H-M "I 41/A"
_symmetry_group_IT_number 88
_space_group.IT_coordinate_system_code '2'
_symmetry_cell_setting 'tetragonal'
loop_
_space_group_symop_operation_xyz
x,y,z
3/4-y,1/4+x,1/4+z
-x,1/2-y,z
1/4+y,1/4-x,1/4+z
-x,-y,-z
1/4+y,3/4-x,3/4-z
x,1/2+y,-z
3/4-y,3/4+x,3/4-z
1/2+x,1/2+y,1/2+z
1/4-y,3/4+x,3/4+z
1/2-x,-y,1/2+z
3/4+y,3/4-x,3/4+z
1/2-x,1/2-y,1/2-z
3/4+y,1/4-x,1/4-z
1/2+x,y,1/2-z
1/4-y,1/4+x,1/4-z
loop_
_atom_site_type_symbol
_atom_site_label
_atom_site_fract_x
_atom_site_fract_y
_atom_site_fract_z
Si Si1 0.598331 0.892967 0.376127
Si Si2 0.020203 0.132810 0.237340
Si Si3 0.500000 0.250000 0.739385
Si Si4 0.201818 0.020575 0.705338
Si Si5 0.929015 0.527701 0.897173
Si Si6 0.419498 0.951139 0.062188
O O1 0.653695 0.813280 0.431638
O O2 0.510513 0.841228 0.324574
O O3 0.690139 0.940543 0.330435
O O4 0.537174 0.979958 0.419061
O O5 0.113266 0.149083 0.179477
O O6 0.000000 0.250000 0.254340
O O7 0.944540 0.057504 0.193832
O O8 0.412065 0.204729 0.792177
O O9 0.227425 0.071946 0.787308
O O10 0.107979 0.057792 0.653329
O O11 0.205274 0.901739 0.687982
O O12 0.500000 0.000000 0.000000
#
# Coordination Sequence:
#
# PCOD9546670 Si02
#       6
#    16  16   8  16  16  16
#     4  11  23  41  65  99 140 192 240 297 379 446
#     4  12  21  37  60  97 140 181 236 288 367 450
#     4  10  24  46  67  95 138 182 242 306 368 434
#     4  11  25  46  75 106 150 196 255 321 376 464
#     4  12  22  41  64 102 142 188 238 302 372 454
#     4  11  26  50  73 111 145 198 260 311 387 447
#
# _framework density 28.923649000000001
#
# number of rings (size 3 to 8) (size 9 to 14) (size 15 to 20)
#    0.000    0.727    4.545    2.727    2.545    2.909 
#    6.545    0.000    0.000    0.000    0.000    0.000 
#    0.000    0.000    0.000    0.000    0.000    0.000 
#
# Total GULP energy -245019.024699 kJ/mol
# GULP energy per Si atom -5568.614198 kJ/mol
# Density = 2.885782 g / cm^3
# Si number density = 28.923649 Si / 1000 Ang^3
#
#
#
# Elastic Constant Matrix: (Units=GPa)
#
#
# Indices 1 2 3 4 5 6 
#
# 1 106.1542 19.9777 12.8214 0.0000 0.0000 3.0338
# 2 19.9777 106.1542 12.8214 0.0000 0.0000 -3.0338
# 3 12.8214 12.8214 106.5471 0.0000 0.0000 0.0000
# 4 0.0000 0.0000 0.0000 37.5977 0.0000 0.0000
# 5 0.0000 0.0000 0.0000 0.0000 37.5977 0.0000
# 6 3.0338 -3.0338 0.0000 0.0000 0.0000 43.0716
#
#
#
# Elastic Compliance Matrix: (Units=1/GPa)
#
#
# Indices 1 2 3 4 5 6 
#
# 1 0.009894 -0.001767 -0.000978 0.000000 0.000000 -0.000821
# 2 -0.001767 0.009894 -0.000978 0.000000 0.000000 0.000821
# 3 -0.000978 -0.000978 0.009621 0.000000 0.000000 0.000000
# 4 0.000000 0.000000 0.000000 0.026597 0.000000 0.000000
# 5 0.000000 0.000000 0.000000 0.000000 0.026597 0.000000
# 6 -0.000821 0.000821 0.000000 0.000000 0.000000 0.023333
#
#
# Mechanical properties :
#
#
# Convention : Reuss Voigt Hill
#
# Bulk Modulus (GPa) = 45.53097 45.56627 45.54862
# Shear Modulus (GPa) = 41.42322 41.86907 41.64615
#
# Velocity S-wave (km/s) = 3.78849 3.80882 3.79867
# Velocity P-wave (km/s) = 5.90871 5.92715 5.91793
#
# Compressibility (1/GPa) = 0.02196307
#
# Stress axis : x y z
#
# Youngs Moduli (GPa) = 101.06647 101.06647 103.94044
#
# Poissons Ratio (x) = 0.17863 0.10165
# Poissons Ratio (y) = 0.17863 0.10165
# Poissons Ratio (z) = 0.09884 0.09884
#
# Static dielectric constant tensor:
#      x y z
#    x 2.396870 0.000000 0.000000 
#    y 0.000000 2.396870 0.000000 
#    z 0.000000 0.000000 2.471540 
# 
# From -- ./inp_files/4625.got.cif
#   From: 2010.05.17/outbox.cif.g08.bks.cpg/sg88_3_cif.got.tgz:4625.got - 2010.06.03 19:11:41.
