data_PCOD9546702
_publ_section_title
;
Structure prediction by ZEFSAII (Michael W. Deem and Ramdas Pophale) SiO2 
 PCOD9546702
Probable space group: I 41/A
;
_chemical_formula_sum "Si O2"
_cell_formula_units_Z 128
_cell_length_a 18.691609
_cell_length_b 18.691609
_cell_length_c 24.406414
_cell_angle_alpha 90.000000
_cell_angle_beta 90.000000
_cell_angle_gamma 90.000000
_cell_volume 8527.021326
_symmetry_space_group_name_H-M "I 41/A"
_symmetry_group_IT_number 88
_space_group.IT_coordinate_system_code '2'
_symmetry_cell_setting 'tetragonal'
loop_
_space_group_symop_operation_xyz
x,y,z
3/4-y,1/4+x,1/4+z
-x,1/2-y,z
1/4+y,1/4-x,1/4+z
-x,-y,-z
1/4+y,3/4-x,3/4-z
x,1/2+y,-z
3/4-y,3/4+x,3/4-z
1/2+x,1/2+y,1/2+z
1/4-y,3/4+x,3/4+z
1/2-x,-y,1/2+z
3/4+y,3/4-x,3/4+z
1/2-x,1/2-y,1/2-z
3/4+y,1/4-x,1/4-z
1/2+x,y,1/2-z
1/4-y,1/4+x,1/4-z
loop_
_atom_site_type_symbol
_atom_site_label
_atom_site_fract_x
_atom_site_fract_y
_atom_site_fract_z
Si Si1 0.421794 0.982565 0.022339
Si Si2 0.084637 0.518759 0.673052
Si Si3 0.346205 0.842588 0.996208
Si Si4 0.772622 0.833445 0.101009
Si Si5 0.045068 0.176264 0.738619
Si Si6 0.076975 0.327599 0.385096
Si Si7 0.418473 0.654409 0.374993
Si Si8 0.827109 0.886286 0.319746
O O1 0.419064 0.005036 0.084615
O O2 0.402770 0.899836 0.018268
O O3 0.500000 0.000000 0.000000
O O4 0.368124 0.024043 0.981958
O O5 0.109445 0.481328 0.729224
O O6 0.110832 0.600160 0.663098
O O7 0.112960 0.468156 0.623161
O O8 0.998053 0.519922 0.670468
O O9 0.367386 0.765748 0.020367
O O10 0.360234 0.841456 0.931328
O O11 0.855421 0.857352 0.101731
O O12 0.713470 0.885508 0.075386
O O13 0.076332 0.159541 0.799311
O O14 0.108128 0.168807 0.694663
O O15 0.000000 0.250000 0.740115
O O16 0.103481 0.252174 0.360288
O O17 0.990353 0.334883 0.384794
#
# Coordination Sequence:
#
# PCOD9546702 Si02
#       8
#    16  16  16  16  16  16  16  16
#     4  12  20  31  46  57  89 135 158 191 240 269
#     4  11  21  30  42  66  90 124 161 200 234 274
#     4  11  19  30  42  61  88 119 158 204 221 262
#     4  11  21  31  43  65  92 118 163 203 235 275
#     4  11  19  29  42  61  85 129 176 189 225 269
#     4   9  16  31  50  60  79 124 161 202 224 272
#     4   9  17  31  49  63  83 119 169 191 231 277
#     4  12  22  30  41  66  93 122 161 200 238 271
#
# _framework density 15.011104
#
# number of rings (size 3 to 8) (size 9 to 14) (size 15 to 20)
#    0.000    1.250    8.750    1.500    0.000    0.000 
#    0.000    0.000    0.000    0.000    0.000    0.875 
#    0.000    0.000    0.000    0.000    0.000    0.000 
#
# Total GULP energy -356427.680380 kJ/mol
# GULP energy per Si atom -5569.182506 kJ/mol
# Density = 1.497694 g / cm^3
# Si number density = 15.011104 Si / 1000 Ang^3
#
#
#
# Elastic Constant Matrix: (Units=GPa)
#
#
# Indices 1 2 3 4 5 6 
#
# 1 80.7791 19.5255 16.6331 0.0000 0.0000 0.4911
# 2 19.5255 80.7791 16.6331 0.0000 0.0000 -0.4911
# 3 16.6331 16.6331 28.2936 0.0000 0.0000 0.0000
# 4 0.0000 0.0000 0.0000 21.1490 0.0000 0.0000
# 5 0.0000 0.0000 0.0000 0.0000 21.1490 0.0000
# 6 0.4911 -0.4911 0.0000 0.0000 0.0000 17.2614
#
#
#
# Elastic Compliance Matrix: (Units=1/GPa)
#
#
# Indices 1 2 3 4 5 6 
#
# 1 0.014359 -0.001974 -0.007280 0.000000 0.000000 -0.000465
# 2 -0.001974 0.014359 -0.007280 0.000000 0.000000 0.000465
# 3 -0.007280 -0.007280 0.043903 0.000000 0.000000 0.000000
# 4 0.000000 0.000000 0.000000 0.047284 0.000000 0.000000
# 5 0.000000 0.000000 0.000000 0.000000 0.047284 0.000000
# 6 -0.000465 0.000465 0.000000 0.000000 0.000000 0.057959
#
#
# Mechanical properties :
#
#
# Convention : Reuss Voigt Hill
#
# Bulk Modulus (GPa) = 25.28412 32.82612 29.05512
# Shear Modulus (GPa) = 18.42295 21.04923 19.73609
#
# Velocity S-wave (km/s) = 3.50707 3.74872 3.62990
# Velocity P-wave (km/s) = 5.76884 6.37593 6.07997
#
# Compressibility (1/GPa) = 0.03955051
#
# Stress axis : x y z
#
# Youngs Moduli (GPa) = 69.64471 69.64471 22.77723
#
# Poissons Ratio (x) = 0.13751 0.16583
# Poissons Ratio (y) = 0.13751 0.16583
# Poissons Ratio (z) = 0.50704 0.50704
#
# Static dielectric constant tensor:
#      x y z
#    x 1.526780 0.000000 0.000000 
#    y 0.000000 1.526780 0.000000 
#    z 0.000000 0.000000 1.487210 
# 
# From -- ./inp_files/5446.got.cif
#   From: 2010.05.17/outbox.cif.g08.bks.cpg/sg88_3_cif.got.tgz:5446.got - 2010.06.03 19:11:41.
