data_PCOD9546655
_publ_section_title
;
Structure prediction by ZEFSAII (Michael W. Deem and Ramdas Pophale) SiO2 
 PCOD9546655
Probable space group: I 41/A
;
_chemical_formula_sum "Si O2"
_cell_formula_units_Z 96
_cell_length_a 17.077597
_cell_length_b 17.077597
_cell_length_c 17.315962
_cell_angle_alpha 90.000000
_cell_angle_beta 90.000000
_cell_angle_gamma 90.000000
_cell_volume 5050.101950
_symmetry_space_group_name_H-M "I 41/A"
_symmetry_group_IT_number 88
_space_group.IT_coordinate_system_code '2'
_symmetry_cell_setting 'tetragonal'
loop_
_space_group_symop_operation_xyz
x,y,z
3/4-y,1/4+x,1/4+z
-x,1/2-y,z
1/4+y,1/4-x,1/4+z
-x,-y,-z
1/4+y,3/4-x,3/4-z
x,1/2+y,-z
3/4-y,3/4+x,3/4-z
1/2+x,1/2+y,1/2+z
1/4-y,3/4+x,3/4+z
1/2-x,-y,1/2+z
3/4+y,3/4-x,3/4+z
1/2-x,1/2-y,1/2-z
3/4+y,1/4-x,1/4-z
1/2+x,y,1/2-z
1/4-y,1/4+x,1/4-z
loop_
_atom_site_type_symbol
_atom_site_label
_atom_site_fract_x
_atom_site_fract_y
_atom_site_fract_z
Si Si1 0.632158 0.589488 0.378320
Si Si2 0.522119 0.489856 0.089419
Si Si3 0.272521 0.507458 0.742265
Si Si4 0.109727 0.286662 0.590678
Si Si5 0.355737 0.945909 0.881936
Si Si6 0.981914 0.657411 0.165403
O O1 0.665022 0.674369 0.352575
O O2 0.660639 0.530845 0.311163
O O3 0.675680 0.559504 0.454280
O O4 0.540070 0.603032 0.384335
O O5 0.571828 0.560809 0.126394
O O6 0.439400 0.486536 0.133362
O O7 0.500000 0.500000 0.000000
O O8 0.235183 0.438994 0.795443
O O9 0.204018 0.542718 0.688511
O O10 0.092680 0.213835 0.647902
O O11 0.110106 0.255462 0.504300
O O12 0.381450 0.857055 0.901050
O O13 0.000000 0.750000 0.151968
#
# Coordination Sequence:
#
# PCOD9546655 Si02
#       6
#    16  16  16  16  16  16
#     4  11  23  40  60  87 122 154 207 240 313 354
#     4  12  21  32  59  89 125 162 189 246 296 377
#     4  10  24  40  60  88 118 162 196 256 292 372
#     4  11  22  32  51  88 132 164 191 226 302 376
#     4  11  23  40  60  87 122 154 207 240 313 354
#     4  12  22  39  57  86 117 162 199 247 294 369
#
# _framework density 19.009518
#
# number of rings (size 3 to 8) (size 9 to 14) (size 15 to 20)
#    0.000    0.833    5.000    4.000    4.667    0.667 
#    0.000    0.000    0.000    0.000    0.000    0.000 
#    0.000    0.000    0.000    0.000    0.000    0.000 
#
# Total GULP energy -268256.263605 kJ/mol
# GULP energy per Si atom -5588.672158 kJ/mol
# Density = 1.896625 g / cm^3
# Si number density = 19.009518 Si / 1000 Ang^3
#
#
#
# Elastic Constant Matrix: (Units=GPa)
#
#
# Indices 1 2 3 4 5 6 
#
# 1 74.7933 -2.3275 12.7735 0.0000 0.0000 -2.3003
# 2 -2.3275 74.7933 12.7735 0.0000 0.0000 2.3003
# 3 12.7735 12.7735 70.0463 0.0000 0.0000 0.0000
# 4 0.0000 0.0000 0.0000 24.0377 0.0000 0.0000
# 5 0.0000 0.0000 0.0000 0.0000 24.0377 0.0000
# 6 -2.3003 2.3003 0.0000 0.0000 0.0000 33.8507
#
#
#
# Elastic Compliance Matrix: (Units=1/GPa)
#
#
# Indices 1 2 3 4 5 6 
#
# 1 0.013884 0.000864 -0.002689 0.000000 0.000000 0.000885
# 2 0.000864 0.013884 -0.002689 0.000000 0.000000 -0.000885
# 3 -0.002689 -0.002689 0.015257 0.000000 0.000000 0.000000
# 4 0.000000 0.000000 0.000000 0.041601 0.000000 0.000000
# 5 0.000000 0.000000 0.000000 0.000000 0.041601 0.000000
# 6 0.000885 -0.000885 0.000000 0.000000 0.000000 0.029662
#
#
# Mechanical properties :
#
#
# Convention : Reuss Voigt Hill
#
# Bulk Modulus (GPa) = 29.41602 29.56356 29.48979
# Shear Modulus (GPa) = 28.36887 29.47945 28.92416
#
# Velocity S-wave (km/s) = 3.86729 3.94226 3.90495
# Velocity P-wave (km/s) = 5.95392 6.02558 5.98986
#
# Compressibility (1/GPa) = 0.03399509
#
# Stress axis : x y z
#
# Youngs Moduli (GPa) = 72.02752 72.02752 65.54309
#
# Poissons Ratio (x) = -0.06224 0.17627
# Poissons Ratio (y) = -0.06224 0.17627
# Poissons Ratio (z) = 0.19371 0.19371
#
# Static dielectric constant tensor:
#      x y z
#    x 1.682050 0.000000 0.000000 
#    y 0.000000 1.682050 0.000000 
#    z 0.000000 0.000000 1.643120 
# 
# From -- ./inp_files/3919.got.cif
#   From: 2010.05.17/outbox.cif.g08.bks.cpg/sg88_2_cif.got.tgz:3919.got - 2010.06.03 19:11:41.
