data_PCOD9546078
_publ_section_title
;
Structure prediction by ZEFSAII (Michael W. Deem and Ramdas Pophale) SiO2 
 PCOD9546078
Probable space group: I 4/M
;
_chemical_formula_sum "Si O2"
_cell_formula_units_Z 64
_cell_length_a 10.010845
_cell_length_b 10.010845
_cell_length_c 24.464891
_cell_angle_alpha 90.000000
_cell_angle_beta 90.000000
_cell_angle_gamma 90.000000
_cell_volume 2451.798412
_symmetry_space_group_name_H-M "I 4/M"
_symmetry_group_IT_number 87
_symmetry_cell_setting 'tetragonal'
loop_
_space_group_symop_operation_xyz
x,y,z
-y,x,z
-x,-y,z
y,-x,z
-x,-y,-z
y,-x,-z
x,y,-z
-y,x,-z
1/2+x,1/2+y,1/2+z
1/2-y,1/2+x,1/2+z
1/2-x,1/2-y,1/2+z
1/2+y,1/2-x,1/2+z
1/2-x,1/2-y,1/2-z
1/2+y,1/2-x,1/2-z
1/2+x,1/2+y,1/2-z
1/2-y,1/2+x,1/2-z
loop_
_atom_site_type_symbol
_atom_site_label
_atom_site_fract_x
_atom_site_fract_y
_atom_site_fract_z
Si Si1 0.340313 0.014943 0.616820
Si Si2 0.690676 0.106438 0.500000
Si Si3 0.747646 0.096266 0.000000
Si Si4 0.130018 0.340900 0.728196
Si Si5 0.811675 0.096140 0.876943
O O1 0.285723 0.967831 0.557911
O O2 0.299661 0.927673 0.668905
O O3 0.671681 0.828028 0.630006
O O4 0.500000 0.000000 0.612021
O O5 0.530992 0.147128 0.500000
O O6 0.775785 0.243195 0.500000
O O7 0.819197 0.082744 0.942526
O O8 0.250000 0.250000 0.750000
O O9 0.997430 0.331994 0.766353
O O10 0.326251 0.442879 0.642464
#
# Coordination Sequence:
#
# PCOD9546078 Si02
#       5
#    16   8   8  16  16
#     4  12  23  45  70 108 162 201 260 328 414 500
#     4  12  26  35  66 111 153 210 249 326 424 484
#     4  12  19  36  57  97 162 203 262 313 393 497
#     4  11  27  54  85 114 154 212 277 345 409 484
#     4  11  22  38  67 107 155 209 261 325 406 498
#
# _framework density 26.103290999999999
#
# number of rings (size 3 to 8) (size 9 to 14) (size 15 to 20)
#    0.000    0.500    7.500    1.125    0.000    7.750 
#    0.000    0.000    0.000    3.000    0.000    1.750 
#    0.000    0.000    0.000    0.000    0.000    0.000 
#
# Total GULP energy -179023.084763 kJ/mol
# GULP energy per Si atom -5594.471399 kJ/mol
# Density = 2.604388 g / cm^3
# Si number density = 26.103291 Si / 1000 Ang^3
#
#
#
# Elastic Constant Matrix: (Units=GPa)
#
#
# Indices 1 2 3 4 5 6 
#
# 1 172.3838 77.3714 80.7939 0.0000 0.0000 -17.4371
# 2 77.3714 172.3838 80.7939 0.0000 0.0000 17.4371
# 3 80.7939 80.7939 221.3767 0.0000 0.0000 0.0000
# 4 0.0000 0.0000 0.0000 36.8198 0.0000 0.0000
# 5 0.0000 0.0000 0.0000 0.0000 36.8198 0.0000
# 6 -17.4371 17.4371 0.0000 0.0000 0.0000 42.4642
#
#
#
# Elastic Compliance Matrix: (Units=1/GPa)
#
#
# Indices 1 2 3 4 5 6 
#
# 1 0.008817 -0.003576 -0.001913 0.000000 0.000000 0.005089
# 2 -0.003576 0.008817 -0.001913 0.000000 0.000000 -0.005089
# 3 -0.001913 -0.001913 0.005914 0.000000 0.000000 0.000000
# 4 0.000000 0.000000 0.000000 0.027159 0.000000 0.000000
# 5 0.000000 0.000000 0.000000 0.000000 0.027159 0.000000
# 6 0.005089 -0.005089 0.000000 0.000000 0.000000 0.027729
#
#
# Mechanical properties :
#
#
# Convention : Reuss Voigt Hill
#
# Bulk Modulus (GPa) = 114.35389 116.00695 115.18042
# Shear Modulus (GPa) = 40.54720 45.03308 42.79014
#
# Velocity S-wave (km/s) = 3.94551 4.15804 4.05317
# Velocity P-wave (km/s) = 8.04111 8.22134 8.13172
#
# Compressibility (1/GPa) = 0.00874478
#
# Stress axis : x y z
#
# Youngs Moduli (GPa) = 113.41482 113.41482 169.10425
#
# Poissons Ratio (x) = 0.40553 0.32349
# Poissons Ratio (y) = 0.40553 0.32349
# Poissons Ratio (z) = 0.21696 0.21696
#
# Static dielectric constant tensor:
#      x y z
#    x 2.086360 0.000000 0.000000 
#    y 0.000000 2.086360 0.000000 
#    z 0.000000 0.000000 2.099750 
# 
# From -- ./inp_files/4201.got.cif
#   From: 2010.05.17/outbox.cif.g08.bks.cpg/sg87_3_cif.got.tgz:4201.got - 2010.06.03 19:07:00.
