data_PCOD9546641
_publ_section_title
;
Structure prediction by ZEFSAII (Michael W. Deem and Ramdas Pophale) SiO2 
 PCOD9546641
Probable space group: I 41/A
;
_chemical_formula_sum "Si O2"
_cell_formula_units_Z 48
_cell_length_a 10.632005
_cell_length_b 10.632005
_cell_length_c 17.792657
_cell_angle_alpha 90.000000
_cell_angle_beta 90.000000
_cell_angle_gamma 90.000000
_cell_volume 2011.273590
_symmetry_space_group_name_H-M "I 41/A"
_symmetry_group_IT_number 88
_space_group.IT_coordinate_system_code '2'
_symmetry_cell_setting 'tetragonal'
loop_
_space_group_symop_operation_xyz
x,y,z
3/4-y,1/4+x,1/4+z
-x,1/2-y,z
1/4+y,1/4-x,1/4+z
-x,-y,-z
1/4+y,3/4-x,3/4-z
x,1/2+y,-z
3/4-y,3/4+x,3/4-z
1/2+x,1/2+y,1/2+z
1/4-y,3/4+x,3/4+z
1/2-x,-y,1/2+z
3/4+y,3/4-x,3/4+z
1/2-x,1/2-y,1/2-z
3/4+y,1/4-x,1/4-z
1/2+x,y,1/2-z
1/4-y,1/4+x,1/4-z
loop_
_atom_site_type_symbol
_atom_site_label
_atom_site_fract_x
_atom_site_fract_y
_atom_site_fract_z
Si Si1 0.136316 0.865879 0.336195
Si Si2 0.717474 0.900165 0.694015
Si Si3 0.711311 0.799964 0.532770
O O1 0.157877 0.720241 0.352964
O O2 0.254086 0.958555 0.339301
O O3 0.074193 0.903374 0.256344
O O4 0.714081 0.812352 0.621817
O O5 0.837644 0.879464 0.746734
O O6 0.586340 0.909132 0.736327
#
# Coordination Sequence:
#
# PCOD9546641 Si02
#       3
#    16  16  16
#     4   9  20  42  68 104 144 186 247 304 363 434
#     4  10  23  44  71 107 144 197 245 303 371 433
#     4  10  23  44  73 105 150 193 246 309 364 447
#
# _framework density 23.865473999999999
#
# number of rings (size 3 to 8) (size 9 to 14) (size 15 to 20)
#    2.000    0.333    0.000    2.000    0.000    3.333 
#    6.000    3.333    0.000    0.000    0.000    0.000 
#    0.000    0.000    0.000    0.000    0.000    0.000 
#
# Total GULP energy -133927.349428 kJ/mol
# GULP energy per Si atom -5580.306226 kJ/mol
# Density = 2.381115 g / cm^3
# Si number density = 23.865474 Si / 1000 Ang^3
#
#
#
# Elastic Constant Matrix: (Units=GPa)
#
#
# Indices 1 2 3 4 5 6 
#
# 1 123.4074 16.9097 29.1439 0.0000 0.0000 4.3539
# 2 16.9097 123.4074 29.1439 0.0000 0.0000 -4.3539
# 3 29.1439 29.1439 87.8433 0.0000 0.0000 0.0000
# 4 0.0000 0.0000 0.0000 38.4822 0.0000 0.0000
# 5 0.0000 0.0000 0.0000 0.0000 38.4822 0.0000
# 6 4.3539 -4.3539 0.0000 0.0000 0.0000 5.1242
#
#
#
# Elastic Compliance Matrix: (Units=1/GPa)
#
#
# Indices 1 2 3 4 5 6 
#
# 1 0.009178 -0.000913 -0.002742 0.000000 0.000000 -0.008574
# 2 -0.000913 0.009178 -0.002742 0.000000 0.000000 0.008574
# 3 -0.002742 -0.002742 0.013204 0.000000 0.000000 0.000000
# 4 0.000000 0.000000 0.000000 0.025986 0.000000 0.000000
# 5 0.000000 0.000000 0.000000 0.000000 0.025986 0.000000
# 6 -0.008574 0.008574 0.000000 0.000000 0.000000 0.209721
#
#
# Mechanical properties :
#
#
# Convention : Reuss Voigt Hill
#
# Bulk Modulus (GPa) = 53.28826 53.89476 53.59151
# Shear Modulus (GPa) = 16.01005 33.71509 24.86257
#
# Velocity S-wave (km/s) = 2.59288 3.76269 3.23116
# Velocity P-wave (km/s) = 5.59831 6.44274 6.03531
#
# Compressibility (1/GPa) = 0.01876586
#
# Stress axis : x y z
#
# Youngs Moduli (GPa) = 108.95131 108.95131 75.73688
#
# Poissons Ratio (x) = 0.09942 0.20770
# Poissons Ratio (y) = 0.09942 0.20770
# Poissons Ratio (z) = 0.29879 0.29879
#
# Static dielectric constant tensor:
#      x y z
#    x 1.947800 0.000000 0.000000 
#    y 0.000000 1.947800 0.000000 
#    z 0.000000 0.000000 1.901960 
# 
# From -- ./inp_files/3571.got.cif
#   From: 2010.05.17/outbox.cif.g08.bks.cpg/sg88_2_cif.got.tgz:3571.got - 2010.06.03 19:11:41.
