data_PCOD9546512
_publ_section_title
;
Structure prediction by ZEFSAII (Michael W. Deem and Ramdas Pophale) SiO2 
 PCOD9546512
Probable space group: I 41/A
;
_chemical_formula_sum "Si O2"
_cell_formula_units_Z 128
_cell_length_a 22.452540
_cell_length_b 22.452540
_cell_length_c 11.655758
_cell_angle_alpha 90.000000
_cell_angle_beta 90.000000
_cell_angle_gamma 90.000000
_cell_volume 5875.860539
_symmetry_space_group_name_H-M "I 41/A"
_symmetry_group_IT_number 88
_space_group.IT_coordinate_system_code '2'
_symmetry_cell_setting 'tetragonal'
loop_
_space_group_symop_operation_xyz
x,y,z
3/4-y,1/4+x,1/4+z
-x,1/2-y,z
1/4+y,1/4-x,1/4+z
-x,-y,-z
1/4+y,3/4-x,3/4-z
x,1/2+y,-z
3/4-y,3/4+x,3/4-z
1/2+x,1/2+y,1/2+z
1/4-y,3/4+x,3/4+z
1/2-x,-y,1/2+z
3/4+y,3/4-x,3/4+z
1/2-x,1/2-y,1/2-z
3/4+y,1/4-x,1/4-z
1/2+x,y,1/2-z
1/4-y,1/4+x,1/4-z
loop_
_atom_site_type_symbol
_atom_site_label
_atom_site_fract_x
_atom_site_fract_y
_atom_site_fract_z
Si Si1 0.161223 0.242387 0.152631
Si Si2 0.841531 0.972324 0.072513
Si Si3 0.106587 0.926212 0.063980
Si Si4 0.312999 0.361453 0.918020
Si Si5 0.399436 0.153165 0.235901
Si Si6 0.687070 0.820050 0.446537
Si Si7 0.360941 0.486787 0.832501
Si Si8 0.328832 0.296419 0.696542
O O1 0.193872 0.203398 0.247732
O O2 0.129793 0.195128 0.069118
O O3 0.112516 0.280938 0.221056
O O4 0.197589 0.284543 0.065569
O O5 0.775613 0.948969 0.100012
O O6 0.871845 0.985314 0.195393
O O7 0.872666 0.915487 0.014170
O O8 0.845901 0.027081 0.986637
O O9 0.100292 0.925020 0.199462
O O10 0.129195 0.860103 0.033217
O O11 0.241068 0.363166 0.912267
O O12 0.346808 0.420837 0.876995
O O13 0.329773 0.308157 0.831463
O O14 0.426145 0.138427 0.110995
O O15 0.679015 0.770428 0.348093
O O16 0.413195 0.524235 0.894868
#
# Coordination Sequence:
#
# PCOD9546512 Si02
#       8
#    16  16  16  16  16  16  16  16
#     4  11  23  46  67 104 136 180 239 304 362 408
#     4  11  24  40  68  99 145 183 223 295 353 430
#     4  12  27  40  69 111 138 176 244 300 357 415
#     4  12  25  43  65 104 142 184 235 286 355 434
#     4  10  21  43  70  97 134 182 237 282 356 429
#     4  11  25  44  72  99 143 186 239 297 351 441
#     4  11  23  42  71  97 138 192 231 272 360 432
#     4  10  23  48  66  96 139 195 234 278 363 433
#
# _framework density 21.784044999999999
#
# number of rings (size 3 to 8) (size 9 to 14) (size 15 to 20)
#    0.000    1.000    3.750    4.125    3.500    3.250 
#    2.250    0.000    0.000    0.000    0.000    0.000 
#    0.000    0.000    0.000    0.000    0.000    0.000 
#
# Total GULP energy -357719.668489 kJ/mol
# GULP energy per Si atom -5589.369820 kJ/mol
# Density = 2.173446 g / cm^3
# Si number density = 21.784045 Si / 1000 Ang^3
#
#
#
# Elastic Constant Matrix: (Units=GPa)
#
#
# Indices 1 2 3 4 5 6 
#
# 1 69.5649 9.6582 13.5229 0.0000 0.0000 3.2991
# 2 9.6582 69.5649 13.5229 0.0000 0.0000 -3.2991
# 3 13.5229 13.5229 106.4370 0.0000 0.0000 0.0000
# 4 0.0000 0.0000 0.0000 28.3085 0.0000 0.0000
# 5 0.0000 0.0000 0.0000 0.0000 28.3085 0.0000
# 6 3.2991 -3.2991 0.0000 0.0000 0.0000 12.1809
#
#
#
# Elastic Compliance Matrix: (Units=1/GPa)
#
#
# Indices 1 2 3 4 5 6 
#
# 1 0.015200 -0.002005 -0.001676 0.000000 0.000000 -0.004660
# 2 -0.002005 0.015200 -0.001676 0.000000 0.000000 0.004660
# 3 -0.001676 -0.001676 0.009821 0.000000 0.000000 0.000000
# 4 0.000000 0.000000 0.000000 0.035325 0.000000 0.000000
# 5 0.000000 0.000000 0.000000 0.000000 0.035325 0.000000
# 6 -0.004660 0.004660 0.000000 0.000000 0.000000 0.084620
#
#
# Mechanical properties :
#
#
# Convention : Reuss Voigt Hill
#
# Bulk Modulus (GPa) = 33.89219 35.44164 34.66691
# Shear Modulus (GPa) = 23.14348 27.68379 25.41363
#
# Velocity S-wave (km/s) = 3.26299 3.56874 3.41928
# Velocity P-wave (km/s) = 5.45786 5.76940 5.61579
#
# Compressibility (1/GPa) = 0.02950532
#
# Stress axis : x y z
#
# Youngs Moduli (GPa) = 65.78777 65.78777 101.82046
#
# Poissons Ratio (x) = 0.13194 0.17069
# Poissons Ratio (y) = 0.13194 0.17069
# Poissons Ratio (z) = 0.11029 0.11029
#
# Static dielectric constant tensor:
#      x y z
#    x 1.799950 0.000000 0.000000 
#    y 0.000000 1.799950 0.000000 
#    z 0.000000 0.000000 1.839510 
# 
# From -- ./inp_files/2752.got.cif
#   From: 2010.05.17/outbox.cif.g08.bks.cpg/sg88_2_cif.got.tgz:2752.got - 2010.06.03 19:11:41.
