data_PCOD9546992
_publ_section_title
;
Structure prediction by ZEFSAII (Michael W. Deem and Ramdas Pophale) SiO2 
 PCOD9546992
Probable space group: P 4 2 2
;
_chemical_formula_sum "Si O2"
_cell_formula_units_Z 56
_cell_length_a 14.594081
_cell_length_b 14.594081
_cell_length_c 14.198739
_cell_angle_alpha 90.000000
_cell_angle_beta 90.000000
_cell_angle_gamma 90.000000
_cell_volume 3024.149666
_symmetry_space_group_name_H-M "P 4 2 2"
_symmetry_group_IT_number 89
_symmetry_cell_setting 'tetragonal'
loop_
_space_group_symop_operation_xyz
x,y,z
-y,x,z
-x,-y,z
y,-x,z
x,-y,-z
-x,y,-z
y,x,-z
-y,-x,-z
loop_
_atom_site_type_symbol
_atom_site_label
_atom_site_fract_x
_atom_site_fract_y
_atom_site_fract_z
Si Si1 0.830577 0.241023 0.759826
Si Si2 0.652068 0.832748 0.198527
Si Si3 0.282537 0.024995 0.891999
Si Si4 0.895196 0.112118 0.393055
Si Si5 0.105230 0.384876 0.391233
Si Si6 0.899154 0.522294 0.110302
Si Si7 0.890366 0.605858 0.601285
O O1 0.734656 0.238737 0.816319
O O2 0.915708 0.215301 0.828397
O O3 0.831994 0.160070 0.682989
O O4 0.848758 0.331031 0.694896
O O5 0.548866 0.827998 0.155660
O O6 0.639472 0.834668 0.310191
O O7 0.689112 0.930000 0.157612
O O8 0.368306 0.097291 0.888491
O O9 0.260710 0.000000 0.000000
O O10 0.866688 0.133313 0.500000
O O11 0.003740 0.124684 0.382512
O O12 0.138748 0.362275 0.497162
O O13 0.112087 0.495120 0.389382
O O14 0.996502 0.364692 0.387146
O O15 0.000000 0.500000 0.153598
O O16 0.901400 0.500000 0.000000
#
# Coordination Sequence:
#
# PCOD9546992 Si02
#       7
#     8   8   8   8   8   8   8
#     4  12  23  31  51  84 113 139 178 246 287 316
#     4  11  21  31  52  82 105 139 186 227 274 336
#     4  11  21  38  56  73 105 148 184 233 282 340
#     4   9  20  36  50  65  98 152 203 231 259 317
#     4   9  19  32  52  77 109 139 183 236 278 331
#     4   9  16  34  57  74  92 133 187 218 269 338
#     4   9  18  34  52  75 104 148 185 219 281 348
#
# _framework density 18.517602
#
# number of rings (size 3 to 8) (size 9 to 14) (size 15 to 20)
#    0.000    2.000    4.286    3.000    6.000    1.714 
#    0.000    0.000    0.000    0.000    0.000    1.000 
#    0.000    9.143    0.000   17.714    0.000    0.000 
#
# Total GULP energy -311808.769869 kJ/mol
# GULP energy per Si atom -5568.013748 kJ/mol
# Density = 1.847546 g / cm^3
# Si number density = 18.517602 Si / 1000 Ang^3
#
#
#
# Elastic Constant Matrix: (Units=GPa)
#
#
# Indices 1 2 3 4 5 6 
#
# 1 49.3636 11.0196 17.7304 0.0000 0.0000 0.0000
# 2 11.0196 49.3638 17.7302 0.0000 0.0000 0.0000
# 3 17.7304 17.7302 101.3118 0.0000 0.0000 0.0000
# 4 0.0000 0.0000 0.0000 15.2623 0.0000 0.0000
# 5 0.0000 0.0000 0.0000 0.0000 15.2623 0.0000
# 6 0.0000 0.0000 0.0000 0.0000 0.0000 10.7977
#
#
#
# Elastic Compliance Matrix: (Units=1/GPa)
#
#
# Indices 1 2 3 4 5 6 
#
# 1 0.022269 -0.003811 -0.003230 0.000000 0.000000 0.000000
# 2 -0.003811 0.022269 -0.003230 0.000000 0.000000 0.000000
# 3 -0.003230 -0.003230 0.011001 0.000000 0.000000 0.000000
# 4 0.000000 0.000000 0.000000 0.065521 0.000000 0.000000
# 5 0.000000 0.000000 0.000000 0.000000 0.065521 0.000000
# 6 0.000000 0.000000 0.000000 0.000000 0.000000 0.092612
#
#
# Mechanical properties :
#
#
# Convention : Reuss Voigt Hill
#
# Bulk Modulus (GPa) = 28.57482 32.55553 30.56517
# Shear Modulus (GPa) = 16.05647 18.50173 17.27910
#
# Velocity S-wave (km/s) = 2.94784 3.16435 3.05801
# Velocity P-wave (km/s) = 5.20106 5.56506 5.38613
#
# Compressibility (1/GPa) = 0.03499584
#
# Stress axis : x y z
#
# Youngs Moduli (GPa) = 44.90586 44.90607 90.89952
#
# Poissons Ratio (x) = 0.17113 0.29363
# Poissons Ratio (y) = 0.17113 0.29363
# Poissons Ratio (z) = 0.14506 0.14506
#
# Static dielectric constant tensor:
#      x y z
#    x 1.734950 0.000000 0.000000 
#    y 0.000000 1.734950 0.000000 
#    z 0.000000 0.000000 1.702410 
# 
# From -- ./inp_files/2237.got.cif
#   From: 2010.05.17/outbox.cif.g08.bks.cpg/sg89_2_cif.got.tgz:2237.got - 2010.06.03 19:15:31.
