data_PCOD9546444
_publ_section_title
;
Structure prediction by ZEFSAII (Michael W. Deem and Ramdas Pophale) SiO2 
 PCOD9546444
Probable space group: I 41/A
;
_chemical_formula_sum "Si O2"
_cell_formula_units_Z 64
_cell_length_a 15.821699
_cell_length_b 15.821699
_cell_length_c 10.005472
_cell_angle_alpha 90.000000
_cell_angle_beta 90.000000
_cell_angle_gamma 90.000000
_cell_volume 2504.631377
_symmetry_space_group_name_H-M "I 41/A"
_symmetry_group_IT_number 88
_space_group.IT_coordinate_system_code '2'
_symmetry_cell_setting 'tetragonal'
loop_
_space_group_symop_operation_xyz
x,y,z
3/4-y,1/4+x,1/4+z
-x,1/2-y,z
1/4+y,1/4-x,1/4+z
-x,-y,-z
1/4+y,3/4-x,3/4-z
x,1/2+y,-z
3/4-y,3/4+x,3/4-z
1/2+x,1/2+y,1/2+z
1/4-y,3/4+x,3/4+z
1/2-x,-y,1/2+z
3/4+y,3/4-x,3/4+z
1/2-x,1/2-y,1/2-z
3/4+y,1/4-x,1/4-z
1/2+x,y,1/2-z
1/4-y,1/4+x,1/4-z
loop_
_atom_site_type_symbol
_atom_site_label
_atom_site_fract_x
_atom_site_fract_y
_atom_site_fract_z
Si Si1 0.617399 0.722588 0.675188
Si Si2 0.797429 0.665814 0.602589
Si Si3 0.767237 0.575038 0.226209
Si Si4 0.534483 0.119001 0.895122
O O1 0.536332 0.662586 0.693306
O O2 0.701207 0.668707 0.651000
O O3 0.642820 0.788506 0.790871
O O4 0.824946 0.572505 0.556904
O O5 0.801114 0.724312 0.471677
O O6 0.811256 0.503845 0.320678
O O7 0.823467 0.658734 0.245152
O O8 0.445404 0.161152 0.921261
#
# Coordination Sequence:
#
# PCOD9546444 Si02
#       4
#    16  16  16  16
#     4  10  21  37  61  89 118 158 200 250 314 367
#     4  10  22  41  60  88 127 156 204 261 303 367
#     4  10  22  41  65  93 125 162 208 258 309 367
#     4  10  23  41  60  88 122 161 204 251 306 368
#
# _framework density 25.552661000000001
#
# number of rings (size 3 to 8) (size 9 to 14) (size 15 to 20)
#    0.000    2.000    0.000    3.000    0.000   14.000 
#    0.000    5.000    0.000    0.000    0.000    0.000 
#    0.000    0.000    0.000    0.000    0.000    0.000 
#
# Total GULP energy -178681.849101 kJ/mol
# GULP energy per Si atom -5583.807784 kJ/mol
# Density = 2.549450 g / cm^3
# Si number density = 25.552661 Si / 1000 Ang^3
#
#
#
# Elastic Constant Matrix: (Units=GPa)
#
#
# Indices 1 2 3 4 5 6 
#
# 1 109.8891 50.5099 13.7926 0.0000 0.0000 9.8838
# 2 50.5099 109.8891 13.7926 0.0000 0.0000 -9.8838
# 3 13.7926 13.7926 30.3419 0.0000 0.0000 0.0000
# 4 0.0000 0.0000 0.0000 17.9316 0.0000 0.0000
# 5 0.0000 0.0000 0.0000 0.0000 17.9316 0.0000
# 6 9.8838 -9.8838 0.0000 0.0000 0.0000 37.2522
#
#
#
# Elastic Compliance Matrix: (Units=1/GPa)
#
#
# Indices 1 2 3 4 5 6 
#
# 1 0.012618 -0.005855 -0.003074 0.000000 0.000000 -0.004901
# 2 -0.005855 0.012618 -0.003074 0.000000 0.000000 0.004901
# 3 -0.003074 -0.003074 0.035753 0.000000 0.000000 0.000000
# 4 0.000000 0.000000 0.000000 0.055767 0.000000 0.000000
# 5 0.000000 0.000000 0.000000 0.000000 0.055767 0.000000
# 6 -0.004901 0.004901 0.000000 0.000000 0.000000 0.029445
#
#
# Mechanical properties :
#
#
# Convention : Reuss Voigt Hill
#
# Bulk Modulus (GPa) = 27.04041 45.14558 36.09299
# Shear Modulus (GPa) = 20.98179 26.09144 23.53662
#
# Velocity S-wave (km/s) = 2.86863 3.19891 3.03826
# Velocity P-wave (km/s) = 4.64513 5.59911 5.14428
#
# Compressibility (1/GPa) = 0.03698169
#
# Stress axis : x y z
#
# Youngs Moduli (GPa) = 79.25282 79.25282 27.96991
#
# Poissons Ratio (x) = 0.46400 0.08599
# Poissons Ratio (y) = 0.46400 0.08599
# Poissons Ratio (z) = 0.24365 0.24365
#
# Static dielectric constant tensor:
#      x y z
#    x 2.061710 0.000000 0.000000 
#    y 0.000000 2.061710 0.000000 
#    z 0.000000 0.000000 2.066130 
# 
# From -- ./inp_files/2362.got.cif
#   From: 2010.05.17/outbox.cif.g08.bks.cpg/sg88_2_cif.got.tgz:2362.got - 2010.06.03 19:11:41.
