data_PCOD9546476
_publ_section_title
;
Structure prediction by ZEFSAII (Michael W. Deem and Ramdas Pophale) SiO2 
 PCOD9546476
Probable space group: I 41/A
;
_chemical_formula_sum "Si O2"
_cell_formula_units_Z 100
_cell_length_a 13.953697
_cell_length_b 13.953697
_cell_length_c 21.930834
_cell_angle_alpha 90.000000
_cell_angle_beta 90.000000
_cell_angle_gamma 90.000000
_cell_volume 4270.057508
_symmetry_space_group_name_H-M "I 41/A"
_symmetry_group_IT_number 88
_space_group.IT_coordinate_system_code '2'
_symmetry_cell_setting 'tetragonal'
loop_
_space_group_symop_operation_xyz
x,y,z
3/4-y,1/4+x,1/4+z
-x,1/2-y,z
1/4+y,1/4-x,1/4+z
-x,-y,-z
1/4+y,3/4-x,3/4-z
x,1/2+y,-z
3/4-y,3/4+x,3/4-z
1/2+x,1/2+y,1/2+z
1/4-y,3/4+x,3/4+z
1/2-x,-y,1/2+z
3/4+y,3/4-x,3/4+z
1/2-x,1/2-y,1/2-z
3/4+y,1/4-x,1/4-z
1/2+x,y,1/2-z
1/4-y,1/4+x,1/4-z
loop_
_atom_site_type_symbol
_atom_site_label
_atom_site_fract_x
_atom_site_fract_y
_atom_site_fract_z
Si Si1 0.572992 0.950621 0.311642
Si Si2 0.000000 0.750000 0.875000
Si Si3 0.541108 0.653387 0.034582
Si Si4 0.574847 0.455056 0.073001
Si Si5 0.370231 0.315494 0.471334
Si Si6 0.122070 0.320319 0.919235
Si Si7 0.741282 0.521090 0.761592
O O1 0.565253 0.885945 0.251278
O O2 0.560610 0.880752 0.369763
O O3 0.682908 0.990034 0.300220
O O4 0.492013 0.030627 0.308413
O O5 0.947829 0.826084 0.918137
O O6 0.500000 0.750000 0.059180
O O7 0.477055 0.600898 0.982723
O O8 0.555397 0.568432 0.081084
O O9 0.519182 0.412414 0.130251
O O10 0.683591 0.460354 0.049048
O O11 0.405789 0.237783 0.520543
O O12 0.342139 0.419085 0.498082
O O13 0.186777 0.406625 0.946202
#
# Coordination Sequence:
#
# PCOD9546476 Si02
#       7
#    16   4  16  16  16  16  16
#     4   9  20  39  64  97 137 170 229 274 339 421
#     4  12  28  52  64  96 132 168 252 316 342 412
#     4   9  16  32  58  87 134 179 209 259 324 392
#     4   9  19  35  56  94 131 169 221 267 313 410
#     4  11  24  46  71  94 134 179 226 295 354 404
#     4  10  22  41  64 100 132 171 230 281 329 420
#     4  10  21  39  66  96 133 184 213 268 354 406
#
# _framework density 23.418887999999999
#
# number of rings (size 3 to 8) (size 9 to 14) (size 15 to 20)
#    0.000    2.240    0.000    2.880    2.240    0.000 
#   14.400    4.000    0.000    0.000    0.000    0.000 
#    0.000    0.000    0.000    0.000    0.000    0.000 
#
# Total GULP energy -278417.865355 kJ/mol
# GULP energy per Si atom -5568.357307 kJ/mol
# Density = 2.336559 g / cm^3
# Si number density = 23.418888 Si / 1000 Ang^3
#
#
#
# Elastic Constant Matrix: (Units=GPa)
#
#
# Indices 1 2 3 4 5 6 
#
# 1 64.9639 34.6977 12.7225 0.0000 0.0000 10.3710
# 2 34.6977 64.9639 12.7225 0.0000 0.0000 -10.3710
# 3 12.7225 12.7225 56.3413 0.0000 0.0000 0.0000
# 4 0.0000 0.0000 0.0000 5.5072 0.0000 0.0000
# 5 0.0000 0.0000 0.0000 0.0000 5.5072 0.0000
# 6 10.3710 -10.3710 0.0000 0.0000 0.0000 10.8827
#
#
#
# Elastic Compliance Matrix: (Units=1/GPa)
#
#
# Indices 1 2 3 4 5 6 
#
# 1 0.052946 -0.042299 -0.002404 0.000000 0.000000 -0.090767
# 2 -0.042299 0.052946 -0.002404 0.000000 0.000000 0.090767
# 3 -0.002404 -0.002404 0.018835 0.000000 0.000000 0.000000
# 4 0.000000 0.000000 0.000000 0.181582 0.000000 0.000000
# 5 0.000000 0.000000 0.000000 0.000000 0.181582 0.000000
# 6 -0.090767 0.090767 0.000000 0.000000 0.000000 0.264888
#
#
# Mechanical properties :
#
#
# Convention : Reuss Voigt Hill
#
# Bulk Modulus (GPa) = 32.77300 34.06161 33.41731
# Shear Modulus (GPa) = 5.83318 12.78782 9.31050
#
# Velocity S-wave (km/s) = 1.57994 2.33930 1.99606
# Velocity P-wave (km/s) = 4.16568 4.67681 4.42862
#
# Compressibility (1/GPa) = 0.03051292
#
# Stress axis : x y z
#
# Youngs Moduli (GPa) = 18.88701 18.88701 53.09305
#
# Poissons Ratio (x) = 0.79889 0.12766
# Poissons Ratio (y) = 0.79889 0.12766
# Poissons Ratio (z) = 0.04541 0.04541
#
# Static dielectric constant tensor:
#      x y z
#    x 1.999320 0.000000 0.000000 
#    y 0.000000 1.999320 0.000000 
#    z 0.000000 0.000000 1.884730 
# 
# From -- ./inp_files/5300.got.cif
#   From: 2010.05.17/outbox.cif.g08.bks.cpg/sg88_3_cif.got.tgz:5300.got - 2010.06.03 19:11:41.
