data_PCOD9546269
_publ_section_title
;
Structure prediction by ZEFSAII (Michael W. Deem and Ramdas Pophale) SiO2 
 PCOD9546269
Probable space group: I 41/A
;
_chemical_formula_sum "Si O2"
_cell_formula_units_Z 80
_cell_length_a 12.228671
_cell_length_b 12.228671
_cell_length_c 21.486899
_cell_angle_alpha 90.000000
_cell_angle_beta 90.000000
_cell_angle_gamma 90.000000
_cell_volume 3213.159351
_symmetry_space_group_name_H-M "I 41/A"
_symmetry_group_IT_number 88
_space_group.IT_coordinate_system_code '2'
_symmetry_cell_setting 'tetragonal'
loop_
_space_group_symop_operation_xyz
x,y,z
3/4-y,1/4+x,1/4+z
-x,1/2-y,z
1/4+y,1/4-x,1/4+z
-x,-y,-z
1/4+y,3/4-x,3/4-z
x,1/2+y,-z
3/4-y,3/4+x,3/4-z
1/2+x,1/2+y,1/2+z
1/4-y,3/4+x,3/4+z
1/2-x,-y,1/2+z
3/4+y,3/4-x,3/4+z
1/2-x,1/2-y,1/2-z
3/4+y,1/4-x,1/4-z
1/2+x,y,1/2-z
1/4-y,1/4+x,1/4-z
loop_
_atom_site_type_symbol
_atom_site_label
_atom_site_fract_x
_atom_site_fract_y
_atom_site_fract_z
Si Si1 0.168062 0.947154 0.463363
Si Si2 0.791809 0.364813 0.278375
Si Si3 0.530783 0.133555 0.046971
Si Si4 0.519290 0.986758 0.230983
Si Si5 0.665976 0.780645 0.611759
O O1 0.207979 0.831543 0.436801
O O2 0.080956 0.911695 0.516958
O O3 0.280838 0.997055 0.489693
O O4 0.096565 0.031865 0.423604
O O5 0.750000 0.250000 0.250000
O O6 0.916267 0.403461 0.286489
O O7 0.743460 0.353810 0.347003
O O8 0.500000 0.250000 0.078154
O O9 0.622349 0.166619 0.993657
O O10 0.484127 0.023506 0.301680
O O11 0.610777 0.685152 0.652586
#
# Coordination Sequence:
#
# PCOD9546269 Si02
#       5
#    16  16  16  16  16
#     4   9  17  32  54  79 111 144 190 250 308 356
#     4  11  21  33  55  85 115 156 216 255 305 379
#     4   8  16  31  56  81 103 140 193 246 299 373
#     4  10  19  34  58  82 117 154 211 256 307 376
#     4  11  21  35  56  80 120 172 204 253 324 390
#
# _framework density 24.897613
#
# number of rings (size 3 to 8) (size 9 to 14) (size 15 to 20)
#    0.000    2.200    4.000    0.000    0.000    0.800 
#    0.000    0.000   22.000    0.000    0.000    0.000 
#    0.000    0.000    0.000    0.000    0.000    0.000 
#
# Total GULP energy -222699.780791 kJ/mol
# GULP energy per Si atom -5567.494520 kJ/mol
# Density = 2.484094 g / cm^3
# Si number density = 24.897613 Si / 1000 Ang^3
#
#
#
# Elastic Constant Matrix: (Units=GPa)
#
#
# Indices 1 2 3 4 5 6 
#
# 1 172.2238 70.3325 23.1317 0.0000 0.0000 15.6136
# 2 70.3325 172.2238 23.1317 0.0000 0.0000 -15.6136
# 3 23.1317 23.1317 35.8967 0.0000 0.0000 0.0000
# 4 0.0000 0.0000 0.0000 18.6370 0.0000 0.0000
# 5 0.0000 0.0000 0.0000 0.0000 18.6370 0.0000
# 6 15.6136 -15.6136 0.0000 0.0000 0.0000 64.9041
#
#
#
# Elastic Compliance Matrix: (Units=1/GPa)
#
#
# Indices 1 2 3 4 5 6 
#
# 1 0.007648 -0.002948 -0.003029 0.000000 0.000000 -0.002549
# 2 -0.002948 0.007648 -0.003029 0.000000 0.000000 0.002549
# 3 -0.003029 -0.003029 0.031761 0.000000 0.000000 0.000000
# 4 0.000000 0.000000 0.000000 0.053657 0.000000 0.000000
# 5 0.000000 0.000000 0.000000 0.000000 0.053657 0.000000
# 6 -0.002549 0.002549 0.000000 0.000000 0.000000 0.016634
#
#
# Mechanical properties :
#
#
# Convention : Reuss Voigt Hill
#
# Bulk Modulus (GPa) = 34.42753 68.17068 51.29911
# Shear Modulus (GPa) = 25.16382 38.01883 31.59133
#
# Velocity S-wave (km/s) = 3.18259 3.91193 3.56596
# Velocity P-wave (km/s) = 5.23095 6.91695 6.13217
#
# Compressibility (1/GPa) = 0.02904652
#
# Stress axis : x y z
#
# Youngs Moduli (GPa) = 130.75281 130.75281 31.48468
#
# Poissons Ratio (x) = 0.38540 0.09537
# Poissons Ratio (y) = 0.38540 0.09537
# Poissons Ratio (z) = 0.39605 0.39605
#
# Static dielectric constant tensor:
#      x y z
#    x 2.099680 0.000000 0.000000 
#    y 0.000000 2.099680 0.000000 
#    z 0.000000 0.000000 1.995760 
# 
# From -- ./inp_files/6289.got.cif
#   From: 2010.05.17/outbox.cif.g08.bks.cpg/sg88_4_cif.got.tgz:6289.got - 2010.06.03 19:11:41.
