data_PCOD9546440
_publ_section_title
;
Structure prediction by ZEFSAII (Michael W. Deem and Ramdas Pophale) SiO2 
 PCOD9546440
Probable space group: I 41/A
;
_chemical_formula_sum "Si O2"
_cell_formula_units_Z 120
_cell_length_a 20.205933
_cell_length_b 20.205933
_cell_length_c 15.419703
_cell_angle_alpha 90.000000
_cell_angle_beta 90.000000
_cell_angle_gamma 90.000000
_cell_volume 6295.552153
_symmetry_space_group_name_H-M "I 41/A"
_symmetry_group_IT_number 88
_space_group.IT_coordinate_system_code '2'
_symmetry_cell_setting 'tetragonal'
loop_
_space_group_symop_operation_xyz
x,y,z
3/4-y,1/4+x,1/4+z
-x,1/2-y,z
1/4+y,1/4-x,1/4+z
-x,-y,-z
1/4+y,3/4-x,3/4-z
x,1/2+y,-z
3/4-y,3/4+x,3/4-z
1/2+x,1/2+y,1/2+z
1/4-y,3/4+x,3/4+z
1/2-x,-y,1/2+z
3/4+y,3/4-x,3/4+z
1/2-x,1/2-y,1/2-z
3/4+y,1/4-x,1/4-z
1/2+x,y,1/2-z
1/4-y,1/4+x,1/4-z
loop_
_atom_site_type_symbol
_atom_site_label
_atom_site_fract_x
_atom_site_fract_y
_atom_site_fract_z
Si Si1 0.905263 0.740138 0.421864
Si Si2 0.116061 0.183264 0.919998
Si Si3 0.754150 0.234922 0.540879
Si Si4 0.416489 0.194276 0.356376
Si Si5 0.201444 0.360774 0.037736
Si Si6 0.100994 0.961599 0.051667
Si Si7 0.500000 0.750000 0.921026
Si Si8 0.301030 0.702691 0.855467
O O1 0.927926 0.801669 0.361968
O O2 0.827637 0.727700 0.421613
O O3 0.936392 0.756619 0.515890
O O4 0.192476 0.201846 0.910411
O O5 0.092306 0.114926 0.877505
O O6 0.065815 0.239022 0.885103
O O7 0.099338 0.172201 0.021171
O O8 0.737927 0.312553 0.529102
O O9 0.758257 0.206133 0.442792
O O10 0.425148 0.271178 0.333971
O O11 0.350013 0.183964 0.407798
O O12 0.252419 0.381526 0.113417
O O13 0.155620 0.413938 0.990125
O O14 0.029455 0.931801 0.081707
O O15 0.078721 0.012278 0.975682
#
# Coordination Sequence:
#
# PCOD9546440 Si02
#       8
#    16  16  16  16  16  16   8  16
#     4   9  21  46  72  86 116 160 201 260 323 367
#     4  12  21  33  61  95 121 160 201 260 292 364
#     4  11  23  38  62  94 121 152 203 254 310 364
#     4  11  20  32  50  87 127 156 197 243 295 350
#     4  11  22  36  56  83 122 165 204 249 300 369
#     4  10  22  37  55  80 122 173 207 238 304 366
#     4  10  21  38  65  96 118 154 212 254 307 356
#     4  10  21  37  57  83 127 165 201 246 298 375
#
# _framework density 19.061077999999998
#
# number of rings (size 3 to 8) (size 9 to 14) (size 15 to 20)
#    0.000    1.600    4.000    2.400    3.733    0.000 
#    0.000    4.000    0.000    0.000    0.000    0.000 
#    0.000    0.000    0.000    0.000    0.000    0.000 
#
# Total GULP energy -334770.213397 kJ/mol
# GULP energy per Si atom -5579.503557 kJ/mol
# Density = 1.901769 g / cm^3
# Si number density = 19.061078 Si / 1000 Ang^3
#
#
#
# Elastic Constant Matrix: (Units=GPa)
#
#
# Indices 1 2 3 4 5 6 
#
# 1 115.2436 41.5753 33.9092 0.0000 0.0000 5.0734
# 2 41.5753 115.2436 33.9092 0.0000 0.0000 -5.0734
# 3 33.9092 33.9092 34.3584 0.0000 0.0000 0.0000
# 4 0.0000 0.0000 0.0000 25.3784 0.0000 0.0000
# 5 0.0000 0.0000 0.0000 0.0000 25.3784 0.0000
# 6 5.0734 -5.0734 0.0000 0.0000 0.0000 29.4475
#
#
#
# Elastic Compliance Matrix: (Units=1/GPa)
#
#
# Indices 1 2 3 4 5 6 
#
# 1 0.012515 -0.001390 -0.010980 0.000000 0.000000 -0.002396
# 2 -0.001390 0.012515 -0.010980 0.000000 0.000000 0.002396
# 3 -0.010980 -0.010980 0.050777 0.000000 0.000000 0.000000
# 4 0.000000 0.000000 0.000000 0.039404 0.000000 0.000000
# 5 0.000000 0.000000 0.000000 0.000000 0.039404 0.000000
# 6 -0.002396 0.002396 0.000000 0.000000 0.000000 0.034784
#
#
# Mechanical properties :
#
#
# Convention : Reuss Voigt Hill
#
# Bulk Modulus (GPa) = 34.35388 53.73699 44.04544
# Shear Modulus (GPa) = 20.34186 26.40432 23.37309
#
# Velocity S-wave (km/s) = 3.27034 3.72593 3.50554
# Velocity P-wave (km/s) = 5.68527 6.83837 6.28831
#
# Compressibility (1/GPa) = 0.02910879
#
# Stress axis : x y z
#
# Youngs Moduli (GPa) = 79.90609 79.90609 19.69390
#
# Poissons Ratio (x) = 0.11104 0.21623
# Poissons Ratio (y) = 0.11104 0.21623
# Poissons Ratio (z) = 0.87734 0.87734
#
# Static dielectric constant tensor:
#      x y z
#    x 1.688170 0.000000 0.000000 
#    y 0.000000 1.688170 0.000000 
#    z 0.000000 0.000000 1.697670 
# 
# From -- ./inp_files/3380.got.cif
#   From: 2010.05.17/outbox.cif.g08.bks.cpg/sg88_2_cif.got.tgz:3380.got - 2010.06.03 19:11:41.
