data_PCOD9546639
_publ_section_title
;
Structure prediction by ZEFSAII (Michael W. Deem and Ramdas Pophale) SiO2 
 PCOD9546639
Probable space group: I 41/A
;
_chemical_formula_sum "Si O2"
_cell_formula_units_Z 64
_cell_length_a 20.340624
_cell_length_b 20.340624
_cell_length_c 6.623849
_cell_angle_alpha 90.000000
_cell_angle_beta 90.000000
_cell_angle_gamma 90.000000
_cell_volume 2740.557808
_symmetry_space_group_name_H-M "I 41/A"
_symmetry_group_IT_number 88
_space_group.IT_coordinate_system_code '2'
_symmetry_cell_setting 'tetragonal'
loop_
_space_group_symop_operation_xyz
x,y,z
3/4-y,1/4+x,1/4+z
-x,1/2-y,z
1/4+y,1/4-x,1/4+z
-x,-y,-z
1/4+y,3/4-x,3/4-z
x,1/2+y,-z
3/4-y,3/4+x,3/4-z
1/2+x,1/2+y,1/2+z
1/4-y,3/4+x,3/4+z
1/2-x,-y,1/2+z
3/4+y,3/4-x,3/4+z
1/2-x,1/2-y,1/2-z
3/4+y,1/4-x,1/4-z
1/2+x,y,1/2-z
1/4-y,1/4+x,1/4-z
loop_
_atom_site_type_symbol
_atom_site_label
_atom_site_fract_x
_atom_site_fract_y
_atom_site_fract_z
Si Si1 0.149182 0.683672 0.623411
Si Si2 0.157631 0.293894 0.645132
Si Si3 0.662558 0.970867 0.159055
Si Si4 0.190317 0.671297 0.077589
O O1 0.133501 0.758262 0.560135
O O2 0.095686 0.638036 0.511038
O O3 0.218265 0.658140 0.520873
O O4 0.159333 0.671590 0.857839
O O5 0.161782 0.232612 0.799565
O O6 0.230771 0.318880 0.591423
O O7 0.646663 0.930755 0.951911
O O8 0.692188 0.037880 0.074509
#
# Coordination Sequence:
#
# PCOD9546639 Si02
#       4
#    16  16  16  16
#     4  11  24  44  72  98 140 185 232 294 350 415
#     4  10  23  45  67 105 134 185 241 283 348 425
#     4  11  25  39  62 104 137 170 227 282 346 424
#     4  10  23  44  68  97 142 188 228 287 355 422
#
# _framework density 23.352912
#
# number of rings (size 3 to 8) (size 9 to 14) (size 15 to 20)
#    0.000    1.500    2.500    0.750    3.500    4.500 
#    0.000    0.000    0.000    0.000    0.000    0.000 
#    0.000    0.000    0.000    0.000    0.000    0.000 
#
# Total GULP energy -178452.736476 kJ/mol
# GULP energy per Si atom -5576.648015 kJ/mol
# Density = 2.329976 g / cm^3
# Si number density = 23.352912 Si / 1000 Ang^3
#
#
#
# Elastic Constant Matrix: (Units=GPa)
#
#
# Indices 1 2 3 4 5 6 
#
# 1 63.9581 20.2097 13.6144 0.0000 0.0000 2.0437
# 2 20.2097 63.9581 13.6144 0.0000 0.0000 -2.0437
# 3 13.6144 13.6144 111.0996 0.0000 0.0000 0.0000
# 4 0.0000 0.0000 0.0000 35.6261 0.0000 0.0000
# 5 0.0000 0.0000 0.0000 0.0000 35.6261 0.0000
# 6 2.0437 -2.0437 0.0000 0.0000 0.0000 32.9671
#
#
#
# Elastic Compliance Matrix: (Units=1/GPa)
#
#
# Indices 1 2 3 4 5 6 
#
# 1 0.017681 -0.005310 -0.001516 0.000000 0.000000 -0.001425
# 2 -0.005310 0.017681 -0.001516 0.000000 0.000000 0.001425
# 3 -0.001516 -0.001516 0.009372 0.000000 0.000000 0.000000
# 4 0.000000 0.000000 0.000000 0.028069 0.000000 0.000000
# 5 0.000000 0.000000 0.000000 0.000000 0.028069 0.000000
# 6 -0.001425 0.001425 0.000000 0.000000 0.000000 0.030510
#
#
# Mechanical properties :
#
#
# Convention : Reuss Voigt Hill
#
# Bulk Modulus (GPa) = 35.64894 37.09919 36.37407
# Shear Modulus (GPa) = 31.76259 33.61569 32.68914
#
# Velocity S-wave (km/s) = 3.69197 3.79814 3.74543
# Velocity P-wave (km/s) = 5.78556 5.92919 5.85781
#
# Compressibility (1/GPa) = 0.02805132
#
# Stress axis : x y z
#
# Youngs Moduli (GPa) = 56.55689 56.55689 106.69522
#
# Poissons Ratio (x) = 0.30031 0.16175
# Poissons Ratio (y) = 0.30031 0.16175
# Poissons Ratio (z) = 0.08574 0.08574
#
# Static dielectric constant tensor:
#      x y z
#    x 2.002760 0.000000 0.000000 
#    y 0.000000 2.002760 0.000000 
#    z 0.000000 0.000000 1.918150 
# 
# From -- ./inp_files/578.got.cif
#   From: 2010.05.17/outbox.cif.g08.bks.cpg/sg88_1_cif.got.tgz:578.got - 2010.06.03 19:11:41.
