data_PCOD9546331
_publ_section_title
;
Structure prediction by ZEFSAII (Michael W. Deem and Ramdas Pophale) SiO2 
 PCOD9546331
Probable space group: I 41/A
;
_chemical_formula_sum "Si O2"
_cell_formula_units_Z 64
_cell_length_a 16.211529
_cell_length_b 16.211529
_cell_length_c 11.019804
_cell_angle_alpha 90.000000
_cell_angle_beta 90.000000
_cell_angle_gamma 90.000000
_cell_volume 2896.155160
_symmetry_space_group_name_H-M "I 41/A"
_symmetry_group_IT_number 88
_space_group.IT_coordinate_system_code '2'
_symmetry_cell_setting 'tetragonal'
loop_
_space_group_symop_operation_xyz
x,y,z
3/4-y,1/4+x,1/4+z
-x,1/2-y,z
1/4+y,1/4-x,1/4+z
-x,-y,-z
1/4+y,3/4-x,3/4-z
x,1/2+y,-z
3/4-y,3/4+x,3/4-z
1/2+x,1/2+y,1/2+z
1/4-y,3/4+x,3/4+z
1/2-x,-y,1/2+z
3/4+y,3/4-x,3/4+z
1/2-x,1/2-y,1/2-z
3/4+y,1/4-x,1/4-z
1/2+x,y,1/2-z
1/4-y,1/4+x,1/4-z
loop_
_atom_site_type_symbol
_atom_site_label
_atom_site_fract_x
_atom_site_fract_y
_atom_site_fract_z
Si Si1 0.111380 0.832372 0.880983
Si Si2 0.864704 0.590818 0.633029
Si Si3 0.855220 0.408049 0.626320
Si Si4 0.311635 0.189026 0.629969
O O1 0.110607 0.733536 0.868285
O O2 0.154630 0.869554 0.762189
O O3 0.148935 0.852197 0.011350
O O4 0.821868 0.502012 0.617352
O O5 0.846201 0.643684 0.512101
O O6 0.962908 0.571716 0.631829
O O7 0.910685 0.398196 0.507182
O O8 0.091454 0.467480 0.621229
#
# Coordination Sequence:
#
# PCOD9546331 Si02
#       4
#    16  16  16  16
#     4   9  20  39  60  83 112 145 184 230 276 326
#     4  10  22  38  57  84 113 144 187 230 272 330
#     4  10  20  35  56  80 114 147 178 226 276 322
#     4  10  22  38  57  84 113 144 187 230 272 330
#
# _framework density 22.098261999999998
#
# number of rings (size 3 to 8) (size 9 to 14) (size 15 to 20)
#    0.000    2.250    0.000    3.000    0.000   14.000 
#    0.000    5.000    0.000    6.750    0.000    0.000 
#    0.000    0.000    0.000    0.000    0.000    0.000 
#
# Total GULP energy -178607.071647 kJ/mol
# GULP energy per Si atom -5581.470989 kJ/mol
# Density = 2.204797 g / cm^3
# Si number density = 22.098262 Si / 1000 Ang^3
#
#
#
# Elastic Constant Matrix: (Units=GPa)
#
#
# Indices 1 2 3 4 5 6 
#
# 1 -13.7658 45.4154 35.3285 0.0000 0.0000 -2.0404
# 2 45.4154 -13.7658 35.3285 0.0000 0.0000 2.0404
# 3 35.3285 35.3285 228.5466 0.0000 0.0000 0.0000
# 4 0.0000 0.0000 0.0000 38.1541 0.0000 0.0000
# 5 0.0000 0.0000 0.0000 0.0000 38.1541 0.0000
# 6 -2.0404 2.0404 0.0000 0.0000 0.0000 17.4991
#
#
#
# Elastic Compliance Matrix: (Units=1/GPa)
#
#
# Indices 1 2 3 4 5 6 
#
# 1 0.015741 0.032504 -0.007458 0.000000 0.000000 -0.001955
# 2 0.032504 0.015741 -0.007458 0.000000 0.000000 0.001955
# 3 -0.007458 -0.007458 0.006681 0.000000 0.000000 0.000000
# 4 0.000000 0.000000 0.000000 0.026210 0.000000 0.000000
# 5 0.000000 0.000000 0.000000 0.000000 0.026210 0.000000
# 6 -0.001955 0.001955 0.000000 0.000000 0.000000 0.056690
#
#
# Mechanical properties :
#
#
# Convention : Reuss Voigt Hill
#
# Bulk Modulus (GPa) = 13.63502 48.12886 30.88194
# Shear Modulus (GPa) = 36.61855 24.42428 30.52142
#
# Velocity S-wave (km/s) = 4.07514 3.32815 3.72044
# Velocity P-wave (km/s) = 5.32221 6.04942 5.69743
#
# Compressibility (1/GPa) = 0.07334056
#
# Stress axis : x y z
#
# Youngs Moduli (GPa) = 63.52712 63.52712 149.67649
#
# Poissons Ratio (x) = -2.06487 1.11624
# Poissons Ratio (y) = -2.06487 1.11624
# Poissons Ratio (z) = 0.47376 0.47376
#
# Static dielectric constant tensor:
#      x y z
#    x 1.817510 0.000000 0.000000 
#    y 0.000000 1.817510 0.000000 
#    z 0.000000 0.000000 1.879890 
# 
# From -- ./inp_files/1471.got.cif
#   From: 2010.05.17/outbox.cif.g08.bks.cpg/sg88_1_cif.got.tgz:1471.got - 2010.06.03 19:11:41.
