data_PCOD9546642
_publ_section_title
;
Structure prediction by ZEFSAII (Michael W. Deem and Ramdas Pophale) SiO2 
 PCOD9546642
Probable space group: I 41/A
;
_chemical_formula_sum "Si O2"
_cell_formula_units_Z 52
_cell_length_a 16.273636
_cell_length_b 16.273636
_cell_length_c 6.712960
_cell_angle_alpha 90.000000
_cell_angle_beta 90.000000
_cell_angle_gamma 90.000000
_cell_volume 1777.801445
_symmetry_space_group_name_H-M "I 41/A"
_symmetry_group_IT_number 88
_space_group.IT_coordinate_system_code '2'
_symmetry_cell_setting 'tetragonal'
loop_
_space_group_symop_operation_xyz
x,y,z
3/4-y,1/4+x,1/4+z
-x,1/2-y,z
1/4+y,1/4-x,1/4+z
-x,-y,-z
1/4+y,3/4-x,3/4-z
x,1/2+y,-z
3/4-y,3/4+x,3/4-z
1/2+x,1/2+y,1/2+z
1/4-y,3/4+x,3/4+z
1/2-x,-y,1/2+z
3/4+y,3/4-x,3/4+z
1/2-x,1/2-y,1/2-z
3/4+y,1/4-x,1/4-z
1/2+x,y,1/2-z
1/4-y,1/4+x,1/4-z
loop_
_atom_site_type_symbol
_atom_site_label
_atom_site_fract_x
_atom_site_fract_y
_atom_site_fract_z
Si Si1 0.214886 0.285266 0.043128
Si Si2 0.891769 0.786996 0.491653
Si Si3 0.689652 0.601175 0.505594
Si Si4 0.000000 0.250000 0.125000
O O1 0.250000 0.250000 0.250000
O O2 0.314888 0.301516 0.549008
O O3 0.300903 0.318263 0.962992
O O4 0.162605 0.367226 0.078495
O O5 0.900620 0.705439 0.356660
O O6 0.926330 0.760445 0.711994
O O7 0.668747 0.529727 0.346199
#
# Coordination Sequence:
#
# PCOD9546642 Si02
#       4
#    16  16  16   4
#     4  10  23  44  71  99 149 190 248 303 384 454
#     4   9  20  39  71 113 144 188 256 306 384 463
#     4  10  24  46  72 106 143 190 251 304 384 458
#     4   8  18  40  72 102 148 196 230 312 376 454
#
# _framework density 29.249611999999999
#
# number of rings (size 3 to 8) (size 9 to 14) (size 15 to 20)
#    0.000    2.769    0.000    0.000    4.308   10.462 
#    0.000   26.154    0.000    0.000    0.000    0.000 
#    0.000    0.000    0.000    0.000    0.000    0.000 
#
# Total GULP energy -145440.055084 kJ/mol
# GULP energy per Si atom -5593.848272 kJ/mol
# Density = 2.918304 g / cm^3
# Si number density = 29.249612 Si / 1000 Ang^3
#
#
#
# Elastic Constant Matrix: (Units=GPa)
#
#
# Indices 1 2 3 4 5 6 
#
# 1 214.7545 58.3805 37.9943 0.0000 0.0000 4.9383
# 2 58.3805 214.7545 37.9943 0.0000 0.0000 -4.9383
# 3 37.9943 37.9943 164.8193 0.0000 0.0000 0.0000
# 4 0.0000 0.0000 0.0000 26.5047 0.0000 0.0000
# 5 0.0000 0.0000 0.0000 0.0000 26.5047 0.0000
# 6 4.9383 -4.9383 0.0000 0.0000 0.0000 48.9238
#
#
#
# Elastic Compliance Matrix: (Units=1/GPa)
#
#
# Indices 1 2 3 4 5 6 
#
# 1 0.005174 -0.001262 -0.000902 0.000000 0.000000 -0.000650
# 2 -0.001262 0.005174 -0.000902 0.000000 0.000000 0.000650
# 3 -0.000902 -0.000902 0.006483 0.000000 0.000000 0.000000
# 4 0.000000 0.000000 0.000000 0.037729 0.000000 0.000000
# 5 0.000000 0.000000 0.000000 0.000000 0.037729 0.000000
# 6 -0.000650 0.000650 0.000000 0.000000 0.000000 0.020571
#
#
# Mechanical properties :
#
#
# Convention : Reuss Voigt Hill
#
# Bulk Modulus (GPa) = 93.45856 95.89628 94.67742
# Shear Modulus (GPa) = 40.79692 51.05060 45.92376
#
# Velocity S-wave (km/s) = 3.73873 4.18226 3.96670
# Velocity P-wave (km/s) = 7.11751 7.49523 7.30881
#
# Compressibility (1/GPa) = 0.01069993
#
# Stress axis : x y z
#
# Youngs Moduli (GPa) = 193.27329 193.27329 154.24892
#
# Poissons Ratio (x) = 0.24390 0.13910
# Poissons Ratio (y) = 0.24390 0.13910
# Poissons Ratio (z) = 0.17430 0.17430
#
# Static dielectric constant tensor:
#      x y z
#    x 2.388900 0.000000 0.000000 
#    y 0.000000 2.388900 0.000000 
#    z 0.000000 0.000000 2.594060 
# 
# From -- ./inp_files/493.got.cif
#   From: 2010.05.17/outbox.cif.g08.bks.cpg/sg88_1_cif.got.tgz:493.got - 2010.06.03 19:11:41.
