data_PCOD9546952
_publ_section_title
;
Structure prediction by ZEFSAII (Michael W. Deem and Ramdas Pophale) SiO2 
 PCOD9546952
Probable space group: P 4 2 2
;
_chemical_formula_sum "Si O2"
_cell_formula_units_Z 60
_cell_length_a 12.211394
_cell_length_b 12.211394
_cell_length_c 21.184890
_cell_angle_alpha 90.000000
_cell_angle_beta 90.000000
_cell_angle_gamma 90.000000
_cell_volume 3159.051465
_symmetry_space_group_name_H-M "P 4 2 2"
_symmetry_group_IT_number 89
_symmetry_cell_setting 'tetragonal'
loop_
_space_group_symop_operation_xyz
x,y,z
-y,x,z
-x,-y,z
y,-x,z
x,-y,-z
-x,y,-z
y,x,-z
-y,-x,-z
loop_
_atom_site_type_symbol
_atom_site_label
_atom_site_fract_x
_atom_site_fract_y
_atom_site_fract_z
Si Si1 0.679804 0.519237 0.590194
Si Si2 0.094779 0.379530 0.553180
Si Si3 0.737864 0.313858 0.198560
Si Si4 0.845204 0.094276 0.745056
Si Si5 0.000000 0.500000 0.333149
Si Si6 0.770053 0.529406 0.272204
Si Si7 0.630847 0.368952 0.928500
Si Si8 0.845939 0.905548 0.404906
O O1 0.594142 0.616761 0.574897
O O2 0.798109 0.543038 0.559128
O O3 0.704372 0.508964 0.665220
O O4 0.032096 0.402736 0.619084
O O5 0.138153 0.256158 0.556543
O O6 0.000000 0.390198 0.500000
O O7 0.846327 0.246184 0.214297
O O8 0.753844 0.439092 0.218691
O O9 0.644756 0.268011 0.245488
O O10 0.695804 0.309534 0.127076
O O11 0.825877 0.109597 0.669949
O O12 0.964990 0.145404 0.757271
O O13 0.103835 0.467520 0.292536
O O14 0.648266 0.499672 0.922048
O O15 0.662286 0.337715 0.000000
O O16 0.964531 0.855620 0.418534
#
# Coordination Sequence:
#
# PCOD9546952 Si02
#       8
#     8   8   8   8   4   8   8   8
#     4  10  21  40  65  94 124 161 198 244 313 379
#     4  11  24  42  64  87 118 158 205 255 306 372
#     4  12  21  33  59  96 126 165 202 257 299 367
#     4   9  20  37  59  88 123 161 205 253 316 378
#     4  10  25  42  56  86 119 152 192 256 312 364
#     4  11  23  34  60  93 130 156 200 250 310 369
#     4   9  18  34  54  82 127 176 213 247 292 354
#     4   9  20  38  61  87 115 149 195 254 314 367
#
# _framework density 18.993044999999999
#
# number of rings (size 3 to 8) (size 9 to 14) (size 15 to 20)
#    0.000    1.867    2.667    3.000    5.600    1.867 
#    0.000    2.000    0.000    1.600    0.000   18.667 
#    0.000    0.000    0.000    0.000    0.000    0.000 
#
# Total GULP energy -335193.276590 kJ/mol
# GULP energy per Si atom -5586.554610 kJ/mol
# Density = 1.894982 g / cm^3
# Si number density = 18.993045 Si / 1000 Ang^3
#
#
#
# Elastic Constant Matrix: (Units=GPa)
#
#
# Indices 1 2 3 4 5 6 
#
# 1 67.5860 17.8989 25.3943 0.0000 0.0000 0.0000
# 2 17.8989 67.5861 25.3943 0.0000 0.0000 0.0000
# 3 25.3943 25.3943 92.9183 0.0000 0.0000 0.0000
# 4 0.0000 0.0000 0.0000 24.4206 0.0000 0.0000
# 5 0.0000 0.0000 0.0000 0.0000 24.4205 0.0000
# 6 0.0000 0.0000 0.0000 0.0000 0.0000 24.7532
#
#
#
# Elastic Compliance Matrix: (Units=1/GPa)
#
#
# Indices 1 2 3 4 5 6 
#
# 1 0.017046 -0.003080 -0.003817 0.000000 0.000000 0.000000
# 2 -0.003080 0.017046 -0.003817 0.000000 0.000000 0.000000
# 3 -0.003817 -0.003817 0.012848 0.000000 0.000000 0.000000
# 4 0.000000 0.000000 0.000000 0.040949 0.000000 0.000000
# 5 0.000000 0.000000 0.000000 0.000000 0.040949 0.000000
# 6 0.000000 0.000000 0.000000 0.000000 0.000000 0.040399
#
#
# Mechanical properties :
#
#
# Convention : Reuss Voigt Hill
#
# Bulk Modulus (GPa) = 39.19646 40.60726 39.90186
# Shear Modulus (GPa) = 25.10439 25.34573 25.22506
#
# Velocity S-wave (km/s) = 3.63956 3.65701 3.64829
# Velocity P-wave (km/s) = 6.19224 6.26563 6.22905
#
# Compressibility (1/GPa) = 0.02551251
#
# Stress axis : x y z
#
# Youngs Moduli (GPa) = 58.66559 58.66569 77.83098
#
# Poissons Ratio (x) = 0.18070 0.29706
# Poissons Ratio (y) = 0.18070 0.29706
# Poissons Ratio (z) = 0.22391 0.22391
#
# Static dielectric constant tensor:
#      x y z
#    x 1.693080 0.000000 0.000000 
#    y 0.000000 1.693080 0.000000 
#    z 0.000000 0.000000 1.648170 
# 
# From -- ./inp_files/2661.got.cif
#   From: 2010.05.17/outbox.cif.g08.bks.cpg/sg89_2_cif.got.tgz:2661.got - 2010.06.03 19:15:31.
