data_PCOD9546488
_publ_section_title
;
Structure prediction by ZEFSAII (Michael W. Deem and Ramdas Pophale) SiO2 
 PCOD9546488
Probable space group: I 41/A
;
_chemical_formula_sum "Si O2"
_cell_formula_units_Z 108
_cell_length_a 14.896948
_cell_length_b 14.896948
_cell_length_c 23.828729
_cell_angle_alpha 90.000000
_cell_angle_beta 90.000000
_cell_angle_gamma 90.000000
_cell_volume 5288.049134
_symmetry_space_group_name_H-M "I 41/A"
_symmetry_group_IT_number 88
_space_group.IT_coordinate_system_code '2'
_symmetry_cell_setting 'tetragonal'
loop_
_space_group_symop_operation_xyz
x,y,z
3/4-y,1/4+x,1/4+z
-x,1/2-y,z
1/4+y,1/4-x,1/4+z
-x,-y,-z
1/4+y,3/4-x,3/4-z
x,1/2+y,-z
3/4-y,3/4+x,3/4-z
1/2+x,1/2+y,1/2+z
1/4-y,3/4+x,3/4+z
1/2-x,-y,1/2+z
3/4+y,3/4-x,3/4+z
1/2-x,1/2-y,1/2-z
3/4+y,1/4-x,1/4-z
1/2+x,y,1/2-z
1/4-y,1/4+x,1/4-z
loop_
_atom_site_type_symbol
_atom_site_label
_atom_site_fract_x
_atom_site_fract_y
_atom_site_fract_z
Si Si1 0.887095 0.560252 0.621225
Si Si2 0.454390 0.344198 0.053375
Si Si3 0.862546 0.378004 0.558673
Si Si4 0.992630 0.462748 0.848229
Si Si5 0.000000 0.750000 0.375000
Si Si6 0.473314 0.374428 0.407462
Si Si7 0.503814 0.049912 0.224034
Si Si8 0.000000 0.750000 0.742002
O O1 0.853672 0.469715 0.592451
O O2 0.819103 0.643220 0.614990
O O3 0.975502 0.596312 0.587787
O O4 0.916355 0.538167 0.684845
O O5 0.500000 0.250000 0.033404
O O6 0.372478 0.305763 0.089374
O O7 0.411845 0.394993 0.000676
O O8 0.927632 0.307826 0.590310
O O9 0.767761 0.329666 0.548154
O O10 0.034573 0.522057 0.897419
O O11 0.990528 0.519463 0.789278
O O12 0.569668 0.345906 0.381217
O O13 0.471502 0.333488 0.468657
O O14 0.526021 0.155424 0.215072
#
# Coordination Sequence:
#
# PCOD9546488 Si02
#       8
#    16  16  16  16   4  16  16   8
#     4  11  24  41  60  94 131 166 215 274 321 381
#     4   9  20  38  64  88 123 170 209 262 331 386
#     4  11  22  41  64  91 125 168 220 269 323 393
#     4  10  21  41  63  94 130 168 213 265 325 385
#     4  12  20  40  70  88 118 172 224 256 336 386
#     4   9  16  37  64  89 119 167 201 246 312 380
#     4  11  23  42  65  96 127 170 216 267 325 394
#     4  10  21  40  73  92 129 172 220 259 326 398
#
# _framework density 20.423411000000002
#
# number of rings (size 3 to 8) (size 9 to 14) (size 15 to 20)
#    0.000    1.926    5.185    0.444    3.111    0.000 
#    8.000    0.741    0.000    0.000    0.000    0.000 
#    0.000    0.000    0.000    0.000    0.000    0.000 
#
# Total GULP energy -301269.636452 kJ/mol
# GULP energy per Si atom -5579.067342 kJ/mol
# Density = 2.037693 g / cm^3
# Si number density = 20.423411 Si / 1000 Ang^3
#
#
#
# Elastic Constant Matrix: (Units=GPa)
#
#
# Indices 1 2 3 4 5 6 
#
# 1 77.2180 6.5107 9.8036 0.0000 0.0000 -2.4071
# 2 6.5107 77.2180 9.8036 0.0000 0.0000 2.4071
# 3 9.8036 9.8036 50.4227 0.0000 0.0000 0.0000
# 4 0.0000 0.0000 0.0000 8.8697 0.0000 0.0000
# 5 0.0000 0.0000 0.0000 0.0000 8.8697 0.0000
# 6 -2.4071 2.4071 0.0000 0.0000 0.0000 -5.9962
#
#
#
# Elastic Compliance Matrix: (Units=1/GPa)
#
#
# Indices 1 2 3 4 5 6 
#
# 1 0.013140 -0.000627 -0.002433 0.000000 0.000000 -0.005526
# 2 -0.000627 0.013140 -0.002433 0.000000 0.000000 0.005526
# 3 -0.002433 -0.002433 0.020778 0.000000 0.000000 0.000000
# 4 0.000000 0.000000 0.000000 0.112744 0.000000 0.000000
# 5 0.000000 0.000000 0.000000 0.000000 0.112744 0.000000
# 6 -0.005526 0.005526 0.000000 0.000000 0.000000 -0.162335
#
#
# Mechanical properties :
#
#
# Convention : Reuss Voigt Hill
#
# Bulk Modulus (GPa) = 27.72163 28.56607 28.14385
# Shear Modulus (GPa) = 37.53204 14.26468 25.89836
#
# Velocity S-wave (km/s) = 4.29149 2.64568 3.56486
# Velocity P-wave (km/s) = 6.17728 4.83220 5.54567
#
# Compressibility (1/GPa) = 0.03607292
#
# Stress axis : x y z
#
# Youngs Moduli (GPa) = 76.10465 76.10465 48.12694
#
# Poissons Ratio (x) = 0.04770 0.11709
# Poissons Ratio (y) = 0.04770 0.11709
# Poissons Ratio (z) = 0.18515 0.18515
#
# Static dielectric constant tensor:
#      x y z
#    x 1.730660 0.000000 0.000000 
#    y 0.000000 1.730660 0.000000 
#    z 0.000000 0.000000 1.771490 
# 
# From -- ./inp_files/5385.got.cif
#   From: 2010.05.17/outbox.cif.g08.bks.cpg/sg88_3_cif.got.tgz:5385.got - 2010.06.03 19:11:41.
