data_PCOD9546725
_publ_section_title
;
Structure prediction by ZEFSAII (Michael W. Deem and Ramdas Pophale) SiO2 
 PCOD9546725
Probable space group: I 41/A
;
_chemical_formula_sum "Si O2"
_cell_formula_units_Z 64
_cell_length_a 19.747441
_cell_length_b 19.747441
_cell_length_c 6.697855
_cell_angle_alpha 90.000000
_cell_angle_beta 90.000000
_cell_angle_gamma 90.000000
_cell_volume 2611.905087
_symmetry_space_group_name_H-M "I 41/A"
_symmetry_group_IT_number 88
_space_group.IT_coordinate_system_code '2'
_symmetry_cell_setting 'tetragonal'
loop_
_space_group_symop_operation_xyz
x,y,z
3/4-y,1/4+x,1/4+z
-x,1/2-y,z
1/4+y,1/4-x,1/4+z
-x,-y,-z
1/4+y,3/4-x,3/4-z
x,1/2+y,-z
3/4-y,3/4+x,3/4-z
1/2+x,1/2+y,1/2+z
1/4-y,3/4+x,3/4+z
1/2-x,-y,1/2+z
3/4+y,3/4-x,3/4+z
1/2-x,1/2-y,1/2-z
3/4+y,1/4-x,1/4-z
1/2+x,y,1/2-z
1/4-y,1/4+x,1/4-z
loop_
_atom_site_type_symbol
_atom_site_label
_atom_site_fract_x
_atom_site_fract_y
_atom_site_fract_z
Si Si1 0.100119 0.749820 0.785385
Si Si2 0.401381 0.886225 0.225483
Si Si3 0.710720 0.666038 0.542183
Si Si4 0.329561 0.551487 0.325125
O O1 0.065790 0.803991 0.934504
O O2 0.099331 0.783409 0.567179
O O3 0.174326 0.732243 0.867847
O O4 0.343198 0.868116 0.390676
O O5 0.362470 0.876651 0.018431
O O6 0.424370 0.964687 0.206473
O O7 0.723514 0.617077 0.729147
O O8 0.255641 0.571871 0.406355
#
# Coordination Sequence:
#
# PCOD9546725 Si02
#       4
#    16  16  16  16
#     4   9  21  42  65  83 116 174 221 260 317 372
#     4  11  21  38  63  96 131 166 213 263 329 401
#     4  11  21  38  63  96 131 166 213 263 329 401
#     4  12  22  36  60 101 138 166 203 264 340 406
#
# _framework density 24.503188999999999
#
# number of rings (size 3 to 8) (size 9 to 14) (size 15 to 20)
#    0.000    1.250    5.000    2.250    0.000    0.000 
#    0.000   13.750    0.000    3.000    0.000    0.000 
#    0.000    0.000    0.000    0.000    0.000    0.000 
#
# Total GULP energy -178764.930985 kJ/mol
# GULP energy per Si atom -5586.404093 kJ/mol
# Density = 2.444742 g / cm^3
# Si number density = 24.503189 Si / 1000 Ang^3
#
#
#
# Elastic Constant Matrix: (Units=GPa)
#
#
# Indices 1 2 3 4 5 6 
#
# 1 45.2045 13.4776 1.3636 0.0000 0.0000 -2.8416
# 2 13.4776 45.2045 1.3636 0.0000 0.0000 2.8416
# 3 1.3636 1.3636 48.8106 0.0000 0.0000 0.0000
# 4 0.0000 0.0000 0.0000 23.9707 0.0000 0.0000
# 5 0.0000 0.0000 0.0000 0.0000 23.9707 0.0000
# 6 -2.8416 2.8416 0.0000 0.0000 0.0000 28.4581
#
#
#
# Elastic Compliance Matrix: (Units=1/GPa)
#
#
# Indices 1 2 3 4 5 6 
#
# 1 0.024578 -0.007515 -0.000477 0.000000 0.000000 0.003205
# 2 -0.007515 0.024578 -0.000477 0.000000 0.000000 -0.003205
# 3 -0.000477 -0.000477 0.020514 0.000000 0.000000 0.000000
# 4 0.000000 0.000000 0.000000 0.041718 0.000000 0.000000
# 5 0.000000 0.000000 0.000000 0.000000 0.041718 0.000000
# 6 0.003205 -0.003205 0.000000 0.000000 0.000000 0.035779
#
#
# Mechanical properties :
#
#
# Convention : Reuss Voigt Hill
#
# Bulk Modulus (GPa) = 18.96329 19.06992 19.01660
# Shear Modulus (GPa) = 22.38149 23.48092 22.93120
#
# Velocity S-wave (km/s) = 3.02555 3.09897 3.06248
# Velocity P-wave (km/s) = 4.46779 4.53920 4.50364
#
# Compressibility (1/GPa) = 0.05273348
#
# Stress axis : x y z
#
# Youngs Moduli (GPa) = 40.68669 40.68669 48.74727
#
# Poissons Ratio (x) = 0.30576 0.02324
# Poissons Ratio (y) = 0.30576 0.02324
# Poissons Ratio (z) = 0.01939 0.01939
#
# Static dielectric constant tensor:
#      x y z
#    x 1.979920 0.000000 0.000000 
#    y 0.000000 1.979920 0.000000 
#    z 0.000000 0.000000 1.925530 
# 
# From -- ./inp_files/555.got.cif
#   From: 2010.05.17/outbox.cif.g08.bks.cpg/sg88_1_cif.got.tgz:555.got - 2010.06.03 19:11:41.
