data_PCOD9546448
_publ_section_title
;
Structure prediction by ZEFSAII (Michael W. Deem and Ramdas Pophale) SiO2 
 PCOD9546448
Probable space group: I 41/A
;
_chemical_formula_sum "Si O2"
_cell_formula_units_Z 72
_cell_length_a 12.148598
_cell_length_b 12.148598
_cell_length_c 24.480822
_cell_angle_alpha 90.000000
_cell_angle_beta 90.000000
_cell_angle_gamma 90.000000
_cell_volume 3613.086166
_symmetry_space_group_name_H-M "I 41/A"
_symmetry_group_IT_number 88
_space_group.IT_coordinate_system_code '2'
_symmetry_cell_setting 'tetragonal'
loop_
_space_group_symop_operation_xyz
x,y,z
3/4-y,1/4+x,1/4+z
-x,1/2-y,z
1/4+y,1/4-x,1/4+z
-x,-y,-z
1/4+y,3/4-x,3/4-z
x,1/2+y,-z
3/4-y,3/4+x,3/4-z
1/2+x,1/2+y,1/2+z
1/4-y,3/4+x,3/4+z
1/2-x,-y,1/2+z
3/4+y,3/4-x,3/4+z
1/2-x,1/2-y,1/2-z
3/4+y,1/4-x,1/4-z
1/2+x,y,1/2-z
1/4-y,1/4+x,1/4-z
loop_
_atom_site_type_symbol
_atom_site_label
_atom_site_fract_x
_atom_site_fract_y
_atom_site_fract_z
Si Si1 0.500000 0.750000 0.125000
Si Si2 0.831124 0.343709 0.322524
Si Si3 0.559473 0.541530 0.682635
Si Si4 0.500000 0.750000 0.625000
Si Si5 0.004182 0.529660 0.301858
Si Si6 0.204254 0.390822 0.279284
O O1 0.607912 0.739910 0.085684
O O2 0.789881 0.316572 0.382257
O O3 0.929558 0.430418 0.325249
O O4 0.852020 0.226560 0.292504
O O5 0.736101 0.397272 0.284458
O O6 0.485164 0.644168 0.663710
O O7 0.527540 0.476014 0.737407
O O8 0.677311 0.599158 0.692554
O O9 0.129487 0.488427 0.301468
#
# Coordination Sequence:
#
# PCOD9546448 Si02
#       6
#     4  16  16   4  16  16
#     4  12  28  56  60  82 132 196 260 288 294 380
#     4  10  21  39  64 104 133 160 210 269 342 414
#     4  11  22  38  65 102 131 170 207 266 346 411
#     4  12  20  36  68 106 152 152 188 276 360 430
#     4  11  25  44  69  86 130 184 229 278 329 382
#     4  10  21  37  64 100 136 163 206 264 345 411
#
# _framework density 19.927562000000002
#
# number of rings (size 3 to 8) (size 9 to 14) (size 15 to 20)
#    0.000    1.333    2.222    3.333    6.222    0.000 
#    4.000    5.556    0.000    0.000    0.000    0.000 
#    0.000    0.000    0.000    0.000    0.000    0.000 
#
# Total GULP energy -200872.676937 kJ/mol
# GULP energy per Si atom -5579.796582 kJ/mol
# Density = 1.988221 g / cm^3
# Si number density = 19.927562 Si / 1000 Ang^3
#
#
#
# Elastic Constant Matrix: (Units=GPa)
#
#
# Indices 1 2 3 4 5 6 
#
# 1 59.2288 46.6482 26.9330 0.0000 0.0000 -4.5531
# 2 46.6482 59.2288 26.9330 0.0000 0.0000 4.5531
# 3 26.9330 26.9330 115.5376 0.0000 0.0000 0.0000
# 4 0.0000 0.0000 0.0000 27.9325 0.0000 0.0000
# 5 0.0000 0.0000 0.0000 0.0000 27.9325 0.0000
# 6 -4.5531 4.5531 0.0000 0.0000 0.0000 24.7895
#
#
#
# Elastic Compliance Matrix: (Units=1/GPa)
#
#
# Indices 1 2 3 4 5 6 
#
# 1 0.051196 -0.040480 -0.002498 0.000000 0.000000 0.016838
# 2 -0.040480 0.051196 -0.002498 0.000000 0.000000 -0.016838
# 3 -0.002498 -0.002498 0.009820 0.000000 0.000000 0.000000
# 4 0.000000 0.000000 0.000000 0.035801 0.000000 0.000000
# 5 0.000000 0.000000 0.000000 0.000000 0.035801 0.000000
# 6 0.016838 -0.016838 0.000000 0.000000 0.000000 0.046525
#
#
# Mechanical properties :
#
#
# Convention : Reuss Voigt Hill
#
# Bulk Modulus (GPa) = 47.03774 48.33595 47.68684
# Shear Modulus (GPa) = 15.22650 25.02966 20.12808
#
# Velocity S-wave (km/s) = 2.76722 3.54790 3.18160
# Velocity P-wave (km/s) = 5.81942 6.41030 6.12199
#
# Compressibility (1/GPa) = 0.02125953
#
# Stress axis : x y z
#
# Youngs Moduli (GPa) = 19.53293 19.53293 101.83522
#
# Poissons Ratio (x) = 0.79069 0.25438
# Poissons Ratio (y) = 0.79069 0.25438
# Poissons Ratio (z) = 0.04879 0.04879
#
# Static dielectric constant tensor:
#      x y z
#    x 1.717300 0.000000 0.000000 
#    y 0.000000 1.717300 0.000000 
#    z 0.000000 0.000000 1.722460 
# 
# From -- ./inp_files/5758.got.cif
#   From: 2010.05.17/outbox.cif.g08.bks.cpg/sg88_3_cif.got.tgz:5758.got - 2010.06.03 19:11:41.
