data_PCOD9546973
_publ_section_title
;
Structure prediction by ZEFSAII (Michael W. Deem and Ramdas Pophale) SiO2 
 PCOD9546973
Probable space group: P 4 2 2
;
_chemical_formula_sum "Si O2"
_cell_formula_units_Z 48
_cell_length_a 8.417984
_cell_length_b 8.417984
_cell_length_c 33.106309
_cell_angle_alpha 90.000000
_cell_angle_beta 90.000000
_cell_angle_gamma 90.000000
_cell_volume 2345.994319
_symmetry_space_group_name_H-M "P 4 2 2"
_symmetry_group_IT_number 89
_symmetry_cell_setting 'tetragonal'
loop_
_space_group_symop_operation_xyz
x,y,z
-y,x,z
-x,-y,z
y,-x,z
x,-y,-z
-x,y,-z
y,x,-z
-y,-x,-z
loop_
_atom_site_type_symbol
_atom_site_label
_atom_site_fract_x
_atom_site_fract_y
_atom_site_fract_z
Si Si1 0.253218 0.915914 0.785993
Si Si2 0.155796 0.778530 0.368677
Si Si3 0.180342 0.201410 0.543053
Si Si4 0.439929 0.759834 0.856344
Si Si5 0.261534 0.000000 0.000000
Si Si6 0.262361 0.383476 0.711756
Si Si7 0.000000 0.500000 0.927253
O O1 0.381259 0.869190 0.819675
O O2 0.322777 0.871838 0.742304
O O3 0.095458 0.806712 0.790314
O O4 0.218438 0.727663 0.413174
O O5 0.215262 0.663914 0.333595
O O6 0.963057 0.787732 0.365165
O O7 0.253515 0.253515 0.500000
O O8 0.988039 0.214166 0.542978
O O9 0.317631 0.613400 0.854089
O O10 0.445116 0.859157 0.897598
O O11 0.152795 0.847206 0.000000
O O12 0.359239 0.977254 0.040997
O O13 0.430837 0.295405 0.719023
#
# Coordination Sequence:
#
# PCOD9546973 Si02
#       7
#     8   8   8   8   4   8   4
#     4  11  24  41  62  88 116 148 191 244 302 364
#     4   9  17  30  51  79 106 134 175 227 284 348
#     4   7  10  19  39  69 102 131 162 210 274 340
#     4  11  23  39  61  90 124 162 203 247 299 358
#     4  10  22  40  64  94 128 168 214 262 308 354
#     4  11  24  39  54  75 106 146 191 237 288 349
#     4  11  22  40  64  92 128 168 210 256 306 359
#
# _framework density 20.460407
#
# number of rings (size 3 to 8) (size 9 to 14) (size 15 to 20)
#    0.000    2.083    0.000    5.500    0.000    6.667 
#    0.000    1.667    0.000    5.000    0.000    5.833 
#    0.000    0.000    0.000    0.000    0.000    0.000 
#
# Total GULP energy -267739.237006 kJ/mol
# GULP energy per Si atom -5577.900771 kJ/mol
# Density = 2.041384 g / cm^3
# Si number density = 20.460407 Si / 1000 Ang^3
#
#
#
# Elastic Constant Matrix: (Units=GPa)
#
#
# Indices 1 2 3 4 5 6 
#
# 1 62.6836 34.9461 47.8541 0.0000 0.0000 0.0000
# 2 34.9461 62.6843 47.8541 0.0000 0.0000 0.0000
# 3 47.8541 47.8541 173.9792 0.0000 0.0000 0.0000
# 4 0.0000 0.0000 0.0000 39.2723 0.0000 0.0000
# 5 0.0000 0.0000 0.0000 0.0000 39.2783 0.0000
# 6 0.0000 0.0000 0.0000 0.0000 0.0000 17.3087
#
#
#
# Elastic Compliance Matrix: (Units=1/GPa)
#
#
# Indices 1 2 3 4 5 6 
#
# 1 0.025038 -0.011014 -0.003858 0.000000 0.000000 0.000000
# 2 -0.011014 0.025038 -0.003857 0.000000 0.000000 0.000000
# 3 -0.003858 -0.003857 0.007870 0.000000 0.000000 0.000000
# 4 0.000000 0.000000 0.000000 0.025463 0.000000 0.000000
# 5 0.000000 0.000000 0.000000 0.000000 0.025459 0.000000
# 6 0.000000 0.000000 0.000000 0.000000 0.000000 0.057774
#
#
# Mechanical properties :
#
#
# Convention : Reuss Voigt Hill
#
# Bulk Modulus (GPa) = 48.80777 62.29510 55.55143
# Shear Modulus (GPa) = 23.70457 30.41806 27.06132
#
# Velocity S-wave (km/s) = 3.40745 3.85993 3.64073
# Velocity P-wave (km/s) = 6.27595 7.09776 6.69947
#
# Compressibility (1/GPa) = 0.02048854
#
# Stress axis : x y z
#
# Youngs Moduli (GPa) = 39.93892 39.93950 127.06709
#
# Poissons Ratio (x) = 0.43988 0.49016
# Poissons Ratio (y) = 0.43988 0.49015
# Poissons Ratio (z) = 0.15407 0.15406
#
# Static dielectric constant tensor:
#      x y z
#    x 1.736030 0.000000 0.000000 
#    y 0.000000 1.736020 0.000000 
#    z 0.000000 0.000000 1.729860 
# 
# From -- ./inp_files/3054.got.cif
#   From: 2010.05.17/outbox.cif.g08.bks.cpg/sg89_2_cif.got.tgz:3054.got - 2010.06.03 19:15:31.
