data_PCOD9546474
_publ_section_title
;
Structure prediction by ZEFSAII (Michael W. Deem and Ramdas Pophale) SiO2 
 PCOD9546474
Probable space group: I 41/A
;
_chemical_formula_sum "Si O2"
_cell_formula_units_Z 100
_cell_length_a 14.018358
_cell_length_b 14.018358
_cell_length_c 24.408531
_cell_angle_alpha 90.000000
_cell_angle_beta 90.000000
_cell_angle_gamma 90.000000
_cell_volume 4796.626873
_symmetry_space_group_name_H-M "I 41/A"
_symmetry_group_IT_number 88
_space_group.IT_coordinate_system_code '2'
_symmetry_cell_setting 'tetragonal'
loop_
_space_group_symop_operation_xyz
x,y,z
3/4-y,1/4+x,1/4+z
-x,1/2-y,z
1/4+y,1/4-x,1/4+z
-x,-y,-z
1/4+y,3/4-x,3/4-z
x,1/2+y,-z
3/4-y,3/4+x,3/4-z
1/2+x,1/2+y,1/2+z
1/4-y,3/4+x,3/4+z
1/2-x,-y,1/2+z
3/4+y,3/4-x,3/4+z
1/2-x,1/2-y,1/2-z
3/4+y,1/4-x,1/4-z
1/2+x,y,1/2-z
1/4-y,1/4+x,1/4-z
loop_
_atom_site_type_symbol
_atom_site_label
_atom_site_fract_x
_atom_site_fract_y
_atom_site_fract_z
Si Si1 0.997678 0.410272 0.922458
Si Si2 0.446143 0.621979 0.146355
Si Si3 0.895415 0.461397 0.513095
Si Si4 0.160319 0.013792 0.838270
Si Si5 0.000000 0.250000 0.125000
Si Si6 0.144759 0.066588 0.390188
Si Si7 0.067676 0.113347 0.038489
O O1 0.913282 0.441235 0.881412
O O2 0.082590 0.366061 0.886422
O O3 0.049832 0.501855 0.950373
O O4 0.955734 0.358966 0.976229
O O5 0.400974 0.693587 0.100695
O O6 0.382434 0.643836 0.199054
O O7 0.430099 0.513877 0.128888
O O8 0.838048 0.543233 0.545744
O O9 0.850024 0.432901 0.455370
O O10 0.000000 0.500000 0.500000
O O11 0.251749 0.969044 0.869545
O O12 0.112927 0.926037 0.805219
O O13 0.000007 0.162604 0.083318
#
# Coordination Sequence:
#
# PCOD9546474 Si02
#       7
#    16  16  16  16   4  16  16
#     4  10  21  41  62  95 133 170 218 268 328 392
#     4  10  21  41  67  90 121 169 213 267 322 389
#     4  11  22  41  65  91 129 166 216 270 322 388
#     4  10  21  40  66  95 129 177 218 267 330 394
#     4  12  20  40  64  96 132 168 220 268 330 396
#     4  10  22  40  62  95 131 168 214 273 323 387
#     4  10  21  39  66  94 130 172 217 268 324 399
#
# _framework density 20.847982999999999
#
# number of rings (size 3 to 8) (size 9 to 14) (size 15 to 20)
#    0.000    1.760    3.200    0.960    0.000    2.560 
#    2.880    1.600    0.000    0.000    0.000    0.000 
#    0.000    0.000    0.000    0.000    0.000    0.000 
#
# Total GULP energy -279096.309086 kJ/mol
# GULP energy per Si atom -5581.926182 kJ/mol
# Density = 2.080053 g / cm^3
# Si number density = 20.847983 Si / 1000 Ang^3
#
#
#
# Elastic Constant Matrix: (Units=GPa)
#
#
# Indices 1 2 3 4 5 6 
#
# 1 60.0173 0.8418 50.1603 0.0000 0.0000 -3.2917
# 2 0.8418 60.0173 50.1603 0.0000 0.0000 3.2917
# 3 50.1603 50.1603 176.9979 0.0000 0.0000 0.0000
# 4 0.0000 0.0000 0.0000 13.4107 0.0000 0.0000
# 5 0.0000 0.0000 0.0000 0.0000 13.4107 0.0000
# 6 -3.2917 3.2917 0.0000 0.0000 0.0000 15.1568
#
#
#
# Elastic Compliance Matrix: (Units=1/GPa)
#
#
# Indices 1 2 3 4 5 6 
#
# 1 0.024077 0.006760 -0.008739 0.000000 0.000000 0.003761
# 2 0.006760 0.024077 -0.008739 0.000000 0.000000 -0.003761
# 3 -0.008739 -0.008739 0.010603 0.000000 0.000000 0.000000
# 4 0.000000 0.000000 0.000000 0.074567 0.000000 0.000000
# 5 0.000000 0.000000 0.000000 0.000000 0.074567 0.000000
# 6 0.003761 -0.003761 0.000000 0.000000 0.000000 0.067610
#
#
# Mechanical properties :
#
#
# Convention : Reuss Voigt Hill
#
# Bulk Modulus (GPa) = 26.79486 55.48415 41.13950
# Shear Modulus (GPa) = 16.16142 21.45365 18.80753
#
# Velocity S-wave (km/s) = 2.78727 3.21136 3.00680
# Velocity P-wave (km/s) = 4.82067 6.35782 5.64184
#
# Compressibility (1/GPa) = 0.03732059
#
# Stress axis : x y z
#
# Youngs Moduli (GPa) = 41.53332 41.53332 94.31330
#
# Poissons Ratio (x) = -0.28075 0.82420
# Poissons Ratio (y) = -0.28075 0.82420
# Poissons Ratio (z) = 0.36296 0.36296
#
# Static dielectric constant tensor:
#      x y z
#    x 1.774060 0.000000 0.000000 
#    y 0.000000 1.774060 0.000000 
#    z 0.000000 0.000000 1.751790 
# 
# From -- ./inp_files/5293.got.cif
#   From: 2010.05.17/outbox.cif.g08.bks.cpg/sg88_3_cif.got.tgz:5293.got - 2010.06.03 19:11:41.
