data_PCOD9546970
_publ_section_title
;
Structure prediction by ZEFSAII (Michael W. Deem and Ramdas Pophale) SiO2 
 PCOD9546970
Probable space group: P 4 2 2
;
_chemical_formula_sum "Si O2"
_cell_formula_units_Z 26
_cell_length_a 8.093114
_cell_length_b 8.093114
_cell_length_c 19.132882
_cell_angle_alpha 90.000000
_cell_angle_beta 90.000000
_cell_angle_gamma 90.000000
_cell_volume 1253.174961
_symmetry_space_group_name_H-M "P 4 2 2"
_symmetry_group_IT_number 89
_symmetry_cell_setting 'tetragonal'
loop_
_space_group_symop_operation_xyz
x,y,z
-y,x,z
-x,-y,z
y,-x,z
x,-y,-z
-x,y,-z
y,x,-z
-y,-x,-z
loop_
_atom_site_type_symbol
_atom_site_label
_atom_site_fract_x
_atom_site_fract_y
_atom_site_fract_z
Si Si1 0.000000 0.500000 0.369546
Si Si2 0.097619 0.737334 0.116410
Si Si3 0.500000 0.000000 0.000000
Si Si4 0.500000 0.230089 0.500000
Si Si5 0.762847 0.596726 0.741148
O O1 0.861990 0.534011 0.427354
O O2 0.904242 0.375855 0.317171
O O3 0.203976 0.905890 0.116009
O O4 0.154542 0.637286 0.184631
O O5 0.109252 0.617929 0.049698
O O6 0.658013 0.341988 0.500000
O O7 0.595234 0.704651 0.734315
#
# Coordination Sequence:
#
# PCOD9546970 Si02
#       5
#     4   8   2   4   8
#     4  11  21  36  63  93 124 162 214 269 325 390
#     4  11  24  42  65  95 133 177 224 277 335 395
#     4  12  22  38  62  90 128 172 220 266 326 398
#     4  10  22  40  62  90 126 170 218 270 332 400
#     4  11  23  41  66  95 129 171 219 274 337 407
#
# _framework density 20.747304
#
# number of rings (size 3 to 8) (size 9 to 14) (size 15 to 20)
#    0.000    1.077    0.000    7.385    0.000    3.692 
#    0.000    0.000    0.000   33.231    0.000    0.000 
#    0.000    0.000    0.000    0.000    0.000    0.000 
#
# Total GULP energy -144871.869300 kJ/mol
# GULP energy per Si atom -5571.994973 kJ/mol
# Density = 2.070008 g / cm^3
# Si number density = 20.747304 Si / 1000 Ang^3
#
#
#
# Elastic Constant Matrix: (Units=GPa)
#
#
# Indices 1 2 3 4 5 6 
#
# 1 115.4470 43.9822 63.3383 0.0000 0.0000 0.0000
# 2 43.9822 115.4483 63.3382 0.0000 0.0000 0.0000
# 3 63.3383 63.3382 182.3392 0.0000 0.0000 0.0000
# 4 0.0000 0.0000 0.0000 -13.1884 0.0000 0.0000
# 5 0.0000 0.0000 0.0000 0.0000 -13.1688 0.0000
# 6 0.0000 0.0000 0.0000 0.0000 0.0000 23.5645
#
#
#
# Elastic Compliance Matrix: (Units=1/GPa)
#
#
# Indices 1 2 3 4 5 6 
#
# 1 0.011328 -0.002665 -0.003009 0.000000 0.000000 0.000000
# 2 -0.002665 0.011328 -0.003009 0.000000 0.000000 0.000000
# 3 -0.003009 -0.003009 0.007575 0.000000 0.000000 0.000000
# 4 0.000000 0.000000 0.000000 -0.075824 0.000000 0.000000
# 5 0.000000 0.000000 0.000000 0.000000 -0.075937 0.000000
# 6 0.000000 0.000000 0.000000 0.000000 0.000000 0.042437
#
#
# Mechanical properties :
#
#
# Convention : Reuss Voigt Hill
#
# Bulk Modulus (GPa) = 77.73382 83.83909 80.78646
# Shear Modulus (GPa) = -87.04976 15.61318 -35.71829
#
# Velocity S-wave (km/s) = -6.48446 2.74622 -4.15370
# Velocity P-wave (km/s) = 4.30302 7.11006 4.00231
#
# Compressibility (1/GPa) = 0.01286441
#
# Stress axis : x y z
#
# Youngs Moduli (GPa) = 88.27509 88.27642 132.01321
#
# Poissons Ratio (x) = 0.23523 0.39728
# Poissons Ratio (y) = 0.23522 0.39727
# Poissons Ratio (z) = 0.26566 0.26566
#
# Static dielectric constant tensor:
#      x y z
#    x 1.771160 0.000000 0.000000 
#    y 0.000000 1.771160 0.000000 
#    z 0.000000 0.000000 1.718110 
# 
# From -- ./inp_files/2319.got.cif
#   From: 2010.05.17/outbox.cif.g08.bks.cpg/sg89_2_cif.got.tgz:2319.got - 2010.06.03 19:15:31.
