data_PCOD9546685
_publ_section_title
;
Structure prediction by ZEFSAII (Michael W. Deem and Ramdas Pophale) SiO2 
 PCOD9546685
Probable space group: I 41/A
;
_chemical_formula_sum "Si O2"
_cell_formula_units_Z 52
_cell_length_a 20.826633
_cell_length_b 20.826633
_cell_length_c 5.045076
_cell_angle_alpha 90.000000
_cell_angle_beta 90.000000
_cell_angle_gamma 90.000000
_cell_volume 2188.294864
_symmetry_space_group_name_H-M "I 41/A"
_symmetry_group_IT_number 88
_space_group.IT_coordinate_system_code '2'
_symmetry_cell_setting 'tetragonal'
loop_
_space_group_symop_operation_xyz
x,y,z
3/4-y,1/4+x,1/4+z
-x,1/2-y,z
1/4+y,1/4-x,1/4+z
-x,-y,-z
1/4+y,3/4-x,3/4-z
x,1/2+y,-z
3/4-y,3/4+x,3/4-z
1/2+x,1/2+y,1/2+z
1/4-y,3/4+x,3/4+z
1/2-x,-y,1/2+z
3/4+y,3/4-x,3/4+z
1/2-x,1/2-y,1/2-z
3/4+y,1/4-x,1/4-z
1/2+x,y,1/2-z
1/4-y,1/4+x,1/4-z
loop_
_atom_site_type_symbol
_atom_site_label
_atom_site_fract_x
_atom_site_fract_y
_atom_site_fract_z
Si Si1 0.832884 0.551550 0.450617
Si Si2 0.199719 0.708214 0.583828
Si Si3 0.500000 0.750000 0.625000
Si Si4 0.444782 0.127222 0.158972
O O1 0.823886 0.487069 0.617200
O O2 0.884298 0.530312 0.223862
O O3 0.871357 0.610231 0.585805
O O4 0.250000 0.750000 0.750000
O O5 0.170794 0.731119 0.299440
O O6 0.142140 0.703790 0.788071
O O7 0.550883 0.717552 0.424462
#
# Coordination Sequence:
#
# PCOD9546685 Si02
#       4
#    16  16   4  16
#     4  10  26  46  79 120 159 210 267 340 406 485
#     4  10  24  50  77 113 154 209 268 341 402 486
#     4  12  28  58  76 118 168 230 264 346 408 502
#     4  10  27  47  80 110 163 208 275 326 413 481
#
# _framework density 23.762794
#
# number of rings (size 3 to 8) (size 9 to 14) (size 15 to 20)
#    1.846    0.000    0.000    0.923    4.308    8.615 
#    0.000    0.000    0.000    0.000    0.000    0.000 
#    0.000    0.000    0.000    0.000    0.000    0.000 
#
# Total GULP energy -144884.190577 kJ/mol
# GULP energy per Si atom -5572.468868 kJ/mol
# Density = 2.370871 g / cm^3
# Si number density = 23.762794 Si / 1000 Ang^3
#
#
#
# Elastic Constant Matrix: (Units=GPa)
#
#
# Indices 1 2 3 4 5 6 
#
# 1 120.6669 101.0121 25.4525 0.0000 0.0000 -24.2628
# 2 101.0121 120.6669 25.4525 0.0000 0.0000 24.2628
# 3 25.4525 25.4525 67.5648 0.0000 0.0000 0.0000
# 4 0.0000 0.0000 0.0000 31.8329 0.0000 0.0000
# 5 0.0000 0.0000 0.0000 0.0000 31.8329 0.0000
# 6 -24.2628 24.2628 0.0000 0.0000 0.0000 35.0903
#
#
#
# Elastic Compliance Matrix: (Units=1/GPa)
#
#
# Indices 1 2 3 4 5 6 
#
# 1 -0.033508 0.038446 -0.001860 0.000000 0.000000 -0.049752
# 2 0.038446 -0.033508 -0.001860 0.000000 0.000000 0.049752
# 3 -0.001860 -0.001860 0.016202 0.000000 0.000000 0.000000
# 4 0.000000 0.000000 0.000000 0.031414 0.000000 0.000000
# 5 0.000000 0.000000 0.000000 0.000000 0.031414 0.000000
# 6 -0.049752 0.049752 0.000000 0.000000 0.000000 -0.040303
#
#
# Mechanical properties :
#
#
# Convention : Reuss Voigt Hill
#
# Bulk Modulus (GPa) = 53.65536 68.08144 60.86840
# Shear Modulus (GPa) = -54.62914 30.21664 -12.20625
#
# Velocity S-wave (km/s) = -4.79992 3.56981 -2.26889
# Velocity P-wave (km/s) = 2.84437 6.76048 4.33668
#
# Compressibility (1/GPa) = 0.01863747
#
# Stress axis : x y z
#
# Youngs Moduli (GPa) = -29.84384 -29.84384 61.72006
#
# Poissons Ratio (x) = 1.14738 0.11482
# Poissons Ratio (y) = 1.14738 0.11482
# Poissons Ratio (z) = -0.05552 -0.05552
#
# Static dielectric constant tensor:
#      x y z
#    x 2.093390 0.000000 0.000000 
#    y 0.000000 2.093390 0.000000 
#    z 0.000000 0.000000 1.926050 
# 
# From -- ./inp_files/420.got.cif
#   From: 2010.05.17/outbox.cif.g08.bks.cpg/sg88_1_cif.got.tgz:420.got - 2010.06.03 19:11:41.
