data_PCOD9546817
_publ_section_title
;
Structure prediction by ZEFSAII (Michael W. Deem and Ramdas Pophale) SiO2 
 PCOD9546817
Probable space group: I 41/A
;
_chemical_formula_sum "Si O2"
_cell_formula_units_Z 64
_cell_length_a 10.702164
_cell_length_b 10.702164
_cell_length_c 21.052845
_cell_angle_alpha 90.000000
_cell_angle_beta 90.000000
_cell_angle_gamma 90.000000
_cell_volume 2411.315271
_symmetry_space_group_name_H-M "I 41/A"
_symmetry_group_IT_number 88
_space_group.IT_coordinate_system_code '2'
_symmetry_cell_setting 'tetragonal'
loop_
_space_group_symop_operation_xyz
x,y,z
3/4-y,1/4+x,1/4+z
-x,1/2-y,z
1/4+y,1/4-x,1/4+z
-x,-y,-z
1/4+y,3/4-x,3/4-z
x,1/2+y,-z
3/4-y,3/4+x,3/4-z
1/2+x,1/2+y,1/2+z
1/4-y,3/4+x,3/4+z
1/2-x,-y,1/2+z
3/4+y,3/4-x,3/4+z
1/2-x,1/2-y,1/2-z
3/4+y,1/4-x,1/4-z
1/2+x,y,1/2-z
1/4-y,1/4+x,1/4-z
loop_
_atom_site_type_symbol
_atom_site_label
_atom_site_fract_x
_atom_site_fract_y
_atom_site_fract_z
Si Si1 0.687604 0.816314 0.148712
Si Si2 0.665891 0.804619 0.847690
Si Si3 0.589893 0.151670 0.276840
Si Si4 0.868968 0.818730 0.521391
O O1 0.645434 0.672348 0.136894
O O2 0.824845 0.841509 0.122708
O O3 0.684306 0.862376 0.222572
O O4 0.631251 0.726805 0.785547
O O5 0.797273 0.865355 0.825912
O O6 0.650589 0.702562 0.903590
O O7 0.500000 0.250000 0.308742
O O8 0.526797 0.022599 0.254401
O O9 0.000000 0.750000 0.507234
#
# Coordination Sequence:
#
# PCOD9546817 Si02
#       4
#    16  16  16  16
#     4  11  25  52  81 122 174 230 290 366 448 531
#     4  11  29  51  85 125 172 229 294 372 447 542
#     4  11  28  53  86 120 172 234 298 369 451 538
#     4  12  28  49  83 129 172 233 292 370 446 539
#
# _framework density 26.541532
#
# number of rings (size 3 to 8) (size 9 to 14) (size 15 to 20)
#    0.000    0.750    2.500    2.250   10.500    5.000 
#    0.000    0.000    0.000    0.000    0.000    0.000 
#    0.000    0.000    0.000    0.000    0.000    0.000 
#
# Total GULP energy -178449.695385 kJ/mol
# GULP energy per Si atom -5576.552981 kJ/mol
# Density = 2.648112 g / cm^3
# Si number density = 26.541532 Si / 1000 Ang^3
#
#
#
# Elastic Constant Matrix: (Units=GPa)
#
#
# Indices 1 2 3 4 5 6 
#
# 1 159.7617 51.0517 51.2941 0.0000 0.0000 -5.7913
# 2 51.0517 159.7617 51.2941 0.0000 0.0000 5.7913
# 3 51.2941 51.2941 209.9272 0.0000 0.0000 0.0000
# 4 0.0000 0.0000 0.0000 25.5958 0.0000 0.0000
# 5 0.0000 0.0000 0.0000 0.0000 25.5958 0.0000
# 6 -5.7913 5.7913 0.0000 0.0000 0.0000 28.0197
#
#
#
# Elastic Compliance Matrix: (Units=1/GPa)
#
#
# Indices 1 2 3 4 5 6 
#
# 1 0.007395 -0.002011 -0.001315 0.000000 0.000000 0.001944
# 2 -0.002011 0.007395 -0.001315 0.000000 0.000000 -0.001944
# 3 -0.001315 -0.001315 0.005406 0.000000 0.000000 0.000000
# 4 0.000000 0.000000 0.000000 0.039069 0.000000 0.000000
# 5 0.000000 0.000000 0.000000 0.000000 0.039069 0.000000
# 6 0.001944 -0.001944 0.000000 0.000000 0.000000 0.036493
#
#
# Mechanical properties :
#
#
# Convention : Reuss Voigt Hill
#
# Bulk Modulus (GPa) = 91.64297 92.97003 92.30650
# Shear Modulus (GPa) = 33.84140 40.89631 37.36886
#
# Velocity S-wave (km/s) = 3.57464 3.92961 3.75632
# Velocity P-wave (km/s) = 7.18613 7.46280 7.32577
#
# Compressibility (1/GPa) = 0.01091191
#
# Stress axis : x y z
#
# Youngs Moduli (GPa) = 135.23024 135.23024 184.96597
#
# Poissons Ratio (x) = 0.27196 0.24331
# Poissons Ratio (y) = 0.27196 0.24331
# Poissons Ratio (z) = 0.17789 0.17789
#
# Static dielectric constant tensor:
#      x y z
#    x 1.966050 0.000000 0.000000 
#    y 0.000000 1.966050 0.000000 
#    z 0.000000 0.000000 2.080660 
# 
# From -- ./inp_files/4404.got.cif
#   From: 2010.05.17/outbox.cif.g08.bks.cpg/sg88_3_cif.got.tgz:4404.got - 2010.06.03 19:11:41.
