data_PCOD9546126
_publ_section_title
;
Structure prediction by ZEFSAII (Michael W. Deem and Ramdas Pophale) SiO2 
 PCOD9546126
Probable space group: I 4/M
;
_chemical_formula_sum "Si O2"
_cell_formula_units_Z 72
_cell_length_a 18.118478
_cell_length_b 18.118478
_cell_length_c 10.491130
_cell_angle_alpha 90.000000
_cell_angle_beta 90.000000
_cell_angle_gamma 90.000000
_cell_volume 3444.020236
_symmetry_space_group_name_H-M "I 4/M"
_symmetry_group_IT_number 87
_symmetry_cell_setting 'tetragonal'
loop_
_space_group_symop_operation_xyz
x,y,z
-y,x,z
-x,-y,z
y,-x,z
-x,-y,-z
y,-x,-z
x,y,-z
-y,x,-z
1/2+x,1/2+y,1/2+z
1/2-y,1/2+x,1/2+z
1/2-x,1/2-y,1/2+z
1/2+y,1/2-x,1/2+z
1/2-x,1/2-y,1/2-z
1/2+y,1/2-x,1/2-z
1/2+x,1/2+y,1/2-z
1/2-y,1/2+x,1/2-z
loop_
_atom_site_type_symbol
_atom_site_label
_atom_site_fract_x
_atom_site_fract_y
_atom_site_fract_z
Si Si1 0.709740 0.988897 0.353890
Si Si2 0.477893 0.620284 0.222536
Si Si3 0.763825 0.156592 0.000000
Si Si4 0.368594 0.790326 0.500000
Si Si5 0.008905 0.818091 0.000000
Si Si6 0.635967 0.840656 0.269720
O O1 0.700824 0.013337 0.500000
O O2 0.797063 0.970112 0.334822
O O3 0.656417 0.919640 0.329097
O O4 0.684150 0.052240 0.256484
O O5 0.416461 0.557928 0.189797
O O6 0.473104 0.635869 0.373558
O O7 0.829120 0.212724 0.000000
O O8 0.716487 0.167867 0.127920
O O9 0.798866 0.076560 0.000000
O O10 0.452702 0.762960 0.500000
O O11 0.344604 0.829881 0.628846
#
# Coordination Sequence:
#
# PCOD9546126 Si02
#       6
#    16  16   8   8   8  16
#     4  12  27  48  71 103 138 180 235 290 353 409
#     4  11  24  42  67 100 140 186 230 279 344 421
#     4  12  24  41  69 103 139 186 236 289 349 412
#     4  12  24  41  69 103 139 186 236 289 349 412
#     4  12  22  39  66 101 138 174 230 282 346 415
#     4  12  25  47  70 100 140 182 235 295 348 418
#
# _framework density 20.905799999999999
#
# number of rings (size 3 to 8) (size 9 to 14) (size 15 to 20)
#    0.000    0.222    6.667    2.667    0.000    4.000 
#    0.000    2.222    0.000    0.000    0.000    0.000 
#    0.000    0.000    0.000    0.000    0.000    0.000 
#
# Total GULP energy -201133.432584 kJ/mol
# GULP energy per Si atom -5587.039794 kJ/mol
# Density = 2.085822 g / cm^3
# Si number density = 20.905800 Si / 1000 Ang^3
#
#
#
# Elastic Constant Matrix: (Units=GPa)
#
#
# Indices 1 2 3 4 5 6 
#
# 1 59.7197 20.9823 5.1317 0.0000 0.0000 -3.3315
# 2 20.9823 59.7197 5.1317 0.0000 0.0000 3.3315
# 3 5.1317 5.1317 32.8291 0.0000 0.0000 0.0000
# 4 0.0000 0.0000 0.0000 46.6720 0.0000 0.0000
# 5 0.0000 0.0000 0.0000 0.0000 46.6720 0.0000
# 6 -3.3315 3.3315 0.0000 0.0000 0.0000 33.7200
#
#
#
# Elastic Compliance Matrix: (Units=1/GPa)
#
#
# Indices 1 2 3 4 5 6 
#
# 1 0.019452 -0.006809 -0.001976 0.000000 0.000000 0.002595
# 2 -0.006809 0.019452 -0.001976 0.000000 0.000000 -0.002595
# 3 -0.001976 -0.001976 0.031079 0.000000 0.000000 0.000000
# 4 0.000000 0.000000 0.000000 0.021426 0.000000 0.000000
# 5 0.000000 0.000000 0.000000 0.000000 0.021426 0.000000
# 6 0.002595 -0.002595 0.000000 0.000000 0.000000 0.030169
#
#
# Mechanical properties :
#
#
# Convention : Reuss Voigt Hill
#
# Bulk Modulus (GPa) = 20.63606 23.86221 22.24913
# Shear Modulus (GPa) = 27.67327 33.48099 30.57713
#
# Velocity S-wave (km/s) = 3.64223 4.00624 3.82856
# Velocity P-wave (km/s) = 5.25169 5.73052 5.49632
#
# Compressibility (1/GPa) = 0.04845887
#
# Stress axis : x y z
#
# Youngs Moduli (GPa) = 51.40890 51.40890 32.17642
#
# Poissons Ratio (x) = 0.35006 0.06359
# Poissons Ratio (y) = 0.35006 0.06359
# Poissons Ratio (z) = 0.10160 0.10160
#
# Static dielectric constant tensor:
#      x y z
#    x 1.750020 0.000000 0.000000 
#    y 0.000000 1.750020 0.000000 
#    z 0.000000 0.000000 1.787890 
# 
# From -- ./inp_files/2499.got.cif
#   From: 2010.05.17/outbox.cif.g08.bks.cpg/sg87_2_cif.got.tgz:2499.got - 2010.06.03 19:07:00.
