data_PCOD9546207
_publ_section_title
;
Structure prediction by ZEFSAII (Michael W. Deem and Ramdas Pophale) SiO2 
 PCOD9546207
Probable space group: I 41/A
;
_chemical_formula_sum "Si O2"
_cell_formula_units_Z 56
_cell_length_a 14.951210
_cell_length_b 14.951210
_cell_length_c 10.069603
_cell_angle_alpha 90.000000
_cell_angle_beta 90.000000
_cell_angle_gamma 90.000000
_cell_volume 2250.945767
_symmetry_space_group_name_H-M "I 41/A"
_symmetry_group_IT_number 88
_space_group.IT_coordinate_system_code '2'
_symmetry_cell_setting 'tetragonal'
loop_
_space_group_symop_operation_xyz
x,y,z
3/4-y,1/4+x,1/4+z
-x,1/2-y,z
1/4+y,1/4-x,1/4+z
-x,-y,-z
1/4+y,3/4-x,3/4-z
x,1/2+y,-z
3/4-y,3/4+x,3/4-z
1/2+x,1/2+y,1/2+z
1/4-y,3/4+x,3/4+z
1/2-x,-y,1/2+z
3/4+y,3/4-x,3/4+z
1/2-x,1/2-y,1/2-z
3/4+y,1/4-x,1/4-z
1/2+x,y,1/2-z
1/4-y,1/4+x,1/4-z
loop_
_atom_site_type_symbol
_atom_site_label
_atom_site_fract_x
_atom_site_fract_y
_atom_site_fract_z
Si Si1 0.244187 0.068580 0.736177
Si Si2 0.000000 0.250000 0.805633
Si Si3 0.811968 0.303553 0.529048
Si Si4 0.371995 0.758689 0.549344
O O1 0.197439 0.993932 0.643183
O O2 0.350415 0.064838 0.704466
O O3 0.209895 0.162081 0.677621
O O4 0.992806 0.156598 0.730387
O O5 0.915929 0.256973 0.904651
O O6 0.733749 0.245578 0.464761
O O7 0.418874 0.839752 0.628329
#
# Coordination Sequence:
#
# PCOD9546207 Si02
#       4
#    16   8  16  16
#     4   8  16  30  55  87 136 169 222 271 323 408
#     4  10  17  32  52  82 138 165 202 289 330 391
#     4  10  17  33  54  90 136 166 218 269 343 400
#     4   9  19  30  49  89 129 161 203 272 349 394
#
# _framework density 24.878430999999999
#
# number of rings (size 3 to 8) (size 9 to 14) (size 15 to 20)
#    1.714    1.429    2.857    0.000    0.000    4.571 
#    0.000    0.000    0.000    0.000    0.000   44.000 
#   17.143    0.000    0.000    0.000    0.000    0.000 
#
# Total GULP energy -156455.295539 kJ/mol
# GULP energy per Si atom -5587.689126 kJ/mol
# Density = 2.482181 g / cm^3
# Si number density = 24.878431 Si / 1000 Ang^3
#
#
#
# Elastic Constant Matrix: (Units=GPa)
#
#
# Indices 1 2 3 4 5 6 
#
# 1 155.5860 49.6017 49.2006 0.0000 0.0000 -12.1874
# 2 49.6017 155.5860 49.2006 0.0000 0.0000 12.1874
# 3 49.2006 49.2006 86.5749 0.0000 0.0000 0.0000
# 4 0.0000 0.0000 0.0000 18.6893 0.0000 0.0000
# 5 0.0000 0.0000 0.0000 0.0000 18.6893 0.0000
# 6 -12.1874 12.1874 0.0000 0.0000 0.0000 24.9447
#
#
#
# Elastic Compliance Matrix: (Units=1/GPa)
#
#
# Indices 1 2 3 4 5 6 
#
# 1 0.008665 -0.001965 -0.003807 0.000000 0.000000 0.005193
# 2 -0.001965 0.008665 -0.003807 0.000000 0.000000 -0.005193
# 3 -0.003807 -0.003807 0.015878 0.000000 0.000000 0.000000
# 4 0.000000 0.000000 0.000000 0.053506 0.000000 0.000000
# 5 0.000000 0.000000 0.000000 0.000000 0.053506 0.000000
# 6 0.005193 -0.005193 0.000000 0.000000 0.000000 0.045164
#
#
# Mechanical properties :
#
#
# Convention : Reuss Voigt Hill
#
# Bulk Modulus (GPa) = 71.18571 77.08362 74.13467
# Shear Modulus (GPa) = 23.89762 29.11427 26.50594
#
# Velocity S-wave (km/s) = 3.10268 3.42462 3.26762
# Velocity P-wave (km/s) = 6.44290 6.83292 6.64077
#
# Compressibility (1/GPa) = 0.01404776
#
# Stress axis : x y z
#
# Youngs Moduli (GPa) = 115.41190 115.41190 62.97992
#
# Poissons Ratio (x) = 0.22680 0.23978
# Poissons Ratio (y) = 0.22680 0.23978
# Poissons Ratio (z) = 0.43941 0.43941
#
# Static dielectric constant tensor:
#      x y z
#    x 1.950490 0.000000 0.000000 
#    y 0.000000 1.950490 0.000000 
#    z 0.000000 0.000000 1.999070 
# 
# From -- ./inp_files/2313.got.cif
#   From: 2010.05.17/outbox.cif.g08.bks.cpg/sg88_2_cif.got.tgz:2313.got - 2010.06.03 19:11:41.
