data_PCOD9546242
_publ_section_title
;
Structure prediction by ZEFSAII (Michael W. Deem and Ramdas Pophale) SiO2 
 PCOD9546242
Probable space group: I 41/A
;
_chemical_formula_sum "Si O2"
_cell_formula_units_Z 68
_cell_length_a 19.288867
_cell_length_b 19.288867
_cell_length_c 8.364966
_cell_angle_alpha 90.000000
_cell_angle_beta 90.000000
_cell_angle_gamma 90.000000
_cell_volume 3112.272513
_symmetry_space_group_name_H-M "I 41/A"
_symmetry_group_IT_number 88
_space_group.IT_coordinate_system_code '2'
_symmetry_cell_setting 'tetragonal'
loop_
_space_group_symop_operation_xyz
x,y,z
3/4-y,1/4+x,1/4+z
-x,1/2-y,z
1/4+y,1/4-x,1/4+z
-x,-y,-z
1/4+y,3/4-x,3/4-z
x,1/2+y,-z
3/4-y,3/4+x,3/4-z
1/2+x,1/2+y,1/2+z
1/4-y,3/4+x,3/4+z
1/2-x,-y,1/2+z
3/4+y,3/4-x,3/4+z
1/2-x,1/2-y,1/2-z
3/4+y,1/4-x,1/4-z
1/2+x,y,1/2-z
1/4-y,1/4+x,1/4-z
loop_
_atom_site_type_symbol
_atom_site_label
_atom_site_fract_x
_atom_site_fract_y
_atom_site_fract_z
Si Si1 0.282517 0.431388 0.404586
Si Si2 0.442794 0.460101 0.107079
Si Si3 0.124352 0.186799 0.963759
Si Si4 0.500000 0.250000 0.375000
Si Si5 0.358033 0.094396 0.891198
O O1 0.312196 0.501920 0.479033
O O2 0.337217 0.370660 0.429522
O O3 0.216316 0.416396 0.521153
O O4 0.491141 0.417056 0.226071
O O5 0.391643 0.521455 0.162786
O O6 0.500000 0.500000 0.000000
O O7 0.398084 0.407372 0.999431
O O8 0.127371 0.157833 0.782278
O O9 0.046933 0.200909 0.016684
#
# Coordination Sequence:
#
# PCOD9546242 Si02
#       5
#    16  16  16   4  16
#     4  10  19  38  66  95 125 154 201 266 315 365
#     4  10  19  36  63  95 123 151 202 256 303 361
#     4  10  24  42  59  81 130 162 205 247 305 368
#     4  12  28  48  50  80 128 180 200 242 296 392
#     4  10  18  36  67  93 120 149 198 266 306 353
#
# _framework density 21.848986
#
# number of rings (size 3 to 8) (size 9 to 14) (size 15 to 20)
#    0.000    1.882    7.059    0.000    0.000    5.647 
#    0.000    4.706    0.000    0.000    0.000    0.000 
#    0.000    0.000    0.000    0.000    0.000    0.000 
#
# Total GULP energy -190019.891448 kJ/mol
# GULP energy per Si atom -5588.820337 kJ/mol
# Density = 2.179926 g / cm^3
# Si number density = 21.848986 Si / 1000 Ang^3
#
#
#
# Elastic Constant Matrix: (Units=GPa)
#
#
# Indices 1 2 3 4 5 6 
#
# 1 122.6321 57.9578 47.8408 0.0000 0.0000 -6.2287
# 2 57.9578 122.6321 47.8408 0.0000 0.0000 6.2287
# 3 47.8408 47.8408 70.3923 0.0000 0.0000 0.0000
# 4 0.0000 0.0000 0.0000 26.0731 0.0000 0.0000
# 5 0.0000 0.0000 0.0000 0.0000 26.0731 0.0000
# 6 -6.2287 6.2287 0.0000 0.0000 0.0000 57.6671
#
#
#
# Elastic Compliance Matrix: (Units=1/GPa)
#
#
# Indices 1 2 3 4 5 6 
#
# 1 0.012222 -0.003569 -0.005881 0.000000 0.000000 0.001706
# 2 -0.003569 0.012222 -0.005881 0.000000 0.000000 -0.001706
# 3 -0.005881 -0.005881 0.022200 0.000000 0.000000 0.000000
# 4 0.000000 0.000000 0.000000 0.038354 0.000000 0.000000
# 5 0.000000 0.000000 0.000000 0.000000 0.038354 0.000000
# 6 0.001706 -0.001706 0.000000 0.000000 0.000000 0.017709
#
#
# Mechanical properties :
#
#
# Convention : Reuss Voigt Hill
#
# Bulk Modulus (GPa) = 62.56881 69.21504 65.89192
# Shear Modulus (GPa) = 28.24061 32.76380 30.50221
#
# Velocity S-wave (km/s) = 3.59909 3.87661 3.74042
# Velocity P-wave (km/s) = 6.78014 7.19619 6.99126
#
# Compressibility (1/GPa) = 0.01598240
#
# Stress axis : x y z
#
# Youngs Moduli (GPa) = 81.81959 81.81959 45.04484
#
# Poissons Ratio (x) = 0.29198 0.26491
# Poissons Ratio (y) = 0.29198 0.26491
# Poissons Ratio (z) = 0.48119 0.48119
#
# Static dielectric constant tensor:
#      x y z
#    x 1.826010 0.000000 0.000000 
#    y 0.000000 1.826010 0.000000 
#    z 0.000000 0.000000 1.791450 
# 
# From -- ./inp_files/1514.got.cif
#   From: 2010.05.17/outbox.cif.g08.bks.cpg/sg88_1_cif.got.tgz:1514.got - 2010.06.03 19:11:41.
