data_PCOD9546181
_publ_section_title
;
Structure prediction by ZEFSAII (Michael W. Deem and Ramdas Pophale) SiO2 
 PCOD9546181
Probable space group: I 4/M
;
_chemical_formula_sum "Si O2"
_cell_formula_units_Z 64
_cell_length_a 24.000000
_cell_length_b 24.000000
_cell_length_c 12.000000
_cell_angle_alpha 90.000000
_cell_angle_beta 90.000000
_cell_angle_gamma 90.000000
_cell_volume 6912.000000
_symmetry_space_group_name_H-M "I 4/M"
_symmetry_group_IT_number 87
_symmetry_cell_setting 'tetragonal'
loop_
_space_group_symop_operation_xyz
x,y,z
-y,x,z
-x,-y,z
y,-x,z
-x,-y,-z
y,-x,-z
x,y,-z
-y,x,-z
1/2+x,1/2+y,1/2+z
1/2-y,1/2+x,1/2+z
1/2-x,1/2-y,1/2+z
1/2+y,1/2-x,1/2+z
1/2-x,1/2-y,1/2-z
1/2+y,1/2-x,1/2-z
1/2+x,1/2+y,1/2-z
1/2-y,1/2+x,1/2-z
loop_
_atom_site_type_symbol
_atom_site_label
_atom_site_fract_x
_atom_site_fract_y
_atom_site_fract_z
Si Si1 0.599670 0.122319 0.214523
Si Si2 0.057610 0.932659 0.135296
Si Si3 0.252599 0.094518 0.370939
Si Si4 0.829444 0.107376 0.132605
Si Si5 0.014672 0.246544 0.235285
Si Si6 0.613747 0.796014 0.124647
Si Si7 0.503501 0.863710 0.626496
Si Si8 0.711263 0.299618 0.209584
O O1 0.596495 0.179968 0.145799
O O2 0.652779 0.129624 0.295920
O O3 0.543083 0.116066 0.286100
O O4 0.611310 0.064967 0.149066
O O5 0.105992 0.891413 0.168990
O O6 0.994666 0.924413 0.171833
O O7 0.056163 0.932446 0.000000
O O8 0.240368 0.082455 0.500000
O O9 0.224884 0.153708 0.338527
O O10 0.232343 0.044401 0.290500
O O11 0.801626 0.050594 0.177387
O O12 0.800298 0.160184 0.185799
O O13 0.825701 0.107833 0.000000
O O14 0.055733 0.271040 0.330412
O O15 0.006966 0.297201 0.148385
O O16 0.660365 0.747772 0.130329
O O17 0.607391 0.816678 0.000000
O O18 0.486689 0.875308 0.500000
O O19 0.750000 0.250000 0.250000
#
# Coordination Sequence:
#
# PCOD9546181 Si02
#       8
#    16  16  16  16  16  16  16  16
#     4  10  21  37  57  85 110 142 193 234 289 365
#     4   8  15  29  50  79 113 149 181 212 274 347
#     4  11  22  39  60  82 114 154 194 244 290 341
#     4  10  21  36  58  86 120 154 188 244 299 344
#     4   9  21  36  56  84 110 143 201 234 283 358
#     4  10  19  37  58  78 111 148 184 239 292 339
#     4  10  20  37  57  80 110 146 183 238 297 345
#     4  11  23  39  53  86 117 153 205 241 284 356
#
# _framework density 9.2592590000000001
#
# number of rings (size 3 to 8) (size 9 to 14) (size 15 to 20)
#    0.000    2.125    1.250    2.250    1.750    1.250 
#    0.000    3.125    0.000    0.000    0.000    0.000 
#    0.000    1.000    0.000    0.000    0.000    0.000 
#
# Total GULP energy -356876.465405 kJ/mol
# GULP energy per Si atom -5576.194772 kJ/mol
# Density = 0.923818 g / cm^3
# Si number density = 9.259259 Si / 1000 Ang^3
#
#
#
# Elastic Constant Matrix: (Units=GPa)
#
#
# Indices 1 2 3 4 5 6 
#
# 1 76.7068 22.9542 15.1865 0.0000 0.0000 0.3709
# 2 22.9542 76.7068 15.1865 0.0000 0.0000 -0.3709
# 3 15.1865 15.1865 66.2822 0.0000 0.0000 0.0000
# 4 0.0000 0.0000 0.0000 7.6238 0.0000 0.0000
# 5 0.0000 0.0000 0.0000 0.0000 7.6238 0.0000
# 6 0.3709 -0.3709 0.0000 0.0000 0.0000 25.5836
#
#
#
# Elastic Compliance Matrix: (Units=1/GPa)
#
#
# Indices 1 2 3 4 5 6 
#
# 1 0.014697 -0.003910 -0.002472 0.000000 0.000000 -0.000270
# 2 -0.003910 0.014697 -0.002472 0.000000 0.000000 0.000270
# 3 -0.002472 -0.002472 0.016220 0.000000 0.000000 0.000000
# 4 0.000000 0.000000 0.000000 0.131169 0.000000 0.000000
# 5 0.000000 0.000000 0.000000 0.000000 0.131169 0.000000
# 6 -0.000270 0.000270 0.000000 0.000000 0.000000 0.039095
#
#
# Mechanical properties :
#
#
# Convention : Reuss Voigt Hill
#
# Bulk Modulus (GPa) = 35.83224 36.26113 36.04669
# Shear Modulus (GPa) = 13.36697 19.25747 16.31222
#
# Velocity S-wave (km/s) = 2.68958 3.22825 2.97115
# Velocity P-wave (km/s) = 5.38855 5.78956 5.59265
#
# Compressibility (1/GPa) = 0.02790783
#
# Stress axis : x y z
#
# Youngs Moduli (GPa) = 68.03944 68.03944 61.65390
#
# Poissons Ratio (x) = 0.26604 0.15238
# Poissons Ratio (y) = 0.26604 0.15238
# Poissons Ratio (z) = 0.16816 0.16816
#
# Static dielectric constant tensor:
#      x y z
#    x 1.642030 0.000000 0.000000 
#    y 0.000000 1.642030 0.000000 
#    z 0.000000 0.000000 1.614020 
# 
# From -- ./inp_files/2979.got.cif
#   From: 2010.05.17/outbox.ucp.g08.bks.cvg/sg87_2_cif.got.tgz:2979.got - 2010.06.11 10:35:24.
