data_PCOD9546748
_publ_section_title
;
Structure prediction by ZEFSAII (Michael W. Deem and Ramdas Pophale) SiO2 
 PCOD9546748
Probable space group: I 41/A
;
_chemical_formula_sum "Si O2"
_cell_formula_units_Z 120
_cell_length_a 16.681499
_cell_length_b 16.681499
_cell_length_c 17.766224
_cell_angle_alpha 90.000000
_cell_angle_beta 90.000000
_cell_angle_gamma 90.000000
_cell_volume 4943.849949
_symmetry_space_group_name_H-M "I 41/A"
_symmetry_group_IT_number 88
_space_group.IT_coordinate_system_code '2'
_symmetry_cell_setting 'tetragonal'
loop_
_space_group_symop_operation_xyz
x,y,z
3/4-y,1/4+x,1/4+z
-x,1/2-y,z
1/4+y,1/4-x,1/4+z
-x,-y,-z
1/4+y,3/4-x,3/4-z
x,1/2+y,-z
3/4-y,3/4+x,3/4-z
1/2+x,1/2+y,1/2+z
1/4-y,3/4+x,3/4+z
1/2-x,-y,1/2+z
3/4+y,3/4-x,3/4+z
1/2-x,1/2-y,1/2-z
3/4+y,1/4-x,1/4-z
1/2+x,y,1/2-z
1/4-y,1/4+x,1/4-z
loop_
_atom_site_type_symbol
_atom_site_label
_atom_site_fract_x
_atom_site_fract_y
_atom_site_fract_z
Si Si1 0.819237 0.532196 0.057833
Si Si2 0.434908 0.899318 0.546328
Si Si3 0.675765 0.603399 0.981982
Si Si4 0.085115 0.811633 0.024137
Si Si5 0.953972 0.061680 0.161312
Si Si6 0.000000 0.750000 0.165883
Si Si7 0.380934 0.191253 0.856491
Si Si8 0.041656 0.583109 0.240798
O O1 0.861426 0.454245 0.019811
O O2 0.728363 0.546678 0.034997
O O3 0.829153 0.548096 0.147632
O O4 0.866419 0.606955 0.024129
O O5 0.494860 0.839416 0.503110
O O6 0.387371 0.850446 0.611484
O O7 0.491647 0.959853 0.590842
O O8 0.588254 0.603720 0.024241
O O9 0.695445 0.698533 0.987404
O O10 0.068429 0.783423 0.109832
O O11 0.141686 0.748495 0.980081
O O12 0.914639 0.979338 0.186539
O O13 0.965228 0.824653 0.213573
O O14 0.398162 0.285370 0.870126
O O15 0.323409 0.172719 0.926337
#
# Coordination Sequence:
#
# PCOD9546748 Si02
#       8
#    16  16  16  16  16   8  16  16
#     4  12  25  45  68  99 141 188 227 283 364 412
#     4  12  24  41  68  97 140 181 231 283 346 430
#     4  11  23  43  68  97 140 181 228 290 348 422
#     4  12  23  41  69 103 136 183 240 285 346 422
#     4  12  23  42  67 102 136 181 228 287 350 422
#     4  12  22  40  70 104 136 182 238 300 340 424
#     4   9  20  41  72 100 129 179 231 279 345 411
#     4  11  22  42  67 101 136 176 232 289 345 412
#
# _framework density 24.272583000000001
#
# number of rings (size 3 to 8) (size 9 to 14) (size 15 to 20)
#    0.000    0.667    6.667    2.000    0.000    1.067 
#    0.000    5.333    0.000    0.000    0.000    0.000 
#    0.000    0.000    0.000    0.000    0.000    0.000 
#
# Total GULP energy -334113.675814 kJ/mol
# GULP energy per Si atom -5568.561264 kJ/mol
# Density = 2.421734 g / cm^3
# Si number density = 24.272583 Si / 1000 Ang^3
#
#
#
# Elastic Constant Matrix: (Units=GPa)
#
#
# Indices 1 2 3 4 5 6 
#
# 1 56.3423 16.1397 16.8759 0.0000 0.0000 -2.1324
# 2 16.1397 56.3423 16.8759 0.0000 0.0000 2.1324
# 3 16.8759 16.8759 120.4868 0.0000 0.0000 0.0000
# 4 0.0000 0.0000 0.0000 28.3836 0.0000 0.0000
# 5 0.0000 0.0000 0.0000 0.0000 28.3836 0.0000
# 6 -2.1324 2.1324 0.0000 0.0000 0.0000 17.3909
#
#
#
# Elastic Compliance Matrix: (Units=1/GPa)
#
#
# Indices 1 2 3 4 5 6 
#
# 1 0.019980 -0.005221 -0.002067 0.000000 0.000000 0.003090
# 2 -0.005221 0.019980 -0.002067 0.000000 0.000000 -0.003090
# 3 -0.002067 -0.002067 0.008879 0.000000 0.000000 0.000000
# 4 0.000000 0.000000 0.000000 0.035232 0.000000 0.000000
# 5 0.000000 0.000000 0.000000 0.000000 0.035232 0.000000
# 6 0.003090 -0.003090 0.000000 0.000000 0.000000 0.058259
#
#
# Mechanical properties :
#
#
# Convention : Reuss Voigt Hill
#
# Bulk Modulus (GPa) = 33.19157 36.99494 35.09325
# Shear Modulus (GPa) = 24.23461 27.05027 25.64244
#
# Velocity S-wave (km/s) = 3.16323 3.34194 3.25381
# Velocity P-wave (km/s) = 5.20054 5.49235 5.34844
#
# Compressibility (1/GPa) = 0.03012813
#
# Stress axis : x y z
#
# Youngs Moduli (GPa) = 50.04882 50.04882 112.62834
#
# Poissons Ratio (x) = 0.26132 0.23283
# Poissons Ratio (y) = 0.26132 0.23283
# Poissons Ratio (z) = 0.10346 0.10346
#
# Static dielectric constant tensor:
#      x y z
#    x 2.004890 0.000000 0.000000 
#    y 0.000000 2.004890 0.000000 
#    z 0.000000 0.000000 2.013140 
# 
# From -- ./inp_files/4870.got.cif
#   From: 2010.05.17/outbox.cif.g08.bks.cpg/sg88_3_cif.got.tgz:4870.got - 2010.06.03 19:11:41.
