data_PCOD9546731
_publ_section_title
;
Structure prediction by ZEFSAII (Michael W. Deem and Ramdas Pophale) SiO2 
 PCOD9546731
Probable space group: I 41/A
;
_chemical_formula_sum "Si O2"
_cell_formula_units_Z 68
_cell_length_a 13.519742
_cell_length_b 13.519742
_cell_length_c 18.208777
_cell_angle_alpha 90.000000
_cell_angle_beta 90.000000
_cell_angle_gamma 90.000000
_cell_volume 3328.262602
_symmetry_space_group_name_H-M "I 41/A"
_symmetry_group_IT_number 88
_space_group.IT_coordinate_system_code '2'
_symmetry_cell_setting 'tetragonal'
loop_
_space_group_symop_operation_xyz
x,y,z
3/4-y,1/4+x,1/4+z
-x,1/2-y,z
1/4+y,1/4-x,1/4+z
-x,-y,-z
1/4+y,3/4-x,3/4-z
x,1/2+y,-z
3/4-y,3/4+x,3/4-z
1/2+x,1/2+y,1/2+z
1/4-y,3/4+x,3/4+z
1/2-x,-y,1/2+z
3/4+y,3/4-x,3/4+z
1/2-x,1/2-y,1/2-z
3/4+y,1/4-x,1/4-z
1/2+x,y,1/2-z
1/4-y,1/4+x,1/4-z
loop_
_atom_site_type_symbol
_atom_site_label
_atom_site_fract_x
_atom_site_fract_y
_atom_site_fract_z
Si Si1 0.000000 0.750000 0.875000
Si Si2 0.530398 0.367218 0.654585
Si Si3 0.924851 0.473486 0.710626
Si Si4 0.548521 0.142321 0.506744
Si Si5 0.430563 0.002989 0.927912
O O1 0.100767 0.772949 0.829168
O O2 0.500000 0.250000 0.664066
O O3 0.646947 0.369257 0.666451
O O4 0.502564 0.413290 0.574497
O O5 0.475313 0.426994 0.717818
O O6 0.891458 0.585151 0.728725
O O7 0.847282 0.585304 0.438014
O O8 0.001736 0.477108 0.643207
O O9 0.500000 0.250000 0.522540
O O10 0.500000 0.000000 0.000000
#
# Coordination Sequence:
#
# PCOD9546731 Si02
#       5
#     4  16  16  16  16
#     4   8  16  40  76  84 120 182 228 256 348 396
#     4  11  21  43  65  92 146 171 211 297 339 396
#     4  12  23  37  70 100 132 184 227 271 357 419
#     4   9  19  43  70  90 128 180 220 278 337 402
#     4  12  23  39  62 102 137 177 228 278 342 416
#
# _framework density 20.431080000000001
#
# number of rings (size 3 to 8) (size 9 to 14) (size 15 to 20)
#    0.706    0.471    7.059    1.412    0.000    0.000 
#    0.000    8.235    0.000    0.000    0.000    0.000 
#    0.000    0.000    0.000    0.000    0.000    0.000 
#
# Total GULP energy -189321.346584 kJ/mol
# GULP energy per Si atom -5568.274900 kJ/mol
# Density = 2.038458 g / cm^3
# Si number density = 20.431080 Si / 1000 Ang^3
#
#
#
# Elastic Constant Matrix: (Units=GPa)
#
#
# Indices 1 2 3 4 5 6 
#
# 1 92.8644 13.8435 4.8203 0.0000 0.0000 -8.0879
# 2 13.8435 92.8644 4.8203 0.0000 0.0000 8.0879
# 3 4.8203 4.8203 82.3488 0.0000 0.0000 0.0000
# 4 0.0000 0.0000 0.0000 -2.8288 0.0000 0.0000
# 5 0.0000 0.0000 0.0000 0.0000 -2.8288 0.0000
# 6 -8.0879 8.0879 0.0000 0.0000 0.0000 9.8623
#
#
#
# Elastic Compliance Matrix: (Units=1/GPa)
#
#
# Indices 1 2 3 4 5 6 
#
# 1 0.012315 -0.002893 -0.000551 0.000000 0.000000 0.012472
# 2 -0.002893 0.012315 -0.000551 0.000000 0.000000 -0.012472
# 3 -0.000551 -0.000551 0.012208 0.000000 0.000000 0.000000
# 4 0.000000 0.000000 0.000000 -0.353501 0.000000 0.000000
# 5 0.000000 0.000000 0.000000 0.000000 -0.353501 0.000000
# 6 0.012472 -0.012472 0.000000 0.000000 0.000000 0.121851
#
#
# Mechanical properties :
#
#
# Convention : Reuss Voigt Hill
#
# Bulk Modulus (GPa) = 34.66858 35.00506 34.83682
# Shear Modulus (GPa) = -9.42140 17.14717 3.86289
#
# Velocity S-wave (km/s) = -2.14972 2.90016 1.37652
# Velocity P-wave (km/s) = 3.29297 5.32776 4.42880
#
# Compressibility (1/GPa) = 0.02884456
#
# Stress axis : x y z
#
# Youngs Moduli (GPa) = 81.20479 81.20479 81.91334
#
# Poissons Ratio (x) = 0.23495 0.04517
# Poissons Ratio (y) = 0.23495 0.04517
# Poissons Ratio (z) = 0.04478 0.04478
#
# Static dielectric constant tensor:
#      x y z
#    x 1.651890 0.000000 0.000000 
#    y 0.000000 1.651890 0.000000 
#    z 0.000000 0.000000 1.944050 
# 
# From -- ./inp_files/3106.got.cif
#   From: 2010.05.17/outbox.cif.g08.bks.cpg/sg88_2_cif.got.tgz:3106.got - 2010.06.03 19:11:41.
