data_PCOD9546769
_publ_section_title
;
Structure prediction by ZEFSAII (Michael W. Deem and Ramdas Pophale) SiO2 
 PCOD9546769
Probable space group: I 41/A
;
_chemical_formula_sum "Si O2"
_cell_formula_units_Z 112
_cell_length_a 28.641769
_cell_length_b 28.641769
_cell_length_c 5.001961
_cell_angle_alpha 90.000000
_cell_angle_beta 90.000000
_cell_angle_gamma 90.000000
_cell_volume 4103.363365
_symmetry_space_group_name_H-M "I 41/A"
_symmetry_group_IT_number 88
_space_group.IT_coordinate_system_code '2'
_symmetry_cell_setting 'tetragonal'
loop_
_space_group_symop_operation_xyz
x,y,z
3/4-y,1/4+x,1/4+z
-x,1/2-y,z
1/4+y,1/4-x,1/4+z
-x,-y,-z
1/4+y,3/4-x,3/4-z
x,1/2+y,-z
3/4-y,3/4+x,3/4-z
1/2+x,1/2+y,1/2+z
1/4-y,3/4+x,3/4+z
1/2-x,-y,1/2+z
3/4+y,3/4-x,3/4+z
1/2-x,1/2-y,1/2-z
3/4+y,1/4-x,1/4-z
1/2+x,y,1/2-z
1/4-y,1/4+x,1/4-z
loop_
_atom_site_type_symbol
_atom_site_label
_atom_site_fract_x
_atom_site_fract_y
_atom_site_fract_z
Si Si1 0.588857 0.849911 0.614333
Si Si2 0.352023 0.601677 0.986309
Si Si3 0.758851 0.568217 0.698820
Si Si4 0.413759 0.522428 0.782371
Si Si5 0.678475 0.806063 0.275855
Si Si6 0.054828 0.301111 0.641702
Si Si7 0.824815 0.260638 0.270702
O O1 0.637563 0.874594 0.695989
O O2 0.584342 0.807192 0.409900
O O3 0.551120 0.885946 0.496462
O O4 0.569495 0.833826 0.900461
O O5 0.394223 0.564424 0.971430
O O6 0.348287 0.646483 0.177655
O O7 0.303539 0.573424 0.006256
O O8 0.787155 0.537491 0.911623
O O9 0.740937 0.621320 0.670079
O O10 0.427103 0.481365 0.981538
O O11 0.458643 0.532499 0.599584
O O12 0.672867 0.764332 0.056878
O O13 0.671261 0.782008 0.560990
O O14 0.059084 0.248771 0.538578
#
# Coordination Sequence:
#
# PCOD9546769 Si02
#       7
#    16  16  16  16  16  16  16
#     4  11  24  41  66  97 140 181 228 299 350 429
#     4   9  22  41  65  97 142 181 238 294 361 422
#     4   9  18  40  68  99 138 184 233 290 357 431
#     4   9  20  43  65  96 140 182 234 297 355 421
#     4  11  23  42  70  98 135 187 235 290 352 436
#     4  11  25  43  66  94 131 183 239 297 358 419
#     4  11  24  41  66 101 137 183 234 284 356 419
#
# _framework density 27.294685000000001
#
# number of rings (size 3 to 8) (size 9 to 14) (size 15 to 20)
#    0.000    1.857    0.000    2.571    6.000    1.143 
#    0.000   25.714    0.000    0.000    0.000    0.000 
#    0.000    0.000    0.000    0.000    0.000    0.000 
#
# Total GULP energy -312879.356653 kJ/mol
# GULP energy per Si atom -5587.131369 kJ/mol
# Density = 2.723256 g / cm^3
# Si number density = 27.294685 Si / 1000 Ang^3
#
#
#
# Elastic Constant Matrix: (Units=GPa)
#
#
# Indices 1 2 3 4 5 6 
#
# 1 120.3140 25.3100 16.6006 0.0000 0.0000 15.4508
# 2 25.3100 120.3140 16.6006 0.0000 0.0000 -15.4508
# 3 16.6006 16.6006 76.0165 0.0000 0.0000 0.0000
# 4 0.0000 0.0000 0.0000 17.2017 0.0000 0.0000
# 5 0.0000 0.0000 0.0000 0.0000 17.2017 0.0000
# 6 15.4508 -15.4508 0.0000 0.0000 0.0000 48.5079
#
#
#
# Elastic Compliance Matrix: (Units=1/GPa)
#
#
# Indices 1 2 3 4 5 6 
#
# 1 0.009485 -0.002258 -0.001578 0.000000 0.000000 -0.003740
# 2 -0.002258 0.009485 -0.001578 0.000000 0.000000 0.003740
# 3 -0.001578 -0.001578 0.013844 0.000000 0.000000 0.000000
# 4 0.000000 0.000000 0.000000 0.058134 0.000000 0.000000
# 5 0.000000 0.000000 0.000000 0.000000 0.058134 0.000000
# 6 -0.003740 0.003740 0.000000 0.000000 0.000000 0.022998
#
#
# Mechanical properties :
#
#
# Convention : Reuss Voigt Hill
#
# Bulk Modulus (GPa) = 45.48522 48.18522 46.83522
# Shear Modulus (GPa) = 26.28315 33.79115 30.03715
#
# Velocity S-wave (km/s) = 3.10649 3.52236 3.32094
# Velocity P-wave (km/s) = 5.43762 5.85104 5.64812
#
# Compressibility (1/GPa) = 0.02198516
#
# Stress axis : x y z
#
# Youngs Moduli (GPa) = 105.43380 105.43380 72.23169
#
# Poissons Ratio (x) = 0.23805 0.11400
# Poissons Ratio (y) = 0.23805 0.11400
# Poissons Ratio (z) = 0.16640 0.16640
#
# Static dielectric constant tensor:
#      x y z
#    x 2.228490 0.000000 0.000000 
#    y 0.000000 2.228490 0.000000 
#    z 0.000000 0.000000 2.170620 
# 
# From -- ./inp_files/796.got.cif
#   From: 2010.05.17/outbox.cif.g08.bks.cpg/sg88_1_cif.got.tgz:796.got - 2010.06.03 19:11:41.
