data_PCOD9546239
_publ_section_title
;
Structure prediction by ZEFSAII (Michael W. Deem and Ramdas Pophale) SiO2 
 PCOD9546239
Probable space group: I 41/A
;
_chemical_formula_sum "Si O2"
_cell_formula_units_Z 96
_cell_length_a 16.414914
_cell_length_b 16.414914
_cell_length_c 16.864738
_cell_angle_alpha 90.000000
_cell_angle_beta 90.000000
_cell_angle_gamma 90.000000
_cell_volume 4544.193563
_symmetry_space_group_name_H-M "I 41/A"
_symmetry_group_IT_number 88
_space_group.IT_coordinate_system_code '2'
_symmetry_cell_setting 'tetragonal'
loop_
_space_group_symop_operation_xyz
x,y,z
3/4-y,1/4+x,1/4+z
-x,1/2-y,z
1/4+y,1/4-x,1/4+z
-x,-y,-z
1/4+y,3/4-x,3/4-z
x,1/2+y,-z
3/4-y,3/4+x,3/4-z
1/2+x,1/2+y,1/2+z
1/4-y,3/4+x,3/4+z
1/2-x,-y,1/2+z
3/4+y,3/4-x,3/4+z
1/2-x,1/2-y,1/2-z
3/4+y,1/4-x,1/4-z
1/2+x,y,1/2-z
1/4-y,1/4+x,1/4-z
loop_
_atom_site_type_symbol
_atom_site_label
_atom_site_fract_x
_atom_site_fract_y
_atom_site_fract_z
Si Si1 0.736352 0.632695 0.482126
Si Si2 0.822384 0.581877 0.065134
Si Si3 0.836049 0.017353 0.102267
Si Si4 0.686940 0.161001 0.756294
Si Si5 0.453641 0.073593 0.817063
Si Si6 0.938701 0.875303 0.546353
O O1 0.712337 0.645766 0.574249
O O2 0.679225 0.576766 0.426588
O O3 0.815958 0.576994 0.496431
O O4 0.771684 0.714563 0.444454
O O5 0.801569 0.500452 0.114632
O O6 0.737920 0.629285 0.049635
O O7 0.874412 0.641150 0.121078
O O8 0.858959 0.560378 0.980135
O O9 0.654355 0.192217 0.841529
O O10 0.784644 0.172254 0.756827
O O11 0.633854 0.214366 0.695706
O O12 0.442781 0.150457 0.759954
#
# Coordination Sequence:
#
# PCOD9546239 Si02
#       6
#    16  16  16  16  16  16
#     4  11  22  33  54  79 113 139 187 226 277 326
#     4  10  18  35  58  74 104 137 187 218 269 321
#     4  10  20  36  55  80 101 146 183 232 268 323
#     4  10  21  31  56  79 113 150 176 215 270 345
#     4  11  20  32  51  83 111 144 180 222 273 334
#     4  10  19  33  52  78 108 145 183 211 271 331
#
# _framework density 21.125861
#
# number of rings (size 3 to 8) (size 9 to 14) (size 15 to 20)
#    0.000    1.667    5.000    2.000    7.000    0.667 
#    0.000    2.500    0.000    0.000    0.000    0.000 
#    0.000    0.000    0.000    0.000    0.000    0.000 
#
# Total GULP energy -267755.419715 kJ/mol
# GULP energy per Si atom -5578.237911 kJ/mol
# Density = 2.107778 g / cm^3
# Si number density = 21.125861 Si / 1000 Ang^3
#
#
#
# Elastic Constant Matrix: (Units=GPa)
#
#
# Indices 1 2 3 4 5 6 
#
# 1 29.0793 -14.9457 8.1076 0.0000 0.0000 -3.9777
# 2 -14.9457 29.0793 8.1076 0.0000 0.0000 3.9777
# 3 8.1076 8.1076 135.9191 0.0000 0.0000 0.0000
# 4 0.0000 0.0000 0.0000 24.3913 0.0000 0.0000
# 5 0.0000 0.0000 0.0000 0.0000 24.3913 0.0000
# 6 -3.9777 3.9777 0.0000 0.0000 0.0000 9.6443
#
#
#
# Elastic Compliance Matrix: (Units=1/GPa)
#
#
# Indices 1 2 3 4 5 6 
#
# 1 0.050247 0.025704 -0.004531 0.000000 0.000000 0.010123
# 2 0.025704 0.050247 -0.004531 0.000000 0.000000 -0.010123
# 3 -0.004531 -0.004531 0.007898 0.000000 0.000000 0.000000
# 4 0.000000 0.000000 0.000000 0.040998 0.000000 0.000000
# 5 0.000000 0.000000 0.000000 0.000000 0.040998 0.000000
# 6 0.010123 -0.010123 0.000000 0.000000 0.000000 0.112038
#
#
# Mechanical properties :
#
#
# Convention : Reuss Voigt Hill
#
# Bulk Modulus (GPa) = 7.05826 21.84631 14.45229
# Shear Modulus (GPa) = 15.80441 24.53928 20.17185
#
# Velocity S-wave (km/s) = 2.73812 3.41189 3.09340
# Velocity P-wave (km/s) = 3.65304 5.08771 4.42885
#
# Compressibility (1/GPa) = 0.14167806
#
# Stress axis : x y z
#
# Youngs Moduli (GPa) = 19.90155 19.90156 126.61728
#
# Poissons Ratio (x) = -0.51155 0.57364
# Poissons Ratio (y) = -0.51155 0.57364
# Poissons Ratio (z) = 0.09016 0.09016
#
# Static dielectric constant tensor:
#      x y z
#    x 1.803480 0.000000 0.000000 
#    y 0.000000 1.803480 0.000000 
#    z 0.000000 0.000000 1.870950 
# 
# From -- ./inp_files/3943.got.cif
#   From: 2010.05.17/outbox.cif.g08.bks.cpg/sg88_2_cif.got.tgz:3943.got - 2010.06.03 19:11:41.
