data_PCOD9546342
_publ_section_title
;
Structure prediction by ZEFSAII (Michael W. Deem and Ramdas Pophale) SiO2 
 PCOD9546342
Probable space group: I 41/A
;
_chemical_formula_sum "Si O2"
_cell_formula_units_Z 96
_cell_length_a 20.395841
_cell_length_b 20.395841
_cell_length_c 11.290209
_cell_angle_alpha 90.000000
_cell_angle_beta 90.000000
_cell_angle_gamma 90.000000
_cell_volume 4696.617769
_symmetry_space_group_name_H-M "I 41/A"
_symmetry_group_IT_number 88
_space_group.IT_coordinate_system_code '2'
_symmetry_cell_setting 'tetragonal'
loop_
_space_group_symop_operation_xyz
x,y,z
3/4-y,1/4+x,1/4+z
-x,1/2-y,z
1/4+y,1/4-x,1/4+z
-x,-y,-z
1/4+y,3/4-x,3/4-z
x,1/2+y,-z
3/4-y,3/4+x,3/4-z
1/2+x,1/2+y,1/2+z
1/4-y,3/4+x,3/4+z
1/2-x,-y,1/2+z
3/4+y,3/4-x,3/4+z
1/2-x,1/2-y,1/2-z
3/4+y,1/4-x,1/4-z
1/2+x,y,1/2-z
1/4-y,1/4+x,1/4-z
loop_
_atom_site_type_symbol
_atom_site_label
_atom_site_fract_x
_atom_site_fract_y
_atom_site_fract_z
Si Si1 0.108420 0.744006 0.372374
Si Si2 0.463644 0.107482 0.134809
Si Si3 0.720730 0.308667 0.013493
Si Si4 0.745046 0.956543 0.042477
Si Si5 0.174557 0.854172 0.737714
Si Si6 0.956928 0.842191 0.828256
O O1 0.057713 0.686544 0.404263
O O2 0.146233 0.722548 0.254058
O O3 0.161489 0.764123 0.469234
O O4 0.395492 0.142826 0.168538
O O5 0.522356 0.148478 0.193611
O O6 0.462121 0.037904 0.200978
O O7 0.711601 0.385418 0.976412
O O8 0.722164 0.311531 0.155876
O O9 0.821755 0.949171 0.009745
O O10 0.745839 0.970500 0.184980
O O11 0.154702 0.828701 0.866123
O O12 0.917006 0.775947 0.851896
#
# Coordination Sequence:
#
# PCOD9546342 Si02
#       6
#    16  16  16  16  16  16
#     4  11  23  36  58  85 114 149 191 239 293 348
#     4  10  20  36  55  83 112 149 192 231 289 347
#     4  10  20  37  59  78 115 152 188 237 290 354
#     4   9  19  38  61  82 112 158 200 242 296 353
#     4   9  18  36  58  80 114 153 189 232 300 351
#     4   9  19  32  55  83 116 147 186 240 288 346
#
# _framework density 20.440241
#
# number of rings (size 3 to 8) (size 9 to 14) (size 15 to 20)
#    0.000    2.333    1.667    0.500    2.333    2.000 
#    3.000    0.000    0.000    0.000    0.000    0.000 
#    0.000    0.000    0.000    0.000    0.000    0.000 
#
# Total GULP energy -267587.898294 kJ/mol
# GULP energy per Si atom -5574.747881 kJ/mol
# Density = 2.039372 g / cm^3
# Si number density = 20.440241 Si / 1000 Ang^3
#
#
#
# Elastic Constant Matrix: (Units=GPa)
#
#
# Indices 1 2 3 4 5 6 
#
# 1 27.9721 4.1657 -3.0555 0.0000 0.0000 -2.6577
# 2 4.1657 27.9721 -3.0555 0.0000 0.0000 2.6577
# 3 -3.0555 -3.0555 19.7365 0.0000 0.0000 0.0000
# 4 0.0000 0.0000 0.0000 25.5643 0.0000 0.0000
# 5 0.0000 0.0000 0.0000 0.0000 25.5643 0.0000
# 6 -2.6577 2.6577 0.0000 0.0000 0.0000 22.7677
#
#
#
# Elastic Compliance Matrix: (Units=1/GPa)
#
#
# Indices 1 2 3 4 5 6 
#
# 1 0.037595 -0.005535 0.004963 0.000000 0.000000 0.005034
# 2 -0.005535 0.037595 0.004963 0.000000 0.000000 -0.005034
# 3 0.004963 0.004963 0.052204 0.000000 0.000000 0.000000
# 4 0.000000 0.000000 0.000000 0.039117 0.000000 0.000000
# 5 0.000000 0.000000 0.000000 0.000000 0.039117 0.000000
# 6 0.005034 -0.005034 0.000000 0.000000 0.000000 0.045097
#
#
# Mechanical properties :
#
#
# Convention : Reuss Voigt Hill
#
# Bulk Modulus (GPa) = 7.34336 7.97666 7.66001
# Shear Modulus (GPa) = 17.40135 19.95431 18.67783
#
# Velocity S-wave (km/s) = 2.92092 3.12785 3.02615
# Velocity P-wave (km/s) = 3.86989 4.11771 3.99572
#
# Compressibility (1/GPa) = 0.13617737
#
# Stress axis : x y z
#
# Youngs Moduli (GPa) = 26.59946 26.59946 19.15552
#
# Poissons Ratio (x) = 0.14723 -0.09508
# Poissons Ratio (y) = 0.14723 -0.09508
# Poissons Ratio (z) = -0.13202 -0.13202
#
# Static dielectric constant tensor:
#      x y z
#    x 1.733520 0.000000 0.000000 
#    y 0.000000 1.733520 0.000000 
#    z 0.000000 0.000000 1.723490 
# 
# From -- ./inp_files/1712.got.cif
#   From: 2010.05.17/outbox.cif.g08.bks.cpg/sg88_1_cif.got.tgz:1712.got - 2010.06.03 19:11:41.
