data_PCOD9546867
_publ_section_title
;
Structure prediction by ZEFSAII (Michael W. Deem and Ramdas Pophale) SiO2 
 PCOD9546867
Probable space group: I 41/A
;
_chemical_formula_sum "Si O2"
_cell_formula_units_Z 44
_cell_length_a 8.327233
_cell_length_b 8.327233
_cell_length_c 26.823395
_cell_angle_alpha 90.000000
_cell_angle_beta 90.000000
_cell_angle_gamma 90.000000
_cell_volume 1860.009568
_symmetry_space_group_name_H-M "I 41/A"
_symmetry_group_IT_number 88
_space_group.IT_coordinate_system_code '2'
_symmetry_cell_setting 'tetragonal'
loop_
_space_group_symop_operation_xyz
x,y,z
3/4-y,1/4+x,1/4+z
-x,1/2-y,z
1/4+y,1/4-x,1/4+z
-x,-y,-z
1/4+y,3/4-x,3/4-z
x,1/2+y,-z
3/4-y,3/4+x,3/4-z
1/2+x,1/2+y,1/2+z
1/4-y,3/4+x,3/4+z
1/2-x,-y,1/2+z
3/4+y,3/4-x,3/4+z
1/2-x,1/2-y,1/2-z
3/4+y,1/4-x,1/4-z
1/2+x,y,1/2-z
1/4-y,1/4+x,1/4-z
loop_
_atom_site_type_symbol
_atom_site_label
_atom_site_fract_x
_atom_site_fract_y
_atom_site_fract_z
Si Si1 0.000000 0.250000 0.879550
Si Si2 0.184714 0.199915 0.195976
Si Si3 0.500000 0.250000 0.875000
Si Si4 0.915375 0.998431 0.553504
O O1 0.009115 0.418199 0.910166
O O2 0.852702 0.271650 0.841580
O O3 0.250000 0.250000 0.250000
O O4 0.000000 0.250000 0.185155
O O5 0.172995 0.008323 0.199159
O O6 0.587027 0.138956 0.834032
O O7 0.000000 0.000000 0.500000
#
# Coordination Sequence:
#
# PCOD9546867 Si02
#       4
#     8  16   4  16
#     4  12  29  52  80 119 163 216 271 346 424 496
#     4  12  30  51  84 122 168 217 285 350 432 517
#     4  12  26  52  80 120 164 208 278 336 436 518
#     4  12  30  51  81 115 164 217 275 349 426 509
#
# _framework density 23.655795000000001
#
# number of rings (size 3 to 8) (size 9 to 14) (size 15 to 20)
#    0.000    0.000    5.455    1.091   20.364    0.000 
#    0.000    0.000    0.000    0.000    0.000    0.000 
#    0.000    0.000    0.000    0.000    0.000    0.000 
#
# Total GULP energy -122776.089940 kJ/mol
# GULP energy per Si atom -5580.731361 kJ/mol
# Density = 2.360195 g / cm^3
# Si number density = 23.655795 Si / 1000 Ang^3
#
#
#
# Elastic Constant Matrix: (Units=GPa)
#
#
# Indices 1 2 3 4 5 6 
#
# 1 138.2183 41.5857 76.4207 0.0000 0.0000 1.3583
# 2 41.5857 138.2183 76.4207 0.0000 0.0000 -1.3583
# 3 76.4207 76.4207 235.4871 0.0000 0.0000 0.0000
# 4 0.0000 0.0000 0.0000 34.0215 0.0000 0.0000
# 5 0.0000 0.0000 0.0000 0.0000 34.0215 0.0000
# 6 1.3583 -1.3583 0.0000 0.0000 0.0000 40.9133
#
#
#
# Elastic Compliance Matrix: (Units=1/GPa)
#
#
# Indices 1 2 3 4 5 6 
#
# 1 0.009019 -0.001339 -0.002492 0.000000 0.000000 -0.000344
# 2 -0.001339 0.009019 -0.002492 0.000000 0.000000 0.000344
# 3 -0.002492 -0.002492 0.005864 0.000000 0.000000 0.000000
# 4 0.000000 0.000000 0.000000 0.029393 0.000000 0.000000
# 5 0.000000 0.000000 0.000000 0.000000 0.029393 0.000000
# 6 -0.000344 0.000344 0.000000 0.000000 0.000000 0.024465
#
#
# Mechanical properties :
#
#
# Convention : Reuss Voigt Hill
#
# Bulk Modulus (GPa) = 88.84870 100.08644 94.46757
# Shear Modulus (GPa) = 40.46846 42.95769 41.71307
#
# Velocity S-wave (km/s) = 4.14057 4.26602 4.20376
# Velocity P-wave (km/s) = 7.77815 8.16496 7.97390
#
# Compressibility (1/GPa) = 0.01125509
#
# Stress axis : x y z
#
# Youngs Moduli (GPa) = 110.87443 110.87442 170.52611
#
# Poissons Ratio (x) = 0.14845 0.42502
# Poissons Ratio (y) = 0.14845 0.42502
# Poissons Ratio (z) = 0.27635 0.27635
#
# Static dielectric constant tensor:
#      x y z
#    x 1.564800 0.000000 0.000000 
#    y 0.000000 1.564800 0.000000 
#    z 0.000000 0.000000 2.025680 
# 
# From -- ./inp_files/6078.got.cif
#   From: 2010.05.17/outbox.cif.g08.bks.cpg/sg88_4_cif.got.tgz:6078.got - 2010.06.03 19:11:41.
