data_PCOD9546909
_publ_section_title
;
Structure prediction by ZEFSAII (Michael W. Deem and Ramdas Pophale) SiO2 
 PCOD9546909
Probable space group: P 4 2 2
;
_chemical_formula_sum "Si O2"
_cell_formula_units_Z 40
_cell_length_a 14.415928
_cell_length_b 14.415928
_cell_length_c 8.743389
_cell_angle_alpha 90.000000
_cell_angle_beta 90.000000
_cell_angle_gamma 90.000000
_cell_volume 1817.042185
_symmetry_space_group_name_H-M "P 4 2 2"
_symmetry_group_IT_number 89
_symmetry_cell_setting 'tetragonal'
loop_
_space_group_symop_operation_xyz
x,y,z
-y,x,z
-x,-y,z
y,-x,z
x,-y,-z
-x,y,-z
y,x,-z
-y,-x,-z
loop_
_atom_site_type_symbol
_atom_site_label
_atom_site_fract_x
_atom_site_fract_y
_atom_site_fract_z
Si Si1 0.893128 0.884777 0.828284
Si Si2 0.836795 0.415351 0.610303
Si Si3 0.388363 0.997142 0.171049
Si Si4 0.484529 0.644296 0.315761
Si Si5 0.900560 0.265126 0.406431
O O1 0.862797 0.826549 0.679291
O O2 0.005370 0.873826 0.819679
O O3 0.858702 0.858702 0.000000
O O4 0.873868 0.500000 0.500000
O O5 0.903365 0.374130 0.737802
O O6 0.750144 0.458331 0.698665
O O7 0.826845 0.326853 0.500141
O O8 0.500000 0.000000 0.168888
O O9 0.335392 0.073180 0.268585
O O10 0.352947 0.000000 0.000000
O O11 0.401185 0.579265 0.257421
O O12 0.500000 0.636838 0.500000
O O13 0.000000 0.251252 0.500000
#
# Coordination Sequence:
#
# PCOD9546909 Si02
#       5
#     8   8   8   8   8
#     4   9  20  40  63  83 116 167 208 254 323 374
#     4  10  18  34  58  87 126 156 204 264 316 366
#     4  10  20  34  57  82 114 170 203 238 320 386
#     4   8  15  30  55  85 118 158 195 242 321 385
#     4  10  21  35  61  89 120 157 210 262 309 373
#
# _framework density 22.0138
#
# number of rings (size 3 to 8) (size 9 to 14) (size 15 to 20)
#    0.000    2.600    2.000    1.200    2.800    0.800 
#    0.000   17.000    0.000    0.000    0.000    0.000 
#    0.000    9.600    0.000    0.000    0.000    0.000 
#
# Total GULP energy -222768.962768 kJ/mol
# GULP energy per Si atom -5569.224069 kJ/mol
# Density = 2.196370 g / cm^3
# Si number density = 22.013800 Si / 1000 Ang^3
#
#
#
# Elastic Constant Matrix: (Units=GPa)
#
#
# Indices 1 2 3 4 5 6 
#
# 1 58.0967 -0.0334 21.7909 0.0000 0.0000 0.0000
# 2 -0.0334 58.0967 21.7909 0.0000 0.0000 0.0000
# 3 21.7909 21.7909 98.9702 0.0000 0.0000 0.0000
# 4 0.0000 0.0000 0.0000 21.2360 0.0000 0.0000
# 5 0.0000 0.0000 0.0000 0.0000 21.2360 0.0000
# 6 0.0000 0.0000 0.0000 0.0000 0.0000 18.1339
#
#
#
# Elastic Compliance Matrix: (Units=1/GPa)
#
#
# Indices 1 2 3 4 5 6 
#
# 1 0.018918 0.001715 -0.004543 0.000000 0.000000 0.000000
# 2 0.001715 0.018918 -0.004543 0.000000 0.000000 0.000000
# 3 -0.004543 -0.004543 0.012104 0.000000 0.000000 0.000000
# 4 0.000000 0.000000 0.000000 0.047090 0.000000 0.000000
# 5 0.000000 0.000000 0.000000 0.000000 0.047090 0.000000
# 6 0.000000 0.000000 0.000000 0.000000 0.000000 0.055145
#
#
# Mechanical properties :
#
#
# Convention : Reuss Voigt Hill
#
# Bulk Modulus (GPa) = 28.41064 33.58451 30.99757
# Shear Modulus (GPa) = 22.14949 23.56218 22.85583
#
# Velocity S-wave (km/s) = 3.17545 3.27515 3.22568
# Velocity P-wave (km/s) = 5.13600 5.43980 5.29008
#
# Compressibility (1/GPa) = 0.03519808
#
# Stress axis : x y z
#
# Youngs Moduli (GPa) = 52.86097 52.86097 82.61414
#
# Poissons Ratio (x) = -0.09064 0.37530
# Poissons Ratio (y) = -0.09064 0.37530
# Poissons Ratio (z) = 0.24013 0.24013
#
# Static dielectric constant tensor:
#      x y z
#    x 1.881720 0.000000 0.000000 
#    y 0.000000 1.881720 0.000000 
#    z 0.000000 0.000000 1.857420 
# 
# From -- ./inp_files/1003.got.cif
#   From: 2010.05.17/outbox.cif.g08.bks.cpg/sg89_1_cif.got.tgz:1003.got - 2010.06.03 19:15:31.
