data_PCOD9546879
_publ_section_title
;
Structure prediction by ZEFSAII (Michael W. Deem and Ramdas Pophale) SiO2 
 PCOD9546879
Probable space group: I 41/A
;
_chemical_formula_sum "Si O2"
_cell_formula_units_Z 64
_cell_length_a 15.553221
_cell_length_b 15.553221
_cell_length_c 9.780397
_cell_angle_alpha 90.000000
_cell_angle_beta 90.000000
_cell_angle_gamma 90.000000
_cell_volume 2365.904280
_symmetry_space_group_name_H-M "I 41/A"
_symmetry_group_IT_number 88
_space_group.IT_coordinate_system_code '2'
_symmetry_cell_setting 'tetragonal'
loop_
_space_group_symop_operation_xyz
x,y,z
3/4-y,1/4+x,1/4+z
-x,1/2-y,z
1/4+y,1/4-x,1/4+z
-x,-y,-z
1/4+y,3/4-x,3/4-z
x,1/2+y,-z
3/4-y,3/4+x,3/4-z
1/2+x,1/2+y,1/2+z
1/4-y,3/4+x,3/4+z
1/2-x,-y,1/2+z
3/4+y,3/4-x,3/4+z
1/2-x,1/2-y,1/2-z
3/4+y,1/4-x,1/4-z
1/2+x,y,1/2-z
1/4-y,1/4+x,1/4-z
loop_
_atom_site_type_symbol
_atom_site_label
_atom_site_fract_x
_atom_site_fract_y
_atom_site_fract_z
Si Si1 0.551031 0.892416 0.844799
Si Si2 0.187169 0.459642 0.019203
Si Si3 0.614183 0.720160 0.816031
Si Si4 0.448567 0.055520 0.839206
O O1 0.621407 0.822407 0.797550
O O2 0.471931 0.834376 0.785032
O O3 0.528675 0.990980 0.811910
O O4 0.555252 0.904830 0.009921
O O5 0.215785 0.538860 0.926428
O O6 0.087704 0.436669 0.002149
O O7 0.245682 0.383470 0.949576
O O8 0.620897 0.704678 0.978326
#
# Coordination Sequence:
#
# PCOD9546879 Si02
#       4
#    16  16  16  16
#     4   9  16  25  41  68 103 135 164 208 267 318
#     4   9  18  32  50  73 104 139 176 218 263 313
#     4   9  16  27  44  69 103 134 167 213 266 317
#     4   9  16  25  41  70 104 132 163 210 268 315
#
# _framework density 27.050967
#
# number of rings (size 3 to 8) (size 9 to 14) (size 15 to 20)
#    0.000    3.000    0.000    1.500    0.000    4.000 
#    0.000    0.000    0.000    1.500    0.000    0.000 
#    0.000  168.000    0.000    0.000    0.000    4.000 
#
# Total GULP energy -178660.553235 kJ/mol
# GULP energy per Si atom -5583.142289 kJ/mol
# Density = 2.698940 g / cm^3
# Si number density = 27.050967 Si / 1000 Ang^3
#
#
#
# Elastic Constant Matrix: (Units=GPa)
#
#
# Indices 1 2 3 4 5 6 
#
# 1 122.2072 19.0101 20.0333 0.0000 0.0000 8.2213
# 2 19.0101 122.2072 20.0333 0.0000 0.0000 -8.2213
# 3 20.0333 20.0333 49.6901 0.0000 0.0000 0.0000
# 4 0.0000 0.0000 0.0000 29.8471 0.0000 0.0000
# 5 0.0000 0.0000 0.0000 0.0000 29.8471 0.0000
# 6 8.2213 -8.2213 0.0000 0.0000 0.0000 19.5749
#
#
#
# Elastic Compliance Matrix: (Units=1/GPa)
#
#
# Indices 1 2 3 4 5 6 
#
# 1 0.009191 -0.001195 -0.003224 0.000000 0.000000 -0.004362
# 2 -0.001195 0.009191 -0.003224 0.000000 0.000000 0.004362
# 3 -0.003224 -0.003224 0.022724 0.000000 0.000000 0.000000
# 4 0.000000 0.000000 0.000000 0.033504 0.000000 0.000000
# 5 0.000000 0.000000 0.000000 0.000000 0.033504 0.000000
# 6 -0.004362 0.004362 0.000000 0.000000 0.000000 0.054750
#
#
# Mechanical properties :
#
#
# Convention : Reuss Voigt Hill
#
# Bulk Modulus (GPa) = 38.72785 45.80645 42.26715
# Shear Modulus (GPa) = 26.77317 31.52232 29.14774
#
# Velocity S-wave (km/s) = 3.14941 3.41734 3.28611
# Velocity P-wave (km/s) = 5.25098 5.70448 5.48242
#
# Compressibility (1/GPa) = 0.02582121
#
# Stress axis : x y z
#
# Youngs Moduli (GPa) = 108.80759 108.80759 44.00616
#
# Poissons Ratio (x) = 0.12998 0.14186
# Poissons Ratio (y) = 0.12998 0.14186
# Poissons Ratio (z) = 0.35076 0.35076
#
# Static dielectric constant tensor:
#      x y z
#    x 2.327660 0.000000 0.000000 
#    y 0.000000 2.327660 0.000000 
#    z 0.000000 0.000000 2.087740 
# 
# From -- ./inp_files/2351.got.cif
#   From: 2010.05.17/outbox.cif.g08.bks.cpg/sg88_2_cif.got.tgz:2351.got - 2010.06.03 19:11:41.
