data_PCOD9546911
_publ_section_title
;
Structure prediction by ZEFSAII (Michael W. Deem and Ramdas Pophale) SiO2 
 PCOD9546911
Probable space group: P 4 2 2
;
_chemical_formula_sum "Si O2"
_cell_formula_units_Z 48
_cell_length_a 22.946657
_cell_length_b 22.946657
_cell_length_c 5.443505
_cell_angle_alpha 90.000000
_cell_angle_beta 90.000000
_cell_angle_gamma 90.000000
_cell_volume 2866.272482
_symmetry_space_group_name_H-M "P 4 2 2"
_symmetry_group_IT_number 89
_symmetry_cell_setting 'tetragonal'
loop_
_space_group_symop_operation_xyz
x,y,z
-y,x,z
-x,-y,z
y,-x,z
x,-y,-z
-x,y,-z
y,x,-z
-y,-x,-z
loop_
_atom_site_type_symbol
_atom_site_label
_atom_site_fract_x
_atom_site_fract_y
_atom_site_fract_z
Si Si1 0.675137 0.794751 0.571947
Si Si2 0.878870 0.438901 0.564129
Si Si3 0.260261 0.438609 0.933871
Si Si4 0.675288 0.825603 0.070742
Si Si5 0.933295 0.402998 0.064403
Si Si6 0.685315 0.596313 0.431236
O O1 0.616363 0.835632 0.563539
O O2 0.706567 0.807816 0.319139
O O3 0.650390 0.730297 0.583936
O O4 0.706983 0.810839 0.820267
O O5 0.848210 0.500000 0.500000
O O6 0.923453 0.430165 0.335415
O O7 0.908395 0.439405 0.831599
O O8 0.214927 0.384430 0.933621
O O9 0.291000 0.439026 0.667818
O O10 0.230388 0.500000 0.000000
O O11 0.306160 0.430246 0.159340
O O12 0.653943 0.891981 0.070313
O O13 0.000000 0.391639 0.000000
O O14 0.622624 0.622624 0.500000
#
# Coordination Sequence:
#
# PCOD9546911 Si02
#       6
#     8   8   8   8   8   8
#     4   8  16  27  39  51  67  91 111 131 161 194
#     4  10  19  28  36  47  64  88 116 137 158 192
#     4  10  19  31  46  61  79 101 116 129 157 199
#     4   8  16  27  39  53  69  92 120 139 156 189
#     4  10  19  27  34  46  65  88 115 147 171 180
#     4  10  19  30  44  63  83  95 108 135 165 191
#
# _framework density 16.746490000000001
#
# number of rings (size 3 to 8) (size 9 to 14) (size 15 to 20)
#    0.000    2.667    0.000    2.000    0.000   14.000 
#    0.000    0.000    0.000    0.000    0.000    0.000 
#    0.000   23.333    0.000    0.000    0.000    0.000 
#
# Total GULP energy -267375.928951 kJ/mol
# GULP energy per Si atom -5570.331853 kJ/mol
# Density = 1.670837 g / cm^3
# Si number density = 16.746490 Si / 1000 Ang^3
#
#
#
# Elastic Constant Matrix: (Units=GPa)
#
#
# Indices 1 2 3 4 5 6 
#
# 1 13.1319 7.5560 0.2869 0.0000 0.0000 0.0000
# 2 7.5560 13.1319 0.2869 0.0000 0.0000 0.0000
# 3 0.2869 0.2869 153.0479 0.0000 0.0000 0.0000
# 4 0.0000 0.0000 0.0000 2.5773 0.0000 0.0000
# 5 0.0000 0.0000 0.0000 0.0000 2.5773 0.0000
# 6 0.0000 0.0000 0.0000 0.0000 0.0000 -4.3644
#
#
#
# Elastic Compliance Matrix: (Units=1/GPa)
#
#
# Indices 1 2 3 4 5 6 
#
# 1 0.113842 -0.065502 -0.000091 0.000000 0.000000 0.000000
# 2 -0.065502 0.113842 -0.000091 0.000000 0.000000 0.000000
# 3 -0.000091 -0.000091 0.006534 0.000000 0.000000 0.000000
# 4 0.000000 0.000000 0.000000 0.388003 0.000000 0.000000
# 5 0.000000 0.000000 0.000000 0.000000 0.388003 0.000000
# 6 0.000000 0.000000 0.000000 0.000000 0.000000 -0.229129
#
#
# Mechanical properties :
#
#
# Convention : Reuss Voigt Hill
#
# Bulk Modulus (GPa) = 9.72271 21.73014 15.72642
# Shear Modulus (GPa) = 5.28125 11.57017 8.42571
#
# Velocity S-wave (km/s) = 1.77778 2.63135 2.24550
# Velocity P-wave (km/s) = 3.16740 4.71552 4.01675
#
# Compressibility (1/GPa) = 0.10285201
#
# Stress axis : x y z
#
# Youngs Moduli (GPa) = 8.78411 8.78411 153.03998
#
# Poissons Ratio (x) = 0.57537 0.01387
# Poissons Ratio (y) = 0.57537 0.01387
# Poissons Ratio (z) = 0.00080 0.00080
#
# Static dielectric constant tensor:
#      x y z
#    x 1.574810 0.000000 0.000000 
#    y 0.000000 1.574810 0.000000 
#    z 0.000000 0.000000 1.701910 
# 
# From -- ./inp_files/495.got.cif
#   From: 2010.05.17/outbox.cif.g08.bks.cpg/sg89_1_cif.got.tgz:495.got - 2010.06.03 19:15:31.
