data_PCOD9546346
_publ_section_title
;
Structure prediction by ZEFSAII (Michael W. Deem and Ramdas Pophale) SiO2 
 PCOD9546346
Probable space group: I 41/A
;
_chemical_formula_sum "Si O2"
_cell_formula_units_Z 96
_cell_length_a 14.459149
_cell_length_b 14.459149
_cell_length_c 20.632755
_cell_angle_alpha 90.000000
_cell_angle_beta 90.000000
_cell_angle_gamma 90.000000
_cell_volume 4313.627979
_symmetry_space_group_name_H-M "I 41/A"
_symmetry_group_IT_number 88
_space_group.IT_coordinate_system_code '2'
_symmetry_cell_setting 'tetragonal'
loop_
_space_group_symop_operation_xyz
x,y,z
3/4-y,1/4+x,1/4+z
-x,1/2-y,z
1/4+y,1/4-x,1/4+z
-x,-y,-z
1/4+y,3/4-x,3/4-z
x,1/2+y,-z
3/4-y,3/4+x,3/4-z
1/2+x,1/2+y,1/2+z
1/4-y,3/4+x,3/4+z
1/2-x,-y,1/2+z
3/4+y,3/4-x,3/4+z
1/2-x,1/2-y,1/2-z
3/4+y,1/4-x,1/4-z
1/2+x,y,1/2-z
1/4-y,1/4+x,1/4-z
loop_
_atom_site_type_symbol
_atom_site_label
_atom_site_fract_x
_atom_site_fract_y
_atom_site_fract_z
Si Si1 0.213675 0.211508 0.999335
Si Si2 0.396847 0.847000 0.817954
Si Si3 0.424350 0.478317 0.894499
Si Si4 0.579305 0.579026 0.366009
Si Si5 0.261354 0.369850 0.837049
Si Si6 0.186670 0.505988 0.018840
O O1 0.127850 0.276242 0.983775
O O2 0.269839 0.206279 0.931568
O O3 0.179452 0.108257 0.009348
O O4 0.279650 0.229161 0.059814
O O5 0.388149 0.742597 0.841600
O O6 0.307162 0.885745 0.781815
O O7 0.403777 0.913423 0.880393
O O8 0.388308 0.582695 0.909092
O O9 0.334869 0.411930 0.889505
O O10 0.517492 0.452220 0.933109
O O11 0.629731 0.506567 0.413928
O O12 0.244302 0.454152 0.786615
#
# Coordination Sequence:
#
# PCOD9546346 Si02
#       6
#    16  16  16  16  16  16
#     4   9  20  35  54  83 114 145 196 244 283 361
#     4  11  20  35  58  82 114 159 198 244 305 361
#     4   9  20  37  59  84 115 153 195 251 305 362
#     4  10  20  36  57  83 118 157 198 251 303 355
#     4   9  19  35  56  80 112 153 195 247 303 364
#     4  10  20  36  58  84 116 156 198 251 306 359
#
# _framework density 22.255050000000001
#
# number of rings (size 3 to 8) (size 9 to 14) (size 15 to 20)
#    0.000    2.667    0.000    3.500    0.000    6.333 
#    0.000    7.500    0.000   26.000    0.000    0.000 
#    0.000    0.000    0.000    0.000    0.000    0.000 
#
# Total GULP energy -267487.615006 kJ/mol
# GULP energy per Si atom -5572.658646 kJ/mol
# Density = 2.220440 g / cm^3
# Si number density = 22.255050 Si / 1000 Ang^3
#
#
#
# Elastic Constant Matrix: (Units=GPa)
#
#
# Indices 1 2 3 4 5 6 
#
# 1 93.9489 13.0153 2.9692 0.0000 0.0000 -7.9864
# 2 13.0153 93.9489 2.9692 0.0000 0.0000 7.9864
# 3 2.9692 2.9692 53.5039 0.0000 0.0000 0.0000
# 4 0.0000 0.0000 0.0000 17.0562 0.0000 0.0000
# 5 0.0000 0.0000 0.0000 0.0000 17.0562 0.0000
# 6 -7.9864 7.9864 0.0000 0.0000 0.0000 23.4527
#
#
#
# Elastic Compliance Matrix: (Units=1/GPa)
#
#
# Indices 1 2 3 4 5 6 
#
# 1 0.011312 -0.001934 -0.000520 0.000000 0.000000 0.004511
# 2 -0.001934 0.011312 -0.000520 0.000000 0.000000 -0.004511
# 3 -0.000520 -0.000520 0.018748 0.000000 0.000000 0.000000
# 4 0.000000 0.000000 0.000000 0.058630 0.000000 0.000000
# 5 0.000000 0.000000 0.000000 0.000000 0.058630 0.000000
# 6 0.004511 -0.004511 0.000000 0.000000 0.000000 0.045711
#
#
# Mechanical properties :
#
#
# Convention : Reuss Voigt Hill
#
# Bulk Modulus (GPa) = 28.23110 31.03435 29.63272
# Shear Modulus (GPa) = 22.51244 26.34289 24.42766
#
# Velocity S-wave (km/s) = 3.18396 3.44420 3.31663
# Velocity P-wave (km/s) = 5.12149 5.45819 5.29251
#
# Compressibility (1/GPa) = 0.03542193
#
# Stress axis : x y z
#
# Youngs Moduli (GPa) = 88.40228 88.40228 53.33908
#
# Poissons Ratio (x) = 0.17098 0.02776
# Poissons Ratio (y) = 0.17098 0.02776
# Poissons Ratio (z) = 0.04601 0.04601
#
# Static dielectric constant tensor:
#      x y z
#    x 1.881770 0.000000 0.000000 
#    y 0.000000 1.881770 0.000000 
#    z 0.000000 0.000000 1.905930 
# 
# From -- ./inp_files/4728.got.cif
#   From: 2010.05.17/outbox.cif.g08.bks.cpg/sg88_3_cif.got.tgz:4728.got - 2010.06.03 19:11:41.
