data_PCOD9546575
_publ_section_title
;
Structure prediction by ZEFSAII (Michael W. Deem and Ramdas Pophale) SiO2 
 PCOD9546575
Probable space group: I 41/A
;
_chemical_formula_sum "Si O2"
_cell_formula_units_Z 56
_cell_length_a 10.877275
_cell_length_b 10.877275
_cell_length_c 19.834990
_cell_angle_alpha 90.000000
_cell_angle_beta 90.000000
_cell_angle_gamma 90.000000
_cell_volume 2346.779052
_symmetry_space_group_name_H-M "I 41/A"
_symmetry_group_IT_number 88
_space_group.IT_coordinate_system_code '2'
_symmetry_cell_setting 'tetragonal'
loop_
_space_group_symop_operation_xyz
x,y,z
3/4-y,1/4+x,1/4+z
-x,1/2-y,z
1/4+y,1/4-x,1/4+z
-x,-y,-z
1/4+y,3/4-x,3/4-z
x,1/2+y,-z
3/4-y,3/4+x,3/4-z
1/2+x,1/2+y,1/2+z
1/4-y,3/4+x,3/4+z
1/2-x,-y,1/2+z
3/4+y,3/4-x,3/4+z
1/2-x,1/2-y,1/2-z
3/4+y,1/4-x,1/4-z
1/2+x,y,1/2-z
1/4-y,1/4+x,1/4-z
loop_
_atom_site_type_symbol
_atom_site_label
_atom_site_fract_x
_atom_site_fract_y
_atom_site_fract_z
Si Si1 0.000000 0.250000 0.125000
Si Si2 0.500000 0.750000 0.125000
Si Si3 0.497729 0.614679 0.373072
Si Si4 0.115591 0.588648 0.489552
Si Si5 0.676602 0.942270 0.681742
O O1 0.104848 0.193936 0.075602
O O2 0.583352 0.839270 0.171701
O O3 0.500000 0.750000 0.402510
O O4 0.439219 0.623659 0.298288
O O5 0.630917 0.552692 0.367166
O O6 0.403527 0.530487 0.412034
O O7 0.230942 0.495354 0.489531
O O8 0.000000 0.500000 0.500000
#
# Coordination Sequence:
#
# PCOD9546575 Si02
#       5
#     4   4  16  16  16
#     4   8  20  44  64  88 130 184 232 268 328 416
#     4  12  24  36  64 104 138 172 220 288 364 402
#     4  11  22  44  66  97 139 178 230 285 345 416
#     4  12  22  40  66 103 138 175 225 288 353 415
#     4  10  22  41  68  90 134 184 222 282 343 403
#
# _framework density 23.862492
#
# number of rings (size 3 to 8) (size 9 to 14) (size 15 to 20)
#    0.000    1.143    4.286    1.714    0.000    0.000 
#    0.000   12.857    3.143    0.000    0.000    0.000 
#    0.000    0.000    0.000    0.000    0.000    0.000 
#
# Total GULP energy -156198.615938 kJ/mol
# GULP energy per Si atom -5578.521998 kJ/mol
# Density = 2.380818 g / cm^3
# Si number density = 23.862492 Si / 1000 Ang^3
#
#
#
# Elastic Constant Matrix: (Units=GPa)
#
#
# Indices 1 2 3 4 5 6 
#
# 1 99.6447 13.8187 -3.3661 0.0000 0.0000 -0.6258
# 2 13.8187 99.6447 -3.3661 0.0000 0.0000 0.6258
# 3 -3.3661 -3.3661 35.9858 0.0000 0.0000 0.0000
# 4 0.0000 0.0000 0.0000 5.4321 0.0000 0.0000
# 5 0.0000 0.0000 0.0000 0.0000 5.4321 0.0000
# 6 -0.6258 0.6258 0.0000 0.0000 0.0000 19.7761
#
#
#
# Elastic Compliance Matrix: (Units=1/GPa)
#
#
# Indices 1 2 3 4 5 6 
#
# 1 0.010260 -0.001397 0.000829 0.000000 0.000000 0.000369
# 2 -0.001397 0.010260 0.000829 0.000000 0.000000 -0.000369
# 3 0.000829 0.000829 0.027944 0.000000 0.000000 0.000000
# 4 0.000000 0.000000 0.000000 0.184092 0.000000 0.000000
# 5 0.000000 0.000000 0.000000 0.000000 0.184092 0.000000
# 6 0.000369 -0.000369 0.000000 0.000000 0.000000 0.050589
#
#
# Mechanical properties :
#
#
# Convention : Reuss Voigt Hill
#
# Bulk Modulus (GPa) = 20.41437 27.71645 24.06541
# Shear Modulus (GPa) = 10.35103 21.34063 15.84583
#
# Velocity S-wave (km/s) = 2.08499 2.99376 2.57971
# Velocity P-wave (km/s) = 3.79076 4.85699 4.35662
#
# Compressibility (1/GPa) = 0.04898511
#
# Stress axis : x y z
#
# Youngs Moduli (GPa) = 97.46841 97.46841 35.78606
#
# Poissons Ratio (x) = 0.13618 -0.02967
# Poissons Ratio (y) = 0.13618 -0.02967
# Poissons Ratio (z) = -0.08080 -0.08080
#
# Static dielectric constant tensor:
#      x y z
#    x 1.638600 0.000000 0.000000 
#    y 0.000000 1.638600 0.000000 
#    z 0.000000 0.000000 1.936680 
# 
# From -- ./inp_files/4363.got.cif
#   From: 2010.05.17/outbox.cif.g08.bks.cpg/sg88_3_cif.got.tgz:4363.got - 2010.06.03 19:11:41.
