data_PCOD9546616
_publ_section_title
;
Structure prediction by ZEFSAII (Michael W. Deem and Ramdas Pophale) SiO2 
 PCOD9546616
Probable space group: I 41/A
;
_chemical_formula_sum "Si O2"
_cell_formula_units_Z 112
_cell_length_a 15.459459
_cell_length_b 15.459459
_cell_length_c 20.253228
_cell_angle_alpha 90.000000
_cell_angle_beta 90.000000
_cell_angle_gamma 90.000000
_cell_volume 4840.417645
_symmetry_space_group_name_H-M "I 41/A"
_symmetry_group_IT_number 88
_space_group.IT_coordinate_system_code '2'
_symmetry_cell_setting 'tetragonal'
loop_
_space_group_symop_operation_xyz
x,y,z
3/4-y,1/4+x,1/4+z
-x,1/2-y,z
1/4+y,1/4-x,1/4+z
-x,-y,-z
1/4+y,3/4-x,3/4-z
x,1/2+y,-z
3/4-y,3/4+x,3/4-z
1/2+x,1/2+y,1/2+z
1/4-y,3/4+x,3/4+z
1/2-x,-y,1/2+z
3/4+y,3/4-x,3/4+z
1/2-x,1/2-y,1/2-z
3/4+y,1/4-x,1/4-z
1/2+x,y,1/2-z
1/4-y,1/4+x,1/4-z
loop_
_atom_site_type_symbol
_atom_site_label
_atom_site_fract_x
_atom_site_fract_y
_atom_site_fract_z
Si Si1 0.980944 0.422309 0.449033
Si Si2 0.585003 0.411367 0.772610
Si Si3 0.638597 0.052156 0.337128
Si Si4 0.825182 0.025844 0.608053
Si Si5 0.925419 0.322151 0.912791
Si Si6 0.748656 0.839024 0.010734
Si Si7 0.039063 0.485876 0.109076
O O1 0.928458 0.346359 0.485326
O O2 0.909713 0.467053 0.402027
O O3 0.000000 0.500000 0.500000
O O4 0.054992 0.377100 0.406098
O O5 0.616943 0.489290 0.724410
O O6 0.647876 0.408661 0.835180
O O7 0.487084 0.436027 0.787416
O O8 0.678682 0.143756 0.318126
O O9 0.552571 0.059190 0.380247
O O10 0.711213 0.000555 0.377755
O O11 0.790422 0.074325 0.542899
O O12 0.846276 0.322029 0.964316
O O13 0.968626 0.416360 0.915830
O O14 0.000000 0.250000 0.920309
O O15 0.752538 0.829311 0.932455
#
# Coordination Sequence:
#
# PCOD9546616 Si02
#       7
#    16  16  16  16  16  16  16
#     4  11  23  39  66  97 134 182 223 275 338 406
#     4  10  23  41  64  98 139 174 228 279 333 411
#     4  10  24  43  66  94 128 178 218 291 338 402
#     4  11  21  39  66  96 131 178 219 268 340 406
#     4  12  23  43  67 101 134 180 228 278 348 411
#     4  11  23  42  66  96 133 179 221 286 331 412
#     4  11  25  47  68  97 137 174 235 283 349 402
#
# _framework density 23.138498999999999
#
# number of rings (size 3 to 8) (size 9 to 14) (size 15 to 20)
#    0.000    1.143    2.857    4.286    4.000    0.286 
#    5.143    1.429    0.000    0.000    0.000    0.000 
#    0.000    0.000    0.000    0.000    0.000    0.000 
#
# Total GULP energy -313116.163337 kJ/mol
# GULP energy per Si atom -5591.360060 kJ/mol
# Density = 2.308583 g / cm^3
# Si number density = 23.138499 Si / 1000 Ang^3
#
#
#
# Elastic Constant Matrix: (Units=GPa)
#
#
# Indices 1 2 3 4 5 6 
#
# 1 84.7446 32.2868 -10.1306 0.0000 0.0000 -1.1034
# 2 32.2868 84.7446 -10.1306 0.0000 0.0000 1.1034
# 3 -10.1306 -10.1306 17.3538 0.0000 0.0000 0.0000
# 4 0.0000 0.0000 0.0000 14.1805 0.0000 0.0000
# 5 0.0000 0.0000 0.0000 0.0000 14.1805 0.0000
# 6 -1.1034 1.1034 0.0000 0.0000 0.0000 39.6620
#
#
#
# Elastic Compliance Matrix: (Units=1/GPa)
#
#
# Indices 1 2 3 4 5 6 
#
# 1 0.014295 -0.004790 0.005549 0.000000 0.000000 0.000531
# 2 -0.004790 0.014295 0.005549 0.000000 0.000000 -0.000531
# 3 0.005549 0.005549 0.064103 0.000000 0.000000 0.000000
# 4 0.000000 0.000000 0.000000 0.070520 0.000000 0.000000
# 5 0.000000 0.000000 0.000000 0.000000 0.070520 0.000000
# 6 0.000531 -0.000531 0.000000 0.000000 0.000000 0.025243
#
#
# Mechanical properties :
#
#
# Convention : Reuss Voigt Hill
#
# Bulk Modulus (GPa) = 9.49582 23.43269 16.46425
# Shear Modulus (GPa) = 17.76435 25.25908 21.51171
#
# Velocity S-wave (km/s) = 2.77382 3.30759 3.05240
# Velocity P-wave (km/s) = 3.79099 4.97353 4.42197
#
# Compressibility (1/GPa) = 0.10530953
#
# Stress axis : x y z
#
# Youngs Moduli (GPa) = 69.95292 69.95291 15.59991
#
# Poissons Ratio (x) = 0.33507 -0.08656
# Poissons Ratio (y) = 0.33507 -0.08656
# Poissons Ratio (z) = -0.38817 -0.38817
#
# Static dielectric constant tensor:
#      x y z
#    x 1.893790 0.000000 0.000000 
#    y 0.000000 1.893790 0.000000 
#    z 0.000000 0.000000 1.909680 
# 
# From -- ./inp_files/5352.got.cif
#   From: 2010.05.17/outbox.cif.g08.bks.cpg/sg88_3_cif.got.tgz:5352.got - 2010.06.03 19:11:41.
