data_PCOD9546982
_publ_section_title
;
Structure prediction by ZEFSAII (Michael W. Deem and Ramdas Pophale) SiO2 
 PCOD9546982
Probable space group: P 4 2 2
;
_chemical_formula_sum "Si O2"
_cell_formula_units_Z 64
_cell_length_a 12.076603
_cell_length_b 12.076603
_cell_length_c 23.738483
_cell_angle_alpha 90.000000
_cell_angle_beta 90.000000
_cell_angle_gamma 90.000000
_cell_volume 3462.123386
_symmetry_space_group_name_H-M "P 4 2 2"
_symmetry_group_IT_number 89
_symmetry_cell_setting 'tetragonal'
loop_
_space_group_symop_operation_xyz
x,y,z
-y,x,z
-x,-y,z
y,-x,z
x,-y,-z
-x,y,-z
y,x,-z
-y,-x,-z
loop_
_atom_site_type_symbol
_atom_site_label
_atom_site_fract_x
_atom_site_fract_y
_atom_site_fract_z
Si Si1 0.741908 0.854455 0.771214
Si Si2 0.102114 0.203491 0.542557
Si Si3 0.545226 0.115584 0.564165
Si Si4 0.117401 0.862608 0.663595
Si Si5 0.010457 0.812863 0.064003
Si Si6 0.080229 0.288231 0.825514
Si Si7 0.874670 0.492217 0.252171
Si Si8 0.477783 0.688565 0.652739
O O1 0.781978 0.825448 0.707711
O O2 0.809964 0.782300 0.814920
O O3 0.611235 0.843238 0.772478
O O4 0.764533 0.981880 0.787799
O O5 0.204509 0.204509 0.500000
O O6 0.086881 0.325500 0.563548
O O7 0.141084 0.133536 0.596511
O O8 0.000000 0.169574 0.500000
O O9 0.500000 0.126553 0.500000
O O10 0.524554 0.227481 0.599231
O O11 0.500000 0.000000 0.588692
O O12 0.988061 0.848998 0.675161
O O13 0.111600 0.900636 0.070947
O O14 0.033519 0.721574 0.111460
O O15 0.000000 0.770657 0.000000
O O16 0.108042 0.406022 0.798399
O O17 0.776366 0.463504 0.295668
O O18 0.000000 0.500000 0.278332
O O19 0.380865 0.594258 0.653511
#
# Coordination Sequence:
#
# PCOD9546982 Si02
#       8
#     8   8   8   8   8   8   8   8
#     4  11  22  36  59  87 123 160 204 249 310 376
#     4  12  25  41  62  87 116 155 186 244 314 380
#     4  11  26  45  66  88 113 149 201 248 312 390
#     4  11  23  35  56  87 116 144 189 240 305 376
#     4   9  17  30  54  93 131 173 215 258 305 357
#     4  11  20  35  59  90 126 167 207 261 304 366
#     4  10  24  40  59  87 123 161 204 248 314 376
#     4  11  26  45  66  87 114 152 202 263 315 371
#
# _framework density 18.485766999999999
#
# number of rings (size 3 to 8) (size 9 to 14) (size 15 to 20)
#    0.000    1.250    5.000    1.500    5.250    1.375 
#    0.000    0.625    0.000    3.375    0.000    0.000 
#    0.000    0.000    0.000    0.000   10.500    0.000 
#
# Total GULP energy -356499.175766 kJ/mol
# GULP energy per Si atom -5570.299621 kJ/mol
# Density = 1.844369 g / cm^3
# Si number density = 18.485767 Si / 1000 Ang^3
#
#
#
# Elastic Constant Matrix: (Units=GPa)
#
#
# Indices 1 2 3 4 5 6 
#
# 1 105.8605 38.2728 52.7988 0.0000 0.0000 0.0000
# 2 38.2728 105.8605 52.7988 0.0000 0.0000 0.0000
# 3 52.7988 52.7988 155.8885 0.0000 0.0000 0.0000
# 4 0.0000 0.0000 0.0000 28.3919 0.0000 0.0000
# 5 0.0000 0.0000 0.0000 0.0000 28.3919 0.0000
# 6 0.0000 0.0000 0.0000 0.0000 0.0000 4.0387
#
#
#
# Elastic Compliance Matrix: (Units=1/GPa)
#
#
# Indices 1 2 3 4 5 6 
#
# 1 0.012012 -0.002784 -0.003125 0.000000 0.000000 0.000000
# 2 -0.002784 0.012012 -0.003125 0.000000 0.000000 0.000000
# 3 -0.003125 -0.003125 0.008532 0.000000 0.000000 0.000000
# 4 0.000000 0.000000 0.000000 0.035221 0.000000 0.000000
# 5 0.000000 0.000000 0.000000 0.000000 0.035221 0.000000
# 6 0.000000 0.000000 0.000000 0.000000 0.000000 0.247603
#
#
# Mechanical properties :
#
#
# Convention : Reuss Voigt Hill
#
# Bulk Modulus (GPa) = 69.03247 72.81667 70.92457
# Shear Modulus (GPa) = 13.38690 27.08045 20.23368
#
# Velocity S-wave (km/s) = 2.69397 3.83160 3.31199
# Velocity P-wave (km/s) = 6.86304 7.68447 7.28534
#
# Compressibility (1/GPa) = 0.01448594
#
# Stress axis : x y z
#
# Youngs Moduli (GPa) = 83.25209 83.25209 117.20614
#
# Poissons Ratio (x) = 0.23176 0.36632
# Poissons Ratio (y) = 0.23176 0.36632
# Poissons Ratio (z) = 0.26020 0.26020
#
# Static dielectric constant tensor:
#      x y z
#    x 1.661330 0.000000 0.000000 
#    y 0.000000 1.661330 0.000000 
#    z 0.000000 0.000000 1.645180 
# 
# From -- ./inp_files/2815.got.cif
#   From: 2010.05.17/outbox.cif.g08.bks.cpg/sg89_2_cif.got.tgz:2815.got - 2010.06.03 19:15:31.
