data_PCOD9546786
_publ_section_title
;
Structure prediction by ZEFSAII (Michael W. Deem and Ramdas Pophale) SiO2 
 PCOD9546786
Probable space group: I 41/A
;
_chemical_formula_sum "Si O2"
_cell_formula_units_Z 96
_cell_length_a 20.613212
_cell_length_b 20.613212
_cell_length_c 9.495809
_cell_angle_alpha 90.000000
_cell_angle_beta 90.000000
_cell_angle_gamma 90.000000
_cell_volume 4034.812060
_symmetry_space_group_name_H-M "I 41/A"
_symmetry_group_IT_number 88
_space_group.IT_coordinate_system_code '2'
_symmetry_cell_setting 'tetragonal'
loop_
_space_group_symop_operation_xyz
x,y,z
3/4-y,1/4+x,1/4+z
-x,1/2-y,z
1/4+y,1/4-x,1/4+z
-x,-y,-z
1/4+y,3/4-x,3/4-z
x,1/2+y,-z
3/4-y,3/4+x,3/4-z
1/2+x,1/2+y,1/2+z
1/4-y,3/4+x,3/4+z
1/2-x,-y,1/2+z
3/4+y,3/4-x,3/4+z
1/2-x,1/2-y,1/2-z
3/4+y,1/4-x,1/4-z
1/2+x,y,1/2-z
1/4-y,1/4+x,1/4-z
loop_
_atom_site_type_symbol
_atom_site_label
_atom_site_fract_x
_atom_site_fract_y
_atom_site_fract_z
Si Si1 0.953685 0.924791 0.132475
Si Si2 0.703743 0.174740 0.942181
Si Si3 0.633480 0.587503 0.830126
Si Si4 0.818190 0.500384 0.861960
Si Si5 0.599545 0.782388 0.609961
Si Si6 0.047560 0.323933 0.558062
O O1 0.885833 0.961949 0.144808
O O2 0.948975 0.853450 0.203486
O O3 0.010638 0.962345 0.213768
O O4 0.970558 0.908051 0.971431
O O5 0.672425 0.122021 0.046895
O O6 0.768350 0.145499 0.878550
O O7 0.649595 0.191357 0.828432
O O8 0.682638 0.578989 0.698238
O O9 0.573286 0.628639 0.773360
O O10 0.790010 0.518234 0.709415
O O11 0.572671 0.711333 0.577149
O O12 0.062437 0.279738 0.698897
#
# Coordination Sequence:
#
# PCOD9546786 Si02
#       6
#    16  16  16  16  16  16
#     4  11  24  44  69  95 133 174 230 275 340 402
#     4  11  25  44  67 101 132 181 222 278 338 405
#     4  12  24  41  67  93 141 171 221 278 338 400
#     4  12  27  45  68  98 136 187 223 279 340 411
#     4  11  24  39  68 103 128 170 224 283 338 396
#     4   9  22  44  69  96 133 175 221 280 335 398
#
# _framework density 23.792929999999998
#
# number of rings (size 3 to 8) (size 9 to 14) (size 15 to 20)
#    0.000    1.000    5.000    0.000    7.000    2.667 
#    0.000    1.667    0.000    0.000    0.000    0.000 
#    0.000    0.000    0.000    0.000    0.000    0.000 
#
# Total GULP energy -268696.823774 kJ/mol
# GULP energy per Si atom -5597.850495 kJ/mol
# Density = 2.373878 g / cm^3
# Si number density = 23.792930 Si / 1000 Ang^3
#
#
#
# Elastic Constant Matrix: (Units=GPa)
#
#
# Indices 1 2 3 4 5 6 
#
# 1 97.2162 16.8716 8.1406 0.0000 0.0000 -15.7678
# 2 16.8716 97.2162 8.1406 0.0000 0.0000 15.7678
# 3 8.1406 8.1406 26.7104 0.0000 0.0000 0.0000
# 4 0.0000 0.0000 0.0000 3.6806 0.0000 0.0000
# 5 0.0000 0.0000 0.0000 0.0000 3.6806 0.0000
# 6 -15.7678 15.7678 0.0000 0.0000 0.0000 47.1851
#
#
#
# Elastic Compliance Matrix: (Units=1/GPa)
#
#
# Indices 1 2 3 4 5 6 
#
# 1 0.011745 -0.002581 -0.002793 0.000000 0.000000 0.004787
# 2 -0.002581 0.011745 -0.002793 0.000000 0.000000 -0.004787
# 3 -0.002793 -0.002793 0.039141 0.000000 0.000000 0.000000
# 4 0.000000 0.000000 0.000000 0.271692 0.000000 0.000000
# 5 0.000000 0.000000 0.000000 0.000000 0.271692 0.000000
# 6 0.004787 -0.004787 0.000000 0.000000 0.000000 0.024393
#
#
# Mechanical properties :
#
#
# Convention : Reuss Voigt Hill
#
# Bulk Modulus (GPa) = 21.59967 31.93873 26.76920
# Shear Modulus (GPa) = 7.55091 23.44195 15.49643
#
# Velocity S-wave (km/s) = 1.78339 3.14227 2.55483
# Velocity P-wave (km/s) = 3.65220 5.15926 4.46970
#
# Compressibility (1/GPa) = 0.04629701
#
# Stress axis : x y z
#
# Youngs Moduli (GPa) = 85.14597 85.14597 25.54864
#
# Poissons Ratio (x) = 0.21974 0.07135
# Poissons Ratio (y) = 0.21974 0.07135
# Poissons Ratio (z) = 0.23780 0.23780
#
# Static dielectric constant tensor:
#      x y z
#    x 1.902530 0.000000 0.000000 
#    y 0.000000 1.902530 0.000000 
#    z 0.000000 0.000000 1.915750 
# 
# From -- ./inp_files/2621.got.cif
#   From: 2010.05.17/outbox.cif.g08.bks.cpg/sg88_2_cif.got.tgz:2621.got - 2010.06.03 19:11:41.
