data_PCOD9546089
_publ_section_title
;
Structure prediction by ZEFSAII (Michael W. Deem and Ramdas Pophale) SiO2 
 PCOD9546089
Probable space group: I 4/M
;
_chemical_formula_sum "Si O2"
_cell_formula_units_Z 60
_cell_length_a 11.072120
_cell_length_b 11.072120
_cell_length_c 23.563658
_cell_angle_alpha 90.000000
_cell_angle_beta 90.000000
_cell_angle_gamma 90.000000
_cell_volume 2888.712222
_symmetry_space_group_name_H-M "I 4/M"
_symmetry_group_IT_number 87
_symmetry_cell_setting 'tetragonal'
loop_
_space_group_symop_operation_xyz
x,y,z
-y,x,z
-x,-y,z
y,-x,z
-x,-y,-z
y,-x,-z
x,y,-z
-y,x,-z
1/2+x,1/2+y,1/2+z
1/2-y,1/2+x,1/2+z
1/2-x,1/2-y,1/2+z
1/2+y,1/2-x,1/2+z
1/2-x,1/2-y,1/2-z
1/2+y,1/2-x,1/2-z
1/2+x,1/2+y,1/2-z
1/2-y,1/2+x,1/2-z
loop_
_atom_site_type_symbol
_atom_site_label
_atom_site_fract_x
_atom_site_fract_y
_atom_site_fract_z
Si Si1 0.918404 0.321738 0.235580
Si Si2 0.000000 0.000000 0.136134
Si Si3 0.285268 0.327726 0.379358
Si Si4 0.913118 0.186546 0.000000
Si Si5 0.104117 0.830193 0.342566
O O1 0.851239 0.440035 0.259546
O O2 0.876688 0.296028 0.172146
O O3 0.889094 0.208645 0.276297
O O4 0.874615 0.079523 0.132932
O O5 0.251414 0.375101 0.441721
O O6 0.267166 0.183303 0.376223
O O7 0.054790 0.152969 0.000000
O O8 0.962050 0.840590 0.354414
#
# Coordination Sequence:
#
# PCOD9546089 Si02
#       5
#    16   4  16   8  16
#     4  11  24  42  67 104 145 182 231 302 361 417
#     4  12  24  37  76  96 140 176 228 293 364 402
#     4  12  23  43  68 105 140 182 234 293 357 424
#     4  11  22  42  70 105 136 178 238 304 353 416
#     4  11  25  43  67  98 143 189 231 280 351 431
#
# _framework density 20.770500999999999
#
# number of rings (size 3 to 8) (size 9 to 14) (size 15 to 20)
#    0.000    0.667    5.333    2.400    3.733    0.000 
#    0.000    1.333    0.000    6.400    0.000    0.000 
#    0.000    0.000    0.000    0.000    0.000    0.000 
#
# Total GULP energy -167144.570960 kJ/mol
# GULP energy per Si atom -5571.485699 kJ/mol
# Density = 2.072323 g / cm^3
# Si number density = 20.770501 Si / 1000 Ang^3
#
#
#
# Elastic Constant Matrix: (Units=GPa)
#
#
# Indices 1 2 3 4 5 6 
#
# 1 101.8790 47.2928 12.1971 0.0000 0.0000 -8.6941
# 2 47.2928 101.8790 12.1971 0.0000 0.0000 8.6941
# 3 12.1971 12.1971 97.0202 0.0000 0.0000 0.0000
# 4 0.0000 0.0000 0.0000 22.3540 0.0000 0.0000
# 5 0.0000 0.0000 0.0000 0.0000 22.3540 0.0000
# 6 -8.6941 8.6941 0.0000 0.0000 0.0000 50.2508
#
#
#
# Elastic Compliance Matrix: (Units=1/GPa)
#
#
# Indices 1 2 3 4 5 6 
#
# 1 0.013116 -0.006272 -0.000860 0.000000 0.000000 0.003354
# 2 -0.006272 0.013116 -0.000860 0.000000 0.000000 -0.003354
# 3 -0.000860 -0.000860 0.010523 0.000000 0.000000 0.000000
# 4 0.000000 0.000000 0.000000 0.044735 0.000000 0.000000
# 5 0.000000 0.000000 0.000000 0.000000 0.044735 0.000000
# 6 0.003354 -0.003354 0.000000 0.000000 0.000000 0.021061
#
#
# Mechanical properties :
#
#
# Convention : Reuss Voigt Hill
#
# Bulk Modulus (GPa) = 48.14537 49.35026 48.74782
# Shear Modulus (GPa) = 29.37799 34.26450 31.82124
#
# Velocity S-wave (km/s) = 3.76494 4.06602 3.91837
# Velocity P-wave (km/s) = 6.49074 6.77161 6.63266
#
# Compressibility (1/GPa) = 0.02077043
#
# Stress axis : x y z
#
# Youngs Moduli (GPa) = 76.24109 76.24109 95.02559
#
# Poissons Ratio (x) = 0.47818 0.08177
# Poissons Ratio (y) = 0.47818 0.08177
# Poissons Ratio (z) = 0.06560 0.06560
#
# Static dielectric constant tensor:
#      x y z
#    x 1.773530 0.000000 0.000000 
#    y 0.000000 1.773530 0.000000 
#    z 0.000000 0.000000 1.752710 
# 
# From -- ./inp_files/5003.got.cif
#   From: 2010.05.17/outbox.cif.g08.bks.cpg/sg87_3_cif.got.tgz:5003.got - 2010.06.03 19:07:00.
