data_PCOD9546997
_publ_section_title
;
Structure prediction by ZEFSAII (Michael W. Deem and Ramdas Pophale) SiO2 
 PCOD9546997
Probable space group: P 4 2 2
;
_chemical_formula_sum "Si O2"
_cell_formula_units_Z 32
_cell_length_a 13.211026
_cell_length_b 13.211026
_cell_length_c 9.868522
_cell_angle_alpha 90.000000
_cell_angle_beta 90.000000
_cell_angle_gamma 90.000000
_cell_volume 1722.365066
_symmetry_space_group_name_H-M "P 4 2 2"
_symmetry_group_IT_number 89
_symmetry_cell_setting 'tetragonal'
loop_
_space_group_symop_operation_xyz
x,y,z
-y,x,z
-x,-y,z
y,-x,z
x,-y,-z
-x,y,-z
y,x,-z
-y,-x,-z
loop_
_atom_site_type_symbol
_atom_site_label
_atom_site_fract_x
_atom_site_fract_y
_atom_site_fract_z
Si Si1 0.435315 0.223900 0.270500
Si Si2 0.500000 0.331170 0.000000
Si Si3 0.622062 0.975358 0.148561
Si Si4 0.297331 0.297331 0.500000
Si Si5 0.904378 0.617216 0.399251
O O1 0.364223 0.139230 0.200081
O O2 0.376399 0.301751 0.371446
O O3 0.514569 0.156951 0.357960
O O4 0.493443 0.271127 0.141664
O O5 0.598137 0.401864 0.000000
O O6 0.500000 0.000000 0.146348
O O7 0.661944 0.050148 0.261962
O O8 0.660401 0.000000 0.000000
O O9 0.182994 0.313259 0.455757
O O10 0.000000 0.605971 0.500000
#
# Coordination Sequence:
#
# PCOD9546997 Si02
#       5
#     8   4   8   4   8
#     4  11  22  37  61  91 122 167 217 264 312 375
#     4  11  24  42  57  84 140 182 209 254 313 390
#     4   9  18  33  59  86 111 152 200 261 310 363
#     4  12  24  32  60  98 122 162 208 272 316 388
#     4  11  22  39  60  87 126 159 206 266 323 376
#
# _framework density 18.579103
#
# number of rings (size 3 to 8) (size 9 to 14) (size 15 to 20)
#    0.000    1.375    2.500    5.250    7.000    0.000 
#    0.000    0.000    0.000    1.875    0.000    0.000 
#    0.000    2.000    0.000    0.000    0.000    0.000 
#
# Total GULP energy -178253.723906 kJ/mol
# GULP energy per Si atom -5570.428872 kJ/mol
# Density = 1.853682 g / cm^3
# Si number density = 18.579103 Si / 1000 Ang^3
#
#
#
# Elastic Constant Matrix: (Units=GPa)
#
#
# Indices 1 2 3 4 5 6 
#
# 1 75.5009 43.3091 57.8224 0.0000 0.0000 0.0000
# 2 43.3091 75.5013 57.8222 0.0000 0.0000 0.0000
# 3 57.8224 57.8222 189.2173 0.0000 0.0000 0.0000
# 4 0.0000 0.0000 0.0000 33.9451 0.0000 0.0000
# 5 0.0000 0.0000 0.0000 0.0000 33.9456 0.0000
# 6 0.0000 0.0000 0.0000 0.0000 0.0000 12.9559
#
#
#
# Elastic Compliance Matrix: (Units=1/GPa)
#
#
# Indices 1 2 3 4 5 6 
#
# 1 0.021522 -0.009542 -0.003661 0.000000 0.000000 0.000000
# 2 -0.009542 0.021522 -0.003661 0.000000 0.000000 0.000000
# 3 -0.003661 -0.003661 0.007522 0.000000 0.000000 0.000000
# 4 0.000000 0.000000 0.000000 0.029459 0.000000 0.000000
# 5 0.000000 0.000000 0.000000 0.000000 0.029459 0.000000
# 6 0.000000 0.000000 0.000000 0.000000 0.000000 0.077185
#
#
# Mechanical properties :
#
#
# Convention : Reuss Voigt Hill
#
# Bulk Modulus (GPa) = 59.38629 73.12523 66.25576
# Shear Modulus (GPa) = 22.12290 28.25368 25.18829
#
# Velocity S-wave (km/s) = 3.45446 3.90388 3.68602
# Velocity P-wave (km/s) = 6.92419 7.73076 7.33856
#
# Compressibility (1/GPa) = 0.01683890
#
# Stress axis : x y z
#
# Youngs Moduli (GPa) = 46.46399 46.46444 132.93557
#
# Poissons Ratio (x) = 0.44335 0.48668
# Poissons Ratio (y) = 0.44335 0.48667
# Poissons Ratio (z) = 0.17011 0.17010
#
# Static dielectric constant tensor:
#      x y z
#    x 1.650220 0.000000 0.000000 
#    y 0.000000 1.650220 0.000000 
#    z 0.000000 0.000000 1.765920 
# 
# From -- ./inp_files/890.got.cif
#   From: 2010.05.17/outbox.cif.g08.bks.cpg/sg89_1_cif.got.tgz:890.got - 2010.06.03 19:15:31.
