data_PCOD9546585
_publ_section_title
;
Structure prediction by ZEFSAII (Michael W. Deem and Ramdas Pophale) SiO2 
 PCOD9546585
Probable space group: I 41/A
;
_chemical_formula_sum "Si O2"
_cell_formula_units_Z 96
_cell_length_a 13.988301
_cell_length_b 13.988301
_cell_length_c 18.312898
_cell_angle_alpha 90.000000
_cell_angle_beta 90.000000
_cell_angle_gamma 90.000000
_cell_volume 3583.331722
_symmetry_space_group_name_H-M "I 41/A"
_symmetry_group_IT_number 88
_space_group.IT_coordinate_system_code '2'
_symmetry_cell_setting 'tetragonal'
loop_
_space_group_symop_operation_xyz
x,y,z
3/4-y,1/4+x,1/4+z
-x,1/2-y,z
1/4+y,1/4-x,1/4+z
-x,-y,-z
1/4+y,3/4-x,3/4-z
x,1/2+y,-z
3/4-y,3/4+x,3/4-z
1/2+x,1/2+y,1/2+z
1/4-y,3/4+x,3/4+z
1/2-x,-y,1/2+z
3/4+y,3/4-x,3/4+z
1/2-x,1/2-y,1/2-z
3/4+y,1/4-x,1/4-z
1/2+x,y,1/2-z
1/4-y,1/4+x,1/4-z
loop_
_atom_site_type_symbol
_atom_site_label
_atom_site_fract_x
_atom_site_fract_y
_atom_site_fract_z
Si Si1 0.500000 0.750000 0.625000
Si Si2 0.998877 0.045724 0.397883
Si Si3 0.020308 0.548144 0.108220
Si Si4 0.706155 0.099490 0.249548
Si Si5 0.500000 0.750000 0.924506
Si Si6 0.993182 0.099310 0.228880
Si Si7 0.000000 0.250000 0.625000
Si Si8 0.139441 0.912278 0.332295
O O1 0.431079 0.806126 0.568573
O O2 0.000489 0.138002 0.450803
O O3 0.987461 0.081310 0.314218
O O4 0.910275 0.976199 0.409392
O O5 0.096916 0.983385 0.395374
O O6 0.922877 0.519963 0.066012
O O7 0.001982 0.656742 0.125437
O O8 0.029516 0.496686 0.185661
O O9 0.116056 0.529358 0.061532
O O10 0.603692 0.127682 0.282034
O O11 0.682637 0.991490 0.224314
O O12 0.088454 0.203744 0.578322
#
# Coordination Sequence:
#
# PCOD9546585 Si02
#       8
#     4  16  16  16   8  16   4  16
#     4  12  22  40  72 108 154 192 236 298 394 464
#     4  10  22  42  75 107 147 199 249 324 378 455
#     4  11  24  42  67 103 151 195 242 316 380 450
#     4  10  22  43  69 106 150 193 253 310 373 467
#     4  12  23  46  67  97 150 189 241 311 368 438
#     4  11  22  41  70 109 146 194 251 304 384 465
#     4   8  16  32  74 112 142 192 246 316 384 434
#     4   9  18  41  70 112 145 192 257 314 382 449
#
# _framework density 26.790711000000002
#
# number of rings (size 3 to 8) (size 9 to 14) (size 15 to 20)
#    0.000    1.667    5.000    0.500    0.000    1.333 
#    3.000   10.833    0.000    5.000    0.000    0.000 
#    0.000    0.000    0.000    0.000    0.000    0.000 
#
# Total GULP energy -267670.332349 kJ/mol
# GULP energy per Si atom -5576.465257 kJ/mol
# Density = 2.672973 g / cm^3
# Si number density = 26.790711 Si / 1000 Ang^3
#
#
#
# Elastic Constant Matrix: (Units=GPa)
#
#
# Indices 1 2 3 4 5 6 
#
# 1 171.7584 55.3501 20.4576 0.0000 0.0000 -3.3238
# 2 55.3501 171.7584 20.4576 0.0000 0.0000 3.3238
# 3 20.4576 20.4576 92.2068 0.0000 0.0000 0.0000
# 4 0.0000 0.0000 0.0000 3.4730 0.0000 0.0000
# 5 0.0000 0.0000 0.0000 0.0000 3.4730 0.0000
# 6 -3.3238 3.3238 0.0000 0.0000 0.0000 55.6390
#
#
#
# Elastic Compliance Matrix: (Units=1/GPa)
#
#
# Indices 1 2 3 4 5 6 
#
# 1 0.006603 -0.002017 -0.001018 0.000000 0.000000 0.000515
# 2 -0.002017 0.006603 -0.001018 0.000000 0.000000 -0.000515
# 3 -0.001018 -0.001018 0.011297 0.000000 0.000000 0.000000
# 4 0.000000 0.000000 0.000000 0.287934 0.000000 0.000000
# 5 0.000000 0.000000 0.000000 0.000000 0.287934 0.000000
# 6 0.000515 -0.000515 0.000000 0.000000 0.000000 0.018035
#
#
# Mechanical properties :
#
#
# Convention : Reuss Voigt Hill
#
# Bulk Modulus (GPa) = 60.97794 69.80603 65.39198
# Shear Modulus (GPa) = 7.91169 35.14757 21.52963
#
# Velocity S-wave (km/s) = 1.72034 3.62599 2.83790
# Velocity P-wave (km/s) = 5.17265 6.60629 5.93293
#
# Compressibility (1/GPa) = 0.01639937
#
# Stress axis : x y z
#
# Youngs Moduli (GPa) = 151.44213 151.44213 88.52126
#
# Poissons Ratio (x) = 0.30541 0.09008
# Poissons Ratio (y) = 0.30541 0.09008
# Poissons Ratio (z) = 0.15411 0.15411
#
# Static dielectric constant tensor:
#      x y z
#    x 2.189820 0.000000 0.000000 
#    y 0.000000 2.189820 0.000000 
#    z 0.000000 0.000000 2.169250 
# 
# From -- ./inp_files/5315.got.cif
#   From: 2010.05.17/outbox.cif.g08.bks.cpg/sg88_3_cif.got.tgz:5315.got - 2010.06.03 19:11:41.
