data_PCOD9546844
_publ_section_title
;
Structure prediction by ZEFSAII (Michael W. Deem and Ramdas Pophale) SiO2 
 PCOD9546844
Probable space group: I 41/A
;
_chemical_formula_sum "Si O2"
_cell_formula_units_Z 72
_cell_length_a 10.614998
_cell_length_b 10.614998
_cell_length_c 27.483498
_cell_angle_alpha 90.000000
_cell_angle_beta 90.000000
_cell_angle_gamma 90.000000
_cell_volume 3096.790604
_symmetry_space_group_name_H-M "I 41/A"
_symmetry_group_IT_number 88
_space_group.IT_coordinate_system_code '2'
_symmetry_cell_setting 'tetragonal'
loop_
_space_group_symop_operation_xyz
x,y,z
3/4-y,1/4+x,1/4+z
-x,1/2-y,z
1/4+y,1/4-x,1/4+z
-x,-y,-z
1/4+y,3/4-x,3/4-z
x,1/2+y,-z
3/4-y,3/4+x,3/4-z
1/2+x,1/2+y,1/2+z
1/4-y,3/4+x,3/4+z
1/2-x,-y,1/2+z
3/4+y,3/4-x,3/4+z
1/2-x,1/2-y,1/2-z
3/4+y,1/4-x,1/4-z
1/2+x,y,1/2-z
1/4-y,1/4+x,1/4-z
loop_
_atom_site_type_symbol
_atom_site_label
_atom_site_fract_x
_atom_site_fract_y
_atom_site_fract_z
Si Si1 0.624298 0.034179 0.157414
Si Si2 0.619366 0.844833 0.066526
Si Si3 0.000000 0.750000 0.135346
Si Si4 0.002337 0.115035 0.162884
Si Si5 0.142711 0.089039 0.791628
O O1 0.609687 0.181768 0.145142
O O2 0.630886 0.947906 0.108702
O O3 0.491952 0.992526 0.180882
O O4 0.734294 0.988047 0.192932
O O5 0.500000 0.750000 0.072600
O O6 0.612122 0.900963 0.012738
O O7 0.889731 0.802486 0.169909
O O8 0.886411 0.128215 0.123036
O O9 0.000000 0.250000 0.060023
O O10 0.977455 0.002686 0.198511
#
# Coordination Sequence:
#
# PCOD9546844 Si02
#       5
#    16  16   8  16  16
#     4  12  26  49  67 105 147 180 234 307 342 413
#     4  12  24  46  74 100 144 186 228 299 355 413
#     4  12  26  42  76 103 140 191 242 274 366 428
#     4   6  16  37  61  92 135 190 218 279 346 403
#     4  12  23  42  73 107 138 185 242 283 355 431
#
# _framework density 23.249874999999999
#
# number of rings (size 3 to 8) (size 9 to 14) (size 15 to 20)
#    1.333    0.000    5.556    1.333    3.111    1.778 
#    2.000    1.111    0.000    0.000    0.000    0.000 
#    0.000    0.000    0.000    0.000    0.000    0.000 
#
# Total GULP energy -200765.532057 kJ/mol
# GULP energy per Si atom -5576.820335 kJ/mol
# Density = 2.319696 g / cm^3
# Si number density = 23.249875 Si / 1000 Ang^3
#
#
#
# Elastic Constant Matrix: (Units=GPa)
#
#
# Indices 1 2 3 4 5 6 
#
# 1 62.6745 -8.2782 29.4561 0.0000 0.0000 -4.2407
# 2 -8.2782 62.6745 29.4561 0.0000 0.0000 4.2407
# 3 29.4561 29.4561 107.0636 0.0000 0.0000 0.0000
# 4 0.0000 0.0000 0.0000 12.0744 0.0000 0.0000
# 5 0.0000 0.0000 0.0000 0.0000 12.0744 0.0000
# 6 -4.2407 4.2407 0.0000 0.0000 0.0000 40.5088
#
#
#
# Elastic Compliance Matrix: (Units=1/GPa)
#
#
# Indices 1 2 3 4 5 6 
#
# 1 0.020229 0.005957 -0.007205 0.000000 0.000000 0.001494
# 2 0.005957 0.020229 -0.007205 0.000000 0.000000 -0.001494
# 3 -0.007205 -0.007205 0.013305 0.000000 0.000000 0.000000
# 4 0.000000 0.000000 0.000000 0.082820 0.000000 0.000000
# 5 0.000000 0.000000 0.000000 0.000000 0.082820 0.000000
# 6 0.001494 -0.001494 0.000000 0.000000 0.000000 0.024999
#
#
# Mechanical properties :
#
#
# Convention : Reuss Voigt Hill
#
# Bulk Modulus (GPa) = 27.13046 37.07562 32.10304
# Shear Modulus (GPa) = 18.27538 25.05011 21.66275
#
# Velocity S-wave (km/s) = 2.80669 3.28598 3.05575
# Velocity P-wave (km/s) = 4.71145 5.51164 5.12718
#
# Compressibility (1/GPa) = 0.03685894
#
# Stress axis : x y z
#
# Youngs Moduli (GPa) = 49.43300 49.43300 75.16206
#
# Poissons Ratio (x) = -0.29447 0.54151
# Poissons Ratio (y) = -0.29447 0.54151
# Poissons Ratio (z) = 0.35614 0.35614
#
# Static dielectric constant tensor:
#      x y z
#    x 1.946790 0.000000 0.000000 
#    y 0.000000 1.946790 0.000000 
#    z 0.000000 0.000000 1.856840 
# 
# From -- ./inp_files/6237.got.cif
#   From: 2010.05.17/outbox.cif.g08.bks.cpg/sg88_4_cif.got.tgz:6237.got - 2010.06.03 19:11:41.
