data_PCOD9546963
_publ_section_title
;
Structure prediction by ZEFSAII (Michael W. Deem and Ramdas Pophale) SiO2 
 PCOD9546963
Probable space group: P 4 2 2
;
_chemical_formula_sum "Si O2"
_cell_formula_units_Z 48
_cell_length_a 9.271007
_cell_length_b 9.271007
_cell_length_c 31.032231
_cell_angle_alpha 90.000000
_cell_angle_beta 90.000000
_cell_angle_gamma 90.000000
_cell_volume 2667.269000
_symmetry_space_group_name_H-M "P 4 2 2"
_symmetry_group_IT_number 89
_symmetry_cell_setting 'tetragonal'
loop_
_space_group_symop_operation_xyz
x,y,z
-y,x,z
-x,-y,z
y,-x,z
x,-y,-z
-x,y,-z
y,x,-z
-y,-x,-z
loop_
_atom_site_type_symbol
_atom_site_label
_atom_site_fract_x
_atom_site_fract_y
_atom_site_fract_z
Si Si1 0.862678 0.655061 0.479541
Si Si2 0.000000 0.753666 0.000000
Si Si3 0.770365 0.917406 0.708760
Si Si4 0.772714 0.082530 0.391135
Si Si5 0.431391 0.266704 0.765943
Si Si6 0.737605 0.462086 0.866094
Si Si7 0.500000 0.000000 0.069759
O O1 0.864789 0.500000 0.500000
O O2 0.725444 0.725444 0.500000
O O3 0.873957 0.662235 0.428261
O O4 0.000000 0.737114 0.500000
O O5 0.139406 0.860595 0.000000
O O6 0.981988 0.642100 0.960106
O O7 0.727634 0.901826 0.658479
O O8 0.640010 0.859548 0.737882
O O9 0.916820 0.821944 0.715810
O O10 0.916935 0.178051 0.397121
O O11 0.593064 0.327795 0.758169
O O12 0.438559 0.220504 0.816108
O O13 0.658265 0.615150 0.872556
O O14 0.866929 0.461840 0.899282
#
# Coordination Sequence:
#
# PCOD9546963 Si02
#       7
#     8   4   8   8   8   8   4
#     4  11  22  36  56  80 107 138 177 218 267 327
#     4  10  22  38  54  80 120 154 184 236 294 342
#     4   9  19  35  55  81 110 138 177 226 274 328
#     4   9  17  34  58  80 103 136 176 221 267 315
#     4   9  19  36  54  77 111 148 182 220 273 331
#     4   9  19  35  55  80 112 145 187 238 278 325
#     4  11  20  34  60  84 106 150 202 232 279 340
#
# _framework density 17.995937000000001
#
# number of rings (size 3 to 8) (size 9 to 14) (size 15 to 20)
#    0.000    2.417    1.667    3.000    0.000    3.667 
#    3.000    0.000    0.000    6.000    0.000    0.000 
#    0.000    0.000    0.000    0.000    0.000    0.000 
#
# Total GULP energy -267319.244984 kJ/mol
# GULP energy per Si atom -5569.150937 kJ/mol
# Density = 1.795498 g / cm^3
# Si number density = 17.995937 Si / 1000 Ang^3
#
#
#
# Elastic Constant Matrix: (Units=GPa)
#
#
# Indices 1 2 3 4 5 6 
#
# 1 82.0846 43.5134 69.9047 0.0000 0.0000 0.0000
# 2 43.5134 82.0847 69.9046 0.0000 0.0000 0.0000
# 3 69.9047 69.9046 135.5065 0.0000 0.0000 0.0000
# 4 0.0000 0.0000 0.0000 30.0320 0.0000 0.0000
# 5 0.0000 0.0000 0.0000 0.0000 30.0320 0.0000
# 6 0.0000 0.0000 0.0000 0.0000 0.0000 16.9371
#
#
#
# Elastic Compliance Matrix: (Units=1/GPa)
#
#
# Indices 1 2 3 4 5 6 
#
# 1 0.022313 -0.003613 -0.009647 0.000000 0.000000 0.000000
# 2 -0.003613 0.022313 -0.009647 0.000000 0.000000 0.000000
# 3 -0.009647 -0.009647 0.017333 0.000000 0.000000 0.000000
# 4 0.000000 0.000000 0.000000 0.033298 0.000000 0.000000
# 5 0.000000 0.000000 0.000000 0.000000 0.033298 0.000000
# 6 0.000000 0.000000 0.000000 0.000000 0.000000 0.059042
#
#
# Mechanical properties :
#
#
# Convention : Reuss Voigt Hill
#
# Bulk Modulus (GPa) = 61.93589 74.03570 67.98580
# Shear Modulus (GPa) = 20.93851 23.15707 22.04779
#
# Velocity S-wave (km/s) = 3.41473 3.59108 3.50402
# Velocity P-wave (km/s) = 7.07379 7.64356 7.36419
#
# Compressibility (1/GPa) = 0.01614573
#
# Stress axis : x y z
#
# Youngs Moduli (GPa) = 44.81592 44.81612 57.69212
#
# Poissons Ratio (x) = 0.16190 0.55658
# Poissons Ratio (y) = 0.16190 0.55657
# Poissons Ratio (z) = 0.43236 0.43235
#
# Static dielectric constant tensor:
#      x y z
#    x 1.638140 0.000000 0.000000 
#    y 0.000000 1.638130 0.000000 
#    z 0.000000 0.000000 1.613330 
# 
# From -- ./inp_files/2996.got.cif
#   From: 2010.05.17/outbox.cif.g08.bks.cpg/sg89_2_cif.got.tgz:2996.got - 2010.06.03 19:15:31.
