data_PCOD9546280
_publ_section_title
;
Structure prediction by ZEFSAII (Michael W. Deem and Ramdas Pophale) SiO2 
 PCOD9546280
Probable space group: I 41/A
;
_chemical_formula_sum "Si O2"
_cell_formula_units_Z 88
_cell_length_a 13.921078
_cell_length_b 13.921078
_cell_length_c 18.980285
_cell_angle_alpha 90.000000
_cell_angle_beta 90.000000
_cell_angle_gamma 90.000000
_cell_volume 3678.311145
_symmetry_space_group_name_H-M "I 41/A"
_symmetry_group_IT_number 88
_space_group.IT_coordinate_system_code '2'
_symmetry_cell_setting 'tetragonal'
loop_
_space_group_symop_operation_xyz
x,y,z
3/4-y,1/4+x,1/4+z
-x,1/2-y,z
1/4+y,1/4-x,1/4+z
-x,-y,-z
1/4+y,3/4-x,3/4-z
x,1/2+y,-z
3/4-y,3/4+x,3/4-z
1/2+x,1/2+y,1/2+z
1/4-y,3/4+x,3/4+z
1/2-x,-y,1/2+z
3/4+y,3/4-x,3/4+z
1/2-x,1/2-y,1/2-z
3/4+y,1/4-x,1/4-z
1/2+x,y,1/2-z
1/4-y,1/4+x,1/4-z
loop_
_atom_site_type_symbol
_atom_site_label
_atom_site_fract_x
_atom_site_fract_y
_atom_site_fract_z
Si Si1 0.302305 0.722613 0.913207
Si Si2 0.414616 0.353519 0.834710
Si Si3 0.755186 0.984460 0.127578
Si Si4 0.191297 0.870311 0.998303
Si Si5 0.986992 0.623186 0.917431
Si Si6 0.500000 0.250000 0.042472
O O1 0.300802 0.606201 0.911363
O O2 0.249145 0.772430 0.980205
O O3 0.238471 0.749378 0.845426
O O4 0.407017 0.770470 0.911533
O O5 0.523214 0.372644 0.860270
O O6 0.351718 0.447300 0.840669
O O7 0.421314 0.296219 0.760841
O O8 0.780228 0.060665 0.067342
O O9 0.680798 0.028777 0.183960
O O10 0.077560 0.854575 0.984567
O O11 0.926159 0.663665 0.848835
#
# Coordination Sequence:
#
# PCOD9546280 Si02
#       6
#    16  16  16  16  16   8
#     4  10  21  37  56  87 124 158 207 260 311 378
#     4   9  19  35  56  83 113 158 207 249 307 375
#     4  11  22  39  64  91 124 168 213 264 324 388
#     4  10  21  38  61  92 125 162 211 267 322 384
#     4   8  16  35  61  86 116 157 199 251 322 386
#     4  10  19  36  58  86 124 162 207 264 314 378
#
# _framework density 23.924022999999998
#
# number of rings (size 3 to 8) (size 9 to 14) (size 15 to 20)
#    0.000    2.545    0.000    3.273    0.000    1.455 
#    0.000   24.545    0.000    4.364    0.000    0.000 
#    0.000    0.000    0.000    0.000    0.000    0.000 
#
# Total GULP energy -245414.743130 kJ/mol
# GULP energy per Si atom -5577.607798 kJ/mol
# Density = 2.386957 g / cm^3
# Si number density = 23.924023 Si / 1000 Ang^3
#
#
#
# Elastic Constant Matrix: (Units=GPa)
#
#
# Indices 1 2 3 4 5 6 
#
# 1 130.6303 32.9589 28.0500 0.0000 0.0000 8.9721
# 2 32.9589 130.6303 28.0500 0.0000 0.0000 -8.9721
# 3 28.0500 28.0500 77.3864 0.0000 0.0000 0.0000
# 4 0.0000 0.0000 0.0000 22.2395 0.0000 0.0000
# 5 0.0000 0.0000 0.0000 0.0000 22.2395 0.0000
# 6 8.9721 -8.9721 0.0000 0.0000 0.0000 46.2202
#
#
#
# Elastic Compliance Matrix: (Units=1/GPa)
#
#
# Indices 1 2 3 4 5 6 
#
# 1 0.008799 -0.001818 -0.002530 0.000000 0.000000 -0.002061
# 2 -0.001818 0.008799 -0.002530 0.000000 0.000000 0.002061
# 3 -0.002530 -0.002530 0.014756 0.000000 0.000000 0.000000
# 4 0.000000 0.000000 0.000000 0.044965 0.000000 0.000000
# 5 0.000000 0.000000 0.000000 0.000000 0.044965 0.000000
# 6 -0.002061 0.002061 0.000000 0.000000 0.000000 0.022436
#
#
# Mechanical properties :
#
#
# Convention : Reuss Voigt Hill
#
# Bulk Modulus (GPa) = 53.77315 57.41834 55.59574
# Shear Modulus (GPa) = 30.36267 34.77907 32.57087
#
# Velocity S-wave (km/s) = 3.56635 3.81692 3.69376
# Velocity P-wave (km/s) = 6.28362 6.59375 6.44055
#
# Compressibility (1/GPa) = 0.01859664
#
# Stress axis : x y z
#
# Youngs Moduli (GPa) = 113.65177 113.65177 67.76719
#
# Poissons Ratio (x) = 0.20665 0.17147
# Poissons Ratio (y) = 0.20665 0.17147
# Poissons Ratio (z) = 0.28756 0.28756
#
# Static dielectric constant tensor:
#      x y z
#    x 1.995630 0.000000 0.000000 
#    y 0.000000 1.995630 0.000000 
#    z 0.000000 0.000000 1.951560 
# 
# From -- ./inp_files/4603.got.cif
#   From: 2010.05.17/outbox.cif.g08.bks.cpg/sg88_3_cif.got.tgz:4603.got - 2010.06.03 19:11:41.
