data_PCOD9546539
_publ_section_title
;
Structure prediction by ZEFSAII (Michael W. Deem and Ramdas Pophale) SiO2 
 PCOD9546539
Probable space group: I 41/A
;
_chemical_formula_sum "Si O2"
_cell_formula_units_Z 112
_cell_length_a 23.555027
_cell_length_b 23.555027
_cell_length_c 8.777701
_cell_angle_alpha 90.000000
_cell_angle_beta 90.000000
_cell_angle_gamma 90.000000
_cell_volume 4870.213452
_symmetry_space_group_name_H-M "I 41/A"
_symmetry_group_IT_number 88
_space_group.IT_coordinate_system_code '2'
_symmetry_cell_setting 'tetragonal'
loop_
_space_group_symop_operation_xyz
x,y,z
3/4-y,1/4+x,1/4+z
-x,1/2-y,z
1/4+y,1/4-x,1/4+z
-x,-y,-z
1/4+y,3/4-x,3/4-z
x,1/2+y,-z
3/4-y,3/4+x,3/4-z
1/2+x,1/2+y,1/2+z
1/4-y,3/4+x,3/4+z
1/2-x,-y,1/2+z
3/4+y,3/4-x,3/4+z
1/2-x,1/2-y,1/2-z
3/4+y,1/4-x,1/4-z
1/2+x,y,1/2-z
1/4-y,1/4+x,1/4-z
loop_
_atom_site_type_symbol
_atom_site_label
_atom_site_fract_x
_atom_site_fract_y
_atom_site_fract_z
Si Si1 0.426760 0.997202 0.488159
Si Si2 0.357925 0.224722 0.393374
Si Si3 0.875183 0.673804 0.352373
Si Si4 0.144081 0.207250 0.788715
Si Si5 0.395402 0.999278 0.145382
Si Si6 0.699669 0.531193 0.536342
Si Si7 0.928097 0.130597 0.952197
O O1 0.530980 0.043662 0.419914
O O2 0.429455 0.993936 0.305063
O O3 0.420772 0.062715 0.537376
O O4 0.366981 0.967380 0.525890
O O5 0.360655 0.263980 0.544632
O O6 0.391539 0.258609 0.263153
O O7 0.385666 0.165160 0.437900
O O8 0.862977 0.740440 0.328765
O O9 0.908659 0.652064 0.500865
O O10 0.814357 0.643253 0.333891
O O11 0.914532 0.653600 0.213515
O O12 0.205829 0.177232 0.787384
O O13 0.334145 0.023741 0.193645
O O14 0.723555 0.532360 0.704336
#
# Coordination Sequence:
#
# PCOD9546539 Si02
#       7
#    16  16  16  16  16  16  16
#     4  11  23  43  74 105 140 190 239 305 363 442
#     4  11  25  46  76 102 141 188 246 294 364 435
#     4  11  28  44  71 105 144 188 242 303 360 432
#     4  11  25  48  70 105 142 191 238 298 369 432
#     4  11  23  44  71 103 142 192 241 298 375 444
#     4  10  22  38  64 100 140 190 228 304 371 441
#     4  11  26  45  70 109 137 190 247 298 358 431
#
# _framework density 22.996936999999999
#
# number of rings (size 3 to 8) (size 9 to 14) (size 15 to 20)
#    0.000    1.143    1.429    4.286    6.000    2.857 
#    0.000    2.857    0.000    0.000    0.000    0.000 
#    0.000    0.000    0.000    0.000    0.000    0.000 
#
# Total GULP energy -313145.029633 kJ/mol
# GULP energy per Si atom -5591.875529 kJ/mol
# Density = 2.294460 g / cm^3
# Si number density = 22.996937 Si / 1000 Ang^3
#
#
#
# Elastic Constant Matrix: (Units=GPa)
#
#
# Indices 1 2 3 4 5 6 
#
# 1 59.2561 53.1784 23.3353 0.0000 0.0000 5.4004
# 2 53.1784 59.2561 23.3353 0.0000 0.0000 -5.4004
# 3 23.3353 23.3353 57.0810 0.0000 0.0000 0.0000
# 4 0.0000 0.0000 0.0000 36.3847 0.0000 0.0000
# 5 0.0000 0.0000 0.0000 0.0000 36.3847 0.0000
# 6 5.4004 -5.4004 0.0000 0.0000 0.0000 33.2895
#
#
#
# Elastic Compliance Matrix: (Units=1/GPa)
#
#
# Indices 1 2 3 4 5 6 
#
# 1 0.120948 -0.110237 -0.004379 0.000000 0.000000 -0.037504
# 2 -0.110237 0.120948 -0.004379 0.000000 0.000000 0.037504
# 3 -0.004379 -0.004379 0.021099 0.000000 0.000000 0.000000
# 4 0.000000 0.000000 0.000000 0.027484 0.000000 0.000000
# 5 0.000000 0.000000 0.000000 0.000000 0.027484 0.000000
# 6 -0.037504 0.037504 0.000000 0.000000 0.000000 0.042208
#
#
# Mechanical properties :
#
#
# Convention : Reuss Voigt Hill
#
# Bulk Modulus (GPa) = 39.98942 41.69903 40.84423
# Shear Modulus (GPa) = 8.24406 26.26139 17.25272
#
# Velocity S-wave (km/s) = 1.89542 3.38294 2.74198
# Velocity P-wave (km/s) = 4.71349 5.78194 5.27484
#
# Compressibility (1/GPa) = 0.02500661
#
# Stress axis : x y z
#
# Youngs Moduli (GPa) = 8.26799 8.26799 47.39476
#
# Poissons Ratio (x) = 0.91144 0.20755
# Poissons Ratio (y) = 0.91144 0.20755
# Poissons Ratio (z) = 0.03621 0.03621
#
# Static dielectric constant tensor:
#      x y z
#    x 1.903260 0.000000 0.000000 
#    y 0.000000 1.903260 0.000000 
#    z 0.000000 0.000000 1.855270 
# 
# From -- ./inp_files/2726.got.cif
#   From: 2010.05.17/outbox.cif.g08.bks.cpg/sg88_2_cif.got.tgz:2726.got - 2010.06.03 19:11:41.
