data_PCOD9546633
_publ_section_title
;
Structure prediction by ZEFSAII (Michael W. Deem and Ramdas Pophale) SiO2 
 PCOD9546633
Probable space group: I 41/A
;
_chemical_formula_sum "Si O2"
_cell_formula_units_Z 88
_cell_length_a 15.265904
_cell_length_b 15.265904
_cell_length_c 17.136294
_cell_angle_alpha 90.000000
_cell_angle_beta 90.000000
_cell_angle_gamma 90.000000
_cell_volume 3993.576044
_symmetry_space_group_name_H-M "I 41/A"
_symmetry_group_IT_number 88
_space_group.IT_coordinate_system_code '2'
_symmetry_cell_setting 'tetragonal'
loop_
_space_group_symop_operation_xyz
x,y,z
3/4-y,1/4+x,1/4+z
-x,1/2-y,z
1/4+y,1/4-x,1/4+z
-x,-y,-z
1/4+y,3/4-x,3/4-z
x,1/2+y,-z
3/4-y,3/4+x,3/4-z
1/2+x,1/2+y,1/2+z
1/4-y,3/4+x,3/4+z
1/2-x,-y,1/2+z
3/4+y,3/4-x,3/4+z
1/2-x,1/2-y,1/2-z
3/4+y,1/4-x,1/4-z
1/2+x,y,1/2-z
1/4-y,1/4+x,1/4-z
loop_
_atom_site_type_symbol
_atom_site_label
_atom_site_fract_x
_atom_site_fract_y
_atom_site_fract_z
Si Si1 0.763663 0.601412 0.437779
Si Si2 0.025363 0.393279 0.748771
Si Si3 0.164059 0.817931 0.654859
Si Si4 0.685601 0.002909 0.208988
Si Si5 0.000000 0.250000 0.125000
Si Si6 0.146847 0.681300 0.784512
Si Si7 0.000000 0.750000 0.375000
O O1 0.806504 0.692809 0.460101
O O2 0.666673 0.619207 0.405585
O O3 0.755849 0.534564 0.509914
O O4 0.815829 0.542699 0.374915
O O5 0.987756 0.373130 0.834606
O O6 0.112350 0.450808 0.757845
O O7 0.044518 0.316449 0.686534
O O8 0.145287 0.771693 0.737153
O O9 0.270909 0.821297 0.656028
O O10 0.661882 0.104105 0.222138
O O11 0.072006 0.304211 0.077028
#
# Coordination Sequence:
#
# PCOD9546633 Si02
#       7
#    16  16  16  16   4  16   4
#     4  11  23  43  70  97 128 177 224 277 344 399
#     4  12  24  46  67  95 133 181 223 291 328 409
#     4  10  23  43  68  95 135 177 221 277 342 406
#     4  11  23  43  68  95 136 172 222 277 335 403
#     4  12  24  38  64 104 140 174 216 280 328 422
#     4  10  24  40  66 105 136 174 220 270 348 415
#     4  12  28  46  64  96 136 174 248 276 336 386
#
# _framework density 22.035391000000001
#
# number of rings (size 3 to 8) (size 9 to 14) (size 15 to 20)
#    0.000    1.091    3.636    2.182    5.091    3.636 
#    3.273    2.727    0.000    0.000    0.000    0.000 
#    0.000    0.000    0.000    0.000    0.000    0.000 
#
# Total GULP energy -245692.596780 kJ/mol
# GULP energy per Si atom -5583.922654 kJ/mol
# Density = 2.198524 g / cm^3
# Si number density = 22.035391 Si / 1000 Ang^3
#
#
#
# Elastic Constant Matrix: (Units=GPa)
#
#
# Indices 1 2 3 4 5 6 
#
# 1 28.1694 -4.0348 -6.2816 0.0000 0.0000 -4.5055
# 2 -4.0348 28.1694 -6.2816 0.0000 0.0000 4.5055
# 3 -6.2816 -6.2816 59.7858 0.0000 0.0000 0.0000
# 4 0.0000 0.0000 0.0000 24.5204 0.0000 0.0000
# 5 0.0000 0.0000 0.0000 0.0000 24.5204 0.0000
# 6 -4.5055 4.5055 0.0000 0.0000 0.0000 19.7447
#
#
#
# Elastic Compliance Matrix: (Units=1/GPa)
#
#
# Indices 1 2 3 4 5 6 
#
# 1 0.038501 0.005331 0.004605 0.000000 0.000000 0.007569
# 2 0.005331 0.038501 0.004605 0.000000 0.000000 -0.007569
# 3 0.004605 0.004605 0.017694 0.000000 0.000000 0.000000
# 4 0.000000 0.000000 0.000000 0.040782 0.000000 0.000000
# 5 0.000000 0.000000 0.000000 0.000000 0.040782 0.000000
# 6 0.007569 -0.007569 0.000000 0.000000 0.000000 0.054101
#
#
# Mechanical properties :
#
#
# Convention : Reuss Voigt Hill
#
# Bulk Modulus (GPa) = 8.07893 9.21427 8.64660
# Shear Modulus (GPa) = 20.61541 22.60529 21.61035
#
# Velocity S-wave (km/s) = 3.06201 3.20638 3.13503
# Velocity P-wave (km/s) = 4.02188 4.23066 4.12759
#
# Compressibility (1/GPa) = 0.12377884
#
# Stress axis : x y z
#
# Youngs Moduli (GPa) = 25.97360 25.97355 56.51587
#
# Poissons Ratio (x) = -0.13846 -0.26027
# Poissons Ratio (y) = -0.13846 -0.26028
# Poissons Ratio (z) = -0.11962 -0.11962
#
# Static dielectric constant tensor:
#      x y z
#    x 1.801090 0.000000 0.000000 
#    y 0.000000 1.801090 0.000000 
#    z 0.000000 0.000000 1.820340 
# 
# From -- ./inp_files/4647.got.cif
#   From: 2010.05.17/outbox.cif.g08.bks.cpg/sg88_3_cif.got.tgz:4647.got - 2010.06.03 19:11:41.
