data_PCOD9546821
_publ_section_title
;
Structure prediction by ZEFSAII (Michael W. Deem and Ramdas Pophale) SiO2 
 PCOD9546821
Probable space group: I 41/A
;
_chemical_formula_sum "Si O2"
_cell_formula_units_Z 48
_cell_length_a 8.068051
_cell_length_b 8.068051
_cell_length_c 28.800933
_cell_angle_alpha 90.000000
_cell_angle_beta 90.000000
_cell_angle_gamma 90.000000
_cell_volume 1874.752004
_symmetry_space_group_name_H-M "I 41/A"
_symmetry_group_IT_number 88
_space_group.IT_coordinate_system_code '2'
_symmetry_cell_setting 'tetragonal'
loop_
_space_group_symop_operation_xyz
x,y,z
3/4-y,1/4+x,1/4+z
-x,1/2-y,z
1/4+y,1/4-x,1/4+z
-x,-y,-z
1/4+y,3/4-x,3/4-z
x,1/2+y,-z
3/4-y,3/4+x,3/4-z
1/2+x,1/2+y,1/2+z
1/4-y,3/4+x,3/4+z
1/2-x,-y,1/2+z
3/4+y,3/4-x,3/4+z
1/2-x,1/2-y,1/2-z
3/4+y,1/4-x,1/4-z
1/2+x,y,1/2-z
1/4-y,1/4+x,1/4-z
loop_
_atom_site_type_symbol
_atom_site_label
_atom_site_fract_x
_atom_site_fract_y
_atom_site_fract_z
Si Si1 0.078970 0.569739 0.315915
Si Si2 0.807809 0.016928 0.986659
Si Si3 0.231225 0.119743 0.109323
O O1 0.236621 0.555594 0.281666
O O2 0.127380 0.480822 0.363744
O O3 0.000000 0.750000 0.320473
O O4 0.942390 0.465682 0.287968
O O5 0.756692 0.889421 0.945908
O O6 0.000000 0.000000 0.000000
O O7 0.216675 0.305801 0.127902
#
# Coordination Sequence:
#
# PCOD9546821 Si02
#       3
#    16  16  16
#     4  12  28  51  79 120 162 214 276 347 419 497
#     4  12  26  49  79 113 166 216 272 335 416 500
#     4  11  26  48  81 115 156 211 278 338 413 492
#
# _framework density 25.603387999999999
#
# number of rings (size 3 to 8) (size 9 to 14) (size 15 to 20)
#    0.000    0.333    3.333    4.000    9.333    0.000 
#    0.000    0.000    0.000    0.000    0.000    0.000 
#    0.000    0.000    0.000    0.000    0.000    0.000 
#
# Total GULP energy -134730.937521 kJ/mol
# GULP energy per Si atom -5613.789063 kJ/mol
# Density = 2.554511 g / cm^3
# Si number density = 25.603388 Si / 1000 Ang^3
#
#
#
# Elastic Constant Matrix: (Units=GPa)
#
#
# Indices 1 2 3 4 5 6 
#
# 1 129.3421 52.4243 34.2445 0.0000 0.0000 6.1573
# 2 52.4243 129.3421 34.2445 0.0000 0.0000 -6.1573
# 3 34.2445 34.2445 161.7183 0.0000 0.0000 0.0000
# 4 0.0000 0.0000 0.0000 49.4575 0.0000 0.0000
# 5 0.0000 0.0000 0.0000 0.0000 49.4575 0.0000
# 6 6.1573 -6.1573 0.0000 0.0000 0.0000 44.6533
#
#
#
# Elastic Compliance Matrix: (Units=1/GPa)
#
#
# Indices 1 2 3 4 5 6 
#
# 1 0.009636 -0.003658 -0.001266 0.000000 0.000000 -0.001833
# 2 -0.003658 0.009636 -0.001266 0.000000 0.000000 0.001833
# 3 -0.001266 -0.001266 0.006720 0.000000 0.000000 0.000000
# 4 0.000000 0.000000 0.000000 0.020219 0.000000 0.000000
# 5 0.000000 0.000000 0.000000 0.000000 0.020219 0.000000
# 6 -0.001833 0.001833 0.000000 0.000000 0.000000 0.022900
#
#
# Mechanical properties :
#
#
# Convention : Reuss Voigt Hill
#
# Bulk Modulus (GPa) = 73.45939 73.58102 73.52020
# Shear Modulus (GPa) = 47.05916 48.67959 47.86938
#
# Velocity S-wave (km/s) = 4.29185 4.36511 4.32864
# Velocity P-wave (km/s) = 7.30161 7.36253 7.33213
#
# Compressibility (1/GPa) = 0.01361296
#
# Stress axis : x y z
#
# Youngs Moduli (GPa) = 103.77220 103.77221 148.81508
#
# Poissons Ratio (x) = 0.37959 0.18840
# Poissons Ratio (y) = 0.37959 0.18840
# Poissons Ratio (z) = 0.13137 0.13137
#
# Static dielectric constant tensor:
#      x y z
#    x 2.050490 0.000000 0.000000 
#    y 0.000000 2.050490 0.000000 
#    z 0.000000 0.000000 2.026460 
# 
# From -- ./inp_files/6030.got.cif
#   From: 2010.05.17/outbox.cif.g08.bks.cpg/sg88_4_cif.got.tgz:6030.got - 2010.06.03 19:11:41.
