data_PCOD9546701
_publ_section_title
;
Structure prediction by ZEFSAII (Michael W. Deem and Ramdas Pophale) SiO2 
 PCOD9546701
Probable space group: I 41/A
;
_chemical_formula_sum "Si O2"
_cell_formula_units_Z 72
_cell_length_a 14.909944
_cell_length_b 14.909944
_cell_length_c 18.186274
_cell_angle_alpha 90.000000
_cell_angle_beta 90.000000
_cell_angle_gamma 90.000000
_cell_volume 4042.925649
_symmetry_space_group_name_H-M "I 41/A"
_symmetry_group_IT_number 88
_space_group.IT_coordinate_system_code '2'
_symmetry_cell_setting 'tetragonal'
loop_
_space_group_symop_operation_xyz
x,y,z
3/4-y,1/4+x,1/4+z
-x,1/2-y,z
1/4+y,1/4-x,1/4+z
-x,-y,-z
1/4+y,3/4-x,3/4-z
x,1/2+y,-z
3/4-y,3/4+x,3/4-z
1/2+x,1/2+y,1/2+z
1/4-y,3/4+x,3/4+z
1/2-x,-y,1/2+z
3/4+y,3/4-x,3/4+z
1/2-x,1/2-y,1/2-z
3/4+y,1/4-x,1/4-z
1/2+x,y,1/2-z
1/4-y,1/4+x,1/4-z
loop_
_atom_site_type_symbol
_atom_site_label
_atom_site_fract_x
_atom_site_fract_y
_atom_site_fract_z
Si Si1 0.619177 0.590842 0.369352
Si Si2 0.000000 0.250000 0.367258
Si Si3 0.517915 0.062482 0.388169
Si Si4 0.709331 0.946221 0.729687
Si Si5 0.383245 0.654400 0.505012
O O1 0.568617 0.680985 0.343940
O O2 0.536672 0.528626 0.396968
O O3 0.676732 0.537901 0.308253
O O4 0.678526 0.593012 0.443890
O O5 0.056977 0.181834 0.315932
O O6 0.617225 0.060484 0.421020
O O7 0.462549 0.130993 0.437513
O O8 0.522142 0.079647 0.301528
O O9 0.816170 0.928860 0.743733
#
# Coordination Sequence:
#
# PCOD9546701 Si02
#       5
#    16   8  16  16  16
#     4  11  22  34  53  78 116 149 188 221 278 329
#     4  12  20  31  50  84 108 145 194 232 260 330
#     4  11  17  32  49  78 113 151 172 214 271 347
#     4  11  19  35  49  76 115 154 177 226 276 339
#     4  11  20  30  55  81 119 146 178 215 285 341
#
# _framework density 17.808885
#
# number of rings (size 3 to 8) (size 9 to 14) (size 15 to 20)
#    0.000    0.889    8.889    4.000    0.000    0.000 
#    0.000    0.000    0.000    5.333    0.000    0.000 
#    0.000    1.778    0.000    0.000    0.000    0.000 
#
# Total GULP energy -200585.078466 kJ/mol
# GULP energy per Si atom -5571.807735 kJ/mol
# Density = 1.776835 g / cm^3
# Si number density = 17.808885 Si / 1000 Ang^3
#
#
#
# Elastic Constant Matrix: (Units=GPa)
#
#
# Indices 1 2 3 4 5 6 
#
# 1 72.9641 31.4421 32.1462 0.0000 0.0000 13.6068
# 2 31.4421 72.9641 32.1462 0.0000 0.0000 -13.6068
# 3 32.1462 32.1462 57.4114 0.0000 0.0000 0.0000
# 4 0.0000 0.0000 0.0000 30.6271 0.0000 0.0000
# 5 0.0000 0.0000 0.0000 0.0000 30.6271 0.0000
# 6 13.6068 -13.6068 0.0000 0.0000 0.0000 32.2245
#
#
#
# Elastic Compliance Matrix: (Units=1/GPa)
#
#
# Indices 1 2 3 4 5 6 
#
# 1 0.023959 -0.009340 -0.008185 0.000000 0.000000 -0.014060
# 2 -0.009340 0.023959 -0.008185 0.000000 0.000000 0.014060
# 3 -0.008185 -0.008185 0.026584 0.000000 0.000000 0.000000
# 4 0.000000 0.000000 0.000000 0.032651 0.000000 0.000000
# 5 0.000000 0.000000 0.000000 0.000000 0.032651 0.000000
# 6 -0.014060 0.014060 0.000000 0.000000 0.000000 0.042906
#
#
# Mechanical properties :
#
#
# Convention : Reuss Voigt Hill
#
# Bulk Modulus (GPa) = 43.32711 43.86763 43.59737
# Shear Modulus (GPa) = 20.67617 25.86941 23.27279
#
# Velocity S-wave (km/s) = 3.41105 3.81545 3.61890
# Velocity P-wave (km/s) = 6.31628 6.64049 6.48041
#
# Compressibility (1/GPa) = 0.02308024
#
# Stress axis : x y z
#
# Youngs Moduli (GPa) = 41.73866 41.73866 37.61606
#
# Poissons Ratio (x) = 0.38985 0.30790
# Poissons Ratio (y) = 0.38985 0.30790
# Poissons Ratio (z) = 0.34164 0.34164
#
# Static dielectric constant tensor:
#      x y z
#    x 1.679270 0.000000 0.000000 
#    y 0.000000 1.679270 0.000000 
#    z 0.000000 0.000000 1.639620 
# 
# From -- ./inp_files/3779.got.cif
#   From: 2010.05.17/outbox.cif.g08.bks.cpg/sg88_2_cif.got.tgz:3779.got - 2010.06.03 19:11:41.
