data_PCOD9546908
_publ_section_title
;
Structure prediction by ZEFSAII (Michael W. Deem and Ramdas Pophale) SiO2 
 PCOD9546908
Probable space group: P 4 2 2
;
_chemical_formula_sum "Si O2"
_cell_formula_units_Z 48
_cell_length_a 14.391282
_cell_length_b 14.391282
_cell_length_c 11.914408
_cell_angle_alpha 90.000000
_cell_angle_beta 90.000000
_cell_angle_gamma 90.000000
_cell_volume 2467.581098
_symmetry_space_group_name_H-M "P 4 2 2"
_symmetry_group_IT_number 89
_symmetry_cell_setting 'tetragonal'
loop_
_space_group_symop_operation_xyz
x,y,z
-y,x,z
-x,-y,z
y,-x,z
x,-y,-z
-x,y,-z
y,x,-z
-y,-x,-z
loop_
_atom_site_type_symbol
_atom_site_label
_atom_site_fract_x
_atom_site_fract_y
_atom_site_fract_z
Si Si1 0.889247 0.889247 0.000000
Si Si2 0.585928 0.779252 0.805631
Si Si3 0.900481 0.123004 0.748491
Si Si4 0.693350 0.693350 0.000000
Si Si5 0.737286 0.763927 0.630876
Si Si6 0.632073 0.823345 0.192404
Si Si7 0.388416 0.982811 0.123540
O O1 0.852602 0.865790 0.875739
O O2 0.000000 0.874708 0.000000
O O3 0.633416 0.767440 0.684088
O O4 0.475893 0.793970 0.808384
O O5 0.628274 0.878420 0.842731
O O6 0.616494 0.703657 0.900080
O O7 0.850797 0.196469 0.666518
O O8 0.013063 0.125634 0.735549
O O9 0.675643 0.783835 0.076785
O O10 0.744832 0.744832 0.500000
O O11 0.779805 0.679563 0.701028
O O12 0.646501 0.933704 0.199198
O O13 0.500000 0.000000 0.119556
O O14 0.350730 0.000000 0.000000
#
# Coordination Sequence:
#
# PCOD9546908 Si02
#       7
#     4   8   8   4   8   8   8
#     4   7  12  29  54  77 102 137 182 228 278 334
#     4  10  21  38  61  89 120 156 198 245 301 356
#     4   9  19  37  59  84 119 157 193 243 303 365
#     4  10  18  33  60  94 122 144 174 225 298 376
#     4  11  26  41  57  82 112 160 215 259 296 340
#     4  10  21  38  61  89 120 156 198 245 301 356
#     4   9  16  32  59  89 122 153 181 230 298 364
#
# _framework density 19.452248000000001
#
# number of rings (size 3 to 8) (size 9 to 14) (size 15 to 20)
#    0.000    2.417    1.667    1.500    2.333    4.000 
#    0.000    0.833    0.000   23.500    0.000    4.667 
#    0.000    1.333    0.000    0.000    0.000    0.000 
#
# Total GULP energy -267409.515749 kJ/mol
# GULP energy per Si atom -5571.031578 kJ/mol
# Density = 1.940797 g / cm^3
# Si number density = 19.452248 Si / 1000 Ang^3
#
#
#
# Elastic Constant Matrix: (Units=GPa)
#
#
# Indices 1 2 3 4 5 6 
#
# 1 80.7953 24.7833 23.3619 0.0000 0.0000 0.0000
# 2 24.7833 80.7953 23.3619 0.0000 0.0000 0.0000
# 3 23.3619 23.3619 134.8604 0.0000 0.0000 0.0000
# 4 0.0000 0.0000 0.0000 17.6843 0.0000 0.0000
# 5 0.0000 0.0000 0.0000 0.0000 17.6843 0.0000
# 6 0.0000 0.0000 0.0000 0.0000 0.0000 22.8689
#
#
#
# Elastic Compliance Matrix: (Units=1/GPa)
#
#
# Indices 1 2 3 4 5 6 
#
# 1 0.014056 -0.003798 -0.001777 0.000000 0.000000 0.000000
# 2 -0.003798 0.014056 -0.001777 0.000000 0.000000 0.000000
# 3 -0.001777 -0.001777 0.008031 0.000000 0.000000 0.000000
# 4 0.000000 0.000000 0.000000 0.056547 0.000000 0.000000
# 5 0.000000 0.000000 0.000000 0.000000 0.056547 0.000000
# 6 0.000000 0.000000 0.000000 0.000000 0.000000 0.043727
#
#
# Mechanical properties :
#
#
# Convention : Reuss Voigt Hill
#
# Bulk Modulus (GPa) = 46.64443 48.82948 47.73695
# Shear Modulus (GPa) = 23.27600 26.64378 24.95989
#
# Velocity S-wave (km/s) = 3.46290 3.70496 3.58598
# Velocity P-wave (km/s) = 6.32613 6.59235 6.46061
#
# Compressibility (1/GPa) = 0.02143879
#
# Stress axis : x y z
#
# Youngs Moduli (GPa) = 71.14571 71.14571 124.52160
#
# Poissons Ratio (x) = 0.27019 0.22128
# Poissons Ratio (y) = 0.27019 0.22128
# Poissons Ratio (z) = 0.12643 0.12643
#
# Static dielectric constant tensor:
#      x y z
#    x 1.734700 0.000000 0.000000 
#    y 0.000000 1.734700 0.000000 
#    z 0.000000 0.000000 1.664570 
# 
# From -- ./inp_files/1812.got.cif
#   From: 2010.05.17/outbox.cif.g08.bks.cpg/sg89_1_cif.got.tgz:1812.got - 2010.06.03 19:15:31.
