data_PCOD9546423
_publ_section_title
;
Structure prediction by ZEFSAII (Michael W. Deem and Ramdas Pophale) SiO2 
 PCOD9546423
Probable space group: I 41/A
;
_chemical_formula_sum "Si O2"
_cell_formula_units_Z 96
_cell_length_a 24.453042
_cell_length_b 24.453042
_cell_length_c 7.095479
_cell_angle_alpha 90.000000
_cell_angle_beta 90.000000
_cell_angle_gamma 90.000000
_cell_volume 4242.750630
_symmetry_space_group_name_H-M "I 41/A"
_symmetry_group_IT_number 88
_space_group.IT_coordinate_system_code '2'
_symmetry_cell_setting 'tetragonal'
loop_
_space_group_symop_operation_xyz
x,y,z
3/4-y,1/4+x,1/4+z
-x,1/2-y,z
1/4+y,1/4-x,1/4+z
-x,-y,-z
1/4+y,3/4-x,3/4-z
x,1/2+y,-z
3/4-y,3/4+x,3/4-z
1/2+x,1/2+y,1/2+z
1/4-y,3/4+x,3/4+z
1/2-x,-y,1/2+z
3/4+y,3/4-x,3/4+z
1/2-x,1/2-y,1/2-z
3/4+y,1/4-x,1/4-z
1/2+x,y,1/2-z
1/4-y,1/4+x,1/4-z
loop_
_atom_site_type_symbol
_atom_site_label
_atom_site_fract_x
_atom_site_fract_y
_atom_site_fract_z
Si Si1 0.571426 0.706961 0.080888
Si Si2 0.322684 0.849741 0.660125
Si Si3 0.191180 0.217145 0.535899
Si Si4 0.434832 0.188434 0.418023
Si Si5 0.267727 0.669262 0.154513
Si Si6 0.309014 0.951039 0.934713
O O1 0.521559 0.689603 0.212767
O O2 0.633954 0.700512 0.134249
O O3 0.561898 0.673589 0.891144
O O4 0.385858 0.847382 0.592789
O O5 0.281500 0.843247 0.488617
O O6 0.310222 0.904553 0.776005
O O7 0.313356 0.802406 0.819628
O O8 0.241247 0.189979 0.648345
O O9 0.198252 0.281681 0.562547
O O10 0.425578 0.250662 0.358774
O O11 0.301285 0.615064 0.198174
O O12 0.305576 0.008738 0.826933
#
# Coordination Sequence:
#
# PCOD9546423 Si02
#       6
#    16  16  16  16  16  16
#     4  10  21  35  62  91 133 175 215 272 329 405
#     4  11  25  46  70 105 139 184 237 290 356 416
#     4  10  24  44  67 105 138 179 233 276 351 426
#     4  10  22  39  62 100 137 176 227 277 336 422
#     4  11  25  44  75  96 143 182 223 300 352 410
#     4  12  26  50  73 105 137 183 245 296 353 426
#
# _framework density 22.626830999999999
#
# number of rings (size 3 to 8) (size 9 to 14) (size 15 to 20)
#    0.000    1.333    1.667    3.500    9.333    1.333 
#    9.000    0.000    0.000    0.000    0.000    0.000 
#    0.000    0.000    0.000    0.000    0.000    0.000 
#
# Total GULP energy -268415.850725 kJ/mol
# GULP energy per Si atom -5591.996890 kJ/mol
# Density = 2.257533 g / cm^3
# Si number density = 22.626831 Si / 1000 Ang^3
#
#
#
# Elastic Constant Matrix: (Units=GPa)
#
#
# Indices 1 2 3 4 5 6 
#
# 1 66.6105 4.9728 8.0959 0.0000 0.0000 -3.5455
# 2 4.9728 66.6105 8.0959 0.0000 0.0000 3.5455
# 3 8.0959 8.0959 39.5130 0.0000 0.0000 0.0000
# 4 0.0000 0.0000 0.0000 24.5095 0.0000 0.0000
# 5 0.0000 0.0000 0.0000 0.0000 24.5095 0.0000
# 6 -3.5455 3.5455 0.0000 0.0000 0.0000 20.9876
#
#
#
# Elastic Compliance Matrix: (Units=1/GPa)
#
#
# Indices 1 2 3 4 5 6 
#
# 1 0.015597 -0.000948 -0.003001 0.000000 0.000000 0.002795
# 2 -0.000948 0.015597 -0.003001 0.000000 0.000000 -0.002795
# 3 -0.003001 -0.003001 0.026538 0.000000 0.000000 0.000000
# 4 0.000000 0.000000 0.000000 0.040801 0.000000 0.000000
# 5 0.000000 0.000000 0.000000 0.000000 0.040801 0.000000
# 6 0.002795 -0.002795 0.000000 0.000000 0.000000 0.048592
#
#
# Mechanical properties :
#
#
# Convention : Reuss Voigt Hill
#
# Bulk Modulus (GPa) = 22.81555 23.89591 23.35573
# Shear Modulus (GPa) = 23.10141 24.10593 23.60367
#
# Velocity S-wave (km/s) = 3.19873 3.26754 3.23332
# Velocity P-wave (km/s) = 4.87317 4.98192 4.92785
#
# Compressibility (1/GPa) = 0.04382976
#
# Stress axis : x y z
#
# Youngs Moduli (GPa) = 64.11478 64.11478 37.68179
#
# Poissons Ratio (x) = 0.06081 0.11310
# Poissons Ratio (y) = 0.06081 0.11310
# Poissons Ratio (z) = 0.19243 0.19243
#
# Static dielectric constant tensor:
#      x y z
#    x 1.844300 0.000000 0.000000 
#    y 0.000000 1.844300 0.000000 
#    z 0.000000 0.000000 1.797130 
# 
# From -- ./inp_files/1716.got.cif
#   From: 2010.05.17/outbox.cif.g08.bks.cpg/sg88_1_cif.got.tgz:1716.got - 2010.06.03 19:11:41.
