data_PCOD9546265
_publ_section_title
;
Structure prediction by ZEFSAII (Michael W. Deem and Ramdas Pophale) SiO2 
 PCOD9546265
Probable space group: I 41/A
;
_chemical_formula_sum "Si O2"
_cell_formula_units_Z 112
_cell_length_a 17.791970
_cell_length_b 17.791970
_cell_length_c 17.665453
_cell_angle_alpha 90.000000
_cell_angle_beta 90.000000
_cell_angle_gamma 90.000000
_cell_volume 5592.073280
_symmetry_space_group_name_H-M "I 41/A"
_symmetry_group_IT_number 88
_space_group.IT_coordinate_system_code '2'
_symmetry_cell_setting 'tetragonal'
loop_
_space_group_symop_operation_xyz
x,y,z
3/4-y,1/4+x,1/4+z
-x,1/2-y,z
1/4+y,1/4-x,1/4+z
-x,-y,-z
1/4+y,3/4-x,3/4-z
x,1/2+y,-z
3/4-y,3/4+x,3/4-z
1/2+x,1/2+y,1/2+z
1/4-y,3/4+x,3/4+z
1/2-x,-y,1/2+z
3/4+y,3/4-x,3/4+z
1/2-x,1/2-y,1/2-z
3/4+y,1/4-x,1/4-z
1/2+x,y,1/2-z
1/4-y,1/4+x,1/4-z
loop_
_atom_site_type_symbol
_atom_site_label
_atom_site_fract_x
_atom_site_fract_y
_atom_site_fract_z
Si Si1 0.833363 0.897222 0.704810
Si Si2 0.602018 0.205196 0.718889
Si Si3 0.079428 0.448221 0.692075
Si Si4 0.889938 0.293818 0.412032
Si Si5 0.283048 0.474377 0.343884
Si Si6 0.302495 0.925273 0.272054
Si Si7 0.651122 0.327175 0.908068
O O1 0.871720 0.824296 0.670631
O O2 0.758811 0.909594 0.654233
O O3 0.812726 0.906778 0.792314
O O4 0.885686 0.969726 0.686590
O O5 0.543158 0.163466 0.662999
O O6 0.592314 0.291031 0.697591
O O7 0.682835 0.164061 0.718757
O O8 0.566983 0.180398 0.800406
O O9 0.057396 0.426570 0.777618
O O10 0.137058 0.385953 0.658793
O O11 0.002412 0.438459 0.644744
O O12 0.213242 0.452371 0.396728
O O13 0.261025 0.540124 0.283016
O O14 0.377936 0.945524 0.224176
#
# Coordination Sequence:
#
# PCOD9546265 Si02
#       7
#    16  16  16  16  16  16  16
#     4  11  20  34  50  79 101 145 173 223 258 316
#     4   8  18  36  51  73 102 139 176 217 261 311
#     4  11  19  32  49  77 109 143 176 212 254 317
#     4  10  19  33  53  73 108 138 177 216 262 313
#     4  10  20  34  52  69 112 135 178 218 269 305
#     4   9  19  35  50  74 101 145 174 219 264 316
#     4   9  19  32  49  74 107 142 177 208 256 311
#
# _framework density 20.028348999999999
#
# number of rings (size 3 to 8) (size 9 to 14) (size 15 to 20)
#    0.857    1.429    2.857    0.857    0.000    2.571 
#    0.000    2.857    0.000    0.000    0.000    0.000 
#    0.000    9.143    0.000    0.000    0.000    0.000 
#
# Total GULP energy -311769.003494 kJ/mol
# GULP energy per Si atom -5567.303634 kJ/mol
# Density = 1.998276 g / cm^3
# Si number density = 20.028349 Si / 1000 Ang^3
#
#
#
# Elastic Constant Matrix: (Units=GPa)
#
#
# Indices 1 2 3 4 5 6 
#
# 1 24.2264 3.0272 9.9016 0.0000 0.0000 2.0786
# 2 3.0272 24.2264 9.9016 0.0000 0.0000 -2.0786
# 3 9.9016 9.9016 73.8229 0.0000 0.0000 0.0000
# 4 0.0000 0.0000 0.0000 27.8334 0.0000 0.0000
# 5 0.0000 0.0000 0.0000 0.0000 27.8334 0.0000
# 6 2.0786 -2.0786 0.0000 0.0000 0.0000 21.7021
#
#
#
# Elastic Compliance Matrix: (Units=1/GPa)
#
#
# Indices 1 2 3 4 5 6 
#
# 1 0.044364 -0.003710 -0.005453 0.000000 0.000000 -0.004604
# 2 -0.003710 0.044364 -0.005453 0.000000 0.000000 0.004604
# 3 -0.005453 -0.005453 0.015009 0.000000 0.000000 0.000000
# 4 0.000000 0.000000 0.000000 0.035928 0.000000 0.000000
# 5 0.000000 0.000000 0.000000 0.000000 0.035928 0.000000
# 6 -0.004604 0.004604 0.000000 0.000000 0.000000 0.046960
#
#
# Mechanical properties :
#
#
# Convention : Reuss Voigt Hill
#
# Bulk Modulus (GPa) = 13.42167 18.65960 16.04063
# Shear Modulus (GPa) = 18.07528 22.10349 20.08939
#
# Velocity S-wave (km/s) = 3.00740 3.32567 3.17053
# Velocity P-wave (km/s) = 4.33303 4.90750 4.62918
#
# Compressibility (1/GPa) = 0.07450639
#
# Stress axis : x y z
#
# Youngs Moduli (GPa) = 22.54055 22.54055 66.62815
#
# Poissons Ratio (x) = 0.08362 0.36331
# Poissons Ratio (y) = 0.08362 0.36331
# Poissons Ratio (z) = 0.12291 0.12291
#
# Static dielectric constant tensor:
#      x y z
#    x 1.762650 0.000000 0.000000 
#    y 0.000000 1.762650 0.000000 
#    z 0.000000 0.000000 1.753410 
# 
# From -- ./inp_files/4072.got.cif
#   From: 2010.05.17/outbox.cif.g08.bks.cpg/sg88_3_cif.got.tgz:4072.got - 2010.06.03 19:11:41.
