data_PCOD9546964
_publ_section_title
;
Structure prediction by ZEFSAII (Michael W. Deem and Ramdas Pophale) SiO2 
 PCOD9546964
Probable space group: P 4 2 2
;
_chemical_formula_sum "Si O2"
_cell_formula_units_Z 48
_cell_length_a 8.670553
_cell_length_b 8.670553
_cell_length_c 33.327041
_cell_angle_alpha 90.000000
_cell_angle_beta 90.000000
_cell_angle_gamma 90.000000
_cell_volume 2505.476596
_symmetry_space_group_name_H-M "P 4 2 2"
_symmetry_group_IT_number 89
_symmetry_cell_setting 'tetragonal'
loop_
_space_group_symop_operation_xyz
x,y,z
-y,x,z
-x,-y,z
y,-x,z
x,-y,-z
-x,y,-z
y,x,-z
-y,-x,-z
loop_
_atom_site_type_symbol
_atom_site_label
_atom_site_fract_x
_atom_site_fract_y
_atom_site_fract_z
Si Si1 0.074726 0.248638 0.688340
Si Si2 0.754956 0.450774 0.818351
Si Si3 0.799677 0.837717 0.453211
Si Si4 0.000000 0.500000 0.886902
Si Si5 0.270804 0.614141 0.380432
Si Si6 0.500000 0.000000 0.248209
Si Si7 0.257432 0.983028 0.955711
O O1 0.131219 0.329329 0.647519
O O2 0.900957 0.184375 0.690387
O O3 0.081990 0.373004 0.723832
O O4 0.674022 0.618813 0.817178
O O5 0.870044 0.429665 0.780937
O O6 0.859978 0.449188 0.858132
O O7 0.790866 0.790866 0.500000
O O8 0.667879 0.765278 0.425724
O O9 0.978059 0.792388 0.444728
O O10 0.961966 0.635522 0.917666
O O11 0.300812 0.434129 0.372311
O O12 0.156845 0.137786 0.953780
O O13 0.331105 0.000000 0.000000
#
# Coordination Sequence:
#
# PCOD9546964 Si02
#       7
#     8   8   8   4   8   4   8
#     4  11  23  39  61  87 113 142 181 230 281 337
#     4  10  22  38  56  81 113 147 184 232 289 351
#     4   9  19  37  60  85 114 151 196 243 289 336
#     4  11  19  32  55  80 108 146 192 237 288 349
#     4  11  24  39  56  83 119 155 191 233 283 340
#     4  11  22  40  63  84 109 145 188 231 284 350
#     4   9  18  32  50  75 108 146 190 240 293 349
#
# _framework density 19.158031999999999
#
# number of rings (size 3 to 8) (size 9 to 14) (size 15 to 20)
#    0.000    1.833    0.000    5.250    0.000    4.000 
#    0.000    4.167    0.000    8.000    0.000    7.000 
#    0.000    0.000    0.000    0.000    0.000    0.000 
#
# Total GULP energy -267682.180408 kJ/mol
# GULP energy per Si atom -5576.712092 kJ/mol
# Density = 1.911443 g / cm^3
# Si number density = 19.158032 Si / 1000 Ang^3
#
#
#
# Elastic Constant Matrix: (Units=GPa)
#
#
# Indices 1 2 3 4 5 6 
#
# 1 59.9681 12.6924 35.9731 0.0000 0.0000 0.0000
# 2 12.6924 59.9681 35.9731 0.0000 0.0000 0.0000
# 3 35.9731 35.9731 110.2323 0.0000 0.0000 0.0000
# 4 0.0000 0.0000 0.0000 28.3116 0.0000 0.0000
# 5 0.0000 0.0000 0.0000 0.0000 28.3116 0.0000
# 6 0.0000 0.0000 0.0000 0.0000 0.0000 21.9555
#
#
#
# Elastic Compliance Matrix: (Units=1/GPa)
#
#
# Indices 1 2 3 4 5 6 
#
# 1 0.020743 -0.000410 -0.006635 0.000000 0.000000 0.000000
# 2 -0.000410 0.020743 -0.006635 0.000000 0.000000 0.000000
# 3 -0.006635 -0.006635 0.013403 0.000000 0.000000 0.000000
# 4 0.000000 0.000000 0.000000 0.035321 0.000000 0.000000
# 5 0.000000 0.000000 0.000000 0.000000 0.035321 0.000000
# 6 0.000000 0.000000 0.000000 0.000000 0.000000 0.045547
#
#
# Mechanical properties :
#
#
# Convention : Reuss Voigt Hill
#
# Bulk Modulus (GPa) = 36.32857 44.38287 40.35572
# Shear Modulus (GPa) = 24.08316 25.41770 24.75043
#
# Velocity S-wave (km/s) = 3.54938 3.64639 3.59821
# Velocity P-wave (km/s) = 5.98341 6.39885 6.19461
#
# Compressibility (1/GPa) = 0.02752655
#
# Stress axis : x y z
#
# Youngs Moduli (GPa) = 48.20984 48.20984 74.61280
#
# Poissons Ratio (x) = 0.01976 0.49508
# Poissons Ratio (y) = 0.01976 0.49508
# Poissons Ratio (z) = 0.31989 0.31989
#
# Static dielectric constant tensor:
#      x y z
#    x 1.664130 0.000000 0.000000 
#    y 0.000000 1.664130 0.000000 
#    z 0.000000 0.000000 2.010860 
# 
# From -- ./inp_files/3021.got.cif
#   From: 2010.05.17/outbox.cif.g08.bks.cpg/sg89_2_cif.got.tgz:3021.got - 2010.06.03 19:15:31.
