data_PCOD9546402
_publ_section_title
;
Structure prediction by ZEFSAII (Michael W. Deem and Ramdas Pophale) SiO2 
 PCOD9546402
Probable space group: I 41/A
;
_chemical_formula_sum "Si O2"
_cell_formula_units_Z 96
_cell_length_a 21.818717
_cell_length_b 21.818717
_cell_length_c 9.321385
_cell_angle_alpha 90.000000
_cell_angle_beta 90.000000
_cell_angle_gamma 90.000000
_cell_volume 4437.505094
_symmetry_space_group_name_H-M "I 41/A"
_symmetry_group_IT_number 88
_space_group.IT_coordinate_system_code '2'
_symmetry_cell_setting 'tetragonal'
loop_
_space_group_symop_operation_xyz
x,y,z
3/4-y,1/4+x,1/4+z
-x,1/2-y,z
1/4+y,1/4-x,1/4+z
-x,-y,-z
1/4+y,3/4-x,3/4-z
x,1/2+y,-z
3/4-y,3/4+x,3/4-z
1/2+x,1/2+y,1/2+z
1/4-y,3/4+x,3/4+z
1/2-x,-y,1/2+z
3/4+y,3/4-x,3/4+z
1/2-x,1/2-y,1/2-z
3/4+y,1/4-x,1/4-z
1/2+x,y,1/2-z
1/4-y,1/4+x,1/4-z
loop_
_atom_site_type_symbol
_atom_site_label
_atom_site_fract_x
_atom_site_fract_y
_atom_site_fract_z
Si Si1 0.136136 0.913267 0.934108
Si Si2 0.911624 0.215575 0.596123
Si Si3 0.242800 0.141538 0.565069
Si Si4 0.188876 0.377097 0.666910
Si Si5 0.674563 0.733817 0.860686
Si Si6 0.700776 0.369517 0.173534
O O1 0.146118 0.898451 0.766051
O O2 0.148919 0.984649 0.967344
O O3 0.189819 0.873787 0.006053
O O4 0.068280 0.904343 0.998130
O O5 0.928732 0.276411 0.682308
O O6 0.865205 0.172635 0.681605
O O7 0.882523 0.238826 0.448865
O O8 0.254304 0.143867 0.736136
O O9 0.193291 0.087641 0.538720
O O10 0.215660 0.200442 0.483516
O O11 0.198412 0.378485 0.496562
O O12 0.795829 0.703871 0.701181
#
# Coordination Sequence:
#
# PCOD9546402 Si02
#       6
#    16  16  16  16  16  16
#     4  12  23  44  68  98 136 196 216 290 347 415
#     4  10  20  41  66  92 134 172 224 289 344 413
#     4  12  22  42  69  95 142 173 231 288 349 426
#     4  11  24  41  65 109 130 180 230 288 357 415
#     4  11  24  46  67 100 138 187 236 281 363 414
#     4  11  26  43  70  99 145 178 237 286 346 433
#
# _framework density 21.633776999999998
#
# number of rings (size 3 to 8) (size 9 to 14) (size 15 to 20)
#    0.000    0.833    5.000    1.500    0.000    6.667 
#    6.000    6.667    0.000    0.000    0.000    0.000 
#    0.000    0.000    0.000    0.000    0.000    0.000 
#
# Total GULP energy -268065.247594 kJ/mol
# GULP energy per Si atom -5584.692658 kJ/mol
# Density = 2.158454 g / cm^3
# Si number density = 21.633777 Si / 1000 Ang^3
#
#
#
# Elastic Constant Matrix: (Units=GPa)
#
#
# Indices 1 2 3 4 5 6 
#
# 1 84.3475 26.9930 32.6854 0.0000 0.0000 0.8743
# 2 26.9930 84.3475 32.6854 0.0000 0.0000 -0.8743
# 3 32.6854 32.6854 132.0148 0.0000 0.0000 0.0000
# 4 0.0000 0.0000 0.0000 29.7979 0.0000 0.0000
# 5 0.0000 0.0000 0.0000 0.0000 29.7979 0.0000
# 6 0.8743 -0.8743 0.0000 0.0000 0.0000 38.0268
#
#
#
# Elastic Compliance Matrix: (Units=1/GPa)
#
#
# Indices 1 2 3 4 5 6 
#
# 1 0.013978 -0.003469 -0.002602 0.000000 0.000000 -0.000401
# 2 -0.003469 0.013978 -0.002602 0.000000 0.000000 0.000401
# 3 -0.002602 -0.002602 0.008863 0.000000 0.000000 0.000000
# 4 0.000000 0.000000 0.000000 0.033559 0.000000 0.000000
# 5 0.000000 0.000000 0.000000 0.000000 0.033559 0.000000
# 6 -0.000401 0.000401 0.000000 0.000000 0.000000 0.026316
#
#
# Mechanical properties :
#
#
# Convention : Reuss Voigt Hill
#
# Bulk Modulus (GPa) = 51.35103 53.93751 52.64427
# Shear Modulus (GPa) = 32.44809 33.41424 32.93116
#
# Velocity S-wave (km/s) = 3.87703 3.93433 3.90578
# Velocity P-wave (km/s) = 6.62041 6.75461 6.68785
#
# Compressibility (1/GPa) = 0.01947380
#
# Stress axis : x y z
#
# Youngs Moduli (GPa) = 71.53897 71.53897 112.82438
#
# Poissons Ratio (x) = 0.24819 0.29356
# Poissons Ratio (y) = 0.24819 0.29356
# Poissons Ratio (z) = 0.18614 0.18614
#
# Static dielectric constant tensor:
#      x y z
#    x 1.795510 0.000000 0.000000 
#    y 0.000000 1.795510 0.000000 
#    z 0.000000 0.000000 1.915940 
# 
# From -- ./inp_files/1741.got.cif
#   From: 2010.05.17/outbox.cif.g08.bks.cpg/sg88_1_cif.got.tgz:1741.got - 2010.06.03 19:11:41.
