data_PCOD9546596
_publ_section_title
;
Structure prediction by ZEFSAII (Michael W. Deem and Ramdas Pophale) SiO2 
 PCOD9546596
Probable space group: I 41/A
;
_chemical_formula_sum "Si O2"
_cell_formula_units_Z 64
_cell_length_a 11.819914
_cell_length_b 11.819914
_cell_length_c 22.333529
_cell_angle_alpha 90.000000
_cell_angle_beta 90.000000
_cell_angle_gamma 90.000000
_cell_volume 3120.225532
_symmetry_space_group_name_H-M "I 41/A"
_symmetry_group_IT_number 88
_space_group.IT_coordinate_system_code '2'
_symmetry_cell_setting 'tetragonal'
loop_
_space_group_symop_operation_xyz
x,y,z
3/4-y,1/4+x,1/4+z
-x,1/2-y,z
1/4+y,1/4-x,1/4+z
-x,-y,-z
1/4+y,3/4-x,3/4-z
x,1/2+y,-z
3/4-y,3/4+x,3/4-z
1/2+x,1/2+y,1/2+z
1/4-y,3/4+x,3/4+z
1/2-x,-y,1/2+z
3/4+y,3/4-x,3/4+z
1/2-x,1/2-y,1/2-z
3/4+y,1/4-x,1/4-z
1/2+x,y,1/2-z
1/4-y,1/4+x,1/4-z
loop_
_atom_site_type_symbol
_atom_site_label
_atom_site_fract_x
_atom_site_fract_y
_atom_site_fract_z
Si Si1 0.070829 0.647663 0.539830
Si Si2 0.968141 0.091849 0.590545
Si Si3 0.525277 0.576785 0.555308
Si Si4 0.195807 0.264682 0.061743
O O1 0.008288 0.622963 0.476765
O O2 0.198290 0.688625 0.525708
O O3 0.000000 0.750000 0.568385
O O4 0.068592 0.537860 0.582475
O O5 0.074762 0.120475 0.634099
O O6 0.500000 0.500000 0.500000
O O7 0.522661 0.515754 0.619188
O O8 0.645141 0.641288 0.548013
O O9 0.417707 0.660829 0.558578
#
# Coordination Sequence:
#
# PCOD9546596 Si02
#       4
#    16  16  16  16
#     4  11  23  40  67  98 126 177 229 274 336 408
#     4  10  22  45  66  88 136 182 218 283 342 397
#     4   9  19  41  65  89 133 173 200 279 342 379
#     4   9  21  39  61  97 128 162 228 262 324 417
#
# _framework density 20.511337999999999
#
# number of rings (size 3 to 8) (size 9 to 14) (size 15 to 20)
#    0.000    2.250    2.500    1.500    0.000   10.000 
#    9.000    0.000    0.000    0.000    0.000    0.000 
#    0.000    0.000    0.000    0.000    0.000    0.000 
#
# Total GULP energy -178361.454525 kJ/mol
# GULP energy per Si atom -5573.795454 kJ/mol
# Density = 2.046465 g / cm^3
# Si number density = 20.511338 Si / 1000 Ang^3
#
#
#
# Elastic Constant Matrix: (Units=GPa)
#
#
# Indices 1 2 3 4 5 6 
#
# 1 85.3916 51.1251 28.4444 0.0000 0.0000 -3.4700
# 2 51.1251 85.3916 28.4444 0.0000 0.0000 3.4700
# 3 28.4444 28.4444 80.5072 0.0000 0.0000 0.0000
# 4 0.0000 0.0000 0.0000 9.7714 0.0000 0.0000
# 5 0.0000 0.0000 0.0000 0.0000 9.7714 0.0000
# 6 -3.4700 3.4700 0.0000 0.0000 0.0000 14.3828
#
#
#
# Elastic Compliance Matrix: (Units=1/GPa)
#
#
# Indices 1 2 3 4 5 6 
#
# 1 0.019636 -0.011046 -0.003035 0.000000 0.000000 0.007402
# 2 -0.011046 0.019636 -0.003035 0.000000 0.000000 -0.007402
# 3 -0.003035 -0.003035 0.014566 0.000000 0.000000 0.000000
# 4 0.000000 0.000000 0.000000 0.102339 0.000000 0.000000
# 5 0.000000 0.000000 0.000000 0.000000 0.102339 0.000000
# 6 0.007402 -0.007402 0.000000 0.000000 0.000000 0.073099
#
#
# Mechanical properties :
#
#
# Convention : Reuss Voigt Hill
#
# Bulk Modulus (GPa) = 51.00533 51.92424 51.46478
# Shear Modulus (GPa) = 13.42703 16.33689 14.88196
#
# Velocity S-wave (km/s) = 2.56132 2.82526 2.69652
# Velocity P-wave (km/s) = 5.80242 6.00105 5.90257
#
# Compressibility (1/GPa) = 0.01960579
#
# Stress axis : x y z
#
# Youngs Moduli (GPa) = 50.92683 50.92683 68.65395
#
# Poissons Ratio (x) = 0.56255 0.20836
# Poissons Ratio (y) = 0.56255 0.20836
# Poissons Ratio (z) = 0.15456 0.15456
#
# Static dielectric constant tensor:
#      x y z
#    x 1.762310 0.000000 0.000000 
#    y 0.000000 1.762310 0.000000 
#    z 0.000000 0.000000 1.747220 
# 
# From -- ./inp_files/4391.got.cif
#   From: 2010.05.17/outbox.cif.g08.bks.cpg/sg88_3_cif.got.tgz:4391.got - 2010.06.03 19:11:41.
