data_PCOD9546161
_publ_section_title
;
Structure prediction by ZEFSAII (Michael W. Deem and Ramdas Pophale) SiO2 
 PCOD9546161
Probable space group: I 4/M
;
_chemical_formula_sum "Si O2"
_cell_formula_units_Z 68
_cell_length_a 11.954383
_cell_length_b 11.954383
_cell_length_c 20.826834
_cell_angle_alpha 90.000000
_cell_angle_beta 90.000000
_cell_angle_gamma 90.000000
_cell_volume 2976.306050
_symmetry_space_group_name_H-M "I 4/M"
_symmetry_group_IT_number 87
_symmetry_cell_setting 'tetragonal'
loop_
_space_group_symop_operation_xyz
x,y,z
-y,x,z
-x,-y,z
y,-x,z
-x,-y,-z
y,-x,-z
x,y,-z
-y,x,-z
1/2+x,1/2+y,1/2+z
1/2-y,1/2+x,1/2+z
1/2-x,1/2-y,1/2+z
1/2+y,1/2-x,1/2+z
1/2-x,1/2-y,1/2-z
1/2+y,1/2-x,1/2-z
1/2+x,1/2+y,1/2-z
1/2-y,1/2+x,1/2-z
loop_
_atom_site_type_symbol
_atom_site_label
_atom_site_fract_x
_atom_site_fract_y
_atom_site_fract_z
Si Si1 0.813096 0.002032 0.075437
Si Si2 0.649621 0.403666 0.107710
Si Si3 0.500000 0.000000 0.250000
Si Si4 0.158598 0.374750 0.344833
Si Si5 0.884129 0.138307 0.760659
O O1 0.701784 0.982782 0.116219
O O2 0.891488 0.892601 0.087673
O O3 0.787361 0.004751 0.000000
O O4 0.647482 0.532530 0.083787
O O5 0.776841 0.363600 0.103630
O O6 0.627870 0.375971 0.184099
O O7 0.408746 0.942307 0.297057
O O8 0.257504 0.333166 0.297454
O O9 0.014353 0.151206 0.780097
#
# Coordination Sequence:
#
# PCOD9546161 Si02
#       5
#    16  16   4  16  16
#     4   9  20  40  65  90 112 145 202 255 291 340
#     4   9  19  34  51  73 104 149 200 234 268 339
#     4  12  28  36  46  92 132 152 192 230 280 376
#     4  12  22  35  54  79 120 155 179 238 304 344
#     4   9  17  29  47  72 101 141 187 220 266 342
#
# _framework density 22.847114000000001
#
# number of rings (size 3 to 8) (size 9 to 14) (size 15 to 20)
#    0.000    2.118    0.000    7.059    0.000    7.529 
#    0.000    0.588    0.000    1.412    0.000    1.647 
#    0.000    0.000    0.000    0.000    0.000    0.000 
#
# Total GULP energy -189338.996925 kJ/mol
# GULP energy per Si atom -5568.794027 kJ/mol
# Density = 2.279511 g / cm^3
# Si number density = 22.847114 Si / 1000 Ang^3
#
#
#
# Elastic Constant Matrix: (Units=GPa)
#
#
# Indices 1 2 3 4 5 6 
#
# 1 45.8496 18.9857 -7.0673 0.0000 0.0000 15.0474
# 2 18.9857 45.8496 -7.0673 0.0000 0.0000 -15.0474
# 3 -7.0673 -7.0673 44.1339 0.0000 0.0000 0.0000
# 4 0.0000 0.0000 0.0000 9.1795 0.0000 0.0000
# 5 0.0000 0.0000 0.0000 0.0000 9.1795 0.0000
# 6 15.0474 -15.0474 0.0000 0.0000 0.0000 -24.5560
#
#
#
# Elastic Compliance Matrix: (Units=1/GPa)
#
#
# Indices 1 2 3 4 5 6 
#
# 1 0.019027 -0.003045 0.002559 0.000000 0.000000 0.013526
# 2 -0.003045 0.019027 0.002559 0.000000 0.000000 -0.013526
# 3 0.002559 0.002559 0.023478 0.000000 0.000000 0.000000
# 4 0.000000 0.000000 0.000000 0.108938 0.000000 0.000000
# 5 0.000000 0.000000 0.000000 0.000000 0.108938 0.000000
# 6 0.013526 -0.013526 0.000000 0.000000 0.000000 -0.024147
#
#
# Mechanical properties :
#
#
# Convention : Reuss Voigt Hill
#
# Bulk Modulus (GPa) = 15.22583 16.17060 15.69821
# Shear Modulus (GPa) = 18.31451 7.49275 12.90363
#
# Velocity S-wave (km/s) = 2.83435 1.81291 2.37909
# Velocity P-wave (km/s) = 4.17014 3.38752 3.79904
#
# Compressibility (1/GPa) = 0.06567787
#
# Stress axis : x y z
#
# Youngs Moduli (GPa) = 52.55681 52.55681 42.59319
#
# Poissons Ratio (x) = 0.16006 -0.10900
# Poissons Ratio (y) = 0.16006 -0.10900
# Poissons Ratio (z) = -0.13450 -0.13450
#
# Static dielectric constant tensor:
#      x y z
#    x 1.899660 0.000000 0.000000 
#    y 0.000000 1.899660 0.000000 
#    z 0.000000 0.000000 1.902690 
# 
# From -- ./inp_files/6158.got.cif
#   From: 2010.05.17/outbox.cif.g08.bks.cpg/sg87_4_cif.got.tgz:6158.got - 2010.06.03 19:07:00.
