data_PCOD9546524
_publ_section_title
;
Structure prediction by ZEFSAII (Michael W. Deem and Ramdas Pophale) SiO2 
 PCOD9546524
Probable space group: I 41/A
;
_chemical_formula_sum "Si O2"
_cell_formula_units_Z 120
_cell_length_a 15.283568
_cell_length_b 15.283568
_cell_length_c 26.764052
_cell_angle_alpha 90.000000
_cell_angle_beta 90.000000
_cell_angle_gamma 90.000000
_cell_volume 6251.746680
_symmetry_space_group_name_H-M "I 41/A"
_symmetry_group_IT_number 88
_space_group.IT_coordinate_system_code '2'
_symmetry_cell_setting 'tetragonal'
loop_
_space_group_symop_operation_xyz
x,y,z
3/4-y,1/4+x,1/4+z
-x,1/2-y,z
1/4+y,1/4-x,1/4+z
-x,-y,-z
1/4+y,3/4-x,3/4-z
x,1/2+y,-z
3/4-y,3/4+x,3/4-z
1/2+x,1/2+y,1/2+z
1/4-y,3/4+x,3/4+z
1/2-x,-y,1/2+z
3/4+y,3/4-x,3/4+z
1/2-x,1/2-y,1/2-z
3/4+y,1/4-x,1/4-z
1/2+x,y,1/2-z
1/4-y,1/4+x,1/4-z
loop_
_atom_site_type_symbol
_atom_site_label
_atom_site_fract_x
_atom_site_fract_y
_atom_site_fract_z
Si Si1 0.344669 0.636283 0.668633
Si Si2 0.357874 0.223595 0.110697
Si Si3 0.605294 0.524304 0.269588
Si Si4 0.000000 0.250000 0.308639
Si Si5 0.257755 0.535504 0.525612
Si Si6 0.686961 0.177913 0.325867
Si Si7 0.953359 0.946481 0.712805
Si Si8 0.168715 0.415299 0.874837
O O1 0.398317 0.566692 0.699726
O O2 0.379680 0.633912 0.611355
O O3 0.350291 0.731005 0.692959
O O4 0.244450 0.603813 0.663330
O O5 0.350137 0.175086 0.057706
O O6 0.429542 0.206659 0.153183
O O7 0.266323 0.204968 0.138120
O O8 0.365458 0.326879 0.101933
O O9 0.706421 0.532853 0.255230
O O10 0.541210 0.501171 0.223783
O O11 0.036236 0.160958 0.281366
O O12 0.360906 0.522639 0.536786
O O13 0.261759 0.630887 0.500276
O O14 0.209419 0.531786 0.579073
O O15 0.912201 0.958118 0.657622
#
# Coordination Sequence:
#
# PCOD9546524 Si02
#       8
#    16  16  16   8  16  16  16  16
#     4   9  18  31  46  70 106 150 184 229 272 333
#     4   9  18  37  54  77 114 148 189 236 301 349
#     4  11  21  34  57  84 110 149 202 240 298 365
#     4  10  22  36  58  80 119 159 192 256 298 362
#     4  11  21  35  57  80 114 155 192 251 296 347
#     4   9  19  30  46  70 108 151 189 220 276 336
#     4  11  22  36  54  86 114 156 207 242 300 368
#     4   9  18  38  54  73 114 153 184 241 298 342
#
# _framework density 19.194635999999999
#
# number of rings (size 3 to 8) (size 9 to 14) (size 15 to 20)
#    0.000    2.133    2.667    0.800    3.733    0.800 
#    0.000    0.000    0.000    4.800    0.000    0.000 
#    0.000    0.000    0.000    0.000    0.000    0.000 
#
# Total GULP energy -334046.009858 kJ/mol
# GULP energy per Si atom -5567.433498 kJ/mol
# Density = 1.915095 g / cm^3
# Si number density = 19.194636 Si / 1000 Ang^3
#
#
#
# Elastic Constant Matrix: (Units=GPa)
#
#
# Indices 1 2 3 4 5 6 
#
# 1 32.7830 8.1574 7.2698 0.0000 0.0000 -2.0737
# 2 8.1574 32.7830 7.2698 0.0000 0.0000 2.0737
# 3 7.2698 7.2698 48.0261 0.0000 0.0000 0.0000
# 4 0.0000 0.0000 0.0000 18.2397 0.0000 0.0000
# 5 0.0000 0.0000 0.0000 0.0000 18.2397 0.0000
# 6 -2.0737 2.0737 0.0000 0.0000 0.0000 13.6918
#
#
#
# Elastic Compliance Matrix: (Units=1/GPa)
#
#
# Indices 1 2 3 4 5 6 
#
# 1 0.033742 -0.007929 -0.003907 0.000000 0.000000 0.006311
# 2 -0.007929 0.033742 -0.003907 0.000000 0.000000 -0.006311
# 3 -0.003907 -0.003907 0.022005 0.000000 0.000000 0.000000
# 4 0.000000 0.000000 0.000000 0.054825 0.000000 0.000000
# 5 0.000000 0.000000 0.000000 0.000000 0.054825 0.000000
# 6 0.006311 -0.006311 0.000000 0.000000 0.000000 0.074948
#
#
# Mechanical properties :
#
#
# Convention : Reuss Voigt Hill
#
# Bulk Modulus (GPa) = 17.24076 17.66514 17.45295
# Shear Modulus (GPa) = 15.38887 16.09391 15.74139
#
# Velocity S-wave (km/s) = 2.83455 2.89876 2.86683
# Velocity P-wave (km/s) = 4.44010 4.51961 4.48003
#
# Compressibility (1/GPa) = 0.05800210
#
# Stress axis : x y z
#
# Youngs Moduli (GPa) = 29.63639 29.63639 45.44432
#
# Poissons Ratio (x) = 0.23498 0.17757
# Poissons Ratio (y) = 0.23498 0.17757
# Poissons Ratio (z) = 0.11580 0.11580
#
# Static dielectric constant tensor:
#      x y z
#    x 1.714220 0.000000 0.000000 
#    y 0.000000 1.714220 0.000000 
#    z 0.000000 0.000000 1.738280 
# 
# From -- ./inp_files/6631.got.cif
#   From: 2010.05.17/outbox.cif.g08.bks.cpg/sg88_4_cif.got.tgz:6631.got - 2010.06.03 19:11:41.
