data_PCOD9546202
_publ_section_title
;
Structure prediction by ZEFSAII (Michael W. Deem and Ramdas Pophale) SiO2 
 PCOD9546202
Probable space group: I 41/A
;
_chemical_formula_sum "Si O2"
_cell_formula_units_Z 60
_cell_length_a 11.309874
_cell_length_b 11.309874
_cell_length_c 17.807356
_cell_angle_alpha 90.000000
_cell_angle_beta 90.000000
_cell_angle_gamma 90.000000
_cell_volume 2277.796778
_symmetry_space_group_name_H-M "I 41/A"
_symmetry_group_IT_number 88
_space_group.IT_coordinate_system_code '2'
_symmetry_cell_setting 'tetragonal'
loop_
_space_group_symop_operation_xyz
x,y,z
3/4-y,1/4+x,1/4+z
-x,1/2-y,z
1/4+y,1/4-x,1/4+z
-x,-y,-z
1/4+y,3/4-x,3/4-z
x,1/2+y,-z
3/4-y,3/4+x,3/4-z
1/2+x,1/2+y,1/2+z
1/4-y,3/4+x,3/4+z
1/2-x,-y,1/2+z
3/4+y,3/4-x,3/4+z
1/2-x,1/2-y,1/2-z
3/4+y,1/4-x,1/4-z
1/2+x,y,1/2-z
1/4-y,1/4+x,1/4-z
loop_
_atom_site_type_symbol
_atom_site_label
_atom_site_fract_x
_atom_site_fract_y
_atom_site_fract_z
Si Si1 0.000000 0.250000 0.942495
Si Si2 0.042594 0.882745 0.283311
Si Si3 0.648111 0.050667 0.108564
Si Si4 0.387228 0.569305 0.701139
Si Si5 0.000000 0.750000 0.875000
O O1 0.903865 0.181247 0.895670
O O2 0.934714 0.349673 0.993789
O O3 0.155620 0.904825 0.227179
O O4 0.000000 0.750000 0.279360
O O5 0.079211 0.933278 0.364669
O O6 0.935367 0.961096 0.249466
O O7 0.772810 0.042624 0.152426
O O8 0.495867 0.611881 0.649200
#
# Coordination Sequence:
#
# PCOD9546202 Si02
#       5
#     8  16  16  16   4
#     4   9  20  35  62 102 146 184 238 304 378 451
#     4  11  25  45  71 108 154 200 258 312 386 469
#     4  11  22  42  70 106 149 198 246 323 380 459
#     4  10  20  35  66 103 142 188 239 311 380 441
#     4  10  16  32  60 108 140 172 242 308 386 442
#
# _framework density 26.341244
#
# number of rings (size 3 to 8) (size 9 to 14) (size 15 to 20)
#    0.000    1.600    4.000    0.800    0.000    3.200 
#    0.000    0.000    0.000    0.000    0.000    0.000 
#    0.000    0.000    0.000    0.000    0.000    0.000 
#
# Total GULP energy -167504.896413 kJ/mol
# GULP energy per Si atom -5583.496547 kJ/mol
# Density = 2.628129 g / cm^3
# Si number density = 26.341244 Si / 1000 Ang^3
#
#
#
# Elastic Constant Matrix: (Units=GPa)
#
#
# Indices 1 2 3 4 5 6 
#
# 1 140.5479 39.0414 37.4227 0.0000 0.0000 -1.9269
# 2 39.0414 140.5479 37.4227 0.0000 0.0000 1.9269
# 3 37.4227 37.4227 98.4696 0.0000 0.0000 0.0000
# 4 0.0000 0.0000 0.0000 35.9245 0.0000 0.0000
# 5 0.0000 0.0000 0.0000 0.0000 35.9245 0.0000
# 6 -1.9269 1.9269 0.0000 0.0000 0.0000 20.7133
#
#
#
# Elastic Compliance Matrix: (Units=1/GPa)
#
#
# Indices 1 2 3 4 5 6 
#
# 1 0.008251 -0.001635 -0.002514 0.000000 0.000000 0.000920
# 2 -0.001635 0.008251 -0.002514 0.000000 0.000000 -0.000920
# 3 -0.002514 -0.002514 0.012067 0.000000 0.000000 0.000000
# 4 0.000000 0.000000 0.000000 0.027836 0.000000 0.000000
# 5 0.000000 0.000000 0.000000 0.000000 0.027836 0.000000
# 6 0.000920 -0.000920 0.000000 0.000000 0.000000 0.048449
#
#
# Mechanical properties :
#
#
# Convention : Reuss Voigt Hill
#
# Bulk Modulus (GPa) = 65.61154 67.48212 66.54683
# Shear Modulus (GPa) = 33.09083 36.22437 34.65760
#
# Velocity S-wave (km/s) = 3.54819 3.71239 3.63122
# Velocity P-wave (km/s) = 6.46131 6.63700 6.54975
#
# Compressibility (1/GPa) = 0.01524122
#
# Stress axis : x y z
#
# Youngs Moduli (GPa) = 121.19248 121.19248 82.87332
#
# Poissons Ratio (x) = 0.19817 0.20838
# Poissons Ratio (y) = 0.19817 0.20838
# Poissons Ratio (z) = 0.30473 0.30473
#
# Static dielectric constant tensor:
#      x y z
#    x 1.951910 0.000000 0.000000 
#    y 0.000000 1.951910 0.000000 
#    z 0.000000 0.000000 3.088200 
# 
# From -- ./inp_files/4447.got.cif
#   From: 2010.05.17/outbox.cif.g08.bks.cpg/sg88_3_cif.got.tgz:4447.got - 2010.06.03 19:11:41.
