data_PCOD9546057
_publ_section_title
;
Structure prediction by ZEFSAII (Michael W. Deem and Ramdas Pophale) SiO2 
 PCOD9546057
Probable space group: I 4/M
;
_chemical_formula_sum "Si O2"
_cell_formula_units_Z 96
_cell_length_a 13.926784
_cell_length_b 13.926784
_cell_length_c 31.914814
_cell_angle_alpha 90.000000
_cell_angle_beta 90.000000
_cell_angle_gamma 90.000000
_cell_volume 6190.047725
_symmetry_space_group_name_H-M "I 4/M"
_symmetry_group_IT_number 87
_symmetry_cell_setting 'tetragonal'
loop_
_space_group_symop_operation_xyz
x,y,z
-y,x,z
-x,-y,z
y,-x,z
-x,-y,-z
y,-x,-z
x,y,-z
-y,x,-z
1/2+x,1/2+y,1/2+z
1/2-y,1/2+x,1/2+z
1/2-x,1/2-y,1/2+z
1/2+y,1/2-x,1/2+z
1/2-x,1/2-y,1/2-z
1/2+y,1/2-x,1/2-z
1/2+x,1/2+y,1/2-z
1/2-y,1/2+x,1/2-z
loop_
_atom_site_type_symbol
_atom_site_label
_atom_site_fract_x
_atom_site_fract_y
_atom_site_fract_z
Si Si1 0.681286 0.115249 0.279219
Si Si2 0.392484 0.703047 0.326428
Si Si3 0.655215 0.455581 0.549147
Si Si4 0.087114 0.259214 0.129295
Si Si5 0.931534 0.406255 0.691694
Si Si6 0.114999 0.897133 0.740493
O O1 0.620853 0.195876 0.302851
O O2 0.637734 0.098553 0.232619
O O3 0.790188 0.153615 0.276334
O O4 0.674454 0.013332 0.302903
O O5 0.492097 0.709867 0.350660
O O6 0.304334 0.677890 0.356522
O O7 0.387854 0.623167 0.290093
O O8 0.614231 0.563333 0.556944
O O9 0.679406 0.448947 0.500000
O O10 0.742033 0.428418 0.579966
O O11 0.095531 0.363824 0.150837
O O12 0.000000 0.500000 0.693358
O O13 0.007857 0.870507 0.728366
#
# Coordination Sequence:
#
# PCOD9546057 Si02
#       6
#    16  16  16  16  16  16
#     4  12  22  36  47  66  95 142 177 208 242 288
#     4  12  22  32  49  71  99 130 171 208 247 283
#     4   9  18  33  53  77 106 131 150 188 253 317
#     4  12  22  33  52  77  97 128 163 210 244 297
#     4  12  21  35  48  64  96 136 179 208 232 276
#     4  11  22  33  46  67  96 128 169 215 259 287
#
# _framework density 15.508765
#
# number of rings (size 3 to 8) (size 9 to 14) (size 15 to 20)
#    0.000    0.667    8.333    2.000    2.333    0.333 
#    0.000    0.000    0.000    0.500    0.000    0.000 
#    0.000    0.000    0.000    0.000    0.000    1.667 
#
# Total GULP energy -267562.664750 kJ/mol
# GULP energy per Si atom -5574.222182 kJ/mol
# Density = 1.547347 g / cm^3
# Si number density = 15.508765 Si / 1000 Ang^3
#
#
#
# Elastic Constant Matrix: (Units=GPa)
#
#
# Indices 1 2 3 4 5 6 
#
# 1 51.8493 28.5457 29.7828 0.0000 0.0000 -2.8232
# 2 28.5457 51.8493 29.7828 0.0000 0.0000 2.8232
# 3 29.7828 29.7828 84.6841 0.0000 0.0000 0.0000
# 4 0.0000 0.0000 0.0000 18.3873 0.0000 0.0000
# 5 0.0000 0.0000 0.0000 0.0000 18.3873 0.0000
# 6 -2.8232 2.8232 0.0000 0.0000 0.0000 15.1250
#
#
#
# Elastic Compliance Matrix: (Units=1/GPa)
#
#
# Indices 1 2 3 4 5 6 
#
# 1 0.030883 -0.014061 -0.005916 0.000000 0.000000 0.008389
# 2 -0.014061 0.030883 -0.005916 0.000000 0.000000 -0.008389
# 3 -0.005916 -0.005916 0.015970 0.000000 0.000000 0.000000
# 4 0.000000 0.000000 0.000000 0.054386 0.000000 0.000000
# 5 0.000000 0.000000 0.000000 0.000000 0.054386 0.000000
# 6 0.008389 -0.008389 0.000000 0.000000 0.000000 0.069248
#
#
# Mechanical properties :
#
#
# Convention : Reuss Voigt Hill
#
# Bulk Modulus (GPa) = 38.53688 40.51172 39.52430
# Shear Modulus (GPa) = 15.81318 17.06466 16.43892
#
# Velocity S-wave (km/s) = 3.19663 3.32071 3.25926
# Velocity P-wave (km/s) = 6.20701 6.39385 6.30112
#
# Compressibility (1/GPa) = 0.02594917
#
# Stress axis : x y z
#
# Youngs Moduli (GPa) = 32.38004 32.38004 62.61762
#
# Poissons Ratio (x) = 0.45530 0.37046
# Poissons Ratio (y) = 0.45530 0.37046
# Poissons Ratio (z) = 0.19157 0.19157
#
# Static dielectric constant tensor:
#      x y z
#    x 1.555720 0.000000 0.000000 
#    y 0.000000 1.555720 0.000000 
#    z 0.000000 0.000000 1.500740 
# 
# From -- ./inp_files/6671.got.cif
#   From: 2010.05.17/outbox.cif.g08.bks.cpg/sg87_4_cif.got.tgz:6671.got - 2010.06.03 19:07:00.
