data_PCOD9546829
_publ_section_title
;
Structure prediction by ZEFSAII (Michael W. Deem and Ramdas Pophale) SiO2 
 PCOD9546829
Probable space group: I 41/A
;
_chemical_formula_sum "Si O2"
_cell_formula_units_Z 32
_cell_length_a 10.078412
_cell_length_b 10.078412
_cell_length_c 9.206472
_cell_angle_alpha 90.000000
_cell_angle_beta 90.000000
_cell_angle_gamma 90.000000
_cell_volume 935.141763
_symmetry_space_group_name_H-M "I 41/A"
_symmetry_group_IT_number 88
_space_group.IT_coordinate_system_code '2'
_symmetry_cell_setting 'tetragonal'
loop_
_space_group_symop_operation_xyz
x,y,z
3/4-y,1/4+x,1/4+z
-x,1/2-y,z
1/4+y,1/4-x,1/4+z
-x,-y,-z
1/4+y,3/4-x,3/4-z
x,1/2+y,-z
3/4-y,3/4+x,3/4-z
1/2+x,1/2+y,1/2+z
1/4-y,3/4+x,3/4+z
1/2-x,-y,1/2+z
3/4+y,3/4-x,3/4+z
1/2-x,1/2-y,1/2-z
3/4+y,1/4-x,1/4-z
1/2+x,y,1/2-z
1/4-y,1/4+x,1/4-z
loop_
_atom_site_type_symbol
_atom_site_label
_atom_site_fract_x
_atom_site_fract_y
_atom_site_fract_z
Si Si1 0.108324 0.428533 0.666724
Si Si2 0.608324 0.428533 0.333276
O O1 0.199454 0.387698 0.805477
O O2 0.199453 0.387698 0.305477
O O3 0.951020 0.403175 0.685673
O O4 0.653175 0.298981 0.435673
#
# Coordination Sequence:
#
# PCOD9546829 Si02
#       2
#    16  16
#     4  11  27  50  80 118 162 212 271 337 408 485
#     4  11  27  50  80 118 162 212 271 337 408 485
#
# _framework density 34.219411000000001
#
# number of rings (size 3 to 8) (size 9 to 14) (size 15 to 20)
#    0.000    1.000    0.000    3.000    0.000   38.000 
#    0.000    0.000    0.000    0.000    0.000    0.000 
#    0.000    0.000    0.000    0.000    0.000    0.000 
#
# Total GULP energy -89640.231128 kJ/mol
# GULP energy per Si atom -5602.514445 kJ/mol
# Density = 3.414153 g / cm^3
# Si number density = 34.219411 Si / 1000 Ang^3
#
#
#
# Elastic Constant Matrix: (Units=GPa)
#
#
# Indices 1 2 3 4 5 6 
#
# 1 159.1787 186.0712 127.2676 0.0000 0.0000 -161.4830
# 2 186.0712 159.1787 127.2676 0.0000 0.0000 161.4830
# 3 127.2676 127.2676 486.7227 0.0000 0.0000 0.0000
# 4 0.0000 0.0000 0.0000 -26.7670 0.0000 0.0000
# 5 0.0000 0.0000 0.0000 0.0000 -26.7670 0.0000
# 6 -161.4830 161.4830 0.0000 0.0000 0.0000 -28.7868
#
#
#
# Elastic Compliance Matrix: (Units=1/GPa)
#
#
# Indices 1 2 3 4 5 6 
#
# 1 0.002074 0.001514 -0.000938 0.000000 0.000000 -0.003143
# 2 0.001514 0.002074 -0.000938 0.000000 0.000000 0.003143
# 3 -0.000938 -0.000938 0.002545 0.000000 0.000000 0.000000
# 4 0.000000 0.000000 0.000000 -0.037359 0.000000 0.000000
# 5 0.000000 0.000000 0.000000 0.000000 -0.037359 0.000000
# 6 -0.003143 0.003143 0.000000 0.000000 0.000000 0.000523
#
#
# Mechanical properties :
#
#
# Convention : Reuss Voigt Hill
#
# Bulk Modulus (GPa) = 167.54291 187.36591 177.45441
# Shear Modulus (GPa) = -77.17556 7.83410 -34.67073
#
# Velocity S-wave (km/s) = -4.75417 1.51471 -3.18652
# Velocity P-wave (km/s) = 4.35103 7.61132 6.19935
#
# Compressibility (1/GPa) = 0.00596862
#
# Stress axis : x y z
#
# Youngs Moduli (GPa) = 482.10903 482.10903 392.89481
#
# Poissons Ratio (x) = -0.72988 0.36862
# Poissons Ratio (y) = -0.72988 0.36862
# Poissons Ratio (z) = 0.45233 0.45233
#
# Static dielectric constant tensor:
#      x y z
#    x 4.011550 0.000000 0.000000 
#    y 0.000000 4.011550 0.000000 
#    z 0.000000 0.000000 5.230100 
# 
# From -- ./inp_files/1977.got.cif
#   From: 2010.05.17/outbox.cif.g08.bks.cpg/sg88_1_cif.got.tgz:1977.got - 2010.06.03 19:11:41.
