data_PCOD9546218
_publ_section_title
;
Structure prediction by ZEFSAII (Michael W. Deem and Ramdas Pophale) SiO2 
 PCOD9546218
Probable space group: I 41/A
;
_chemical_formula_sum "Si O2"
_cell_formula_units_Z 64
_cell_length_a 17.196850
_cell_length_b 17.196850
_cell_length_c 10.086700
_cell_angle_alpha 90.000000
_cell_angle_beta 90.000000
_cell_angle_gamma 90.000000
_cell_volume 2982.956433
_symmetry_space_group_name_H-M "I 41/A"
_symmetry_group_IT_number 88
_space_group.IT_coordinate_system_code '2'
_symmetry_cell_setting 'tetragonal'
loop_
_space_group_symop_operation_xyz
x,y,z
3/4-y,1/4+x,1/4+z
-x,1/2-y,z
1/4+y,1/4-x,1/4+z
-x,-y,-z
1/4+y,3/4-x,3/4-z
x,1/2+y,-z
3/4-y,3/4+x,3/4-z
1/2+x,1/2+y,1/2+z
1/4-y,3/4+x,3/4+z
1/2-x,-y,1/2+z
3/4+y,3/4-x,3/4+z
1/2-x,1/2-y,1/2-z
3/4+y,1/4-x,1/4-z
1/2+x,y,1/2-z
1/4-y,1/4+x,1/4-z
loop_
_atom_site_type_symbol
_atom_site_label
_atom_site_fract_x
_atom_site_fract_y
_atom_site_fract_z
Si Si1 0.575305 0.579085 0.442835
Si Si2 0.255376 0.369809 0.573493
Si Si3 0.673920 0.164269 0.135830
Si Si4 0.873162 0.506476 0.383684
O O1 0.654120 0.626394 0.462904
O O2 0.581061 0.540983 0.295727
O O3 0.491010 0.619071 0.439437
O O4 0.579890 0.508354 0.545915
O O5 0.211391 0.453520 0.588512
O O6 0.252177 0.337252 0.722500
O O7 0.637152 0.080932 0.168640
O O8 0.689518 0.161456 0.977593
#
# Coordination Sequence:
#
# PCOD9546218 Si02
#       4
#    16  16  16  16
#     4  10  18  27  45  71  94 118 150 189 234 282
#     4   9  17  31  49  67  91 120 153 197 238 272
#     4  10  18  27  45  71  94 118 150 189 234 282
#     4   9  17  31  49  67  91 120 153 197 238 272
#
# _framework density 21.455224999999999
#
# number of rings (size 3 to 8) (size 9 to 14) (size 15 to 20)
#    0.000    2.500    0.000    6.000    0.000    1.000 
#    0.000    0.000    0.000    1.500    0.000   14.000 
#    0.000    0.000    0.000    0.000    0.000    0.000 
#
# Total GULP energy -178282.069746 kJ/mol
# GULP energy per Si atom -5571.314680 kJ/mol
# Density = 2.140639 g / cm^3
# Si number density = 21.455225 Si / 1000 Ang^3
#
#
#
# Elastic Constant Matrix: (Units=GPa)
#
#
# Indices 1 2 3 4 5 6 
#
# 1 67.5499 -12.3616 -21.1369 0.0000 0.0000 -2.6416
# 2 -12.3616 67.5499 -21.1369 0.0000 0.0000 2.6416
# 3 -21.1369 -21.1369 67.7488 0.0000 0.0000 0.0000
# 4 0.0000 0.0000 0.0000 -4.7896 0.0000 0.0000
# 5 0.0000 0.0000 0.0000 0.0000 -4.7896 0.0000
# 6 -2.6416 2.6416 0.0000 0.0000 0.0000 -0.9871
#
#
#
# Elastic Compliance Matrix: (Units=1/GPa)
#
#
# Indices 1 2 3 4 5 6 
#
# 1 0.017221 0.006589 0.007428 0.000000 0.000000 -0.028453
# 2 0.006589 0.017221 0.007428 0.000000 0.000000 0.028453
# 3 0.007428 0.007428 0.019396 0.000000 0.000000 0.000000
# 4 0.000000 0.000000 0.000000 -0.208785 0.000000 0.000000
# 5 0.000000 0.000000 0.000000 0.000000 -0.208785 0.000000
# 6 -0.028453 0.028453 0.000000 0.000000 0.000000 -0.860746
#
#
# Mechanical properties :
#
#
# Convention : Reuss Voigt Hill
#
# Bulk Modulus (GPa) = 10.33814 10.39753 10.36784
# Shear Modulus (GPa) = -4.04817 15.05232 5.50207
#
# Velocity S-wave (km/s) = -1.37510 2.65159 1.60313
# Velocity P-wave (km/s) = 1.51912 3.77243 2.87567
#
# Compressibility (1/GPa) = 0.09672919
#
# Stress axis : x y z
#
# Youngs Moduli (GPa) = 58.06764 58.06764 51.55804
#
# Poissons Ratio (x) = -0.38258 -0.38300
# Poissons Ratio (y) = -0.38258 -0.38300
# Poissons Ratio (z) = -0.43135 -0.43135
#
# Static dielectric constant tensor:
#      x y z
#    x 1.812840 0.000000 0.000000 
#    y 0.000000 1.812840 0.000000 
#    z 0.000000 0.000000 1.834920 
# 
# From -- ./inp_files/2341.got.cif
#   From: 2010.05.17/outbox.cif.g08.bks.cpg/sg88_2_cif.got.tgz:2341.got - 2010.06.03 19:11:41.
