data_PCOD9546453
_publ_section_title
;
Structure prediction by ZEFSAII (Michael W. Deem and Ramdas Pophale) SiO2 
 PCOD9546453
Probable space group: I 41/A
;
_chemical_formula_sum "Si O2"
_cell_formula_units_Z 64
_cell_length_a 18.752809
_cell_length_b 18.752809
_cell_length_c 7.608683
_cell_angle_alpha 90.000000
_cell_angle_beta 90.000000
_cell_angle_gamma 90.000000
_cell_volume 2675.729157
_symmetry_space_group_name_H-M "I 41/A"
_symmetry_group_IT_number 88
_space_group.IT_coordinate_system_code '2'
_symmetry_cell_setting 'tetragonal'
loop_
_space_group_symop_operation_xyz
x,y,z
3/4-y,1/4+x,1/4+z
-x,1/2-y,z
1/4+y,1/4-x,1/4+z
-x,-y,-z
1/4+y,3/4-x,3/4-z
x,1/2+y,-z
3/4-y,3/4+x,3/4-z
1/2+x,1/2+y,1/2+z
1/4-y,3/4+x,3/4+z
1/2-x,-y,1/2+z
3/4+y,3/4-x,3/4+z
1/2-x,1/2-y,1/2-z
3/4+y,1/4-x,1/4-z
1/2+x,y,1/2-z
1/4-y,1/4+x,1/4-z
loop_
_atom_site_type_symbol
_atom_site_label
_atom_site_fract_x
_atom_site_fract_y
_atom_site_fract_z
Si Si1 0.174311 0.965112 0.917497
Si Si2 0.759392 0.849829 0.369560
Si Si3 0.081202 0.324002 0.576410
Si Si4 0.770328 0.705614 0.523612
O O1 0.206578 0.947029 0.729175
O O2 0.335260 0.962956 0.807606
O O3 0.090314 0.969843 0.898361
O O4 0.845620 0.854348 0.377564
O O5 0.743012 0.784742 0.500137
O O6 0.737849 0.827031 0.173722
O O7 0.082241 0.254611 0.708793
O O8 0.144270 0.300734 0.441021
#
# Coordination Sequence:
#
# PCOD9546453 Si02
#       4
#    16  16  16  16
#     4  12  23  36  57  85 118 157 205 256 313 376
#     4  10  21  38  59  85 121 163 207 260 322 385
#     4   9  17  32  57  86 114 152 205 257 307 374
#     4  10  21  38  59  85 121 163 207 260 322 385
#
# _framework density 23.918714000000001
#
# number of rings (size 3 to 8) (size 9 to 14) (size 15 to 20)
#    0.000    1.750    0.000    6.000    0.000    1.000 
#    0.000    2.500    0.000    3.750    0.000    0.000 
#    0.000    0.000    0.000    0.000    0.000    0.000 
#
# Total GULP energy -178312.207404 kJ/mol
# GULP energy per Si atom -5572.256481 kJ/mol
# Density = 2.386427 g / cm^3
# Si number density = 23.918714 Si / 1000 Ang^3
#
#
#
# Elastic Constant Matrix: (Units=GPa)
#
#
# Indices 1 2 3 4 5 6 
#
# 1 75.9010 16.5413 24.7696 0.0000 0.0000 -6.5309
# 2 16.5413 75.9010 24.7696 0.0000 0.0000 6.5309
# 3 24.7696 24.7696 46.2716 0.0000 0.0000 0.0000
# 4 0.0000 0.0000 0.0000 32.0695 0.0000 0.0000
# 5 0.0000 0.0000 0.0000 0.0000 32.0695 0.0000
# 6 -6.5309 6.5309 0.0000 0.0000 0.0000 34.7961
#
#
#
# Elastic Compliance Matrix: (Units=1/GPa)
#
#
# Indices 1 2 3 4 5 6 
#
# 1 0.016371 -0.001202 -0.008120 0.000000 0.000000 0.003298
# 2 -0.001202 0.016371 -0.008120 0.000000 0.000000 -0.003298
# 3 -0.008120 -0.008120 0.030305 0.000000 0.000000 0.000000
# 4 0.000000 0.000000 0.000000 0.031182 0.000000 0.000000
# 5 0.000000 0.000000 0.000000 0.000000 0.031182 0.000000
# 6 0.003298 -0.003298 0.000000 0.000000 0.000000 0.029977
#
#
# Mechanical properties :
#
#
# Convention : Reuss Voigt Hill
#
# Bulk Modulus (GPa) = 35.50796 36.69272 36.10034
# Shear Modulus (GPa) = 25.04268 28.58655 26.81461
#
# Velocity S-wave (km/s) = 3.23923 3.46085 3.35187
# Velocity P-wave (km/s) = 5.37286 5.59856 5.48687
#
# Compressibility (1/GPa) = 0.02816270
#
# Stress axis : x y z
#
# Youngs Moduli (GPa) = 61.08498 61.08498 32.99771
#
# Poissons Ratio (x) = 0.07340 0.26795
# Poissons Ratio (y) = 0.07340 0.26795
# Poissons Ratio (z) = 0.49602 0.49602
#
# Static dielectric constant tensor:
#      x y z
#    x 1.939880 0.000000 0.000000 
#    y 0.000000 1.939880 0.000000 
#    z 0.000000 0.000000 1.938970 
# 
# From -- ./inp_files/2352.got.cif
#   From: 2010.05.17/outbox.cif.g08.bks.cpg/sg88_2_cif.got.tgz:2352.got - 2010.06.03 19:11:41.
