data_PCOD9546261
_publ_section_title
;
Structure prediction by ZEFSAII (Michael W. Deem and Ramdas Pophale) SiO2 
 PCOD9546261
Probable space group: I 41/A
;
_chemical_formula_sum "Si O2"
_cell_formula_units_Z 120
_cell_length_a 18.052310
_cell_length_b 18.052310
_cell_length_c 16.909323
_cell_angle_alpha 90.000000
_cell_angle_beta 90.000000
_cell_angle_gamma 90.000000
_cell_volume 5510.509882
_symmetry_space_group_name_H-M "I 41/A"
_symmetry_group_IT_number 88
_space_group.IT_coordinate_system_code '2'
_symmetry_cell_setting 'tetragonal'
loop_
_space_group_symop_operation_xyz
x,y,z
3/4-y,1/4+x,1/4+z
-x,1/2-y,z
1/4+y,1/4-x,1/4+z
-x,-y,-z
1/4+y,3/4-x,3/4-z
x,1/2+y,-z
3/4-y,3/4+x,3/4-z
1/2+x,1/2+y,1/2+z
1/4-y,3/4+x,3/4+z
1/2-x,-y,1/2+z
3/4+y,3/4-x,3/4+z
1/2-x,1/2-y,1/2-z
3/4+y,1/4-x,1/4-z
1/2+x,y,1/2-z
1/4-y,1/4+x,1/4-z
loop_
_atom_site_type_symbol
_atom_site_label
_atom_site_fract_x
_atom_site_fract_y
_atom_site_fract_z
Si Si1 0.824323 0.117877 0.342990
Si Si2 0.307839 0.472254 0.767146
Si Si3 0.969586 0.089615 0.881246
Si Si4 0.500000 0.250000 0.081223
Si Si5 0.674913 0.177426 0.955192
Si Si6 0.193039 0.890433 0.121457
Si Si7 0.972808 0.095715 0.418963
Si Si8 0.689810 0.317911 0.850246
O O1 0.797165 0.084131 0.428268
O O2 0.805834 0.204798 0.333905
O O3 0.914356 0.112406 0.348541
O O4 0.797784 0.060379 0.277507
O O5 0.236975 0.432848 0.808541
O O6 0.375526 0.451091 0.826584
O O7 0.969246 0.071586 0.787700
O O8 0.884625 0.072916 0.904503
O O9 0.978338 0.178998 0.883267
O O10 0.525969 0.325025 0.036372
O O11 0.744994 0.123598 0.944540
O O12 0.672573 0.237820 0.885877
O O13 0.603238 0.126063 0.948911
O O14 0.172276 0.805995 0.144443
O O15 0.940194 0.017163 0.447620
#
# Coordination Sequence:
#
# PCOD9546261 Si02
#       8
#    16  16  16   8  16  16  16  16
#     4  10  20  35  56  77 110 146 187 230 280 335
#     4  10  20  34  52  79 107 141 180 226 277 331
#     4  10  19  34  53  74 105 146 189 229 278 331
#     4   8  16  30  44  71  96 140 182 223 256 316
#     4  10  19  32  44  69 104 145 187 223 266 327
#     4   9  20  32  50  76 109 144 183 231 275 326
#     4   8  16  31  46  69 103 141 178 219 263 315
#     4   9  18  30  42  66 100 140 174 221 262 312
#
# _framework density 21.77657
#
# number of rings (size 3 to 8) (size 9 to 14) (size 15 to 20)
#    0.000    2.667    1.333    0.000    5.600    1.867 
#   12.000    0.000    0.000    0.800    0.000    0.000 
#    0.000    0.000    0.000    0.000    0.000    0.000 
#
# Total GULP energy -334156.388628 kJ/mol
# GULP energy per Si atom -5569.273144 kJ/mol
# Density = 2.172701 g / cm^3
# Si number density = 21.776570 Si / 1000 Ang^3
#
#
#
# Elastic Constant Matrix: (Units=GPa)
#
#
# Indices 1 2 3 4 5 6 
#
# 1 125.0774 62.3200 15.1856 0.0000 0.0000 -12.5027
# 2 62.3200 125.0774 15.1856 0.0000 0.0000 12.5027
# 3 15.1856 15.1856 25.3662 0.0000 0.0000 0.0000
# 4 0.0000 0.0000 0.0000 21.1769 0.0000 0.0000
# 5 0.0000 0.0000 0.0000 0.0000 21.1769 0.0000
# 6 -12.5027 12.5027 0.0000 0.0000 0.0000 30.9425
#
#
#
# Elastic Compliance Matrix: (Units=1/GPa)
#
#
# Indices 1 2 3 4 5 6 
#
# 1 0.012451 -0.006541 -0.003538 0.000000 0.000000 0.007674
# 2 -0.006541 0.012451 -0.003538 0.000000 0.000000 -0.007674
# 3 -0.003538 -0.003538 0.043658 0.000000 0.000000 0.000000
# 4 0.000000 0.000000 0.000000 0.047221 0.000000 0.000000
# 5 0.000000 0.000000 0.000000 0.000000 0.047221 0.000000
# 6 0.007674 -0.007674 0.000000 0.000000 0.000000 0.038520
#
#
# Mechanical properties :
#
#
# Convention : Reuss Voigt Hill
#
# Bulk Modulus (GPa) = 24.19764 51.21148 37.70456
# Shear Modulus (GPa) = 20.61591 26.84792 23.73191
#
# Velocity S-wave (km/s) = 3.08019 3.51505 3.30478
# Velocity P-wave (km/s) = 4.87709 6.32787 5.64924
#
# Compressibility (1/GPa) = 0.04132635
#
# Stress axis : x y z
#
# Youngs Moduli (GPa) = 80.31580 80.31580 22.90511
#
# Poissons Ratio (x) = 0.52536 0.08103
# Poissons Ratio (y) = 0.52536 0.08103
# Poissons Ratio (z) = 0.28414 0.28414
#
# Static dielectric constant tensor:
#      x y z
#    x 1.871540 0.000000 0.000000 
#    y 0.000000 1.871540 0.000000 
#    z 0.000000 0.000000 1.801000 
# 
# From -- ./inp_files/4872.got.cif
#   From: 2010.05.17/outbox.cif.g08.bks.cpg/sg88_3_cif.got.tgz:4872.got - 2010.06.03 19:11:41.
