data_PCOD9546208
_publ_section_title
;
Structure prediction by ZEFSAII (Michael W. Deem and Ramdas Pophale) SiO2 
 PCOD9546208
Probable space group: I 41/A
;
_chemical_formula_sum "Si O2"
_cell_formula_units_Z 92
_cell_length_a 12.866164
_cell_length_b 12.866164
_cell_length_c 22.711278
_cell_angle_alpha 90.000000
_cell_angle_beta 90.000000
_cell_angle_gamma 90.000000
_cell_volume 3759.583536
_symmetry_space_group_name_H-M "I 41/A"
_symmetry_group_IT_number 88
_space_group.IT_coordinate_system_code '2'
_symmetry_cell_setting 'tetragonal'
loop_
_space_group_symop_operation_xyz
x,y,z
3/4-y,1/4+x,1/4+z
-x,1/2-y,z
1/4+y,1/4-x,1/4+z
-x,-y,-z
1/4+y,3/4-x,3/4-z
x,1/2+y,-z
3/4-y,3/4+x,3/4-z
1/2+x,1/2+y,1/2+z
1/4-y,3/4+x,3/4+z
1/2-x,-y,1/2+z
3/4+y,3/4-x,3/4+z
1/2-x,1/2-y,1/2-z
3/4+y,1/4-x,1/4-z
1/2+x,y,1/2-z
1/4-y,1/4+x,1/4-z
loop_
_atom_site_type_symbol
_atom_site_label
_atom_site_fract_x
_atom_site_fract_y
_atom_site_fract_z
Si Si1 0.943808 0.890057 0.754324
Si Si2 0.567263 0.881151 0.955883
Si Si3 0.780590 0.887813 0.927949
Si Si4 0.207178 0.248964 0.183044
Si Si5 0.627156 0.164103 0.979893
Si Si6 0.000000 0.250000 0.348206
Si Si7 0.500000 0.750000 0.125000
O O1 0.898491 0.818023 0.805965
O O2 0.061792 0.920298 0.771884
O O3 0.933622 0.818092 0.697132
O O4 0.892488 0.002208 0.742579
O O5 0.674604 0.944197 0.948293
O O6 0.538791 0.839098 0.891719
O O7 0.456960 0.906931 0.985845
O O8 0.607714 0.779466 0.991599
O O9 0.749011 0.816311 0.872017
O O10 0.881407 0.954695 0.913128
O O11 0.250000 0.250000 0.250000
O O12 0.581612 0.183557 0.914459
#
# Coordination Sequence:
#
# PCOD9546208 Si02
#       7
#    16  16  16  16  16   8   4
#     4  11  20  34  59  92 126 168 219 273 340 400
#     4   8  18  36  60  87 126 173 217 279 335 403
#     4  11  21  38  60  89 130 174 223 272 340 410
#     4  12  24  38  61  93 135 177 222 284 346 418
#     4   8  17  34  63  91 121 168 226 276 333 400
#     4  10  17  32  57  91 126 173 222 272 342 412
#     4   8  14  36  64  88 116 174 228 276 334 384
#
# _framework density 24.470794999999999
#
# number of rings (size 3 to 8) (size 9 to 14) (size 15 to 20)
#    0.000    2.435    3.478    1.043    0.000    0.000 
#    0.000    1.739    3.826   17.739    0.000    0.000 
#    0.000    0.000    0.000    0.000    0.000    0.000 
#
# Total GULP energy -256112.221382 kJ/mol
# GULP energy per Si atom -5567.656987 kJ/mol
# Density = 2.441510 g / cm^3
# Si number density = 24.470795 Si / 1000 Ang^3
#
#
#
# Elastic Constant Matrix: (Units=GPa)
#
#
# Indices 1 2 3 4 5 6 
#
# 1 114.2640 22.7542 21.5226 0.0000 0.0000 -8.0956
# 2 22.7542 114.2640 21.5226 0.0000 0.0000 8.0956
# 3 21.5226 21.5226 119.6789 0.0000 0.0000 0.0000
# 4 0.0000 0.0000 0.0000 12.6474 0.0000 0.0000
# 5 0.0000 0.0000 0.0000 0.0000 12.6474 0.0000
# 6 -8.0956 8.0956 0.0000 0.0000 0.0000 25.7172
#
#
#
# Elastic Compliance Matrix: (Units=1/GPa)
#
#
# Indices 1 2 3 4 5 6 
#
# 1 0.009654 -0.001919 -0.001391 0.000000 0.000000 0.003643
# 2 -0.001919 0.009654 -0.001391 0.000000 0.000000 -0.003643
# 3 -0.001391 -0.001391 0.008856 0.000000 0.000000 0.000000
# 4 0.000000 0.000000 0.000000 0.079067 0.000000 0.000000
# 5 0.000000 0.000000 0.000000 0.000000 0.079067 0.000000
# 6 0.003643 -0.003643 0.000000 0.000000 0.000000 0.041178
#
#
# Mechanical properties :
#
#
# Convention : Reuss Voigt Hill
#
# Bulk Modulus (GPa) = 53.29834 53.31174 53.30504
# Shear Modulus (GPa) = 20.56494 29.02957 24.79726
#
# Velocity S-wave (km/s) = 2.90209 3.44800 3.18676
# Velocity P-wave (km/s) = 5.74954 6.13879 5.94735
#
# Compressibility (1/GPa) = 0.01876231
#
# Stress axis : x y z
#
# Youngs Moduli (GPa) = 103.58578 103.58578 112.91745
#
# Poissons Ratio (x) = 0.19873 0.15708
# Poissons Ratio (y) = 0.19873 0.15708
# Poissons Ratio (z) = 0.14410 0.14410
#
# Static dielectric constant tensor:
#      x y z
#    x 2.010250 0.000000 0.000000 
#    y 0.000000 2.010250 0.000000 
#    z 0.000000 0.000000 1.928570 
# 
# From -- ./inp_files/4743.got.cif
#   From: 2010.05.17/outbox.cif.g08.bks.cpg/sg88_3_cif.got.tgz:4743.got - 2010.06.03 19:11:41.
