data_PCOD9546056
_publ_section_title
;
Structure prediction by ZEFSAII (Michael W. Deem and Ramdas Pophale) SiO2 
 PCOD9546056
Probable space group: I 4/M
;
_chemical_formula_sum "Si O2"
_cell_formula_units_Z 112
_cell_length_a 14.890505
_cell_length_b 14.890505
_cell_length_c 26.457186
_cell_angle_alpha 90.000000
_cell_angle_beta 90.000000
_cell_angle_gamma 90.000000
_cell_volume 5866.276162
_symmetry_space_group_name_H-M "I 4/M"
_symmetry_group_IT_number 87
_symmetry_cell_setting 'tetragonal'
loop_
_space_group_symop_operation_xyz
x,y,z
-y,x,z
-x,-y,z
y,-x,z
-x,-y,-z
y,-x,-z
x,y,-z
-y,x,-z
1/2+x,1/2+y,1/2+z
1/2-y,1/2+x,1/2+z
1/2-x,1/2-y,1/2+z
1/2+y,1/2-x,1/2+z
1/2-x,1/2-y,1/2-z
1/2+y,1/2-x,1/2-z
1/2+x,1/2+y,1/2-z
1/2-y,1/2+x,1/2-z
loop_
_atom_site_type_symbol
_atom_site_label
_atom_site_fract_x
_atom_site_fract_y
_atom_site_fract_z
Si Si1 0.345863 0.802867 0.148452
Si Si2 0.448261 0.638843 0.703393
Si Si3 0.753443 0.390883 0.558005
Si Si4 0.642402 0.540939 0.175014
Si Si5 0.589271 0.880589 0.748692
Si Si6 0.803349 0.662402 0.342074
Si Si7 0.257331 0.100040 0.057878
O O1 0.327842 0.859644 0.098120
O O2 0.429798 0.735142 0.149451
O O3 0.346069 0.865824 0.197664
O O4 0.259863 0.739292 0.154084
O O5 0.387772 0.550986 0.690719
O O6 0.449121 0.652929 0.764094
O O7 0.405787 0.725332 0.677327
O O8 0.783293 0.377833 0.500000
O O9 0.732529 0.495871 0.564630
O O10 0.665089 0.328898 0.564903
O O11 0.558917 0.607467 0.162702
O O12 0.483194 0.880111 0.744692
O O13 0.621439 0.832693 0.799389
O O14 0.826479 0.628420 0.398213
O O15 0.288862 0.111999 0.000000
#
# Coordination Sequence:
#
# PCOD9546056 Si02
#       7
#    16  16  16  16  16  16  16
#     4  11  22  34  58  81 105 143 182 221 265 325
#     4   9  19  31  47  75 110 143 175 221 266 316
#     4   9  19  36  55  79 107 145 187 225 270 313
#     4   9  19  35  55  81 110 139 170 217 274 326
#     4  11  25  38  51  77 115 147 176 220 270 324
#     4  11  22  32  55  77 104 145 186 216 270 318
#     4   9  19  34  51  76 110 144 184 228 263 312
#
# _framework density 19.092181
#
# number of rings (size 3 to 8) (size 9 to 14) (size 15 to 20)
#    0.000    2.143    1.429    2.143    8.000    0.286 
#    0.000    1.429    0.000    1.714    0.000    5.000 
#    0.000    0.000    0.000    0.000    0.000    0.000 
#
# Total GULP energy -312734.424814 kJ/mol
# GULP energy per Si atom -5584.543300 kJ/mol
# Density = 1.904873 g / cm^3
# Si number density = 19.092181 Si / 1000 Ang^3
#
#
#
# Elastic Constant Matrix: (Units=GPa)
#
#
# Indices 1 2 3 4 5 6 
#
# 1 25.7649 22.9644 32.0463 0.0000 0.0000 3.8315
# 2 22.9644 25.7649 32.0463 0.0000 0.0000 -3.8315
# 3 32.0463 32.0463 110.5250 0.0000 0.0000 0.0000
# 4 0.0000 0.0000 0.0000 20.8017 0.0000 0.0000
# 5 0.0000 0.0000 0.0000 0.0000 20.8017 0.0000
# 6 3.8315 -3.8315 0.0000 0.0000 0.0000 6.9076
#
#
#
# Elastic Compliance Matrix: (Units=1/GPa)
#
#
# Indices 1 2 3 4 5 6 
#
# 1 -0.328229 0.361401 -0.009618 0.000000 0.000000 0.382523
# 2 0.361401 -0.328229 -0.009618 0.000000 0.000000 -0.382523
# 3 -0.009618 -0.009618 0.014625 0.000000 0.000000 0.000000
# 4 0.000000 0.000000 0.000000 0.048073 0.000000 0.000000
# 5 0.000000 0.000000 0.000000 0.000000 0.048073 0.000000
# 6 0.382523 -0.382523 0.000000 0.000000 0.000000 -0.279587
#
#
# Mechanical properties :
#
#
# Convention : Reuss Voigt Hill
#
# Bulk Modulus (GPa) = 23.53116 37.35207 30.44161
# Shear Modulus (GPa) = -3.34351 14.70207 5.67928
#
# Velocity S-wave (km/s) = -1.32478 2.77800 1.72659
# Velocity P-wave (km/s) = 3.16413 5.46775 4.46699
#
# Compressibility (1/GPa) = 0.04249685
#
# Stress axis : x y z
#
# Youngs Moduli (GPa) = -3.04666 -3.04666 68.37526
#
# Poissons Ratio (x) = 1.10106 0.65764
# Poissons Ratio (y) = 1.10106 0.65764
# Poissons Ratio (z) = -0.02930 -0.02930
#
# Static dielectric constant tensor:
#      x y z
#    x 1.673370 0.000000 0.000000 
#    y 0.000000 1.673370 0.000000 
#    z 0.000000 0.000000 1.630960 
# 
# From -- ./inp_files/5860.got.cif
#   From: 2010.05.17/outbox.cif.g08.bks.cpg/sg87_3_cif.got.tgz:5860.got - 2010.06.03 19:07:00.
