data_PCOD9546795
_publ_section_title
;
Structure prediction by ZEFSAII (Michael W. Deem and Ramdas Pophale) SiO2 
 PCOD9546795
Probable space group: I 41/A
;
_chemical_formula_sum "Si O2"
_cell_formula_units_Z 96
_cell_length_a 13.989228
_cell_length_b 13.989228
_cell_length_c 22.557683
_cell_angle_alpha 90.000000
_cell_angle_beta 90.000000
_cell_angle_gamma 90.000000
_cell_volume 4414.504727
_symmetry_space_group_name_H-M "I 41/A"
_symmetry_group_IT_number 88
_space_group.IT_coordinate_system_code '2'
_symmetry_cell_setting 'tetragonal'
loop_
_space_group_symop_operation_xyz
x,y,z
3/4-y,1/4+x,1/4+z
-x,1/2-y,z
1/4+y,1/4-x,1/4+z
-x,-y,-z
1/4+y,3/4-x,3/4-z
x,1/2+y,-z
3/4-y,3/4+x,3/4-z
1/2+x,1/2+y,1/2+z
1/4-y,3/4+x,3/4+z
1/2-x,-y,1/2+z
3/4+y,3/4-x,3/4+z
1/2-x,1/2-y,1/2-z
3/4+y,1/4-x,1/4-z
1/2+x,y,1/2-z
1/4-y,1/4+x,1/4-z
loop_
_atom_site_type_symbol
_atom_site_label
_atom_site_fract_x
_atom_site_fract_y
_atom_site_fract_z
Si Si1 0.732457 0.821300 0.944362
Si Si2 0.145431 0.188566 0.616686
Si Si3 0.441305 0.845635 0.506916
Si Si4 0.714472 0.643412 0.239523
Si Si5 0.255180 0.362693 0.001055
Si Si6 0.286592 0.329864 0.315042
O O1 0.829554 0.827305 0.983309
O O2 0.713384 0.707974 0.945925
O O3 0.762291 0.863015 0.881011
O O4 0.642281 0.873755 0.973122
O O5 0.115144 0.293547 0.641362
O O6 0.194680 0.133211 0.670124
O O7 0.216716 0.192319 0.560438
O O8 0.500000 0.750000 0.491026
O O9 0.489975 0.891146 0.565688
O O10 0.448853 0.933361 0.461219
O O11 0.750000 0.750000 0.250000
O O12 0.796624 0.571438 0.256404
O O13 0.154317 0.408698 0.021554
#
# Coordination Sequence:
#
# PCOD9546795 Si02
#       6
#    16  16  16  16  16  16
#     4  12  26  47  71 106 148 190 250 306 373 455
#     4  11  24  46  74 100 149 194 246 311 370 456
#     4  11  24  45  71 106 144 190 241 304 377 436
#     4  12  27  45  70 107 144 192 244 303 375 446
#     4  12  25  44  75 107 139 204 244 301 384 443
#     4  11  26  45  73 107 146 190 248 306 370 461
#
# _framework density 21.746493999999998
#
# number of rings (size 3 to 8) (size 9 to 14) (size 15 to 20)
#    0.000    0.500    6.667    1.000    2.333    4.667 
#    3.000    0.000    0.000    0.000    0.000    0.000 
#    0.000    0.000    0.000    0.000    0.000    0.000 
#
# Total GULP energy -267697.574203 kJ/mol
# GULP energy per Si atom -5577.032796 kJ/mol
# Density = 2.169700 g / cm^3
# Si number density = 21.746494 Si / 1000 Ang^3
#
#
#
# Elastic Constant Matrix: (Units=GPa)
#
#
# Indices 1 2 3 4 5 6 
#
# 1 86.2241 -2.9681 28.9264 0.0000 0.0000 -0.5292
# 2 -2.9681 86.2241 28.9264 0.0000 0.0000 0.5292
# 3 28.9264 28.9264 90.7864 0.0000 0.0000 0.0000
# 4 0.0000 0.0000 0.0000 25.6402 0.0000 0.0000
# 5 0.0000 0.0000 0.0000 0.0000 25.6402 0.0000
# 6 -0.5292 0.5292 0.0000 0.0000 0.0000 21.7870
#
#
#
# Elastic Compliance Matrix: (Units=1/GPa)
#
#
# Indices 1 2 3 4 5 6 
#
# 1 0.013321 0.002106 -0.004915 0.000000 0.000000 0.000272
# 2 0.002106 0.013321 -0.004915 0.000000 0.000000 -0.000272
# 3 -0.004915 -0.004915 0.014147 0.000000 0.000000 0.000000
# 4 0.000000 0.000000 0.000000 0.039001 0.000000 0.000000
# 5 0.000000 0.000000 0.000000 0.000000 0.039001 0.000000
# 6 0.000272 -0.000272 0.000000 0.000000 0.000000 0.045912
#
#
# Mechanical properties :
#
#
# Convention : Reuss Voigt Hill
#
# Bulk Modulus (GPa) = 39.46426 41.44488 40.45457
# Shear Modulus (GPa) = 26.51125 28.50347 27.50736
#
# Velocity S-wave (km/s) = 3.49536 3.62431 3.56042
# Velocity P-wave (km/s) = 5.87170 6.05093 5.96199
#
# Compressibility (1/GPa) = 0.02533938
#
# Stress axis : x y z
#
# Youngs Moduli (GPa) = 75.07048 75.07048 70.68610
#
# Poissons Ratio (x) = -0.15809 0.34744
# Poissons Ratio (y) = -0.15809 0.34744
# Poissons Ratio (z) = 0.36899 0.36899
#
# Static dielectric constant tensor:
#      x y z
#    x 1.912190 0.000000 0.000000 
#    y 0.000000 1.912190 0.000000 
#    z 0.000000 0.000000 1.820900 
# 
# From -- ./inp_files/4706.got.cif
#   From: 2010.05.17/outbox.cif.g08.bks.cpg/sg88_3_cif.got.tgz:4706.got - 2010.06.03 19:11:41.
