data_PCOD9546148
_publ_section_title
;
Structure prediction by ZEFSAII (Michael W. Deem and Ramdas Pophale) SiO2 
 PCOD9546148
Probable space group: I 4/M
;
_chemical_formula_sum "Si O2"
_cell_formula_units_Z 80
_cell_length_a 9.950085
_cell_length_b 9.950085
_cell_length_c 31.073359
_cell_angle_alpha 90.000000
_cell_angle_beta 90.000000
_cell_angle_gamma 90.000000
_cell_volume 3076.392785
_symmetry_space_group_name_H-M "I 4/M"
_symmetry_group_IT_number 87
_symmetry_cell_setting 'tetragonal'
loop_
_space_group_symop_operation_xyz
x,y,z
-y,x,z
-x,-y,z
y,-x,z
-x,-y,-z
y,-x,-z
x,y,-z
-y,x,-z
1/2+x,1/2+y,1/2+z
1/2-y,1/2+x,1/2+z
1/2-x,1/2-y,1/2+z
1/2+y,1/2-x,1/2+z
1/2-x,1/2-y,1/2-z
1/2+y,1/2-x,1/2-z
1/2+x,1/2+y,1/2-z
1/2-y,1/2+x,1/2-z
loop_
_atom_site_type_symbol
_atom_site_label
_atom_site_fract_x
_atom_site_fract_y
_atom_site_fract_z
Si Si1 0.971715 0.342966 0.453979
Si Si2 0.537198 0.722800 0.865495
Si Si3 0.273755 0.540702 0.773497
Si Si4 0.208167 0.910358 0.913239
Si Si5 0.221780 0.944986 0.181366
O O1 0.006456 0.278578 0.500000
O O2 0.045212 0.292230 0.411339
O O3 0.812279 0.343287 0.445336
O O4 0.000000 0.500000 0.456431
O O5 0.395253 0.646411 0.864632
O O6 0.553582 0.798538 0.819671
O O7 0.351222 0.397192 0.773417
O O8 0.204134 0.564865 0.727309
O O9 0.066849 0.832883 0.917692
O O10 0.278947 0.913669 0.865646
O O11 0.155014 0.092808 0.181548
#
# Coordination Sequence:
#
# PCOD9546148 Si02
#       5
#    16  16  16  16  16
#     4  11  26  42  58  80 113 153 191 241 300 343
#     4   9  19  37  63  89 113 148 192 238 285 342
#     4   7  10  21  48  83 112 140 178 220 267 332
#     4   9  19  37  63  89 113 148 192 238 285 342
#     4   7  10  21  48  83 112 140 178 220 267 332
#
# _framework density 26.004480999999998
#
# number of rings (size 3 to 8) (size 9 to 14) (size 15 to 20)
#    0.000    3.400    0.000    3.600    2.800    1.600 
#    0.000    2.000    4.400    4.800    0.000    0.000 
#    0.000    0.000    0.000    0.000    0.000    0.000 
#
# Total GULP energy -223479.102214 kJ/mol
# GULP energy per Si atom -5586.977555 kJ/mol
# Density = 2.594529 g / cm^3
# Si number density = 26.004481 Si / 1000 Ang^3
#
#
#
# Elastic Constant Matrix: (Units=GPa)
#
#
# Indices 1 2 3 4 5 6 
#
# 1 35.7938 33.1956 10.8996 0.0000 0.0000 4.9969
# 2 33.1956 35.7938 10.8996 0.0000 0.0000 -4.9969
# 3 10.8996 10.8996 159.2904 0.0000 0.0000 0.0000
# 4 0.0000 0.0000 0.0000 33.9292 0.0000 0.0000
# 5 0.0000 0.0000 0.0000 0.0000 33.9292 0.0000
# 6 4.9969 -4.9969 0.0000 0.0000 0.0000 28.1719
#
#
#
# Elastic Compliance Matrix: (Units=1/GPa)
#
#
# Indices 1 2 3 4 5 6 
#
# 1 0.613029 -0.598214 -0.001014 0.000000 0.000000 -0.214839
# 2 -0.598214 0.613029 -0.001014 0.000000 0.000000 0.214839
# 3 -0.001014 -0.001014 0.006417 0.000000 0.000000 0.000000
# 4 0.000000 0.000000 0.000000 0.029473 0.000000 0.000000
# 5 0.000000 0.000000 0.000000 0.000000 0.029473 0.000000
# 6 -0.214839 0.214839 0.000000 0.000000 0.000000 0.111709
#
#
# Mechanical properties :
#
#
# Convention : Reuss Voigt Hill
#
# Bulk Modulus (GPa) = 31.25767 37.87421 34.56594
# Shear Modulus (GPa) = 1.91257 30.93160 16.42209
#
# Velocity S-wave (km/s) = 0.85853 3.45261 2.51571
# Velocity P-wave (km/s) = 3.60957 5.52179 4.66472
#
# Compressibility (1/GPa) = 0.03199215
#
# Stress axis : x y z
#
# Youngs Moduli (GPa) = 1.63124 1.63124 155.84634
#
# Poissons Ratio (x) = 0.97583 0.15799
# Poissons Ratio (y) = 0.97583 0.15799
# Poissons Ratio (z) = 0.00165 0.00165
#
# Static dielectric constant tensor:
#      x y z
#    x 2.075880 0.000000 0.000000 
#    y 0.000000 2.075880 0.000000 
#    z 0.000000 0.000000 2.154970 
# 
# From -- ./inp_files/6476.got.cif
#   From: 2010.05.17/outbox.cif.g08.bks.cpg/sg87_4_cif.got.tgz:6476.got - 2010.06.03 19:07:00.
