data_PCOD9546576
_publ_section_title
;
Structure prediction by ZEFSAII (Michael W. Deem and Ramdas Pophale) SiO2 
 PCOD9546576
Probable space group: I 41/A
;
_chemical_formula_sum "Si O2"
_cell_formula_units_Z 48
_cell_length_a 15.031216
_cell_length_b 15.031216
_cell_length_c 9.086313
_cell_angle_alpha 90.000000
_cell_angle_beta 90.000000
_cell_angle_gamma 90.000000
_cell_volume 2052.938429
_symmetry_space_group_name_H-M "I 41/A"
_symmetry_group_IT_number 88
_space_group.IT_coordinate_system_code '2'
_symmetry_cell_setting 'tetragonal'
loop_
_space_group_symop_operation_xyz
x,y,z
3/4-y,1/4+x,1/4+z
-x,1/2-y,z
1/4+y,1/4-x,1/4+z
-x,-y,-z
1/4+y,3/4-x,3/4-z
x,1/2+y,-z
3/4-y,3/4+x,3/4-z
1/2+x,1/2+y,1/2+z
1/4-y,3/4+x,3/4+z
1/2-x,-y,1/2+z
3/4+y,3/4-x,3/4+z
1/2-x,1/2-y,1/2-z
3/4+y,1/4-x,1/4-z
1/2+x,y,1/2-z
1/4-y,1/4+x,1/4-z
loop_
_atom_site_type_symbol
_atom_site_label
_atom_site_fract_x
_atom_site_fract_y
_atom_site_fract_z
Si Si1 0.464468 0.378386 0.940911
Si Si2 0.844707 0.961779 0.848605
Si Si3 0.196754 0.216337 0.975523
O O1 0.553688 0.354895 0.851724
O O2 0.434284 0.473598 0.881877
O O3 0.491243 0.376981 0.110939
O O4 0.789901 0.948141 0.697324
O O5 0.949675 0.976546 0.822964
O O6 0.835333 0.868223 0.935019
#
# Coordination Sequence:
#
# PCOD9546576 Si02
#       3
#    16  16  16
#     4  10  22  41  68  98 133 182 232 288 357 437
#     4  12  28  45  72 104 143 190 242 300 368 432
#     4  11  25  43  68 100 145 180 239 290 365 423
#
# _framework density 23.381119999999999
#
# number of rings (size 3 to 8) (size 9 to 14) (size 15 to 20)
#    0.000    1.000    0.000    5.000   14.000    6.000 
#    0.000    0.000    0.000    0.000    0.000    0.000 
#    0.000    0.000    0.000    0.000    0.000    0.000 
#
# Total GULP energy -134361.328453 kJ/mol
# GULP energy per Si atom -5598.388686 kJ/mol
# Density = 2.332790 g / cm^3
# Si number density = 23.381120 Si / 1000 Ang^3
#
#
#
# Elastic Constant Matrix: (Units=GPa)
#
#
# Indices 1 2 3 4 5 6 
#
# 1 84.2807 -13.2318 18.6720 0.0000 0.0000 -13.0813
# 2 -13.2318 84.2807 18.6720 0.0000 0.0000 13.0813
# 3 18.6720 18.6720 46.1575 0.0000 0.0000 0.0000
# 4 0.0000 0.0000 0.0000 28.2474 0.0000 0.0000
# 5 0.0000 0.0000 0.0000 0.0000 28.2474 0.0000
# 6 -13.0813 13.0813 0.0000 0.0000 0.0000 3.7194
#
#
#
# Elastic Compliance Matrix: (Units=1/GPa)
#
#
# Indices 1 2 3 4 5 6 
#
# 1 0.099889 -0.082013 -0.007231 0.000000 0.000000 0.639756
# 2 -0.082013 0.099889 -0.007231 0.000000 0.000000 -0.639756
# 3 -0.007231 -0.007231 0.027515 0.000000 0.000000 0.000000
# 4 0.000000 0.000000 0.000000 0.035401 0.000000 0.000000
# 5 0.000000 0.000000 0.000000 0.000000 0.035401 0.000000
# 6 0.639756 -0.639756 0.000000 0.000000 0.000000 4.768958
#
#
# Mechanical properties :
#
#
# Convention : Reuss Voigt Hill
#
# Bulk Modulus (GPa) = 29.11897 29.21591 29.16744
# Shear Modulus (GPa) = 0.94851 24.74996 12.84923
#
# Velocity S-wave (km/s) = 0.63761 3.25706 2.34680
# Velocity P-wave (km/s) = 3.60876 5.16403 4.45479
#
# Compressibility (1/GPa) = 0.03434187
#
# Stress axis : x y z
#
# Youngs Moduli (GPa) = 10.01116 10.01116 36.34329
#
# Poissons Ratio (x) = 0.82104 0.26280
# Poissons Ratio (y) = 0.82104 0.26280
# Poissons Ratio (z) = 0.07239 0.07239
#
# Static dielectric constant tensor:
#      x y z
#    x 1.857760 0.000000 0.000000 
#    y 0.000000 1.857760 0.000000 
#    z 0.000000 0.000000 1.920780 
# 
# From -- ./inp_files/1135.got.cif
#   From: 2010.05.17/outbox.cif.g08.bks.cpg/sg88_1_cif.got.tgz:1135.got - 2010.06.03 19:11:41.
