data_PCOD9546825
_publ_section_title
;
Structure prediction by ZEFSAII (Michael W. Deem and Ramdas Pophale) SiO2 
 PCOD9546825
Probable space group: I 41/A
;
_chemical_formula_sum "Si O2"
_cell_formula_units_Z 56
_cell_length_a 18.327211
_cell_length_b 18.327211
_cell_length_c 6.103679
_cell_angle_alpha 90.000000
_cell_angle_beta 90.000000
_cell_angle_gamma 90.000000
_cell_volume 2050.144372
_symmetry_space_group_name_H-M "I 41/A"
_symmetry_group_IT_number 88
_space_group.IT_coordinate_system_code '2'
_symmetry_cell_setting 'tetragonal'
loop_
_space_group_symop_operation_xyz
x,y,z
3/4-y,1/4+x,1/4+z
-x,1/2-y,z
1/4+y,1/4-x,1/4+z
-x,-y,-z
1/4+y,3/4-x,3/4-z
x,1/2+y,-z
3/4-y,3/4+x,3/4-z
1/2+x,1/2+y,1/2+z
1/4-y,3/4+x,3/4+z
1/2-x,-y,1/2+z
3/4+y,3/4-x,3/4+z
1/2-x,1/2-y,1/2-z
3/4+y,1/4-x,1/4-z
1/2+x,y,1/2-z
1/4-y,1/4+x,1/4-z
loop_
_atom_site_type_symbol
_atom_site_label
_atom_site_fract_x
_atom_site_fract_y
_atom_site_fract_z
Si Si1 0.232694 0.864121 0.113563
Si Si2 0.891706 0.698473 0.421164
Si Si3 0.000000 0.000000 0.000000
Si Si4 0.632422 0.915041 0.745758
O O1 0.168752 0.828743 0.256051
O O2 0.289959 0.897653 0.282866
O O3 0.264840 0.799783 0.966530
O O4 0.193173 0.916868 0.940505
O O5 0.909359 0.782527 0.387631
O O6 0.868286 0.670114 0.665249
O O7 0.058085 0.946958 0.851469
#
# Coordination Sequence:
#
# PCOD9546825 Si02
#       4
#    16  16   8  16
#     4  12  28  50  87 120 171 229 290 360 445 534
#     4  11  26  50  86 126 162 218 296 368 431 516
#     4  12  26  52  86 118 168 224 278 364 446 514
#     4  12  28  50  87 120 171 229 290 360 445 534
#
# _framework density 27.315151
#
# number of rings (size 3 to 8) (size 9 to 14) (size 15 to 20)
#    0.000    0.286    2.857    4.286   12.000    0.000 
#    0.000    2.857   88.000    0.000    0.000    0.000 
#    0.000    0.000    0.000    0.000    0.000    0.000 
#
# Total GULP energy -156376.144356 kJ/mol
# GULP energy per Si atom -5584.862298 kJ/mol
# Density = 2.725298 g / cm^3
# Si number density = 27.315151 Si / 1000 Ang^3
#
#
#
# Elastic Constant Matrix: (Units=GPa)
#
#
# Indices 1 2 3 4 5 6 
#
# 1 95.1712 -37.4562 58.7856 0.0000 0.0000 9.4991
# 2 -37.4562 95.1712 58.7856 0.0000 0.0000 -9.4991
# 3 58.7856 58.7856 194.6474 0.0000 0.0000 0.0000
# 4 0.0000 0.0000 0.0000 75.1273 0.0000 0.0000
# 5 0.0000 0.0000 0.0000 0.0000 75.1273 0.0000
# 6 9.4991 -9.4991 0.0000 0.0000 0.0000 20.8503
#
#
#
# Elastic Compliance Matrix: (Units=1/GPa)
#
#
# Indices 1 2 3 4 5 6 
#
# 1 0.026548 0.018482 -0.013600 0.000000 0.000000 -0.003675
# 2 0.018482 0.026548 -0.013600 0.000000 0.000000 0.003675
# 3 -0.013600 -0.013600 0.013352 0.000000 0.000000 0.000000
# 4 0.000000 0.000000 0.000000 0.013311 0.000000 0.000000
# 5 0.000000 0.000000 0.000000 0.000000 0.013311 0.000000
# 6 -0.003675 0.003675 0.000000 0.000000 0.000000 0.051309
#
#
# Mechanical properties :
#
#
# Convention : Reuss Voigt Hill
#
# Bulk Modulus (GPa) = 20.40226 60.57999 40.49113
# Shear Modulus (GPa) = 28.06587 54.54598 41.30592
#
# Velocity S-wave (km/s) = 3.20892 4.47353 3.89292
# Velocity P-wave (km/s) = 4.60597 6.99354 5.92134
#
# Compressibility (1/GPa) = 0.04901419
#
# Stress axis : x y z
#
# Youngs Moduli (GPa) = 37.66704 37.66704 74.89510
#
# Poissons Ratio (x) = -0.69616 1.01855
# Poissons Ratio (y) = -0.69616 1.01855
# Poissons Ratio (z) = 0.51226 0.51226
#
# Static dielectric constant tensor:
#      x y z
#    x 1.975760 0.000000 0.000000 
#    y 0.000000 1.975760 0.000000 
#    z 0.000000 0.000000 2.525630 
# 
# From -- ./inp_files/432.got.cif
#   From: 2010.05.17/outbox.cif.g08.bks.cpg/sg88_1_cif.got.tgz:432.got - 2010.06.03 19:11:41.
