data_PCOD9546654
_publ_section_title
;
Structure prediction by ZEFSAII (Michael W. Deem and Ramdas Pophale) SiO2 
 PCOD9546654
Probable space group: I 41/A
;
_chemical_formula_sum "Si O2"
_cell_formula_units_Z 104
_cell_length_a 21.998758
_cell_length_b 21.998758
_cell_length_c 8.321825
_cell_angle_alpha 90.000000
_cell_angle_beta 90.000000
_cell_angle_gamma 90.000000
_cell_volume 4027.308542
_symmetry_space_group_name_H-M "I 41/A"
_symmetry_group_IT_number 88
_space_group.IT_coordinate_system_code '2'
_symmetry_cell_setting 'tetragonal'
loop_
_space_group_symop_operation_xyz
x,y,z
3/4-y,1/4+x,1/4+z
-x,1/2-y,z
1/4+y,1/4-x,1/4+z
-x,-y,-z
1/4+y,3/4-x,3/4-z
x,1/2+y,-z
3/4-y,3/4+x,3/4-z
1/2+x,1/2+y,1/2+z
1/4-y,3/4+x,3/4+z
1/2-x,-y,1/2+z
3/4+y,3/4-x,3/4+z
1/2-x,1/2-y,1/2-z
3/4+y,1/4-x,1/4-z
1/2+x,y,1/2-z
1/4-y,1/4+x,1/4-z
loop_
_atom_site_type_symbol
_atom_site_label
_atom_site_fract_x
_atom_site_fract_y
_atom_site_fract_z
Si Si1 0.500000 0.750000 0.892045
Si Si2 0.419005 0.853645 0.510655
Si Si3 0.083736 0.461057 0.756737
Si Si4 0.888647 0.173428 0.854275
Si Si5 0.287985 0.553152 0.511849
Si Si6 0.536876 0.943788 0.899697
Si Si7 0.755268 0.670255 0.662458
O O1 0.555463 0.779940 0.792411
O O2 0.462915 0.805633 0.973023
O O3 0.415844 0.850743 0.703722
O O4 0.360260 0.827327 0.422918
O O5 0.422902 0.923032 0.450101
O O6 0.126333 0.521639 0.759248
O O7 0.055557 0.457978 0.580912
O O8 0.114490 0.393868 0.779453
O O9 0.052059 0.469697 0.932024
O O10 0.832615 0.219122 0.840483
O O11 0.226818 0.531218 0.593241
O O12 0.350112 0.524354 0.586329
O O13 0.549694 0.992816 0.759874
#
# Coordination Sequence:
#
# PCOD9546654 Si02
#       7
#     8  16  16  16  16  16  16
#     4  10  23  48  87 112 149 217 272 337 409 494
#     4  11  23  46  79 115 154 207 278 338 411 490
#     4  11  26  45  72 114 165 201 267 347 398 489
#     4  11  24  48  74 111 156 208 282 340 412 480
#     4  10  24  41  73 108 153 202 253 321 403 486
#     4  11  25  47  75 112 154 219 272 332 420 488
#     4  11  25  48  76 117 158 205 273 333 413 494
#
# _framework density 25.823698
#
# number of rings (size 3 to 8) (size 9 to 14) (size 15 to 20)
#    0.000    1.231    1.538    4.154    8.615    4.308 
#    0.000    1.538    0.000    0.000    0.000    0.000 
#    0.000    0.000    0.000    0.000    0.000    0.000 
#
# Total GULP energy -290398.845603 kJ/mol
# GULP energy per Si atom -5584.593185 kJ/mol
# Density = 2.576492 g / cm^3
# Si number density = 25.823698 Si / 1000 Ang^3
#
#
#
# Elastic Constant Matrix: (Units=GPa)
#
#
# Indices 1 2 3 4 5 6 
#
# 1 168.4854 73.8415 52.4755 0.0000 0.0000 5.7278
# 2 73.8415 168.4854 52.4755 0.0000 0.0000 -5.7278
# 3 52.4755 52.4755 147.2181 0.0000 0.0000 0.0000
# 4 0.0000 0.0000 0.0000 43.0326 0.0000 0.0000
# 5 0.0000 0.0000 0.0000 0.0000 43.0326 0.0000
# 6 5.7278 -5.7278 0.0000 0.0000 0.0000 51.1441
#
#
#
# Elastic Compliance Matrix: (Units=1/GPa)
#
#
# Indices 1 2 3 4 5 6 
#
# 1 0.007796 -0.002916 -0.001739 0.000000 0.000000 -0.001200
# 2 -0.002916 0.007796 -0.001739 0.000000 0.000000 0.001200
# 3 -0.001739 -0.001739 0.008033 0.000000 0.000000 0.000000
# 4 0.000000 0.000000 0.000000 0.023238 0.000000 0.000000
# 5 0.000000 0.000000 0.000000 0.000000 0.023238 0.000000
# 6 -0.001200 0.001200 0.000000 0.000000 0.000000 0.019821
#
#
# Mechanical properties :
#
#
# Convention : Reuss Voigt Hill
#
# Bulk Modulus (GPa) = 92.29471 93.53043 92.91257
# Shear Modulus (GPa) = 47.02690 47.80161 47.41426
#
# Velocity S-wave (km/s) = 4.27204 4.30708 4.28959
# Velocity P-wave (km/s) = 7.75575 7.81230 7.78408
#
# Compressibility (1/GPa) = 0.01083486
#
# Stress axis : x y z
#
# Youngs Moduli (GPa) = 128.27802 128.27802 124.49107
#
# Poissons Ratio (x) = 0.37400 0.21655
# Poissons Ratio (y) = 0.37400 0.21655
# Poissons Ratio (z) = 0.22314 0.22314
#
# Static dielectric constant tensor:
#      x y z
#    x 2.168900 0.000000 0.000000 
#    y 0.000000 2.168900 0.000000 
#    z 0.000000 0.000000 2.021060 
# 
# From -- ./inp_files/3330.got.cif
#   From: 2010.05.17/outbox.cif.g08.bks.cpg/sg88_2_cif.got.tgz:3330.got - 2010.06.03 19:11:41.
