data_PCOD9546727
_publ_section_title
;
Structure prediction by ZEFSAII (Michael W. Deem and Ramdas Pophale) SiO2 
 PCOD9546727
Probable space group: I 41/A
;
_chemical_formula_sum "Si O2"
_cell_formula_units_Z 88
_cell_length_a 11.394403
_cell_length_b 11.394403
_cell_length_c 31.281469
_cell_angle_alpha 90.000000
_cell_angle_beta 90.000000
_cell_angle_gamma 90.000000
_cell_volume 4061.348813
_symmetry_space_group_name_H-M "I 41/A"
_symmetry_group_IT_number 88
_space_group.IT_coordinate_system_code '2'
_symmetry_cell_setting 'tetragonal'
loop_
_space_group_symop_operation_xyz
x,y,z
3/4-y,1/4+x,1/4+z
-x,1/2-y,z
1/4+y,1/4-x,1/4+z
-x,-y,-z
1/4+y,3/4-x,3/4-z
x,1/2+y,-z
3/4-y,3/4+x,3/4-z
1/2+x,1/2+y,1/2+z
1/4-y,3/4+x,3/4+z
1/2-x,-y,1/2+z
3/4+y,3/4-x,3/4+z
1/2-x,1/2-y,1/2-z
3/4+y,1/4-x,1/4-z
1/2+x,y,1/2-z
1/4-y,1/4+x,1/4-z
loop_
_atom_site_type_symbol
_atom_site_label
_atom_site_fract_x
_atom_site_fract_y
_atom_site_fract_z
Si Si1 0.964256 0.381118 0.565886
Si Si2 0.821041 0.943681 0.676407
Si Si3 0.500000 0.250000 0.540796
Si Si4 0.780477 0.552195 0.166614
Si Si5 0.115528 0.212411 0.478082
Si Si6 0.303115 0.400774 0.508265
O O1 0.831612 0.399233 0.580822
O O2 0.942366 0.369983 0.514651
O O3 0.000000 0.250000 0.578624
O O4 0.065393 0.472188 0.579834
O O5 0.744742 0.942257 0.719850
O O6 0.925728 0.849287 0.683276
O O7 0.765422 0.924283 0.629822
O O8 0.425928 0.335639 0.510721
O O9 0.891202 0.552516 0.197594
O O10 0.693221 0.469237 0.193024
O O11 0.193806 0.314140 0.498558
O O12 0.000000 0.250000 0.452439
#
# Coordination Sequence:
#
# PCOD9546727 Si02
#       6
#    16  16   8  16  16  16
#     4  11  21  41  65 103 138 176 214 275 354 419
#     4  12  28  42  70 102 136 186 231 286 346 412
#     4  12  26  48  68  97 134 188 236 291 328 402
#     4  12  25  41  71 104 141 173 227 290 345 425
#     4  11  21  41  70 100 137 182 219 280 352 414
#     4  12  24  49  69  98 140 186 235 282 348 401
#
# _framework density 21.667679
#
# number of rings (size 3 to 8) (size 9 to 14) (size 15 to 20)
#    0.000    0.364    7.273    2.182    6.364    1.455 
#    0.000    0.000    0.000    1.091    0.000    0.000 
#    0.000    0.000    0.000    0.000    0.000    0.000 
#
# Total GULP energy -245291.591997 kJ/mol
# GULP energy per Si atom -5574.808909 kJ/mol
# Density = 2.161836 g / cm^3
# Si number density = 21.667679 Si / 1000 Ang^3
#
#
#
# Elastic Constant Matrix: (Units=GPa)
#
#
# Indices 1 2 3 4 5 6 
#
# 1 55.7578 12.1188 22.4386 0.0000 0.0000 -6.9046
# 2 12.1188 55.7578 22.4386 0.0000 0.0000 6.9046
# 3 22.4386 22.4386 120.5746 0.0000 0.0000 0.0000
# 4 0.0000 0.0000 0.0000 4.0178 0.0000 0.0000
# 5 0.0000 0.0000 0.0000 0.0000 4.0178 0.0000
# 6 -6.9046 6.9046 0.0000 0.0000 0.0000 35.9212
#
#
#
# Elastic Compliance Matrix: (Units=1/GPa)
#
#
# Indices 1 2 3 4 5 6 
#
# 1 0.020600 -0.003800 -0.003126 0.000000 0.000000 0.004690
# 2 -0.003800 0.020600 -0.003126 0.000000 0.000000 -0.004690
# 3 -0.003126 -0.003126 0.009457 0.000000 0.000000 0.000000
# 4 0.000000 0.000000 0.000000 0.248891 0.000000 0.000000
# 5 0.000000 0.000000 0.000000 0.000000 0.248891 0.000000
# 6 0.004690 -0.004690 0.000000 0.000000 0.000000 0.029642
#
#
# Mechanical properties :
#
#
# Convention : Reuss Voigt Hill
#
# Bulk Modulus (GPa) = 32.73207 38.45356 35.59281
# Shear Modulus (GPa) = 8.21871 20.46432 14.34151
#
# Velocity S-wave (km/s) = 1.94969 3.07655 2.57550
# Velocity P-wave (km/s) = 4.49529 5.51413 5.03057
#
# Compressibility (1/GPa) = 0.03055108
#
# Stress axis : x y z
#
# Youngs Moduli (GPa) = 48.54484 48.54484 105.73918
#
# Poissons Ratio (x) = 0.18446 0.33058
# Poissons Ratio (y) = 0.18446 0.33058
# Poissons Ratio (z) = 0.15177 0.15177
#
# Static dielectric constant tensor:
#      x y z
#    x 1.893010 0.000000 0.000000 
#    y 0.000000 1.893010 0.000000 
#    z 0.000000 0.000000 1.843440 
# 
# From -- ./inp_files/6455.got.cif
#   From: 2010.05.17/outbox.cif.g08.bks.cpg/sg88_4_cif.got.tgz:6455.got - 2010.06.03 19:11:41.
