data_PCOD9546614
_publ_section_title
;
Structure prediction by ZEFSAII (Michael W. Deem and Ramdas Pophale) SiO2 
 PCOD9546614
Probable space group: I 41/A
;
_chemical_formula_sum "Si O2"
_cell_formula_units_Z 48
_cell_length_a 9.944171
_cell_length_b 9.944171
_cell_length_c 20.355245
_cell_angle_alpha 90.000000
_cell_angle_beta 90.000000
_cell_angle_gamma 90.000000
_cell_volume 2012.859685
_symmetry_space_group_name_H-M "I 41/A"
_symmetry_group_IT_number 88
_space_group.IT_coordinate_system_code '2'
_symmetry_cell_setting 'tetragonal'
loop_
_space_group_symop_operation_xyz
x,y,z
3/4-y,1/4+x,1/4+z
-x,1/2-y,z
1/4+y,1/4-x,1/4+z
-x,-y,-z
1/4+y,3/4-x,3/4-z
x,1/2+y,-z
3/4-y,3/4+x,3/4-z
1/2+x,1/2+y,1/2+z
1/4-y,3/4+x,3/4+z
1/2-x,-y,1/2+z
3/4+y,3/4-x,3/4+z
1/2-x,1/2-y,1/2-z
3/4+y,1/4-x,1/4-z
1/2+x,y,1/2-z
1/4-y,1/4+x,1/4-z
loop_
_atom_site_type_symbol
_atom_site_label
_atom_site_fract_x
_atom_site_fract_y
_atom_site_fract_z
Si Si1 0.376184 0.152583 0.555305
Si Si2 0.632916 0.325582 0.967790
Si Si3 0.222356 0.617802 0.564632
O O1 0.500000 0.250000 0.561938
O O2 0.252310 0.252744 0.571502
O O3 0.355836 0.106939 0.479854
O O4 0.369249 0.032169 0.607318
O O5 0.500000 0.250000 0.946753
O O6 0.640335 0.485485 0.960368
O O7 0.660504 0.260524 0.040238
#
# Coordination Sequence:
#
# PCOD9546614 Si02
#       3
#    16  16  16
#     4  10  25  44  73 106 152 197 253 307 387 451
#     4  10  23  40  72 105 140 194 246 309 372 442
#     4  10  24  43  74 104 151 191 253 311 374 450
#
# _framework density 23.846668999999999
#
# number of rings (size 3 to 8) (size 9 to 14) (size 15 to 20)
#    2.000    0.000    0.000    2.000    4.667    4.000 
#    0.000    0.000    0.000    0.000    0.000    0.000 
#    0.000    0.000    0.000    0.000    0.000    0.000 
#
# Total GULP energy -133628.608606 kJ/mol
# GULP energy per Si atom -5567.858692 kJ/mol
# Density = 2.379239 g / cm^3
# Si number density = 23.846669 Si / 1000 Ang^3
#
#
#
# Elastic Constant Matrix: (Units=GPa)
#
#
# Indices 1 2 3 4 5 6 
#
# 1 105.7544 -1.9259 26.3602 0.0000 0.0000 9.0359
# 2 -1.9259 105.7544 26.3602 0.0000 0.0000 -9.0359
# 3 26.3602 26.3602 134.5438 0.0000 0.0000 0.0000
# 4 0.0000 0.0000 0.0000 35.0993 0.0000 0.0000
# 5 0.0000 0.0000 0.0000 0.0000 35.0993 0.0000
# 6 9.0359 -9.0359 0.0000 0.0000 0.0000 12.4392
#
#
#
# Elastic Compliance Matrix: (Units=1/GPa)
#
#
# Indices 1 2 3 4 5 6 
#
# 1 0.010636 0.000060 -0.002095 0.000000 0.000000 -0.007683
# 2 0.000060 0.010636 -0.002095 0.000000 0.000000 0.007683
# 3 -0.002095 -0.002095 0.008254 0.000000 0.000000 0.000000
# 4 0.000000 0.000000 0.000000 0.028491 0.000000 0.000000
# 5 0.000000 0.000000 0.000000 0.000000 0.028491 0.000000
# 6 -0.007683 0.007683 0.000000 0.000000 0.000000 0.091553
#
#
# Mechanical properties :
#
#
# Convention : Reuss Voigt Hill
#
# Bulk Modulus (GPa) = 47.03146 49.73793 48.38470
# Shear Modulus (GPa) = 25.85198 36.21143 31.03171
#
# Velocity S-wave (km/s) = 3.29613 3.90104 3.61127
# Velocity P-wave (km/s) = 5.85245 6.41821 6.14185
#
# Compressibility (1/GPa) = 0.02126236
#
# Stress axis : x y z
#
# Youngs Moduli (GPa) = 94.02314 94.02314 121.15907
#
# Poissons Ratio (x) = -0.00560 0.25388
# Poissons Ratio (y) = -0.00560 0.25388
# Poissons Ratio (z) = 0.19702 0.19702
#
# Static dielectric constant tensor:
#      x y z
#    x 1.898780 0.000000 0.000000 
#    y 0.000000 1.898780 0.000000 
#    z 0.000000 0.000000 1.987500 
# 
# From -- ./inp_files/3565.got.cif
#   From: 2010.05.17/outbox.cif.g08.bks.cpg/sg88_2_cif.got.tgz:3565.got - 2010.06.03 19:11:41.
