data_PCOD9546164
_publ_section_title
;
Structure prediction by ZEFSAII (Michael W. Deem and Ramdas Pophale) SiO2 
 PCOD9546164
Probable space group: I 4/M
;
_chemical_formula_sum "Si O2"
_cell_formula_units_Z 96
_cell_length_a 24.215781
_cell_length_b 24.215781
_cell_length_c 9.115374
_cell_angle_alpha 90.000000
_cell_angle_beta 90.000000
_cell_angle_gamma 90.000000
_cell_volume 5345.292226
_symmetry_space_group_name_H-M "I 4/M"
_symmetry_group_IT_number 87
_symmetry_cell_setting 'tetragonal'
loop_
_space_group_symop_operation_xyz
x,y,z
-y,x,z
-x,-y,z
y,-x,z
-x,-y,-z
y,-x,-z
x,y,-z
-y,x,-z
1/2+x,1/2+y,1/2+z
1/2-y,1/2+x,1/2+z
1/2-x,1/2-y,1/2+z
1/2+y,1/2-x,1/2+z
1/2-x,1/2-y,1/2-z
1/2+y,1/2-x,1/2-z
1/2+x,1/2+y,1/2-z
1/2-y,1/2+x,1/2-z
loop_
_atom_site_type_symbol
_atom_site_label
_atom_site_fract_x
_atom_site_fract_y
_atom_site_fract_z
Si Si1 0.445368 0.574388 0.338543
Si Si2 0.366265 0.358961 0.170743
Si Si3 0.649258 0.051853 0.174895
Si Si4 0.455118 0.279946 0.325361
Si Si5 0.142840 0.426152 0.323148
Si Si6 0.416800 0.729702 0.323412
O O1 0.426125 0.511039 0.334716
O O2 0.428485 0.597256 0.500000
O O3 0.417431 0.604486 0.204550
O O4 0.408876 0.315691 0.243342
O O5 0.307853 0.369725 0.250534
O O6 0.359380 0.347753 0.000000
O O7 0.715024 0.055787 0.200790
O O8 0.614964 0.098698 0.255400
O O9 0.631932 0.989840 0.220058
O O10 0.640951 0.056588 0.000000
O O11 0.450876 0.290656 0.500000
O O12 0.519959 0.289364 0.285667
O O13 0.140673 0.423796 0.500000
O O14 0.206010 0.412511 0.279862
O O15 0.412868 0.727313 0.500000
#
# Coordination Sequence:
#
# PCOD9546164 Si02
#       6
#    16  16  16  16  16  16
#     4   9  18  32  48  65  89 127 172 213 258 315
#     4  12  23  31  46  75 104 131 171 221 270 314
#     4   9  19  36  58  84 111 139 172 210 254 306
#     4   9  19  37  57  74  99 140 184 219 255 307
#     4   9  19  36  58  84 111 139 172 210 254 306
#     4   9  19  37  57  74  99 140 184 219 255 307
#
# _framework density 17.959727999999998
#
# number of rings (size 3 to 8) (size 9 to 14) (size 15 to 20)
#    0.000    2.500    0.000    5.000    0.000    7.667 
#    0.000    6.667    0.000    0.000    0.000    0.000 
#    0.000    0.000    0.000    0.000    0.000    0.000 
#
# Total GULP energy -267666.585395 kJ/mol
# GULP energy per Si atom -5576.387196 kJ/mol
# Density = 1.791885 g / cm^3
# Si number density = 17.959728 Si / 1000 Ang^3
#
#
#
# Elastic Constant Matrix: (Units=GPa)
#
#
# Indices 1 2 3 4 5 6 
#
# 1 71.9967 49.5372 37.7757 0.0000 0.0000 -0.0582
# 2 49.5372 71.9967 37.7757 0.0000 0.0000 0.0582
# 3 37.7757 37.7757 51.8647 0.0000 0.0000 0.0000
# 4 0.0000 0.0000 0.0000 26.2152 0.0000 0.0000
# 5 0.0000 0.0000 0.0000 0.0000 26.2152 0.0000
# 6 -0.0582 0.0582 0.0000 0.0000 0.0000 38.2435
#
#
#
# Elastic Compliance Matrix: (Units=1/GPa)
#
#
# Indices 1 2 3 4 5 6 
#
# 1 0.029781 -0.014744 -0.010952 0.000000 0.000000 0.000068
# 2 -0.014744 0.029781 -0.010952 0.000000 0.000000 -0.000068
# 3 -0.010952 -0.010952 0.035234 0.000000 0.000000 0.000000
# 4 0.000000 0.000000 0.000000 0.038146 0.000000 0.000000
# 5 0.000000 0.000000 0.000000 0.000000 0.038146 0.000000
# 6 0.000068 -0.000068 0.000000 0.000000 0.000000 0.026148
#
#
# Mechanical properties :
#
#
# Convention : Reuss Voigt Hill
#
# Bulk Modulus (GPa) = 46.51143 49.55947 48.03545
# Shear Modulus (GPa) = 18.00520 22.85273 20.42897
#
# Velocity S-wave (km/s) = 3.16971 3.57100 3.37632
# Velocity P-wave (km/s) = 6.27295 6.68262 6.48103
#
# Compressibility (1/GPa) = 0.02150009
#
# Stress axis : x y z
#
# Youngs Moduli (GPa) = 33.57893 33.57893 28.38151
#
# Poissons Ratio (x) = 0.49510 0.31082
# Poissons Ratio (y) = 0.49510 0.31082
# Poissons Ratio (z) = 0.36774 0.36774
#
# Static dielectric constant tensor:
#      x y z
#    x 1.627980 0.000000 0.000000 
#    y 0.000000 1.627980 0.000000 
#    z 0.000000 0.000000 1.604900 
# 
# From -- ./inp_files/1332.got.cif
#   From: 2010.05.17/outbox.cif.g08.bks.cpg/sg87_1_cif.got.tgz:1332.got - 2010.06.03 19:07:00.
