data_PCOD9546743
_publ_section_title
;
Structure prediction by ZEFSAII (Michael W. Deem and Ramdas Pophale) SiO2 
 PCOD9546743
Probable space group: I 41/A
;
_chemical_formula_sum "Si O2"
_cell_formula_units_Z 52
_cell_length_a 9.709327
_cell_length_b 9.709327
_cell_length_c 28.691442
_cell_angle_alpha 90.000000
_cell_angle_beta 90.000000
_cell_angle_gamma 90.000000
_cell_volume 2704.771812
_symmetry_space_group_name_H-M "I 41/A"
_symmetry_group_IT_number 88
_space_group.IT_coordinate_system_code '2'
_symmetry_cell_setting 'tetragonal'
loop_
_space_group_symop_operation_xyz
x,y,z
3/4-y,1/4+x,1/4+z
-x,1/2-y,z
1/4+y,1/4-x,1/4+z
-x,-y,-z
1/4+y,3/4-x,3/4-z
x,1/2+y,-z
3/4-y,3/4+x,3/4-z
1/2+x,1/2+y,1/2+z
1/4-y,3/4+x,3/4+z
1/2-x,-y,1/2+z
3/4+y,3/4-x,3/4+z
1/2-x,1/2-y,1/2-z
3/4+y,1/4-x,1/4-z
1/2+x,y,1/2-z
1/4-y,1/4+x,1/4-z
loop_
_atom_site_type_symbol
_atom_site_label
_atom_site_fract_x
_atom_site_fract_y
_atom_site_fract_z
Si Si1 0.599210 0.618007 0.953752
Si Si2 0.156520 0.581042 0.443685
Si Si3 0.683428 0.879893 0.628656
Si Si4 0.500000 0.750000 0.125000
O O1 0.500000 0.750000 0.951728
O O2 0.492047 0.493124 0.948006
O O3 0.705780 0.609299 0.912120
O O4 0.680796 0.621324 0.002803
O O5 0.272170 0.483613 0.420875
O O6 0.126250 0.706564 0.408463
O O7 0.673976 0.717309 0.639561
#
# Coordination Sequence:
#
# PCOD9546743 Si02
#       4
#    16  16  16   4
#     4  11  22  40  64  91 126 167 217 267 316 375
#     4  11  23  38  65  94 124 166 216 267 316 376
#     4  11  24  42  64  93 134 175 209 260 323 390
#     4  12  20  36  64  96 116 164 220 268 320 372
#
# _framework density 19.225280999999999
#
# number of rings (size 3 to 8) (size 9 to 14) (size 15 to 20)
#    0.000    0.923    7.692    0.000    0.000    1.231 
#    0.000    0.000    6.769    0.000    0.000    0.000 
#    0.000    0.000    0.000    0.000    0.000    0.000 
#
# Total GULP energy -145083.766721 kJ/mol
# GULP energy per Si atom -5580.144874 kJ/mol
# Density = 1.918152 g / cm^3
# Si number density = 19.225281 Si / 1000 Ang^3
#
#
#
# Elastic Constant Matrix: (Units=GPa)
#
#
# Indices 1 2 3 4 5 6 
#
# 1 64.6376 28.2967 38.9818 0.0000 0.0000 7.8802
# 2 28.2967 64.6376 38.9818 0.0000 0.0000 -7.8802
# 3 38.9818 38.9818 131.9925 0.0000 0.0000 0.0000
# 4 0.0000 0.0000 0.0000 22.8615 0.0000 0.0000
# 5 0.0000 0.0000 0.0000 0.0000 22.8615 0.0000
# 6 7.8802 -7.8802 0.0000 0.0000 0.0000 29.2871
#
#
#
# Elastic Compliance Matrix: (Units=1/GPa)
#
#
# Indices 1 2 3 4 5 6 
#
# 1 0.022728 -0.008424 -0.004225 0.000000 0.000000 -0.008382
# 2 -0.008424 0.022728 -0.004225 0.000000 0.000000 0.008382
# 3 -0.004225 -0.004225 0.010071 0.000000 0.000000 0.000000
# 4 0.000000 0.000000 0.000000 0.043742 0.000000 0.000000
# 5 0.000000 0.000000 0.000000 0.000000 0.043742 0.000000
# 6 -0.008382 0.008382 0.000000 0.000000 0.000000 0.038655
#
#
# Mechanical properties :
#
#
# Convention : Reuss Voigt Hill
#
# Bulk Modulus (GPa) = 45.90963 52.64315 49.27639
# Shear Modulus (GPa) = 22.45438 25.33586 23.89512
#
# Velocity S-wave (km/s) = 3.42125 3.63415 3.52930
# Velocity P-wave (km/s) = 6.28795 6.71201 6.50344
#
# Compressibility (1/GPa) = 0.02178192
#
# Stress axis : x y z
#
# Youngs Moduli (GPa) = 43.99792 43.99792 99.29034
#
# Poissons Ratio (x) = 0.37064 0.41945
# Poissons Ratio (y) = 0.37064 0.41946
# Poissons Ratio (z) = 0.18587 0.18587
#
# Static dielectric constant tensor:
#      x y z
#    x 1.693080 0.000000 0.000000 
#    y 0.000000 1.693080 0.000000 
#    z 0.000000 0.000000 1.685190 
# 
# From -- ./inp_files/4307.got.cif
#   From: 2010.05.17/outbox.cif.g08.bks.cpg/sg88_3_cif.got.tgz:4307.got - 2010.06.03 19:11:41.
