data_PCOD9546084
_publ_section_title
;
Structure prediction by ZEFSAII (Michael W. Deem and Ramdas Pophale) SiO2 
 PCOD9546084
Probable space group: I 4/M
;
_chemical_formula_sum "Si O2"
_cell_formula_units_Z 88
_cell_length_a 12.016063
_cell_length_b 12.016063
_cell_length_c 30.441145
_cell_angle_alpha 90.000000
_cell_angle_beta 90.000000
_cell_angle_gamma 90.000000
_cell_volume 4395.268161
_symmetry_space_group_name_H-M "I 4/M"
_symmetry_group_IT_number 87
_symmetry_cell_setting 'tetragonal'
loop_
_space_group_symop_operation_xyz
x,y,z
-y,x,z
-x,-y,z
y,-x,z
-x,-y,-z
y,-x,-z
x,y,-z
-y,x,-z
1/2+x,1/2+y,1/2+z
1/2-y,1/2+x,1/2+z
1/2-x,1/2-y,1/2+z
1/2+y,1/2-x,1/2+z
1/2-x,1/2-y,1/2-z
1/2+y,1/2-x,1/2-z
1/2+x,1/2+y,1/2-z
1/2-y,1/2+x,1/2-z
loop_
_atom_site_type_symbol
_atom_site_label
_atom_site_fract_x
_atom_site_fract_y
_atom_site_fract_z
Si Si1 0.198011 0.614680 0.709299
Si Si2 0.943134 0.333096 0.000000
Si Si3 0.581518 0.336943 0.932387
Si Si4 0.809699 0.647651 0.306882
Si Si5 0.500000 0.000000 0.075913
Si Si6 0.282653 0.803106 0.000000
Si Si7 0.306880 0.023393 0.642704
O O1 0.198512 0.485337 0.697063
O O2 0.299410 0.687454 0.690364
O O3 0.191481 0.636108 0.761289
O O4 0.089168 0.667601 0.686959
O O5 0.837938 0.252985 0.000000
O O6 0.943824 0.410977 0.043259
O O7 0.064192 0.275848 0.000000
O O8 0.643608 0.451823 0.943742
O O9 0.569582 0.302562 0.881345
O O10 0.644999 0.242253 0.959097
O O11 0.892858 0.685824 0.345524
O O12 0.453414 0.906209 0.108360
#
# Coordination Sequence:
#
# PCOD9546084 Si02
#       7
#    16   8  16  16   8   8  16
#     4  11  23  39  62  92 126 168 217 263 324 382
#     4  11  26  43  64  98 130 175 220 262 329 390
#     4  11  24  41  64  99 135 167 207 269 335 389
#     4  11  23  40  63  91 128 172 213 268 320 387
#     4  11  22  40  65  96 124 164 217 270 316 383
#     4  12  24  44  68  94 136 175 218 263 320 401
#     4  12  21  40  67  94 125 167 217 268 317 382
#
# _framework density 20.021529999999998
#
# number of rings (size 3 to 8) (size 9 to 14) (size 15 to 20)
#    0.000    0.727    5.455    2.727    2.545    1.273 
#    0.000    0.000    0.000    0.000    0.000    0.000 
#    0.000    0.000    0.000    0.000    0.000    0.000 
#
# Total GULP energy -245787.652769 kJ/mol
# GULP energy per Si atom -5586.083017 kJ/mol
# Density = 1.997596 g / cm^3
# Si number density = 20.021530 Si / 1000 Ang^3
#
#
#
# Elastic Constant Matrix: (Units=GPa)
#
#
# Indices 1 2 3 4 5 6 
#
# 1 101.0702 48.5946 15.7605 0.0000 0.0000 0.0223
# 2 48.5946 101.0702 15.7605 0.0000 0.0000 -0.0223
# 3 15.7605 15.7605 55.2676 0.0000 0.0000 0.0000
# 4 0.0000 0.0000 0.0000 18.9313 0.0000 0.0000
# 5 0.0000 0.0000 0.0000 0.0000 18.9313 0.0000
# 6 0.0223 -0.0223 0.0000 0.0000 0.0000 28.8331
#
#
#
# Elastic Compliance Matrix: (Units=1/GPa)
#
#
# Indices 1 2 3 4 5 6 
#
# 1 0.013083 -0.005974 -0.002027 0.000000 0.000000 -0.000015
# 2 -0.005974 0.013083 -0.002027 0.000000 0.000000 0.000015
# 3 -0.002027 -0.002027 0.019250 0.000000 0.000000 0.000000
# 4 0.000000 0.000000 0.000000 0.052822 0.000000 0.000000
# 5 0.000000 0.000000 0.000000 0.000000 0.052822 0.000000
# 6 -0.000015 0.000015 0.000000 0.000000 0.000000 0.034682
#
#
# Mechanical properties :
#
#
# Convention : Reuss Voigt Hill
#
# Bulk Modulus (GPa) = 39.43454 46.40439 42.91946
# Shear Modulus (GPa) = 23.33705 25.15865 24.24785
#
# Velocity S-wave (km/s) = 3.41779 3.54867 3.48385
# Velocity P-wave (km/s) = 5.94255 6.32600 6.13727
#
# Compressibility (1/GPa) = 0.02535848
#
# Stress axis : x y z
#
# Youngs Moduli (GPa) = 76.43790 76.43790 51.94830
#
# Poissons Ratio (x) = 0.45664 0.10531
# Poissons Ratio (y) = 0.45664 0.10531
# Poissons Ratio (z) = 0.15495 0.15495
#
# Static dielectric constant tensor:
#      x y z
#    x 1.708380 0.000000 0.000000 
#    y 0.000000 1.708380 0.000000 
#    z 0.000000 0.000000 1.723440 
# 
# From -- ./inp_files/6632.got.cif
#   From: 2010.05.17/outbox.cif.g08.bks.cpg/sg87_4_cif.got.tgz:6632.got - 2010.06.03 19:07:00.
