data_PCOD9546931
_publ_section_title
;
Structure prediction by ZEFSAII (Michael W. Deem and Ramdas Pophale) SiO2 
 PCOD9546931
Probable space group: P 4 2 2
;
_chemical_formula_sum "Si O2"
_cell_formula_units_Z 64
_cell_length_a 11.967859
_cell_length_b 11.967859
_cell_length_c 23.916886
_cell_angle_alpha 90.000000
_cell_angle_beta 90.000000
_cell_angle_gamma 90.000000
_cell_volume 3425.607188
_symmetry_space_group_name_H-M "P 4 2 2"
_symmetry_group_IT_number 89
_symmetry_cell_setting 'tetragonal'
loop_
_space_group_symop_operation_xyz
x,y,z
-y,x,z
-x,-y,z
y,-x,z
x,-y,-z
-x,y,-z
y,x,-z
-y,-x,-z
loop_
_atom_site_type_symbol
_atom_site_label
_atom_site_fract_x
_atom_site_fract_y
_atom_site_fract_z
Si Si1 0.442091 0.322398 0.819411
Si Si2 0.765154 0.415082 0.694401
Si Si3 0.385261 0.067030 0.853521
Si Si4 0.369603 0.020985 0.434899
Si Si5 0.325113 0.992396 0.270184
Si Si6 0.356475 0.204982 0.350161
Si Si7 0.952988 0.176235 0.637671
Si Si8 0.014147 0.816735 0.933274
O O1 0.570024 0.362304 0.832442
O O2 0.430030 0.299754 0.752909
O O3 0.408885 0.201257 0.846130
O O4 0.896485 0.410035 0.709272
O O5 0.729129 0.301374 0.664878
O O6 0.744102 0.520913 0.656105
O O7 0.333833 0.015650 0.795949
O O8 0.500000 0.000000 0.862499
O O9 0.297668 0.038577 0.901825
O O10 0.347340 0.143764 0.409493
O O11 0.500000 0.000000 0.423205
O O12 0.349596 0.000000 0.500000
O O13 0.286616 0.942709 0.399553
O O14 0.208378 0.951757 0.297017
O O15 0.345143 0.109555 0.301489
O O16 0.076661 0.129521 0.625254
O O17 0.115880 0.901018 0.918614
O O18 0.000000 0.800800 0.000000
#
# Coordination Sequence:
#
# PCOD9546931 Si02
#       8
#     8   8   8   8   8   8   8   8
#     4  10  21  38  57  87 136 176 206 250 310 390
#     4  11  20  33  57  82 114 158 196 230 288 360
#     4  11  24  35  61  96 129 166 216 259 313 374
#     4  10  22  39  57  76 105 144 189 238 292 352
#     4  10  20  35  51  83 123 156 184 232 285 355
#     4  11  21  35  57  81 115 147 191 238 289 356
#     4  10  21  38  59  85 113 143 182 231 294 359
#     4   9  21  43  67  90 123 168 219 277 328 371
#
# _framework density 18.682818000000001
#
# number of rings (size 3 to 8) (size 9 to 14) (size 15 to 20)
#    0.000    1.750    1.250    5.250    1.750    3.500 
#    0.000    3.125    0.000    0.000    0.000    0.000 
#    0.000   12.000    0.000    0.000    0.000    0.000 
#
# Total GULP energy -356825.611025 kJ/mol
# GULP energy per Si atom -5575.400172 kJ/mol
# Density = 1.864030 g / cm^3
# Si number density = 18.682818 Si / 1000 Ang^3
#
#
#
# Elastic Constant Matrix: (Units=GPa)
#
#
# Indices 1 2 3 4 5 6 
#
# 1 124.4095 40.6746 49.5450 0.0000 0.0000 0.0000
# 2 40.6746 124.4095 49.5450 0.0000 0.0000 0.0000
# 3 49.5450 49.5450 67.9287 0.0000 0.0000 0.0000
# 4 0.0000 0.0000 0.0000 22.3807 0.0000 0.0000
# 5 0.0000 0.0000 0.0000 0.0000 22.3807 0.0000
# 6 0.0000 0.0000 0.0000 0.0000 0.0000 20.5057
#
#
#
# Elastic Compliance Matrix: (Units=1/GPa)
#
#
# Indices 1 2 3 4 5 6 
#
# 1 0.011359 -0.000584 -0.007859 0.000000 0.000000 0.000000
# 2 -0.000584 0.011359 -0.007859 0.000000 0.000000 0.000000
# 3 -0.007859 -0.007859 0.026185 0.000000 0.000000 0.000000
# 4 0.000000 0.000000 0.000000 0.044681 0.000000 0.000000
# 5 0.000000 0.000000 0.000000 0.000000 0.044681 0.000000
# 6 0.000000 0.000000 0.000000 0.000000 0.000000 0.048767
#
#
# Mechanical properties :
#
#
# Convention : Reuss Voigt Hill
#
# Bulk Modulus (GPa) = 61.35111 66.25297 63.80204
# Shear Modulus (GPa) = 22.21560 24.85231 23.53395
#
# Velocity S-wave (km/s) = 3.45206 3.65118 3.55302
# Velocity P-wave (km/s) = 6.98559 7.30163 7.14536
#
# Compressibility (1/GPa) = 0.01629962
#
# Stress axis : x y z
#
# Youngs Moduli (GPa) = 88.03974 88.03974 38.18988
#
# Poissons Ratio (x) = 0.05141 0.30012
# Poissons Ratio (y) = 0.05141 0.30012
# Poissons Ratio (z) = 0.69187 0.69187
#
# Static dielectric constant tensor:
#      x y z
#    x 1.691220 0.000000 0.000000 
#    y 0.000000 1.691220 0.000000 
#    z 0.000000 0.000000 1.631750 
# 
# From -- ./inp_files/2803.got.cif
#   From: 2010.05.17/outbox.cif.g08.bks.cpg/sg89_2_cif.got.tgz:2803.got - 2010.06.03 19:15:31.
