data_PCOD9546141
_publ_section_title
;
Structure prediction by ZEFSAII (Michael W. Deem and Ramdas Pophale) SiO2 
 PCOD9546141
Probable space group: I 4/M
;
_chemical_formula_sum "Si O2"
_cell_formula_units_Z 88
_cell_length_a 10.369247
_cell_length_b 10.369247
_cell_length_c 35.300684
_cell_angle_alpha 90.000000
_cell_angle_beta 90.000000
_cell_angle_gamma 90.000000
_cell_volume 3795.574847
_symmetry_space_group_name_H-M "I 4/M"
_symmetry_group_IT_number 87
_symmetry_cell_setting 'tetragonal'
loop_
_space_group_symop_operation_xyz
x,y,z
-y,x,z
-x,-y,z
y,-x,z
-x,-y,-z
y,-x,-z
x,y,-z
-y,x,-z
1/2+x,1/2+y,1/2+z
1/2-y,1/2+x,1/2+z
1/2-x,1/2-y,1/2+z
1/2+y,1/2-x,1/2+z
1/2-x,1/2-y,1/2-z
1/2+y,1/2-x,1/2-z
1/2+x,1/2+y,1/2-z
1/2-y,1/2+x,1/2-z
loop_
_atom_site_type_symbol
_atom_site_label
_atom_site_fract_x
_atom_site_fract_y
_atom_site_fract_z
Si Si1 0.202797 0.082216 0.688679
Si Si2 0.289266 0.458520 0.500000
Si Si3 0.649196 0.032795 0.844779
Si Si4 0.813671 0.898957 0.545774
Si Si5 0.709610 0.553309 0.273505
Si Si6 0.966735 0.650617 0.073162
O O1 0.313713 0.144500 0.663344
O O2 0.068098 0.160176 0.683938
O O3 0.262009 0.081522 0.731597
O O4 0.401877 0.355913 0.500000
O O5 0.208783 0.454062 0.538344
O O6 0.703127 0.947502 0.810343
O O7 0.710531 0.005378 0.885708
O O8 0.500000 0.000000 0.847285
O O9 0.800236 0.892292 0.500000
O O10 0.686132 0.842680 0.564546
O O11 0.949271 0.831393 0.555811
O O12 0.589048 0.648748 0.275223
O O13 0.000000 0.500000 0.073873
#
# Coordination Sequence:
#
# PCOD9546141 Si02
#       6
#    16   8  16  16  16  16
#     4   9  21  41  64  91 125 167 211 260 321 382
#     4  11  27  48  72  95 120 172 224 259 309 376
#     4  11  26  38  59  98 129 163 212 261 318 379
#     4   9  19  36  63  95 118 152 205 254 311 381
#     4   9  21  41  64  88 120 169 217 260 314 370
#     4  11  25  42  63  93 130 167 207 264 323 371
#
# _framework density 23.184895999999998
#
# number of rings (size 3 to 8) (size 9 to 14) (size 15 to 20)
#    0.000    2.091    0.909    1.909    7.636    4.364 
#    0.000    3.636    0.000    0.000    0.000    0.000 
#    0.000    0.000    0.000    0.000    0.000    0.000 
#
# Total GULP energy -245991.256380 kJ/mol
# GULP energy per Si atom -5590.710372 kJ/mol
# Density = 2.313213 g / cm^3
# Si number density = 23.184896 Si / 1000 Ang^3
#
#
#
# Elastic Constant Matrix: (Units=GPa)
#
#
# Indices 1 2 3 4 5 6 
#
# 1 -5.0209 62.6422 14.3260 0.0000 0.0000 24.8079
# 2 62.6422 -5.0209 14.3260 0.0000 0.0000 -24.8079
# 3 14.3260 14.3260 115.1112 0.0000 0.0000 0.0000
# 4 0.0000 0.0000 0.0000 -37.8197 0.0000 0.0000
# 5 0.0000 0.0000 0.0000 0.0000 -37.8197 0.0000
# 6 24.8079 -24.8079 0.0000 0.0000 0.0000 15.7917
#
#
#
# Elastic Compliance Matrix: (Units=1/GPa)
#
#
# Indices 1 2 3 4 5 6 
#
# 1 0.005816 0.012684 -0.002302 0.000000 0.000000 0.010789
# 2 0.012684 0.005816 -0.002302 0.000000 0.000000 -0.010789
# 3 -0.002302 -0.002302 0.009260 0.000000 0.000000 0.000000
# 4 0.000000 0.000000 0.000000 -0.026441 0.000000 0.000000
# 5 0.000000 0.000000 0.000000 0.000000 -0.026441 0.000000
# 6 0.010789 -0.010789 0.000000 0.000000 0.000000 0.029427
#
#
# Mechanical properties :
#
#
# Convention : Reuss Voigt Hill
#
# Bulk Modulus (GPa) = 26.99054 31.96199 29.47627
# Shear Modulus (GPa) = -784.70828 -11.05120 -397.87974
#
# Velocity S-wave (km/s) = -18.41715 -2.18561 -13.11427
# Velocity P-wave (km/s) = 20.99020 2.72881 14.71635
#
# Compressibility (1/GPa) = 0.03705001
#
# Stress axis : x y z
#
# Youngs Moduli (GPa) = 171.94395 171.94394 107.98762
#
# Poissons Ratio (x) = -2.18088 0.24862
# Poissons Ratio (y) = -2.18088 0.24862
# Poissons Ratio (z) = 0.39587 0.39587
#
# Static dielectric constant tensor:
#      x y z
#    x 1.880270 0.000000 0.000000 
#    y 0.000000 1.880270 0.000000 
#    z 0.000000 0.000000 1.975180 
# 
# From -- ./inp_files/6588.got.cif
#   From: 2010.05.17/outbox.cif.g08.bks.cpg/sg87_4_cif.got.tgz:6588.got - 2010.06.03 19:07:00.
