data_PCOD9546044
_publ_section_title
;
Structure prediction by ZEFSAII (Michael W. Deem and Ramdas Pophale) SiO2 
 PCOD9546044
Probable space group: I 4/M
;
_chemical_formula_sum "Si O2"
_cell_formula_units_Z 68
_cell_length_a 11.596821
_cell_length_b 11.596821
_cell_length_c 26.748564
_cell_angle_alpha 90.000000
_cell_angle_beta 90.000000
_cell_angle_gamma 90.000000
_cell_volume 3597.314261
_symmetry_space_group_name_H-M "I 4/M"
_symmetry_group_IT_number 87
_symmetry_cell_setting 'tetragonal'
loop_
_space_group_symop_operation_xyz
x,y,z
-y,x,z
-x,-y,z
y,-x,z
-x,-y,-z
y,-x,-z
x,y,-z
-y,x,-z
1/2+x,1/2+y,1/2+z
1/2-y,1/2+x,1/2+z
1/2-x,1/2-y,1/2+z
1/2+y,1/2-x,1/2+z
1/2-x,1/2-y,1/2-z
1/2+y,1/2-x,1/2-z
1/2+x,1/2+y,1/2-z
1/2-y,1/2+x,1/2-z
loop_
_atom_site_type_symbol
_atom_site_label
_atom_site_fract_x
_atom_site_fract_y
_atom_site_fract_z
Si Si1 0.935757 0.285714 0.180259
Si Si2 0.207423 0.686916 0.358907
Si Si3 0.415512 0.671761 0.059327
Si Si4 0.928325 0.171615 0.716498
Si Si5 0.000000 0.500000 0.750000
O O1 0.051397 0.272022 0.147860
O O2 0.823643 0.261871 0.147090
O O3 0.926150 0.191307 0.224453
O O4 0.945020 0.403917 0.212704
O O5 0.139230 0.727943 0.407711
O O6 0.127376 0.722634 0.311996
O O7 0.351484 0.550299 0.070631
O O8 0.405586 0.692340 0.000000
O O9 0.059268 0.145248 0.702422
#
# Coordination Sequence:
#
# PCOD9546044 Si02
#       5
#    16  16  16  16   4
#     4  12  24  37  54  82 127 163 201 233 291 352
#     4  12  24  38  58  87 118 165 198 244 294 355
#     4   9  20  42  69  92 113 143 194 254 305 353
#     4  11  21  37  57  79 113 158 207 241 281 344
#     4  12  24  36  52  88 130 156 192 260 288 336
#
# _framework density 18.902991
#
# number of rings (size 3 to 8) (size 9 to 14) (size 15 to 20)
#    0.000    0.941    4.706    4.235    3.294    2.353 
#    0.000    1.176    0.000    2.824    0.000    1.647 
#    0.000    0.000    0.000    0.000    0.000    0.000 
#
# Total GULP energy -190000.625658 kJ/mol
# GULP energy per Si atom -5588.253696 kJ/mol
# Density = 1.885997 g / cm^3
# Si number density = 18.902991 Si / 1000 Ang^3
#
#
#
# Elastic Constant Matrix: (Units=GPa)
#
#
# Indices 1 2 3 4 5 6 
#
# 1 74.7480 30.3146 24.0157 0.0000 0.0000 1.7211
# 2 30.3146 74.7480 24.0157 0.0000 0.0000 -1.7211
# 3 24.0157 24.0157 72.3525 0.0000 0.0000 0.0000
# 4 0.0000 0.0000 0.0000 29.0012 0.0000 0.0000
# 5 0.0000 0.0000 0.0000 0.0000 29.0012 0.0000
# 6 1.7211 -1.7211 0.0000 0.0000 0.0000 16.8700
#
#
#
# Elastic Compliance Matrix: (Units=1/GPa)
#
#
# Indices 1 2 3 4 5 6 
#
# 1 0.016953 -0.005732 -0.003725 0.000000 0.000000 -0.002314
# 2 -0.005732 0.016953 -0.003725 0.000000 0.000000 0.002314
# 3 -0.003725 -0.003725 0.016294 0.000000 0.000000 0.000000
# 4 0.000000 0.000000 0.000000 0.034481 0.000000 0.000000
# 5 0.000000 0.000000 0.000000 0.000000 0.034481 0.000000
# 6 -0.002314 0.002314 0.000000 0.000000 0.000000 0.059749
#
#
# Mechanical properties :
#
#
# Convention : Reuss Voigt Hill
#
# Bulk Modulus (GPa) = 41.95076 42.06005 42.00541
# Shear Modulus (GPa) = 23.45006 24.54130 23.99568
#
# Velocity S-wave (km/s) = 3.52596 3.60707 3.56675
# Velocity P-wave (km/s) = 6.23036 6.29656 6.26355
#
# Compressibility (1/GPa) = 0.02383747
#
# Stress axis : x y z
#
# Youngs Moduli (GPa) = 58.98701 58.98701 61.37326
#
# Poissons Ratio (x) = 0.33811 0.22858
# Poissons Ratio (y) = 0.33811 0.22858
# Poissons Ratio (z) = 0.21970 0.21970
#
# Static dielectric constant tensor:
#      x y z
#    x 1.687760 0.000000 0.000000 
#    y 0.000000 1.687760 0.000000 
#    z 0.000000 0.000000 1.632240 
# 
# From -- ./inp_files/6444.got.cif
#   From: 2010.05.17/outbox.cif.g08.bks.cpg/sg87_4_cif.got.tgz:6444.got - 2010.06.03 19:07:00.
