data_PCOD9546604
_publ_section_title
;
Structure prediction by ZEFSAII (Michael W. Deem and Ramdas Pophale) SiO2 
 PCOD9546604
Probable space group: I 41/A
;
_chemical_formula_sum "Si O2"
_cell_formula_units_Z 112
_cell_length_a 27.573173
_cell_length_b 27.573173
_cell_length_c 6.302657
_cell_angle_alpha 90.000000
_cell_angle_beta 90.000000
_cell_angle_gamma 90.000000
_cell_volume 4791.783240
_symmetry_space_group_name_H-M "I 41/A"
_symmetry_group_IT_number 88
_space_group.IT_coordinate_system_code '2'
_symmetry_cell_setting 'tetragonal'
loop_
_space_group_symop_operation_xyz
x,y,z
3/4-y,1/4+x,1/4+z
-x,1/2-y,z
1/4+y,1/4-x,1/4+z
-x,-y,-z
1/4+y,3/4-x,3/4-z
x,1/2+y,-z
3/4-y,3/4+x,3/4-z
1/2+x,1/2+y,1/2+z
1/4-y,3/4+x,3/4+z
1/2-x,-y,1/2+z
3/4+y,3/4-x,3/4+z
1/2-x,1/2-y,1/2-z
3/4+y,1/4-x,1/4-z
1/2+x,y,1/2-z
1/4-y,1/4+x,1/4-z
loop_
_atom_site_type_symbol
_atom_site_label
_atom_site_fract_x
_atom_site_fract_y
_atom_site_fract_z
Si Si1 0.112265 0.452189 0.554484
Si Si2 0.327719 0.285641 0.098305
Si Si3 0.285685 0.199655 0.865852
Si Si4 0.143720 0.275905 0.021878
Si Si5 0.317436 0.483034 0.295831
Si Si6 0.383625 0.908923 0.447783
Si Si7 0.423051 0.758751 0.170353
O O1 0.089608 0.437267 0.783301
O O2 0.071652 0.483784 0.438140
O O3 0.125164 0.406227 0.412380
O O4 0.157658 0.486858 0.604242
O O5 0.337536 0.268406 0.334614
O O6 0.287799 0.248278 0.005389
O O7 0.377000 0.275159 0.966914
O O8 0.316439 0.209149 0.653305
O O9 0.313294 0.159954 0.006285
O O10 0.134844 0.323024 0.168056
O O11 0.096703 0.258939 0.895361
O O12 0.297921 0.522496 0.461040
O O13 0.356364 0.447478 0.402412
O O14 0.462625 0.800816 0.185659
#
# Coordination Sequence:
#
# PCOD9546604 Si02
#       7
#    16  16  16  16  16  16  16
#     4  12  24  43  72 105 142 195 246 300 360 430
#     4  10  25  42  72 103 143 184 232 299 355 434
#     4  10  22  48  63 102 145 182 237 294 359 428
#     4  10  23  47  72 100 145 183 230 299 362 428
#     4  12  25  45  69 104 148 199 247 302 363 424
#     4  11  24  44  75 105 143 190 246 306 351 430
#     4  10  24  47  72 102 141 183 236 295 356 434
#
# _framework density 23.373345
#
# number of rings (size 3 to 8) (size 9 to 14) (size 15 to 20)
#    0.000    1.286    1.429    3.000    6.000    1.714 
#   12.857    1.429    0.000    0.000    0.000    0.000 
#    0.000    0.000    0.000    0.000    0.000    0.000 
#
# Total GULP energy -313847.524754 kJ/mol
# GULP energy per Si atom -5604.420085 kJ/mol
# Density = 2.332015 g / cm^3
# Si number density = 23.373345 Si / 1000 Ang^3
#
#
#
# Elastic Constant Matrix: (Units=GPa)
#
#
# Indices 1 2 3 4 5 6 
#
# 1 70.1763 18.8142 25.0316 0.0000 0.0000 10.9032
# 2 18.8142 70.1763 25.0316 0.0000 0.0000 -10.9032
# 3 25.0316 25.0316 87.4059 0.0000 0.0000 0.0000
# 4 0.0000 0.0000 0.0000 27.7831 0.0000 0.0000
# 5 0.0000 0.0000 0.0000 0.0000 27.7831 0.0000
# 6 10.9032 -10.9032 0.0000 0.0000 0.0000 29.2765
#
#
#
# Elastic Compliance Matrix: (Units=1/GPa)
#
#
# Indices 1 2 3 4 5 6 
#
# 1 0.018261 -0.004865 -0.003836 0.000000 0.000000 -0.008613
# 2 -0.004865 0.018261 -0.003836 0.000000 0.000000 0.008613
# 3 -0.003836 -0.003836 0.013638 0.000000 0.000000 0.000000
# 4 0.000000 0.000000 0.000000 0.035993 0.000000 0.000000
# 5 0.000000 0.000000 0.000000 0.000000 0.035993 0.000000
# 6 -0.008613 0.008613 0.000000 0.000000 0.000000 0.040572
#
#
# Mechanical properties :
#
#
# Convention : Reuss Voigt Hill
#
# Bulk Modulus (GPa) = 39.86615 40.61257 40.23936
# Shear Modulus (GPa) = 25.49003 27.56059 26.52531
#
# Velocity S-wave (km/s) = 3.30595 3.43760 3.37241
# Velocity P-wave (km/s) = 5.62722 5.75929 5.69364
#
# Compressibility (1/GPa) = 0.02508394
#
# Stress axis : x y z
#
# Youngs Moduli (GPa) = 54.76227 54.76227 73.32391
#
# Poissons Ratio (x) = 0.26644 0.28128
# Poissons Ratio (y) = 0.26644 0.28128
# Poissons Ratio (z) = 0.21008 0.21008
#
# Static dielectric constant tensor:
#      x y z
#    x 1.865660 0.000000 0.000000 
#    y 0.000000 1.865660 0.000000 
#    z 0.000000 0.000000 1.866060 
# 
# From -- ./inp_files/817.got.cif
#   From: 2010.05.17/outbox.cif.g08.bks.cpg/sg88_1_cif.got.tgz:817.got - 2010.06.03 19:11:41.
