data_PCOD9546254
_publ_section_title
;
Structure prediction by ZEFSAII (Michael W. Deem and Ramdas Pophale) SiO2 
 PCOD9546254
Probable space group: I 41/A
;
_chemical_formula_sum "Si O2"
_cell_formula_units_Z 80
_cell_length_a 22.714960
_cell_length_b 22.714960
_cell_length_c 5.517697
_cell_angle_alpha 90.000000
_cell_angle_beta 90.000000
_cell_angle_gamma 90.000000
_cell_volume 2846.962854
_symmetry_space_group_name_H-M "I 41/A"
_symmetry_group_IT_number 88
_space_group.IT_coordinate_system_code '2'
_symmetry_cell_setting 'tetragonal'
loop_
_space_group_symop_operation_xyz
x,y,z
3/4-y,1/4+x,1/4+z
-x,1/2-y,z
1/4+y,1/4-x,1/4+z
-x,-y,-z
1/4+y,3/4-x,3/4-z
x,1/2+y,-z
3/4-y,3/4+x,3/4-z
1/2+x,1/2+y,1/2+z
1/4-y,3/4+x,3/4+z
1/2-x,-y,1/2+z
3/4+y,3/4-x,3/4+z
1/2-x,1/2-y,1/2-z
3/4+y,1/4-x,1/4-z
1/2+x,y,1/2-z
1/4-y,1/4+x,1/4-z
loop_
_atom_site_type_symbol
_atom_site_label
_atom_site_fract_x
_atom_site_fract_y
_atom_site_fract_z
Si Si1 0.103644 0.671858 0.181763
Si Si2 0.783704 0.752721 0.499094
Si Si3 0.299435 0.113331 0.037747
Si Si4 0.553288 0.633854 0.812558
Si Si5 0.740521 0.872656 0.470793
O O1 0.149346 0.617877 0.160232
O O2 0.130404 0.736115 0.133301
O O3 0.076451 0.670784 0.454230
O O4 0.059475 0.665389 0.948871
O O5 0.750000 0.750000 0.250000
O O6 0.809245 0.685728 0.510309
O O7 0.793400 0.824227 0.499516
O O8 0.750000 0.750000 0.750000
O O9 0.260955 0.096455 0.268743
O O10 0.269773 0.094102 0.784586
O O11 0.588698 0.573276 0.776656
#
# Coordination Sequence:
#
# PCOD9546254 Si02
#       5
#    16  16  16  16  16
#     4  10  19  28  36  46  61  82 109 138 162 184
#     4   8  12  20  34  48  60  72  88 116 154 190
#     4   8  14  23  34  47  60  74  94 123 156 187
#     4  10  19  28  36  46  61  82 109 138 162 184
#     4   8  14  23  34  47  60  74  94 123 156 187
#
# _framework density 28.100121999999999
#
# number of rings (size 3 to 8) (size 9 to 14) (size 15 to 20)
#    0.000    3.200    0.000    1.200    0.000    2.400 
#    0.000    0.000    0.000    0.000    0.000    0.000 
#    0.000    0.000    0.000    0.000    0.000    0.000 
#
# Total GULP energy -222673.585427 kJ/mol
# GULP energy per Si atom -5566.839636 kJ/mol
# Density = 2.803616 g / cm^3
# Si number density = 28.100122 Si / 1000 Ang^3
#
#
#
# Elastic Constant Matrix: (Units=GPa)
#
#
# Indices 1 2 3 4 5 6 
#
# 1 75.9145 18.9324 34.9124 0.0000 0.0000 1.6712
# 2 18.9324 75.9145 34.9124 0.0000 0.0000 -1.6712
# 3 34.9124 34.9124 279.7616 0.0000 0.0000 0.0000
# 4 0.0000 0.0000 0.0000 31.4952 0.0000 0.0000
# 5 0.0000 0.0000 0.0000 0.0000 31.4952 0.0000
# 6 1.6712 -1.6712 0.0000 0.0000 0.0000 13.7620
#
#
#
# Elastic Compliance Matrix: (Units=1/GPa)
#
#
# Indices 1 2 3 4 5 6 
#
# 1 0.014643 -0.003033 -0.001449 0.000000 0.000000 -0.002146
# 2 -0.003033 0.014643 -0.001449 0.000000 0.000000 0.002146
# 3 -0.001449 -0.001449 0.003936 0.000000 0.000000 0.000000
# 4 0.000000 0.000000 0.000000 0.031751 0.000000 0.000000
# 5 0.000000 0.000000 0.000000 0.000000 0.031751 0.000000
# 6 -0.002146 0.002146 0.000000 0.000000 0.000000 0.073185
#
#
# Mechanical properties :
#
#
# Convention : Reuss Voigt Hill
#
# Bulk Modulus (GPa) = 46.81524 67.67832 57.24678
# Shear Modulus (GPa) = 26.47056 38.20604 32.33830
#
# Velocity S-wave (km/s) = 3.07255 3.69133 3.39606
# Velocity P-wave (km/s) = 5.41144 6.50422 5.98283
#
# Compressibility (1/GPa) = 0.02136057
#
# Stress axis : x y z
#
# Youngs Moduli (GPa) = 68.29383 68.29383 254.05958
#
# Poissons Ratio (x) = 0.20711 0.36809
# Poissons Ratio (y) = 0.20711 0.36809
# Poissons Ratio (z) = 0.09895 0.09895
#
# Static dielectric constant tensor:
#      x y z
#    x 2.435300 0.000000 0.000000 
#    y 0.000000 2.435300 0.000000 
#    z 0.000000 0.000000 2.188240 
# 
# From -- ./inp_files/723.got.cif
#   From: 2010.05.17/outbox.cif.g08.bks.cpg/sg88_1_cif.got.tgz:723.got - 2010.06.03 19:11:41.
