data_PCOD9546359
_publ_section_title
;
Structure prediction by ZEFSAII (Michael W. Deem and Ramdas Pophale) SiO2 
 PCOD9546359
Probable space group: I 41/A
;
_chemical_formula_sum "Si O2"
_cell_formula_units_Z 84
_cell_length_a 22.753630
_cell_length_b 22.753630
_cell_length_c 7.788718
_cell_angle_alpha 90.000000
_cell_angle_beta 90.000000
_cell_angle_gamma 90.000000
_cell_volume 4032.434886
_symmetry_space_group_name_H-M "I 41/A"
_symmetry_group_IT_number 88
_space_group.IT_coordinate_system_code '2'
_symmetry_cell_setting 'tetragonal'
loop_
_space_group_symop_operation_xyz
x,y,z
3/4-y,1/4+x,1/4+z
-x,1/2-y,z
1/4+y,1/4-x,1/4+z
-x,-y,-z
1/4+y,3/4-x,3/4-z
x,1/2+y,-z
3/4-y,3/4+x,3/4-z
1/2+x,1/2+y,1/2+z
1/4-y,3/4+x,3/4+z
1/2-x,-y,1/2+z
3/4+y,3/4-x,3/4+z
1/2-x,1/2-y,1/2-z
3/4+y,1/4-x,1/4-z
1/2+x,y,1/2-z
1/4-y,1/4+x,1/4-z
loop_
_atom_site_type_symbol
_atom_site_label
_atom_site_fract_x
_atom_site_fract_y
_atom_site_fract_z
Si Si1 0.834992 0.292031 0.668522
Si Si2 0.202704 0.324900 0.815169
Si Si3 0.837735 0.358681 0.328176
Si Si4 0.909156 0.160726 0.273510
Si Si5 0.441544 0.466671 0.449072
Si Si6 0.000000 0.250000 0.125000
O O1 0.825073 0.222376 0.687424
O O2 0.772519 0.324057 0.711620
O O3 0.850743 0.310726 0.475952
O O4 0.879734 0.313669 0.811500
O O5 0.168312 0.385747 0.838957
O O6 0.195175 0.297457 0.005230
O O7 0.869220 0.343064 0.148273
O O8 0.767415 0.358033 0.302325
O O9 0.840930 0.175978 0.303328
O O10 0.949296 0.216769 0.230660
O O11 0.500000 0.500000 0.500000
#
# Coordination Sequence:
#
# PCOD9546359 Si02
#       6
#    16  16  16  16  16   4
#     4  10  21  37  61  86 114 159 198 241 303 364
#     4   9  20  38  58  87 122 152 201 256 292 360
#     4  10  21  38  60  84 120 154 200 253 300 353
#     4  11  23  39  61  89 121 158 200 250 302 367
#     4  10  20  37  62  85 115 163 201 242 304 368
#     4  12  24  40  58  92 132 150 192 268 302 344
#
# _framework density 20.831088000000001
#
# number of rings (size 3 to 8) (size 9 to 14) (size 15 to 20)
#    0.000    1.905    0.000    4.571    0.000    7.619 
#    0.000    0.952   37.714    0.000    0.000    0.000 
#    0.000    0.000    0.000    0.000    0.000    0.000 
#
# Total GULP energy -234507.101202 kJ/mol
# GULP energy per Si atom -5583.502410 kJ/mol
# Density = 2.078368 g / cm^3
# Si number density = 20.831088 Si / 1000 Ang^3
#
#
#
# Elastic Constant Matrix: (Units=GPa)
#
#
# Indices 1 2 3 4 5 6 
#
# 1 90.8987 58.2241 22.0875 0.0000 0.0000 3.8339
# 2 58.2241 90.8987 22.0875 0.0000 0.0000 -3.8339
# 3 22.0875 22.0875 82.2609 0.0000 0.0000 0.0000
# 4 0.0000 0.0000 0.0000 22.9905 0.0000 0.0000
# 5 0.0000 0.0000 0.0000 0.0000 22.9905 0.0000
# 6 3.8339 -3.8339 0.0000 0.0000 0.0000 38.5951
#
#
#
# Elastic Compliance Matrix: (Units=1/GPa)
#
#
# Indices 1 2 3 4 5 6 
#
# 1 0.019310 -0.012025 -0.001956 0.000000 0.000000 -0.003113
# 2 -0.012025 0.019310 -0.001956 0.000000 0.000000 0.003113
# 3 -0.001956 -0.001956 0.013207 0.000000 0.000000 0.000000
# 4 0.000000 0.000000 0.000000 0.043496 0.000000 0.000000
# 5 0.000000 0.000000 0.000000 0.000000 0.043496 0.000000
# 6 -0.003113 0.003113 0.000000 0.000000 0.000000 0.026528
#
#
# Mechanical properties :
#
#
# Convention : Reuss Voigt Hill
#
# Bulk Modulus (GPa) = 50.11776 52.09516 51.10646
# Shear Modulus (GPa) = 24.52494 27.69250 26.10872
#
# Velocity S-wave (km/s) = 3.43494 3.65003 3.54411
# Velocity P-wave (km/s) = 6.31214 6.54418 6.42920
#
# Compressibility (1/GPa) = 0.01995301
#
# Stress axis : x y z
#
# Youngs Moduli (GPa) = 51.78575 51.78575 75.71783
#
# Poissons Ratio (x) = 0.62272 0.14812
# Poissons Ratio (y) = 0.62272 0.14812
# Poissons Ratio (z) = 0.10130 0.10130
#
# Static dielectric constant tensor:
#      x y z
#    x 1.790910 0.000000 0.000000 
#    y 0.000000 1.790910 0.000000 
#    z 0.000000 0.000000 1.779970 
# 
# From -- ./inp_files/1643.got.cif
#   From: 2010.05.17/outbox.cif.g08.bks.cpg/sg88_1_cif.got.tgz:1643.got - 2010.06.03 19:11:41.
