data_PCOD9546765
_publ_section_title
;
Structure prediction by ZEFSAII (Michael W. Deem and Ramdas Pophale) SiO2 
 PCOD9546765
Probable space group: I 41/A
;
_chemical_formula_sum "Si O2"
_cell_formula_units_Z 116
_cell_length_a 18.058724
_cell_length_b 18.058724
_cell_length_c 17.658919
_cell_angle_alpha 90.000000
_cell_angle_beta 90.000000
_cell_angle_gamma 90.000000
_cell_volume 5758.882738
_symmetry_space_group_name_H-M "I 41/A"
_symmetry_group_IT_number 88
_space_group.IT_coordinate_system_code '2'
_symmetry_cell_setting 'tetragonal'
loop_
_space_group_symop_operation_xyz
x,y,z
3/4-y,1/4+x,1/4+z
-x,1/2-y,z
1/4+y,1/4-x,1/4+z
-x,-y,-z
1/4+y,3/4-x,3/4-z
x,1/2+y,-z
3/4-y,3/4+x,3/4-z
1/2+x,1/2+y,1/2+z
1/4-y,3/4+x,3/4+z
1/2-x,-y,1/2+z
3/4+y,3/4-x,3/4+z
1/2-x,1/2-y,1/2-z
3/4+y,1/4-x,1/4-z
1/2+x,y,1/2-z
1/4-y,1/4+x,1/4-z
loop_
_atom_site_type_symbol
_atom_site_label
_atom_site_fract_x
_atom_site_fract_y
_atom_site_fract_z
Si Si1 0.893542 0.833616 0.990878
Si Si2 0.710929 0.412937 0.869508
Si Si3 0.767414 0.757826 0.076761
Si Si4 0.588527 0.965910 0.305409
Si Si5 0.891397 0.965556 0.553037
Si Si6 0.176724 0.951637 0.872309
Si Si7 0.463331 0.462096 0.571413
Si Si8 0.500000 0.250000 0.375000
O O1 0.842692 0.896196 0.950145
O O2 0.945277 0.797237 0.927783
O O3 0.842913 0.772058 0.030513
O O4 0.940775 0.878441 0.052367
O O5 0.733276 0.340306 0.917687
O O6 0.648902 0.459897 0.915523
O O7 0.703626 0.376247 0.785914
O O8 0.769669 0.479360 0.855236
O O9 0.781104 0.722626 0.159745
O O10 0.720641 0.697560 0.028100
O O11 0.640251 0.897948 0.331920
O O12 0.518712 0.968316 0.359532
O O13 0.643509 0.034361 0.321455
O O14 0.107458 0.989343 0.910668
O O15 0.500000 0.500000 0.500000
#
# Coordination Sequence:
#
# PCOD9546765 Si02
#       8
#    16  16  16  16  16  16  16   4
#     4  12  24  41  63  96 135 192 216 279 337 422
#     4  11  24  44  73 101 133 176 232 288 344 410
#     4  12  24  44  68 100 138 177 237 283 349 410
#     4  11  25  41  67 101 137 177 227 288 341 410
#     4  11  25  44  71 104 134 176 229 296 344 406
#     4  11  23  42  64  99 135 175 233 273 339 405
#     4  12  24  39  65  97 138 181 225 275 338 403
#     4  12  28  44  56  96 156 180 226 260 360 428
#
# _framework density 20.142796000000001
#
# number of rings (size 3 to 8) (size 9 to 14) (size 15 to 20)
#    0.000    0.552    5.517    2.897    5.793    0.000 
#    0.000    0.000    0.000    0.414    0.000    0.000 
#    0.000    0.000    0.000    0.000    0.000    0.000 
#
# Total GULP energy -323637.313167 kJ/mol
# GULP energy per Si atom -5579.953675 kJ/mol
# Density = 2.009695 g / cm^3
# Si number density = 20.142796 Si / 1000 Ang^3
#
#
#
# Elastic Constant Matrix: (Units=GPa)
#
#
# Indices 1 2 3 4 5 6 
#
# 1 86.5655 28.0149 6.6556 0.0000 0.0000 4.5885
# 2 28.0149 86.5655 6.6556 0.0000 0.0000 -4.5885
# 3 6.6556 6.6556 61.1043 0.0000 0.0000 0.0000
# 4 0.0000 0.0000 0.0000 14.2855 0.0000 0.0000
# 5 0.0000 0.0000 0.0000 0.0000 14.2855 0.0000
# 6 4.5885 -4.5885 0.0000 0.0000 0.0000 18.7358
#
#
#
# Elastic Compliance Matrix: (Units=1/GPa)
#
#
# Indices 1 2 3 4 5 6 
#
# 1 0.013300 -0.004461 -0.000963 0.000000 0.000000 -0.004350
# 2 -0.004461 0.013300 -0.000963 0.000000 0.000000 0.004350
# 3 -0.000963 -0.000963 0.016575 0.000000 0.000000 0.000000
# 4 0.000000 0.000000 0.000000 0.070001 0.000000 0.000000
# 5 0.000000 0.000000 0.000000 0.000000 0.070001 0.000000
# 6 -0.004350 0.004350 0.000000 0.000000 0.000000 0.055504
#
#
# Mechanical properties :
#
#
# Convention : Reuss Voigt Hill
#
# Bulk Modulus (GPa) = 32.89183 35.20973 34.05078
# Shear Modulus (GPa) = 19.11395 22.32198 20.71796
#
# Velocity S-wave (km/s) = 3.08380 3.33256 3.21059
# Velocity P-wave (km/s) = 5.38930 5.68559 5.53942
#
# Compressibility (1/GPa) = 0.03040269
#
# Stress axis : x y z
#
# Youngs Moduli (GPa) = 75.18691 75.18691 60.33113
#
# Poissons Ratio (x) = 0.33540 0.05809
# Poissons Ratio (y) = 0.33540 0.05809
# Poissons Ratio (z) = 0.07239 0.07239
#
# Static dielectric constant tensor:
#      x y z
#    x 1.724940 0.000000 0.000000 
#    y 0.000000 1.724940 0.000000 
#    z 0.000000 0.000000 1.775430 
# 
# From -- ./inp_files/4026.got.cif
#   From: 2010.05.17/outbox.cif.g08.bks.cpg/sg88_3_cif.got.tgz:4026.got - 2010.06.03 19:11:41.
