data_PCOD9546873
_publ_section_title
;
Structure prediction by ZEFSAII (Michael W. Deem and Ramdas Pophale) SiO2 
 PCOD9546873
Probable space group: I 41/A
;
_chemical_formula_sum "Si O2"
_cell_formula_units_Z 52
_cell_length_a 20.328175
_cell_length_b 20.328175
_cell_length_c 5.238222
_cell_angle_alpha 90.000000
_cell_angle_beta 90.000000
_cell_angle_gamma 90.000000
_cell_volume 2164.615091
_symmetry_space_group_name_H-M "I 41/A"
_symmetry_group_IT_number 88
_space_group.IT_coordinate_system_code '2'
_symmetry_cell_setting 'tetragonal'
loop_
_space_group_symop_operation_xyz
x,y,z
3/4-y,1/4+x,1/4+z
-x,1/2-y,z
1/4+y,1/4-x,1/4+z
-x,-y,-z
1/4+y,3/4-x,3/4-z
x,1/2+y,-z
3/4-y,3/4+x,3/4-z
1/2+x,1/2+y,1/2+z
1/4-y,3/4+x,3/4+z
1/2-x,-y,1/2+z
3/4+y,3/4-x,3/4+z
1/2-x,1/2-y,1/2-z
3/4+y,1/4-x,1/4-z
1/2+x,y,1/2-z
1/4-y,1/4+x,1/4-z
loop_
_atom_site_type_symbol
_atom_site_label
_atom_site_fract_x
_atom_site_fract_y
_atom_site_fract_z
Si Si1 0.074483 0.982955 0.436718
Si Si2 0.351252 0.493529 0.574825
Si Si3 0.000000 0.750000 0.875000
Si Si4 0.446358 0.167556 0.987418
O O1 0.081237 0.904514 0.484798
O O2 0.094252 0.992119 0.141347
O O3 0.000000 0.000000 0.500000
O O4 0.116438 0.023047 0.649680
O O5 0.305822 0.553988 0.669757
O O6 0.058310 0.791972 0.745799
O O7 0.417932 0.223658 0.799820
#
# Coordination Sequence:
#
# PCOD9546873 Si02
#       4
#    16  16   4  16
#     4  12  28  45  76 115 145 190 260 325 382 452
#     4  12  28  52  77 105 151 208 257 312 387 463
#     4   8  18  40  64  94 132 200 230 276 394 452
#     4   9  22  40  66  98 145 191 235 298 393 454
#
# _framework density 24.022746000000001
#
# number of rings (size 3 to 8) (size 9 to 14) (size 15 to 20)
#    0.000    1.538    0.000    4.615   17.231    0.000 
#    0.000    0.000    0.000    0.000    0.000    0.000 
#    0.000    0.000    0.000    0.000    0.000    0.000 
#
# Total GULP energy -144827.223448 kJ/mol
# GULP energy per Si atom -5570.277825 kJ/mol
# Density = 2.396807 g / cm^3
# Si number density = 24.022746 Si / 1000 Ang^3
#
#
#
# Elastic Constant Matrix: (Units=GPa)
#
#
# Indices 1 2 3 4 5 6 
#
# 1 75.0541 29.4795 16.8215 0.0000 0.0000 -48.3029
# 2 29.4795 75.0541 16.8215 0.0000 0.0000 48.3029
# 3 16.8215 16.8215 145.7318 0.0000 0.0000 0.0000
# 4 0.0000 0.0000 0.0000 61.4186 0.0000 0.0000
# 5 0.0000 0.0000 0.0000 0.0000 61.4186 0.0000
# 6 -48.3029 48.3029 0.0000 0.0000 0.0000 -68.9709
#
#
#
# Elastic Compliance Matrix: (Units=1/GPa)
#
#
# Indices 1 2 3 4 5 6 
#
# 1 0.009383 0.000552 -0.001147 0.000000 0.000000 -0.006185
# 2 0.000552 0.009383 -0.001147 0.000000 0.000000 0.006185
# 3 -0.001147 -0.001147 0.007127 0.000000 0.000000 0.000000
# 4 0.000000 0.000000 0.000000 0.016282 0.000000 0.000000
# 5 0.000000 0.000000 0.000000 0.000000 0.016282 0.000000
# 6 -0.006185 0.006185 0.000000 0.000000 0.000000 -0.005836
#
#
# Mechanical properties :
#
#
# Convention : Reuss Voigt Hill
#
# Bulk Modulus (GPa) = 44.62260 46.89835 45.76048
# Shear Modulus (GPa) = 78.64758 26.28776 52.46767
#
# Velocity S-wave (km/s) = 5.72799 3.31159 4.67849
# Velocity P-wave (km/s) = 7.89696 5.84697 6.94798
#
# Compressibility (1/GPa) = 0.02241017
#
# Stress axis : x y z
#
# Youngs Moduli (GPa) = 106.57069 106.57069 140.31797
#
# Poissons Ratio (x) = -0.05882 0.16092
# Poissons Ratio (y) = -0.05882 0.16092
# Poissons Ratio (z) = 0.12222 0.12222
#
# Static dielectric constant tensor:
#      x y z
#    x 1.959020 0.000000 0.000000 
#    y 0.000000 1.959020 0.000000 
#    z 0.000000 0.000000 2.137880 
# 
# From -- ./inp_files/404.got.cif
#   From: 2010.05.17/outbox.cif.g08.bks.cpg/sg88_1_cif.got.tgz:404.got - 2010.06.03 19:11:41.
