data_PCOD9546011
_publ_section_title
;
Structure prediction by ZEFSAII (Michael W. Deem and Ramdas Pophale) SiO2 
 PCOD9546011
Probable space group: I 4/M
;
_chemical_formula_sum "Si O2"
_cell_formula_units_Z 108
_cell_length_a 15.793645
_cell_length_b 15.793645
_cell_length_c 25.631539
_cell_angle_alpha 90.000000
_cell_angle_beta 90.000000
_cell_angle_gamma 90.000000
_cell_volume 6393.511157
_symmetry_space_group_name_H-M "I 4/M"
_symmetry_group_IT_number 87
_symmetry_cell_setting 'tetragonal'
loop_
_space_group_symop_operation_xyz
x,y,z
-y,x,z
-x,-y,z
y,-x,z
-x,-y,-z
y,-x,-z
x,y,-z
-y,x,-z
1/2+x,1/2+y,1/2+z
1/2-y,1/2+x,1/2+z
1/2-x,1/2-y,1/2+z
1/2+y,1/2-x,1/2+z
1/2-x,1/2-y,1/2-z
1/2+y,1/2-x,1/2-z
1/2+x,1/2+y,1/2-z
1/2-y,1/2+x,1/2-z
loop_
_atom_site_type_symbol
_atom_site_label
_atom_site_fract_x
_atom_site_fract_y
_atom_site_fract_z
Si Si1 0.659184 0.799377 0.354701
Si Si2 0.000000 0.000000 0.138390
Si Si3 0.091674 0.390946 0.751843
Si Si4 0.642065 0.522241 0.500000
Si Si5 0.399626 0.260099 0.939516
Si Si6 0.260203 0.401174 0.939559
Si Si7 0.200459 0.008301 0.114571
Si Si8 0.166235 0.692589 0.152276
O O1 0.626571 0.850241 0.304757
O O2 0.692820 0.861787 0.399792
O O3 0.582979 0.741929 0.376238
O O4 0.737274 0.738833 0.339495
O O5 0.009243 0.895701 0.134975
O O6 0.115009 0.490179 0.749833
O O7 0.132945 0.345369 0.702074
O O8 0.567630 0.592346 0.500000
O O9 0.693937 0.528228 0.552933
O O10 0.346211 0.346774 0.933135
O O11 0.499272 0.272974 0.930311
O O12 0.361068 0.193999 0.898503
O O13 0.388250 0.232931 0.000000
O O14 0.233175 0.390154 0.000000
O O15 0.257610 0.079408 0.141479
#
# Coordination Sequence:
#
# PCOD9546011 Si02
#       8
#    16   4  16   8  16  16  16  16
#     4  11  22  38  58  84 112 150 190 241 289 344
#     4  12  20  41  56  88 124 160 196 236 281 352
#     4  11  23  40  60  80 107 145 196 246 290 349
#     4  11  18  32  52  82 119 156 186 226 277 342
#     4   9  19  36  58  86 117 148 185 233 288 347
#     4   9  19  36  58  86 117 148 185 233 288 347
#     4  12  22  35  57  85 121 157 197 233 285 343
#     4  11  22  38  58  84 112 150 190 241 289 344
#
# _framework density 16.892126000000001
#
# number of rings (size 3 to 8) (size 9 to 14) (size 15 to 20)
#    0.000    1.407    4.444    1.333    2.074    0.296 
#    0.000    1.481    0.000    1.778    0.000    0.000 
#    0.000    0.000    0.000    0.000    0.000    0.000 
#
# Total GULP energy -300916.600636 kJ/mol
# GULP energy per Si atom -5572.529641 kJ/mol
# Density = 1.685368 g / cm^3
# Si number density = 16.892126 Si / 1000 Ang^3
#
#
#
# Elastic Constant Matrix: (Units=GPa)
#
#
# Indices 1 2 3 4 5 6 
#
# 1 60.9455 13.6238 13.1060 0.0000 0.0000 -2.2894
# 2 13.6238 60.9455 13.1060 0.0000 0.0000 2.2894
# 3 13.1060 13.1060 44.3134 0.0000 0.0000 0.0000
# 4 0.0000 0.0000 0.0000 28.1132 0.0000 0.0000
# 5 0.0000 0.0000 0.0000 0.0000 28.1132 0.0000
# 6 -2.2894 2.2894 0.0000 0.0000 0.0000 20.7149
#
#
#
# Elastic Compliance Matrix: (Units=1/GPa)
#
#
# Indices 1 2 3 4 5 6 
#
# 1 0.018163 -0.003197 -0.004426 0.000000 0.000000 0.002361
# 2 -0.003197 0.018163 -0.004426 0.000000 0.000000 -0.002361
# 3 -0.004426 -0.004426 0.025185 0.000000 0.000000 0.000000
# 4 0.000000 0.000000 0.000000 0.035570 0.000000 0.000000
# 5 0.000000 0.000000 0.000000 0.000000 0.035570 0.000000
# 6 0.002361 -0.002361 0.000000 0.000000 0.000000 0.048796
#
#
# Mechanical properties :
#
#
# Convention : Reuss Voigt Hill
#
# Bulk Modulus (GPa) = 26.72952 27.31956 27.02454
# Shear Modulus (GPa) = 22.93381 23.81286 23.37333
#
# Velocity S-wave (km/s) = 3.68865 3.75867 3.72382
# Velocity P-wave (km/s) = 5.83091 5.91987 5.87556
#
# Compressibility (1/GPa) = 0.03741182
#
# Stress axis : x y z
#
# Youngs Moduli (GPa) = 55.05602 55.05602 39.70650
#
# Poissons Ratio (x) = 0.17602 0.17576
# Poissons Ratio (y) = 0.17602 0.17576
# Poissons Ratio (z) = 0.24370 0.24370
#
# Static dielectric constant tensor:
#      x y z
#    x 1.549070 0.000000 0.000000 
#    y 0.000000 1.549070 0.000000 
#    z 0.000000 0.000000 1.561130 
# 
# From -- ./inp_files/5936.got.cif
#   From: 2010.05.17/outbox.cif.g08.bks.cpg/sg87_3_cif.got.tgz:5936.got - 2010.06.03 19:07:00.
