data_PCOD9546094
_publ_section_title
;
Structure prediction by ZEFSAII (Michael W. Deem and Ramdas Pophale) SiO2 
 PCOD9546094
Probable space group: I 4/M
;
_chemical_formula_sum "Si O2"
_cell_formula_units_Z 84
_cell_length_a 12.067397
_cell_length_b 12.067397
_cell_length_c 33.304536
_cell_angle_alpha 90.000000
_cell_angle_beta 90.000000
_cell_angle_gamma 90.000000
_cell_volume 4849.875485
_symmetry_space_group_name_H-M "I 4/M"
_symmetry_group_IT_number 87
_symmetry_cell_setting 'tetragonal'
loop_
_space_group_symop_operation_xyz
x,y,z
-y,x,z
-x,-y,z
y,-x,z
-x,-y,-z
y,-x,-z
x,y,-z
-y,x,-z
1/2+x,1/2+y,1/2+z
1/2-y,1/2+x,1/2+z
1/2-x,1/2-y,1/2+z
1/2+y,1/2-x,1/2+z
1/2-x,1/2-y,1/2-z
1/2+y,1/2-x,1/2-z
1/2+x,1/2+y,1/2-z
1/2-y,1/2+x,1/2-z
loop_
_atom_site_type_symbol
_atom_site_label
_atom_site_fract_x
_atom_site_fract_y
_atom_site_fract_z
Si Si1 0.559018 0.677415 0.454077
Si Si2 0.000000 0.000000 0.360091
Si Si3 0.797787 0.403207 0.626591
Si Si4 0.755400 0.515476 0.840229
Si Si5 0.173563 0.432596 0.752985
Si Si6 0.640785 0.225914 0.331736
O O1 0.432633 0.634537 0.449106
O O2 0.572115 0.716494 0.500000
O O3 0.587982 0.764811 0.419962
O O4 0.972871 0.133840 0.357724
O O5 0.915200 0.345422 0.634642
O O6 0.707505 0.325903 0.648743
O O7 0.790898 0.523684 0.646368
O O8 0.761730 0.563792 0.794754
O O9 0.792427 0.388228 0.837113
O O10 0.135169 0.558339 0.742458
O O11 0.239814 0.382204 0.715706
#
# Coordination Sequence:
#
# PCOD9546094 Si02
#       6
#    16   4  16  16  16  16
#     4   9  18  34  58  88 122 152 180 227 298 369
#     4  12  24  40  56  84 105 152 212 236 277 332
#     4  12  21  36  61  88 120 148 192 243 290 350
#     4  11  23  40  58  79 114 161 206 242 282 342
#     4   9  18  35  56  77 111 154 197 239 299 339
#     4  11  23  36  58  86 113 156 195 245 291 346
#
# _framework density 17.320032999999999
#
# number of rings (size 3 to 8) (size 9 to 14) (size 15 to 20)
#    0.000    1.524    5.714    1.143    0.000    2.667 
#    0.000    0.000    0.000    3.429    0.000    0.667 
#    0.000    0.000    0.000    0.000    0.000    0.000 
#
# Total GULP energy -234093.804155 kJ/mol
# GULP energy per Si atom -5573.662004 kJ/mol
# Density = 1.728061 g / cm^3
# Si number density = 17.320033 Si / 1000 Ang^3
#
#
#
# Elastic Constant Matrix: (Units=GPa)
#
#
# Indices 1 2 3 4 5 6 
#
# 1 65.0759 -3.9875 11.8273 0.0000 0.0000 -10.2302
# 2 -3.9875 65.0759 11.8273 0.0000 0.0000 10.2302
# 3 11.8273 11.8273 94.7929 0.0000 0.0000 0.0000
# 4 0.0000 0.0000 0.0000 19.8168 0.0000 0.0000
# 5 0.0000 0.0000 0.0000 0.0000 19.8168 0.0000
# 6 -10.2302 10.2302 0.0000 0.0000 0.0000 32.3829
#
#
#
# Elastic Compliance Matrix: (Units=1/GPa)
#
#
# Indices 1 2 3 4 5 6 
#
# 1 0.016588 0.000613 -0.002146 0.000000 0.000000 0.005047
# 2 0.000613 0.016588 -0.002146 0.000000 0.000000 -0.005047
# 3 -0.002146 -0.002146 0.011085 0.000000 0.000000 0.000000
# 4 0.000000 0.000000 0.000000 0.050462 0.000000 0.000000
# 5 0.000000 0.000000 0.000000 0.000000 0.050462 0.000000
# 6 0.005047 -0.005047 0.000000 0.000000 0.000000 0.034069
#
#
# Mechanical properties :
#
#
# Convention : Reuss Voigt Hill
#
# Bulk Modulus (GPa) = 27.09892 29.36429 28.23161
# Shear Modulus (GPa) = 25.13667 28.08848 26.61258
#
# Velocity S-wave (km/s) = 3.81373 4.03144 3.92410
# Velocity P-wave (km/s) = 5.92222 6.21778 6.07180
#
# Compressibility (1/GPa) = 0.03690183
#
# Stress axis : x y z
#
# Youngs Moduli (GPa) = 60.28591 60.28591 90.21313
#
# Poissons Ratio (x) = -0.03696 0.19361
# Poissons Ratio (y) = -0.03696 0.19361
# Poissons Ratio (z) = 0.12938 0.12938
#
# Static dielectric constant tensor:
#      x y z
#    x 1.584810 0.000000 0.000000 
#    y 0.000000 1.584810 0.000000 
#    z 0.000000 0.000000 1.580350 
# 
# From -- ./inp_files/6601.got.cif
#   From: 2010.05.17/outbox.cif.g08.bks.cpg/sg87_4_cif.got.tgz:6601.got - 2010.06.03 19:07:00.
