data_PCOD9546198
_publ_section_title
;
Structure prediction by ZEFSAII (Michael W. Deem and Ramdas Pophale) SiO2 
 PCOD9546198
Probable space group: I 41/A
;
_chemical_formula_sum "Si O2"
_cell_formula_units_Z 80
_cell_length_a 17.069364
_cell_length_b 17.069364
_cell_length_c 13.169955
_cell_angle_alpha 90.000000
_cell_angle_beta 90.000000
_cell_angle_gamma 90.000000
_cell_volume 3837.240066
_symmetry_space_group_name_H-M "I 41/A"
_symmetry_group_IT_number 88
_space_group.IT_coordinate_system_code '2'
_symmetry_cell_setting 'tetragonal'
loop_
_space_group_symop_operation_xyz
x,y,z
3/4-y,1/4+x,1/4+z
-x,1/2-y,z
1/4+y,1/4-x,1/4+z
-x,-y,-z
1/4+y,3/4-x,3/4-z
x,1/2+y,-z
3/4-y,3/4+x,3/4-z
1/2+x,1/2+y,1/2+z
1/4-y,3/4+x,3/4+z
1/2-x,-y,1/2+z
3/4+y,3/4-x,3/4+z
1/2-x,1/2-y,1/2-z
3/4+y,1/4-x,1/4-z
1/2+x,y,1/2-z
1/4-y,1/4+x,1/4-z
loop_
_atom_site_type_symbol
_atom_site_label
_atom_site_fract_x
_atom_site_fract_y
_atom_site_fract_z
Si Si1 0.196039 0.895177 0.289586
Si Si2 0.688553 0.863826 0.433437
Si Si3 0.522365 0.121566 0.362733
Si Si4 0.767967 0.611721 0.504953
Si Si5 0.729788 0.855089 0.769673
O O1 0.201248 0.852821 0.398746
O O2 0.140117 0.971537 0.298087
O O3 0.282997 0.930460 0.271574
O O4 0.175326 0.850603 0.186155
O O5 0.665847 0.791423 0.503945
O O6 0.637093 0.938566 0.472382
O O7 0.440194 0.163901 0.371133
O O8 0.538998 0.059885 0.451426
O O9 0.769082 0.659264 0.609466
O O10 0.680881 0.577456 0.492003
#
# Coordination Sequence:
#
# PCOD9546198 Si02
#       5
#    16  16  16  16  16
#     4   8  14  24  48  79 104 121 150 203 253 290
#     4  10  15  30  51  74  98 128 166 202 247 299
#     4  11  24  36  46  68 104 138 166 208 258 293
#     4   8  14  24  48  79 104 121 150 203 253 290
#     4  10  15  30  51  74  98 128 166 202 247 299
#
# _framework density 20.848317999999999
#
# number of rings (size 3 to 8) (size 9 to 14) (size 15 to 20)
#    0.000    2.600    4.000    2.400    0.000    0.800 
#    0.000    0.000    0.000   13.200    0.000    2.800 
#    0.000    0.000    0.000    0.000    0.000    0.000 
#
# Total GULP energy -223296.858400 kJ/mol
# GULP energy per Si atom -5582.421460 kJ/mol
# Density = 2.080087 g / cm^3
# Si number density = 20.848318 Si / 1000 Ang^3
#
#
#
# Elastic Constant Matrix: (Units=GPa)
#
#
# Indices 1 2 3 4 5 6 
#
# 1 37.3512 17.5696 40.0150 0.0000 0.0000 -1.3331
# 2 17.5696 37.3512 40.0150 0.0000 0.0000 1.3331
# 3 40.0150 40.0150 224.6880 0.0000 0.0000 0.0000
# 4 0.0000 0.0000 0.0000 30.7670 0.0000 0.0000
# 5 0.0000 0.0000 0.0000 0.0000 30.7670 0.0000
# 6 -1.3331 1.3331 0.0000 0.0000 0.0000 22.2268
#
#
#
# Elastic Compliance Matrix: (Units=1/GPa)
#
#
# Indices 1 2 3 4 5 6 
#
# 1 0.037777 -0.013187 -0.004379 0.000000 0.000000 0.003057
# 2 -0.013187 0.037777 -0.004379 0.000000 0.000000 -0.003057
# 3 -0.004379 -0.004379 0.006010 0.000000 0.000000 0.000000
# 4 0.000000 0.000000 0.000000 0.032502 0.000000 0.000000
# 5 0.000000 0.000000 0.000000 0.000000 0.032502 0.000000
# 6 0.003057 -0.003057 0.000000 0.000000 0.000000 0.045357
#
#
# Mechanical properties :
#
#
# Convention : Reuss Voigt Hill
#
# Bulk Modulus (GPa) = 26.54462 54.95439 40.74951
# Shear Modulus (GPa) = 20.13087 30.20488 25.16787
#
# Velocity S-wave (km/s) = 3.11076 3.81043 3.47823
# Velocity P-wave (km/s) = 5.06580 6.76576 5.97653
#
# Compressibility (1/GPa) = 0.03767242
#
# Stress axis : x y z
#
# Youngs Moduli (GPa) = 26.47135 26.47135 166.37849
#
# Poissons Ratio (x) = 0.34909 0.72860
# Poissons Ratio (y) = 0.34909 0.72860
# Poissons Ratio (z) = 0.11592 0.11592
#
# Static dielectric constant tensor:
#      x y z
#    x 1.752010 0.000000 0.000000 
#    y 0.000000 1.752010 0.000000 
#    z 0.000000 0.000000 1.790290 
# 
# From -- ./inp_files/3273.got.cif
#   From: 2010.05.17/outbox.cif.g08.bks.cpg/sg88_2_cif.got.tgz:3273.got - 2010.06.03 19:11:41.
