data_PCOD9546601
_publ_section_title
;
Structure prediction by ZEFSAII (Michael W. Deem and Ramdas Pophale) SiO2 
 PCOD9546601
Probable space group: I 41/A
;
_chemical_formula_sum "Si O2"
_cell_formula_units_Z 72
_cell_length_a 9.875388
_cell_length_b 9.875388
_cell_length_c 28.030241
_cell_angle_alpha 90.000000
_cell_angle_beta 90.000000
_cell_angle_gamma 90.000000
_cell_volume 2733.601270
_symmetry_space_group_name_H-M "I 41/A"
_symmetry_group_IT_number 88
_space_group.IT_coordinate_system_code '2'
_symmetry_cell_setting 'tetragonal'
loop_
_space_group_symop_operation_xyz
x,y,z
3/4-y,1/4+x,1/4+z
-x,1/2-y,z
1/4+y,1/4-x,1/4+z
-x,-y,-z
1/4+y,3/4-x,3/4-z
x,1/2+y,-z
3/4-y,3/4+x,3/4-z
1/2+x,1/2+y,1/2+z
1/4-y,3/4+x,3/4+z
1/2-x,-y,1/2+z
3/4+y,3/4-x,3/4+z
1/2-x,1/2-y,1/2-z
3/4+y,1/4-x,1/4-z
1/2+x,y,1/2-z
1/4-y,1/4+x,1/4-z
loop_
_atom_site_type_symbol
_atom_site_label
_atom_site_fract_x
_atom_site_fract_y
_atom_site_fract_z
Si Si1 0.322395 0.540256 0.841955
Si Si2 0.000000 0.250000 0.870670
Si Si3 0.775739 0.567974 0.304926
Si Si4 0.022569 0.091323 0.046775
Si Si5 0.892750 0.399515 0.462371
O O1 0.457388 0.628369 0.845357
O O2 0.333792 0.447434 0.889106
O O3 0.211185 0.662046 0.835573
O O4 0.283581 0.442038 0.799727
O O5 0.053914 0.366831 0.834443
O O6 0.694515 0.428112 0.306552
O O7 0.685227 0.698596 0.289827
O O8 0.890719 0.583388 0.263944
O O9 0.000000 0.250000 0.038982
O O10 0.000000 0.000000 0.000000
#
# Coordination Sequence:
#
# PCOD9546601 Si02
#       5
#    16   8  16  16  16
#     4  11  24  45  74 111 149 197 264 318 397 463
#     4  10  24  44  78 108 157 209 254 346 390 482
#     4  10  24  45  72 106 150 199 254 322 384 478
#     4  12  28  45  74 111 150 200 257 324 391 468
#     4  10  22  46  72 108 149 206 252 316 401 472
#
# _framework density 26.338882999999999
#
# number of rings (size 3 to 8) (size 9 to 14) (size 15 to 20)
#    0.000    1.333    2.222    1.333   10.889    0.000 
#    0.000   15.556    0.000   16.667    0.000    0.000 
#    0.000    0.000    0.000    0.000    0.000    0.000 
#
# Total GULP energy -200794.509911 kJ/mol
# GULP energy per Si atom -5577.625275 kJ/mol
# Density = 2.627893 g / cm^3
# Si number density = 26.338883 Si / 1000 Ang^3
#
#
#
# Elastic Constant Matrix: (Units=GPa)
#
#
# Indices 1 2 3 4 5 6 
#
# 1 122.2726 19.4309 25.3689 0.0000 0.0000 -6.9620
# 2 19.4309 122.2726 25.3689 0.0000 0.0000 6.9620
# 3 25.3689 25.3689 117.8377 0.0000 0.0000 0.0000
# 4 0.0000 0.0000 0.0000 43.9134 0.0000 0.0000
# 5 0.0000 0.0000 0.0000 0.0000 43.9134 0.0000
# 6 -6.9620 6.9620 0.0000 0.0000 0.0000 31.8492
#
#
#
# Elastic Compliance Matrix: (Units=1/GPa)
#
#
# Indices 1 2 3 4 5 6 
#
# 1 0.008833 -0.001187 -0.001646 0.000000 0.000000 0.002190
# 2 -0.001187 0.008833 -0.001646 0.000000 0.000000 -0.002190
# 3 -0.001646 -0.001646 0.009195 0.000000 0.000000 0.000000
# 4 0.000000 0.000000 0.000000 0.022772 0.000000 0.000000
# 5 0.000000 0.000000 0.000000 0.000000 0.022772 0.000000
# 6 0.002190 -0.002190 0.000000 0.000000 0.000000 0.032355
#
#
# Mechanical properties :
#
#
# Convention : Reuss Voigt Hill
#
# Bulk Modulus (GPa) = 55.85597 55.85779 55.85688
# Shear Modulus (GPa) = 41.77543 43.41617 42.59580
#
# Velocity S-wave (km/s) = 3.98688 4.06441 4.02583
# Velocity P-wave (km/s) = 6.51508 6.57870 6.54697
#
# Compressibility (1/GPa) = 0.01790319
#
# Stress axis : x y z
#
# Youngs Moduli (GPa) = 113.20766 113.20766 108.75420
#
# Poissons Ratio (x) = 0.13437 0.17903
# Poissons Ratio (y) = 0.13437 0.17903
# Poissons Ratio (z) = 0.18636 0.18636
#
# Static dielectric constant tensor:
#      x y z
#    x 2.143760 0.000000 0.000000 
#    y 0.000000 2.143760 0.000000 
#    z 0.000000 0.000000 2.182250 
# 
# From -- ./inp_files/6211.got.cif
#   From: 2010.05.17/outbox.cif.g08.bks.cpg/sg88_4_cif.got.tgz:6211.got - 2010.06.03 19:11:41.
