data_PCOD9546404
_publ_section_title
;
Structure prediction by ZEFSAII (Michael W. Deem and Ramdas Pophale) SiO2 
 PCOD9546404
Probable space group: I 41/A
;
_chemical_formula_sum "Si O2"
_cell_formula_units_Z 80
_cell_length_a 13.846101
_cell_length_b 13.846101
_cell_length_c 18.758968
_cell_angle_alpha 90.000000
_cell_angle_beta 90.000000
_cell_angle_gamma 90.000000
_cell_volume 3596.366413
_symmetry_space_group_name_H-M "I 41/A"
_symmetry_group_IT_number 88
_space_group.IT_coordinate_system_code '2'
_symmetry_cell_setting 'tetragonal'
loop_
_space_group_symop_operation_xyz
x,y,z
3/4-y,1/4+x,1/4+z
-x,1/2-y,z
1/4+y,1/4-x,1/4+z
-x,-y,-z
1/4+y,3/4-x,3/4-z
x,1/2+y,-z
3/4-y,3/4+x,3/4-z
1/2+x,1/2+y,1/2+z
1/4-y,3/4+x,3/4+z
1/2-x,-y,1/2+z
3/4+y,3/4-x,3/4+z
1/2-x,1/2-y,1/2-z
3/4+y,1/4-x,1/4-z
1/2+x,y,1/2-z
1/4-y,1/4+x,1/4-z
loop_
_atom_site_type_symbol
_atom_site_label
_atom_site_fract_x
_atom_site_fract_y
_atom_site_fract_z
Si Si1 0.997587 0.559283 0.797844
Si Si2 0.703893 0.580579 0.430926
Si Si3 0.105009 0.653130 0.340445
Si Si4 0.546123 0.650720 0.318318
Si Si5 0.067917 0.421640 0.041372
O O1 0.067674 0.642546 0.766040
O O2 0.902818 0.553809 0.748036
O O3 0.022396 0.443638 0.805224
O O4 0.975686 0.588998 0.879442
O O5 0.811554 0.577949 0.401173
O O6 0.628289 0.616367 0.372219
O O7 0.669585 0.476252 0.452936
O O8 0.129857 0.749009 0.382837
O O9 0.094041 0.676427 0.257476
O O10 0.500000 0.750000 0.344829
O O11 0.000000 0.500000 0.000000
#
# Coordination Sequence:
#
# PCOD9546404 Si02
#       5
#    16  16  16  16  16
#     4  10  24  43  63  99 131 175 227 283 342 412
#     4  10  24  40  63  97 127 171 233 273 333 420
#     4  10  20  42  61  90 133 171 210 276 340 397
#     4  10  21  41  63  92 129 168 221 272 336 405
#     4  11  24  44  68  94 138 180 224 291 350 409
#
# _framework density 22.244675000000001
#
# number of rings (size 3 to 8) (size 9 to 14) (size 15 to 20)
#    0.000    1.800    2.000    1.200    5.600    4.400 
#   25.200    0.000    0.000    0.000    0.000    0.000 
#    0.000    0.000    0.000    0.000    0.000    0.000 
#
# Total GULP energy -223062.303110 kJ/mol
# GULP energy per Si atom -5576.557578 kJ/mol
# Density = 2.219405 g / cm^3
# Si number density = 22.244675 Si / 1000 Ang^3
#
#
#
# Elastic Constant Matrix: (Units=GPa)
#
#
# Indices 1 2 3 4 5 6 
#
# 1 42.7616 20.7933 -8.1156 0.0000 0.0000 9.9644
# 2 20.7933 42.7616 -8.1156 0.0000 0.0000 -9.9644
# 3 -8.1156 -8.1156 82.6781 0.0000 0.0000 0.0000
# 4 0.0000 0.0000 0.0000 13.3232 0.0000 0.0000
# 5 0.0000 0.0000 0.0000 0.0000 13.3232 0.0000
# 6 9.9644 -9.9644 0.0000 0.0000 0.0000 46.2094
#
#
#
# Elastic Compliance Matrix: (Units=1/GPa)
#
#
# Indices 1 2 3 4 5 6 
#
# 1 0.036364 -0.020225 0.001584 0.000000 0.000000 -0.012203
# 2 -0.020225 0.036364 0.001584 0.000000 0.000000 0.012203
# 3 0.001584 0.001584 0.012406 0.000000 0.000000 0.000000
# 4 0.000000 0.000000 0.000000 0.075057 0.000000 0.000000
# 5 0.000000 0.000000 0.000000 0.000000 0.075057 0.000000
# 6 -0.012203 0.012203 0.000000 0.000000 0.000000 0.026903
#
#
# Mechanical properties :
#
#
# Convention : Reuss Voigt Hill
#
# Bulk Modulus (GPa) = 19.59983 19.70284 19.65134
# Shear Modulus (GPa) = 15.96052 25.48046 20.72049
#
# Velocity S-wave (km/s) = 2.68152 3.38814 3.05533
# Velocity P-wave (km/s) = 4.29157 4.91758 4.61520
#
# Compressibility (1/GPa) = 0.05102086
#
# Stress axis : x y z
#
# Youngs Moduli (GPa) = 27.49941 27.49941 80.60546
#
# Poissons Ratio (x) = 0.55619 -0.12769
# Poissons Ratio (y) = 0.55619 -0.12769
# Poissons Ratio (z) = -0.04356 -0.04356
#
# Static dielectric constant tensor:
#      x y z
#    x 1.861480 0.000000 0.000000 
#    y 0.000000 1.861480 0.000000 
#    z 0.000000 0.000000 1.813390 
# 
# From -- ./inp_files/4533.got.cif
#   From: 2010.05.17/outbox.cif.g08.bks.cpg/sg88_3_cif.got.tgz:4533.got - 2010.06.03 19:11:41.
