data_PCOD9546927
_publ_section_title
;
Structure prediction by ZEFSAII (Michael W. Deem and Ramdas Pophale) SiO2 
 PCOD9546927
Probable space group: P 4 2 2
;
_chemical_formula_sum "Si O2"
_cell_formula_units_Z 48
_cell_length_a 17.263852
_cell_length_b 17.263852
_cell_length_c 9.351153
_cell_angle_alpha 90.000000
_cell_angle_beta 90.000000
_cell_angle_gamma 90.000000
_cell_volume 2787.023119
_symmetry_space_group_name_H-M "P 4 2 2"
_symmetry_group_IT_number 89
_symmetry_cell_setting 'tetragonal'
loop_
_space_group_symop_operation_xyz
x,y,z
-y,x,z
-x,-y,z
y,-x,z
x,-y,-z
-x,y,-z
y,x,-z
-y,-x,-z
loop_
_atom_site_type_symbol
_atom_site_label
_atom_site_fract_x
_atom_site_fract_y
_atom_site_fract_z
Si Si1 0.989428 0.592542 0.335052
Si Si2 0.642700 0.131611 0.858881
Si Si3 0.735894 0.226566 0.646421
Si Si4 0.511062 0.734921 0.155993
Si Si5 0.831392 0.642647 0.191030
Si Si6 0.685672 0.577152 0.577155
O O1 0.050564 0.619819 0.213817
O O2 0.000000 0.500000 0.338297
O O3 0.000000 0.620053 0.500000
O O4 0.904965 0.618311 0.284412
O O5 0.712654 0.160583 0.758208
O O6 0.570771 0.192237 0.844691
O O7 0.658775 0.138079 0.028955
O O8 0.784189 0.215812 0.500000
O O9 0.783259 0.288026 0.739951
O O10 0.651175 0.257219 0.589854
O O11 0.428925 0.771614 0.195099
O O12 0.547087 0.673718 0.263402
O O13 0.500000 0.701834 0.000000
O O14 0.718047 0.500000 0.500000
O O15 0.610161 0.610161 0.500000
#
# Coordination Sequence:
#
# PCOD9546927 Si02
#       6
#     8   8   8   8   8   8
#     4  11  22  34  52  81 112 143 178 227 284 343
#     4  10  20  34  51  77 107 141 180 224 274 338
#     4  10  20  34  52  75 103 138 182 228 274 334
#     4   9  18  31  50  73  99 129 171 223 276 331
#     4  11  20  34  54  75 106 144 181 223 279 341
#     4  10  20  34  50  70  95 130 178 232 285 333
#
# _framework density 17.222676
#
# number of rings (size 3 to 8) (size 9 to 14) (size 15 to 20)
#    0.000    1.833    1.667    4.000    0.000    2.167 
#    0.000    2.500    0.000    0.000    0.000   11.667 
#    0.000    0.667    0.000    6.667    0.000    4.000 
#
# Total GULP energy -267264.471413 kJ/mol
# GULP energy per Si atom -5568.009821 kJ/mol
# Density = 1.718348 g / cm^3
# Si number density = 17.222676 Si / 1000 Ang^3
#
#
#
# Elastic Constant Matrix: (Units=GPa)
#
#
# Indices 1 2 3 4 5 6 
#
# 1 37.6357 22.0056 22.1300 0.0000 0.0000 0.0000
# 2 22.0056 37.6359 22.1301 0.0000 0.0000 0.0000
# 3 22.1300 22.1301 102.6719 0.0000 0.0000 0.0000
# 4 0.0000 0.0000 0.0000 -41.2718 0.0000 0.0000
# 5 0.0000 0.0000 0.0000 0.0000 -41.2245 0.0000
# 6 0.0000 0.0000 0.0000 0.0000 0.0000 6.0678
#
#
#
# Elastic Compliance Matrix: (Units=1/GPa)
#
#
# Indices 1 2 3 4 5 6 
#
# 1 0.041969 -0.022010 -0.004302 0.000000 0.000000 0.000000
# 2 -0.022010 0.041969 -0.004302 0.000000 0.000000 0.000000
# 3 -0.004302 -0.004302 0.011594 0.000000 0.000000 0.000000
# 4 0.000000 0.000000 0.000000 -0.024230 0.000000 0.000000
# 5 0.000000 0.000000 0.000000 0.000000 -0.024257 0.000000
# 6 0.000000 0.000000 0.000000 0.000000 0.000000 0.164804
#
#
# Mechanical properties :
#
#
# Convention : Reuss Voigt Hill
#
# Bulk Modulus (GPa) = 29.15036 34.49723 31.82380
# Shear Modulus (GPa) = 17.57397 -7.84051 4.86673
#
# Velocity S-wave (km/s) = 3.19783 -2.13596 1.68283
# Velocity P-wave (km/s) = 5.53147 3.74039 4.72163
#
# Compressibility (1/GPa) = 0.03430489
#
# Stress axis : x y z
#
# Youngs Moduli (GPa) = 23.82702 23.82709 86.24911
#
# Poissons Ratio (x) = 0.52443 0.37105
# Poissons Ratio (y) = 0.52442 0.37105
# Poissons Ratio (z) = 0.10251 0.10251
#
# Static dielectric constant tensor:
#      x y z
#    x 2.145960 0.000000 0.000000 
#    y 0.000000 2.145600 0.000000 
#    z 0.000000 0.000000 1.671310 
# 
# From -- ./inp_files/1185.got.cif
#   From: 2010.05.17/outbox.cif.g08.bks.cpg/sg89_1_cif.got.tgz:1185.got - 2010.06.03 19:15:31.
