data_PCOD9546422
_publ_section_title
;
Structure prediction by ZEFSAII (Michael W. Deem and Ramdas Pophale) SiO2 
 PCOD9546422
Probable space group: I 41/A
;
_chemical_formula_sum "Si O2"
_cell_formula_units_Z 80
_cell_length_a 10.278360
_cell_length_b 10.278360
_cell_length_c 33.143500
_cell_angle_alpha 90.000000
_cell_angle_beta 90.000000
_cell_angle_gamma 90.000000
_cell_volume 3501.434594
_symmetry_space_group_name_H-M "I 41/A"
_symmetry_group_IT_number 88
_space_group.IT_coordinate_system_code '2'
_symmetry_cell_setting 'tetragonal'
loop_
_space_group_symop_operation_xyz
x,y,z
3/4-y,1/4+x,1/4+z
-x,1/2-y,z
1/4+y,1/4-x,1/4+z
-x,-y,-z
1/4+y,3/4-x,3/4-z
x,1/2+y,-z
3/4-y,3/4+x,3/4-z
1/2+x,1/2+y,1/2+z
1/4-y,3/4+x,3/4+z
1/2-x,-y,1/2+z
3/4+y,3/4-x,3/4+z
1/2-x,1/2-y,1/2-z
3/4+y,1/4-x,1/4-z
1/2+x,y,1/2-z
1/4-y,1/4+x,1/4-z
loop_
_atom_site_type_symbol
_atom_site_label
_atom_site_fract_x
_atom_site_fract_y
_atom_site_fract_z
Si Si1 0.652873 0.251264 0.040659
Si Si2 0.712659 0.563767 0.223657
Si Si3 0.347897 0.706157 0.872504
Si Si4 0.847840 0.724869 0.713484
Si Si5 0.346454 0.631525 0.109613
O O1 0.500000 0.250000 0.047593
O O2 0.714358 0.249073 0.085283
O O3 0.688962 0.116483 0.018742
O O4 0.667453 0.378955 0.013609
O O5 0.659847 0.428092 0.208056
O O6 0.679139 0.646074 0.183349
O O7 0.500000 0.750000 0.871511
O O8 0.299945 0.771816 0.830632
O O9 0.338467 0.548369 0.872503
O O10 0.750000 0.750000 0.750000
O O11 0.000000 0.750000 0.722124
O O12 0.344674 0.789152 0.108963
#
# Coordination Sequence:
#
# PCOD9546422 Si02
#       5
#    16  16  16  16  16
#     4  11  23  39  61  92 138 172 215 271 330 401
#     4  11  24  39  63  98 127 171 227 267 341 402
#     4   9  20  39  59  86 125 172 209 263 332 397
#     4  10  21  43  68  90 124 165 217 275 332 398
#     4  10  21  35  60  89 126 168 224 266 325 397
#
# _framework density 22.847778000000002
#
# number of rings (size 3 to 8) (size 9 to 14) (size 15 to 20)
#    0.000    1.800    0.000    4.200    5.600    0.000 
#    7.200    0.000    0.000    0.000    0.000    0.000 
#    0.000    0.000    0.000    0.000    0.000    0.000 
#
# Total GULP energy -222748.654715 kJ/mol
# GULP energy per Si atom -5568.716368 kJ/mol
# Density = 2.279578 g / cm^3
# Si number density = 22.847778 Si / 1000 Ang^3
#
#
#
# Elastic Constant Matrix: (Units=GPa)
#
#
# Indices 1 2 3 4 5 6 
#
# 1 81.8354 5.3967 30.3821 0.0000 0.0000 -1.6096
# 2 5.3967 81.8354 30.3821 0.0000 0.0000 1.6096
# 3 30.3821 30.3821 163.2351 0.0000 0.0000 0.0000
# 4 0.0000 0.0000 0.0000 38.3106 0.0000 0.0000
# 5 0.0000 0.0000 0.0000 0.0000 38.3106 0.0000
# 6 -1.6096 1.6096 0.0000 0.0000 0.0000 21.7258
#
#
#
# Elastic Compliance Matrix: (Units=1/GPa)
#
#
# Indices 1 2 3 4 5 6 
#
# 1 0.013147 0.000024 -0.002452 0.000000 0.000000 0.000972
# 2 0.000024 0.013147 -0.002452 0.000000 0.000000 -0.000972
# 3 -0.002452 -0.002452 0.007039 0.000000 0.000000 0.000000
# 4 0.000000 0.000000 0.000000 0.026102 0.000000 0.000000
# 5 0.000000 0.000000 0.000000 0.000000 0.026102 0.000000
# 6 0.000972 -0.000972 0.000000 0.000000 0.000000 0.046172
#
#
# Mechanical properties :
#
#
# Convention : Reuss Voigt Hill
#
# Bulk Modulus (GPa) = 42.41718 51.02528 46.72123
# Shear Modulus (GPa) = 33.48357 37.05240 35.26799
#
# Velocity S-wave (km/s) = 3.83235 4.03141 3.93314
# Velocity P-wave (km/s) = 6.17964 6.63708 6.41244
#
# Compressibility (1/GPa) = 0.02357535
#
# Stress axis : x y z
#
# Youngs Moduli (GPa) = 76.06100 76.06100 142.07150
#
# Poissons Ratio (x) = -0.00183 0.34829
# Poissons Ratio (y) = -0.00183 0.34829
# Poissons Ratio (z) = 0.18646 0.18646
#
# Static dielectric constant tensor:
#      x y z
#    x 1.855330 0.000000 0.000000 
#    y 0.000000 1.855330 0.000000 
#    z 0.000000 0.000000 1.502690 
# 
# From -- ./inp_files/6308.got.cif
#   From: 2010.05.17/outbox.cif.g08.bks.cpg/sg88_4_cif.got.tgz:6308.got - 2010.06.03 19:11:41.
