data_PCOD9546615
_publ_section_title
;
Structure prediction by ZEFSAII (Michael W. Deem and Ramdas Pophale) SiO2 
 PCOD9546615
Probable space group: I 41/A
;
_chemical_formula_sum "Si O2"
_cell_formula_units_Z 96
_cell_length_a 14.487305
_cell_length_b 14.487305
_cell_length_c 18.177534
_cell_angle_alpha 90.000000
_cell_angle_beta 90.000000
_cell_angle_gamma 90.000000
_cell_volume 3815.137303
_symmetry_space_group_name_H-M "I 41/A"
_symmetry_group_IT_number 88
_space_group.IT_coordinate_system_code '2'
_symmetry_cell_setting 'tetragonal'
loop_
_space_group_symop_operation_xyz
x,y,z
3/4-y,1/4+x,1/4+z
-x,1/2-y,z
1/4+y,1/4-x,1/4+z
-x,-y,-z
1/4+y,3/4-x,3/4-z
x,1/2+y,-z
3/4-y,3/4+x,3/4-z
1/2+x,1/2+y,1/2+z
1/4-y,3/4+x,3/4+z
1/2-x,-y,1/2+z
3/4+y,3/4-x,3/4+z
1/2-x,1/2-y,1/2-z
3/4+y,1/4-x,1/4-z
1/2+x,y,1/2-z
1/4-y,1/4+x,1/4-z
loop_
_atom_site_type_symbol
_atom_site_label
_atom_site_fract_x
_atom_site_fract_y
_atom_site_fract_z
Si Si1 0.083996 0.444408 0.964745
Si Si2 0.849674 0.018235 0.176053
Si Si3 0.257921 0.725702 0.362924
Si Si4 0.540441 0.042337 0.271543
Si Si5 0.566933 0.835142 0.313162
Si Si6 0.344535 0.959706 0.158522
O O1 0.055164 0.377203 0.896809
O O2 0.151284 0.524023 0.933129
O O3 0.142606 0.380476 0.022315
O O4 0.000000 0.500000 0.000000
O O5 0.955274 0.054246 0.172312
O O6 0.807674 0.948114 0.116844
O O7 0.849581 0.961700 0.253415
O O8 0.310692 0.748483 0.439798
O O9 0.335281 0.715394 0.302464
O O10 0.190409 0.810749 0.365036
O O11 0.219622 0.623502 0.366158
O O12 0.563160 0.932762 0.271016
O O13 0.500000 0.750000 0.298282
#
# Coordination Sequence:
#
# PCOD9546615 Si02
#       6
#    16  16  16  16  16  16
#     4  11  26  39  68 100 138 183 234 303 356 433
#     4  11  24  43  71  95 143 185 235 297 364 431
#     4  10  23  41  64  97 136 173 232 289 353 438
#     4  10  23  43  64 102 136 177 240 286 354 443
#     4  11  23  43  70  96 131 184 238 290 354 441
#     4  11  23  44  67 101 134 190 225 299 364 428
#
# _framework density 25.162921000000001
#
# number of rings (size 3 to 8) (size 9 to 14) (size 15 to 20)
#    0.000    1.333    3.333    2.000    9.333    1.000 
#    6.000    0.000    0.000    2.000    0.000    0.000 
#    0.000    0.000    0.000    0.000    0.000    0.000 
#
# Total GULP energy -268014.031704 kJ/mol
# GULP energy per Si atom -5583.625661 kJ/mol
# Density = 2.510565 g / cm^3
# Si number density = 25.162921 Si / 1000 Ang^3
#
#
#
# Elastic Constant Matrix: (Units=GPa)
#
#
# Indices 1 2 3 4 5 6 
#
# 1 122.4129 36.0212 -0.5170 0.0000 0.0000 -3.8770
# 2 36.0212 122.4129 -0.5170 0.0000 0.0000 3.8770
# 3 -0.5170 -0.5170 71.4116 0.0000 0.0000 0.0000
# 4 0.0000 0.0000 0.0000 29.0696 0.0000 0.0000
# 5 0.0000 0.0000 0.0000 0.0000 29.0695 0.0000
# 6 -3.8770 3.8770 0.0000 0.0000 0.0000 44.1384
#
#
#
# Elastic Compliance Matrix: (Units=1/GPa)
#
#
# Indices 1 2 3 4 5 6 
#
# 1 0.008990 -0.002678 0.000046 0.000000 0.000000 0.001025
# 2 -0.002678 0.008990 0.000046 0.000000 0.000000 -0.001025
# 3 0.000046 0.000046 0.014004 0.000000 0.000000 0.000000
# 4 0.000000 0.000000 0.000000 0.034400 0.000000 0.000000
# 5 0.000000 0.000000 0.000000 0.000000 0.034400 0.000000
# 6 0.001025 -0.001025 0.000000 0.000000 0.000000 0.022836
#
#
# Mechanical properties :
#
#
# Convention : Reuss Voigt Hill
#
# Bulk Modulus (GPa) = 37.29824 42.91244 40.10534
# Shear Modulus (GPa) = 36.30316 39.20552 37.75434
#
# Velocity S-wave (km/s) = 3.80244 3.95152 3.87770
# Velocity P-wave (km/s) = 5.84234 6.15712 6.00180
#
# Compressibility (1/GPa) = 0.02681091
#
# Stress axis : x y z
#
# Youngs Moduli (GPa) = 111.23946 111.23946 71.40818
#
# Poissons Ratio (x) = 0.29785 -0.00326
# Poissons Ratio (y) = 0.29785 -0.00326
# Poissons Ratio (z) = -0.00508 -0.00508
#
# Static dielectric constant tensor:
#      x y z
#    x 2.044490 0.000000 0.000000 
#    y 0.000000 2.044490 0.000000 
#    z 0.000000 0.000000 2.086190 
# 
# From -- ./inp_files/4708.got.cif
#   From: 2010.05.17/outbox.cif.g08.bks.cpg/sg88_3_cif.got.tgz:4708.got - 2010.06.03 19:11:41.
