data_PCOD9546790
_publ_section_title
;
Structure prediction by ZEFSAII (Michael W. Deem and Ramdas Pophale) SiO2 
 PCOD9546790
Probable space group: I 41/A
;
_chemical_formula_sum "Si O2"
_cell_formula_units_Z 48
_cell_length_a 7.788631
_cell_length_b 7.788631
_cell_length_c 27.784725
_cell_angle_alpha 90.000000
_cell_angle_beta 90.000000
_cell_angle_gamma 90.000000
_cell_volume 1685.498461
_symmetry_space_group_name_H-M "I 41/A"
_symmetry_group_IT_number 88
_space_group.IT_coordinate_system_code '2'
_symmetry_cell_setting 'tetragonal'
loop_
_space_group_symop_operation_xyz
x,y,z
3/4-y,1/4+x,1/4+z
-x,1/2-y,z
1/4+y,1/4-x,1/4+z
-x,-y,-z
1/4+y,3/4-x,3/4-z
x,1/2+y,-z
3/4-y,3/4+x,3/4-z
1/2+x,1/2+y,1/2+z
1/4-y,3/4+x,3/4+z
1/2-x,-y,1/2+z
3/4+y,3/4-x,3/4+z
1/2-x,1/2-y,1/2-z
3/4+y,1/4-x,1/4-z
1/2+x,y,1/2-z
1/4-y,1/4+x,1/4-z
loop_
_atom_site_type_symbol
_atom_site_label
_atom_site_fract_x
_atom_site_fract_y
_atom_site_fract_z
Si Si1 0.875046 0.475543 0.148269
Si Si2 0.193907 0.311402 0.932498
Si Si3 0.082254 0.565318 0.230439
O O1 0.777522 0.305405 0.131866
O O2 0.789694 0.643471 0.123957
O O3 0.942646 0.451243 0.202044
O O4 0.261870 0.486352 0.958171
O O5 0.000000 0.250000 0.943739
O O6 0.300258 0.168826 0.961889
O O7 0.000000 0.750000 0.218166
#
# Coordination Sequence:
#
# PCOD9546790 Si02
#       3
#    16  16  16
#     4   9  21  39  66  97 129 174 231 286 339 413
#     4  11  24  41  69  97 131 180 233 281 343 427
#     4  11  24  42  65  97 141 177 225 293 353 410
#
# _framework density 28.478224999999998
#
# number of rings (size 3 to 8) (size 9 to 14) (size 15 to 20)
#    0.000    1.667    0.000    3.000   14.000    0.000 
#    0.000    0.000    0.000    0.000    0.000    0.000 
#    0.000    0.000    0.000    0.000    0.000    0.000 
#
# Total GULP energy -134004.171641 kJ/mol
# GULP energy per Si atom -5583.507152 kJ/mol
# Density = 2.841341 g / cm^3
# Si number density = 28.478225 Si / 1000 Ang^3
#
#
#
# Elastic Constant Matrix: (Units=GPa)
#
#
# Indices 1 2 3 4 5 6 
#
# 1 137.3818 21.7525 19.9587 0.0000 0.0000 7.8713
# 2 21.7525 137.3818 19.9587 0.0000 0.0000 -7.8713
# 3 19.9587 19.9587 148.7490 0.0000 0.0000 0.0000
# 4 0.0000 0.0000 0.0000 23.0232 0.0000 0.0000
# 5 0.0000 0.0000 0.0000 0.0000 23.0232 0.0000
# 6 7.8713 -7.8713 0.0000 0.0000 0.0000 39.5169
#
#
#
# Elastic Compliance Matrix: (Units=1/GPa)
#
#
# Indices 1 2 3 4 5 6 
#
# 1 0.007696 -0.001193 -0.000873 0.000000 0.000000 -0.001771
# 2 -0.001193 0.007696 -0.000873 0.000000 0.000000 0.001771
# 3 -0.000873 -0.000873 0.006957 0.000000 0.000000 0.000000
# 4 0.000000 0.000000 0.000000 0.043434 0.000000 0.000000
# 5 0.000000 0.000000 0.000000 0.000000 0.043434 0.000000
# 6 -0.001771 0.001771 0.000000 0.000000 0.000000 0.026011
#
#
# Mechanical properties :
#
#
# Convention : Reuss Voigt Hill
#
# Bulk Modulus (GPa) = 60.70731 60.76136 60.73433
# Shear Modulus (GPa) = 34.10721 41.23551 37.67136
#
# Velocity S-wave (km/s) = 3.46448 3.80934 3.64100
# Velocity P-wave (km/s) = 6.11284 6.38205 6.24889
#
# Compressibility (1/GPa) = 0.01647248
#
# Stress axis : x y z
#
# Youngs Moduli (GPa) = 129.93544 129.93539 143.74254
#
# Poissons Ratio (x) = 0.15505 0.12542
# Poissons Ratio (y) = 0.15505 0.12542
# Poissons Ratio (z) = 0.11337 0.11337
#
# Static dielectric constant tensor:
#      x y z
#    x 2.334630 0.000000 0.000000 
#    y 0.000000 2.334630 0.000000 
#    z 0.000000 0.000000 2.190300 
# 
# From -- ./inp_files/6037.got.cif
#   From: 2010.05.17/outbox.cif.g08.bks.cpg/sg88_4_cif.got.tgz:6037.got - 2010.06.03 19:11:41.
