data_PCOD9546728
_publ_section_title
;
Structure prediction by ZEFSAII (Michael W. Deem and Ramdas Pophale) SiO2 
 PCOD9546728
Probable space group: I 41/A
;
_chemical_formula_sum "Si O2"
_cell_formula_units_Z 48
_cell_length_a 9.209090
_cell_length_b 9.209090
_cell_length_c 26.090507
_cell_angle_alpha 90.000000
_cell_angle_beta 90.000000
_cell_angle_gamma 90.000000
_cell_volume 2212.666462
_symmetry_space_group_name_H-M "I 41/A"
_symmetry_group_IT_number 88
_space_group.IT_coordinate_system_code '2'
_symmetry_cell_setting 'tetragonal'
loop_
_space_group_symop_operation_xyz
x,y,z
3/4-y,1/4+x,1/4+z
-x,1/2-y,z
1/4+y,1/4-x,1/4+z
-x,-y,-z
1/4+y,3/4-x,3/4-z
x,1/2+y,-z
3/4-y,3/4+x,3/4-z
1/2+x,1/2+y,1/2+z
1/4-y,3/4+x,3/4+z
1/2-x,-y,1/2+z
3/4+y,3/4-x,3/4+z
1/2-x,1/2-y,1/2-z
3/4+y,1/4-x,1/4-z
1/2+x,y,1/2-z
1/4-y,1/4+x,1/4-z
loop_
_atom_site_type_symbol
_atom_site_label
_atom_site_fract_x
_atom_site_fract_y
_atom_site_fract_z
Si Si1 0.216095 0.348257 0.612821
Si Si2 0.104854 0.132274 0.984092
Si Si3 0.799692 0.817625 0.903592
O O1 0.180089 0.178591 0.617974
O O2 0.265254 0.394497 0.555482
O O3 0.352618 0.398220 0.646637
O O4 0.000000 0.250000 0.958116
O O5 0.163398 0.199178 0.037049
O O6 0.000000 0.000000 0.000000
O O7 0.824950 0.670256 0.872201
#
# Coordination Sequence:
#
# PCOD9546728 Si02
#       3
#    16  16  16
#     4  11  26  43  63 101 150 189 223 287 362 426
#     4  12  22  41  72  99 133 185 237 291 345 409
#     4  11  21  41  68 103 130 175 245 293 338 407
#
# _framework density 21.693280999999999
#
# number of rings (size 3 to 8) (size 9 to 14) (size 15 to 20)
#    0.000    0.667    6.667    2.000    0.000    1.333 
#    0.000    3.333    0.000    0.000    0.000    0.000 
#    0.000    0.000    0.000    0.000    0.000    0.000 
#
# Total GULP energy -134100.549737 kJ/mol
# GULP energy per Si atom -5587.522906 kJ/mol
# Density = 2.164391 g / cm^3
# Si number density = 21.693281 Si / 1000 Ang^3
#
#
#
# Elastic Constant Matrix: (Units=GPa)
#
#
# Indices 1 2 3 4 5 6 
#
# 1 64.1411 30.0234 21.0036 0.0000 0.0000 -3.3681
# 2 30.0234 64.1411 21.0036 0.0000 0.0000 3.3681
# 3 21.0036 21.0036 114.5485 0.0000 0.0000 0.0000
# 4 0.0000 0.0000 0.0000 31.1783 0.0000 0.0000
# 5 0.0000 0.0000 0.0000 0.0000 31.1783 0.0000
# 6 -3.3681 3.3681 0.0000 0.0000 0.0000 51.1025
#
#
#
# Elastic Compliance Matrix: (Units=1/GPa)
#
#
# Indices 1 2 3 4 5 6 
#
# 1 0.020631 -0.009066 -0.002121 0.000000 0.000000 0.001957
# 2 -0.009066 0.020631 -0.002121 0.000000 0.000000 -0.001957
# 3 -0.002121 -0.002121 0.009508 0.000000 0.000000 0.000000
# 4 0.000000 0.000000 0.000000 0.032074 0.000000 0.000000
# 5 0.000000 0.000000 0.000000 0.000000 0.032074 0.000000
# 6 0.001957 -0.001957 0.000000 0.000000 0.000000 0.019827
#
#
# Mechanical properties :
#
#
# Convention : Reuss Voigt Hill
#
# Bulk Modulus (GPa) = 41.39695 42.98799 42.19247
# Shear Modulus (GPa) = 29.51421 34.07846 31.79633
#
# Velocity S-wave (km/s) = 3.69253 3.96779 3.83263
# Velocity P-wave (km/s) = 6.10770 6.39143 6.25117
#
# Compressibility (1/GPa) = 0.02415637
#
# Stress axis : x y z
#
# Youngs Moduli (GPa) = 48.47009 48.47009 105.17865
#
# Poissons Ratio (x) = 0.43941 0.22305
# Poissons Ratio (y) = 0.43941 0.22305
# Poissons Ratio (z) = 0.10279 0.10279
#
# Static dielectric constant tensor:
#      x y z
#    x 1.822590 0.000000 0.000000 
#    y 0.000000 1.822590 0.000000 
#    z 0.000000 0.000000 1.802320 
# 
# From -- ./inp_files/6032.got.cif
#   From: 2010.05.17/outbox.cif.g08.bks.cpg/sg88_4_cif.got.tgz:6032.got - 2010.06.03 19:11:41.
