data_PCOD9546914
_publ_section_title
;
Structure prediction by ZEFSAII (Michael W. Deem and Ramdas Pophale) SiO2 
 PCOD9546914
Probable space group: P 4 2 2
;
_chemical_formula_sum "Si O2"
_cell_formula_units_Z 56
_cell_length_a 11.981739
_cell_length_b 11.981739
_cell_length_c 22.916777
_cell_angle_alpha 90.000000
_cell_angle_beta 90.000000
_cell_angle_gamma 90.000000
_cell_volume 3289.979932
_symmetry_space_group_name_H-M "P 4 2 2"
_symmetry_group_IT_number 89
_symmetry_cell_setting 'tetragonal'
loop_
_space_group_symop_operation_xyz
x,y,z
-y,x,z
-x,-y,z
y,-x,z
x,-y,-z
-x,y,-z
y,x,-z
-y,-x,-z
loop_
_atom_site_type_symbol
_atom_site_label
_atom_site_fract_x
_atom_site_fract_y
_atom_site_fract_z
Si Si1 0.634099 0.634099 0.500000
Si Si2 0.826589 0.960383 0.754078
Si Si3 0.608553 0.653963 0.839999
Si Si4 0.276559 0.989146 0.874124
Si Si5 0.341750 0.604495 0.625280
Si Si6 0.500000 0.000000 0.203422
Si Si7 0.750764 0.780906 0.931892
Si Si8 0.818180 0.622604 0.265578
O O1 0.500000 0.649406 0.500000
O O2 0.658489 0.690377 0.562291
O O3 0.809961 0.972315 0.823820
O O4 0.712037 0.916685 0.729066
O O5 0.919313 0.870745 0.736695
O O6 0.473872 0.649619 0.836299
O O7 0.656512 0.709932 0.898232
O O8 0.650072 0.732672 0.787218
O O9 0.275066 0.088763 0.920730
O O10 0.393461 0.986455 0.838938
O O11 0.248917 0.870082 0.902204
O O12 0.353482 0.469577 0.629763
O O13 0.255776 0.627391 0.676736
O O14 0.515337 0.110961 0.243307
O O15 0.755137 0.755137 0.000000
#
# Coordination Sequence:
#
# PCOD9546914 Si02
#       8
#     4   8   8   8   8   4   8   8
#     4   7  12  26  46  74 114 153 182 216 252 301
#     4  10  19  34  55  75 100 134 172 222 281 332
#     4  11  23  40  57  76 108 145 179 223 280 350
#     4  11  21  41  57  79 105 136 179 234 289 351
#     4   9  17  29  50  82 118 151 186 219 260 320
#     4  10  22  38  57  78 113 148 176 234 300 348
#     4  12  25  40  59  82 102 136 183 234 292 352
#     4  11  20  34  55  84 109 144 182 231 280 341
#
# _framework density 17.021380000000001
#
# number of rings (size 3 to 8) (size 9 to 14) (size 15 to 20)
#    0.000    1.643    4.286    3.000    0.000    5.429 
#    0.000    2.143    0.000    0.000    0.000   11.500 
#    0.000    1.143    0.000    0.000    0.000    0.000 
#
# Total GULP energy -311751.047372 kJ/mol
# GULP energy per Si atom -5566.982989 kJ/mol
# Density = 1.698264 g / cm^3
# Si number density = 17.021380 Si / 1000 Ang^3
#
#
#
# Elastic Constant Matrix: (Units=GPa)
#
#
# Indices 1 2 3 4 5 6 
#
# 1 45.2689 43.5279 28.2971 0.0000 0.0000 0.0000
# 2 43.5279 45.2689 28.2971 0.0000 0.0000 0.0000
# 3 28.2971 28.2971 121.7791 0.0000 0.0000 0.0000
# 4 0.0000 0.0000 0.0000 22.7184 0.0000 0.0000
# 5 0.0000 0.0000 0.0000 0.0000 22.7184 0.0000
# 6 0.0000 0.0000 0.0000 0.0000 0.0000 -15.6286
#
#
#
# Elastic Compliance Matrix: (Units=1/GPa)
#
#
# Indices 1 2 3 4 5 6 
#
# 1 0.293809 -0.280589 -0.003072 0.000000 0.000000 0.000000
# 2 -0.280589 0.293809 -0.003072 0.000000 0.000000 0.000000
# 3 -0.003072 -0.003072 0.009639 0.000000 0.000000 0.000000
# 4 0.000000 0.000000 0.000000 0.044017 0.000000 0.000000
# 5 0.000000 0.000000 0.000000 0.000000 0.044017 0.000000
# 6 0.000000 0.000000 0.000000 0.000000 0.000000 -0.063985
#
#
# Mechanical properties :
#
#
# Convention : Reuss Voigt Hill
#
# Bulk Modulus (GPa) = 42.03258 45.84009 43.93634
# Shear Modulus (GPa) = 4.15731 13.44128 8.79930
#
# Velocity S-wave (km/s) = 1.56451 2.81316 2.27613
# Velocity P-wave (km/s) = 5.29256 6.12708 5.72505
#
# Compressibility (1/GPa) = 0.02379107
#
# Stress axis : x y z
#
# Youngs Moduli (GPa) = 3.40357 3.40357 103.74409
#
# Poissons Ratio (x) = 0.95501 0.31867
# Poissons Ratio (y) = 0.95501 0.31867
# Poissons Ratio (z) = 0.01045 0.01045
#
# Static dielectric constant tensor:
#      x y z
#    x 1.594760 0.000000 0.000000 
#    y 0.000000 1.594760 0.000000 
#    z 0.000000 0.000000 1.601620 
# 
# From -- ./inp_files/2789.got.cif
#   From: 2010.05.17/outbox.cif.g08.bks.cpg/sg89_2_cif.got.tgz:2789.got - 2010.06.03 19:15:31.
