data_PCOD9546650
_publ_section_title
;
Structure prediction by ZEFSAII (Michael W. Deem and Ramdas Pophale) SiO2 
 PCOD9546650
Probable space group: I 41/A
;
_chemical_formula_sum "Si O2"
_cell_formula_units_Z 96
_cell_length_a 15.266480
_cell_length_b 15.266480
_cell_length_c 16.815990
_cell_angle_alpha 90.000000
_cell_angle_beta 90.000000
_cell_angle_gamma 90.000000
_cell_volume 3919.225631
_symmetry_space_group_name_H-M "I 41/A"
_symmetry_group_IT_number 88
_space_group.IT_coordinate_system_code '2'
_symmetry_cell_setting 'tetragonal'
loop_
_space_group_symop_operation_xyz
x,y,z
3/4-y,1/4+x,1/4+z
-x,1/2-y,z
1/4+y,1/4-x,1/4+z
-x,-y,-z
1/4+y,3/4-x,3/4-z
x,1/2+y,-z
3/4-y,3/4+x,3/4-z
1/2+x,1/2+y,1/2+z
1/4-y,3/4+x,3/4+z
1/2-x,-y,1/2+z
3/4+y,3/4-x,3/4+z
1/2-x,1/2-y,1/2-z
3/4+y,1/4-x,1/4-z
1/2+x,y,1/2-z
1/4-y,1/4+x,1/4-z
loop_
_atom_site_type_symbol
_atom_site_label
_atom_site_fract_x
_atom_site_fract_y
_atom_site_fract_z
Si Si1 0.452737 0.162751 0.773069
Si Si2 0.152973 0.513159 0.465347
Si Si3 0.608188 0.542974 0.203922
Si Si4 0.463256 0.658959 0.416450
Si Si5 0.542317 0.488710 0.371430
Si Si6 0.368588 0.429742 0.279777
O O1 0.500000 0.250000 0.798177
O O2 0.350264 0.155545 0.786536
O O3 0.511661 0.083864 0.807329
O O4 0.461770 0.161279 0.678374
O O5 0.133360 0.431487 0.522883
O O6 0.144388 0.489325 0.371461
O O7 0.244204 0.552204 0.501319
O O8 0.598936 0.497378 0.289946
O O9 0.500000 0.750000 0.449250
O O10 0.525475 0.574636 0.426021
O O11 0.365452 0.651564 0.449086
O O12 0.446343 0.463329 0.336948
O O13 0.597562 0.423224 0.424668
#
# Coordination Sequence:
#
# PCOD9546650 Si02
#       6
#    16  16  16  16  16  16
#     4  10  24  46  68 103 147 190 252 320 377 448
#     4  12  25  46  74 105 145 199 251 312 388 456
#     4  11  26  45  73 105 146 194 252 314 382 462
#     4  10  23  46  71 104 145 196 249 311 380 457
#     4  11  27  48  72 116 151 200 254 329 384 465
#     4  12  26  46  78 105 156 194 265 310 398 458
#
# _framework density 24.494634000000001
#
# number of rings (size 3 to 8) (size 9 to 14) (size 15 to 20)
#    0.000    1.000    3.333    2.500    7.000    6.000 
#    0.000    0.000    0.000    0.000    0.000    0.000 
#    0.000    0.000    0.000    0.000    0.000    0.000 
#
# Total GULP energy -268005.585556 kJ/mol
# GULP energy per Si atom -5583.449699 kJ/mol
# Density = 2.443888 g / cm^3
# Si number density = 24.494634 Si / 1000 Ang^3
#
#
#
# Elastic Constant Matrix: (Units=GPa)
#
#
# Indices 1 2 3 4 5 6 
#
# 1 92.0337 25.1685 4.8545 0.0000 0.0000 6.1802
# 2 25.1685 92.0337 4.8545 0.0000 0.0000 -6.1802
# 3 4.8545 4.8545 33.5334 0.0000 0.0000 0.0000
# 4 0.0000 0.0000 0.0000 27.3553 0.0000 0.0000
# 5 0.0000 0.0000 0.0000 0.0000 27.3553 0.0000
# 6 6.1802 -6.1802 0.0000 0.0000 0.0000 20.2282
#
#
#
# Elastic Compliance Matrix: (Units=1/GPa)
#
#
# Indices 1 2 3 4 5 6 
#
# 1 0.012243 -0.003607 -0.001250 0.000000 0.000000 -0.004843
# 2 -0.003607 0.012243 -0.001250 0.000000 0.000000 0.004843
# 3 -0.001250 -0.001250 0.030183 0.000000 0.000000 0.000000
# 4 0.000000 0.000000 0.000000 0.036556 0.000000 0.000000
# 5 0.000000 0.000000 0.000000 0.000000 0.036556 0.000000
# 6 -0.004843 0.004843 0.000000 0.000000 0.000000 0.052395
#
#
# Mechanical properties :
#
#
# Convention : Reuss Voigt Hill
#
# Bulk Modulus (GPa) = 23.55495 31.92843 27.74169
# Shear Modulus (GPa) = 24.20799 27.16932 25.68866
#
# Velocity S-wave (km/s) = 3.14713 3.33407 3.24195
# Velocity P-wave (km/s) = 4.77945 5.28058 5.03625
#
# Compressibility (1/GPa) = 0.04245392
#
# Stress axis : x y z
#
# Youngs Moduli (GPa) = 81.67767 81.67767 33.13126
#
# Poissons Ratio (x) = 0.29465 0.04142
# Poissons Ratio (y) = 0.29465 0.04142
# Poissons Ratio (z) = 0.10211 0.10211
#
# Static dielectric constant tensor:
#      x y z
#    x 2.208440 0.000000 0.000000 
#    y 0.000000 2.208440 0.000000 
#    z 0.000000 0.000000 1.975610 
# 
# From -- ./inp_files/4680.got.cif
#   From: 2010.05.17/outbox.cif.g08.bks.cpg/sg88_3_cif.got.tgz:4680.got - 2010.06.03 19:11:41.
