data_PCOD9546666
_publ_section_title
;
Structure prediction by ZEFSAII (Michael W. Deem and Ramdas Pophale) SiO2 
 PCOD9546666
Probable space group: I 41/A
;
_chemical_formula_sum "Si O2"
_cell_formula_units_Z 108
_cell_length_a 13.704660
_cell_length_b 13.704660
_cell_length_c 25.890451
_cell_angle_alpha 90.000000
_cell_angle_beta 90.000000
_cell_angle_gamma 90.000000
_cell_volume 4862.685107
_symmetry_space_group_name_H-M "I 41/A"
_symmetry_group_IT_number 88
_space_group.IT_coordinate_system_code '2'
_symmetry_cell_setting 'tetragonal'
loop_
_space_group_symop_operation_xyz
x,y,z
3/4-y,1/4+x,1/4+z
-x,1/2-y,z
1/4+y,1/4-x,1/4+z
-x,-y,-z
1/4+y,3/4-x,3/4-z
x,1/2+y,-z
3/4-y,3/4+x,3/4-z
1/2+x,1/2+y,1/2+z
1/4-y,3/4+x,3/4+z
1/2-x,-y,1/2+z
3/4+y,3/4-x,3/4+z
1/2-x,1/2-y,1/2-z
3/4+y,1/4-x,1/4-z
1/2+x,y,1/2-z
1/4-y,1/4+x,1/4-z
loop_
_atom_site_type_symbol
_atom_site_label
_atom_site_fract_x
_atom_site_fract_y
_atom_site_fract_z
Si Si1 0.789684 0.122192 0.396089
Si Si2 0.883015 0.331835 0.386410
Si Si3 0.702477 0.017117 0.303309
Si Si4 0.416403 0.393788 0.451172
Si Si5 0.401781 0.061584 0.010235
Si Si6 0.500000 0.250000 0.375000
Si Si7 0.580928 0.876450 0.474172
Si Si8 0.500000 0.750000 0.274728
O O1 0.841288 0.223846 0.387182
O O2 0.692674 0.132862 0.432570
O O3 0.863007 0.057685 0.430675
O O4 0.767532 0.086226 0.338655
O O5 0.794136 0.399153 0.402374
O O6 0.926062 0.353883 0.330039
O O7 0.951500 0.327952 0.436325
O O8 0.765216 0.938946 0.271225
O O9 0.630292 0.082457 0.267206
O O10 0.484253 0.347221 0.407437
O O11 0.421018 0.509331 0.457373
O O12 0.474281 0.354101 0.501700
O O13 0.424733 0.176686 0.996505
O O14 0.500000 0.000000 0.000000
#
# Coordination Sequence:
#
# PCOD9546666 Si02
#       8
#    16  16  16  16  16   4  16   8
#     4  11  24  41  66 102 135 178 219 276 337 402
#     4  11  23  42  64  95 138 176 227 272 336 396
#     4  12  22  42  70  98 136 179 217 282 334 406
#     4  11  22  37  56  93 137 176 220 263 318 408
#     4  11  23  46  72  94 127 176 233 278 348 391
#     4  12  24  34  60  92 132 188 218 256 332 400
#     4  11  23  39  62  96 136 180 220 264 327 406
#     4  10  24  45  66  97 126 175 227 296 330 396
#
# _framework density 22.209952000000001
#
# number of rings (size 3 to 8) (size 9 to 14) (size 15 to 20)
#    0.000    0.889    4.444    3.556    2.074    0.593 
#    0.000    2.963    0.000    0.000    0.000    0.000 
#    0.000    0.000    0.000    0.000    0.000    0.000 
#
# Total GULP energy -301180.104838 kJ/mol
# GULP energy per Si atom -5577.409349 kJ/mol
# Density = 2.215940 g / cm^3
# Si number density = 22.209952 Si / 1000 Ang^3
#
#
#
# Elastic Constant Matrix: (Units=GPa)
#
#
# Indices 1 2 3 4 5 6 
#
# 1 65.0957 -0.6240 20.3968 0.0000 0.0000 0.3124
# 2 -0.6240 65.0957 20.3968 0.0000 0.0000 -0.3124
# 3 20.3968 20.3968 96.8786 0.0000 0.0000 0.0000
# 4 0.0000 0.0000 0.0000 37.0585 0.0000 0.0000
# 5 0.0000 0.0000 0.0000 0.0000 37.0585 0.0000
# 6 0.3124 -0.3124 0.0000 0.0000 0.0000 26.0926
#
#
#
# Elastic Compliance Matrix: (Units=1/GPa)
#
#
# Indices 1 2 3 4 5 6 
#
# 1 0.016556 0.001338 -0.003768 0.000000 0.000000 -0.000182
# 2 0.001338 0.016556 -0.003768 0.000000 0.000000 0.000182
# 3 -0.003768 -0.003768 0.011909 0.000000 0.000000 0.000000
# 4 0.000000 0.000000 0.000000 0.026984 0.000000 0.000000
# 5 0.000000 0.000000 0.000000 0.000000 0.026984 0.000000
# 6 -0.000182 0.000182 0.000000 0.000000 0.000000 0.038329
#
#
# Mechanical properties :
#
#
# Convention : Reuss Voigt Hill
#
# Bulk Modulus (GPa) = 30.64889 34.15660 32.40274
# Shear Modulus (GPa) = 31.13549 32.50194 31.81871
#
# Velocity S-wave (km/s) = 3.74822 3.82959 3.78912
# Velocity P-wave (km/s) = 5.70629 5.91326 5.81070
#
# Compressibility (1/GPa) = 0.03262761
#
# Stress axis : x y z
#
# Youngs Moduli (GPa) = 60.40036 60.40036 83.97281
#
# Poissons Ratio (x) = -0.08084 0.31637
# Poissons Ratio (y) = -0.08084 0.31637
# Poissons Ratio (z) = 0.22756 0.22756
#
# Static dielectric constant tensor:
#      x y z
#    x 1.915580 0.000000 0.000000 
#    y 0.000000 1.915580 0.000000 
#    z 0.000000 0.000000 1.927840 
# 
# From -- ./inp_files/5388.got.cif
#   From: 2010.05.17/outbox.cif.g08.bks.cpg/sg88_3_cif.got.tgz:5388.got - 2010.06.03 19:11:41.
