data_PCOD9546511
_publ_section_title
;
Structure prediction by ZEFSAII (Michael W. Deem and Ramdas Pophale) SiO2 
 PCOD9546511
Probable space group: I 41/A
;
_chemical_formula_sum "Si O2"
_cell_formula_units_Z 96
_cell_length_a 13.616219
_cell_length_b 13.616219
_cell_length_c 21.252573
_cell_angle_alpha 90.000000
_cell_angle_beta 90.000000
_cell_angle_gamma 90.000000
_cell_volume 3940.257210
_symmetry_space_group_name_H-M "I 41/A"
_symmetry_group_IT_number 88
_space_group.IT_coordinate_system_code '2'
_symmetry_cell_setting 'tetragonal'
loop_
_space_group_symop_operation_xyz
x,y,z
3/4-y,1/4+x,1/4+z
-x,1/2-y,z
1/4+y,1/4-x,1/4+z
-x,-y,-z
1/4+y,3/4-x,3/4-z
x,1/2+y,-z
3/4-y,3/4+x,3/4-z
1/2+x,1/2+y,1/2+z
1/4-y,3/4+x,3/4+z
1/2-x,-y,1/2+z
3/4+y,3/4-x,3/4+z
1/2-x,1/2-y,1/2-z
3/4+y,1/4-x,1/4-z
1/2+x,y,1/2-z
1/4-y,1/4+x,1/4-z
loop_
_atom_site_type_symbol
_atom_site_label
_atom_site_fract_x
_atom_site_fract_y
_atom_site_fract_z
Si Si1 0.287248 0.248496 0.917516
Si Si2 0.777705 0.423065 0.011482
Si Si3 0.000000 0.750000 0.677354
Si Si4 0.384231 0.418194 0.252604
Si Si5 0.148109 0.185032 0.821192
Si Si6 0.000000 0.250000 0.530410
Si Si7 0.139651 0.318107 0.128793
O O1 0.245048 0.348338 0.946342
O O2 0.246327 0.234762 0.848046
O O3 0.401339 0.246006 0.929797
O O4 0.237341 0.162881 0.960506
O O5 0.815378 0.521872 0.978206
O O6 0.673432 0.423195 0.047150
O O7 0.862431 0.413474 0.064113
O O8 0.929709 0.818912 0.720766
O O9 0.938950 0.679633 0.629842
O O10 0.440932 0.453652 0.315916
O O11 0.093832 0.244850 0.766269
O O12 0.113789 0.209793 0.151040
#
# Coordination Sequence:
#
# PCOD9546511 Si02
#       7
#    16  16   8  16  16   8  16
#     4  10  21  43  62  95 129 171 232 272 341 414
#     4  11  23  38  61  90 128 174 218 276 332 402
#     4   9  20  38  63  87 124 175 216 273 341 400
#     4  11  23  38  63  92 129 173 215 270 332 405
#     4   9  20  39  63  94 126 170 231 277 336 412
#     4   9  20  40  70  92 136 182 210 298 351 394
#     4  11  23  37  56  91 130 164 209 263 326 399
#
# _framework density 24.363890999999999
#
# number of rings (size 3 to 8) (size 9 to 14) (size 15 to 20)
#    0.000    1.833    1.667    2.000    4.667    3.333 
#    0.000    6.667    0.000    0.000    0.000    0.000 
#    0.000    0.000    0.000    0.000    0.000    0.000 
#
# Total GULP energy -268175.635840 kJ/mol
# GULP energy per Si atom -5586.992413 kJ/mol
# Density = 2.430844 g / cm^3
# Si number density = 24.363891 Si / 1000 Ang^3
#
#
#
# Elastic Constant Matrix: (Units=GPa)
#
#
# Indices 1 2 3 4 5 6 
#
# 1 89.1581 16.9356 25.4679 0.0000 0.0000 -2.8636
# 2 16.9356 89.1581 25.4679 0.0000 0.0000 2.8636
# 3 25.4679 25.4679 80.3182 0.0000 0.0000 0.0000
# 4 0.0000 0.0000 0.0000 -140.7074 0.0000 0.0000
# 5 0.0000 0.0000 0.0000 0.0000 -140.7074 0.0000
# 6 -2.8636 2.8636 0.0000 0.0000 0.0000 17.6532
#
#
#
# Elastic Compliance Matrix: (Units=1/GPa)
#
#
# Indices 1 2 3 4 5 6 
#
# 1 0.012572 -0.001454 -0.003525 0.000000 0.000000 0.002275
# 2 -0.001454 0.012572 -0.003525 0.000000 0.000000 -0.002275
# 3 -0.003525 -0.003525 0.014686 0.000000 0.000000 0.000000
# 4 0.000000 0.000000 0.000000 -0.007107 0.000000 0.000000
# 5 0.000000 0.000000 0.000000 0.000000 -0.007107 0.000000
# 6 0.002275 -0.002275 0.000000 0.000000 0.000000 0.057385
#
#
# Mechanical properties :
#
#
# Convention : Reuss Voigt Hill
#
# Bulk Modulus (GPa) = 43.81958 43.81971 43.81965
# Shear Modulus (GPa) = 46.46008 -40.03481 3.21264
#
# Velocity S-wave (km/s) = 4.37157 -4.05804 1.14955
# Velocity P-wave (km/s) = 6.59586 1.98302 4.44820
#
# Compressibility (1/GPa) = 0.02282085
#
# Stress axis : x y z
#
# Youngs Moduli (GPa) = 79.53947 79.53947 68.09094
#
# Poissons Ratio (x) = 0.11566 0.24005
# Poissons Ratio (y) = 0.11566 0.24005
# Poissons Ratio (z) = 0.28041 0.28041
#
# Static dielectric constant tensor:
#      x y z
#    x 1.959710 0.000000 0.000000 
#    y 0.000000 1.959710 0.000000 
#    z 0.000000 0.000000 1.968600 
# 
# From -- ./inp_files/4748.got.cif
#   From: 2010.05.17/outbox.cif.g08.bks.cpg/sg88_3_cif.got.tgz:4748.got - 2010.06.03 19:11:41.
