data_PCOD9546565
_publ_section_title
;
Structure prediction by ZEFSAII (Michael W. Deem and Ramdas Pophale) SiO2 
 PCOD9546565
Probable space group: I 41/A
;
_chemical_formula_sum "Si O2"
_cell_formula_units_Z 96
_cell_length_a 16.498639
_cell_length_b 16.498639
_cell_length_c 18.378467
_cell_angle_alpha 90.000000
_cell_angle_beta 90.000000
_cell_angle_gamma 90.000000
_cell_volume 5002.712243
_symmetry_space_group_name_H-M "I 41/A"
_symmetry_group_IT_number 88
_space_group.IT_coordinate_system_code '2'
_symmetry_cell_setting 'tetragonal'
loop_
_space_group_symop_operation_xyz
x,y,z
3/4-y,1/4+x,1/4+z
-x,1/2-y,z
1/4+y,1/4-x,1/4+z
-x,-y,-z
1/4+y,3/4-x,3/4-z
x,1/2+y,-z
3/4-y,3/4+x,3/4-z
1/2+x,1/2+y,1/2+z
1/4-y,3/4+x,3/4+z
1/2-x,-y,1/2+z
3/4+y,3/4-x,3/4+z
1/2-x,1/2-y,1/2-z
3/4+y,1/4-x,1/4-z
1/2+x,y,1/2-z
1/4-y,1/4+x,1/4-z
loop_
_atom_site_type_symbol
_atom_site_label
_atom_site_fract_x
_atom_site_fract_y
_atom_site_fract_z
Si Si1 0.847972 0.824581 0.788855
Si Si2 0.256754 0.245272 0.837227
Si Si3 0.722376 0.007994 0.501255
Si Si4 0.120709 0.350498 0.194065
Si Si5 0.590112 0.261536 0.573137
Si Si6 0.833355 0.071261 0.630552
O O1 0.780628 0.893425 0.788624
O O2 0.825361 0.730061 0.794222
O O3 0.900180 0.838848 0.861955
O O4 0.901364 0.839565 0.716598
O O5 0.250000 0.250000 0.750000
O O6 0.166795 0.249221 0.874042
O O7 0.307185 0.322013 0.866771
O O8 0.302704 0.162415 0.857038
O O9 0.683678 0.081228 0.455747
O O10 0.785526 0.038322 0.560437
O O11 0.767350 0.945214 0.448872
O O12 0.052127 0.346047 0.256134
O O13 0.500000 0.250000 0.607059
#
# Coordination Sequence:
#
# PCOD9546565 Si02
#       6
#    16  16  16  16  16  16
#     4  11  21  35  62 100 135 168 208 255 327 417
#     4  12  26  49  70  98 133 180 244 295 348 414
#     4  12  23  41  64  94 130 174 222 269 345 404
#     4  11  21  35  62 100 135 168 208 255 327 417
#     4  10  22  40  65  98 140 172 206 270 341 407
#     4  12  26  45  70  94 129 182 232 302 346 406
#
# _framework density 19.189589999999999
#
# number of rings (size 3 to 8) (size 9 to 14) (size 15 to 20)
#    0.000    0.667    8.333    0.500    0.000    0.333 
#    3.000    0.000    3.667    0.000    0.000    0.000 
#    0.000    0.000    0.000    0.000    0.000    0.000 
#
# Total GULP energy -267975.734234 kJ/mol
# GULP energy per Si atom -5582.827797 kJ/mol
# Density = 1.914591 g / cm^3
# Si number density = 19.189590 Si / 1000 Ang^3
#
#
#
# Elastic Constant Matrix: (Units=GPa)
#
#
# Indices 1 2 3 4 5 6 
#
# 1 94.5091 25.0985 33.7428 0.0000 0.0000 -0.2427
# 2 25.0985 94.5091 33.7428 0.0000 0.0000 0.2427
# 3 33.7428 33.7428 104.6829 0.0000 0.0000 0.0000
# 4 0.0000 0.0000 0.0000 24.7811 0.0000 0.0000
# 5 0.0000 0.0000 0.0000 0.0000 24.7811 0.0000
# 6 -0.2427 0.2427 0.0000 0.0000 0.0000 31.1029
#
#
#
# Elastic Compliance Matrix: (Units=1/GPa)
#
#
# Indices 1 2 3 4 5 6 
#
# 1 0.012314 -0.002094 -0.003294 0.000000 0.000000 0.000112
# 2 -0.002094 0.012314 -0.003294 0.000000 0.000000 -0.000112
# 3 -0.003294 -0.003294 0.011676 0.000000 0.000000 0.000000
# 4 0.000000 0.000000 0.000000 0.040353 0.000000 0.000000
# 5 0.000000 0.000000 0.000000 0.000000 0.040353 0.000000
# 6 0.000112 -0.000112 0.000000 0.000000 0.000000 0.032153
#
#
# Mechanical properties :
#
#
# Convention : Reuss Voigt Hill
#
# Bulk Modulus (GPa) = 52.80207 53.20770 53.00488
# Shear Modulus (GPa) = 28.92843 29.54083 29.23463
#
# Velocity S-wave (km/s) = 3.88687 3.92780 3.90739
# Velocity P-wave (km/s) = 6.90793 6.95397 6.93099
#
# Compressibility (1/GPa) = 0.01893865
#
# Stress axis : x y z
#
# Youngs Moduli (GPa) = 81.21156 81.21156 85.64444
#
# Poissons Ratio (x) = 0.17008 0.28211
# Poissons Ratio (y) = 0.17008 0.28211
# Poissons Ratio (z) = 0.26751 0.26751
#
# Static dielectric constant tensor:
#      x y z
#    x 1.679180 0.000000 0.000000 
#    y 0.000000 1.679180 0.000000 
#    z 0.000000 0.000000 1.654630 
# 
# From -- ./inp_files/4664.got.cif
#   From: 2010.05.17/outbox.cif.g08.bks.cpg/sg88_3_cif.got.tgz:4664.got - 2010.06.03 19:11:41.
