data_PCOD9546152
_publ_section_title
;
Structure prediction by ZEFSAII (Michael W. Deem and Ramdas Pophale) SiO2 
 PCOD9546152
Probable space group: I 4/M
;
_chemical_formula_sum "Si O2"
_cell_formula_units_Z 48
_cell_length_a 9.581053
_cell_length_b 9.581053
_cell_length_c 24.493007
_cell_angle_alpha 90.000000
_cell_angle_beta 90.000000
_cell_angle_gamma 90.000000
_cell_volume 2248.374193
_symmetry_space_group_name_H-M "I 4/M"
_symmetry_group_IT_number 87
_symmetry_cell_setting 'tetragonal'
loop_
_space_group_symop_operation_xyz
x,y,z
-y,x,z
-x,-y,z
y,-x,z
-x,-y,-z
y,-x,-z
x,y,-z
-y,x,-z
1/2+x,1/2+y,1/2+z
1/2-y,1/2+x,1/2+z
1/2-x,1/2-y,1/2+z
1/2+y,1/2-x,1/2+z
1/2-x,1/2-y,1/2-z
1/2+y,1/2-x,1/2-z
1/2+x,1/2+y,1/2-z
1/2-y,1/2+x,1/2-z
loop_
_atom_site_type_symbol
_atom_site_label
_atom_site_fract_x
_atom_site_fract_y
_atom_site_fract_z
Si Si1 0.500000 0.500000 0.666470
Si Si2 0.638102 0.692387 0.500000
Si Si3 0.172691 0.273063 0.807084
Si Si4 0.313800 0.363586 0.085756
Si Si5 0.500000 0.000000 0.750000
O O1 0.389515 0.368815 0.669534
O O2 0.469634 0.687129 0.500000
O O3 0.702510 0.775579 0.551103
O O4 0.250000 0.250000 0.750000
O O5 0.276067 0.341049 0.851034
O O6 0.050548 0.378446 0.790004
O O7 0.470989 0.311633 0.073549
#
# Coordination Sequence:
#
# PCOD9546152 Si02
#       5
#     4   8  16  16   4
#     4  12  28  40  68 101 152 177 240 288 348 398
#     4  11  28  49  76 106 138 175 228 291 350 408
#     4  12  26  43  69 104 143 185 234 287 344 412
#     4  11  27  48  73 101 140 185 233 283 344 416
#     4  12  24  44  68  98 140 192 232 276 352 414
#
# _framework density 21.348761
#
# number of rings (size 3 to 8) (size 9 to 14) (size 15 to 20)
#    0.000    0.500    3.333    3.000    4.667    4.000 
#    0.000    0.000    0.000    0.000    0.000    0.000 
#    0.000    0.000    0.000    0.000    0.000    0.000 
#
# Total GULP energy -133751.194769 kJ/mol
# GULP energy per Si atom -5572.966449 kJ/mol
# Density = 2.130017 g / cm^3
# Si number density = 21.348761 Si / 1000 Ang^3
#
#
#
# Elastic Constant Matrix: (Units=GPa)
#
#
# Indices 1 2 3 4 5 6 
#
# 1 88.2025 27.8331 4.4394 0.0000 0.0000 6.9268
# 2 27.8331 88.2025 4.4394 0.0000 0.0000 -6.9268
# 3 4.4394 4.4394 92.8041 0.0000 0.0000 0.0000
# 4 0.0000 0.0000 0.0000 24.1703 0.0000 0.0000
# 5 0.0000 0.0000 0.0000 0.0000 24.1703 0.0000
# 6 6.9268 -6.9268 0.0000 0.0000 0.0000 41.7320
#
#
#
# Elastic Compliance Matrix: (Units=1/GPa)
#
#
# Indices 1 2 3 4 5 6 
#
# 1 0.012935 -0.004285 -0.000414 0.000000 0.000000 -0.002858
# 2 -0.004285 0.012935 -0.000414 0.000000 0.000000 0.002858
# 3 -0.000414 -0.000414 0.010815 0.000000 0.000000 0.000000
# 4 0.000000 0.000000 0.000000 0.041373 0.000000 0.000000
# 5 0.000000 0.000000 0.000000 0.000000 0.041373 0.000000
# 6 -0.002858 0.002858 0.000000 0.000000 0.000000 0.024911
#
#
# Mechanical properties :
#
#
# Convention : Reuss Voigt Hill
#
# Bulk Modulus (GPa) = 37.79389 38.07033 37.93211
# Shear Modulus (GPa) = 30.60192 33.51435 32.05813
#
# Velocity S-wave (km/s) = 3.79017 3.96643 3.87930
# Velocity P-wave (km/s) = 6.07416 6.23282 6.15400
#
# Compressibility (1/GPa) = 0.02645930
#
# Stress axis : x y z
#
# Youngs Moduli (GPa) = 77.30865 77.30865 92.46443
#
# Poissons Ratio (x) = 0.33130 0.03826
# Poissons Ratio (y) = 0.33130 0.03826
# Poissons Ratio (z) = 0.03199 0.03199
#
# Static dielectric constant tensor:
#      x y z
#    x 1.760010 0.000000 0.000000 
#    y 0.000000 1.760010 0.000000 
#    z 0.000000 0.000000 1.788640 
# 
# From -- ./inp_files/6424.got.cif
#   From: 2010.05.17/outbox.cif.g08.bks.cpg/sg87_4_cif.got.tgz:6424.got - 2010.06.03 19:07:00.
