data_PCOD9546373
_publ_section_title
;
Structure prediction by ZEFSAII (Michael W. Deem and Ramdas Pophale) SiO2 
 PCOD9546373
Probable space group: I 41/A
;
_chemical_formula_sum "Si O2"
_cell_formula_units_Z 64
_cell_length_a 10.427989
_cell_length_b 10.427989
_cell_length_c 27.365647
_cell_angle_alpha 90.000000
_cell_angle_beta 90.000000
_cell_angle_gamma 90.000000
_cell_volume 2975.821309
_symmetry_space_group_name_H-M "I 41/A"
_symmetry_group_IT_number 88
_space_group.IT_coordinate_system_code '2'
_symmetry_cell_setting 'tetragonal'
loop_
_space_group_symop_operation_xyz
x,y,z
3/4-y,1/4+x,1/4+z
-x,1/2-y,z
1/4+y,1/4-x,1/4+z
-x,-y,-z
1/4+y,3/4-x,3/4-z
x,1/2+y,-z
3/4-y,3/4+x,3/4-z
1/2+x,1/2+y,1/2+z
1/4-y,3/4+x,3/4+z
1/2-x,-y,1/2+z
3/4+y,3/4-x,3/4+z
1/2-x,1/2-y,1/2-z
3/4+y,1/4-x,1/4-z
1/2+x,y,1/2-z
1/4-y,1/4+x,1/4-z
loop_
_atom_site_type_symbol
_atom_site_label
_atom_site_fract_x
_atom_site_fract_y
_atom_site_fract_z
Si Si1 0.722504 0.708581 0.183599
Si Si2 0.064514 0.074604 0.832779
Si Si3 0.181918 0.131437 0.507807
Si Si4 0.685574 0.572001 0.848637
O O1 0.847492 0.799626 0.174669
O O2 0.621898 0.806042 0.207291
O O3 0.758555 0.600641 0.223603
O O4 0.713674 0.632516 0.133119
O O5 0.992928 0.053939 0.781406
O O6 0.958001 0.083683 0.875233
O O7 0.164987 0.963445 0.845527
O O8 0.300699 0.118487 0.544356
#
# Coordination Sequence:
#
# PCOD9546373 Si02
#       4
#    16  16  16  16
#     4   9  19  40  63  84 123 167 206 258 302 361
#     4  10  21  41  64  86 133 158 205 269 303 374
#     4   9  18  37  62  89 117 158 205 258 305 354
#     4  10  20  38  65  91 120 172 201 250 323 373
#
# _framework density 21.506667
#
# number of rings (size 3 to 8) (size 9 to 14) (size 15 to 20)
#    0.000    2.500    0.000    3.000    0.000    0.500 
#   54.000    5.000   11.000    0.000    0.000    0.000 
#    0.000    0.000    0.000    0.000    0.000    0.000 
#
# Total GULP energy -178372.868340 kJ/mol
# GULP energy per Si atom -5574.152136 kJ/mol
# Density = 2.145772 g / cm^3
# Si number density = 21.506667 Si / 1000 Ang^3
#
#
#
# Elastic Constant Matrix: (Units=GPa)
#
#
# Indices 1 2 3 4 5 6 
#
# 1 89.7913 20.0092 56.0592 0.0000 0.0000 3.2257
# 2 20.0092 89.7913 56.0592 0.0000 0.0000 -3.2257
# 3 56.0592 56.0592 158.9749 0.0000 0.0000 0.0000
# 4 0.0000 0.0000 0.0000 38.8148 0.0000 0.0000
# 5 0.0000 0.0000 0.0000 0.0000 38.8148 0.0000
# 6 3.2257 -3.2257 0.0000 0.0000 0.0000 21.0394
#
#
#
# Elastic Compliance Matrix: (Units=1/GPa)
#
#
# Indices 1 2 3 4 5 6 
#
# 1 0.014384 -0.000152 -0.005019 0.000000 0.000000 -0.002229
# 2 -0.000152 0.014384 -0.005019 0.000000 0.000000 0.002229
# 3 -0.005019 -0.005019 0.009830 0.000000 0.000000 0.000000
# 4 0.000000 0.000000 0.000000 0.025763 0.000000 0.000000
# 5 0.000000 0.000000 0.000000 0.000000 0.025763 0.000000
# 6 -0.002229 0.002229 0.000000 0.000000 0.000000 0.048213
#
#
# Mechanical properties :
#
#
# Convention : Reuss Voigt Hill
#
# Bulk Modulus (GPa) = 54.88708 66.97918 60.93313
# Shear Modulus (GPa) = 30.34168 33.49581 31.91875
#
# Velocity S-wave (km/s) = 3.76014 3.95075 3.85662
# Velocity P-wave (km/s) = 6.66543 7.21265 6.94443
#
# Compressibility (1/GPa) = 0.01821923
#
# Stress axis : x y z
#
# Youngs Moduli (GPa) = 69.52091 69.52091 101.73242
#
# Poissons Ratio (x) = 0.01058 0.51055
# Poissons Ratio (y) = 0.01058 0.51055
# Poissons Ratio (z) = 0.34890 0.34890
#
# Static dielectric constant tensor:
#      x y z
#    x 1.819400 0.000000 0.000000 
#    y 0.000000 1.819400 0.000000 
#    z 0.000000 0.000000 1.796760 
# 
# From -- ./inp_files/5634.got.cif
#   From: 2010.05.17/outbox.cif.g08.bks.cpg/sg88_3_cif.got.tgz:5634.got - 2010.06.03 19:11:41.
