data_PCOD9546638
_publ_section_title
;
Structure prediction by ZEFSAII (Michael W. Deem and Ramdas Pophale) SiO2 
 PCOD9546638
Probable space group: I 41/A
;
_chemical_formula_sum "Si O2"
_cell_formula_units_Z 52
_cell_length_a 14.414636
_cell_length_b 14.414636
_cell_length_c 8.748723
_cell_angle_alpha 90.000000
_cell_angle_beta 90.000000
_cell_angle_gamma 90.000000
_cell_volume 1817.824809
_symmetry_space_group_name_H-M "I 41/A"
_symmetry_group_IT_number 88
_space_group.IT_coordinate_system_code '2'
_symmetry_cell_setting 'tetragonal'
loop_
_space_group_symop_operation_xyz
x,y,z
3/4-y,1/4+x,1/4+z
-x,1/2-y,z
1/4+y,1/4-x,1/4+z
-x,-y,-z
1/4+y,3/4-x,3/4-z
x,1/2+y,-z
3/4-y,3/4+x,3/4-z
1/2+x,1/2+y,1/2+z
1/4-y,3/4+x,3/4+z
1/2-x,-y,1/2+z
3/4+y,3/4-x,3/4+z
1/2-x,1/2-y,1/2-z
3/4+y,1/4-x,1/4-z
1/2+x,y,1/2-z
1/4-y,1/4+x,1/4-z
loop_
_atom_site_type_symbol
_atom_site_label
_atom_site_fract_x
_atom_site_fract_y
_atom_site_fract_z
Si Si1 0.314743 0.834906 0.196098
Si Si2 0.141376 0.251660 0.392135
Si Si3 0.734648 0.083527 0.191396
Si Si4 0.000000 0.750000 0.875000
O O1 0.250000 0.750000 0.250000
O O2 0.448968 0.626523 0.197210
O O3 0.390627 0.870398 0.319423
O O4 0.238065 0.911140 0.141660
O O5 0.233643 0.190156 0.358725
O O6 0.079329 0.225178 0.246989
O O7 0.708540 0.076759 0.368321
#
# Coordination Sequence:
#
# PCOD9546638 Si02
#       4
#    16  16  16   4
#     4  11  22  44  76 103 139 198 262 319 378 468
#     4  11  24  43  70 106 146 194 253 318 394 471
#     4  10  23  44  68 100 143 192 249 313 383 462
#     4  12  24  42  68 108 156 190 240 320 400 482
#
# _framework density 28.605615
#
# number of rings (size 3 to 8) (size 9 to 14) (size 15 to 20)
#    0.000    1.231    0.000    7.385    0.000    2.462 
#    0.000   21.538    0.000    0.000    0.000    0.000 
#    0.000    0.000    0.000    0.000    0.000    0.000 
#
# Total GULP energy -144922.494665 kJ/mol
# GULP energy per Si atom -5573.942103 kJ/mol
# Density = 2.854051 g / cm^3
# Si number density = 28.605615 Si / 1000 Ang^3
#
#
#
# Elastic Constant Matrix: (Units=GPa)
#
#
# Indices 1 2 3 4 5 6 
#
# 1 119.6184 76.6275 46.5374 0.0000 0.0000 41.6672
# 2 76.6275 119.6184 46.5374 0.0000 0.0000 -41.6672
# 3 46.5374 46.5374 157.2115 0.0000 0.0000 0.0000
# 4 0.0000 0.0000 0.0000 51.7843 0.0000 0.0000
# 5 0.0000 0.0000 0.0000 0.0000 51.7843 0.0000
# 6 41.6672 -41.6672 0.0000 0.0000 0.0000 35.0553
#
#
#
# Elastic Compliance Matrix: (Units=1/GPa)
#
#
# Indices 1 2 3 4 5 6 
#
# 1 -0.005955 0.011883 -0.001755 0.000000 0.000000 0.021202
# 2 0.011883 -0.005955 -0.001755 0.000000 0.000000 -0.021202
# 3 -0.001755 -0.001755 0.007400 0.000000 0.000000 0.000000
# 4 0.000000 0.000000 0.000000 0.019311 0.000000 0.000000
# 5 0.000000 0.000000 0.000000 0.000000 0.019311 0.000000
# 6 0.021202 -0.021202 0.000000 0.000000 0.000000 -0.021876
#
#
# Mechanical properties :
#
#
# Convention : Reuss Voigt Hill
#
# Bulk Modulus (GPa) = 81.72286 81.76141 81.74214
# Shear Modulus (GPa) = -11592.68277 42.84117 -5774.92080
#
# Velocity S-wave (km/s) = -63.72902 3.87415 -44.97988
# Velocity P-wave (km/s) = 73.39314 6.97541 51.66186
#
# Compressibility (1/GPa) = 0.01223648
#
# Stress axis : x y z
#
# Youngs Moduli (GPa) = -167.93062 -167.93062 135.13998
#
# Poissons Ratio (x) = 1.99547 0.23714
# Poissons Ratio (y) = 1.99547 0.23714
# Poissons Ratio (z) = -0.29468 -0.29468
#
# Static dielectric constant tensor:
#      x y z
#    x 2.276340 0.000000 0.000000 
#    y 0.000000 2.276340 0.000000 
#    z 0.000000 0.000000 2.467900 
# 
# From -- ./inp_files/2199.got.cif
#   From: 2010.05.17/outbox.cif.g08.bks.cpg/sg88_2_cif.got.tgz:2199.got - 2010.06.03 19:11:41.
