data_PCOD9546430
_publ_section_title
;
Structure prediction by ZEFSAII (Michael W. Deem and Ramdas Pophale) SiO2 
 PCOD9546430
Probable space group: I 41/A
;
_chemical_formula_sum "Si O2"
_cell_formula_units_Z 100
_cell_length_a 13.389429
_cell_length_b 13.389429
_cell_length_c 25.388837
_cell_angle_alpha 90.000000
_cell_angle_beta 90.000000
_cell_angle_gamma 90.000000
_cell_volume 4551.629680
_symmetry_space_group_name_H-M "I 41/A"
_symmetry_group_IT_number 88
_space_group.IT_coordinate_system_code '2'
_symmetry_cell_setting 'tetragonal'
loop_
_space_group_symop_operation_xyz
x,y,z
3/4-y,1/4+x,1/4+z
-x,1/2-y,z
1/4+y,1/4-x,1/4+z
-x,-y,-z
1/4+y,3/4-x,3/4-z
x,1/2+y,-z
3/4-y,3/4+x,3/4-z
1/2+x,1/2+y,1/2+z
1/4-y,3/4+x,3/4+z
1/2-x,-y,1/2+z
3/4+y,3/4-x,3/4+z
1/2-x,1/2-y,1/2-z
3/4+y,1/4-x,1/4-z
1/2+x,y,1/2-z
1/4-y,1/4+x,1/4-z
loop_
_atom_site_type_symbol
_atom_site_label
_atom_site_fract_x
_atom_site_fract_y
_atom_site_fract_z
Si Si1 0.898722 0.140722 0.217014
Si Si2 0.000000 0.250000 0.525575
Si Si3 0.479420 0.534505 0.231364
Si Si4 0.500000 0.750000 0.444051
Si Si5 0.000000 0.250000 0.125000
Si Si6 0.203799 0.178535 0.705479
Si Si7 0.745914 0.533396 0.293119
Si Si8 0.539810 0.448591 0.127618
O O1 0.910270 0.223352 0.263799
O O2 0.925165 0.194036 0.163289
O O3 0.800091 0.076729 0.206093
O O4 0.981871 0.055637 0.232516
O O5 0.895738 0.258667 0.494437
O O6 0.982038 0.150270 0.558231
O O7 0.364438 0.527440 0.214037
O O8 0.540497 0.525019 0.176487
O O9 0.406529 0.765486 0.405030
O O10 0.250000 0.250000 0.750000
O O11 0.203905 0.077304 0.737805
O O12 0.274506 0.192107 0.656472
O O13 0.712202 0.611005 0.340318
#
# Coordination Sequence:
#
# PCOD9546430 Si02
#       8
#    16   8  16   8   4  16  16  16
#     4  10  23  50  72  94 137 175 243 306 364 425
#     4  12  20  36  64  92 148 188 206 281 350 423
#     4  11  24  39  65 104 141 185 225 289 354 427
#     4   9  22  46  70  93 138 181 231 309 359 408
#     4  10  24  56  72  98 116 186 252 308 382 436
#     4  10  21  36  58  93 137 185 227 267 328 429
#     4  11  23  41  65 100 138 185 232 283 351 430
#     4  10  23  39  61  98 139 178 233 274 345 433
#
# _framework density 21.970154999999998
#
# number of rings (size 3 to 8) (size 9 to 14) (size 15 to 20)
#    0.000    1.600    4.800    0.000    2.240    4.480 
#   14.400    4.000    0.000    0.000    0.000    0.000 
#    0.000    0.000    0.000    0.000    0.000    0.000 
#
# Total GULP energy -278357.795739 kJ/mol
# GULP energy per Si atom -5567.155915 kJ/mol
# Density = 2.192015 g / cm^3
# Si number density = 21.970155 Si / 1000 Ang^3
#
#
#
# Elastic Constant Matrix: (Units=GPa)
#
#
# Indices 1 2 3 4 5 6 
#
# 1 71.3623 3.1950 5.0379 0.0000 0.0000 -9.6753
# 2 3.1950 71.3623 5.0379 0.0000 0.0000 9.6753
# 3 5.0379 5.0379 85.3449 0.0000 0.0000 0.0000
# 4 0.0000 0.0000 0.0000 20.4219 0.0000 0.0000
# 5 0.0000 0.0000 0.0000 0.0000 20.4219 0.0000
# 6 -9.6753 9.6753 0.0000 0.0000 0.0000 40.6370
#
#
#
# Elastic Compliance Matrix: (Units=1/GPa)
#
#
# Indices 1 2 3 4 5 6 
#
# 1 0.014627 -0.001106 -0.000798 0.000000 0.000000 0.003746
# 2 -0.001106 0.014627 -0.000798 0.000000 0.000000 -0.003746
# 3 -0.000798 -0.000798 0.011811 0.000000 0.000000 0.000000
# 4 0.000000 0.000000 0.000000 0.048967 0.000000 0.000000
# 5 0.000000 0.000000 0.000000 0.000000 0.048967 0.000000
# 6 0.003746 -0.003746 0.000000 0.000000 0.000000 0.026392
#
#
# Mechanical properties :
#
#
# Convention : Reuss Voigt Hill
#
# Bulk Modulus (GPa) = 28.04284 28.29009 28.16647
# Shear Modulus (GPa) = 27.36988 30.61608 28.99298
#
# Velocity S-wave (km/s) = 3.53338 3.73705 3.63664
# Velocity P-wave (km/s) = 5.42570 5.61474 5.52103
#
# Compressibility (1/GPa) = 0.03565972
#
# Stress axis : x y z
#
# Youngs Moduli (GPa) = 68.36789 68.36789 84.66406
#
# Poissons Ratio (x) = 0.07564 0.06757
# Poissons Ratio (y) = 0.07564 0.06757
# Poissons Ratio (z) = 0.05456 0.05456
#
# Static dielectric constant tensor:
#      x y z
#    x 1.883780 0.000000 0.000000 
#    y 0.000000 1.883780 0.000000 
#    z 0.000000 0.000000 1.844150 
# 
# From -- ./inp_files/5845.got.cif
#   From: 2010.05.17/outbox.cif.g08.bks.cpg/sg88_3_cif.got.tgz:5845.got - 2010.06.03 19:11:41.
