data_PCOD9546069
_publ_section_title
;
Structure prediction by ZEFSAII (Michael W. Deem and Ramdas Pophale) SiO2 
 PCOD9546069
Probable space group: I 4/M
;
_chemical_formula_sum "Si O2"
_cell_formula_units_Z 88
_cell_length_a 12.066612
_cell_length_b 12.066612
_cell_length_c 30.374071
_cell_angle_alpha 90.000000
_cell_angle_beta 90.000000
_cell_angle_gamma 90.000000
_cell_volume 4422.559661
_symmetry_space_group_name_H-M "I 4/M"
_symmetry_group_IT_number 87
_symmetry_cell_setting 'tetragonal'
loop_
_space_group_symop_operation_xyz
x,y,z
-y,x,z
-x,-y,z
y,-x,z
-x,-y,-z
y,-x,-z
x,y,-z
-y,x,-z
1/2+x,1/2+y,1/2+z
1/2-y,1/2+x,1/2+z
1/2-x,1/2-y,1/2+z
1/2+y,1/2-x,1/2+z
1/2-x,1/2-y,1/2-z
1/2+y,1/2-x,1/2-z
1/2+x,1/2+y,1/2-z
1/2-y,1/2+x,1/2-z
loop_
_atom_site_type_symbol
_atom_site_label
_atom_site_fract_x
_atom_site_fract_y
_atom_site_fract_z
Si Si1 0.237318 0.237820 0.870520
Si Si2 0.094934 0.350152 0.568473
Si Si3 0.149288 0.111249 0.786067
Si Si4 0.097268 0.336734 0.948781
Si Si5 0.836859 0.089690 0.500000
Si Si6 0.596171 0.340226 0.189206
O O1 0.351330 0.179919 0.885437
O O2 0.197134 0.164069 0.829872
O O3 0.153381 0.257422 0.911815
O O4 0.265662 0.356440 0.849458
O O5 0.156411 0.462967 0.553414
O O6 0.120768 0.239632 0.540812
O O7 0.963805 0.368499 0.562822
O O8 0.200468 0.133735 0.737707
O O9 0.021583 0.148583 0.786850
O O10 0.127836 0.312542 0.000000
O O11 0.957272 0.143440 0.500000
O O12 0.645331 0.464545 0.185997
#
# Coordination Sequence:
#
# PCOD9546069 Si02
#       6
#    16  16  16  16   8  16
#     4  12  22  33  59  90 110 141 198 246 276 328
#     4  11  22  39  57  77 117 153 190 233 288 344
#     4   9  19  38  59  80 112 149 187 231 287 346
#     4  11  23  39  57  77 114 160 196 227 290 355
#     4  11  22  37  60  86 108 143 192 238 278 327
#     4   9  19  37  58  82 116 151 178 227 297 353
#
# _framework density 19.89798
#
# number of rings (size 3 to 8) (size 9 to 14) (size 15 to 20)
#    0.000    1.545    1.818    5.455    1.273    0.000 
#    0.000    1.818    0.000    0.000    0.000   19.091 
#    0.000    0.000    0.000    0.000    0.000    0.000 
#
# Total GULP energy -245314.977781 kJ/mol
# GULP energy per Si atom -5575.340404 kJ/mol
# Density = 1.985269 g / cm^3
# Si number density = 19.897980 Si / 1000 Ang^3
#
#
#
# Elastic Constant Matrix: (Units=GPa)
#
#
# Indices 1 2 3 4 5 6 
#
# 1 53.3298 2.2889 39.5849 0.0000 0.0000 0.6269
# 2 2.2889 53.3298 39.5849 0.0000 0.0000 -0.6269
# 3 39.5849 39.5849 134.6393 0.0000 0.0000 0.0000
# 4 0.0000 0.0000 0.0000 27.9936 0.0000 0.0000
# 5 0.0000 0.0000 0.0000 0.0000 27.9936 0.0000
# 6 0.6269 -0.6269 0.0000 0.0000 0.0000 22.2629
#
#
#
# Elastic Compliance Matrix: (Units=1/GPa)
#
#
# Indices 1 2 3 4 5 6 
#
# 1 0.025262 0.005657 -0.009090 0.000000 0.000000 -0.000552
# 2 0.005657 0.025262 -0.009090 0.000000 0.000000 0.000552
# 3 -0.009090 -0.009090 0.012773 0.000000 0.000000 0.000000
# 4 0.000000 0.000000 0.000000 0.035722 0.000000 0.000000
# 5 0.000000 0.000000 0.000000 0.000000 0.035722 0.000000
# 6 -0.000552 0.000552 0.000000 0.000000 0.000000 0.044949
#
#
# Mechanical properties :
#
#
# Convention : Reuss Voigt Hill
#
# Bulk Modulus (GPa) = 26.14431 44.91291 35.52861
# Shear Modulus (GPa) = 22.98963 26.30604 24.64783
#
# Velocity S-wave (km/s) = 3.40277 3.63994 3.52335
# Velocity P-wave (km/s) = 5.34847 6.34714 5.86908
#
# Compressibility (1/GPa) = 0.03824923
#
# Stress axis : x y z
#
# Youngs Moduli (GPa) = 39.58438 39.58439 78.29269
#
# Poissons Ratio (x) = -0.22392 0.71172
# Poissons Ratio (y) = -0.22392 0.71172
# Poissons Ratio (z) = 0.35984 0.35984
#
# Static dielectric constant tensor:
#      x y z
#    x 1.708000 0.000000 0.000000 
#    y 0.000000 1.708000 0.000000 
#    z 0.000000 0.000000 1.763910 
# 
# From -- ./inp_files/6558.got.cif
#   From: 2010.05.17/outbox.cif.g08.bks.cpg/sg87_4_cif.got.tgz:6558.got - 2010.06.03 19:07:00.
