data_PCOD9546483
_publ_section_title
;
Structure prediction by ZEFSAII (Michael W. Deem and Ramdas Pophale) SiO2 
 PCOD9546483
Probable space group: I 41/A
;
_chemical_formula_sum "Si O2"
_cell_formula_units_Z 96
_cell_length_a 21.936133
_cell_length_b 21.936133
_cell_length_c 9.425151
_cell_angle_alpha 90.000000
_cell_angle_beta 90.000000
_cell_angle_gamma 90.000000
_cell_volume 4535.325460
_symmetry_space_group_name_H-M "I 41/A"
_symmetry_group_IT_number 88
_space_group.IT_coordinate_system_code '2'
_symmetry_cell_setting 'tetragonal'
loop_
_space_group_symop_operation_xyz
x,y,z
3/4-y,1/4+x,1/4+z
-x,1/2-y,z
1/4+y,1/4-x,1/4+z
-x,-y,-z
1/4+y,3/4-x,3/4-z
x,1/2+y,-z
3/4-y,3/4+x,3/4-z
1/2+x,1/2+y,1/2+z
1/4-y,3/4+x,3/4+z
1/2-x,-y,1/2+z
3/4+y,3/4-x,3/4+z
1/2-x,1/2-y,1/2-z
3/4+y,1/4-x,1/4-z
1/2+x,y,1/2-z
1/4-y,1/4+x,1/4-z
loop_
_atom_site_type_symbol
_atom_site_label
_atom_site_fract_x
_atom_site_fract_y
_atom_site_fract_z
Si Si1 0.298332 0.544303 0.934748
Si Si2 0.228753 0.660836 0.370344
Si Si3 0.434421 0.068303 0.587885
Si Si4 0.912177 0.295330 0.112193
Si Si5 0.069050 0.036032 0.855853
Si Si6 0.188398 0.230129 0.889076
O O1 0.237937 0.541891 0.032671
O O2 0.350215 0.512693 0.030019
O O3 0.316364 0.615397 0.913824
O O4 0.192923 0.649366 0.516215
O O5 0.190084 0.707053 0.271064
O O6 0.290136 0.699615 0.399971
O O7 0.419865 0.123504 0.482481
O O8 0.506435 0.073027 0.627846
O O9 0.427294 0.007271 0.493982
O O10 0.924639 0.226731 0.165316
O O11 0.872364 0.286159 0.971875
O O12 0.056545 0.991236 0.723385
#
# Coordination Sequence:
#
# PCOD9546483 Si02
#       6
#    16  16  16  16  16  16
#     4  12  27  41  58  94 137 167 206 264 325 379
#     4  10  21  40  63  92 120 163 214 250 307 380
#     4   9  20  38  67  89 112 165 215 249 303 378
#     4  10  22  39  60  92 121 154 206 261 315 363
#     4   9  19  40  61  87 120 163 213 246 299 379
#     4   9  19  42  64  85 121 167 208 258 305 377
#
# _framework density 21.167169999999999
#
# number of rings (size 3 to 8) (size 9 to 14) (size 15 to 20)
#    0.000    2.167    1.667    1.000    4.667    1.333 
#    3.000    0.000    0.000    2.000    0.000    0.000 
#    0.000    0.000    0.000    0.000    0.000    0.000 
#
# Total GULP energy -267953.295506 kJ/mol
# GULP energy per Si atom -5582.360323 kJ/mol
# Density = 2.111899 g / cm^3
# Si number density = 21.167170 Si / 1000 Ang^3
#
#
#
# Elastic Constant Matrix: (Units=GPa)
#
#
# Indices 1 2 3 4 5 6 
#
# 1 46.0170 -13.8403 2.0557 0.0000 0.0000 -0.1784
# 2 -13.8403 46.0170 2.0557 0.0000 0.0000 0.1784
# 3 2.0557 2.0557 93.5171 0.0000 0.0000 0.0000
# 4 0.0000 0.0000 0.0000 25.5412 0.0000 0.0000
# 5 0.0000 0.0000 0.0000 0.0000 25.5412 0.0000
# 6 -0.1784 0.1784 0.0000 0.0000 0.0000 6.7133
#
#
#
# Elastic Compliance Matrix: (Units=1/GPa)
#
#
# Indices 1 2 3 4 5 6 
#
# 1 0.023937 0.007228 -0.000685 0.000000 0.000000 0.000444
# 2 0.007228 0.023937 -0.000685 0.000000 0.000000 -0.000444
# 3 -0.000685 -0.000685 0.010723 0.000000 0.000000 0.000000
# 4 0.000000 0.000000 0.000000 0.039152 0.000000 0.000000
# 5 0.000000 0.000000 0.000000 0.000000 0.039152 0.000000
# 6 0.000444 -0.000444 0.000000 0.000000 0.000000 0.148981
#
#
# Mechanical properties :
#
#
# Convention : Reuss Voigt Hill
#
# Bulk Modulus (GPa) = 14.22173 18.45480 16.33827
# Shear Modulus (GPa) = 16.80072 24.57782 20.68927
#
# Velocity S-wave (km/s) = 2.82035 3.41123 3.12977
# Velocity P-wave (km/s) = 4.16404 4.92472 4.56027
#
# Compressibility (1/GPa) = 0.07031491
#
# Stress axis : x y z
#
# Youngs Moduli (GPa) = 41.77546 41.77546 93.25446
#
# Poissons Ratio (x) = -0.30197 0.06389
# Poissons Ratio (y) = -0.30197 0.06389
# Poissons Ratio (z) = 0.02862 0.02862
#
# Static dielectric constant tensor:
#      x y z
#    x 1.779910 0.000000 0.000000 
#    y 0.000000 1.779910 0.000000 
#    z 0.000000 0.000000 1.781360 
# 
# From -- ./inp_files/1695.got.cif
#   From: 2010.05.17/outbox.cif.g08.bks.cpg/sg88_1_cif.got.tgz:1695.got - 2010.06.03 19:11:41.
