data_PCOD9546994
_publ_section_title
;
Structure prediction by ZEFSAII (Michael W. Deem and Ramdas Pophale) SiO2 
 PCOD9546994
Probable space group: P 4 2 2
;
_chemical_formula_sum "Si O2"
_cell_formula_units_Z 60
_cell_length_a 11.904647
_cell_length_b 11.904647
_cell_length_c 20.474728
_cell_angle_alpha 90.000000
_cell_angle_beta 90.000000
_cell_angle_gamma 90.000000
_cell_volume 2901.691150
_symmetry_space_group_name_H-M "P 4 2 2"
_symmetry_group_IT_number 89
_symmetry_cell_setting 'tetragonal'
loop_
_space_group_symop_operation_xyz
x,y,z
-y,x,z
-x,-y,z
y,-x,z
x,-y,-z
-x,y,-z
y,x,-z
-y,-x,-z
loop_
_atom_site_type_symbol
_atom_site_label
_atom_site_fract_x
_atom_site_fract_y
_atom_site_fract_z
Si Si1 0.142271 0.874118 0.237175
Si Si2 0.672893 0.044345 0.066541
Si Si3 0.311045 0.464136 0.432436
Si Si4 0.500000 0.000000 0.176907
Si Si5 0.456805 0.772402 0.757293
Si Si6 0.179975 0.763713 0.098523
Si Si7 0.682068 0.251319 0.315916
Si Si8 0.430664 0.332670 0.105493
O O1 0.190959 0.809529 0.173128
O O2 0.214053 0.829427 0.298823
O O3 0.009170 0.847349 0.236428
O O4 0.766412 0.950514 0.083118
O O5 0.590243 0.053504 0.127641
O O6 0.738289 0.158605 0.057734
O O7 0.619989 0.000000 0.000000
O O8 0.417577 0.378345 0.427565
O O9 0.249145 0.500000 0.500000
O O10 0.235583 0.394308 0.380975
O O11 0.441620 0.098926 0.218495
O O12 0.586032 0.766242 0.738002
O O13 0.375448 0.733995 0.698589
O O14 0.436508 0.686200 0.816480
O O15 0.221372 0.636282 0.086516
O O16 0.558119 0.358243 0.085390
#
# Coordination Sequence:
#
# PCOD9546994 Si02
#       8
#     8   8   8   4   8   8   8   8
#     4  11  23  40  60  87 127 175 215 269 343 398
#     4  12  26  43  64  85 113 158 220 276 337 418
#     4   9  18  34  56  89 136 178 206 236 288 357
#     4  12  25  42  58  88 125 166 202 274 354 400
#     4  12  23  34  59  91 131 163 209 258 332 402
#     4  12  23  42  62  89 117 159 209 279 342 405
#     4  12  22  35  58  98 130 172 211 264 306 393
#     4  11  21  36  58  88 120 160 195 249 332 412
#
# _framework density 20.677596999999999
#
# number of rings (size 3 to 8) (size 9 to 14) (size 15 to 20)
#    0.000    0.667    6.667    2.600    1.867    0.533 
#    0.000    0.667    0.000    0.000    0.000   17.267 
#    0.000    4.267    0.000    0.000    0.000    0.000 
#
# Total GULP energy -334206.296932 kJ/mol
# GULP energy per Si atom -5570.104949 kJ/mol
# Density = 2.063053 g / cm^3
# Si number density = 20.677597 Si / 1000 Ang^3
#
#
#
# Elastic Constant Matrix: (Units=GPa)
#
#
# Indices 1 2 3 4 5 6 
#
# 1 84.2478 30.6096 23.7658 0.0000 0.0000 0.0000
# 2 30.6096 84.2478 23.7658 0.0000 0.0000 0.0000
# 3 23.7658 23.7658 83.0315 0.0000 0.0000 0.0000
# 4 0.0000 0.0000 0.0000 24.5792 0.0000 0.0000
# 5 0.0000 0.0000 0.0000 0.0000 24.5792 0.0000
# 6 0.0000 0.0000 0.0000 0.0000 0.0000 34.2163
#
#
#
# Elastic Compliance Matrix: (Units=1/GPa)
#
#
# Indices 1 2 3 4 5 6 
#
# 1 0.014260 -0.004384 -0.002827 0.000000 0.000000 0.000000
# 2 -0.004384 0.014260 -0.002827 0.000000 0.000000 0.000000
# 3 -0.002827 -0.002827 0.013662 0.000000 0.000000 0.000000
# 4 0.000000 0.000000 0.000000 0.040685 0.000000 0.000000
# 5 0.000000 0.000000 0.000000 0.000000 0.040685 0.000000
# 6 0.000000 0.000000 0.000000 0.000000 0.000000 0.029226
#
#
# Mechanical properties :
#
#
# Convention : Reuss Voigt Hill
#
# Bulk Modulus (GPa) = 45.23447 45.31215 45.27331
# Shear Modulus (GPa) = 27.74377 28.23400 27.98889
#
# Velocity S-wave (km/s) = 3.66694 3.69919 3.68310
# Velocity P-wave (km/s) = 6.31286 6.34087 6.32688
#
# Compressibility (1/GPa) = 0.02210703
#
# Stress axis : x y z
#
# Youngs Moduli (GPa) = 70.12696 70.12696 73.19644
#
# Poissons Ratio (x) = 0.30741 0.20692
# Poissons Ratio (y) = 0.30741 0.20692
# Poissons Ratio (z) = 0.19824 0.19824
#
# Static dielectric constant tensor:
#      x y z
#    x 1.755590 0.000000 0.000000 
#    y 0.000000 1.755590 0.000000 
#    z 0.000000 0.000000 1.874260 
# 
# From -- ./inp_files/2648.got.cif
#   From: 2010.05.17/outbox.cif.g08.bks.cpg/sg89_2_cif.got.tgz:2648.got - 2010.06.03 19:15:31.
