data_PCOD9546712
_publ_section_title
;
Structure prediction by ZEFSAII (Michael W. Deem and Ramdas Pophale) SiO2 
 PCOD9546712
Probable space group: I 41/A
;
_chemical_formula_sum "Si O2"
_cell_formula_units_Z 48
_cell_length_a 6.808802
_cell_length_b 6.808802
_cell_length_c 29.257717
_cell_angle_alpha 90.000000
_cell_angle_beta 90.000000
_cell_angle_gamma 90.000000
_cell_volume 1356.381460
_symmetry_space_group_name_H-M "I 41/A"
_symmetry_group_IT_number 88
_space_group.IT_coordinate_system_code '2'
_symmetry_cell_setting 'tetragonal'
loop_
_space_group_symop_operation_xyz
x,y,z
3/4-y,1/4+x,1/4+z
-x,1/2-y,z
1/4+y,1/4-x,1/4+z
-x,-y,-z
1/4+y,3/4-x,3/4-z
x,1/2+y,-z
3/4-y,3/4+x,3/4-z
1/2+x,1/2+y,1/2+z
1/4-y,3/4+x,3/4+z
1/2-x,-y,1/2+z
3/4+y,3/4-x,3/4+z
1/2-x,1/2-y,1/2-z
3/4+y,1/4-x,1/4-z
1/2+x,y,1/2-z
1/4-y,1/4+x,1/4-z
loop_
_atom_site_type_symbol
_atom_site_label
_atom_site_fract_x
_atom_site_fract_y
_atom_site_fract_z
Si Si1 0.500000 0.983454 0.801677
Si Si2 0.745570 0.995570 0.125000
Si Si3 0.233740 0.250000 0.052679
O O1 0.500000 0.750000 0.797485
O O2 1.000000 0.007043 0.864168
O O3 0.500000 0.056317 0.749701
O O4 0.752346 0.025711 0.814428
O O5 0.742808 0.750000 0.110914
O O6 0.752346 0.974290 0.185572
O O7 0.000000 0.250000 0.049549
#
# Coordination Sequence:
#
# PCOD9546712 Si02
#       3
#    16  16  16
#     4  11  24  39  64  92 125 158 205 253 302 360
#     4  12  21  41  62  94 124 160 200 252 304 358
#     4  11  20  39  66  92 115 162 213 253 292 352
#
# _framework density 35.388280000000002
#
# number of rings (size 3 to 8) (size 9 to 14) (size 15 to 20)
#    0.000    0.667    6.667    2.000    0.000    6.000 
#    0.000   10.000    0.000    0.000    0.000    0.000 
#    0.000    0.000    0.000    0.000    0.000    0.000 
#
# Total GULP energy -134480.519472 kJ/mol
# GULP energy per Si atom -5603.354978 kJ/mol
# Density = 3.530773 g / cm^3
# Si number density = 35.388280 Si / 1000 Ang^3
#
#
#
# Elastic Constant Matrix: (Units=GPa)
#
#
# Indices 1 2 3 4 5 6 
#
# 1 419.2204 86.5120 221.2897 0.0000 0.0000 0.0000
# 2 86.5120 419.2203 221.2897 0.0000 0.0000 0.0000
# 3 221.2897 221.2897 528.2372 0.0000 0.0000 0.0000
# 4 0.0000 0.0000 0.0000 -22.5177 0.0000 0.0000
# 5 0.0000 0.0000 0.0000 0.0000 -22.5177 0.0000
# 6 0.0000 0.0000 0.0000 0.0000 0.0000 76.0154
#
#
#
# Elastic Compliance Matrix: (Units=1/GPa)
#
#
# Indices 1 2 3 4 5 6 
#
# 1 0.003064 0.000058 -0.001308 0.000000 0.000000 0.000000
# 2 0.000058 0.003064 -0.001308 0.000000 0.000000 0.000000
# 3 -0.001308 -0.001308 0.002989 0.000000 0.000000 0.000000
# 4 0.000000 0.000000 0.000000 -0.044409 0.000000 0.000000
# 5 0.000000 0.000000 0.000000 0.000000 -0.044409 0.000000
# 6 0.000000 0.000000 0.000000 0.000000 0.000000 0.013155
#
#
# Mechanical properties :
#
#
# Convention : Reuss Voigt Hill
#
# Bulk Modulus (GPa) = 249.92084 269.42899 259.67492
# Shear Modulus (GPa) = -83.19655 62.03508 -10.58073
#
# Velocity S-wave (km/s) = -4.85393 4.19141 -1.73101
# Velocity P-wave (km/s) = 6.27388 9.98620 8.33924
#
# Compressibility (1/GPa) = 0.00400127
#
# Stress axis : x y z
#
# Youngs Moduli (GPa) = 326.40001 326.40000 334.58081
#
# Poissons Ratio (x) = -0.01896 0.43756
# Poissons Ratio (y) = -0.01896 0.43756
# Poissons Ratio (z) = 0.42686 0.42686
#
# Static dielectric constant tensor:
#      x y z
#    x 2.679350 0.000000 0.000000 
#    y 0.000000 2.679350 0.000000 
#    z 0.000000 0.000000 2.644740 
# 
# From -- ./inp_files/6026.got.cif
#   From: 2010.05.17/outbox.cif.g08.bks.cpg/sg88_4_cif.got.tgz:6026.got - 2010.06.03 19:11:41.
