data_PCOD9546388
_publ_section_title
;
Structure prediction by ZEFSAII (Michael W. Deem and Ramdas Pophale) SiO2 
 PCOD9546388
Probable space group: I 41/A
;
_chemical_formula_sum "Si O2"
_cell_formula_units_Z 84
_cell_length_a 12.513747
_cell_length_b 12.513747
_cell_length_c 24.515302
_cell_angle_alpha 90.000000
_cell_angle_beta 90.000000
_cell_angle_gamma 90.000000
_cell_volume 3838.945867
_symmetry_space_group_name_H-M "I 41/A"
_symmetry_group_IT_number 88
_space_group.IT_coordinate_system_code '2'
_symmetry_cell_setting 'tetragonal'
loop_
_space_group_symop_operation_xyz
x,y,z
3/4-y,1/4+x,1/4+z
-x,1/2-y,z
1/4+y,1/4-x,1/4+z
-x,-y,-z
1/4+y,3/4-x,3/4-z
x,1/2+y,-z
3/4-y,3/4+x,3/4-z
1/2+x,1/2+y,1/2+z
1/4-y,3/4+x,3/4+z
1/2-x,-y,1/2+z
3/4+y,3/4-x,3/4+z
1/2-x,1/2-y,1/2-z
3/4+y,1/4-x,1/4-z
1/2+x,y,1/2-z
1/4-y,1/4+x,1/4-z
loop_
_atom_site_type_symbol
_atom_site_label
_atom_site_fract_x
_atom_site_fract_y
_atom_site_fract_z
Si Si1 0.373284 0.113679 0.112372
Si Si2 0.994149 0.487457 0.065819
Si Si3 0.384773 0.901229 0.043145
Si Si4 0.000000 0.250000 0.787563
Si Si5 0.500000 0.250000 0.455858
Si Si6 0.067962 0.595140 0.697748
Si Si7 0.500000 0.250000 0.875000
O O1 0.276461 0.149909 0.151768
O O2 0.402959 0.214770 0.075343
O O3 0.473733 0.092153 0.152895
O O4 0.364316 0.018032 0.068630
O O5 0.975531 0.361360 0.075053
O O6 0.904125 0.577595 0.077516
O O7 0.000000 0.500000 0.000000
O O8 0.269921 0.852594 0.032054
O O9 0.436102 0.836893 0.092247
O O10 0.463220 0.857113 0.995333
O O11 0.405486 0.224727 0.498781
#
# Coordination Sequence:
#
# PCOD9546388 Si02
#       7
#    16  16  16   8   8  16   4
#     4  12  21  45  72 105 145 196 250 306 381 453
#     4  10  20  41  73 104 139 193 240 309 377 448
#     4  11  25  40  68 104 141 192 244 301 373 446
#     4  11  25  47  68 102 152 192 251 307 371 452
#     4  10  21  42  71 107 140 182 245 298 372 464
#     4  11  20  41  71  99 144 189 237 306 376 439
#     4  10  20  40  62  96 140 176 230 304 358 420
#
# _framework density 21.881005999999999
#
# number of rings (size 3 to 8) (size 9 to 14) (size 15 to 20)
#    0.000    1.143    7.619    0.571    0.000    1.524 
#    6.857    1.905    0.000    1.143    0.000    0.000 
#    0.000    0.000    0.000    0.000    0.000    0.000 
#
# Total GULP energy -234024.584505 kJ/mol
# GULP energy per Si atom -5572.013917 kJ/mol
# Density = 2.183120 g / cm^3
# Si number density = 21.881006 Si / 1000 Ang^3
#
#
#
# Elastic Constant Matrix: (Units=GPa)
#
#
# Indices 1 2 3 4 5 6 
#
# 1 147.1159 36.6848 32.4150 0.0000 0.0000 8.2425
# 2 36.6848 147.1159 32.4150 0.0000 0.0000 -8.2425
# 3 32.4150 32.4150 83.0249 0.0000 0.0000 0.0000
# 4 0.0000 0.0000 0.0000 64.2816 0.0000 0.0000
# 5 0.0000 0.0000 0.0000 0.0000 64.2816 0.0000
# 6 8.2425 -8.2425 0.0000 0.0000 0.0000 27.8456
#
#
#
# Elastic Compliance Matrix: (Units=1/GPa)
#
#
# Indices 1 2 3 4 5 6 
#
# 1 0.007892 -0.001582 -0.002463 0.000000 0.000000 -0.002804
# 2 -0.001582 0.007892 -0.002463 0.000000 0.000000 0.002804
# 3 -0.002463 -0.002463 0.013968 0.000000 0.000000 0.000000
# 4 0.000000 0.000000 0.000000 0.015557 0.000000 0.000000
# 5 0.000000 0.000000 0.000000 0.000000 0.015557 0.000000
# 6 -0.002804 0.002804 0.000000 0.000000 0.000000 0.037572
#
#
# Mechanical properties :
#
#
# Convention : Reuss Voigt Hill
#
# Bulk Modulus (GPa) = 59.75994 64.47624 62.11809
# Shear Modulus (GPa) = 42.72285 49.66455 46.19370
#
# Velocity S-wave (km/s) = 4.42351 4.76936 4.59969
# Velocity P-wave (km/s) = 7.31167 7.73691 7.52730
#
# Compressibility (1/GPa) = 0.01673362
#
# Stress axis : x y z
#
# Youngs Moduli (GPa) = 126.71361 126.71361 71.59155
#
# Poissons Ratio (x) = 0.20049 0.17636
# Poissons Ratio (y) = 0.20049 0.17636
# Poissons Ratio (z) = 0.31215 0.31215
#
# Static dielectric constant tensor:
#      x y z
#    x 1.719920 0.000000 0.000000 
#    y 0.000000 1.719920 0.000000 
#    z 0.000000 0.000000 1.824210 
# 
# From -- ./inp_files/6492.got.cif
#   From: 2010.05.17/outbox.cif.g08.bks.cpg/sg88_4_cif.got.tgz:6492.got - 2010.06.03 19:11:41.
