data_PCOD9546846
_publ_section_title
;
Structure prediction by ZEFSAII (Michael W. Deem and Ramdas Pophale) SiO2 
 PCOD9546846
Probable space group: I 41/A
;
_chemical_formula_sum "Si O2"
_cell_formula_units_Z 68
_cell_length_a 13.948829
_cell_length_b 13.948829
_cell_length_c 19.873525
_cell_angle_alpha 90.000000
_cell_angle_beta 90.000000
_cell_angle_gamma 90.000000
_cell_volume 3866.788390
_symmetry_space_group_name_H-M "I 41/A"
_symmetry_group_IT_number 88
_space_group.IT_coordinate_system_code '2'
_symmetry_cell_setting 'tetragonal'
loop_
_space_group_symop_operation_xyz
x,y,z
3/4-y,1/4+x,1/4+z
-x,1/2-y,z
1/4+y,1/4-x,1/4+z
-x,-y,-z
1/4+y,3/4-x,3/4-z
x,1/2+y,-z
3/4-y,3/4+x,3/4-z
1/2+x,1/2+y,1/2+z
1/4-y,3/4+x,3/4+z
1/2-x,-y,1/2+z
3/4+y,3/4-x,3/4+z
1/2-x,1/2-y,1/2-z
3/4+y,1/4-x,1/4-z
1/2+x,y,1/2-z
1/4-y,1/4+x,1/4-z
loop_
_atom_site_type_symbol
_atom_site_label
_atom_site_fract_x
_atom_site_fract_y
_atom_site_fract_z
Si Si1 0.992675 0.134651 0.871502
Si Si2 0.309800 0.459063 0.178439
Si Si3 0.817741 0.246564 0.532714
Si Si4 0.186827 0.564742 0.062837
Si Si5 0.500000 0.250000 0.875000
O O1 0.890868 0.099381 0.899471
O O2 0.002563 0.099992 0.794634
O O3 0.000000 0.250000 0.874399
O O4 0.079593 0.088452 0.913451
O O5 0.400568 0.525124 0.196827
O O6 0.243831 0.511074 0.122766
O O7 0.249660 0.440432 0.246075
O O8 0.740351 0.164227 0.546535
O O9 0.910088 0.225817 0.578300
#
# Coordination Sequence:
#
# PCOD9546846 Si02
#       5
#    16  16  16  16   4
#     4  12  25  43  68  95 133 177 223 274 334 398
#     4  12  25  43  68  95 133 177 223 274 334 398
#     4  12  24  39  66 103 130 168 216 274 334 405
#     4  12  25  43  68  95 133 177 223 274 334 398
#     4  12  24  36  64 112 132 156 222 264 340 424
#
# _framework density 17.585654000000002
#
# number of rings (size 3 to 8) (size 9 to 14) (size 15 to 20)
#    0.000    0.000   10.588    0.706    0.000    0.000 
#    0.000    7.059    0.000    0.000    0.000    0.000 
#    0.000    0.000    0.000    0.000    0.000    0.000 
#
# Total GULP energy -190185.702931 kJ/mol
# GULP energy per Si atom -5593.697145 kJ/mol
# Density = 1.754563 g / cm^3
# Si number density = 17.585654 Si / 1000 Ang^3
#
#
#
# Elastic Constant Matrix: (Units=GPa)
#
#
# Indices 1 2 3 4 5 6 
#
# 1 76.1575 -2.6273 19.6582 0.0000 0.0000 1.2376
# 2 -2.6273 76.1575 19.6582 0.0000 0.0000 -1.2376
# 3 19.6582 19.6582 121.6918 0.0000 0.0000 0.0000
# 4 0.0000 0.0000 0.0000 32.0275 0.0000 0.0000
# 5 0.0000 0.0000 0.0000 0.0000 32.0275 0.0000
# 6 1.2376 -1.2376 0.0000 0.0000 0.0000 38.4462
#
#
#
# Elastic Compliance Matrix: (Units=1/GPa)
#
#
# Indices 1 2 3 4 5 6 
#
# 1 0.013796 0.001090 -0.002405 0.000000 0.000000 -0.000409
# 2 0.001090 0.013796 -0.002405 0.000000 0.000000 0.000409
# 3 -0.002405 -0.002405 0.008994 0.000000 0.000000 0.000000
# 4 0.000000 0.000000 0.000000 0.031223 0.000000 0.000000
# 5 0.000000 0.000000 0.000000 0.000000 0.031223 0.000000
# 6 -0.000409 0.000409 0.000000 0.000000 0.000000 0.026037
#
#
# Mechanical properties :
#
#
# Convention : Reuss Voigt Hill
#
# Bulk Modulus (GPa) = 34.30880 38.59834 36.45357
# Shear Modulus (GPa) = 35.15609 36.32143 35.73876
#
# Velocity S-wave (km/s) = 4.47602 4.54960 4.51296
# Velocity P-wave (km/s) = 6.80183 7.04236 6.92314
#
# Compressibility (1/GPa) = 0.02914704
#
# Stress axis : x y z
#
# Youngs Moduli (GPa) = 72.48675 72.48675 111.18061
#
# Poissons Ratio (x) = -0.07901 0.26735
# Poissons Ratio (y) = -0.07901 0.26735
# Poissons Ratio (z) = 0.17430 0.17430
#
# Static dielectric constant tensor:
#      x y z
#    x 1.565270 0.000000 0.000000 
#    y 0.000000 1.565270 0.000000 
#    z 0.000000 0.000000 1.561830 
# 
# From -- ./inp_files/3740.got.cif
#   From: 2010.05.17/outbox.cif.g08.bks.cpg/sg88_2_cif.got.tgz:3740.got - 2010.06.03 19:11:41.
