data_PCOD9546500
_publ_section_title
;
Structure prediction by ZEFSAII (Michael W. Deem and Ramdas Pophale) SiO2 
 PCOD9546500
Probable space group: I 41/A
;
_chemical_formula_sum "Si O2"
_cell_formula_units_Z 64
_cell_length_a 15.921947
_cell_length_b 15.921947
_cell_length_c 9.307992
_cell_angle_alpha 90.000000
_cell_angle_beta 90.000000
_cell_angle_gamma 90.000000
_cell_volume 2359.654124
_symmetry_space_group_name_H-M "I 41/A"
_symmetry_group_IT_number 88
_space_group.IT_coordinate_system_code '2'
_symmetry_cell_setting 'tetragonal'
loop_
_space_group_symop_operation_xyz
x,y,z
3/4-y,1/4+x,1/4+z
-x,1/2-y,z
1/4+y,1/4-x,1/4+z
-x,-y,-z
1/4+y,3/4-x,3/4-z
x,1/2+y,-z
3/4-y,3/4+x,3/4-z
1/2+x,1/2+y,1/2+z
1/4-y,3/4+x,3/4+z
1/2-x,-y,1/2+z
3/4+y,3/4-x,3/4+z
1/2-x,1/2-y,1/2-z
3/4+y,1/4-x,1/4-z
1/2+x,y,1/2-z
1/4-y,1/4+x,1/4-z
loop_
_atom_site_type_symbol
_atom_site_label
_atom_site_fract_x
_atom_site_fract_y
_atom_site_fract_z
Si Si1 0.604594 0.677383 0.611514
Si Si2 0.788757 0.653101 0.619498
Si Si3 0.826362 0.479211 0.447183
Si Si4 0.535085 0.116620 0.885521
O O1 0.520977 0.658987 0.702221
O O2 0.695936 0.668245 0.679192
O O3 0.599581 0.608786 0.488477
O O4 0.802716 0.567345 0.528292
O O5 0.806870 0.724013 0.501921
O O6 0.753575 0.425285 0.529060
O O7 0.913431 0.436396 0.496327
O O8 0.445342 0.157084 0.916956
#
# Coordination Sequence:
#
# PCOD9546500 Si02
#       4
#    16  16  16  16
#     4  11  25  45  70 103 144 189 237 302 368 425
#     4  11  22  47  67 102 140 181 245 294 354 445
#     4  10  21  42  64  97 137 177 241 290 354 428
#     4  10  23  42  65 100 137 180 234 300 362 426
#
# _framework density 27.122619
#
# number of rings (size 3 to 8) (size 9 to 14) (size 15 to 20)
#    0.000    1.500    5.000    0.750    0.000   10.000 
#    9.000    0.000    0.000    0.000    0.000    0.000 
#    0.000    0.000    0.000    0.000    0.000    0.000 
#
# Total GULP energy -179023.565080 kJ/mol
# GULP energy per Si atom -5594.486409 kJ/mol
# Density = 2.706089 g / cm^3
# Si number density = 27.122619 Si / 1000 Ang^3
#
#
#
# Elastic Constant Matrix: (Units=GPa)
#
#
# Indices 1 2 3 4 5 6 
#
# 1 171.5352 40.4328 22.3160 0.0000 0.0000 -1.2277
# 2 40.4328 171.5352 22.3160 0.0000 0.0000 1.2277
# 3 22.3160 22.3160 65.0293 0.0000 0.0000 0.0000
# 4 0.0000 0.0000 0.0000 30.7024 0.0000 0.0000
# 5 0.0000 0.0000 0.0000 0.0000 30.7024 0.0000
# 6 -1.2277 1.2277 0.0000 0.0000 0.0000 31.4973
#
#
#
# Elastic Compliance Matrix: (Units=1/GPa)
#
#
# Indices 1 2 3 4 5 6 
#
# 1 0.006359 -0.001274 -0.001745 0.000000 0.000000 0.000298
# 2 -0.001274 0.006359 -0.001745 0.000000 0.000000 -0.000298
# 3 -0.001745 -0.001745 0.016575 0.000000 0.000000 0.000000
# 4 0.000000 0.000000 0.000000 0.032571 0.000000 0.000000
# 5 0.000000 0.000000 0.000000 0.000000 0.032571 0.000000
# 6 0.000298 -0.000298 0.000000 0.000000 0.000000 0.031772
#
#
# Mechanical properties :
#
#
# Convention : Reuss Voigt Hill
#
# Bulk Modulus (GPa) = 50.59343 64.24771 57.42057
# Shear Modulus (GPa) = 35.13112 40.11607 37.62360
#
# Velocity S-wave (km/s) = 3.60289 3.85003 3.72851
# Velocity P-wave (km/s) = 6.00015 6.59568 6.30495
#
# Compressibility (1/GPa) = 0.01976541
#
# Stress axis : x y z
#
# Youngs Moduli (GPa) = 157.25336 157.25336 60.33048
#
# Poissons Ratio (x) = 0.20035 0.10528
# Poissons Ratio (y) = 0.20035 0.10528
# Poissons Ratio (z) = 0.27442 0.27442
#
# Static dielectric constant tensor:
#      x y z
#    x 2.203320 0.000000 0.000000 
#    y 0.000000 2.203320 0.000000 
#    z 0.000000 0.000000 2.123800 
# 
# From -- ./inp_files/2363.got.cif
#   From: 2010.05.17/outbox.cif.g08.bks.cpg/sg88_2_cif.got.tgz:2363.got - 2010.06.03 19:11:41.
