data_PCOD9546157
_publ_section_title
;
Structure prediction by ZEFSAII (Michael W. Deem and Ramdas Pophale) SiO2 
 PCOD9546157
Probable space group: I 4/M
;
_chemical_formula_sum "Si O2"
_cell_formula_units_Z 88
_cell_length_a 10.364871
_cell_length_b 10.364871
_cell_length_c 32.032648
_cell_angle_alpha 90.000000
_cell_angle_beta 90.000000
_cell_angle_gamma 90.000000
_cell_volume 3441.285020
_symmetry_space_group_name_H-M "I 4/M"
_symmetry_group_IT_number 87
_symmetry_cell_setting 'tetragonal'
loop_
_space_group_symop_operation_xyz
x,y,z
-y,x,z
-x,-y,z
y,-x,z
-x,-y,-z
y,-x,-z
x,y,-z
-y,x,-z
1/2+x,1/2+y,1/2+z
1/2-y,1/2+x,1/2+z
1/2-x,1/2-y,1/2+z
1/2+y,1/2-x,1/2+z
1/2-x,1/2-y,1/2-z
1/2+y,1/2-x,1/2-z
1/2+x,1/2+y,1/2-z
1/2-y,1/2+x,1/2-z
loop_
_atom_site_type_symbol
_atom_site_label
_atom_site_fract_x
_atom_site_fract_y
_atom_site_fract_z
Si Si1 0.686962 0.610948 0.547370
Si Si2 0.006671 0.781217 0.500000
Si Si3 0.718103 0.527635 0.912659
Si Si4 0.075184 0.302368 0.296916
Si Si5 0.206343 0.582603 0.293669
Si Si6 0.250659 0.765928 0.867140
O O1 0.542995 0.671063 0.548355
O O2 0.740086 0.641575 0.500000
O O3 0.745475 0.660361 0.591645
O O4 0.018970 0.709288 0.456773
O O5 0.883788 0.875300 0.500000
O O6 0.602223 0.634773 0.911473
O O7 0.809569 0.605731 0.881963
O O8 0.148768 0.439668 0.295772
O O9 0.101855 0.234365 0.252356
O O10 0.135980 0.241212 0.338379
O O11 0.923493 0.330060 0.296323
O O12 0.290471 0.626129 0.333105
#
# Coordination Sequence:
#
# PCOD9546157 Si02
#       6
#    16   8  16  16  16  16
#     4   9  20  38  54  70  98 132 162 199 250 299
#     4   7  12  26  42  54  80 123 158 180 218 281
#     4   9  18  30  44  67 101 134 160 194 243 292
#     4   9  19  35  51  70 101 135 162 196 249 305
#     4   9  19  35  51  70 101 135 162 196 249 305
#     4  12  19  28  54  81  96 118 173 217 238 273
#
# _framework density 25.571842
#
# number of rings (size 3 to 8) (size 9 to 14) (size 15 to 20)
#    0.000    2.636    0.000    5.455    1.273    0.000 
#    0.000    0.000    0.000    0.000    0.000   22.909 
#    0.000    0.000    0.000    0.000    0.000    0.000 
#
# Total GULP energy -245046.450853 kJ/mol
# GULP energy per Si atom -5569.237519 kJ/mol
# Density = 2.551364 g / cm^3
# Si number density = 25.571842 Si / 1000 Ang^3
#
#
#
# Elastic Constant Matrix: (Units=GPa)
#
#
# Indices 1 2 3 4 5 6 
#
# 1 27.9505 -9.5149 1.9630 0.0000 0.0000 -10.6079
# 2 -9.5149 27.9504 1.9630 0.0000 0.0000 10.6079
# 3 1.9630 1.9630 206.9963 0.0000 0.0000 0.0000
# 4 0.0000 0.0000 0.0000 23.6204 0.0000 0.0000
# 5 0.0000 0.0000 0.0000 0.0000 23.6204 0.0000
# 6 -10.6079 10.6079 0.0000 0.0000 0.0000 23.2238
#
#
#
# Elastic Compliance Matrix: (Units=1/GPa)
#
#
# Indices 1 2 3 4 5 6 
#
# 1 0.045178 0.009174 -0.000515 0.000000 0.000000 0.016446
# 2 0.009174 0.045178 -0.000515 0.000000 0.000000 -0.016446
# 3 -0.000515 -0.000515 0.004841 0.000000 0.000000 0.000000
# 4 0.000000 0.000000 0.000000 0.042336 0.000000 0.000000
# 5 0.000000 0.000000 0.000000 0.000000 0.042336 0.000000
# 6 0.016446 -0.016446 0.000000 0.000000 0.000000 0.058083
#
#
# Mechanical properties :
#
#
# Convention : Reuss Voigt Hill
#
# Bulk Modulus (GPa) = 8.96986 27.96884 18.46935
# Shear Modulus (GPa) = 19.31788 31.99201 25.65494
#
# Velocity S-wave (km/s) = 2.75150 3.54088 3.17085
# Velocity P-wave (km/s) = 3.68913 5.26100 4.54356
#
# Compressibility (1/GPa) = 0.11148444
#
# Stress axis : x y z
#
# Youngs Moduli (GPa) = 22.13446 22.13446 206.57829
#
# Poissons Ratio (x) = -0.20307 0.10648
# Poissons Ratio (y) = -0.20307 0.10648
# Poissons Ratio (z) = 0.01141 0.01141
#
# Static dielectric constant tensor:
#      x y z
#    x 2.061170 0.000000 0.000000 
#    y 0.000000 2.061170 0.000000 
#    z 0.000000 0.000000 2.203540 
# 
# From -- ./inp_files/5764.got.cif
#   From: 2010.05.17/outbox.cif.g08.bks.cpg/sg87_3_cif.got.tgz:5764.got - 2010.06.03 19:07:00.
