data_PCOD9546344
_publ_section_title
;
Structure prediction by ZEFSAII (Michael W. Deem and Ramdas Pophale) SiO2 
 PCOD9546344
Probable space group: I 41/A
;
_chemical_formula_sum "Si O2"
_cell_formula_units_Z 108
_cell_length_a 16.700761
_cell_length_b 16.700761
_cell_length_c 16.618090
_cell_angle_alpha 90.000000
_cell_angle_beta 90.000000
_cell_angle_gamma 90.000000
_cell_volume 4635.041518
_symmetry_space_group_name_H-M "I 41/A"
_symmetry_group_IT_number 88
_space_group.IT_coordinate_system_code '2'
_symmetry_cell_setting 'tetragonal'
loop_
_space_group_symop_operation_xyz
x,y,z
3/4-y,1/4+x,1/4+z
-x,1/2-y,z
1/4+y,1/4-x,1/4+z
-x,-y,-z
1/4+y,3/4-x,3/4-z
x,1/2+y,-z
3/4-y,3/4+x,3/4-z
1/2+x,1/2+y,1/2+z
1/4-y,3/4+x,3/4+z
1/2-x,-y,1/2+z
3/4+y,3/4-x,3/4+z
1/2-x,1/2-y,1/2-z
3/4+y,1/4-x,1/4-z
1/2+x,y,1/2-z
1/4-y,1/4+x,1/4-z
loop_
_atom_site_type_symbol
_atom_site_label
_atom_site_fract_x
_atom_site_fract_y
_atom_site_fract_z
Si Si1 0.275515 0.223780 0.341483
Si Si2 0.385221 0.282209 0.743419
Si Si3 0.107603 0.532871 0.537988
Si Si4 0.500000 0.250000 0.149976
Si Si5 0.500000 0.750000 0.125000
Si Si6 0.209547 0.998197 0.947918
Si Si7 0.629496 0.128420 0.183704
Si Si8 0.175939 0.123979 0.059089
O O1 0.250000 0.250000 0.250000
O O2 0.197097 0.174596 0.369240
O O3 0.350576 0.164556 0.331508
O O4 0.297044 0.291719 0.405863
O O5 0.300633 0.325376 0.753347
O O6 0.357771 0.188810 0.750978
O O7 0.436185 0.291740 0.661406
O O8 0.443863 0.301139 0.816395
O O9 0.201440 0.525442 0.531661
O O10 0.093479 0.554661 0.632816
O O11 0.561749 0.195062 0.199633
O O12 0.154125 0.932356 0.993173
O O13 0.188078 0.090070 0.969466
O O14 0.190156 0.981645 0.855803
#
# Coordination Sequence:
#
# PCOD9546344 Si02
#       8
#    16  16  16   8   4  16  16  16
#     4  11  22  44  65  94 135 171 224 290 339 416
#     4   9  21  36  59  87 125 158 203 262 325 381
#     4  10  20  39  61  89 121 165 213 263 314 397
#     4   9  20  41  56  88 125 168 195 264 336 388
#     4  10  20  36  56  88 120 160 194 256 322 384
#     4  11  21  40  65  93 122 173 223 273 338 402
#     4  10  21  39  64  85 129 163 212 270 330 387
#     4  11  23  42  68  93 131 174 221 287 346 405
#
# _framework density 23.300763
#
# number of rings (size 3 to 8) (size 9 to 14) (size 15 to 20)
#    0.000    1.778    5.926    0.000    4.148    0.296 
#    2.667    0.000    0.000    0.000    0.000    0.000 
#    0.000    0.000    0.000    0.000    0.000    0.000 
#
# Total GULP energy -301061.180882 kJ/mol
# GULP energy per Si atom -5575.207053 kJ/mol
# Density = 2.324773 g / cm^3
# Si number density = 23.300763 Si / 1000 Ang^3
#
#
#
# Elastic Constant Matrix: (Units=GPa)
#
#
# Indices 1 2 3 4 5 6 
#
# 1 85.2825 -7.3218 -7.9300 0.0000 0.0000 -9.1530
# 2 -7.3218 85.2825 -7.9300 0.0000 0.0000 9.1530
# 3 -7.9300 -7.9300 27.2737 0.0000 0.0000 0.0000
# 4 0.0000 0.0000 0.0000 20.8172 0.0000 0.0000
# 5 0.0000 0.0000 0.0000 0.0000 20.8172 0.0000
# 6 -9.1530 9.1530 0.0000 0.0000 0.0000 32.0911
#
#
#
# Elastic Compliance Matrix: (Units=1/GPa)
#
#
# Indices 1 2 3 4 5 6 
#
# 1 0.012539 0.001095 0.003964 0.000000 0.000000 0.003264
# 2 0.001095 0.012539 0.003964 0.000000 0.000000 -0.003264
# 3 0.003964 0.003964 0.038970 0.000000 0.000000 0.000000
# 4 0.000000 0.000000 0.000000 0.048037 0.000000 0.000000
# 5 0.000000 0.000000 0.000000 0.000000 0.048037 0.000000
# 6 0.003264 -0.003264 0.000000 0.000000 0.000000 0.033023
#
#
# Mechanical properties :
#
#
# Convention : Reuss Voigt Hill
#
# Bulk Modulus (GPa) = 12.18130 16.83059 14.50594
# Shear Modulus (GPa) = 24.69571 29.47979 27.08775
#
# Velocity S-wave (km/s) = 3.25909 3.56080 3.41328
# Velocity P-wave (km/s) = 4.40471 4.91372 4.66616
#
# Compressibility (1/GPa) = 0.08209308
#
# Stress axis : x y z
#
# Youngs Moduli (GPa) = 79.75356 79.75356 25.66050
#
# Poissons Ratio (x) = -0.08731 -0.10172
# Poissons Ratio (y) = -0.08731 -0.10172
# Poissons Ratio (z) = -0.31614 -0.31614
#
# Static dielectric constant tensor:
#      x y z
#    x 1.931460 0.000000 0.000000 
#    y 0.000000 1.931460 0.000000 
#    z 0.000000 0.000000 1.943570 
# 
# From -- ./inp_files/4849.got.cif
#   From: 2010.05.17/outbox.cif.g08.bks.cpg/sg88_3_cif.got.tgz:4849.got - 2010.06.03 19:11:41.
