data_PCOD9546956
_publ_section_title
;
Structure prediction by ZEFSAII (Michael W. Deem and Ramdas Pophale) SiO2 
 PCOD9546956
Probable space group: P 4 2 2
;
_chemical_formula_sum "Si O2"
_cell_formula_units_Z 40
_cell_length_a 13.587120
_cell_length_b 13.587120
_cell_length_c 8.529922
_cell_angle_alpha 90.000000
_cell_angle_beta 90.000000
_cell_angle_gamma 90.000000
_cell_volume 1574.707449
_symmetry_space_group_name_H-M "P 4 2 2"
_symmetry_group_IT_number 89
_symmetry_cell_setting 'tetragonal'
loop_
_space_group_symop_operation_xyz
x,y,z
-y,x,z
-x,-y,z
y,-x,z
x,-y,-z
-x,y,-z
y,x,-z
-y,-x,-z
loop_
_atom_site_type_symbol
_atom_site_label
_atom_site_fract_x
_atom_site_fract_y
_atom_site_fract_z
Si Si1 0.000000 0.319504 0.000000
Si Si2 0.139526 0.139526 0.000000
Si Si3 0.120075 0.191041 0.336770
Si Si4 0.938064 0.596930 0.313428
Si Si5 0.685347 0.712342 0.183099
Si Si6 0.516607 0.271907 0.331401
O O1 0.090083 0.246141 0.956725
O O2 0.952770 0.388649 0.870627
O O3 0.133607 0.090573 0.823870
O O4 0.133644 0.133644 0.500000
O O5 0.050919 0.287399 0.359032
O O6 0.226807 0.237124 0.282685
O O7 0.830190 0.570286 0.369261
O O8 0.000000 0.500000 0.350924
O O9 0.672986 0.597343 0.228766
O O10 0.581124 0.755403 0.235606
O O11 0.712272 0.712272 0.000000
O O12 0.500000 0.320964 0.500000
#
# Coordination Sequence:
#
# PCOD9546956 Si02
#       6
#     4   4   8   8   8   8
#     4  10  23  43  68 104 140 180 234 291 361 432
#     4  10  22  43  68  98 132 185 226 286 356 438
#     4  10  21  42  67  94 136 188 227 276 359 437
#     4  10  23  40  65 101 139 174 230 295 350 408
#     4  11  22  38  62  89 124 178 230 278 343 414
#     4  11  24  42  61  92 132 175 228 286 347 412
#
# _framework density 25.401541999999999
#
# number of rings (size 3 to 8) (size 9 to 14) (size 15 to 20)
#    0.000    1.600    1.000    3.900    2.800    4.200 
#    3.600    5.000    0.000    0.000    0.000    5.600 
#    0.000    0.000    0.000    0.000    0.000    0.000 
#
# Total GULP energy -222735.449658 kJ/mol
# GULP energy per Si atom -5568.386241 kJ/mol
# Density = 2.534373 g / cm^3
# Si number density = 25.401542 Si / 1000 Ang^3
#
#
#
# Elastic Constant Matrix: (Units=GPa)
#
#
# Indices 1 2 3 4 5 6 
#
# 1 60.7781 20.6245 21.5994 0.0000 0.0000 0.0000
# 2 20.6245 60.7781 21.5994 0.0000 0.0000 0.0000
# 3 21.5994 21.5994 183.8407 0.0000 0.0000 0.0000
# 4 0.0000 0.0000 0.0000 42.7242 0.0000 0.0000
# 5 0.0000 0.0000 0.0000 0.0000 42.7242 0.0000
# 6 0.0000 0.0000 0.0000 0.0000 0.0000 11.6164
#
#
#
# Elastic Compliance Matrix: (Units=1/GPa)
#
#
# Indices 1 2 3 4 5 6 
#
# 1 0.019003 -0.005901 -0.001539 0.000000 0.000000 0.000000
# 2 -0.005901 0.019003 -0.001539 0.000000 0.000000 0.000000
# 3 -0.001539 -0.001539 0.005801 0.000000 0.000000 0.000000
# 4 0.000000 0.000000 0.000000 0.023406 0.000000 0.000000
# 5 0.000000 0.000000 0.000000 0.000000 0.023406 0.000000
# 6 0.000000 0.000000 0.000000 0.000000 0.000000 0.086085
#
#
# Mechanical properties :
#
#
# Convention : Reuss Voigt Hill
#
# Bulk Modulus (GPa) = 38.68920 48.11595 43.40257
# Shear Modulus (GPa) = 24.59667 35.51786 30.05727
#
# Velocity S-wave (km/s) = 3.11515 3.74338 3.44362
# Velocity P-wave (km/s) = 5.31065 6.13736 5.73891
#
# Compressibility (1/GPa) = 0.02584701
#
# Stress axis : x y z
#
# Youngs Moduli (GPa) = 52.62345 52.62345 172.37828
#
# Poissons Ratio (x) = 0.31055 0.26534
# Poissons Ratio (y) = 0.31055 0.26534
# Poissons Ratio (z) = 0.08100 0.08100
#
# Static dielectric constant tensor:
#      x y z
#    x 2.068990 0.000000 0.000000 
#    y 0.000000 2.068990 0.000000 
#    z 0.000000 0.000000 1.972780 
# 
# From -- ./inp_files/1078.got.cif
#   From: 2010.05.17/outbox.cif.g08.bks.cpg/sg89_1_cif.got.tgz:1078.got - 2010.06.03 19:15:31.
