data_PCOD9546866
_publ_section_title
;
Structure prediction by ZEFSAII (Michael W. Deem and Ramdas Pophale) SiO2 
 PCOD9546866
Probable space group: I 41/A
;
_chemical_formula_sum "Si O2"
_cell_formula_units_Z 48
_cell_length_a 16.711657
_cell_length_b 16.711657
_cell_length_c 6.532388
_cell_angle_alpha 90.000000
_cell_angle_beta 90.000000
_cell_angle_gamma 90.000000
_cell_volume 1824.361922
_symmetry_space_group_name_H-M "I 41/A"
_symmetry_group_IT_number 88
_space_group.IT_coordinate_system_code '2'
_symmetry_cell_setting 'tetragonal'
loop_
_space_group_symop_operation_xyz
x,y,z
3/4-y,1/4+x,1/4+z
-x,1/2-y,z
1/4+y,1/4-x,1/4+z
-x,-y,-z
1/4+y,3/4-x,3/4-z
x,1/2+y,-z
3/4-y,3/4+x,3/4-z
1/2+x,1/2+y,1/2+z
1/4-y,3/4+x,3/4+z
1/2-x,-y,1/2+z
3/4+y,3/4-x,3/4+z
1/2-x,1/2-y,1/2-z
3/4+y,1/4-x,1/4-z
1/2+x,y,1/2-z
1/4-y,1/4+x,1/4-z
loop_
_atom_site_type_symbol
_atom_site_label
_atom_site_fract_x
_atom_site_fract_y
_atom_site_fract_z
Si Si1 0.928376 0.814712 0.175577
Si Si2 0.162652 0.079705 0.506126
Si Si3 0.330332 0.285851 0.334182
O O1 0.040683 0.906642 0.673229
O O2 0.000000 0.750000 0.199861
O O3 0.967350 0.859175 0.984450
O O4 0.162571 0.990195 0.408108
O O5 0.371809 0.158983 0.892990
O O6 0.164470 0.134420 0.302567
O O7 0.250000 0.250000 0.250000
#
# Coordination Sequence:
#
# PCOD9546866 Si02
#       3
#    16  16  16
#     4  12  27  51  81 120 166 213 279 352 418 502
#     4  12  32  52  84 123 171 225 284 347 431 512
#     4  12  26  49  81 116 163 219 280 349 423 494
#
# _framework density 26.310568
#
# number of rings (size 3 to 8) (size 9 to 14) (size 15 to 20)
#    0.000    0.000    3.333    4.000   14.000    4.000 
#    0.000    0.000    0.000    0.000    0.000    0.000 
#    0.000    0.000    0.000    0.000    0.000    0.000 
#
# Total GULP energy -133677.367329 kJ/mol
# GULP energy per Si atom -5569.890305 kJ/mol
# Density = 2.625068 g / cm^3
# Si number density = 26.310568 Si / 1000 Ang^3
#
#
#
# Elastic Constant Matrix: (Units=GPa)
#
#
# Indices 1 2 3 4 5 6 
#
# 1 89.8470 80.2092 79.9571 0.0000 0.0000 9.4566
# 2 80.2092 89.8470 79.9571 0.0000 0.0000 -9.4566
# 3 79.9571 79.9571 180.9680 0.0000 0.0000 0.0000
# 4 0.0000 0.0000 0.0000 27.1113 0.0000 0.0000
# 5 0.0000 0.0000 0.0000 0.0000 27.1113 0.0000
# 6 9.4566 -9.4566 0.0000 0.0000 0.0000 29.0233
#
#
#
# Elastic Compliance Matrix: (Units=1/GPa)
#
#
# Indices 1 2 3 4 5 6 
#
# 1 0.148898 -0.138838 -0.004445 0.000000 0.000000 -0.093752
# 2 -0.138838 0.148898 -0.004445 0.000000 0.000000 0.093752
# 3 -0.004445 -0.004445 0.009454 0.000000 0.000000 0.000000
# 4 0.000000 0.000000 0.000000 0.036885 0.000000 0.000000
# 5 0.000000 0.000000 0.000000 0.000000 0.036885 0.000000
# 6 -0.093752 0.093752 0.000000 0.000000 0.000000 0.095549
#
#
# Mechanical properties :
#
#
# Convention : Reuss Voigt Hill
#
# Bulk Modulus (GPa) = 84.78568 93.43431 89.10999
# Shear Modulus (GPa) = 6.44368 24.68508 15.56438
#
# Velocity S-wave (km/s) = 1.56665 3.06636 2.43485
# Velocity P-wave (km/s) = 5.96384 6.93729 6.46890
#
# Compressibility (1/GPa) = 0.01179445
#
# Stress axis : x y z
#
# Youngs Moduli (GPa) = 6.71601 6.71601 105.77948
#
# Poissons Ratio (x) = 0.93244 0.47018
# Poissons Ratio (y) = 0.93244 0.47018
# Poissons Ratio (z) = 0.02985 0.02985
#
# Static dielectric constant tensor:
#      x y z
#    x 2.330900 0.000000 0.000000 
#    y 0.000000 2.330900 0.000000 
#    z 0.000000 0.000000 2.121700 
# 
# From -- ./inp_files/1330.got.cif
#   From: 2010.05.17/outbox.cif.g08.bks.cpg/sg88_1_cif.got.tgz:1330.got - 2010.06.03 19:11:41.
