data_PCOD9546502
_publ_section_title
;
Structure prediction by ZEFSAII (Michael W. Deem and Ramdas Pophale) SiO2 
 PCOD9546502
Probable space group: I 41/A
;
_chemical_formula_sum "Si O2"
_cell_formula_units_Z 96
_cell_length_a 13.900412
_cell_length_b 13.900412
_cell_length_c 19.612216
_cell_angle_alpha 90.000000
_cell_angle_beta 90.000000
_cell_angle_gamma 90.000000
_cell_volume 3789.500887
_symmetry_space_group_name_H-M "I 41/A"
_symmetry_group_IT_number 88
_space_group.IT_coordinate_system_code '2'
_symmetry_cell_setting 'tetragonal'
loop_
_space_group_symop_operation_xyz
x,y,z
3/4-y,1/4+x,1/4+z
-x,1/2-y,z
1/4+y,1/4-x,1/4+z
-x,-y,-z
1/4+y,3/4-x,3/4-z
x,1/2+y,-z
3/4-y,3/4+x,3/4-z
1/2+x,1/2+y,1/2+z
1/4-y,3/4+x,3/4+z
1/2-x,-y,1/2+z
3/4+y,3/4-x,3/4+z
1/2-x,1/2-y,1/2-z
3/4+y,1/4-x,1/4-z
1/2+x,y,1/2-z
1/4-y,1/4+x,1/4-z
loop_
_atom_site_type_symbol
_atom_site_label
_atom_site_fract_x
_atom_site_fract_y
_atom_site_fract_z
Si Si1 0.021380 0.643770 0.486481
Si Si2 0.220978 0.127384 0.825480
Si Si3 0.192419 0.922205 0.033413
Si Si4 0.414638 0.046483 0.661919
Si Si5 0.035212 0.381162 0.160412
Si Si6 0.532258 0.357375 0.191191
O O1 0.063484 0.571548 0.430430
O O2 0.100817 0.654877 0.548642
O O3 0.000000 0.750000 0.461759
O O4 0.926158 0.593627 0.516493
O O5 0.160697 0.144880 0.892826
O O6 0.256835 0.020713 0.815235
O O7 0.101952 0.953993 0.080193
O O8 0.180548 0.808557 0.052053
O O9 0.233845 0.912464 0.956581
O O10 0.518356 0.994422 0.666545
O O11 0.073698 0.158847 0.147385
O O12 0.072808 0.346110 0.232903
O O13 0.500000 0.250000 0.169188
#
# Coordination Sequence:
#
# PCOD9546502 Si02
#       6
#    16  16  16  16  16  16
#     4  10  21  43  69  99 142 193 245 303 375 449
#     4  10  22  40  67 102 136 188 251 305 360 457
#     4  10  23  42  63 104 139 185 249 305 363 463
#     4  10  22  41  64  96 143 180 240 302 363 451
#     4  10  21  42  65 101 139 184 243 306 363 444
#     4  11  21  43  75 100 147 200 245 307 386 451
#
# _framework density 25.333151999999998
#
# number of rings (size 3 to 8) (size 9 to 14) (size 15 to 20)
#    0.000    1.833    3.333    0.500    0.000    2.667 
#    9.000    1.667    0.000    0.000    0.000    0.000 
#    0.000    0.000    0.000    0.000    0.000    0.000 
#
# Total GULP energy -267414.040995 kJ/mol
# GULP energy per Si atom -5571.125854 kJ/mol
# Density = 2.527549 g / cm^3
# Si number density = 25.333152 Si / 1000 Ang^3
#
#
#
# Elastic Constant Matrix: (Units=GPa)
#
#
# Indices 1 2 3 4 5 6 
#
# 1 92.0194 33.6834 4.0220 0.0000 0.0000 10.6111
# 2 33.6834 92.0194 4.0220 0.0000 0.0000 -10.6111
# 3 4.0220 4.0220 63.2746 0.0000 0.0000 0.0000
# 4 0.0000 0.0000 0.0000 16.6822 0.0000 0.0000
# 5 0.0000 0.0000 0.0000 0.0000 16.6822 0.0000
# 6 10.6111 -10.6111 0.0000 0.0000 0.0000 48.5067
#
#
#
# Elastic Compliance Matrix: (Units=1/GPa)
#
#
# Indices 1 2 3 4 5 6 
#
# 1 0.013306 -0.005318 -0.000508 0.000000 0.000000 -0.004074
# 2 -0.005318 0.013306 -0.000508 0.000000 0.000000 0.004074
# 3 -0.000508 -0.000508 0.015869 0.000000 0.000000 0.000000
# 4 0.000000 0.000000 0.000000 0.059944 0.000000 0.000000
# 5 0.000000 0.000000 0.000000 0.000000 0.059944 0.000000
# 6 -0.004074 0.004074 0.000000 0.000000 0.000000 0.022398
#
#
# Mechanical properties :
#
#
# Convention : Reuss Voigt Hill
#
# Bulk Modulus (GPa) = 33.54211 36.75201 35.14706
# Shear Modulus (GPa) = 24.11120 30.07994 27.09557
#
# Velocity S-wave (km/s) = 3.08842 3.44957 3.27398
# Velocity P-wave (km/s) = 5.09773 5.51407 5.30999
#
# Compressibility (1/GPa) = 0.02981327
#
# Stress axis : x y z
#
# Youngs Moduli (GPa) = 75.15409 75.15409 63.01726
#
# Poissons Ratio (x) = 0.39969 0.03200
# Poissons Ratio (y) = 0.39969 0.03200
# Poissons Ratio (z) = 0.03816 0.03816
#
# Static dielectric constant tensor:
#      x y z
#    x 2.075200 0.000000 0.000000 
#    y 0.000000 2.075200 0.000000 
#    z 0.000000 0.000000 2.056390 
# 
# From -- ./inp_files/4717.got.cif
#   From: 2010.05.17/outbox.cif.g08.bks.cpg/sg88_3_cif.got.tgz:4717.got - 2010.06.03 19:11:41.
