data_PCOD9546885
_publ_section_title
;
Structure prediction by ZEFSAII (Michael W. Deem and Ramdas Pophale) SiO2 
 PCOD9546885
Probable space group: I 41/A
;
_chemical_formula_sum "Si O2"
_cell_formula_units_Z 32
_cell_length_a 24.000000
_cell_length_b 24.000000
_cell_length_c 6.000000
_cell_angle_alpha 90.000000
_cell_angle_beta 90.000000
_cell_angle_gamma 90.000000
_cell_volume 3456.000000
_symmetry_space_group_name_H-M "I 41/A"
_symmetry_group_IT_number 88
_space_group.IT_coordinate_system_code '2'
_symmetry_cell_setting 'tetragonal'
loop_
_space_group_symop_operation_xyz
x,y,z
3/4-y,1/4+x,1/4+z
-x,1/2-y,z
1/4+y,1/4-x,1/4+z
-x,-y,-z
1/4+y,3/4-x,3/4-z
x,1/2+y,-z
3/4-y,3/4+x,3/4-z
1/2+x,1/2+y,1/2+z
1/4-y,3/4+x,3/4+z
1/2-x,-y,1/2+z
3/4+y,3/4-x,3/4+z
1/2-x,1/2-y,1/2-z
3/4+y,1/4-x,1/4-z
1/2+x,y,1/2-z
1/4-y,1/4+x,1/4-z
loop_
_atom_site_type_symbol
_atom_site_label
_atom_site_fract_x
_atom_site_fract_y
_atom_site_fract_z
Si Si1 0.531125 0.334995 0.370310
Si Si2 0.308671 0.285771 0.061819
Si Si3 0.115827 0.405330 0.423536
Si Si4 0.769823 0.166188 0.434173
O O1 0.562524 0.279305 0.462005
O O2 0.521781 0.387024 0.536716
O O3 0.573116 0.361752 0.191324
O O4 0.256254 0.311333 0.199992
O O5 0.289624 0.225863 0.958489
O O6 0.329692 0.335625 0.904830
O O7 0.176921 0.375736 0.427501
O O8 0.112640 0.465497 0.297038
#
# Coordination Sequence:
#
# PCOD9546885 Si02
#       4
#    16  16  16  16
#     4  10  21  36  59  95 131 158 200 260 308 366
#     4  10  22  41  66  87 128 163 202 255 306 374
#     4  11  23  40  66  90 122 168 210 250 311 371
#     4  10  23  43  59  95 123 162 209 254 306 362
#
# _framework density 9.2592590000000001
#
# number of rings (size 3 to 8) (size 9 to 14) (size 15 to 20)
#    0.000    1.750    2.500    0.750    3.500    4.000 
#    4.500    2.500    0.000    0.000    0.000    0.000 
#    0.000    0.000    0.000    0.000    0.000    0.000 
#
# Total GULP energy -178185.602129 kJ/mol
# GULP energy per Si atom -5568.300067 kJ/mol
# Density = 0.923818 g / cm^3
# Si number density = 9.259259 Si / 1000 Ang^3
#
#
#
# Elastic Constant Matrix: (Units=GPa)
#
#
# Indices 1 2 3 4 5 6 
#
# 1 157.7562 62.6519 26.6396 0.0000 0.0000 -10.5967
# 2 62.6519 157.7562 26.6396 0.0000 0.0000 10.5967
# 3 26.6396 26.6396 24.7247 0.0000 0.0000 0.0000
# 4 0.0000 0.0000 0.0000 22.8576 0.0000 0.0000
# 5 0.0000 0.0000 0.0000 0.0000 22.8576 0.0000
# 6 -10.5967 10.5967 0.0000 0.0000 0.0000 57.2198
#
#
#
# Elastic Compliance Matrix: (Units=1/GPa)
#
#
# Indices 1 2 3 4 5 6 
#
# 1 0.008551 -0.002416 -0.006610 0.000000 0.000000 0.002031
# 2 -0.002416 0.008551 -0.006610 0.000000 0.000000 -0.002031
# 3 -0.006610 -0.006610 0.054689 0.000000 0.000000 0.000000
# 4 0.000000 0.000000 0.000000 0.043749 0.000000 0.000000
# 5 0.000000 0.000000 0.000000 0.000000 0.043749 0.000000
# 6 0.002031 -0.002031 0.000000 0.000000 0.000000 0.018229
#
#
# Mechanical properties :
#
#
# Convention : Reuss Voigt Hill
#
# Bulk Modulus (GPa) = 24.67981 63.56657 44.12319
# Shear Modulus (GPa) = 22.49239 35.54074 29.01657
#
# Velocity S-wave (km/s) = 3.48888 4.38562 3.96270
# Velocity P-wave (km/s) = 5.43927 7.74889 6.69444
#
# Compressibility (1/GPa) = 0.04051895
#
# Stress axis : x y z
#
# Youngs Moduli (GPa) = 116.94368 116.94368 18.28514
#
# Poissons Ratio (x) = 0.28257 0.12086
# Poissons Ratio (y) = 0.28257 0.12086
# Poissons Ratio (z) = 0.77300 0.77300
#
# Static dielectric constant tensor:
#      x y z
#    x 1.626110 0.000000 0.000000 
#    y 0.000000 1.626110 0.000000 
#    z 0.000000 0.000000 1.713920 
# 
# From -- ./inp_files/554.got.cif
#   From: 2010.05.17/outbox.ucp.g08.bks.cvg/sg88_1_cif.got.tgz:554.got - 2010.06.11 10:35:41.
