data_PCOD9546913
_publ_section_title
;
Structure prediction by ZEFSAII (Michael W. Deem and Ramdas Pophale) SiO2 
 PCOD9546913
Probable space group: P 4 2 2
;
_chemical_formula_sum "Si O2"
_cell_formula_units_Z 48
_cell_length_a 24.634829
_cell_length_b 24.634829
_cell_length_c 4.946232
_cell_angle_alpha 90.000000
_cell_angle_beta 90.000000
_cell_angle_gamma 90.000000
_cell_volume 3001.743555
_symmetry_space_group_name_H-M "P 4 2 2"
_symmetry_group_IT_number 89
_symmetry_cell_setting 'tetragonal'
loop_
_space_group_symop_operation_xyz
x,y,z
-y,x,z
-x,-y,z
y,-x,z
x,-y,-z
-x,y,-z
y,x,-z
-y,-x,-z
loop_
_atom_site_type_symbol
_atom_site_label
_atom_site_fract_x
_atom_site_fract_y
_atom_site_fract_z
Si Si1 0.731402 0.661705 0.824421
Si Si2 0.390729 0.772784 0.342255
Si Si3 0.312011 0.128500 0.612376
Si Si4 0.175335 0.746692 0.131767
Si Si5 0.500000 0.823346 0.500000
Si Si6 0.102058 0.500000 0.000000
Si Si7 0.036733 0.397103 0.247867
O O1 0.726085 0.632869 0.537620
O O2 0.768548 0.715658 0.786909
O O3 0.680210 0.680210 0.000000
O O4 0.763280 0.622595 0.030561
O O5 0.357336 0.825502 0.441077
O O6 0.452424 0.786049 0.389703
O O7 0.264387 0.136493 0.389545
O O8 0.347917 0.074486 0.644757
O O9 0.285316 0.145382 0.894243
O O10 0.196652 0.803349 0.000000
O O11 0.480668 0.861169 0.748295
O O12 0.068782 0.551035 0.877593
O O13 0.000000 0.415760 0.500000
O O14 0.000000 0.376668 0.000000
#
# Coordination Sequence:
#
# PCOD9546913 Si02
#       7
#     8   8   8   8   4   4   8
#     4   9  17  29  45  66  86 109 137 169 213 277
#     4  10  19  30  47  63  87 112 142 181 223 278
#     4  10  19  33  48  64  89 113 143 188 241 280
#     4   9  17  29  49  71  88 106 133 174 232 297
#     4  12  22  34  51  68  88 116 156 189 248 274
#     4  12  25  38  52  60  84 120 164 218 248 283
#     4  12  25  39  50  65  86 121 167 212 253 285
#
# _framework density 15.990705999999999
#
# number of rings (size 3 to 8) (size 9 to 14) (size 15 to 20)
#    0.000    1.667    1.667    4.250    4.667    4.667 
#    0.000    0.000    0.000    0.000    0.000    0.000 
#    0.000    0.000    0.000    0.000    0.000   29.167 
#
# Total GULP energy -267445.822992 kJ/mol
# GULP energy per Si atom -5571.787979 kJ/mol
# Density = 1.595431 g / cm^3
# Si number density = 15.990706 Si / 1000 Ang^3
#
#
#
# Elastic Constant Matrix: (Units=GPa)
#
#
# Indices 1 2 3 4 5 6 
#
# 1 30.7438 25.5290 13.1493 0.0000 0.0000 0.0000
# 2 25.5290 30.7442 13.1494 0.0000 0.0000 0.0000
# 3 13.1493 13.1494 97.4663 0.0000 0.0000 0.0000
# 4 0.0000 0.0000 0.0000 19.3583 0.0000 0.0000
# 5 0.0000 0.0000 0.0000 0.0000 19.3582 0.0000
# 6 0.0000 0.0000 0.0000 0.0000 0.0000 9.3375
#
#
#
# Elastic Compliance Matrix: (Units=1/GPa)
#
#
# Indices 1 2 3 4 5 6 
#
# 1 0.105361 -0.086393 -0.002559 0.000000 0.000000 0.000000
# 2 -0.086393 0.105359 -0.002559 0.000000 0.000000 0.000000
# 3 -0.002559 -0.002559 0.010950 0.000000 0.000000 0.000000
# 4 0.000000 0.000000 0.000000 0.051657 0.000000 0.000000
# 5 0.000000 0.000000 0.000000 0.000000 0.051658 0.000000
# 6 0.000000 0.000000 0.000000 0.000000 0.000000 0.107095
#
#
# Mechanical properties :
#
#
# Convention : Reuss Voigt Hill
#
# Bulk Modulus (GPa) = 25.87460 29.17887 27.52673
# Shear Modulus (GPa) = 7.96198 16.75256 12.35727
#
# Velocity S-wave (km/s) = 2.23382 3.24024 2.78290
# Velocity P-wave (km/s) = 4.78220 5.68207 5.25144
#
# Compressibility (1/GPa) = 0.03864793
#
# Stress axis : x y z
#
# Youngs Moduli (GPa) = 9.49122 9.49136 91.32106
#
# Poissons Ratio (x) = 0.81999 0.23367
# Poissons Ratio (y) = 0.81998 0.23367
# Poissons Ratio (z) = 0.02429 0.02429
#
# Static dielectric constant tensor:
#      x y z
#    x 1.565510 0.000000 0.000000 
#    y 0.000000 1.565520 0.000000 
#    z 0.000000 0.000000 1.593340 
# 
# From -- ./inp_files/443.got.cif
#   From: 2010.05.17/outbox.cif.g08.bks.cpg/sg89_1_cif.got.tgz:443.got - 2010.06.03 19:15:31.
