data_PCOD9546965
_publ_section_title
;
Structure prediction by ZEFSAII (Michael W. Deem and Ramdas Pophale) SiO2 
 PCOD9546965
Probable space group: P 4 2 2
;
_chemical_formula_sum "Si O2"
_cell_formula_units_Z 56
_cell_length_a 14.914235
_cell_length_b 14.914235
_cell_length_c 11.776030
_cell_angle_alpha 90.000000
_cell_angle_beta 90.000000
_cell_angle_gamma 90.000000
_cell_volume 2619.394234
_symmetry_space_group_name_H-M "P 4 2 2"
_symmetry_group_IT_number 89
_symmetry_cell_setting 'tetragonal'
loop_
_space_group_symop_operation_xyz
x,y,z
-y,x,z
-x,-y,z
y,-x,z
x,-y,-z
-x,y,-z
y,x,-z
-y,-x,-z
loop_
_atom_site_type_symbol
_atom_site_label
_atom_site_fract_x
_atom_site_fract_y
_atom_site_fract_z
Si Si1 0.407635 0.276251 0.933459
Si Si2 0.024034 0.287800 0.316706
Si Si3 0.013198 0.149958 0.120479
Si Si4 0.704744 0.850478 0.470214
Si Si5 0.357710 0.452279 0.312599
Si Si6 0.821132 0.480105 0.383829
Si Si7 0.083616 0.446088 0.163028
O O1 0.423131 0.324403 0.812528
O O2 0.407936 0.167764 0.911120
O O3 0.500000 0.294382 0.000000
O O4 0.324147 0.324147 0.000000
O O5 0.100292 0.310347 0.409116
O O6 0.032724 0.367686 0.228570
O O7 0.031113 0.203541 0.234441
O O8 0.932338 0.275807 0.385150
O O9 0.092737 0.077801 0.120195
O O10 0.000000 0.202327 0.000000
O O11 0.783769 0.783769 0.500000
O O12 0.624129 0.800260 0.404779
O O13 0.445655 0.392611 0.330606
O O14 0.265593 0.454777 0.383711
O O15 0.876360 0.500000 0.500000
O O16 0.869447 0.495852 0.264529
O O17 0.000000 0.500000 0.112136
#
# Coordination Sequence:
#
# PCOD9546965 Si02
#       7
#     8   8   8   8   8   8   8
#     4  11  23  44  70  99 134 181 240 304 368 432
#     4  11  22  42  64  96 133 175 233 284 351 427
#     4   9  19  40  67  94 127 167 212 275 359 433
#     4  11  24  38  65  96 133 178 227 288 349 419
#     4  10  22  38  63  96 130 174 226 281 354 416
#     4  11  23  39  63  91 132 178 221 276 341 424
#     4  11  24  45  66  96 136 188 237 291 364 442
#
# _framework density 21.378986999999999
#
# number of rings (size 3 to 8) (size 9 to 14) (size 15 to 20)
#    0.000    1.429    4.286    1.286    2.000    0.714 
#    5.143    0.714    0.000    3.429    0.000    0.000 
#    0.000    0.000    0.000    0.000    0.000    0.000 
#
# Total GULP energy -311764.385246 kJ/mol
# GULP energy per Si atom -5567.221165 kJ/mol
# Density = 2.133033 g / cm^3
# Si number density = 21.378987 Si / 1000 Ang^3
#
#
#
# Elastic Constant Matrix: (Units=GPa)
#
#
# Indices 1 2 3 4 5 6 
#
# 1 102.4835 35.2988 36.4535 0.0000 0.0000 0.0000
# 2 35.2988 102.4835 36.4535 0.0000 0.0000 0.0000
# 3 36.4535 36.4535 108.2509 0.0000 0.0000 0.0000
# 4 0.0000 0.0000 0.0000 15.2654 0.0000 0.0000
# 5 0.0000 0.0000 0.0000 0.0000 15.2654 0.0000
# 6 0.0000 0.0000 0.0000 0.0000 0.0000 31.4011
#
#
#
# Elastic Compliance Matrix: (Units=1/GPa)
#
#
# Indices 1 2 3 4 5 6 
#
# 1 0.011858 -0.003026 -0.002974 0.000000 0.000000 0.000000
# 2 -0.003026 0.011858 -0.002974 0.000000 0.000000 0.000000
# 3 -0.002974 -0.002974 0.011241 0.000000 0.000000 0.000000
# 4 0.000000 0.000000 0.000000 0.065507 0.000000 0.000000
# 5 0.000000 0.000000 0.000000 0.000000 0.065507 0.000000
# 6 0.000000 0.000000 0.000000 0.000000 0.000000 0.031846
#
#
# Mechanical properties :
#
#
# Convention : Reuss Voigt Hill
#
# Bulk Modulus (GPa) = 58.79664 58.84772 58.82218
# Shear Modulus (GPa) = 22.57992 26.05388 24.31690
#
# Velocity S-wave (km/s) = 3.25341 3.49473 3.37623
# Velocity P-wave (km/s) = 6.45559 6.62344 6.54005
#
# Compressibility (1/GPa) = 0.01700777
#
# Stress axis : x y z
#
# Youngs Moduli (GPa) = 84.33176 84.33176 88.96164
#
# Poissons Ratio (x) = 0.25522 0.26457
# Poissons Ratio (y) = 0.25522 0.26457
# Poissons Ratio (z) = 0.25080 0.25080
#
# Static dielectric constant tensor:
#      x y z
#    x 1.834350 0.000000 0.000000 
#    y 0.000000 1.834350 0.000000 
#    z 0.000000 0.000000 1.822340 
# 
# From -- ./inp_files/1863.got.cif
#   From: 2010.05.17/outbox.cif.g08.bks.cpg/sg89_1_cif.got.tgz:1863.got - 2010.06.03 19:15:31.
