data_PCOD9546167
_publ_section_title
;
Structure prediction by ZEFSAII (Michael W. Deem and Ramdas Pophale) SiO2 
 PCOD9546167
Probable space group: I 4/M
;
_chemical_formula_sum "Si O2"
_cell_formula_units_Z 72
_cell_length_a 10.489824
_cell_length_b 10.489824
_cell_length_c 35.538797
_cell_angle_alpha 90.000000
_cell_angle_beta 90.000000
_cell_angle_gamma 90.000000
_cell_volume 3910.561551
_symmetry_space_group_name_H-M "I 4/M"
_symmetry_group_IT_number 87
_symmetry_cell_setting 'tetragonal'
loop_
_space_group_symop_operation_xyz
x,y,z
-y,x,z
-x,-y,z
y,-x,z
-x,-y,-z
y,-x,-z
x,y,-z
-y,x,-z
1/2+x,1/2+y,1/2+z
1/2-y,1/2+x,1/2+z
1/2-x,1/2-y,1/2+z
1/2+y,1/2-x,1/2+z
1/2-x,1/2-y,1/2-z
1/2+y,1/2-x,1/2-z
1/2+x,1/2+y,1/2-z
1/2-y,1/2+x,1/2-z
loop_
_atom_site_type_symbol
_atom_site_label
_atom_site_fract_x
_atom_site_fract_y
_atom_site_fract_z
Si Si1 0.711129 0.456873 0.706408
Si Si2 0.288032 0.535430 0.791043
Si Si3 0.119170 0.428380 0.851660
Si Si4 0.804950 0.907167 0.500000
Si Si5 0.907420 0.195045 0.582299
O O1 0.644879 0.595439 0.703269
O O2 0.765308 0.449074 0.748990
O O3 0.816421 0.427593 0.675708
O O4 0.359701 0.398812 0.794399
O O5 0.188500 0.531386 0.824512
O O6 0.214421 0.377020 0.883122
O O7 0.000000 0.500000 0.869978
O O8 0.746702 0.879500 0.540893
O O9 0.942481 0.837989 0.500000
O O10 0.058539 0.162467 0.584891
#
# Coordination Sequence:
#
# PCOD9546167 Si02
#       5
#    16  16  16   8  16
#     4   9  22  40  53  67  98 146 184 216 258 306
#     4   9  20  38  56  71  94 132 177 229 280 306
#     4  12  25  30  51  81 108 134 178 216 257 309
#     4   7  12  28  57  84 104 133 164 198 264 333
#     4   9  18  35  58  83 110 135 165 213 269 318
#
# _framework density 18.411677999999998
#
# number of rings (size 3 to 8) (size 9 to 14) (size 15 to 20)
#    0.000    2.556    0.000    4.000    9.333    3.556 
#    0.000    0.556    0.000    0.000    0.000    0.000 
#    0.000    1.778    0.000    0.000    0.000    0.000 
#
# Total GULP energy -200907.573495 kJ/mol
# GULP energy per Si atom -5580.765930 kJ/mol
# Density = 1.836977 g / cm^3
# Si number density = 18.411678 Si / 1000 Ang^3
#
#
#
# Elastic Constant Matrix: (Units=GPa)
#
#
# Indices 1 2 3 4 5 6 
#
# 1 43.6546 -9.3707 19.4821 0.0000 0.0000 -9.2241
# 2 -9.3707 43.6546 19.4821 0.0000 0.0000 9.2241
# 3 19.4821 19.4821 107.6437 0.0000 0.0000 0.0000
# 4 0.0000 0.0000 0.0000 -5.1340 0.0000 0.0000
# 5 0.0000 0.0000 0.0000 0.0000 -5.1340 0.0000
# 6 -9.2241 9.2241 0.0000 0.0000 0.0000 14.6245
#
#
#
# Elastic Compliance Matrix: (Units=1/GPa)
#
#
# Indices 1 2 3 4 5 6 
#
# 1 0.030441 0.006280 -0.006646 0.000000 0.000000 0.015239
# 2 0.006280 0.030441 -0.006646 0.000000 0.000000 -0.015239
# 3 -0.006646 -0.006646 0.011696 0.000000 0.000000 0.000000
# 4 0.000000 0.000000 0.000000 -0.194778 0.000000 0.000000
# 5 0.000000 0.000000 0.000000 0.000000 -0.194778 0.000000
# 6 0.015239 -0.015239 0.000000 0.000000 0.000000 0.087602
#
#
# Mechanical properties :
#
#
# Convention : Reuss Voigt Hill
#
# Bulk Modulus (GPa) = 17.07816 28.23778 22.65797
# Shear Modulus (GPa) = -25.53166 11.89526 -6.81820
#
# Velocity S-wave (km/s) = -3.72790 2.54455 -1.92646
# Velocity P-wave (km/s) = 3.03871 4.89930 2.71748
#
# Compressibility (1/GPa) = 0.05855430
#
# Stress axis : x y z
#
# Youngs Moduli (GPa) = 32.85024 32.85024 85.50204
#
# Poissons Ratio (x) = -0.20631 0.56826
# Poissons Ratio (y) = -0.20631 0.56826
# Poissons Ratio (z) = 0.21833 0.21833
#
# Static dielectric constant tensor:
#      x y z
#    x 1.651240 0.000000 0.000000 
#    y 0.000000 1.651240 0.000000 
#    z 0.000000 0.000000 1.649160 
# 
# From -- ./inp_files/6445.got.cif
#   From: 2010.05.17/outbox.cif.g08.bks.cpg/sg87_4_cif.got.tgz:6445.got - 2010.06.03 19:07:00.
