data_PCOD9546681
_publ_section_title
;
Structure prediction by ZEFSAII (Michael W. Deem and Ramdas Pophale) SiO2 
 PCOD9546681
Probable space group: I 41/A
;
_chemical_formula_sum "Si O2"
_cell_formula_units_Z 60
_cell_length_a 11.029721
_cell_length_b 11.029721
_cell_length_c 19.253106
_cell_angle_alpha 90.000000
_cell_angle_beta 90.000000
_cell_angle_gamma 90.000000
_cell_volume 2342.231707
_symmetry_space_group_name_H-M "I 41/A"
_symmetry_group_IT_number 88
_space_group.IT_coordinate_system_code '2'
_symmetry_cell_setting 'tetragonal'
loop_
_space_group_symop_operation_xyz
x,y,z
3/4-y,1/4+x,1/4+z
-x,1/2-y,z
1/4+y,1/4-x,1/4+z
-x,-y,-z
1/4+y,3/4-x,3/4-z
x,1/2+y,-z
3/4-y,3/4+x,3/4-z
1/2+x,1/2+y,1/2+z
1/4-y,3/4+x,3/4+z
1/2-x,-y,1/2+z
3/4+y,3/4-x,3/4+z
1/2-x,1/2-y,1/2-z
3/4+y,1/4-x,1/4-z
1/2+x,y,1/2-z
1/4-y,1/4+x,1/4-z
loop_
_atom_site_type_symbol
_atom_site_label
_atom_site_fract_x
_atom_site_fract_y
_atom_site_fract_z
Si Si1 0.250000 0.250000 0.750000
Si Si2 0.437012 0.620590 0.853493
Si Si3 0.500000 0.250000 0.375000
Si Si4 0.805292 0.081544 0.137956
Si Si5 0.901575 0.523021 0.265352
O O1 0.182371 0.239317 0.825000
O O2 0.138311 0.339667 0.722411
O O3 0.500000 0.750000 0.838640
O O4 0.293553 0.622019 0.866903
O O5 0.469858 0.520632 0.794635
O O6 0.570161 0.148454 0.417910
O O7 0.697852 0.052343 0.190363
O O8 0.757745 0.133271 0.064922
#
# Coordination Sequence:
#
# PCOD9546681 Si02
#       5
#     8  16   4  16  16
#     4  10  24  48  74 110 150 198 256 326 398 472
#     4  11  25  46  75 106 151 199 257 316 385 470
#     4  12  28  48  72 112 152 200 256 318 396 484
#     4  11  27  44  76 105 148 195 249 311 398 461
#     4  11  24  49  71 113 144 198 254 318 388 476
#
# _framework density 25.616593000000002
#
# number of rings (size 3 to 8) (size 9 to 14) (size 15 to 20)
#    0.000    1.067    2.667    1.600    5.600    4.267 
#    0.000    0.000    0.000    0.000    0.000    0.000 
#    0.000    0.000    0.000    0.000    0.000    0.000 
#
# Total GULP energy -167035.962286 kJ/mol
# GULP energy per Si atom -5567.865410 kJ/mol
# Density = 2.555829 g / cm^3
# Si number density = 25.616593 Si / 1000 Ang^3
#
#
#
# Elastic Constant Matrix: (Units=GPa)
#
#
# Indices 1 2 3 4 5 6 
#
# 1 89.8601 28.2542 24.5706 0.0000 0.0000 11.4973
# 2 28.2542 89.8601 24.5706 0.0000 0.0000 -11.4973
# 3 24.5706 24.5706 93.7432 0.0000 0.0000 0.0000
# 4 0.0000 0.0000 0.0000 10.1625 0.0000 0.0000
# 5 0.0000 0.0000 0.0000 0.0000 10.1625 0.0000
# 6 11.4973 -11.4973 0.0000 0.0000 0.0000 41.6526
#
#
#
# Elastic Compliance Matrix: (Units=1/GPa)
#
#
# Indices 1 2 3 4 5 6 
#
# 1 0.013800 -0.004297 -0.002491 0.000000 0.000000 -0.004995
# 2 -0.004297 0.013800 -0.002491 0.000000 0.000000 0.004995
# 3 -0.002491 -0.002491 0.011973 0.000000 0.000000 0.000000
# 4 0.000000 0.000000 0.000000 0.098401 0.000000 0.000000
# 5 0.000000 0.000000 0.000000 0.000000 0.098401 0.000000
# 6 -0.004995 0.004995 0.000000 0.000000 0.000000 0.026766
#
#
# Mechanical properties :
#
#
# Convention : Reuss Voigt Hill
#
# Bulk Modulus (GPa) = 47.58376 47.58381 47.58378
# Shear Modulus (GPa) = 17.31886 25.46671 21.39279
#
# Velocity S-wave (km/s) = 2.60297 3.15643 2.89297
# Velocity P-wave (km/s) = 5.25829 5.64799 5.45662
#
# Compressibility (1/GPa) = 0.02101557
#
# Stress axis : x y z
#
# Youngs Moduli (GPa) = 72.46559 72.46559 83.52068
#
# Poissons Ratio (x) = 0.31139 0.20802
# Poissons Ratio (y) = 0.31139 0.20802
# Poissons Ratio (z) = 0.18049 0.18049
#
# Static dielectric constant tensor:
#      x y z
#    x 2.044740 0.000000 0.000000 
#    y 0.000000 2.044740 0.000000 
#    z 0.000000 0.000000 1.944900 
# 
# From -- ./inp_files/4455.got.cif
#   From: 2010.05.17/outbox.cif.g08.bks.cpg/sg88_3_cif.got.tgz:4455.got - 2010.06.03 19:11:41.
