data_PCOD9546647
_publ_section_title
;
Structure prediction by ZEFSAII (Michael W. Deem and Ramdas Pophale) SiO2 
 PCOD9546647
Probable space group: I 41/A
;
_chemical_formula_sum "Si O2"
_cell_formula_units_Z 80
_cell_length_a 22.854209
_cell_length_b 22.854209
_cell_length_c 6.761577
_cell_angle_alpha 90.000000
_cell_angle_beta 90.000000
_cell_angle_gamma 90.000000
_cell_volume 3531.672205
_symmetry_space_group_name_H-M "I 41/A"
_symmetry_group_IT_number 88
_space_group.IT_coordinate_system_code '2'
_symmetry_cell_setting 'tetragonal'
loop_
_space_group_symop_operation_xyz
x,y,z
3/4-y,1/4+x,1/4+z
-x,1/2-y,z
1/4+y,1/4-x,1/4+z
-x,-y,-z
1/4+y,3/4-x,3/4-z
x,1/2+y,-z
3/4-y,3/4+x,3/4-z
1/2+x,1/2+y,1/2+z
1/4-y,3/4+x,3/4+z
1/2-x,-y,1/2+z
3/4+y,3/4-x,3/4+z
1/2-x,1/2-y,1/2-z
3/4+y,1/4-x,1/4-z
1/2+x,y,1/2-z
1/4-y,1/4+x,1/4-z
loop_
_atom_site_type_symbol
_atom_site_label
_atom_site_fract_x
_atom_site_fract_y
_atom_site_fract_z
Si Si1 0.320911 0.660430 0.618960
Si Si2 0.286679 0.427431 0.451599
Si Si3 0.214050 0.649870 0.320418
Si Si4 0.135639 0.242559 0.843175
Si Si5 0.123024 0.835360 0.491960
O O1 0.349954 0.595584 0.609619
O O2 0.260203 0.656338 0.496053
O O3 0.355768 0.713725 0.522576
O O4 0.323688 0.671733 0.854634
O O5 0.309273 0.488649 0.540661
O O6 0.264569 0.391827 0.642173
O O7 0.196293 0.710723 0.216948
O O8 0.148737 0.624539 0.368604
O O9 0.091798 0.187966 0.862540
O O10 0.119134 0.283047 0.658836
#
# Coordination Sequence:
#
# PCOD9546647 Si02
#       5
#    16  16  16  16  16
#     4  11  23  42  71  98 135 178 224 277 343 412
#     4  11  24  41  67 103 141 174 216 270 349 421
#     4   9  23  42  64  99 135 172 227 277 333 409
#     4  10  23  45  62  99 135 173 230 292 320 410
#     4   9  24  43  64  97 130 178 224 275 349 382
#
# _framework density 22.652159000000001
#
# number of rings (size 3 to 8) (size 9 to 14) (size 15 to 20)
#    1.200    0.800    0.000    1.800    8.400    2.800 
#    3.600    0.000    0.000    0.000    0.000    0.000 
#    0.000    0.000    0.000    0.000    0.000    0.000 
#
# Total GULP energy -222974.389974 kJ/mol
# GULP energy per Si atom -5574.359749 kJ/mol
# Density = 2.260060 g / cm^3
# Si number density = 22.652159 Si / 1000 Ang^3
#
#
#
# Elastic Constant Matrix: (Units=GPa)
#
#
# Indices 1 2 3 4 5 6 
#
# 1 88.7947 -38.2556 13.9818 0.0000 0.0000 -9.6737
# 2 -38.2556 88.7947 13.9818 0.0000 0.0000 9.6737
# 3 13.9818 13.9818 51.6009 0.0000 0.0000 0.0000
# 4 0.0000 0.0000 0.0000 27.5128 0.0000 0.0000
# 5 0.0000 0.0000 0.0000 0.0000 27.5128 0.0000
# 6 -9.6737 9.6737 0.0000 0.0000 0.0000 36.8153
#
#
#
# Elastic Compliance Matrix: (Units=1/GPa)
#
#
# Indices 1 2 3 4 5 6 
#
# 1 0.015738 0.007539 -0.006307 0.000000 0.000000 0.002154
# 2 0.007539 0.015738 -0.006307 0.000000 0.000000 -0.002154
# 3 -0.006307 -0.006307 0.022797 0.000000 0.000000 0.000000
# 4 0.000000 0.000000 0.000000 0.036347 0.000000 0.000000
# 5 0.000000 0.000000 0.000000 0.000000 0.036347 0.000000
# 6 0.002154 -0.002154 0.000000 0.000000 0.000000 0.028295
#
#
# Mechanical properties :
#
#
# Convention : Reuss Voigt Hill
#
# Bulk Modulus (GPa) = 22.66433 23.17848 22.92141
# Shear Modulus (GPa) = 27.75946 34.33368 31.04657
#
# Velocity S-wave (km/s) = 3.50446 3.89741 3.70615
# Velocity P-wave (km/s) = 5.13830 5.52337 5.33431
#
# Compressibility (1/GPa) = 0.04412219
#
# Stress axis : x y z
#
# Youngs Moduli (GPa) = 63.54186 63.54186 43.86464
#
# Poissons Ratio (x) = -0.47902 0.27665
# Poissons Ratio (y) = -0.47902 0.27665
# Poissons Ratio (z) = 0.40076 0.40076
#
# Static dielectric constant tensor:
#      x y z
#    x 1.886970 0.000000 0.000000 
#    y 0.000000 1.886970 0.000000 
#    z 0.000000 0.000000 1.833280 
# 
# From -- ./inp_files/712.got.cif
#   From: 2010.05.17/outbox.cif.g08.bks.cpg/sg88_1_cif.got.tgz:712.got - 2010.06.03 19:11:41.
