data_PCOD9546203
_publ_section_title
;
Structure prediction by ZEFSAII (Michael W. Deem and Ramdas Pophale) SiO2 
 PCOD9546203
Probable space group: I 41/A
;
_chemical_formula_sum "Si O2"
_cell_formula_units_Z 72
_cell_length_a 11.422932
_cell_length_b 11.422932
_cell_length_c 24.056509
_cell_angle_alpha 90.000000
_cell_angle_beta 90.000000
_cell_angle_gamma 90.000000
_cell_volume 3138.974497
_symmetry_space_group_name_H-M "I 41/A"
_symmetry_group_IT_number 88
_space_group.IT_coordinate_system_code '2'
_symmetry_cell_setting 'tetragonal'
loop_
_space_group_symop_operation_xyz
x,y,z
3/4-y,1/4+x,1/4+z
-x,1/2-y,z
1/4+y,1/4-x,1/4+z
-x,-y,-z
1/4+y,3/4-x,3/4-z
x,1/2+y,-z
3/4-y,3/4+x,3/4-z
1/2+x,1/2+y,1/2+z
1/4-y,3/4+x,3/4+z
1/2-x,-y,1/2+z
3/4+y,3/4-x,3/4+z
1/2-x,1/2-y,1/2-z
3/4+y,1/4-x,1/4-z
1/2+x,y,1/2-z
1/4-y,1/4+x,1/4-z
loop_
_atom_site_type_symbol
_atom_site_label
_atom_site_fract_x
_atom_site_fract_y
_atom_site_fract_z
Si Si1 0.000000 0.750000 0.305241
Si Si2 0.437836 0.863202 0.384018
Si Si3 0.751511 0.044012 0.279739
Si Si4 0.769296 0.245475 0.477541
Si Si5 0.252731 0.282395 0.815330
O O1 0.998074 0.865168 0.266083
O O2 0.878299 0.744495 0.335971
O O3 0.500000 0.750000 0.410793
O O4 0.393906 0.955721 0.428668
O O5 0.502902 0.934984 0.335704
O O6 0.338000 0.793776 0.349367
O O7 0.616124 0.052032 0.258860
O O8 0.864310 0.033023 0.237948
O O9 0.748041 0.922113 0.314446
O O10 0.250000 0.250000 0.750000
#
# Coordination Sequence:
#
# PCOD9546203 Si02
#       5
#     8  16  16  16  16
#     4  10  16  32  63  88 132 174 216 278 363 410
#     4  12  22  40  66  97 146 188 234 287 358 431
#     4  11  24  36  71 100 131 193 234 293 357 423
#     4  11  19  43  63  97 142 180 234 296 359 409
#     4  11  18  36  60  95 134 177 217 290 357 409
#
# _framework density 22.937428000000001
#
# number of rings (size 3 to 8) (size 9 to 14) (size 15 to 20)
#    0.000    0.889   10.000    0.000    0.000    5.333 
#    0.000    2.222    0.000    0.000    0.000    0.000 
#    0.000    0.000    0.000    0.000    0.000    0.000 
#
# Total GULP energy -200806.071083 kJ/mol
# GULP energy per Si atom -5577.946419 kJ/mol
# Density = 2.288522 g / cm^3
# Si number density = 22.937428 Si / 1000 Ang^3
#
#
#
# Elastic Constant Matrix: (Units=GPa)
#
#
# Indices 1 2 3 4 5 6 
#
# 1 119.7547 28.6146 28.3613 0.0000 0.0000 4.0030
# 2 28.6146 119.7547 28.3613 0.0000 0.0000 -4.0030
# 3 28.3613 28.3613 35.7702 0.0000 0.0000 0.0000
# 4 0.0000 0.0000 0.0000 23.2529 0.0000 0.0000
# 5 0.0000 0.0000 0.0000 0.0000 23.2529 0.0000
# 6 4.0030 -4.0030 0.0000 0.0000 0.0000 39.5410
#
#
#
# Elastic Compliance Matrix: (Units=1/GPa)
#
#
# Indices 1 2 3 4 5 6 
#
# 1 0.010371 -0.000699 -0.007668 0.000000 0.000000 -0.001121
# 2 -0.000699 0.010371 -0.007668 0.000000 0.000000 0.001121
# 3 -0.007668 -0.007668 0.040116 0.000000 0.000000 0.000000
# 4 0.000000 0.000000 0.000000 0.043005 0.000000 0.000000
# 5 0.000000 0.000000 0.000000 0.000000 0.043005 0.000000
# 6 -0.001121 0.001121 0.000000 0.000000 0.000000 0.025517
#
#
# Mechanical properties :
#
#
# Convention : Reuss Voigt Hill
#
# Bulk Modulus (GPa) = 34.73900 49.55044 42.14472
# Shear Modulus (GPa) = 23.35855 29.87220 26.61537
#
# Velocity S-wave (km/s) = 3.19464 3.61270 3.41008
# Velocity P-wave (km/s) = 5.36522 6.24912 5.82396
#
# Compressibility (1/GPa) = 0.02878609
#
# Stress axis : x y z
#
# Youngs Moduli (GPa) = 96.42188 96.42188 24.92743
#
# Poissons Ratio (x) = 0.06744 0.19115
# Poissons Ratio (y) = 0.06744 0.19115
# Poissons Ratio (z) = 0.73940 0.73940
#
# Static dielectric constant tensor:
#      x y z
#    x 1.911090 0.000000 0.000000 
#    y 0.000000 1.911090 0.000000 
#    z 0.000000 0.000000 1.955410 
# 
# From -- ./inp_files/5717.got.cif
#   From: 2010.05.17/outbox.cif.g08.bks.cpg/sg88_3_cif.got.tgz:5717.got - 2010.06.03 19:11:41.
