data_PCOD9546362
_publ_section_title
;
Structure prediction by ZEFSAII (Michael W. Deem and Ramdas Pophale) SiO2 
 PCOD9546362
Probable space group: I 41/A
;
_chemical_formula_sum "Si O2"
_cell_formula_units_Z 96
_cell_length_a 15.954782
_cell_length_b 15.954782
_cell_length_c 17.813305
_cell_angle_alpha 90.000000
_cell_angle_beta 90.000000
_cell_angle_gamma 90.000000
_cell_volume 4534.467077
_symmetry_space_group_name_H-M "I 41/A"
_symmetry_group_IT_number 88
_space_group.IT_coordinate_system_code '2'
_symmetry_cell_setting 'tetragonal'
loop_
_space_group_symop_operation_xyz
x,y,z
3/4-y,1/4+x,1/4+z
-x,1/2-y,z
1/4+y,1/4-x,1/4+z
-x,-y,-z
1/4+y,3/4-x,3/4-z
x,1/2+y,-z
3/4-y,3/4+x,3/4-z
1/2+x,1/2+y,1/2+z
1/4-y,3/4+x,3/4+z
1/2-x,-y,1/2+z
3/4+y,3/4-x,3/4+z
1/2-x,1/2-y,1/2-z
3/4+y,1/4-x,1/4-z
1/2+x,y,1/2-z
1/4-y,1/4+x,1/4-z
loop_
_atom_site_type_symbol
_atom_site_label
_atom_site_fract_x
_atom_site_fract_y
_atom_site_fract_z
Si Si1 0.524468 0.918967 0.547644
Si Si2 0.938899 0.429942 0.209695
Si Si3 0.489905 0.084445 0.794908
Si Si4 0.060538 0.078281 0.546701
Si Si5 0.447492 0.677308 0.815966
Si Si6 0.395372 0.595900 0.958031
O O1 0.622728 0.894030 0.548027
O O2 0.488856 0.923892 0.631518
O O3 0.475546 0.846865 0.502178
O O4 0.500000 0.000000 0.500000
O O5 0.939125 0.525092 0.237038
O O6 0.991531 0.387761 0.276706
O O7 0.421637 0.155996 0.809864
O O8 0.512408 0.051065 0.877339
O O9 0.580530 0.106277 0.758860
O O10 0.993366 0.089453 0.480661
O O11 0.127466 0.002729 0.532789
O O12 0.500000 0.750000 0.858323
O O13 0.387325 0.630073 0.873500
#
# Coordination Sequence:
#
# PCOD9546362 Si02
#       6
#    16  16  16  16  16  16
#     4  11  23  43  68 100 131 183 235 287 359 430
#     4  11  23  43  69  96 140 180 232 296 354 429
#     4  12  23  44  69 102 142 187 233 296 365 424
#     4  11  24  41  68 100 138 188 236 288 349 433
#     4  10  20  37  67  93 124 175 229 274 340 418
#     4  11  23  42  66  99 138 182 239 280 349 433
#
# _framework density 21.171175999999999
#
# number of rings (size 3 to 8) (size 9 to 14) (size 15 to 20)
#    0.000    1.000    5.000    2.500    0.000    1.333 
#    3.000    0.000    0.000    0.000    0.000    0.000 
#    0.000    0.000    0.000    0.000    0.000    0.000 
#
# Total GULP energy -267521.430596 kJ/mol
# GULP energy per Si atom -5573.363137 kJ/mol
# Density = 2.112299 g / cm^3
# Si number density = 21.171176 Si / 1000 Ang^3
#
#
#
# Elastic Constant Matrix: (Units=GPa)
#
#
# Indices 1 2 3 4 5 6 
#
# 1 66.0697 16.3535 17.3296 0.0000 0.0000 3.1635
# 2 16.3535 66.0697 17.3296 0.0000 0.0000 -3.1635
# 3 17.3296 17.3296 100.5989 0.0000 0.0000 0.0000
# 4 0.0000 0.0000 0.0000 32.3606 0.0000 0.0000
# 5 0.0000 0.0000 0.0000 0.0000 32.3606 0.0000
# 6 3.1635 -3.1635 0.0000 0.0000 0.0000 16.3856
#
#
#
# Elastic Compliance Matrix: (Units=1/GPa)
#
#
# Indices 1 2 3 4 5 6 
#
# 1 0.016850 -0.003770 -0.002253 0.000000 0.000000 -0.003981
# 2 -0.003770 0.016850 -0.002253 0.000000 0.000000 0.003981
# 3 -0.002253 -0.002253 0.010717 0.000000 0.000000 0.000000
# 4 0.000000 0.000000 0.000000 0.030902 0.000000 0.000000
# 5 0.000000 0.000000 0.000000 0.000000 0.030902 0.000000
# 6 -0.003981 0.003981 0.000000 0.000000 0.000000 0.062567
#
#
# Mechanical properties :
#
#
# Convention : Reuss Voigt Hill
#
# Bulk Modulus (GPa) = 35.88874 37.19596 36.54235
# Shear Modulus (GPa) = 25.68985 28.33637 27.01311
#
# Velocity S-wave (km/s) = 3.48722 3.66244 3.57590
# Velocity P-wave (km/s) = 5.76218 5.95751 5.86066
#
# Compressibility (1/GPa) = 0.02786389
#
# Stress axis : x y z
#
# Youngs Moduli (GPa) = 59.34572 59.34572 93.31174
#
# Poissons Ratio (x) = 0.22376 0.21025
# Poissons Ratio (y) = 0.22376 0.21025
# Poissons Ratio (z) = 0.13372 0.13372
#
# Static dielectric constant tensor:
#      x y z
#    x 1.794530 0.000000 0.000000 
#    y 0.000000 1.794520 0.000000 
#    z 0.000000 0.000000 1.733190 
# 
# From -- ./inp_files/4704.got.cif
#   From: 2010.05.17/outbox.cif.g08.bks.cpg/sg88_3_cif.got.tgz:4704.got - 2010.06.03 19:11:41.
