data_PCOD9546608
_publ_section_title
;
Structure prediction by ZEFSAII (Michael W. Deem and Ramdas Pophale) SiO2 
 PCOD9546608
Probable space group: I 41/A
;
_chemical_formula_sum "Si O2"
_cell_formula_units_Z 68
_cell_length_a 14.731875
_cell_length_b 14.731875
_cell_length_c 18.013118
_cell_angle_alpha 90.000000
_cell_angle_beta 90.000000
_cell_angle_gamma 90.000000
_cell_volume 3909.353513
_symmetry_space_group_name_H-M "I 41/A"
_symmetry_group_IT_number 88
_space_group.IT_coordinate_system_code '2'
_symmetry_cell_setting 'tetragonal'
loop_
_space_group_symop_operation_xyz
x,y,z
3/4-y,1/4+x,1/4+z
-x,1/2-y,z
1/4+y,1/4-x,1/4+z
-x,-y,-z
1/4+y,3/4-x,3/4-z
x,1/2+y,-z
3/4-y,3/4+x,3/4-z
1/2+x,1/2+y,1/2+z
1/4-y,3/4+x,3/4+z
1/2-x,-y,1/2+z
3/4+y,3/4-x,3/4+z
1/2-x,1/2-y,1/2-z
3/4+y,1/4-x,1/4-z
1/2+x,y,1/2-z
1/4-y,1/4+x,1/4-z
loop_
_atom_site_type_symbol
_atom_site_label
_atom_site_fract_x
_atom_site_fract_y
_atom_site_fract_z
Si Si1 0.205439 0.642520 0.014850
Si Si2 0.496068 0.891714 0.503212
Si Si3 0.741091 0.485964 0.374102
Si Si4 0.000000 0.750000 0.875000
Si Si5 0.101926 0.048963 0.261113
O O1 0.225456 0.589556 0.937201
O O2 0.097575 0.638510 0.032813
O O3 0.243925 0.579060 0.079615
O O4 0.232962 0.747772 0.010779
O O5 0.488235 0.844462 0.582872
O O6 0.591942 0.853109 0.477534
O O7 0.500000 0.000000 0.500000
O O8 0.726106 0.405578 0.434889
O O9 0.833950 0.482856 0.327861
#
# Coordination Sequence:
#
# PCOD9546608 Si02
#       5
#    16  16  16   4  16
#     4  11  23  37  58  85 118 153 193 237 289 347
#     4  12  22  30  54  84 120 154 179 228 297 344
#     4  10  23  38  61  87 114 155 186 240 292 341
#     4  12  24  36  52  92 124 148 184 238 288 360
#     4  11  23  37  58  85 118 153 193 237 289 347
#
# _framework density 17.394179999999999
#
# number of rings (size 3 to 8) (size 9 to 14) (size 15 to 20)
#    0.000    0.941    7.059    1.412    6.588    0.000 
#    0.000    4.706    0.000    3.529    0.000    0.000 
#    0.000    0.000    0.000    0.000    0.000    0.000 
#
# Total GULP energy -189423.635518 kJ/mol
# GULP energy per Si atom -5571.283398 kJ/mol
# Density = 1.735459 g / cm^3
# Si number density = 17.394180 Si / 1000 Ang^3
#
#
#
# Elastic Constant Matrix: (Units=GPa)
#
#
# Indices 1 2 3 4 5 6 
#
# 1 107.0972 9.1122 41.9078 0.0000 0.0000 1.1455
# 2 9.1122 107.0973 41.9078 0.0000 0.0000 -1.1455
# 3 41.9078 41.9078 95.3322 0.0000 0.0000 0.0000
# 4 0.0000 0.0000 0.0000 72.0507 0.0000 0.0000
# 5 0.0000 0.0000 0.0000 0.0000 72.0507 0.0000
# 6 1.1455 -1.1455 0.0000 0.0000 0.0000 26.3221
#
#
#
# Elastic Compliance Matrix: (Units=1/GPa)
#
#
# Indices 1 2 3 4 5 6 
#
# 1 0.011408 0.001192 -0.005539 0.000000 0.000000 -0.000445
# 2 0.001192 0.011408 -0.005539 0.000000 0.000000 0.000445
# 3 -0.005539 -0.005539 0.015359 0.000000 0.000000 0.000000
# 4 0.000000 0.000000 0.000000 0.013879 0.000000 0.000000
# 5 0.000000 0.000000 0.000000 0.000000 0.013879 0.000000
# 6 -0.000445 0.000445 0.000000 0.000000 0.000000 0.038030
#
#
# Mechanical properties :
#
#
# Convention : Reuss Voigt Hill
#
# Bulk Modulus (GPa) = 54.33661 55.04246 54.68954
# Shear Modulus (GPa) = 38.50010 48.52465 43.51238
#
# Velocity S-wave (km/s) = 4.70977 5.28750 5.00697
# Velocity P-wave (km/s) = 7.80270 8.30600 8.05828
#
# Compressibility (1/GPa) = 0.01840380
#
# Stress axis : x y z
#
# Youngs Moduli (GPa) = 87.65723 87.65724 65.10644
#
# Poissons Ratio (x) = -0.10449 0.36062
# Poissons Ratio (y) = -0.10449 0.36062
# Poissons Ratio (z) = 0.48553 0.48553
#
# Static dielectric constant tensor:
#      x y z
#    x 1.610980 0.000000 0.000000 
#    y 0.000000 1.610980 0.000000 
#    z 0.000000 0.000000 1.631660 
# 
# From -- ./inp_files/3753.got.cif
#   From: 2010.05.17/outbox.cif.g08.bks.cpg/sg88_2_cif.got.tgz:3753.got - 2010.06.03 19:11:41.
