data_PCOD9546632
_publ_section_title
;
Structure prediction by ZEFSAII (Michael W. Deem and Ramdas Pophale) SiO2 
 PCOD9546632
Probable space group: I 41/A
;
_chemical_formula_sum "Si O2"
_cell_formula_units_Z 64
_cell_length_a 11.222763
_cell_length_b 11.222763
_cell_length_c 22.876246
_cell_angle_alpha 90.000000
_cell_angle_beta 90.000000
_cell_angle_gamma 90.000000
_cell_volume 2881.272548
_symmetry_space_group_name_H-M "I 41/A"
_symmetry_group_IT_number 88
_space_group.IT_coordinate_system_code '2'
_symmetry_cell_setting 'tetragonal'
loop_
_space_group_symop_operation_xyz
x,y,z
3/4-y,1/4+x,1/4+z
-x,1/2-y,z
1/4+y,1/4-x,1/4+z
-x,-y,-z
1/4+y,3/4-x,3/4-z
x,1/2+y,-z
3/4-y,3/4+x,3/4-z
1/2+x,1/2+y,1/2+z
1/4-y,3/4+x,3/4+z
1/2-x,-y,1/2+z
3/4+y,3/4-x,3/4+z
1/2-x,1/2-y,1/2-z
3/4+y,1/4-x,1/4-z
1/2+x,y,1/2-z
1/4-y,1/4+x,1/4-z
loop_
_atom_site_type_symbol
_atom_site_label
_atom_site_fract_x
_atom_site_fract_y
_atom_site_fract_z
Si Si1 0.899383 0.832601 0.596999
Si Si2 0.021317 0.988951 0.751600
Si Si3 0.010882 0.562398 0.373376
Si Si4 0.268274 0.370114 0.214331
O O1 0.851795 0.765766 0.540457
O O2 0.798858 0.851921 0.645915
O O3 0.000000 0.750000 0.625684
O O4 0.960382 0.960014 0.585709
O O5 0.891650 0.924730 0.741953
O O6 0.139709 0.934699 0.781468
O O7 0.064781 0.009491 0.685472
O O8 0.900743 0.642743 0.350581
O O9 0.250000 0.250000 0.250000
#
# Coordination Sequence:
#
# PCOD9546632 Si02
#       4
#    16  16  16  16
#     4  11  26  40  68 100 140 183 239 298 362 439
#     4  11  25  42  72 103 139 192 239 302 362 441
#     4  10  23  43  67  97 141 183 233 298 360 437
#     4  11  24  46  68  99 143 187 241 297 362 434
#
# _framework density 22.212409000000001
#
# number of rings (size 3 to 8) (size 9 to 14) (size 15 to 20)
#    0.000    1.250    0.000    5.250   14.000    1.000 
#    0.000    0.000    0.000    0.000    0.000    0.000 
#    0.000    0.000    0.000    0.000    0.000    0.000 
#
# Total GULP energy -178475.557150 kJ/mol
# GULP energy per Si atom -5577.361161 kJ/mol
# Density = 2.216185 g / cm^3
# Si number density = 22.212409 Si / 1000 Ang^3
#
#
#
# Elastic Constant Matrix: (Units=GPa)
#
#
# Indices 1 2 3 4 5 6 
#
# 1 97.9725 28.3200 -3.1424 0.0000 0.0000 -14.6994
# 2 28.3200 97.9725 -3.1424 0.0000 0.0000 14.6994
# 3 -3.1424 -3.1424 33.4194 0.0000 0.0000 0.0000
# 4 0.0000 0.0000 0.0000 28.9054 0.0000 0.0000
# 5 0.0000 0.0000 0.0000 0.0000 28.9054 0.0000
# 6 -14.6994 14.6994 0.0000 0.0000 0.0000 47.0984
#
#
#
# Elastic Compliance Matrix: (Units=1/GPa)
#
#
# Indices 1 2 3 4 5 6 
#
# 1 0.012245 -0.004290 0.000748 0.000000 0.000000 0.005161
# 2 -0.004290 0.012245 0.000748 0.000000 0.000000 -0.005161
# 3 0.000748 0.000748 0.030063 0.000000 0.000000 0.000000
# 4 0.000000 0.000000 0.000000 0.034596 0.000000 0.000000
# 5 0.000000 0.000000 0.000000 0.000000 0.034596 0.000000
# 6 0.005161 -0.005161 0.000000 0.000000 0.000000 0.024453
#
#
# Mechanical properties :
#
#
# Convention : Reuss Voigt Hill
#
# Bulk Modulus (GPa) = 20.42222 30.38166 25.40194
# Shear Modulus (GPa) = 29.39303 34.80379 32.09841
#
# Velocity S-wave (km/s) = 3.64162 3.96266 3.80553
# Velocity P-wave (km/s) = 5.18613 5.88594 5.54708
#
# Compressibility (1/GPa) = 0.04896627
#
# Stress axis : x y z
#
# Youngs Moduli (GPa) = 81.66426 81.66426 33.26299
#
# Poissons Ratio (x) = 0.35033 -0.02488
# Poissons Ratio (y) = 0.35033 -0.02488
# Poissons Ratio (z) = -0.06109 -0.06109
#
# Static dielectric constant tensor:
#      x y z
#    x 1.895010 0.000000 0.000000 
#    y 0.000000 1.895010 0.000000 
#    z 0.000000 0.000000 1.780080 
# 
# From -- ./inp_files/4407.got.cif
#   From: 2010.05.17/outbox.cif.g08.bks.cpg/sg88_3_cif.got.tgz:4407.got - 2010.06.03 19:11:41.
