data_PCOD9546820
_publ_section_title
;
Structure prediction by ZEFSAII (Michael W. Deem and Ramdas Pophale) SiO2 
 PCOD9546820
Probable space group: I 41/A
;
_chemical_formula_sum "Si O2"
_cell_formula_units_Z 48
_cell_length_a 8.570070
_cell_length_b 8.570070
_cell_length_c 27.592069
_cell_angle_alpha 90.000000
_cell_angle_beta 90.000000
_cell_angle_gamma 90.000000
_cell_volume 2026.529854
_symmetry_space_group_name_H-M "I 41/A"
_symmetry_group_IT_number 88
_space_group.IT_coordinate_system_code '2'
_symmetry_cell_setting 'tetragonal'
loop_
_space_group_symop_operation_xyz
x,y,z
3/4-y,1/4+x,1/4+z
-x,1/2-y,z
1/4+y,1/4-x,1/4+z
-x,-y,-z
1/4+y,3/4-x,3/4-z
x,1/2+y,-z
3/4-y,3/4+x,3/4-z
1/2+x,1/2+y,1/2+z
1/4-y,3/4+x,3/4+z
1/2-x,-y,1/2+z
3/4+y,3/4-x,3/4+z
1/2-x,1/2-y,1/2-z
3/4+y,1/4-x,1/4-z
1/2+x,y,1/2-z
1/4-y,1/4+x,1/4-z
loop_
_atom_site_type_symbol
_atom_site_label
_atom_site_fract_x
_atom_site_fract_y
_atom_site_fract_z
Si Si1 0.120649 0.885666 0.025928
Si Si2 0.844686 0.569048 0.181406
Si Si3 0.820479 0.924839 0.148633
O O1 0.000000 0.750000 0.039922
O O2 0.211967 0.961091 0.070246
O O3 0.255861 0.864412 0.984875
O O4 0.000000 0.000000 0.000000
O O5 0.818479 0.753405 0.172949
O O6 0.695415 0.488560 0.156262
O O7 0.000805 0.522658 0.152267
#
# Coordination Sequence:
#
# PCOD9546820 Si02
#       3
#    16  16  16
#     4  12  25  46  73 102 142 191 243 303 367 437
#     4  11  26  46  70 105 143 191 244 299 368 439
#     4  11  26  45  73 103 144 190 244 303 365 439
#
# _framework density 23.685808999999999
#
# number of rings (size 3 to 8) (size 9 to 14) (size 15 to 20)
#    0.000    0.667    3.333    3.000    9.333    0.667 
#    0.000    0.000    0.000    0.000    0.000    0.000 
#    0.000    0.000    0.000    0.000    0.000    0.000 
#
# Total GULP energy -134098.887114 kJ/mol
# GULP energy per Si atom -5587.453630 kJ/mol
# Density = 2.363190 g / cm^3
# Si number density = 23.685809 Si / 1000 Ang^3
#
#
#
# Elastic Constant Matrix: (Units=GPa)
#
#
# Indices 1 2 3 4 5 6 
#
# 1 126.2101 59.0769 45.4971 0.0000 0.0000 1.4893
# 2 59.0769 126.2101 45.4971 0.0000 0.0000 -1.4893
# 3 45.4971 45.4971 114.3937 0.0000 0.0000 0.0000
# 4 0.0000 0.0000 0.0000 43.1303 0.0000 0.0000
# 5 0.0000 0.0000 0.0000 0.0000 43.1303 0.0000
# 6 1.4893 -1.4893 0.0000 0.0000 0.0000 50.6409
#
#
#
# Elastic Compliance Matrix: (Units=1/GPa)
#
#
# Indices 1 2 3 4 5 6 
#
# 1 0.010811 -0.004104 -0.002668 0.000000 0.000000 -0.000439
# 2 -0.004104 0.010811 -0.002668 0.000000 0.000000 0.000439
# 3 -0.002668 -0.002668 0.010864 0.000000 0.000000 0.000000
# 4 0.000000 0.000000 0.000000 0.023186 0.000000 0.000000
# 5 0.000000 0.000000 0.000000 0.000000 0.023186 0.000000
# 6 -0.000439 0.000439 0.000000 0.000000 0.000000 0.019773
#
#
# Mechanical properties :
#
#
# Convention : Reuss Voigt Hill
#
# Bulk Modulus (GPa) = 73.48870 74.10625 73.79748
# Shear Modulus (GPa) = 40.96886 41.82984 41.39935
#
# Velocity S-wave (km/s) = 4.16345 4.20697 4.18527
# Velocity P-wave (km/s) = 7.36249 7.41305 7.38781
#
# Compressibility (1/GPa) = 0.01360753
#
# Stress axis : x y z
#
# Youngs Moduli (GPa) = 92.49716 92.49716 92.05020
#
# Poissons Ratio (x) = 0.37962 0.24555
# Poissons Ratio (y) = 0.37962 0.24555
# Poissons Ratio (z) = 0.24674 0.24674
#
# Static dielectric constant tensor:
#      x y z
#    x 1.914430 0.000000 0.000000 
#    y 0.000000 1.914430 0.000000 
#    z 0.000000 0.000000 1.999270 
# 
# From -- ./inp_files/6023.got.cif
#   From: 2010.05.17/outbox.cif.g08.bks.cpg/sg88_4_cif.got.tgz:6023.got - 2010.06.03 19:11:41.
