data_PCOD9546466
_publ_section_title
;
Structure prediction by ZEFSAII (Michael W. Deem and Ramdas Pophale) SiO2 
 PCOD9546466
Probable space group: I 41/A
;
_chemical_formula_sum "Si O2"
_cell_formula_units_Z 96
_cell_length_a 20.160905
_cell_length_b 20.160905
_cell_length_c 12.689055
_cell_angle_alpha 90.000000
_cell_angle_beta 90.000000
_cell_angle_gamma 90.000000
_cell_volume 5157.619821
_symmetry_space_group_name_H-M "I 41/A"
_symmetry_group_IT_number 88
_space_group.IT_coordinate_system_code '2'
_symmetry_cell_setting 'tetragonal'
loop_
_space_group_symop_operation_xyz
x,y,z
3/4-y,1/4+x,1/4+z
-x,1/2-y,z
1/4+y,1/4-x,1/4+z
-x,-y,-z
1/4+y,3/4-x,3/4-z
x,1/2+y,-z
3/4-y,3/4+x,3/4-z
1/2+x,1/2+y,1/2+z
1/4-y,3/4+x,3/4+z
1/2-x,-y,1/2+z
3/4+y,3/4-x,3/4+z
1/2-x,1/2-y,1/2-z
3/4+y,1/4-x,1/4-z
1/2+x,y,1/2-z
1/4-y,1/4+x,1/4-z
loop_
_atom_site_type_symbol
_atom_site_label
_atom_site_fract_x
_atom_site_fract_y
_atom_site_fract_z
Si Si1 0.415013 0.371537 0.274807
Si Si2 0.456610 0.187292 0.677921
Si Si3 0.099856 0.996674 0.361368
Si Si4 0.027641 0.059092 0.743386
Si Si5 0.803060 0.270843 0.159924
Si Si6 0.882459 0.418172 0.556604
O O1 0.449164 0.322159 0.189544
O O2 0.396782 0.436702 0.207665
O O3 0.461848 0.398086 0.368935
O O4 0.349758 0.332000 0.309615
O O5 0.500000 0.250000 0.712362
O O6 0.501114 0.120678 0.687199
O O7 0.393299 0.171188 0.751431
O O8 0.030129 0.960734 0.339069
O O9 0.152543 0.944955 0.316404
O O10 0.106748 0.018593 0.481978
O O11 0.090281 0.076607 0.673905
O O12 0.038824 0.994513 0.813018
O O13 0.750000 0.250000 0.250000
#
# Coordination Sequence:
#
# PCOD9546466 Si02
#       6
#    16  16  16  16  16  16
#     4  10  23  41  65  88 130 167 207 267 315 386
#     4  10  22  36  63  97 121 156 203 257 327 375
#     4   9  21  41  61  85 124 166 197 251 328 366
#     4  10  21  39  61  91 126 157 199 262 312 375
#     4  11  23  43  65  94 128 170 216 260 323 376
#     4  10  21  40  62  88 125 160 207 254 309 379
#
# _framework density 18.613237000000002
#
# number of rings (size 3 to 8) (size 9 to 14) (size 15 to 20)
#    0.000    2.000    1.667    0.500    9.333    0.000 
#    6.000    0.000    0.000    0.000    0.000    0.000 
#    0.000    0.000    0.000    0.000    0.000    0.000 
#
# Total GULP energy -267667.309704 kJ/mol
# GULP energy per Si atom -5576.402285 kJ/mol
# Density = 1.857087 g / cm^3
# Si number density = 18.613237 Si / 1000 Ang^3
#
#
#
# Elastic Constant Matrix: (Units=GPa)
#
#
# Indices 1 2 3 4 5 6 
#
# 1 76.2120 42.9439 16.9579 0.0000 0.0000 -2.8469
# 2 42.9439 76.2120 16.9579 0.0000 0.0000 2.8469
# 3 16.9579 16.9579 52.8058 0.0000 0.0000 0.0000
# 4 0.0000 0.0000 0.0000 11.4843 0.0000 0.0000
# 5 0.0000 0.0000 0.0000 0.0000 11.4843 0.0000
# 6 -2.8469 2.8469 0.0000 0.0000 0.0000 7.0606
#
#
#
# Elastic Compliance Matrix: (Units=1/GPa)
#
#
# Indices 1 2 3 4 5 6 
#
# 1 0.020762 -0.011525 -0.002966 0.000000 0.000000 0.013018
# 2 -0.011525 0.020762 -0.002966 0.000000 0.000000 -0.013018
# 3 -0.002966 -0.002966 0.020842 0.000000 0.000000 0.000000
# 4 0.000000 0.000000 0.000000 0.087075 0.000000 0.000000
# 5 0.000000 0.000000 0.000000 0.000000 0.087075 0.000000
# 6 0.013018 -0.013018 0.000000 0.000000 0.000000 0.152130
#
#
# Mechanical properties :
#
#
# Convention : Reuss Voigt Hill
#
# Bulk Modulus (GPa) = 36.42876 39.88325 38.15601
# Shear Modulus (GPa) = 11.55502 14.56383 13.05942
#
# Velocity S-wave (km/s) = 2.49428 2.80026 2.65169
# Velocity P-wave (km/s) = 5.28291 5.65059 5.46984
#
# Compressibility (1/GPa) = 0.02745083
#
# Stress axis : x y z
#
# Youngs Moduli (GPa) = 48.16545 48.16545 47.97898
#
# Poissons Ratio (x) = 0.55511 0.14232
# Poissons Ratio (y) = 0.55511 0.14232
# Poissons Ratio (z) = 0.14287 0.14287
#
# Static dielectric constant tensor:
#      x y z
#    x 1.631000 0.000000 0.000000 
#    y 0.000000 1.631000 0.000000 
#    z 0.000000 0.000000 1.668850 
# 
# From -- ./inp_files/2639.got.cif
#   From: 2010.05.17/outbox.cif.g08.bks.cpg/sg88_2_cif.got.tgz:2639.got - 2010.06.03 19:11:41.
