data_PCOD9546966
_publ_section_title
;
Structure prediction by ZEFSAII (Michael W. Deem and Ramdas Pophale) SiO2 
 PCOD9546966
Probable space group: P 4 2 2
;
_chemical_formula_sum "Si O2"
_cell_formula_units_Z 40
_cell_length_a 9.173983
_cell_length_b 9.173983
_cell_length_c 27.231870
_cell_angle_alpha 90.000000
_cell_angle_beta 90.000000
_cell_angle_gamma 90.000000
_cell_volume 2291.887665
_symmetry_space_group_name_H-M "P 4 2 2"
_symmetry_group_IT_number 89
_symmetry_cell_setting 'tetragonal'
loop_
_space_group_symop_operation_xyz
x,y,z
-y,x,z
-x,-y,z
y,-x,z
x,-y,-z
-x,y,-z
y,x,-z
-y,-x,-z
loop_
_atom_site_type_symbol
_atom_site_label
_atom_site_fract_x
_atom_site_fract_y
_atom_site_fract_z
Si Si1 0.755027 0.995150 0.444666
Si Si2 0.000000 0.500000 0.793720
Si Si3 0.252835 0.519243 0.714100
Si Si4 0.000000 0.500000 0.633604
Si Si5 0.865721 0.657782 0.976235
Si Si6 0.757367 0.946624 0.129816
O O1 0.862839 0.857406 0.440636
O O2 0.691743 0.000000 0.500000
O O3 0.638190 0.988874 0.402020
O O4 0.141006 0.532207 0.759764
O O5 0.045163 0.360547 0.826626
O O6 0.348653 0.370073 0.714558
O O7 0.143765 0.516322 0.667479
O O8 0.897216 0.668477 0.918819
O O9 0.866324 0.500000 0.000000
O O10 0.724676 0.724676 0.000000
O O11 0.000000 0.745072 0.000000
O O12 0.893168 0.833198 0.130312
#
# Coordination Sequence:
#
# PCOD9546966 Si02
#       6
#     8   4   8   4   8   8
#     4   9  18  32  50  77 114 151 189 235 282 331
#     4  11  22  40  62  82 108 142 182 227 274 332
#     4  10  22  39  57  80 111 145 181 231 286 335
#     4  11  19  32  57  82 107 146 195 233 278 334
#     4  11  22  38  59  83 115 148 179 214 258 313
#     4  11  23  38  60  87 111 139 179 222 266 317
#
# _framework density 17.452860999999999
#
# number of rings (size 3 to 8) (size 9 to 14) (size 15 to 20)
#    0.000    1.600    2.000    4.500    0.000    0.400 
#    0.000    0.000    0.000    9.600    0.000    8.400 
#    0.000    0.000    0.000    0.000    0.000    0.000 
#
# Total GULP energy -222733.506656 kJ/mol
# GULP energy per Si atom -5568.337666 kJ/mol
# Density = 1.741314 g / cm^3
# Si number density = 17.452861 Si / 1000 Ang^3
#
#
#
# Elastic Constant Matrix: (Units=GPa)
#
#
# Indices 1 2 3 4 5 6 
#
# 1 113.8344 50.4258 70.7403 0.0000 0.0000 0.0000
# 2 50.4258 113.8344 70.7403 0.0000 0.0000 0.0000
# 3 70.7403 70.7403 161.0495 0.0000 0.0000 0.0000
# 4 0.0000 0.0000 0.0000 23.9256 0.0000 0.0000
# 5 0.0000 0.0000 0.0000 0.0000 23.9256 0.0000
# 6 0.0000 0.0000 0.0000 0.0000 0.0000 14.0424
#
#
#
# Elastic Compliance Matrix: (Units=1/GPa)
#
#
# Indices 1 2 3 4 5 6 
#
# 1 0.012782 -0.002989 -0.004301 0.000000 0.000000 0.000000
# 2 -0.002989 0.012782 -0.004301 0.000000 0.000000 0.000000
# 3 -0.004301 -0.004301 0.009988 0.000000 0.000000 0.000000
# 4 0.000000 0.000000 0.000000 0.041796 0.000000 0.000000
# 5 0.000000 0.000000 0.000000 0.000000 0.041796 0.000000
# 6 0.000000 0.000000 0.000000 0.000000 0.000000 0.071213
#
#
# Mechanical properties :
#
#
# Convention : Reuss Voigt Hill
#
# Bulk Modulus (GPa) = 80.85448 85.83678 83.34563
# Shear Modulus (GPa) = 22.97125 25.49952 24.23538
#
# Velocity S-wave (km/s) = 3.63187 3.82652 3.73046
# Velocity P-wave (km/s) = 8.00095 8.29529 8.14945
#
# Compressibility (1/GPa) = 0.01236790
#
# Stress axis : x y z
#
# Youngs Moduli (GPa) = 78.23632 78.23632 100.11945
#
# Poissons Ratio (x) = 0.23384 0.43066
# Poissons Ratio (y) = 0.23384 0.43066
# Poissons Ratio (z) = 0.33653 0.33653
#
# Static dielectric constant tensor:
#      x y z
#    x 1.572160 0.000000 0.000000 
#    y 0.000000 1.572160 0.000000 
#    z 0.000000 0.000000 1.659190 
# 
# From -- ./inp_files/2853.got.cif
#   From: 2010.05.17/outbox.cif.g08.bks.cpg/sg89_2_cif.got.tgz:2853.got - 2010.06.03 19:15:31.
