data_PCOD9546327
_publ_section_title
;
Structure prediction by ZEFSAII (Michael W. Deem and Ramdas Pophale) SiO2 
 PCOD9546327
Probable space group: I 41/A
;
_chemical_formula_sum "Si O2"
_cell_formula_units_Z 72
_cell_length_a 13.180826
_cell_length_b 13.180826
_cell_length_c 14.436192
_cell_angle_alpha 90.000000
_cell_angle_beta 90.000000
_cell_angle_gamma 90.000000
_cell_volume 2508.059893
_symmetry_space_group_name_H-M "I 41/A"
_symmetry_group_IT_number 88
_space_group.IT_coordinate_system_code '2'
_symmetry_cell_setting 'tetragonal'
loop_
_space_group_symop_operation_xyz
x,y,z
3/4-y,1/4+x,1/4+z
-x,1/2-y,z
1/4+y,1/4-x,1/4+z
-x,-y,-z
1/4+y,3/4-x,3/4-z
x,1/2+y,-z
3/4-y,3/4+x,3/4-z
1/2+x,1/2+y,1/2+z
1/4-y,3/4+x,3/4+z
1/2-x,-y,1/2+z
3/4+y,3/4-x,3/4+z
1/2-x,1/2-y,1/2-z
3/4+y,1/4-x,1/4-z
1/2+x,y,1/2-z
1/4-y,1/4+x,1/4-z
loop_
_atom_site_type_symbol
_atom_site_label
_atom_site_fract_x
_atom_site_fract_y
_atom_site_fract_z
Si Si1 0.818691 0.592671 0.455090
Si Si2 0.989006 0.116798 0.856853
Si Si3 0.500000 0.000000 0.500000
Si Si4 0.306139 0.606256 0.559539
Si Si5 0.985348 0.454663 0.372348
O O1 0.845315 0.681009 0.527748
O O2 0.758182 0.489923 0.477281
O O3 0.922516 0.546958 0.416556
O O4 0.747272 0.651811 0.381670
O O5 0.914548 0.015022 0.886935
O O6 0.904120 0.200961 0.834774
O O7 0.038894 0.114638 0.956924
O O8 0.584528 0.939174 0.572569
O O9 0.307773 0.689216 0.479649
#
# Coordination Sequence:
#
# PCOD9546327 Si02
#       5
#    16  16   8  16  16
#     4  10  20  38  66  84 125 167 201 259 314 363
#     4   9  20  37  61  91 119 160 204 254 311 374
#     4  10  20  34  66  88 118 160 206 244 312 382
#     4   9  20  39  62  87 127 161 198 258 320 364
#     4   9  20  40  60  91 123 161 210 252 312 375
#
# _framework density 28.707450000000001
#
# number of rings (size 3 to 8) (size 9 to 14) (size 15 to 20)
#    0.000    2.667    0.000    0.000    9.333    0.444 
#    0.000   22.222    0.000    0.000    0.000    0.000 
#    0.000    0.000    0.000    0.000    0.000    0.000 
#
# Total GULP energy -200577.155017 kJ/mol
# GULP energy per Si atom -5571.587639 kJ/mol
# Density = 2.864211 g / cm^3
# Si number density = 28.707450 Si / 1000 Ang^3
#
#
#
# Elastic Constant Matrix: (Units=GPa)
#
#
# Indices 1 2 3 4 5 6 
#
# 1 181.3082 78.0218 34.3092 0.0000 0.0000 -6.4483
# 2 78.0218 181.3082 34.3092 0.0000 0.0000 6.4483
# 3 34.3092 34.3092 69.2838 0.0000 0.0000 0.0000
# 4 0.0000 0.0000 0.0000 43.2029 0.0000 0.0000
# 5 0.0000 0.0000 0.0000 0.0000 43.2029 0.0000
# 6 -6.4483 6.4483 0.0000 0.0000 0.0000 61.0010
#
#
#
# Elastic Compliance Matrix: (Units=1/GPa)
#
#
# Indices 1 2 3 4 5 6 
#
# 1 0.007124 -0.002687 -0.002197 0.000000 0.000000 0.001037
# 2 -0.002687 0.007124 -0.002197 0.000000 0.000000 -0.001037
# 3 -0.002197 -0.002197 0.016610 0.000000 0.000000 0.000000
# 4 0.000000 0.000000 0.000000 0.023147 0.000000 0.000000
# 5 0.000000 0.000000 0.000000 0.000000 0.023147 0.000000
# 6 0.001037 -0.001037 0.000000 0.000000 0.000000 0.016612
#
#
# Mechanical properties :
#
#
# Convention : Reuss Voigt Hill
#
# Bulk Modulus (GPa) = 59.89826 80.57561 70.23693
# Shear Modulus (GPa) = 44.05566 48.49870 46.27718
#
# Velocity S-wave (km/s) = 3.92170 4.11470 4.01936
# Velocity P-wave (km/s) = 6.43558 7.12062 6.78675
#
# Compressibility (1/GPa) = 0.01669498
#
# Stress axis : x y z
#
# Youngs Moduli (GPa) = 140.36214 140.36214 60.20569
#
# Poissons Ratio (x) = 0.37714 0.13230
# Poissons Ratio (y) = 0.37714 0.13230
# Poissons Ratio (z) = 0.30844 0.30844
#
# Static dielectric constant tensor:
#      x y z
#    x 3.440530 0.000000 0.000000 
#    y 0.000000 3.440530 0.000000 
#    z 0.000000 0.000000 2.989140 
# 
# From -- ./inp_files/3831.got.cif
#   From: 2010.05.17/outbox.cif.g08.bks.cpg/sg88_2_cif.got.tgz:3831.got - 2010.06.03 19:11:41.
