data_PCOD9546113
_publ_section_title
;
Structure prediction by ZEFSAII (Michael W. Deem and Ramdas Pophale) SiO2 
 PCOD9546113
Probable space group: I 4/M
;
_chemical_formula_sum "Si O2"
_cell_formula_units_Z 72
_cell_length_a 10.453242
_cell_length_b 10.453242
_cell_length_c 32.642714
_cell_angle_alpha 90.000000
_cell_angle_beta 90.000000
_cell_angle_gamma 90.000000
_cell_volume 3566.878117
_symmetry_space_group_name_H-M "I 4/M"
_symmetry_group_IT_number 87
_symmetry_cell_setting 'tetragonal'
loop_
_space_group_symop_operation_xyz
x,y,z
-y,x,z
-x,-y,z
y,-x,z
-x,-y,-z
y,-x,-z
x,y,-z
-y,x,-z
1/2+x,1/2+y,1/2+z
1/2-y,1/2+x,1/2+z
1/2-x,1/2-y,1/2+z
1/2+y,1/2-x,1/2+z
1/2-x,1/2-y,1/2-z
1/2+y,1/2-x,1/2-z
1/2+x,1/2+y,1/2-z
1/2-y,1/2+x,1/2-z
loop_
_atom_site_type_symbol
_atom_site_label
_atom_site_fract_x
_atom_site_fract_y
_atom_site_fract_z
Si Si1 0.282416 0.496459 0.500000
Si Si2 0.973774 0.347878 0.912872
Si Si3 0.804292 0.914235 0.306226
Si Si4 0.235864 0.788727 0.866892
Si Si5 0.311889 0.395447 0.718423
O O1 0.378930 0.374692 0.500000
O O2 0.194879 0.493437 0.459685
O O3 0.072001 0.255104 0.887170
O O4 0.000000 0.500000 0.907221
O O5 0.831281 0.305681 0.898853
O O6 0.736452 0.875329 0.347708
O O7 0.741507 0.877264 0.262389
O O8 0.938343 0.839428 0.306071
O O9 0.152231 0.764227 0.825339
O O10 0.453165 0.334747 0.718375
#
# Coordination Sequence:
#
# PCOD9546113 Si02
#       5
#     8  16  16  16  16
#     4  11  23  46  74 100 125 161 198 254 334 389
#     4  12  26  41  66  97 127 165 205 260 327 387
#     4   9  19  35  54  77 115 171 218 257 306 362
#     4  12  21  37  59  88 128 161 207 266 304 381
#     4   9  17  31  54  81 114 161 212 258 314 352
#
# _framework density 20.185718999999999
#
# number of rings (size 3 to 8) (size 9 to 14) (size 15 to 20)
#    0.000    1.444    4.444    3.667    0.000    0.444 
#    0.000    0.000    0.000    0.000    0.000    1.556 
#    0.000    0.000    0.000    0.000    0.000    0.000 
#
# Total GULP energy -200413.688343 kJ/mol
# GULP energy per Si atom -5567.046898 kJ/mol
# Density = 2.013978 g / cm^3
# Si number density = 20.185719 Si / 1000 Ang^3
#
#
#
# Elastic Constant Matrix: (Units=GPa)
#
#
# Indices 1 2 3 4 5 6 
#
# 1 52.0191 18.9373 26.5337 0.0000 0.0000 -6.1978
# 2 18.9373 52.0191 26.5337 0.0000 0.0000 6.1978
# 3 26.5337 26.5337 122.8457 0.0000 0.0000 0.0000
# 4 0.0000 0.0000 0.0000 28.4321 0.0000 0.0000
# 5 0.0000 0.0000 0.0000 0.0000 28.4321 0.0000
# 6 -6.1978 6.1978 0.0000 0.0000 0.0000 40.8954
#
#
#
# Elastic Compliance Matrix: (Units=1/GPa)
#
#
# Indices 1 2 3 4 5 6 
#
# 1 0.024428 -0.007620 -0.003630 0.000000 0.000000 0.004857
# 2 -0.007620 0.024428 -0.003630 0.000000 0.000000 -0.004857
# 3 -0.003630 -0.003630 0.009709 0.000000 0.000000 0.000000
# 4 0.000000 0.000000 0.000000 0.035172 0.000000 0.000000
# 5 0.000000 0.000000 0.000000 0.000000 0.035172 0.000000
# 6 0.004857 -0.004857 0.000000 0.000000 0.000000 0.025925
#
#
# Mechanical properties :
#
#
# Convention : Reuss Voigt Hill
#
# Bulk Modulus (GPa) = 34.71810 41.21035 37.96423
# Shear Modulus (GPa) = 25.74724 29.87719 27.81222
#
# Velocity S-wave (km/s) = 3.57531 3.85140 3.71592
# Velocity P-wave (km/s) = 5.85496 6.34331 6.10402
#
# Compressibility (1/GPa) = 0.02880342
#
# Stress axis : x y z
#
# Youngs Moduli (GPa) = 40.93631 40.93631 103.00147
#
# Poissons Ratio (x) = 0.31193 0.37394
# Poissons Ratio (y) = 0.31193 0.37394
# Poissons Ratio (z) = 0.14862 0.14862
#
# Static dielectric constant tensor:
#      x y z
#    x 1.749570 0.000000 0.000000 
#    y 0.000000 1.749570 0.000000 
#    z 0.000000 0.000000 1.775110 
# 
# From -- ./inp_files/6175.got.cif
#   From: 2010.05.17/outbox.cif.g08.bks.cpg/sg87_4_cif.got.tgz:6175.got - 2010.06.03 19:07:00.
