data_PCOD9546074
_publ_section_title
;
Structure prediction by ZEFSAII (Michael W. Deem and Ramdas Pophale) SiO2 
 PCOD9546074
Probable space group: I 4/M
;
_chemical_formula_sum "Si O2"
_cell_formula_units_Z 80
_cell_length_a 10.911889
_cell_length_b 10.911889
_cell_length_c 31.125030
_cell_angle_alpha 90.000000
_cell_angle_beta 90.000000
_cell_angle_gamma 90.000000
_cell_volume 3706.036205
_symmetry_space_group_name_H-M "I 4/M"
_symmetry_group_IT_number 87
_symmetry_cell_setting 'tetragonal'
loop_
_space_group_symop_operation_xyz
x,y,z
-y,x,z
-x,-y,z
y,-x,z
-x,-y,-z
y,-x,-z
x,y,-z
-y,x,-z
1/2+x,1/2+y,1/2+z
1/2-y,1/2+x,1/2+z
1/2-x,1/2-y,1/2+z
1/2+y,1/2-x,1/2+z
1/2-x,1/2-y,1/2-z
1/2+y,1/2-x,1/2-z
1/2+x,1/2+y,1/2-z
1/2-y,1/2+x,1/2-z
loop_
_atom_site_type_symbol
_atom_site_label
_atom_site_fract_x
_atom_site_fract_y
_atom_site_fract_z
Si Si1 0.685871 0.584125 0.653840
Si Si2 0.164637 0.120887 0.320616
Si Si3 0.857159 0.518669 0.051200
Si Si4 0.603768 0.173679 0.259713
Si Si5 0.743777 0.278078 0.909002
O O1 0.558218 0.655208 0.659772
O O2 0.782953 0.615257 0.691095
O O3 0.729197 0.623072 0.606296
O O4 0.228083 0.148390 0.275342
O O5 0.225206 0.172774 0.363399
O O6 0.025456 0.163398 0.322737
O O7 0.770648 0.413726 0.072604
O O8 0.803599 0.654196 0.061645
O O9 0.000000 0.500000 0.065205
O O10 0.853785 0.499919 0.000000
O O11 0.458259 0.158621 0.250907
#
# Coordination Sequence:
#
# PCOD9546074 Si02
#       5
#    16  16  16  16  16
#     4  11  24  42  65  95 134 184 238 291 343 406
#     4  11  22  38  60  90 127 170 223 273 333 397
#     4  11  26  47  73 106 141 180 226 286 360 434
#     4  11  24  40  60  91 132 183 235 286 341 401
#     4  12  23  44  70 101 137 177 225 286 348 423
#
# _framework density 21.586404000000002
#
# number of rings (size 3 to 8) (size 9 to 14) (size 15 to 20)
#    0.000    0.800    2.000    5.400    0.000    4.400 
#    0.000    1.000    0.000    0.000    0.000    8.400 
#    0.000    0.000    0.000    0.000    0.000    0.000 
#
# Total GULP energy -223545.933842 kJ/mol
# GULP energy per Si atom -5588.648346 kJ/mol
# Density = 2.153727 g / cm^3
# Si number density = 21.586404 Si / 1000 Ang^3
#
#
#
# Elastic Constant Matrix: (Units=GPa)
#
#
# Indices 1 2 3 4 5 6 
#
# 1 84.6855 45.7269 29.7398 0.0000 0.0000 -13.6718
# 2 45.7269 84.6855 29.7398 0.0000 0.0000 13.6718
# 3 29.7398 29.7398 78.9171 0.0000 0.0000 0.0000
# 4 0.0000 0.0000 0.0000 39.6123 0.0000 0.0000
# 5 0.0000 0.0000 0.0000 0.0000 39.6123 0.0000
# 6 -13.6718 13.6718 0.0000 0.0000 0.0000 27.8524
#
#
#
# Elastic Compliance Matrix: (Units=1/GPa)
#
#
# Indices 1 2 3 4 5 6 
#
# 1 0.024210 -0.014950 -0.003489 0.000000 0.000000 0.019222
# 2 -0.014950 0.024210 -0.003489 0.000000 0.000000 -0.019222
# 3 -0.003489 -0.003489 0.015301 0.000000 0.000000 0.000000
# 4 0.000000 0.000000 0.000000 0.025245 0.000000 0.000000
# 5 0.000000 0.000000 0.000000 0.000000 0.025245 0.000000
# 6 0.019222 -0.019222 0.000000 0.000000 0.000000 0.054775
#
#
# Mechanical properties :
#
#
# Convention : Reuss Voigt Hill
#
# Bulk Modulus (GPa) = 50.34547 50.96677 50.65612
# Shear Modulus (GPa) = 22.78284 30.95418 26.86851
#
# Velocity S-wave (km/s) = 3.25226 3.79088 3.53185
# Velocity P-wave (km/s) = 6.12179 6.54392 6.33637
#
# Compressibility (1/GPa) = 0.01986276
#
# Stress axis : x y z
#
# Youngs Moduli (GPa) = 41.30598 41.30598 65.35314
#
# Poissons Ratio (x) = 0.61753 0.22804
# Poissons Ratio (y) = 0.61753 0.22804
# Poissons Ratio (z) = 0.14413 0.14413
#
# Static dielectric constant tensor:
#      x y z
#    x 1.845730 0.000000 0.000000 
#    y 0.000000 1.845730 0.000000 
#    z 0.000000 0.000000 1.747060 
# 
# From -- ./inp_files/6469.got.cif
#   From: 2010.05.17/outbox.cif.g08.bks.cpg/sg87_4_cif.got.tgz:6469.got - 2010.06.03 19:07:00.
