data_PCOD9546806
_publ_section_title
;
Structure prediction by ZEFSAII (Michael W. Deem and Ramdas Pophale) SiO2 
 PCOD9546806
Probable space group: I 41/A
;
_chemical_formula_sum "Si O2"
_cell_formula_units_Z 112
_cell_length_a 15.253628
_cell_length_b 15.253628
_cell_length_c 19.547436
_cell_angle_alpha 90.000000
_cell_angle_beta 90.000000
_cell_angle_gamma 90.000000
_cell_volume 4548.163844
_symmetry_space_group_name_H-M "I 41/A"
_symmetry_group_IT_number 88
_space_group.IT_coordinate_system_code '2'
_symmetry_cell_setting 'tetragonal'
loop_
_space_group_symop_operation_xyz
x,y,z
3/4-y,1/4+x,1/4+z
-x,1/2-y,z
1/4+y,1/4-x,1/4+z
-x,-y,-z
1/4+y,3/4-x,3/4-z
x,1/2+y,-z
3/4-y,3/4+x,3/4-z
1/2+x,1/2+y,1/2+z
1/4-y,3/4+x,3/4+z
1/2-x,-y,1/2+z
3/4+y,3/4-x,3/4+z
1/2-x,1/2-y,1/2-z
3/4+y,1/4-x,1/4-z
1/2+x,y,1/2-z
1/4-y,1/4+x,1/4-z
loop_
_atom_site_type_symbol
_atom_site_label
_atom_site_fract_x
_atom_site_fract_y
_atom_site_fract_z
Si Si1 0.589113 0.783863 0.861498
Si Si2 0.832242 0.622144 0.755454
Si Si3 0.880624 0.210138 0.601936
Si Si4 0.554881 0.966220 0.934018
Si Si5 0.385964 0.235481 0.413407
Si Si6 0.182458 0.460248 0.535619
Si Si7 0.386032 0.036351 0.637055
O O1 0.500000 0.750000 0.826950
O O2 0.661266 0.809062 0.805423
O O3 0.560271 0.867144 0.906824
O O4 0.635063 0.703916 0.899621
O O5 0.928971 0.621734 0.789972
O O6 0.820268 0.530987 0.717645
O O7 0.754116 0.630209 0.810228
O O8 0.923765 0.304656 0.587112
O O9 0.781475 0.224088 0.624697
O O10 0.875464 0.126366 0.552460
O O11 0.652901 0.988422 0.959740
O O12 0.500000 0.000000 0.000000
O O13 0.412331 0.285743 0.340676
O O14 0.299257 0.177950 0.423012
O O15 0.180581 0.542604 0.585962
#
# Coordination Sequence:
#
# PCOD9546806 Si02
#       7
#    16  16  16  16  16  16  16
#     4  12  28  45  73 109 149 199 248 304 391 460
#     4  11  25  44  76 104 150 192 248 313 369 462
#     4  11  25  47  75 107 140 193 254 312 392 456
#     4  12  25  48  74 105 153 188 250 322 379 458
#     4   9  21  41  72 100 142 190 240 289 375 447
#     4  12  25  45  76 106 148 196 249 317 379 456
#     4  11  26  46  70 106 148 193 246 304 381 449
#
# _framework density 24.625322000000001
#
# number of rings (size 3 to 8) (size 9 to 14) (size 15 to 20)
#    0.000    0.857    2.857    3.000    8.000    4.571 
#    0.000    0.000    0.000    0.000    0.000    0.000 
#    0.000    0.000    0.000    0.000    0.000    0.000 
#
# Total GULP energy -312107.995786 kJ/mol
# GULP energy per Si atom -5573.357068 kJ/mol
# Density = 2.456927 g / cm^3
# Si number density = 24.625322 Si / 1000 Ang^3
#
#
#
# Elastic Constant Matrix: (Units=GPa)
#
#
# Indices 1 2 3 4 5 6 
#
# 1 94.7154 51.4824 16.1085 0.0000 0.0000 6.7056
# 2 51.4824 94.7155 16.1085 0.0000 0.0000 -6.7056
# 3 16.1085 16.1085 43.4291 0.0000 0.0000 0.0000
# 4 0.0000 0.0000 0.0000 24.7680 0.0000 0.0000
# 5 0.0000 0.0000 0.0000 0.0000 24.7680 0.0000
# 6 6.7056 -6.7056 0.0000 0.0000 0.0000 44.6013
#
#
#
# Elastic Compliance Matrix: (Units=1/GPa)
#
#
# Indices 1 2 3 4 5 6 
#
# 1 0.015855 -0.008407 -0.002763 0.000000 0.000000 -0.003648
# 2 -0.008407 0.015855 -0.002763 0.000000 0.000000 0.003648
# 3 -0.002763 -0.002763 0.025076 0.000000 0.000000 0.000000
# 4 0.000000 0.000000 0.000000 0.040375 0.000000 0.000000
# 5 0.000000 0.000000 0.000000 0.000000 0.040375 0.000000
# 6 -0.003648 0.003648 0.000000 0.000000 0.000000 0.023518
#
#
# Mechanical properties :
#
#
# Convention : Reuss Voigt Hill
#
# Bulk Modulus (GPa) = 34.57598 44.47321 39.52459
# Shear Modulus (GPa) = 25.18144 28.77150 26.97647
#
# Velocity S-wave (km/s) = 3.20125 3.42185 3.31339
# Velocity P-wave (km/s) = 5.26644 5.80614 5.54286
#
# Compressibility (1/GPa) = 0.02892182
#
# Stress axis : x y z
#
# Youngs Moduli (GPa) = 63.06979 63.06979 39.87928
#
# Poissons Ratio (x) = 0.53020 0.11018
# Poissons Ratio (y) = 0.53020 0.11018
# Poissons Ratio (z) = 0.17426 0.17426
#
# Static dielectric constant tensor:
#      x y z
#    x 2.004710 0.000000 0.000000 
#    y 0.000000 2.004710 0.000000 
#    z 0.000000 0.000000 2.029130 
# 
# From -- ./inp_files/5332.got.cif
#   From: 2010.05.17/outbox.cif.g08.bks.cpg/sg88_3_cif.got.tgz:5332.got - 2010.06.03 19:11:41.
