data_PCOD9546816
_publ_section_title
;
Structure prediction by ZEFSAII (Michael W. Deem and Ramdas Pophale) SiO2 
 PCOD9546816
Probable space group: I 41/A
;
_chemical_formula_sum "Si O2"
_cell_formula_units_Z 48
_cell_length_a 10.174664
_cell_length_b 10.174664
_cell_length_c 18.750082
_cell_angle_alpha 90.000000
_cell_angle_beta 90.000000
_cell_angle_gamma 90.000000
_cell_volume 1941.079505
_symmetry_space_group_name_H-M "I 41/A"
_symmetry_group_IT_number 88
_space_group.IT_coordinate_system_code '2'
_symmetry_cell_setting 'tetragonal'
loop_
_space_group_symop_operation_xyz
x,y,z
3/4-y,1/4+x,1/4+z
-x,1/2-y,z
1/4+y,1/4-x,1/4+z
-x,-y,-z
1/4+y,3/4-x,3/4-z
x,1/2+y,-z
3/4-y,3/4+x,3/4-z
1/2+x,1/2+y,1/2+z
1/4-y,3/4+x,3/4+z
1/2-x,-y,1/2+z
3/4+y,3/4-x,3/4+z
1/2-x,1/2-y,1/2-z
3/4+y,1/4-x,1/4-z
1/2+x,y,1/2-z
1/4-y,1/4+x,1/4-z
loop_
_atom_site_type_symbol
_atom_site_label
_atom_site_fract_x
_atom_site_fract_y
_atom_site_fract_z
Si Si1 0.975098 0.423340 0.386826
Si Si2 0.305144 0.064944 0.770854
Si Si3 0.584355 0.128313 0.514033
O O1 0.362998 0.616223 0.304096
O O2 0.058000 0.530994 0.430332
O O3 0.089860 0.339050 0.348840
O O4 0.902781 0.476732 0.316825
O O5 0.171443 0.980592 0.757996
O O6 0.500000 0.250000 0.480963
O O7 0.500000 0.000000 0.500000
#
# Coordination Sequence:
#
# PCOD9546816 Si02
#       3
#    16  16  16
#     4  11  25  51  81 115 163 210 286 349 431 511
#     4  11  25  52  80 123 157 217 282 354 434 507
#     4  12  26  51  76 117 168 221 282 350 439 519
#
# _framework density 24.728507
#
# number of rings (size 3 to 8) (size 9 to 14) (size 15 to 20)
#    0.000    0.667    6.667    0.000    0.000    3.333 
#    6.000    0.000    0.000    0.000    0.000    0.000 
#    0.000    0.000    0.000    0.000    0.000    0.000 
#
# Total GULP energy -133798.422631 kJ/mol
# GULP energy per Si atom -5574.934276 kJ/mol
# Density = 2.467222 g / cm^3
# Si number density = 24.728507 Si / 1000 Ang^3
#
#
#
# Elastic Constant Matrix: (Units=GPa)
#
#
# Indices 1 2 3 4 5 6 
#
# 1 120.7820 40.9561 79.3328 0.0000 0.0000 1.8409
# 2 40.9561 120.7820 79.3328 0.0000 0.0000 -1.8409
# 3 79.3328 79.3328 180.0080 0.0000 0.0000 0.0000
# 4 0.0000 0.0000 0.0000 39.6909 0.0000 0.0000
# 5 0.0000 0.0000 0.0000 0.0000 39.6909 0.0000
# 6 1.8409 -1.8409 0.0000 0.0000 0.0000 36.2789
#
#
#
# Elastic Compliance Matrix: (Units=1/GPa)
#
#
# Indices 1 2 3 4 5 6 
#
# 1 0.011724 -0.000832 -0.004800 0.000000 0.000000 -0.000637
# 2 -0.000832 0.011724 -0.004800 0.000000 0.000000 0.000637
# 3 -0.004800 -0.004800 0.009786 0.000000 0.000000 0.000000
# 4 0.000000 0.000000 0.000000 0.025195 0.000000 0.000000
# 5 0.000000 0.000000 0.000000 0.000000 0.025195 0.000000
# 6 -0.000637 0.000637 0.000000 0.000000 0.000000 0.027629
#
#
# Mechanical properties :
#
#
# Convention : Reuss Voigt Hill
#
# Bulk Modulus (GPa) = 80.84596 91.20171 86.02384
# Shear Modulus (GPa) = 36.69937 37.92883 37.31410
#
# Velocity S-wave (km/s) = 3.85657 3.92064 3.88874
# Velocity P-wave (km/s) = 7.25226 7.58000 7.41794
#
# Compressibility (1/GPa) = 0.01236920
#
# Stress axis : x y z
#
# Youngs Moduli (GPa) = 85.29311 85.29311 102.18221
#
# Poissons Ratio (x) = 0.07100 0.49050
# Poissons Ratio (y) = 0.07100 0.49050
# Poissons Ratio (z) = 0.40943 0.40943
#
# Static dielectric constant tensor:
#      x y z
#    x 2.242530 0.000000 0.000000 
#    y 0.000000 2.242530 0.000000 
#    z 0.000000 0.000000 1.882750 
# 
# From -- ./inp_files/3584.got.cif
#   From: 2010.05.17/outbox.cif.g08.bks.cpg/sg88_2_cif.got.tgz:3584.got - 2010.06.03 19:11:41.
