data_PCOD9546277
_publ_section_title
;
Structure prediction by ZEFSAII (Michael W. Deem and Ramdas Pophale) SiO2 
 PCOD9546277
Probable space group: I 41/A
;
_chemical_formula_sum "Si O2"
_cell_formula_units_Z 128
_cell_length_a 20.415239
_cell_length_b 20.415239
_cell_length_c 16.176860
_cell_angle_alpha 90.000000
_cell_angle_beta 90.000000
_cell_angle_gamma 90.000000
_cell_volume 6742.223796
_symmetry_space_group_name_H-M "I 41/A"
_symmetry_group_IT_number 88
_space_group.IT_coordinate_system_code '2'
_symmetry_cell_setting 'tetragonal'
loop_
_space_group_symop_operation_xyz
x,y,z
3/4-y,1/4+x,1/4+z
-x,1/2-y,z
1/4+y,1/4-x,1/4+z
-x,-y,-z
1/4+y,3/4-x,3/4-z
x,1/2+y,-z
3/4-y,3/4+x,3/4-z
1/2+x,1/2+y,1/2+z
1/4-y,3/4+x,3/4+z
1/2-x,-y,1/2+z
3/4+y,3/4-x,3/4+z
1/2-x,1/2-y,1/2-z
3/4+y,1/4-x,1/4-z
1/2+x,y,1/2-z
1/4-y,1/4+x,1/4-z
loop_
_atom_site_type_symbol
_atom_site_label
_atom_site_fract_x
_atom_site_fract_y
_atom_site_fract_z
Si Si1 0.285311 0.569664 0.226783
Si Si2 0.226692 0.658826 0.368995
Si Si3 0.006169 0.059037 0.256580
Si Si4 0.892127 0.369328 0.953416
Si Si5 0.183716 0.489109 0.298061
Si Si6 0.320579 0.180876 0.029545
Si Si7 0.990068 0.646491 0.360963
Si Si8 0.397325 0.713988 0.635957
O O1 0.266810 0.625925 0.293199
O O2 0.355310 0.554496 0.183995
O O3 0.257531 0.506227 0.274390
O O4 0.240914 0.578867 0.145501
O O5 0.277267 0.701922 0.420982
O O6 0.164653 0.704506 0.344070
O O7 0.047121 0.095398 0.186223
O O8 0.953229 0.110005 0.294318
O O9 0.969009 0.998343 0.212652
O O10 0.831503 0.413902 0.983123
O O11 0.916438 0.392931 0.864619
O O12 0.947721 0.374900 0.022045
O O13 0.136473 0.546427 0.263451
O O14 0.365786 0.223832 0.968656
O O15 0.935244 0.701803 0.341763
O O16 0.419779 0.789043 0.630284
#
# Coordination Sequence:
#
# PCOD9546277 Si02
#       8
#    16  16  16  16  16  16  16  16
#     4  10  20  36  61  82 122 158 185 248 302 356
#     4  10  22  41  59  90 122 158 200 249 303 359
#     4   9  21  41  59  88 122 152 200 251 299 368
#     4  10  20  37  64  89 115 161 194 254 299 359
#     4  10  19  35  59  91 117 151 198 241 303 366
#     4  10  20  39  60  88 121 147 207 250 291 365
#     4  10  21  40  58  81 121 161 199 249 288 347
#     4   9  19  39  61  82 120 158 198 244 304 356
#
# _framework density 18.984835
#
# number of rings (size 3 to 8) (size 9 to 14) (size 15 to 20)
#    0.000    2.250    1.250    1.500    0.000    2.500 
#   13.500    6.250    0.000    0.000    0.000    0.000 
#    0.000    0.000    0.000    0.000    0.000    0.000 
#
# Total GULP energy -356504.738496 kJ/mol
# GULP energy per Si atom -5570.386539 kJ/mol
# Density = 1.894162 g / cm^3
# Si number density = 18.984835 Si / 1000 Ang^3
#
#
#
# Elastic Constant Matrix: (Units=GPa)
#
#
# Indices 1 2 3 4 5 6 
#
# 1 35.1371 15.2256 32.3606 0.0000 0.0000 21.8078
# 2 15.2256 35.1371 32.3606 0.0000 0.0000 -21.8078
# 3 32.3606 32.3606 107.3272 0.0000 0.0000 0.0000
# 4 0.0000 0.0000 0.0000 24.4689 0.0000 0.0000
# 5 0.0000 0.0000 0.0000 0.0000 24.4689 0.0000
# 6 21.8078 -21.8078 0.0000 0.0000 0.0000 -19.6752
#
#
#
# Elastic Compliance Matrix: (Units=1/GPa)
#
#
# Indices 1 2 3 4 5 6 
#
# 1 0.023534 0.008883 -0.009774 0.000000 0.000000 0.016239
# 2 0.008883 0.023534 -0.009774 0.000000 0.000000 -0.016239
# 3 -0.009774 -0.009774 0.015211 0.000000 0.000000 0.000000
# 4 0.000000 0.000000 0.000000 0.040868 0.000000 0.000000
# 5 0.000000 0.000000 0.000000 0.000000 0.040868 0.000000
# 6 0.016239 -0.016239 0.000000 0.000000 0.000000 -0.014827
#
#
# Mechanical properties :
#
#
# Convention : Reuss Voigt Hill
#
# Bulk Modulus (GPa) = 24.42099 37.49943 30.96021
# Shear Modulus (GPa) = 30.45651 12.36283 21.40967
#
# Velocity S-wave (km/s) = 4.00966 2.55462 3.36180
# Velocity P-wave (km/s) = 5.85900 5.33822 5.60466
#
# Compressibility (1/GPa) = 0.04094839
#
# Stress axis : x y z
#
# Youngs Moduli (GPa) = 42.49197 42.49197 65.74049
#
# Poissons Ratio (x) = -0.37745 0.64255
# Poissons Ratio (y) = -0.37745 0.64255
# Poissons Ratio (z) = 0.41532 0.41532
#
# Static dielectric constant tensor:
#      x y z
#    x 1.689200 0.000000 0.000000 
#    y 0.000000 1.689200 0.000000 
#    z 0.000000 0.000000 1.654370 
# 
# From -- ./inp_files/4083.got.cif
#   From: 2010.05.17/outbox.cif.g08.bks.cpg/sg88_3_cif.got.tgz:4083.got - 2010.06.03 19:11:41.
