data_PCOD9546606
_publ_section_title
;
Structure prediction by ZEFSAII (Michael W. Deem and Ramdas Pophale) SiO2 
 PCOD9546606
Probable space group: I 41/A
;
_chemical_formula_sum "Si O2"
_cell_formula_units_Z 64
_cell_length_a 16.672058
_cell_length_b 16.672058
_cell_length_c 8.930050
_cell_angle_alpha 90.000000
_cell_angle_beta 90.000000
_cell_angle_gamma 90.000000
_cell_volume 2482.174533
_symmetry_space_group_name_H-M "I 41/A"
_symmetry_group_IT_number 88
_space_group.IT_coordinate_system_code '2'
_symmetry_cell_setting 'tetragonal'
loop_
_space_group_symop_operation_xyz
x,y,z
3/4-y,1/4+x,1/4+z
-x,1/2-y,z
1/4+y,1/4-x,1/4+z
-x,-y,-z
1/4+y,3/4-x,3/4-z
x,1/2+y,-z
3/4-y,3/4+x,3/4-z
1/2+x,1/2+y,1/2+z
1/4-y,3/4+x,3/4+z
1/2-x,-y,1/2+z
3/4+y,3/4-x,3/4+z
1/2-x,1/2-y,1/2-z
3/4+y,1/4-x,1/4-z
1/2+x,y,1/2-z
1/4-y,1/4+x,1/4-z
loop_
_atom_site_type_symbol
_atom_site_label
_atom_site_fract_x
_atom_site_fract_y
_atom_site_fract_z
Si Si1 0.188296 0.553717 0.772657
Si Si2 0.080490 0.063956 0.810365
Si Si3 0.617755 0.722924 0.157711
Si Si4 0.619812 0.290125 0.359944
O O1 0.219263 0.554643 0.605479
O O2 0.244022 0.610783 0.881775
O O3 0.097767 0.580873 0.784877
O O4 0.129112 0.145779 0.763352
O O5 0.015731 0.058248 0.676069
O O6 0.027908 0.083992 0.956292
O O7 0.552475 0.682476 0.039827
O O8 0.590342 0.209298 0.430780
#
# Coordination Sequence:
#
# PCOD9546606 Si02
#       4
#    16  16  16  16
#     4  10  23  46  56  85 127 161 194 250 298 365
#     4   9  17  35  58  84 124 142 204 252 285 348
#     4   7  14  28  55  85 106 149 184 257 279 319
#     4  10  23  37  62  89 115 157 201 248 290 363
#
# _framework density 25.783843999999998
#
# number of rings (size 3 to 8) (size 9 to 14) (size 15 to 20)
#    1.500    1.500    0.000    0.000    7.000    4.000 
#   13.500    2.500    0.000    0.000    0.000    0.000 
#    0.000    0.000    0.000    0.000    0.000    0.000 
#
# Total GULP energy -178295.079526 kJ/mol
# GULP energy per Si atom -5571.721235 kJ/mol
# Density = 2.572516 g / cm^3
# Si number density = 25.783844 Si / 1000 Ang^3
#
#
#
# Elastic Constant Matrix: (Units=GPa)
#
#
# Indices 1 2 3 4 5 6 
#
# 1 44.7868 2.5432 10.5221 0.0000 0.0000 -25.1519
# 2 2.5432 44.7868 10.5221 0.0000 0.0000 25.1519
# 3 10.5221 10.5221 21.4799 0.0000 0.0000 0.0000
# 4 0.0000 0.0000 0.0000 17.1899 0.0000 0.0000
# 5 0.0000 0.0000 0.0000 0.0000 17.1899 0.0000
# 6 -25.1519 25.1519 0.0000 0.0000 0.0000 35.3448
#
#
#
# Elastic Compliance Matrix: (Units=1/GPa)
#
#
# Indices 1 2 3 4 5 6 
#
# 1 0.091066 -0.064055 -0.013232 0.000000 0.000000 0.110387
# 2 -0.064055 0.091066 -0.013232 0.000000 0.000000 -0.110387
# 3 -0.013232 -0.013232 0.059518 0.000000 0.000000 0.000000
# 4 0.000000 0.000000 0.000000 0.058174 0.000000 0.000000
# 5 0.000000 0.000000 0.000000 0.000000 0.058174 0.000000
# 6 0.110387 -0.110387 0.000000 0.000000 0.000000 0.185399
#
#
# Mechanical properties :
#
#
# Convention : Reuss Voigt Hill
#
# Bulk Modulus (GPa) = 16.49773 17.58092 17.03932
# Shear Modulus (GPa) = 6.71467 19.77600 13.24534
#
# Velocity S-wave (km/s) = 1.61551 2.77247 2.26897
# Velocity P-wave (km/s) = 3.14519 4.13305 3.67249
#
# Compressibility (1/GPa) = 0.06061438
#
# Stress axis : x y z
#
# Youngs Moduli (GPa) = 10.98103 10.98103 16.80155
#
# Poissons Ratio (x) = 0.70339 0.22231
# Poissons Ratio (y) = 0.70339 0.22231
# Poissons Ratio (z) = 0.14530 0.14530
#
# Static dielectric constant tensor:
#      x y z
#    x 2.067740 0.000000 0.000000 
#    y 0.000000 2.067740 0.000000 
#    z 0.000000 0.000000 1.959550 
# 
# From -- ./inp_files/2374.got.cif
#   From: 2010.05.17/outbox.cif.g08.bks.cpg/sg88_2_cif.got.tgz:2374.got - 2010.06.03 19:11:41.
