data_PCOD9546983
_publ_section_title
;
Structure prediction by ZEFSAII (Michael W. Deem and Ramdas Pophale) SiO2 
 PCOD9546983
Probable space group: P 4 2 2
;
_chemical_formula_sum "Si O2"
_cell_formula_units_Z 60
_cell_length_a 12.446867
_cell_length_b 12.446867
_cell_length_c 20.419647
_cell_angle_alpha 90.000000
_cell_angle_beta 90.000000
_cell_angle_gamma 90.000000
_cell_volume 3163.503563
_symmetry_space_group_name_H-M "P 4 2 2"
_symmetry_group_IT_number 89
_symmetry_cell_setting 'tetragonal'
loop_
_space_group_symop_operation_xyz
x,y,z
-y,x,z
-x,-y,z
y,-x,z
x,-y,-z
-x,y,-z
y,x,-z
-y,-x,-z
loop_
_atom_site_type_symbol
_atom_site_label
_atom_site_fract_x
_atom_site_fract_y
_atom_site_fract_z
Si Si1 0.630904 0.768135 0.811212
Si Si2 0.259354 0.402426 0.456593
Si Si3 0.000067 0.177332 0.692214
Si Si4 0.220615 0.590652 0.130550
Si Si5 0.622374 0.993726 0.211386
Si Si6 0.314760 0.500000 0.000000
Si Si7 0.223662 0.082025 0.547054
Si Si8 0.427960 0.661614 0.311231
O O1 0.707312 0.693933 0.853983
O O2 0.508880 0.736501 0.826842
O O3 0.633982 0.748229 0.733358
O O4 0.644950 0.893450 0.824350
O O5 0.212232 0.500000 0.500000
O O6 0.355794 0.355794 0.500000
O O7 0.179781 0.303785 0.441689
O O8 0.303968 0.433420 0.386291
O O9 0.979177 0.195044 0.614337
O O10 0.103896 0.103964 0.708547
O O11 0.014489 0.287479 0.732370
O O12 0.103215 0.619000 0.159126
O O13 0.236708 0.538961 0.058933
O O14 0.500000 0.000000 0.238852
O O15 0.398401 0.398401 0.000000
O O16 0.126880 0.126880 0.500000
O O17 0.284341 0.000000 0.500000
O O18 0.364177 0.552104 0.297200
#
# Coordination Sequence:
#
# PCOD9546983 Si02
#       8
#     8   8   8   8   8   4   8   8
#     4  11  21  39  61  92 132 172 218 274 331 392
#     4  11  23  39  56  82 120 166 217 269 335 420
#     4  11  22  41  70  93 117 164 231 291 341 408
#     4  11  22  40  67  96 137 174 217 273 324 395
#     4  10  24  42  59  93 135 180 211 269 349 409
#     4  11  22  38  71 106 138 175 222 267 316 392
#     4  11  23  42  61  82 114 154 210 287 359 410
#     4  11  21  34  60  87 113 162 218 271 331 395
#
# _framework density 18.966311999999999
#
# number of rings (size 3 to 8) (size 9 to 14) (size 15 to 20)
#    0.000    1.133    5.333    1.600    0.000    0.800 
#    7.200    3.000    0.000    0.000    0.000    0.000 
#    0.000    0.000    2.400    0.000    0.000    0.000 
#
# Total GULP energy -334097.285658 kJ/mol
# GULP energy per Si atom -5568.288094 kJ/mol
# Density = 1.892314 g / cm^3
# Si number density = 18.966312 Si / 1000 Ang^3
#
#
#
# Elastic Constant Matrix: (Units=GPa)
#
#
# Indices 1 2 3 4 5 6 
#
# 1 94.6973 56.5018 53.1806 0.0000 0.0000 0.0000
# 2 56.5018 94.6973 53.1806 0.0000 0.0000 0.0000
# 3 53.1806 53.1806 128.3546 0.0000 0.0000 0.0000
# 4 0.0000 0.0000 0.0000 22.4002 0.0000 0.0000
# 5 0.0000 0.0000 0.0000 0.0000 22.4002 0.0000
# 6 0.0000 0.0000 0.0000 0.0000 0.0000 -44.0637
#
#
#
# Elastic Compliance Matrix: (Units=1/GPa)
#
#
# Indices 1 2 3 4 5 6 
#
# 1 0.017758 -0.008423 -0.003867 0.000000 0.000000 0.000000
# 2 -0.008423 0.017758 -0.003867 0.000000 0.000000 0.000000
# 3 -0.003867 -0.003867 0.010996 0.000000 0.000000 0.000000
# 4 0.000000 0.000000 0.000000 0.044643 0.000000 0.000000
# 5 0.000000 0.000000 0.000000 0.000000 0.044643 0.000000
# 6 0.000000 0.000000 0.000000 0.000000 0.000000 -0.022694
#
#
# Mechanical properties :
#
#
# Convention : Reuss Voigt Hill
#
# Bulk Modulus (GPa) = 70.44949 71.49725 70.97337
# Shear Modulus (GPa) = 33.30007 10.47308 21.88658
#
# Velocity S-wave (km/s) = 4.19471 2.35243 3.40070
# Velocity P-wave (km/s) = 7.79012 6.71992 7.27473
#
# Compressibility (1/GPa) = 0.01419457
#
# Stress axis : x y z
#
# Youngs Moduli (GPa) = 56.31355 56.31355 90.94456
#
# Poissons Ratio (x) = 0.47435 0.35173
# Poissons Ratio (y) = 0.47435 0.35173
# Poissons Ratio (z) = 0.21779 0.21779
#
# Static dielectric constant tensor:
#      x y z
#    x 1.688940 0.000000 0.000000 
#    y 0.000000 1.688940 0.000000 
#    z 0.000000 0.000000 1.749140 
# 
# From -- ./inp_files/2654.got.cif
#   From: 2010.05.17/outbox.cif.g08.bks.cpg/sg89_2_cif.got.tgz:2654.got - 2010.06.03 19:15:31.
