data_PCOD9546930
_publ_section_title
;
Structure prediction by ZEFSAII (Michael W. Deem and Ramdas Pophale) SiO2 
 PCOD9546930
Probable space group: P 4 2 2
;
_chemical_formula_sum "Si O2"
_cell_formula_units_Z 60
_cell_length_a 11.631427
_cell_length_b 11.631427
_cell_length_c 20.270573
_cell_angle_alpha 90.000000
_cell_angle_beta 90.000000
_cell_angle_gamma 90.000000
_cell_volume 2742.407728
_symmetry_space_group_name_H-M "P 4 2 2"
_symmetry_group_IT_number 89
_symmetry_cell_setting 'tetragonal'
loop_
_space_group_symop_operation_xyz
x,y,z
-y,x,z
-x,-y,z
y,-x,z
x,-y,-z
-x,y,-z
y,x,-z
-y,-x,-z
loop_
_atom_site_type_symbol
_atom_site_label
_atom_site_fract_x
_atom_site_fract_y
_atom_site_fract_z
Si Si1 0.809041 0.966068 0.180397
Si Si2 0.323856 0.417179 0.618593
Si Si3 0.690477 0.398785 0.052344
Si Si4 0.050732 0.385683 0.925338
Si Si5 0.386991 0.646543 0.195003
Si Si6 0.269550 0.730451 0.500000
Si Si7 0.835215 0.898747 0.599776
Si Si8 0.201049 0.743468 0.280876
O O1 0.728838 0.964555 0.116419
O O2 0.734488 0.919301 0.242182
O O3 0.912101 0.872450 0.181959
O O4 0.447877 0.351797 0.625792
O O5 0.275873 0.380592 0.546983
O O6 0.235210 0.361023 0.670260
O O7 0.816459 0.419742 0.076316
O O8 0.616770 0.360855 0.115269
O O9 0.657550 0.500000 0.000000
O O10 0.704407 0.295594 0.000000
O O11 0.000000 0.500000 0.892929
O O12 0.000000 0.375454 0.000000
O O13 0.344692 0.518970 0.215369
O O14 0.302499 0.738081 0.226316
O O15 0.161842 0.747606 0.549468
O O16 0.801498 0.855848 0.672791
O O17 0.964786 0.847389 0.590514
#
# Coordination Sequence:
#
# PCOD9546930 Si02
#       8
#     8   8   8   8   8   4   8   8
#     4  11  26  46  68  94 127 179 236 286 345 429
#     4  10  21  40  66  99 140 185 232 277 338 418
#     4  12  23  39  64  94 127 166 211 276 350 427
#     4  11  25  43  66  97 131 165 215 287 365 427
#     4  11  23  38  61  93 128 168 221 280 349 429
#     4  10  20  34  68 104 134 174 224 274 338 396
#     4  10  21  40  67  96 128 170 227 285 340 405
#     4  11  22  39  65  93 129 173 226 285 343 407
#
# _framework density 21.878584
#
# number of rings (size 3 to 8) (size 9 to 14) (size 15 to 20)
#    0.000    1.200    4.000    2.400    1.867    4.400 
#    2.400    0.667    0.000   36.000    0.000    0.000 
#    0.000    0.000    0.000    0.000    0.000    0.000 
#
# Total GULP energy -334688.679426 kJ/mol
# GULP energy per Si atom -5578.144657 kJ/mol
# Density = 2.182879 g / cm^3
# Si number density = 21.878584 Si / 1000 Ang^3
#
#
#
# Elastic Constant Matrix: (Units=GPa)
#
#
# Indices 1 2 3 4 5 6 
#
# 1 86.4883 46.0226 27.9580 0.0000 0.0000 0.0000
# 2 46.0226 86.4884 27.9578 0.0000 0.0000 0.0000
# 3 27.9580 27.9578 122.5685 0.0000 0.0000 0.0000
# 4 0.0000 0.0000 0.0000 36.3296 0.0000 0.0000
# 5 0.0000 0.0000 0.0000 0.0000 36.3296 0.0000
# 6 0.0000 0.0000 0.0000 0.0000 0.0000 40.0579
#
#
#
# Elastic Compliance Matrix: (Units=1/GPa)
#
#
# Indices 1 2 3 4 5 6 
#
# 1 0.016531 -0.008181 -0.001905 0.000000 0.000000 0.000000
# 2 -0.008181 0.016531 -0.001905 0.000000 0.000000 0.000000
# 3 -0.001905 -0.001905 0.009028 0.000000 0.000000 0.000000
# 4 0.000000 0.000000 0.000000 0.027526 0.000000 0.000000
# 5 0.000000 0.000000 0.000000 0.000000 0.027526 0.000000
# 6 0.000000 0.000000 0.000000 0.000000 0.000000 0.024964
#
#
# Mechanical properties :
#
#
# Convention : Reuss Voigt Hill
#
# Bulk Modulus (GPa) = 55.22002 55.49134 55.35568
# Shear Modulus (GPa) = 32.86817 35.45053 34.15935
#
# Velocity S-wave (km/s) = 3.88015 4.02970 3.95563
# Velocity P-wave (km/s) = 6.73559 6.86073 6.79845
#
# Compressibility (1/GPa) = 0.01810938
#
# Stress axis : x y z
#
# Youngs Moduli (GPa) = 60.49131 60.49147 110.77110
#
# Poissons Ratio (x) = 0.49488 0.21099
# Poissons Ratio (y) = 0.49488 0.21098
# Poissons Ratio (z) = 0.11522 0.11522
#
# Static dielectric constant tensor:
#      x y z
#    x 1.795030 0.000000 0.000000 
#    y 0.000000 1.795030 0.000000 
#    z 0.000000 0.000000 1.131230 
# 
# From -- ./inp_files/2664.got.cif
#   From: 2010.05.17/outbox.cif.g08.bks.cpg/sg89_2_cif.got.tgz:2664.got - 2010.06.03 19:15:31.
