data_PCOD9546230
_publ_section_title
;
Structure prediction by ZEFSAII (Michael W. Deem and Ramdas Pophale) SiO2 
 PCOD9546230
Probable space group: I 41/A
;
_chemical_formula_sum "Si O2"
_cell_formula_units_Z 80
_cell_length_a 11.512245
_cell_length_b 11.512245
_cell_length_c 31.446126
_cell_angle_alpha 90.000000
_cell_angle_beta 90.000000
_cell_angle_gamma 90.000000
_cell_volume 4167.611208
_symmetry_space_group_name_H-M "I 41/A"
_symmetry_group_IT_number 88
_space_group.IT_coordinate_system_code '2'
_symmetry_cell_setting 'tetragonal'
loop_
_space_group_symop_operation_xyz
x,y,z
3/4-y,1/4+x,1/4+z
-x,1/2-y,z
1/4+y,1/4-x,1/4+z
-x,-y,-z
1/4+y,3/4-x,3/4-z
x,1/2+y,-z
3/4-y,3/4+x,3/4-z
1/2+x,1/2+y,1/2+z
1/4-y,3/4+x,3/4+z
1/2-x,-y,1/2+z
3/4+y,3/4-x,3/4+z
1/2-x,1/2-y,1/2-z
3/4+y,1/4-x,1/4-z
1/2+x,y,1/2-z
1/4-y,1/4+x,1/4-z
loop_
_atom_site_type_symbol
_atom_site_label
_atom_site_fract_x
_atom_site_fract_y
_atom_site_fract_z
Si Si1 0.653870 0.165963 0.892021
Si Si2 0.994051 0.931979 0.045242
Si Si3 0.304142 0.759223 0.465201
Si Si4 0.997110 0.107170 0.189443
Si Si5 0.849891 0.972166 0.883098
O O1 0.526914 0.106815 0.889651
O O2 0.695250 0.221011 0.937031
O O3 0.752775 0.071673 0.881258
O O4 0.093633 0.834845 0.040392
O O5 0.866327 0.877791 0.049508
O O6 0.038200 0.988624 0.088724
O O7 0.000000 0.000000 0.000000
O O8 0.293446 0.763647 0.515752
O O9 0.108796 0.068533 0.163016
O O10 0.000000 0.250000 0.194006
O O11 0.888510 0.066273 0.161362
#
# Coordination Sequence:
#
# PCOD9546230 Si02
#       5
#    16  16  16  16  16
#     4  10  25  48  66  79 118 186 242 269 308 369
#     4  10  18  33  56  94 133 161 199 244 323 407
#     4  10  21  36  63  91 122 165 213 263 316 395
#     4  12  20  36  62 108 145 159 191 262 360 418
#     4  11  22  35  63  99 135 169 201 261 331 400
#
# _framework density 19.195647999999998
#
# number of rings (size 3 to 8) (size 9 to 14) (size 15 to 20)
#    0.000    1.400    6.000    0.000    2.800    0.000 
#    0.000    1.000    4.400    0.000    0.000    0.000 
#    0.000    0.000    0.000    0.000    0.000    0.000 
#
# Total GULP energy -222874.709587 kJ/mol
# GULP energy per Si atom -5571.867740 kJ/mol
# Density = 1.915196 g / cm^3
# Si number density = 19.195648 Si / 1000 Ang^3
#
#
#
# Elastic Constant Matrix: (Units=GPa)
#
#
# Indices 1 2 3 4 5 6 
#
# 1 103.8193 53.3756 56.2168 0.0000 0.0000 10.2712
# 2 53.3756 103.8193 56.2168 0.0000 0.0000 -10.2712
# 3 56.2168 56.2168 76.1696 0.0000 0.0000 0.0000
# 4 0.0000 0.0000 0.0000 30.4887 0.0000 0.0000
# 5 0.0000 0.0000 0.0000 0.0000 30.4887 0.0000
# 6 10.2712 -10.2712 0.0000 0.0000 0.0000 45.6751
#
#
#
# Elastic Compliance Matrix: (Units=1/GPa)
#
#
# Indices 1 2 3 4 5 6 
#
# 1 0.017649 -0.004174 -0.009945 0.000000 0.000000 -0.004907
# 2 -0.004174 0.017649 -0.009945 0.000000 0.000000 0.004907
# 3 -0.009945 -0.009945 0.027808 0.000000 0.000000 0.000000
# 4 0.000000 0.000000 0.000000 0.032799 0.000000 0.000000
# 5 0.000000 0.000000 0.000000 0.000000 0.032799 0.000000
# 6 -0.004907 0.004907 0.000000 0.000000 0.000000 0.024101
#
#
# Mechanical properties :
#
#
# Convention : Reuss Voigt Hill
#
# Bulk Modulus (GPa) = 66.76532 68.38070 67.57301
# Shear Modulus (GPa) = 24.28073 29.19708 26.73891
#
# Velocity S-wave (km/s) = 3.56041 3.90426 3.73630
# Velocity P-wave (km/s) = 7.19438 7.48497 7.34111
#
# Compressibility (1/GPa) = 0.01497784
#
# Stress axis : x y z
#
# Youngs Moduli (GPa) = 56.66181 56.66181 35.96054
#
# Poissons Ratio (x) = 0.23650 0.35762
# Poissons Ratio (y) = 0.23650 0.35762
# Poissons Ratio (z) = 0.56350 0.56350
#
# Static dielectric constant tensor:
#      x y z
#    x 1.736360 0.000000 0.000000 
#    y 0.000000 1.736360 0.000000 
#    z 0.000000 0.000000 1.690800 
# 
# From -- ./inp_files/6283.got.cif
#   From: 2010.05.17/outbox.cif.g08.bks.cpg/sg88_4_cif.got.tgz:6283.got - 2010.06.03 19:11:41.
