data_PCOD9546263
_publ_section_title
;
Structure prediction by ZEFSAII (Michael W. Deem and Ramdas Pophale) SiO2 
 PCOD9546263
Probable space group: I 41/A
;
_chemical_formula_sum "Si O2"
_cell_formula_units_Z 80
_cell_length_a 10.555231
_cell_length_b 10.555231
_cell_length_c 38.126954
_cell_angle_alpha 90.000000
_cell_angle_beta 90.000000
_cell_angle_gamma 90.000000
_cell_volume 4247.834569
_symmetry_space_group_name_H-M "I 41/A"
_symmetry_group_IT_number 88
_space_group.IT_coordinate_system_code '2'
_symmetry_cell_setting 'tetragonal'
loop_
_space_group_symop_operation_xyz
x,y,z
3/4-y,1/4+x,1/4+z
-x,1/2-y,z
1/4+y,1/4-x,1/4+z
-x,-y,-z
1/4+y,3/4-x,3/4-z
x,1/2+y,-z
3/4-y,3/4+x,3/4-z
1/2+x,1/2+y,1/2+z
1/4-y,3/4+x,3/4+z
1/2-x,-y,1/2+z
3/4+y,3/4-x,3/4+z
1/2-x,1/2-y,1/2-z
3/4+y,1/4-x,1/4-z
1/2+x,y,1/2-z
1/4-y,1/4+x,1/4-z
loop_
_atom_site_type_symbol
_atom_site_label
_atom_site_fract_x
_atom_site_fract_y
_atom_site_fract_z
Si Si1 0.295345 0.967373 0.364424
Si Si2 0.533070 0.098436 0.150996
Si Si3 0.435900 0.118747 0.224581
Si Si4 0.802248 0.823462 0.949742
Si Si5 0.079413 0.431816 0.068549
O O1 0.275518 0.829252 0.381100
O O2 0.358674 0.956013 0.326280
O O3 0.394332 0.033834 0.391105
O O4 0.168517 0.051447 0.362278
O O5 0.500000 0.250000 0.147293
O O6 0.523723 0.070962 0.192782
O O7 0.500000 0.250000 0.237530
O O8 0.413376 0.034877 0.258730
O O9 0.304265 0.149125 0.205466
O O10 0.820806 0.675924 0.941679
O O11 0.937914 0.884632 0.938732
#
# Coordination Sequence:
#
# PCOD9546263 Si02
#       5
#    16  16  16  16  16
#     4  11  22  37  57  83 112 158 196 249 288 353
#     4  10  22  39  60  85 121 150 201 242 302 353
#     4  10  19  32  50  83 119 153 181 234 299 373
#     4  11  19  29  54  82 116 146 186 237 306 350
#     4  10  20  31  50  81 117 144 191 239 296 356
#
# _framework density 18.833124000000002
#
# number of rings (size 3 to 8) (size 9 to 14) (size 15 to 20)
#    0.000    1.600    2.000    6.600    2.800    2.000 
#    0.000    0.000    0.000    4.800   10.400    0.000 
#    0.000    0.000    0.000    0.000    0.000    0.000 
#
# Total GULP energy -223243.307629 kJ/mol
# GULP energy per Si atom -5581.082691 kJ/mol
# Density = 1.879026 g / cm^3
# Si number density = 18.833124 Si / 1000 Ang^3
#
#
#
# Elastic Constant Matrix: (Units=GPa)
#
#
# Indices 1 2 3 4 5 6 
#
# 1 59.0925 15.6844 26.9876 0.0000 0.0000 1.9102
# 2 15.6844 59.0925 26.9876 0.0000 0.0000 -1.9102
# 3 26.9876 26.9876 136.5480 0.0000 0.0000 0.0000
# 4 0.0000 0.0000 0.0000 12.0500 0.0000 0.0000
# 5 0.0000 0.0000 0.0000 0.0000 12.0500 0.0000
# 6 1.9102 -1.9102 0.0000 0.0000 0.0000 18.3951
#
#
#
# Elastic Compliance Matrix: (Units=1/GPa)
#
#
# Indices 1 2 3 4 5 6 
#
# 1 0.019424 -0.003826 -0.003083 0.000000 0.000000 -0.002414
# 2 -0.003826 0.019424 -0.003083 0.000000 0.000000 0.002414
# 3 -0.003083 -0.003083 0.008542 0.000000 0.000000 0.000000
# 4 0.000000 0.000000 0.000000 0.082988 0.000000 0.000000
# 5 0.000000 0.000000 0.000000 0.000000 0.082988 0.000000
# 6 -0.002414 0.002414 0.000000 0.000000 0.000000 0.054864
#
#
# Mechanical properties :
#
#
# Convention : Reuss Voigt Hill
#
# Bulk Modulus (GPa) = 36.48667 43.78356 40.13511
# Shear Modulus (GPa) = 16.81533 20.83724 18.82629
#
# Velocity S-wave (km/s) = 2.99132 3.32989 3.16513
# Velocity P-wave (km/s) = 5.59878 6.17113 5.89191
#
# Compressibility (1/GPa) = 0.02740727
#
# Stress axis : x y z
#
# Youngs Moduli (GPa) = 51.48261 51.48260 117.06790
#
# Poissons Ratio (x) = 0.19695 0.36091
# Poissons Ratio (y) = 0.19695 0.36091
# Poissons Ratio (z) = 0.15872 0.15872
#
# Static dielectric constant tensor:
#      x y z
#    x 1.661540 0.000000 0.000000 
#    y 0.000000 1.661540 0.000000 
#    z 0.000000 0.000000 1.691090 
# 
# From -- ./inp_files/6300.got.cif
#   From: 2010.05.17/outbox.cif.g08.bks.cpg/sg88_4_cif.got.tgz:6300.got - 2010.06.03 19:11:41.
