data_PCOD9546682
_publ_section_title
;
Structure prediction by ZEFSAII (Michael W. Deem and Ramdas Pophale) SiO2 
 PCOD9546682
Probable space group: I 41/A
;
_chemical_formula_sum "Si O2"
_cell_formula_units_Z 44
_cell_length_a 10.126010
_cell_length_b 10.126010
_cell_length_c 16.254867
_cell_angle_alpha 90.000000
_cell_angle_beta 90.000000
_cell_angle_gamma 90.000000
_cell_volume 1666.710319
_symmetry_space_group_name_H-M "I 41/A"
_symmetry_group_IT_number 88
_space_group.IT_coordinate_system_code '2'
_symmetry_cell_setting 'tetragonal'
loop_
_space_group_symop_operation_xyz
x,y,z
3/4-y,1/4+x,1/4+z
-x,1/2-y,z
1/4+y,1/4-x,1/4+z
-x,-y,-z
1/4+y,3/4-x,3/4-z
x,1/2+y,-z
3/4-y,3/4+x,3/4-z
1/2+x,1/2+y,1/2+z
1/4-y,3/4+x,3/4+z
1/2-x,-y,1/2+z
3/4+y,3/4-x,3/4+z
1/2-x,1/2-y,1/2-z
3/4+y,1/4-x,1/4-z
1/2+x,y,1/2-z
1/4-y,1/4+x,1/4-z
loop_
_atom_site_type_symbol
_atom_site_label
_atom_site_fract_x
_atom_site_fract_y
_atom_site_fract_z
Si Si1 0.388514 0.594797 0.666531
Si Si2 0.000000 0.750000 0.057447
Si Si3 0.948672 0.524877 0.592184
Si Si4 0.500000 0.750000 0.125000
O O1 0.334426 0.703891 0.602634
O O2 0.391211 0.675679 0.752393
O O3 0.321247 0.453289 0.664443
O O4 0.884700 0.707647 0.118200
O O5 0.000000 0.500000 0.500000
O O6 0.960999 0.398017 0.652293
#
# Coordination Sequence:
#
# PCOD9546682 Si02
#       4
#    16   8  16   4
#     4   9  23  49  84 118 148 210 282 338 403 489
#     4  10  24  48  80 116 158 214 268 336 406 488
#     4  12  26  49  75 115 169 212 266 333 417 491
#     4  12  30  48  68 114 160 208 258 340 412 474
#
# _framework density 26.399305999999999
#
# number of rings (size 3 to 8) (size 9 to 14) (size 15 to 20)
#    0.000    1.818    0.000    3.273    5.091    5.818 
#   13.091    0.000    0.000    0.000    0.000    0.000 
#    0.000    0.000    0.000    0.000    0.000    0.000 
#
# Total GULP energy -122703.618651 kJ/mol
# GULP energy per Si atom -5577.437211 kJ/mol
# Density = 2.633922 g / cm^3
# Si number density = 26.399306 Si / 1000 Ang^3
#
#
#
# Elastic Constant Matrix: (Units=GPa)
#
#
# Indices 1 2 3 4 5 6 
#
# 1 214.5120 46.7662 22.4899 0.0000 0.0000 -21.4538
# 2 46.7662 214.5120 22.4899 0.0000 0.0000 21.4538
# 3 22.4899 22.4899 112.9347 0.0000 0.0000 0.0000
# 4 0.0000 0.0000 0.0000 21.7746 0.0000 0.0000
# 5 0.0000 0.0000 0.0000 0.0000 21.7746 0.0000
# 6 -21.4538 21.4538 0.0000 0.0000 0.0000 62.8637
#
#
#
# Elastic Compliance Matrix: (Units=1/GPa)
#
#
# Indices 1 2 3 4 5 6 
#
# 1 0.005247 -0.001284 -0.000789 0.000000 0.000000 0.002229
# 2 -0.001284 0.005247 -0.000789 0.000000 0.000000 -0.002229
# 3 -0.000789 -0.000789 0.009169 0.000000 0.000000 0.000000
# 4 0.000000 0.000000 0.000000 0.045925 0.000000 0.000000
# 5 0.000000 0.000000 0.000000 0.000000 0.045925 0.000000
# 6 0.002229 -0.002229 0.000000 0.000000 0.000000 0.017429
#
#
# Mechanical properties :
#
#
# Convention : Reuss Voigt Hill
#
# Bulk Modulus (GPa) = 71.74381 80.60562 76.17472
# Shear Modulus (GPa) = 35.89005 51.29675 43.59340
#
# Velocity S-wave (km/s) = 3.69115 4.41285 4.06804
# Velocity P-wave (km/s) = 6.73806 7.52090 7.14022
#
# Compressibility (1/GPa) = 0.01393848
#
# Stress axis : x y z
#
# Youngs Moduli (GPa) = 190.57095 190.57095 109.06299
#
# Poissons Ratio (x) = 0.24473 0.08608
# Poissons Ratio (y) = 0.24473 0.08608
# Poissons Ratio (z) = 0.15041 0.15041
#
# Static dielectric constant tensor:
#      x y z
#    x 2.102060 0.000000 0.000000 
#    y 0.000000 2.102060 0.000000 
#    z 0.000000 0.000000 2.250090 
# 
# From -- ./inp_files/3534.got.cif
#   From: 2010.05.17/outbox.cif.g08.bks.cpg/sg88_2_cif.got.tgz:3534.got - 2010.06.03 19:11:41.
