data_PCOD9546857
_publ_section_title
;
Structure prediction by ZEFSAII (Michael W. Deem and Ramdas Pophale) SiO2 
 PCOD9546857
Probable space group: I 41/A
;
_chemical_formula_sum "Si O2"
_cell_formula_units_Z 52
_cell_length_a 15.520017
_cell_length_b 15.520017
_cell_length_c 8.388569
_cell_angle_alpha 90.000000
_cell_angle_beta 90.000000
_cell_angle_gamma 90.000000
_cell_volume 2020.562397
_symmetry_space_group_name_H-M "I 41/A"
_symmetry_group_IT_number 88
_space_group.IT_coordinate_system_code '2'
_symmetry_cell_setting 'tetragonal'
loop_
_space_group_symop_operation_xyz
x,y,z
3/4-y,1/4+x,1/4+z
-x,1/2-y,z
1/4+y,1/4-x,1/4+z
-x,-y,-z
1/4+y,3/4-x,3/4-z
x,1/2+y,-z
3/4-y,3/4+x,3/4-z
1/2+x,1/2+y,1/2+z
1/4-y,3/4+x,3/4+z
1/2-x,-y,1/2+z
3/4+y,3/4-x,3/4+z
1/2-x,1/2-y,1/2-z
3/4+y,1/4-x,1/4-z
1/2+x,y,1/2-z
1/4-y,1/4+x,1/4-z
loop_
_atom_site_type_symbol
_atom_site_label
_atom_site_fract_x
_atom_site_fract_y
_atom_site_fract_z
Si Si1 0.877176 0.114113 0.179233
Si Si2 0.576475 0.037589 0.888664
Si Si3 0.000000 0.250000 0.125000
Si Si4 0.074554 0.439505 0.835263
O O1 0.867860 0.040408 0.312096
O O2 0.947554 0.183712 0.234373
O O3 0.788976 0.146765 0.100291
O O4 0.925042 0.082514 0.020105
O O5 0.518825 0.072981 0.743256
O O6 0.500000 0.000000 0.000000
O O7 0.635102 0.105983 0.981911
#
# Coordination Sequence:
#
# PCOD9546857 Si02
#       4
#    16  16   4  16
#     4  12  28  49  83 119 167 223 279 355 439 513
#     4  12  28  50  79 123 165 215 290 348 429 512
#     4  12  24  52  80 114 160 208 288 338 428 504
#     4  12  28  49  79 120 164 228 277 360 426 518
#
# _framework density 25.735410999999999
#
# number of rings (size 3 to 8) (size 9 to 14) (size 15 to 20)
#    0.000    0.000    6.154    0.923    8.615    3.077 
#    0.000    0.000    0.000    0.000    0.000    0.000 
#    0.000    0.000    0.000    0.000    0.000    0.000 
#
# Total GULP energy -145565.419219 kJ/mol
# GULP energy per Si atom -5598.669970 kJ/mol
# Density = 2.567684 g / cm^3
# Si number density = 25.735411 Si / 1000 Ang^3
#
#
#
# Elastic Constant Matrix: (Units=GPa)
#
#
# Indices 1 2 3 4 5 6 
#
# 1 125.3795 78.9082 39.1931 0.0000 0.0000 2.2699
# 2 78.9082 125.3795 39.1931 0.0000 0.0000 -2.2699
# 3 39.1931 39.1931 103.1722 0.0000 0.0000 0.0000
# 4 0.0000 0.0000 0.0000 53.9746 0.0000 0.0000
# 5 0.0000 0.0000 0.0000 0.0000 53.9746 0.0000
# 6 2.2699 -2.2699 0.0000 0.0000 0.0000 47.3493
#
#
#
# Elastic Compliance Matrix: (Units=1/GPa)
#
#
# Indices 1 2 3 4 5 6 
#
# 1 0.013675 -0.007945 -0.002177 0.000000 0.000000 -0.001036
# 2 -0.007945 0.013675 -0.002177 0.000000 0.000000 0.001036
# 3 -0.002177 -0.002177 0.011346 0.000000 0.000000 0.000000
# 4 0.000000 0.000000 0.000000 0.018527 0.000000 0.000000
# 5 0.000000 0.000000 0.000000 0.000000 0.018527 0.000000
# 6 -0.001036 0.001036 0.000000 0.000000 0.000000 0.021219
#
#
# Mechanical properties :
#
#
# Convention : Reuss Voigt Hill
#
# Bulk Modulus (GPa) = 70.92346 74.27998 72.60172
# Shear Modulus (GPa) = 39.59864 44.16882 41.88373
#
# Velocity S-wave (km/s) = 3.92686 4.14728 4.03857
# Velocity P-wave (km/s) = 6.94110 7.20131 7.07240
#
# Compressibility (1/GPa) = 0.01409971
#
# Stress axis : x y z
#
# Youngs Moduli (GPa) = 73.12550 73.12550 88.13366
#
# Poissons Ratio (x) = 0.58097 0.19185
# Poissons Ratio (y) = 0.58097 0.19185
# Poissons Ratio (z) = 0.15918 0.15918
#
# Static dielectric constant tensor:
#      x y z
#    x 2.155700 0.000000 0.000000 
#    y 0.000000 2.155700 0.000000 
#    z 0.000000 0.000000 2.045250 
# 
# From -- ./inp_files/1208.got.cif
#   From: 2010.05.17/outbox.cif.g08.bks.cpg/sg88_1_cif.got.tgz:1208.got - 2010.06.03 19:11:41.
