data_PCOD9546975
_publ_section_title
;
Structure prediction by ZEFSAII (Michael W. Deem and Ramdas Pophale) SiO2 
 PCOD9546975
Probable space group: P 4 2 2
;
_chemical_formula_sum "Si O2"
_cell_formula_units_Z 48
_cell_length_a 8.399416
_cell_length_b 8.399416
_cell_length_c 32.975731
_cell_angle_alpha 90.000000
_cell_angle_beta 90.000000
_cell_angle_gamma 90.000000
_cell_volume 2326.444059
_symmetry_space_group_name_H-M "P 4 2 2"
_symmetry_group_IT_number 89
_symmetry_cell_setting 'tetragonal'
loop_
_space_group_symop_operation_xyz
x,y,z
-y,x,z
-x,-y,z
y,-x,z
x,-y,-z
-x,y,-z
y,x,-z
-y,-x,-z
loop_
_atom_site_type_symbol
_atom_site_label
_atom_site_fract_x
_atom_site_fract_y
_atom_site_fract_z
Si Si1 0.433192 0.760121 0.144388
Si Si2 0.415807 0.242864 0.705509
Si Si3 0.500000 0.000000 0.926812
Si Si4 0.023892 0.733019 0.543950
Si Si5 0.257242 0.084709 0.782204
Si Si6 0.737458 0.068270 0.367629
Si Si7 0.738069 0.000000 0.000000
O O1 0.314717 0.609183 0.148251
O O2 0.445021 0.856500 0.102415
O O3 0.364693 0.877382 0.178682
O O4 0.596851 0.306323 0.706473
O O5 0.361315 0.136716 0.743563
O O6 0.380200 0.137855 0.665831
O O7 0.359097 0.977087 0.958734
O O8 0.060862 0.658532 0.587618
O O9 0.862958 0.835741 0.544556
O O10 0.000000 0.654704 0.500000
O O11 0.096591 0.193896 0.781772
O O12 0.892203 0.185480 0.363423
O O13 0.846855 0.846855 0.000000
#
# Coordination Sequence:
#
# PCOD9546975 Si02
#       7
#     8   8   4   8   8   8   4
#     4  11  23  39  61  90 124 164 210 259 314 373
#     4  11  24  39  54  77 113 158 204 247 297 359
#     4  11  22  40  64  92 128 168 212 262 315 370
#     4   7  10  19  39  71 104 131 161 210 276 342
#     4  11  24  41  62  88 118 155 203 259 317 376
#     4   9  17  30  51  81 109 138 181 234 294 357
#     4  10  22  40  64  94 128 168 214 264 316 368
#
# _framework density 20.632348
#
# number of rings (size 3 to 8) (size 9 to 14) (size 15 to 20)
#    0.000    2.083    0.000    5.500    0.000    6.667 
#    0.000    1.667    0.000    4.000    0.000   42.000 
#    0.000   21.333    0.000    0.000    0.000    0.000 
#
# Total GULP energy -267500.791380 kJ/mol
# GULP energy per Si atom -5572.933154 kJ/mol
# Density = 2.058539 g / cm^3
# Si number density = 20.632348 Si / 1000 Ang^3
#
#
#
# Elastic Constant Matrix: (Units=GPa)
#
#
# Indices 1 2 3 4 5 6 
#
# 1 113.8322 51.7020 68.9959 0.0000 0.0000 0.0000
# 2 51.7020 113.8322 68.9959 0.0000 0.0000 0.0000
# 3 68.9959 68.9959 195.9822 0.0000 0.0000 0.0000
# 4 0.0000 0.0000 0.0000 -13.6199 0.0000 0.0000
# 5 0.0000 0.0000 0.0000 0.0000 -13.6199 0.0000
# 6 0.0000 0.0000 0.0000 0.0000 0.0000 32.5367
#
#
#
# Elastic Compliance Matrix: (Units=1/GPa)
#
#
# Indices 1 2 3 4 5 6 
#
# 1 0.012323 -0.003772 -0.003010 0.000000 0.000000 0.000000
# 2 -0.003772 0.012323 -0.003010 0.000000 0.000000 0.000000
# 3 -0.003010 -0.003010 0.007222 0.000000 0.000000 0.000000
# 4 0.000000 0.000000 0.000000 -0.073422 0.000000 0.000000
# 5 0.000000 0.000000 0.000000 0.000000 -0.073422 0.000000
# 6 0.000000 0.000000 0.000000 0.000000 0.000000 0.030735
#
#
# Mechanical properties :
#
#
# Convention : Reuss Voigt Hill
#
# Bulk Modulus (GPa) = 81.41976 89.22601 85.32288
# Shear Modulus (GPa) = -82.55922 16.65625 -32.95149
#
# Velocity S-wave (km/s) = -6.33256 2.84436 -4.00068
# Velocity P-wave (km/s) = 3.73103 7.35709 4.48365
#
# Compressibility (1/GPa) = 0.01228203
#
# Stress axis : x y z
#
# Youngs Moduli (GPa) = 81.15038 81.15038 138.46624
#
# Poissons Ratio (x) = 0.30613 0.41681
# Poissons Ratio (y) = 0.30613 0.41681
# Poissons Ratio (z) = 0.24428 0.24428
#
# Static dielectric constant tensor:
#      x y z
#    x 2.917560 0.000000 0.000000 
#    y 0.000000 2.917560 0.000000 
#    z 0.000000 0.000000 1.750390 
# 
# From -- ./inp_files/3032.got.cif
#   From: 2010.05.17/outbox.cif.g08.bks.cpg/sg89_2_cif.got.tgz:3032.got - 2010.06.03 19:15:31.
