data_PCOD9546124
_publ_section_title
;
Structure prediction by ZEFSAII (Michael W. Deem and Ramdas Pophale) SiO2 
 PCOD9546124
Probable space group: I 4/M
;
_chemical_formula_sum "Si O2"
_cell_formula_units_Z 56
_cell_length_a 17.265755
_cell_length_b 17.265755
_cell_length_c 8.165178
_cell_angle_alpha 90.000000
_cell_angle_beta 90.000000
_cell_angle_gamma 90.000000
_cell_volume 2434.090967
_symmetry_space_group_name_H-M "I 4/M"
_symmetry_group_IT_number 87
_symmetry_cell_setting 'tetragonal'
loop_
_space_group_symop_operation_xyz
x,y,z
-y,x,z
-x,-y,z
y,-x,z
-x,-y,-z
y,-x,-z
x,y,-z
-y,x,-z
1/2+x,1/2+y,1/2+z
1/2-y,1/2+x,1/2+z
1/2-x,1/2-y,1/2+z
1/2+y,1/2-x,1/2+z
1/2-x,1/2-y,1/2-z
1/2+y,1/2-x,1/2-z
1/2+x,1/2+y,1/2-z
1/2-y,1/2+x,1/2-z
loop_
_atom_site_type_symbol
_atom_site_label
_atom_site_fract_x
_atom_site_fract_y
_atom_site_fract_z
Si Si1 0.496640 0.207288 0.809715
Si Si2 0.622101 0.327206 0.180506
Si Si3 0.845091 0.330920 0.190957
Si Si4 0.082098 0.100764 0.000000
O O1 0.533966 0.293305 0.809954
O O2 0.409132 0.196295 0.752894
O O3 0.561460 0.159679 0.710554
O O4 0.497987 0.181914 0.000000
O O5 0.668433 0.246600 0.204094
O O6 0.634422 0.380764 0.335408
O O7 0.636358 0.360355 0.000000
O O8 0.827807 0.316760 0.000000
O O9 0.104455 0.009865 0.000000
#
# Coordination Sequence:
#
# PCOD9546124 Si02
#       4
#    16  16  16   8
#     4   8  16  27  44  75 110 153 188 221 256 311
#     4   9  18  36  55  81 112 146 176 221 271 318
#     4   9  15  27  47  74 112 157 184 222 263 307
#     4  11  24  42  64  86 103 128 174 234 295 338
#
# _framework density 23.006536000000001
#
# number of rings (size 3 to 8) (size 9 to 14) (size 15 to 20)
#    1.714    1.286    1.429    0.000    0.000    4.000 
#    0.000    4.286    0.000    1.714    0.000    0.000 
#    0.000    0.000    0.000    0.000    0.000    0.000 
#
# Total GULP energy -156079.709816 kJ/mol
# GULP energy per Si atom -5574.275351 kJ/mol
# Density = 2.295417 g / cm^3
# Si number density = 23.006536 Si / 1000 Ang^3
#
#
#
# Elastic Constant Matrix: (Units=GPa)
#
#
# Indices 1 2 3 4 5 6 
#
# 1 91.3236 27.8530 52.4768 0.0000 0.0000 35.4090
# 2 27.8530 91.3236 52.4768 0.0000 0.0000 -35.4090
# 3 52.4768 52.4768 133.3309 0.0000 0.0000 0.0000
# 4 0.0000 0.0000 0.0000 15.1758 0.0000 0.0000
# 5 0.0000 0.0000 0.0000 0.0000 15.1758 0.0000
# 6 35.4090 -35.4090 0.0000 0.0000 0.0000 3.9289
#
#
#
# Elastic Compliance Matrix: (Units=1/GPa)
#
#
# Indices 1 2 3 4 5 6 
#
# 1 0.005551 0.007291 -0.005054 0.000000 0.000000 0.015680
# 2 0.007291 0.005551 -0.005054 0.000000 0.000000 -0.015680
# 3 -0.005054 -0.005054 0.011479 0.000000 0.000000 0.000000
# 4 0.000000 0.000000 0.000000 0.065894 0.000000 0.000000
# 5 0.000000 0.000000 0.000000 0.000000 0.065894 0.000000
# 6 0.015680 -0.015680 0.000000 0.000000 0.000000 -0.028106
#
#
# Mechanical properties :
#
#
# Convention : Reuss Voigt Hill
#
# Bulk Modulus (GPa) = 59.01338 64.62127 61.81732
# Shear Modulus (GPa) = 36.35112 19.06756 27.70934
#
# Velocity S-wave (km/s) = 3.97928 2.88199 3.47423
# Velocity P-wave (km/s) = 6.84246 6.26288 6.55908
#
# Compressibility (1/GPa) = 0.01694531
#
# Stress axis : x y z
#
# Youngs Moduli (GPa) = 180.14277 180.14277 87.11690
#
# Poissons Ratio (x) = -1.31342 0.44033
# Poissons Ratio (y) = -1.31342 0.44033
# Poissons Ratio (z) = 0.91052 0.91052
#
# Static dielectric constant tensor:
#      x y z
#    x 1.888900 0.000000 0.000000 
#    y 0.000000 1.888900 0.000000 
#    z 0.000000 0.000000 1.821180 
# 
# From -- ./inp_files/878.got.cif
#   From: 2010.05.17/outbox.cif.g08.bks.cpg/sg87_1_cif.got.tgz:878.got - 2010.06.03 19:07:00.
