data_PCOD9546478
_publ_section_title
;
Structure prediction by ZEFSAII (Michael W. Deem and Ramdas Pophale) SiO2 
 PCOD9546478
Probable space group: I 41/A
;
_chemical_formula_sum "Si O2"
_cell_formula_units_Z 56
_cell_length_a 17.922328
_cell_length_b 17.922328
_cell_length_c 7.749871
_cell_angle_alpha 90.000000
_cell_angle_beta 90.000000
_cell_angle_gamma 90.000000
_cell_volume 2489.334831
_symmetry_space_group_name_H-M "I 41/A"
_symmetry_group_IT_number 88
_space_group.IT_coordinate_system_code '2'
_symmetry_cell_setting 'tetragonal'
loop_
_space_group_symop_operation_xyz
x,y,z
3/4-y,1/4+x,1/4+z
-x,1/2-y,z
1/4+y,1/4-x,1/4+z
-x,-y,-z
1/4+y,3/4-x,3/4-z
x,1/2+y,-z
3/4-y,3/4+x,3/4-z
1/2+x,1/2+y,1/2+z
1/4-y,3/4+x,3/4+z
1/2-x,-y,1/2+z
3/4+y,3/4-x,3/4+z
1/2-x,1/2-y,1/2-z
3/4+y,1/4-x,1/4-z
1/2+x,y,1/2-z
1/4-y,1/4+x,1/4-z
loop_
_atom_site_type_symbol
_atom_site_label
_atom_site_fract_x
_atom_site_fract_y
_atom_site_fract_z
Si Si1 0.403054 0.107307 0.979853
Si Si2 0.749410 0.672933 0.533428
Si Si3 0.000000 0.250000 0.854937
Si Si4 0.153986 0.185700 0.344952
O O1 0.318727 0.117994 0.041469
O O2 0.432594 0.040038 0.098343
O O3 0.458009 0.179219 0.010323
O O4 0.392654 0.101566 0.774449
O O5 0.789809 0.748922 0.593766
O O6 0.688002 0.650528 0.674493
O O7 0.964457 0.178977 0.949625
#
# Coordination Sequence:
#
# PCOD9546478 Si02
#       4
#    16  16   8  16
#     4  11  22  42  63  93 129 172 213 270 321 385
#     4  10  24  39  60  96 127 164 219 253 327 389
#     4  10  21  39  70  97 123 170 223 265 328 375
#     4  10  21  40  64  93 128 159 213 276 312 382
#
# _framework density 22.49597
#
# number of rings (size 3 to 8) (size 9 to 14) (size 15 to 20)
#    0.000    1.714    0.000    5.143    0.000   10.286 
#    5.143    0.000    0.000    0.000    0.000    0.000 
#    0.000    0.000    0.000    0.000    0.000    0.000 
#
# Total GULP energy -156051.107753 kJ/mol
# GULP energy per Si atom -5573.253848 kJ/mol
# Density = 2.244477 g / cm^3
# Si number density = 22.495970 Si / 1000 Ang^3
#
#
#
# Elastic Constant Matrix: (Units=GPa)
#
#
# Indices 1 2 3 4 5 6 
#
# 1 104.5379 31.3828 48.3778 0.0000 0.0000 0.9827
# 2 31.3828 104.5379 48.3778 0.0000 0.0000 -0.9827
# 3 48.3778 48.3778 106.5524 0.0000 0.0000 0.0000
# 4 0.0000 0.0000 0.0000 39.4560 0.0000 0.0000
# 5 0.0000 0.0000 0.0000 0.0000 39.4560 0.0000
# 6 0.9827 -0.9827 0.0000 0.0000 0.0000 10.8777
#
#
#
# Elastic Compliance Matrix: (Units=1/GPa)
#
#
# Indices 1 2 3 4 5 6 
#
# 1 0.012287 -0.001416 -0.004936 0.000000 0.000000 -0.001238
# 2 -0.001416 0.012287 -0.004936 0.000000 0.000000 0.001238
# 3 -0.004936 -0.004936 0.013867 0.000000 0.000000 0.000000
# 4 0.000000 0.000000 0.000000 0.025345 0.000000 0.000000
# 5 0.000000 0.000000 0.000000 0.000000 0.025345 0.000000
# 6 -0.001238 0.001238 0.000000 0.000000 0.000000 0.092155
#
#
# Mechanical properties :
#
#
# Convention : Reuss Voigt Hill
#
# Bulk Modulus (GPa) = 63.02862 63.54499 63.28681
# Shear Modulus (GPa) = 23.90652 30.45726 27.18189
#
# Velocity S-wave (km/s) = 3.26345 3.68353 3.47983
# Velocity P-wave (km/s) = 6.50221 6.81174 6.65877
#
# Compressibility (1/GPa) = 0.01586581
#
# Stress axis : x y z
#
# Youngs Moduli (GPa) = 81.38853 81.38853 72.11444
#
# Poissons Ratio (x) = 0.11525 0.35593
# Poissons Ratio (y) = 0.11525 0.35593
# Poissons Ratio (z) = 0.40170 0.40170
#
# Static dielectric constant tensor:
#      x y z
#    x 1.861580 0.000000 0.000000 
#    y 0.000000 1.861580 0.000000 
#    z 0.000000 0.000000 1.976100 
# 
# From -- ./inp_files/1265.got.cif
#   From: 2010.05.17/outbox.cif.g08.bks.cpg/sg88_1_cif.got.tgz:1265.got - 2010.06.03 19:11:41.
