data_PCOD9546623
_publ_section_title
;
Structure prediction by ZEFSAII (Michael W. Deem and Ramdas Pophale) SiO2 
 PCOD9546623
Probable space group: I 41/A
;
_chemical_formula_sum "Si O2"
_cell_formula_units_Z 92
_cell_length_a 14.718456
_cell_length_b 14.718456
_cell_length_c 21.144361
_cell_angle_alpha 90.000000
_cell_angle_beta 90.000000
_cell_angle_gamma 90.000000
_cell_volume 4580.565236
_symmetry_space_group_name_H-M "I 41/A"
_symmetry_group_IT_number 88
_space_group.IT_coordinate_system_code '2'
_symmetry_cell_setting 'tetragonal'
loop_
_space_group_symop_operation_xyz
x,y,z
3/4-y,1/4+x,1/4+z
-x,1/2-y,z
1/4+y,1/4-x,1/4+z
-x,-y,-z
1/4+y,3/4-x,3/4-z
x,1/2+y,-z
3/4-y,3/4+x,3/4-z
1/2+x,1/2+y,1/2+z
1/4-y,3/4+x,3/4+z
1/2-x,-y,1/2+z
3/4+y,3/4-x,3/4+z
1/2-x,1/2-y,1/2-z
3/4+y,1/4-x,1/4-z
1/2+x,y,1/2-z
1/4-y,1/4+x,1/4-z
loop_
_atom_site_type_symbol
_atom_site_label
_atom_site_fract_x
_atom_site_fract_y
_atom_site_fract_z
Si Si1 0.804397 0.807193 0.198224
Si Si2 0.000000 0.250000 0.850089
Si Si3 0.182608 0.228074 0.341831
Si Si4 0.088562 0.099642 0.034868
Si Si5 0.524189 0.604501 0.146349
Si Si6 0.500000 0.750000 0.625000
Si Si7 0.082393 0.035625 0.777625
O O1 0.750000 0.750000 0.250000
O O2 0.910137 0.777664 0.189208
O O3 0.740990 0.796225 0.137298
O O4 0.821545 0.911325 0.217334
O O5 0.957216 0.171329 0.893345
O O6 0.256353 0.151939 0.325123
O O7 0.177263 0.291775 0.280741
O O8 0.211139 0.281035 0.405275
O O9 0.029616 0.167167 0.079100
O O10 0.181112 0.147769 0.016387
O O11 0.429593 0.649287 0.122691
O O12 0.526760 0.582932 0.220902
#
# Coordination Sequence:
#
# PCOD9546623 Si02
#       7
#    16   8  16  16  16   4  16
#     4  11  24  42  65  98 133 182 224 281 347 408
#     4  10  23  42  64  94 139 176 222 282 344 401
#     4  10  23  42  69  95 136 178 220 282 341 407
#     4  11  23  43  68 104 134 178 229 281 346 421
#     4  11  25  43  70 101 140 189 237 292 349 419
#     4  12  22  44  72 100 138 180 222 280 360 426
#     4  11  22  43  67  99 143 174 234 287 340 418
#
# _framework density 20.084859000000002
#
# number of rings (size 3 to 8) (size 9 to 14) (size 15 to 20)
#    0.000    1.217    3.478    2.609    4.870    1.391 
#    3.130    1.739    0.000    0.000    0.000    0.000 
#    0.000    0.000    0.000    0.000    0.000    0.000 
#
# Total GULP energy -256386.411450 kJ/mol
# GULP energy per Si atom -5573.617640 kJ/mol
# Density = 2.003915 g / cm^3
# Si number density = 20.084859 Si / 1000 Ang^3
#
#
#
# Elastic Constant Matrix: (Units=GPa)
#
#
# Indices 1 2 3 4 5 6 
#
# 1 63.0990 1.3887 26.8891 0.0000 0.0000 4.6814
# 2 1.3887 63.0990 26.8891 0.0000 0.0000 -4.6814
# 3 26.8891 26.8891 133.1605 0.0000 0.0000 0.0000
# 4 0.0000 0.0000 0.0000 21.0931 0.0000 0.0000
# 5 0.0000 0.0000 0.0000 0.0000 21.0931 0.0000
# 6 4.6814 -4.6814 0.0000 0.0000 0.0000 21.2949
#
#
#
# Elastic Compliance Matrix: (Units=1/GPa)
#
#
# Indices 1 2 3 4 5 6 
#
# 1 0.017705 0.000941 -0.003765 0.000000 0.000000 -0.003685
# 2 0.000941 0.017705 -0.003765 0.000000 0.000000 0.003685
# 3 -0.003765 -0.003765 0.009030 0.000000 0.000000 0.000000
# 4 0.000000 0.000000 0.000000 0.047409 0.000000 0.000000
# 5 0.000000 0.000000 0.000000 0.000000 0.047409 0.000000
# 6 -0.003685 0.003685 0.000000 0.000000 0.000000 0.048580
#
#
# Mechanical properties :
#
#
# Convention : Reuss Voigt Hill
#
# Bulk Modulus (GPa) = 31.98698 41.07694 36.53196
# Shear Modulus (GPa) = 23.64757 26.30900 24.97828
#
# Velocity S-wave (km/s) = 3.43502 3.62317 3.53035
# Velocity P-wave (km/s) = 5.62965 6.16435 5.90306
#
# Compressibility (1/GPa) = 0.03126272
#
# Stress axis : x y z
#
# Youngs Moduli (GPa) = 56.47992 56.47993 110.73683
#
# Poissons Ratio (x) = -0.05318 0.41697
# Poissons Ratio (y) = -0.05318 0.41697
# Poissons Ratio (z) = 0.21267 0.21267
#
# Static dielectric constant tensor:
#      x y z
#    x 1.756950 0.000000 0.000000 
#    y 0.000000 1.756950 0.000000 
#    z 0.000000 0.000000 1.777870 
# 
# From -- ./inp_files/4758.got.cif
#   From: 2010.05.17/outbox.cif.g08.bks.cpg/sg88_3_cif.got.tgz:4758.got - 2010.06.03 19:11:41.
