data_PCOD9546933
_publ_section_title
;
Structure prediction by ZEFSAII (Michael W. Deem and Ramdas Pophale) SiO2 
 PCOD9546933
Probable space group: P 4 2 2
;
_chemical_formula_sum "Si O2"
_cell_formula_units_Z 56
_cell_length_a 15.111310
_cell_length_b 15.111310
_cell_length_c 12.465974
_cell_angle_alpha 90.000000
_cell_angle_beta 90.000000
_cell_angle_gamma 90.000000
_cell_volume 2846.626229
_symmetry_space_group_name_H-M "P 4 2 2"
_symmetry_group_IT_number 89
_symmetry_cell_setting 'tetragonal'
loop_
_space_group_symop_operation_xyz
x,y,z
-y,x,z
-x,-y,z
y,-x,z
x,-y,-z
-x,y,-z
y,x,-z
-y,-x,-z
loop_
_atom_site_type_symbol
_atom_site_label
_atom_site_fract_x
_atom_site_fract_y
_atom_site_fract_z
Si Si1 0.067977 0.132173 0.285872
Si Si2 0.095004 0.224947 0.059584
Si Si3 0.404500 0.896813 0.971140
Si Si4 0.078002 0.295299 0.412959
Si Si5 0.199253 0.407533 0.559816
Si Si6 0.592767 0.046985 0.736466
Si Si7 0.419927 0.386055 0.373586
O O1 0.085845 0.185794 0.177442
O O2 0.099248 0.195864 0.380076
O O3 0.962708 0.114641 0.290295
O O4 0.158015 0.158015 0.000000
O O5 0.134320 0.323226 0.044404
O O6 0.000000 0.224135 0.000000
O O7 0.379350 0.901466 0.844827
O O8 0.500000 0.855906 0.000000
O O9 0.412027 0.000000 0.000000
O O10 0.161343 0.343760 0.466899
O O11 0.000000 0.295105 0.500000
O O12 0.030646 0.344593 0.311388
O O13 0.219823 0.500000 0.500000
O O14 0.118679 0.420041 0.642614
O O15 0.287329 0.379959 0.625457
O O16 0.500000 0.000000 0.761878
O O17 0.521179 0.380710 0.329471
O O18 0.409773 0.409773 0.500000
#
# Coordination Sequence:
#
# PCOD9546933 Si02
#       7
#     8   8   8   8   8   8   8
#     4  11  24  42  62  84 115 158 201 248 304 357
#     4  11  21  36  61  89 118 144 193 254 306 356
#     4  10  20  35  60  84 111 155 187 236 307 365
#     4  10  23  39  56  80 115 157 199 238 283 345
#     4  11  20  33  56  82 115 155 196 237 286 342
#     4  11  20  34  56  81 114 151 193 237 289 352
#     4   9  17  33  56  79 109 146 189 235 290 338
#
# _framework density 19.672411
#
# number of rings (size 3 to 8) (size 9 to 14) (size 15 to 20)
#    0.000    1.571    5.714    2.143    0.000    0.714 
#    5.143    0.714    3.143    0.000    0.000    0.000 
#    0.000    0.286    0.000    0.143    0.286    0.000 
#
# Total GULP energy -311975.455925 kJ/mol
# GULP energy per Si atom -5570.990284 kJ/mol
# Density = 1.962764 g / cm^3
# Si number density = 19.672411 Si / 1000 Ang^3
#
#
#
# Elastic Constant Matrix: (Units=GPa)
#
#
# Indices 1 2 3 4 5 6 
#
# 1 106.0722 33.3881 24.8916 0.0000 0.0000 0.0000
# 2 33.3881 106.0722 24.8916 0.0000 0.0000 0.0000
# 3 24.8916 24.8916 60.3818 0.0000 0.0000 0.0000
# 4 0.0000 0.0000 0.0000 56.7258 0.0000 0.0000
# 5 0.0000 0.0000 0.0000 0.0000 56.7258 0.0000
# 6 0.0000 0.0000 0.0000 0.0000 0.0000 12.9568
#
#
#
# Elastic Compliance Matrix: (Units=1/GPa)
#
#
# Indices 1 2 3 4 5 6 
#
# 1 0.011083 -0.002675 -0.003466 0.000000 0.000000 0.000000
# 2 -0.002675 0.011083 -0.003466 0.000000 0.000000 0.000000
# 3 -0.003466 -0.003466 0.019419 0.000000 0.000000 0.000000
# 4 0.000000 0.000000 0.000000 0.017629 0.000000 0.000000
# 5 0.000000 0.000000 0.000000 0.000000 0.017629 0.000000
# 6 0.000000 0.000000 0.000000 0.000000 0.000000 0.077180
#
#
# Mechanical properties :
#
#
# Convention : Reuss Voigt Hill
#
# Bulk Modulus (GPa) = 44.70180 48.76319 46.73250
# Shear Modulus (GPa) = 27.67126 37.90533 32.78830
#
# Velocity S-wave (km/s) = 3.75454 4.39433 4.08697
# Velocity P-wave (km/s) = 6.44731 7.11254 6.78808
#
# Compressibility (1/GPa) = 0.02237046
#
# Stress axis : x y z
#
# Youngs Moduli (GPa) = 90.22856 90.22856 51.49622
#
# Poissons Ratio (x) = 0.24138 0.17849
# Poissons Ratio (y) = 0.24138 0.17849
# Poissons Ratio (z) = 0.31273 0.31273
#
# Static dielectric constant tensor:
#      x y z
#    x 1.682620 0.000000 0.000000 
#    y 0.000000 1.682620 0.000000 
#    z 0.000000 0.000000 1.564250 
# 
# From -- ./inp_files/1887.got.cif
#   From: 2010.05.17/outbox.cif.g08.bks.cpg/sg89_1_cif.got.tgz:1887.got - 2010.06.03 19:15:31.
