data_PCOD9546209
_publ_section_title
;
Structure prediction by ZEFSAII (Michael W. Deem and Ramdas Pophale) SiO2 
 PCOD9546209
Probable space group: I 41/A
;
_chemical_formula_sum "Si O2"
_cell_formula_units_Z 128
_cell_length_a 16.726334
_cell_length_b 16.726334
_cell_length_c 18.636031
_cell_angle_alpha 90.000000
_cell_angle_beta 90.000000
_cell_angle_gamma 90.000000
_cell_volume 5213.807035
_symmetry_space_group_name_H-M "I 41/A"
_symmetry_group_IT_number 88
_space_group.IT_coordinate_system_code '2'
_symmetry_cell_setting 'tetragonal'
loop_
_space_group_symop_operation_xyz
x,y,z
3/4-y,1/4+x,1/4+z
-x,1/2-y,z
1/4+y,1/4-x,1/4+z
-x,-y,-z
1/4+y,3/4-x,3/4-z
x,1/2+y,-z
3/4-y,3/4+x,3/4-z
1/2+x,1/2+y,1/2+z
1/4-y,3/4+x,3/4+z
1/2-x,-y,1/2+z
3/4+y,3/4-x,3/4+z
1/2-x,1/2-y,1/2-z
3/4+y,1/4-x,1/4-z
1/2+x,y,1/2-z
1/4-y,1/4+x,1/4-z
loop_
_atom_site_type_symbol
_atom_site_label
_atom_site_fract_x
_atom_site_fract_y
_atom_site_fract_z
Si Si1 0.662030 0.401792 0.163077
Si Si2 0.224888 0.999380 0.256174
Si Si3 0.922438 0.065208 0.142796
Si Si4 0.628023 0.452258 0.624043
Si Si5 0.319286 0.752290 0.975552
Si Si6 0.044454 0.586717 0.966272
Si Si7 0.326760 0.846137 0.276460
Si Si8 0.522898 0.882740 0.119111
O O1 0.692745 0.459360 0.226088
O O2 0.744057 0.391697 0.117731
O O3 0.651003 0.316617 0.201414
O O4 0.588957 0.429188 0.113721
O O5 0.161417 0.001829 0.192043
O O6 0.187423 0.042852 0.325697
O O7 0.254393 0.908660 0.264564
O O8 0.898680 0.148066 0.176870
O O9 0.956664 0.088184 0.064878
O O10 0.984557 0.018842 0.193975
O O11 0.567645 0.394994 0.668846
O O12 0.577309 0.502865 0.566035
O O13 0.368503 0.668532 0.975895
O O14 0.317332 0.779621 0.057680
O O15 0.325948 0.786978 0.208329
O O16 0.588945 0.812776 0.129241
#
# Coordination Sequence:
#
# PCOD9546209 Si02
#       8
#    16  16  16  16  16  16  16  16
#     4  10  17  33  54  78 107 144 188 230 274 338
#     4  11  19  34  55  84 113 144 193 233 286 344
#     4  10  19  35  54  84 108 151 190 233 288 344
#     4  10  20  32  53  80 111 147 181 237 279 345
#     4   9  19  35  56  79 111 143 190 238 286 334
#     4  10  20  34  56  76 112 146 192 231 285 345
#     4  10  20  34  56  85 111 149 191 240 294 345
#     4   9  19  37  62  81 110 155 199 238 289 358
#
# _framework density 24.550198999999999
#
# number of rings (size 3 to 8) (size 9 to 14) (size 15 to 20)
#    0.000    2.125    2.500    2.625    1.750    1.250 
#    0.000    0.000    8.250    9.000    0.000    0.000 
#    0.000    0.000    0.000    0.000    0.000    0.000 
#
# Total GULP energy -356315.425201 kJ/mol
# GULP energy per Si atom -5567.428519 kJ/mol
# Density = 2.449432 g / cm^3
# Si number density = 24.550199 Si / 1000 Ang^3
#
#
#
# Elastic Constant Matrix: (Units=GPa)
#
#
# Indices 1 2 3 4 5 6 
#
# 1 29.8204 8.0821 24.7024 0.0000 0.0000 -1.1834
# 2 8.0821 29.8204 24.7024 0.0000 0.0000 1.1834
# 3 24.7024 24.7024 172.8947 0.0000 0.0000 0.0000
# 4 0.0000 0.0000 0.0000 37.2954 0.0000 0.0000
# 5 0.0000 0.0000 0.0000 0.0000 37.2954 0.0000
# 6 -1.1834 1.1834 0.0000 0.0000 0.0000 1.3993
#
#
#
# Elastic Compliance Matrix: (Units=1/GPa)
#
#
# Indices 1 2 3 4 5 6 
#
# 1 0.041544 -0.009123 -0.004632 0.000000 0.000000 0.042850
# 2 -0.009123 0.041544 -0.004632 0.000000 0.000000 -0.042850
# 3 -0.004632 -0.004632 0.007108 0.000000 0.000000 0.000000
# 4 0.000000 0.000000 0.000000 0.026813 0.000000 0.000000
# 5 0.000000 0.000000 0.000000 0.000000 0.026813 0.000000
# 6 0.042850 -0.042850 0.000000 0.000000 0.000000 0.787141
#
#
# Mechanical properties :
#
#
# Convention : Reuss Voigt Hill
#
# Bulk Modulus (GPa) = 18.71904 38.61214 28.66559
# Shear Modulus (GPa) = 5.07333 26.86791 15.97062
#
# Velocity S-wave (km/s) = 1.43910 3.31177 2.55331
# Velocity P-wave (km/s) = 3.22532 5.51233 4.51600
#
# Compressibility (1/GPa) = 0.05342154
#
# Stress axis : x y z
#
# Youngs Moduli (GPa) = 24.07069 24.07070 140.69588
#
# Poissons Ratio (x) = 0.21959 0.65174
# Poissons Ratio (y) = 0.21959 0.65174
# Poissons Ratio (z) = 0.11150 0.11150
#
# Static dielectric constant tensor:
#      x y z
#    x 2.049810 0.000000 0.000000 
#    y 0.000000 2.049810 0.000000 
#    z 0.000000 0.000000 2.050890 
# 
# From -- ./inp_files/4094.got.cif
#   From: 2010.05.17/outbox.cif.g08.bks.cpg/sg88_3_cif.got.tgz:4094.got - 2010.06.03 19:11:41.
