data_PCOD9546054
_publ_section_title
;
Structure prediction by ZEFSAII (Michael W. Deem and Ramdas Pophale) SiO2 
 PCOD9546054
Probable space group: I 4/M
;
_chemical_formula_sum "Si O2"
_cell_formula_units_Z 88
_cell_length_a 12.404165
_cell_length_b 12.404165
_cell_length_c 27.424628
_cell_angle_alpha 90.000000
_cell_angle_beta 90.000000
_cell_angle_gamma 90.000000
_cell_volume 4219.644022
_symmetry_space_group_name_H-M "I 4/M"
_symmetry_group_IT_number 87
_symmetry_cell_setting 'tetragonal'
loop_
_space_group_symop_operation_xyz
x,y,z
-y,x,z
-x,-y,z
y,-x,z
-x,-y,-z
y,-x,-z
x,y,-z
-y,x,-z
1/2+x,1/2+y,1/2+z
1/2-y,1/2+x,1/2+z
1/2-x,1/2-y,1/2+z
1/2+y,1/2-x,1/2+z
1/2-x,1/2-y,1/2-z
1/2+y,1/2-x,1/2-z
1/2+x,1/2+y,1/2-z
1/2-y,1/2+x,1/2-z
loop_
_atom_site_type_symbol
_atom_site_label
_atom_site_fract_x
_atom_site_fract_y
_atom_site_fract_z
Si Si1 0.923213 0.661973 0.944589
Si Si2 0.665856 0.429400 0.637344
Si Si3 0.840030 0.421587 0.922636
Si Si4 0.161738 0.916472 0.500000
Si Si5 0.872559 0.477836 0.182056
Si Si6 0.806377 0.347627 0.723332
O O1 0.896099 0.752510 0.905310
O O2 0.865864 0.548165 0.933036
O O3 0.051797 0.639063 0.939717
O O4 0.898189 0.693486 0.000000
O O5 0.636273 0.555193 0.633379
O O6 0.722743 0.409884 0.689170
O O7 0.735495 0.389407 0.953189
O O8 0.830120 0.412600 0.864358
O O9 0.045519 0.860589 0.500000
O O10 0.854607 0.417906 0.232710
O O11 0.817020 0.593655 0.188702
O O12 0.000000 0.500000 0.173475
O O13 0.750000 0.250000 0.750000
#
# Coordination Sequence:
#
# PCOD9546054 Si02
#       6
#    16  16  16   8  16  16
#     4  11  21  40  69 101 125 169 221 277 330 390
#     4  11  26  45  63  95 145 180 211 274 344 402
#     4  11  21  40  68  95 129 162 220 282 322 384
#     4  11  26  45  62  88 132 175 212 265 332 382
#     4  12  22  40  67  98 129 162 219 281 320 385
#     4  12  24  39  67  97 132 175 224 265 333 399
#
# _framework density 20.854839999999999
#
# number of rings (size 3 to 8) (size 9 to 14) (size 15 to 20)
#    0.000    0.636    7.273    1.636    2.545    3.636 
#    0.000    0.909    0.000    2.182    0.000    0.000 
#    0.000    0.000    0.000    0.000    0.000    0.000 
#
# Total GULP energy -246251.228326 kJ/mol
# GULP energy per Si atom -5596.618826 kJ/mol
# Density = 2.080737 g / cm^3
# Si number density = 20.854840 Si / 1000 Ang^3
#
#
#
# Elastic Constant Matrix: (Units=GPa)
#
#
# Indices 1 2 3 4 5 6 
#
# 1 58.2441 1.7394 20.4232 0.0000 0.0000 -0.3498
# 2 1.7394 58.2441 20.4232 0.0000 0.0000 0.3498
# 3 20.4232 20.4232 146.5429 0.0000 0.0000 0.0000
# 4 0.0000 0.0000 0.0000 25.5240 0.0000 0.0000
# 5 0.0000 0.0000 0.0000 0.0000 25.5240 0.0000
# 6 -0.3498 0.3498 0.0000 0.0000 0.0000 15.9196
#
#
#
# Elastic Compliance Matrix: (Units=1/GPa)
#
#
# Indices 1 2 3 4 5 6 
#
# 1 0.018061 0.000358 -0.002567 0.000000 0.000000 0.000389
# 2 0.000358 0.018061 -0.002567 0.000000 0.000000 -0.000389
# 3 -0.002567 -0.002567 0.007539 0.000000 0.000000 0.000000
# 4 0.000000 0.000000 0.000000 0.039179 0.000000 0.000000
# 5 0.000000 0.000000 0.000000 0.000000 0.039179 0.000000
# 6 0.000389 -0.000389 0.000000 0.000000 0.000000 0.062833
#
#
# Mechanical properties :
#
#
# Convention : Reuss Voigt Hill
#
# Bulk Modulus (GPa) = 29.31700 38.68918 34.00309
# Shear Modulus (GPa) = 24.29863 28.08988 26.19426
#
# Velocity S-wave (km/s) = 3.41711 3.67403 3.54789
# Velocity P-wave (km/s) = 5.44582 6.04896 5.75530
#
# Compressibility (1/GPa) = 0.03410991
#
# Stress axis : x y z
#
# Youngs Moduli (GPa) = 55.36834 55.36834 132.63551
#
# Poissons Ratio (x) = -0.01985 0.34048
# Poissons Ratio (y) = -0.01985 0.34048
# Poissons Ratio (z) = 0.14213 0.14213
#
# Static dielectric constant tensor:
#      x y z
#    x 1.783830 0.000000 0.000000 
#    y 0.000000 1.783830 0.000000 
#    z 0.000000 0.000000 1.733230 
# 
# From -- ./inp_files/6593.got.cif
#   From: 2010.05.17/outbox.cif.g08.bks.cpg/sg87_4_cif.got.tgz:6593.got - 2010.06.03 19:07:00.
