data_PCOD9546426
_publ_section_title
;
Structure prediction by ZEFSAII (Michael W. Deem and Ramdas Pophale) SiO2 
 PCOD9546426
Probable space group: I 41/A
;
_chemical_formula_sum "Si O2"
_cell_formula_units_Z 64
_cell_length_a 24.299594
_cell_length_b 24.299594
_cell_length_c 5.265127
_cell_angle_alpha 90.000000
_cell_angle_beta 90.000000
_cell_angle_gamma 90.000000
_cell_volume 3108.900954
_symmetry_space_group_name_H-M "I 41/A"
_symmetry_group_IT_number 88
_space_group.IT_coordinate_system_code '2'
_symmetry_cell_setting 'tetragonal'
loop_
_space_group_symop_operation_xyz
x,y,z
3/4-y,1/4+x,1/4+z
-x,1/2-y,z
1/4+y,1/4-x,1/4+z
-x,-y,-z
1/4+y,3/4-x,3/4-z
x,1/2+y,-z
3/4-y,3/4+x,3/4-z
1/2+x,1/2+y,1/2+z
1/4-y,3/4+x,3/4+z
1/2-x,-y,1/2+z
3/4+y,3/4-x,3/4+z
1/2-x,1/2-y,1/2-z
3/4+y,1/4-x,1/4-z
1/2+x,y,1/2-z
1/4-y,1/4+x,1/4-z
loop_
_atom_site_type_symbol
_atom_site_label
_atom_site_fract_x
_atom_site_fract_y
_atom_site_fract_z
Si Si1 0.056544 0.571397 0.002700
Si Si2 0.430487 0.051291 0.549409
Si Si3 0.630708 0.160115 0.719690
Si Si4 0.923872 0.738995 0.002260
O O1 0.093862 0.606344 0.189151
O O2 0.995988 0.556487 0.102776
O O3 0.083312 0.513205 0.936911
O O4 0.043211 0.617030 0.787790
O O5 0.417737 0.079026 0.276178
O O6 0.404541 0.085090 0.776455
O O7 0.590309 0.213782 0.705491
O O8 0.943935 0.777304 0.759696
#
# Coordination Sequence:
#
# PCOD9546426 Si02
#       4
#    16  16  16  16
#     4   9  20  36  57  81 114 146 184 232 277 330
#     4  10  22  36  56  84 110 145 188 227 278 337
#     4  10  21  36  56  81 112 148 184 229 279 330
#     4   8  15  30  51  78 112 148 182 220 276 342
#
# _framework density 20.586051999999999
#
# number of rings (size 3 to 8) (size 9 to 14) (size 15 to 20)
#    0.000    2.750    0.000    0.000    0.000   19.000 
#    0.000    0.000    0.000   12.000    0.000    0.000 
#    0.000    0.000    0.000    0.000    0.000    0.000 
#
# Total GULP energy -178315.523734 kJ/mol
# GULP energy per Si atom -5572.360117 kJ/mol
# Density = 2.053920 g / cm^3
# Si number density = 20.586052 Si / 1000 Ang^3
#
#
#
# Elastic Constant Matrix: (Units=GPa)
#
#
# Indices 1 2 3 4 5 6 
#
# 1 94.3190 6.9199 25.6117 0.0000 0.0000 2.3102
# 2 6.9199 94.3190 25.6117 0.0000 0.0000 -2.3102
# 3 25.6117 25.6117 87.8741 0.0000 0.0000 0.0000
# 4 0.0000 0.0000 0.0000 7.4106 0.0000 0.0000
# 5 0.0000 0.0000 0.0000 0.0000 7.4106 0.0000
# 6 2.3102 -2.3102 0.0000 0.0000 0.0000 20.3435
#
#
#
# Elastic Compliance Matrix: (Units=1/GPa)
#
#
# Indices 1 2 3 4 5 6 
#
# 1 0.011549 0.000038 -0.003377 0.000000 0.000000 -0.001307
# 2 0.000038 0.011549 -0.003377 0.000000 0.000000 0.001307
# 3 -0.003377 -0.003377 0.013348 0.000000 0.000000 0.000000
# 4 0.000000 0.000000 0.000000 0.134942 0.000000 0.000000
# 5 0.000000 0.000000 0.000000 0.000000 0.134942 0.000000
# 6 -0.001307 0.001307 0.000000 0.000000 0.000000 0.049453
#
#
# Mechanical properties :
#
#
# Convention : Reuss Voigt Hill
#
# Bulk Modulus (GPa) = 43.45336 43.64432 43.54884
# Shear Modulus (GPa) = 13.26663 21.59085 17.42874
#
# Velocity S-wave (km/s) = 2.54135 3.24205 2.91285
# Velocity P-wave (km/s) = 5.45576 5.93813 5.70205
#
# Compressibility (1/GPa) = 0.02301318
#
# Stress axis : x y z
#
# Youngs Moduli (GPa) = 86.59092 86.59092 74.91539
#
# Poissons Ratio (x) = -0.00326 0.25298
# Poissons Ratio (y) = -0.00326 0.25298
# Poissons Ratio (z) = 0.29241 0.29241
#
# Static dielectric constant tensor:
#      x y z
#    x 1.773480 0.000000 0.000000 
#    y 0.000000 1.773480 0.000000 
#    z 0.000000 0.000000 1.802780 
# 
# From -- ./inp_files/548.got.cif
#   From: 2010.05.17/outbox.cif.g08.bks.cpg/sg88_1_cif.got.tgz:548.got - 2010.06.03 19:11:41.
