data_PCOD9546007
_publ_section_title
;
Structure prediction by ZEFSAII (Michael W. Deem and Ramdas Pophale) SiO2 
 PCOD9546007
Probable space group: I 4/M
;
_chemical_formula_sum "Si O2"
_cell_formula_units_Z 60
_cell_length_a 11.160609
_cell_length_b 11.160609
_cell_length_c 18.386407
_cell_angle_alpha 90.000000
_cell_angle_beta 90.000000
_cell_angle_gamma 90.000000
_cell_volume 2290.196023
_symmetry_space_group_name_H-M "I 4/M"
_symmetry_group_IT_number 87
_symmetry_cell_setting 'tetragonal'
loop_
_space_group_symop_operation_xyz
x,y,z
-y,x,z
-x,-y,z
y,-x,z
-x,-y,-z
y,-x,-z
x,y,-z
-y,x,-z
1/2+x,1/2+y,1/2+z
1/2-y,1/2+x,1/2+z
1/2-x,1/2-y,1/2+z
1/2+y,1/2-x,1/2+z
1/2-x,1/2-y,1/2-z
1/2+y,1/2-x,1/2-z
1/2+x,1/2+y,1/2-z
1/2-y,1/2+x,1/2-z
loop_
_atom_site_type_symbol
_atom_site_label
_atom_site_fract_x
_atom_site_fract_y
_atom_site_fract_z
Si Si1 0.770112 0.375352 0.659893
Si Si2 0.500000 0.500000 0.000000
Si Si3 0.443742 0.206101 0.000000
Si Si4 0.803385 0.158823 0.000000
Si Si5 0.359680 0.623032 0.197043
Si Si6 0.000000 0.000000 0.000000
Si Si7 0.500000 0.000000 0.879189
O O1 0.746482 0.388388 0.575682
O O2 0.665509 0.402446 0.717326
O O3 0.782242 0.233322 0.672986
O O4 0.886891 0.458703 0.670591
O O5 0.493326 0.345067 0.000000
O O6 0.300839 0.218061 0.000000
O O7 0.475788 0.116863 0.068915
O O8 0.944129 0.133055 0.000000
O O9 0.340822 0.490373 0.169148
#
# Coordination Sequence:
#
# PCOD9546007 Si02
#       7
#    16   2   8   8  16   2   8
#     4  11  26  47  77 114 159 213 271 355 437 518
#     4  12  24  48  80 116 186 264 284 340 444 554
#     4  11  26  48  72 122 180 221 281 350 442 524
#     4  12  27  46  77 124 159 210 281 362 434 522
#     4  10  26  50  74 107 154 213 282 346 421 528
#     4  12  28  44  84 120 174 228 284 362 460 520
#     4  11  24  46  75 112 166 218 274 360 428 525
#
# _framework density 26.198632
#
# number of rings (size 3 to 8) (size 9 to 14) (size 15 to 20)
#    0.000    1.067    0.000    4.800   11.200    2.133 
#    4.800    0.000    0.000    0.000    0.000    0.000 
#    0.000    0.000    0.000    0.000    0.000    0.000 
#
# Total GULP energy -167027.724068 kJ/mol
# GULP energy per Si atom -5567.590802 kJ/mol
# Density = 2.613900 g / cm^3
# Si number density = 26.198632 Si / 1000 Ang^3
#
#
#
# Elastic Constant Matrix: (Units=GPa)
#
#
# Indices 1 2 3 4 5 6 
#
# 1 115.1389 28.6905 37.9322 0.0000 0.0000 10.6080
# 2 28.6905 115.1389 37.9322 0.0000 0.0000 -10.6080
# 3 37.9322 37.9322 124.6588 0.0000 0.0000 0.0000
# 4 0.0000 0.0000 0.0000 32.8533 0.0000 0.0000
# 5 0.0000 0.0000 0.0000 0.0000 32.8533 0.0000
# 6 10.6080 -10.6080 0.0000 0.0000 0.0000 63.5049
#
#
#
# Elastic Compliance Matrix: (Units=1/GPa)
#
#
# Indices 1 2 3 4 5 6 
#
# 1 0.010172 -0.001890 -0.002520 0.000000 0.000000 -0.002015
# 2 -0.001890 0.010172 -0.002520 0.000000 0.000000 0.002015
# 3 -0.002520 -0.002520 0.009556 0.000000 0.000000 0.000000
# 4 0.000000 0.000000 0.000000 0.030438 0.000000 0.000000
# 5 0.000000 0.000000 0.000000 0.000000 0.030438 0.000000
# 6 -0.002015 0.002015 0.000000 0.000000 0.000000 0.016420
#
#
# Mechanical properties :
#
#
# Convention : Reuss Voigt Hill
#
# Bulk Modulus (GPa) = 62.34782 62.67182 62.50982
# Shear Modulus (GPa) = 39.55601 42.53443 41.04522
#
# Velocity S-wave (km/s) = 3.88989 4.03368 3.96244
# Velocity P-wave (km/s) = 6.63512 6.75780 6.69674
#
# Compressibility (1/GPa) = 0.01603905
#
# Stress axis : x y z
#
# Youngs Moduli (GPa) = 98.30904 98.30904 104.65107
#
# Poissons Ratio (x) = 0.18581 0.26373
# Poissons Ratio (y) = 0.18581 0.26373
# Poissons Ratio (z) = 0.24775 0.24775
#
# Static dielectric constant tensor:
#      x y z
#    x 2.123110 0.000000 0.000000 
#    y 0.000000 2.123110 0.000000 
#    z 0.000000 0.000000 2.142620 
# 
# From -- ./inp_files/5031.got.cif
#   From: 2010.05.17/outbox.cif.g08.bks.cpg/sg87_3_cif.got.tgz:5031.got - 2010.06.03 19:07:00.
