data_PCOD9546258
_publ_section_title
;
Structure prediction by ZEFSAII (Michael W. Deem and Ramdas Pophale) SiO2 
 PCOD9546258
Probable space group: I 41/A
;
_chemical_formula_sum "Si O2"
_cell_formula_units_Z 112
_cell_length_a 25.344463
_cell_length_b 25.344463
_cell_length_c 9.273280
_cell_angle_alpha 90.000000
_cell_angle_beta 90.000000
_cell_angle_gamma 90.000000
_cell_volume 5956.615411
_symmetry_space_group_name_H-M "I 41/A"
_symmetry_group_IT_number 88
_space_group.IT_coordinate_system_code '2'
_symmetry_cell_setting 'tetragonal'
loop_
_space_group_symop_operation_xyz
x,y,z
3/4-y,1/4+x,1/4+z
-x,1/2-y,z
1/4+y,1/4-x,1/4+z
-x,-y,-z
1/4+y,3/4-x,3/4-z
x,1/2+y,-z
3/4-y,3/4+x,3/4-z
1/2+x,1/2+y,1/2+z
1/4-y,3/4+x,3/4+z
1/2-x,-y,1/2+z
3/4+y,3/4-x,3/4+z
1/2-x,1/2-y,1/2-z
3/4+y,1/4-x,1/4-z
1/2+x,y,1/2-z
1/4-y,1/4+x,1/4-z
loop_
_atom_site_type_symbol
_atom_site_label
_atom_site_fract_x
_atom_site_fract_y
_atom_site_fract_z
Si Si1 0.945349 0.379823 0.088302
Si Si2 0.551955 0.551521 0.081555
Si Si3 0.767378 0.197052 0.332580
Si Si4 0.596966 0.664432 0.075794
Si Si5 0.013846 0.189176 0.829278
Si Si6 0.310050 0.317827 0.731888
Si Si7 0.847562 0.816547 0.914179
O O1 0.925919 0.434233 0.013467
O O2 0.961226 0.337676 0.966670
O O3 0.895016 0.350042 0.157114
O O4 0.002626 0.392002 0.160444
O O5 0.544942 0.540822 0.254610
O O6 0.579237 0.605910 0.042079
O O7 0.583870 0.500752 0.026629
O O8 0.495087 0.556168 0.006785
O O9 0.750000 0.250000 0.250000
O O10 0.710147 0.169941 0.348686
O O11 0.555728 0.683928 0.199658
O O12 0.655298 0.661452 0.138492
O O13 0.591630 0.710344 0.959684
O O14 0.000000 0.250000 0.852045
O O15 0.340082 0.329826 0.583364
#
# Coordination Sequence:
#
# PCOD9546258 Si02
#       7
#    16  16  16  16  16  16  16
#     4  11  22  35  49  75 115 140 181 218 271 333
#     4  10  19  31  51  73 100 135 175 215 256 311
#     4   9  18  36  51  69 104 140 179 214 262 323
#     4  12  18  32  50  73 105 139 172 211 268 321
#     4  12  21  30  48  75 110 142 165 205 266 331
#     4  10  19  33  49  73 105 130 178 219 254 312
#     4  10  22  32  52  75 107 143 175 224 270 319
#
# _framework density 18.802623000000001
#
# number of rings (size 3 to 8) (size 9 to 14) (size 15 to 20)
#    0.000    1.429    5.714    0.000    2.000    0.000 
#    0.000    0.000    0.000    0.000    0.000    0.000 
#  218.571    0.000    0.000    0.000    0.000    0.000 
#
# Total GULP energy -312134.209671 kJ/mol
# GULP energy per Si atom -5573.825173 kJ/mol
# Density = 1.875983 g / cm^3
# Si number density = 18.802623 Si / 1000 Ang^3
#
#
#
# Elastic Constant Matrix: (Units=GPa)
#
#
# Indices 1 2 3 4 5 6 
#
# 1 76.6520 -5.2631 -5.1840 0.0000 0.0000 -2.2865
# 2 -5.2631 76.6520 -5.1840 0.0000 0.0000 2.2865
# 3 -5.1840 -5.1840 12.7331 0.0000 0.0000 0.0000
# 4 0.0000 0.0000 0.0000 -1.8693 0.0000 0.0000
# 5 0.0000 0.0000 0.0000 0.0000 -1.8693 0.0000
# 6 -2.2865 2.2865 0.0000 0.0000 0.0000 15.3574
#
#
#
# Elastic Compliance Matrix: (Units=1/GPa)
#
#
# Indices 1 2 3 4 5 6 
#
# 1 0.013599 0.001289 0.006061 0.000000 0.000000 0.001833
# 2 0.001289 0.013599 0.006061 0.000000 0.000000 -0.001833
# 3 0.006061 0.006061 0.083471 0.000000 0.000000 0.000000
# 4 0.000000 0.000000 0.000000 -0.534973 0.000000 0.000000
# 5 0.000000 0.000000 0.000000 0.000000 -0.534973 0.000000
# 6 0.001833 -0.001833 0.000000 0.000000 0.000000 0.065661
#
#
# Mechanical properties :
#
#
# Convention : Reuss Voigt Hill
#
# Bulk Modulus (GPa) = 7.27314 14.97500 11.12407
# Shear Modulus (GPa) = -5.71684 14.43499 4.35907
#
# Velocity S-wave (km/s) = -1.74558 2.77377 1.52426
# Velocity P-wave (km/s) = 0.43149 4.27083 3.00448
#
# Compressibility (1/GPa) = 0.13749221
#
# Stress axis : x y z
#
# Youngs Moduli (GPa) = 73.53437 73.53437 11.98026
#
# Poissons Ratio (x) = -0.09479 -0.07262
# Poissons Ratio (y) = -0.09479 -0.07262
# Poissons Ratio (z) = -0.44572 -0.44572
#
# Static dielectric constant tensor:
#      x y z
#    x 1.778170 0.000000 0.000000 
#    y 0.000000 1.778170 0.000000 
#    z 0.000000 0.000000 1.697800 
# 
# From -- ./inp_files/2717.got.cif
#   From: 2010.05.17/outbox.cif.g08.bks.cpg/sg88_2_cif.got.tgz:2717.got - 2010.06.03 19:11:41.
