data_PCOD9546741
_publ_section_title
;
Structure prediction by ZEFSAII (Michael W. Deem and Ramdas Pophale) SiO2 
 PCOD9546741
Probable space group: I 41/A
;
_chemical_formula_sum "Si O2"
_cell_formula_units_Z 52
_cell_length_a 8.937905
_cell_length_b 8.937905
_cell_length_c 28.978545
_cell_angle_alpha 90.000000
_cell_angle_beta 90.000000
_cell_angle_gamma 90.000000
_cell_volume 2314.984271
_symmetry_space_group_name_H-M "I 41/A"
_symmetry_group_IT_number 88
_space_group.IT_coordinate_system_code '2'
_symmetry_cell_setting 'tetragonal'
loop_
_space_group_symop_operation_xyz
x,y,z
3/4-y,1/4+x,1/4+z
-x,1/2-y,z
1/4+y,1/4-x,1/4+z
-x,-y,-z
1/4+y,3/4-x,3/4-z
x,1/2+y,-z
3/4-y,3/4+x,3/4-z
1/2+x,1/2+y,1/2+z
1/4-y,3/4+x,3/4+z
1/2-x,-y,1/2+z
3/4+y,3/4-x,3/4+z
1/2-x,1/2-y,1/2-z
3/4+y,1/4-x,1/4-z
1/2+x,y,1/2-z
1/4-y,1/4+x,1/4-z
loop_
_atom_site_type_symbol
_atom_site_label
_atom_site_fract_x
_atom_site_fract_y
_atom_site_fract_z
Si Si1 0.500000 0.750000 0.625000
Si Si2 0.555542 0.409445 0.224479
Si Si3 0.752981 0.364349 0.444601
Si Si4 0.244727 0.205303 0.623165
O O1 0.455478 0.888616 0.657472
O O2 0.500000 0.250000 0.243454
O O3 0.496440 0.525143 0.262588
O O4 0.730386 0.433185 0.214674
O O5 0.472430 0.424991 0.175583
O O6 0.899176 0.406784 0.415453
O O7 0.166178 0.363130 0.632824
#
# Coordination Sequence:
#
# PCOD9546741 Si02
#       4
#     4  16  16  16
#     4  12  24  40  64  92 132 172 216 256 324 380
#     4  11  22  40  61  93 127 164 214 264 320 377
#     4  11  24  38  65  92 126 169 212 266 318 378
#     4   9  21  42  64  89 129 172 211 262 315 383
#
# _framework density 22.462356
#
# number of rings (size 3 to 8) (size 9 to 14) (size 15 to 20)
#    0.000    1.538    1.538    2.769    4.308    1.231 
#    0.000    0.000    0.000    0.000    0.000    0.000 
#    0.000    0.000    0.000    0.000    0.000    0.000 
#
# Total GULP energy -145479.691506 kJ/mol
# GULP energy per Si atom -5595.372750 kJ/mol
# Density = 2.241123 g / cm^3
# Si number density = 22.462356 Si / 1000 Ang^3
#
#
#
# Elastic Constant Matrix: (Units=GPa)
#
#
# Indices 1 2 3 4 5 6 
#
# 1 32.9588 13.8261 21.6719 0.0000 0.0000 -20.4178
# 2 13.8261 32.9588 21.6719 0.0000 0.0000 20.4178
# 3 21.6719 21.6719 103.2051 0.0000 0.0000 0.0000
# 4 0.0000 0.0000 0.0000 32.1098 0.0000 0.0000
# 5 0.0000 0.0000 0.0000 0.0000 32.1098 0.0000
# 6 -20.4178 20.4178 0.0000 0.0000 0.0000 -6.3372
#
#
#
# Elastic Compliance Matrix: (Units=1/GPa)
#
#
# Indices 1 2 3 4 5 6 
#
# 1 0.016586 0.009951 -0.005572 0.000000 0.000000 -0.021379
# 2 0.009951 0.016586 -0.005572 0.000000 0.000000 0.021379
# 3 -0.005572 -0.005572 0.012030 0.000000 0.000000 0.000000
# 4 0.000000 0.000000 0.000000 0.031143 0.000000 0.000000
# 5 0.000000 0.000000 0.000000 0.000000 0.031143 0.000000
# 6 -0.021379 0.021379 0.000000 0.000000 0.000000 -0.020034
#
#
# Mechanical properties :
#
#
# Convention : Reuss Voigt Hill
#
# Bulk Modulus (GPa) = 23.35692 31.49585 27.42639
# Shear Modulus (GPa) = 48.02387 19.03998 33.53192
#
# Velocity S-wave (km/s) = 4.62884 2.91458 3.86788
# Velocity P-wave (km/s) = 6.24412 5.03770 5.67307
#
# Compressibility (1/GPa) = 0.04281387
#
# Stress axis : x y z
#
# Youngs Moduli (GPa) = 60.29064 60.29066 83.12711
#
# Poissons Ratio (x) = -0.59993 0.46322
# Poissons Ratio (y) = -0.59993 0.46322
# Poissons Ratio (z) = 0.33597 0.33597
#
# Static dielectric constant tensor:
#      x y z
#    x 1.831990 0.000000 0.000000 
#    y 0.000000 1.831990 0.000000 
#    z 0.000000 0.000000 1.784840 
# 
# From -- ./inp_files/6138.got.cif
#   From: 2010.05.17/outbox.cif.g08.bks.cpg/sg88_4_cif.got.tgz:6138.got - 2010.06.03 19:11:41.
