data_PCOD9546541
_publ_section_title
;
Structure prediction by ZEFSAII (Michael W. Deem and Ramdas Pophale) SiO2 
 PCOD9546541
Probable space group: I 41/A
;
_chemical_formula_sum "Si O2"
_cell_formula_units_Z 96
_cell_length_a 15.924572
_cell_length_b 15.924572
_cell_length_c 18.252601
_cell_angle_alpha 90.000000
_cell_angle_beta 90.000000
_cell_angle_gamma 90.000000
_cell_volume 4628.713472
_symmetry_space_group_name_H-M "I 41/A"
_symmetry_group_IT_number 88
_space_group.IT_coordinate_system_code '2'
_symmetry_cell_setting 'tetragonal'
loop_
_space_group_symop_operation_xyz
x,y,z
3/4-y,1/4+x,1/4+z
-x,1/2-y,z
1/4+y,1/4-x,1/4+z
-x,-y,-z
1/4+y,3/4-x,3/4-z
x,1/2+y,-z
3/4-y,3/4+x,3/4-z
1/2+x,1/2+y,1/2+z
1/4-y,3/4+x,3/4+z
1/2-x,-y,1/2+z
3/4+y,3/4-x,3/4+z
1/2-x,1/2-y,1/2-z
3/4+y,1/4-x,1/4-z
1/2+x,y,1/2-z
1/4-y,1/4+x,1/4-z
loop_
_atom_site_type_symbol
_atom_site_label
_atom_site_fract_x
_atom_site_fract_y
_atom_site_fract_z
Si Si1 0.064299 0.487356 0.934539
Si Si2 0.801238 0.010656 0.244531
Si Si3 0.251768 0.721660 0.371839
Si Si4 0.491490 0.980917 0.283575
Si Si5 0.566628 0.823617 0.346059
Si Si6 0.343743 0.947245 0.104564
O O1 0.074286 0.388735 0.914276
O O2 0.028548 0.521939 0.857169
O O3 0.150853 0.528524 0.958959
O O4 0.000000 0.500000 0.000000
O O5 0.890881 0.978398 0.214902
O O6 0.726931 0.948816 0.220218
O O7 0.811915 0.011676 0.332009
O O8 0.273724 0.732983 0.458106
O O9 0.340251 0.710150 0.331108
O O10 0.204981 0.806791 0.349984
O O11 0.191735 0.641383 0.368189
O O12 0.529412 0.886370 0.284346
O O13 0.500000 0.750000 0.358924
#
# Coordination Sequence:
#
# PCOD9546541 Si02
#       6
#    16  16  16  16  16  16
#     4  10  22  38  68  96 125 168 213 268 325 395
#     4  11  22  42  68  95 134 173 222 264 338 396
#     4  11  24  44  64  98 131 173 223 270 331 391
#     4   9  23  40  62  95 129 169 211 274 322 393
#     4  10  22  41  67  92 127 169 214 269 329 389
#     4  11  25  41  67  94 131 177 219 276 326 402
#
# _framework density 20.740106000000001
#
# number of rings (size 3 to 8) (size 9 to 14) (size 15 to 20)
#    1.000    0.667    1.667    2.000    9.333    2.333 
#    6.000    0.000    0.000    0.000    0.000    0.000 
#    0.000    0.000    0.000    0.000    0.000    0.000 
#
# Total GULP energy -267903.582618 kJ/mol
# GULP energy per Si atom -5581.324638 kJ/mol
# Density = 2.069290 g / cm^3
# Si number density = 20.740106 Si / 1000 Ang^3
#
#
#
# Elastic Constant Matrix: (Units=GPa)
#
#
# Indices 1 2 3 4 5 6 
#
# 1 111.6197 48.2949 -3.9854 0.0000 0.0000 0.3241
# 2 48.2949 111.6197 -3.9854 0.0000 0.0000 -0.3241
# 3 -3.9854 -3.9854 58.3487 0.0000 0.0000 0.0000
# 4 0.0000 0.0000 0.0000 26.0073 0.0000 0.0000
# 5 0.0000 0.0000 0.0000 0.0000 26.0073 0.0000
# 6 0.3241 -0.3241 0.0000 0.0000 0.0000 39.1726
#
#
#
# Elastic Compliance Matrix: (Units=1/GPa)
#
#
# Indices 1 2 3 4 5 6 
#
# 1 0.011034 -0.004759 0.000429 0.000000 0.000000 -0.000131
# 2 -0.004759 0.011034 0.000429 0.000000 0.000000 0.000131
# 3 0.000429 0.000429 0.017197 0.000000 0.000000 0.000000
# 4 0.000000 0.000000 0.000000 0.038451 0.000000 0.000000
# 5 0.000000 0.000000 0.000000 0.000000 0.038451 0.000000
# 6 -0.000131 0.000131 0.000000 0.000000 0.000000 0.025530
#
#
# Mechanical properties :
#
#
# Convention : Reuss Voigt Hill
#
# Bulk Modulus (GPa) = 31.78579 40.24849 36.01714
# Shear Modulus (GPa) = 31.25251 34.32168 32.78710
#
# Velocity S-wave (km/s) = 3.88605 4.07239 3.98031
# Velocity P-wave (km/s) = 5.95770 6.44676 6.20705
#
# Compressibility (1/GPa) = 0.03146060
#
# Stress axis : x y z
#
# Youngs Moduli (GPa) = 90.63037 90.63037 58.15009
#
# Poissons Ratio (x) = 0.43132 -0.02492
# Poissons Ratio (y) = 0.43132 -0.02492
# Poissons Ratio (z) = -0.03884 -0.03884
#
# Static dielectric constant tensor:
#      x y z
#    x 1.736750 0.000000 0.000000 
#    y 0.000000 1.736750 0.000000 
#    z 0.000000 0.000000 1.770770 
# 
# From -- ./inp_files/4709.got.cif
#   From: 2010.05.17/outbox.cif.g08.bks.cpg/sg88_3_cif.got.tgz:4709.got - 2010.06.03 19:11:41.
