data_PCOD9546917
_publ_section_title
;
Structure prediction by ZEFSAII (Michael W. Deem and Ramdas Pophale) SiO2 
 PCOD9546917
Probable space group: P 4 2 2
;
_chemical_formula_sum "Si O2"
_cell_formula_units_Z 40
_cell_length_a 15.572100
_cell_length_b 15.572100
_cell_length_c 7.423760
_cell_angle_alpha 90.000000
_cell_angle_beta 90.000000
_cell_angle_gamma 90.000000
_cell_volume 1800.189778
_symmetry_space_group_name_H-M "P 4 2 2"
_symmetry_group_IT_number 89
_symmetry_cell_setting 'tetragonal'
loop_
_space_group_symop_operation_xyz
x,y,z
-y,x,z
-x,-y,z
y,-x,z
x,-y,-z
-x,y,-z
y,x,-z
-y,-x,-z
loop_
_atom_site_type_symbol
_atom_site_label
_atom_site_fract_x
_atom_site_fract_y
_atom_site_fract_z
Si Si1 0.576056 0.052232 0.193094
Si Si2 0.749066 0.514228 0.206898
Si Si3 0.811902 0.828506 0.283056
Si Si4 0.986758 0.764451 0.293871
Si Si5 0.685989 0.669439 0.785528
O O1 0.545233 0.151309 0.191820
O O2 0.500000 0.000000 0.285889
O O3 0.666415 0.043851 0.289243
O O4 0.586882 0.000000 0.000000
O O5 0.729325 0.419132 0.282919
O O6 0.694957 0.592444 0.291402
O O7 0.722150 0.500000 0.000000
O O8 0.822392 0.822392 0.500000
O O9 0.773489 0.918317 0.216205
O O10 0.747002 0.752389 0.239403
O O11 0.908126 0.816299 0.209965
O O12 0.000000 0.792899 0.500000
O O13 0.669222 0.669222 0.000000
#
# Coordination Sequence:
#
# PCOD9546917 Si02
#       5
#     8   8   8   8   8
#     4  11  20  33  57  82 115 141 188 231 285 336
#     4  10  19  35  55  86 112 149 183 235 282 330
#     4  10  21  38  56  82 115 149 187 231 279 337
#     4  10  22  37  56  81 113 147 187 230 279 334
#     4  10  21  36  59  82 115 147 192 230 284 335
#
# _framework density 22.219878999999999
#
# number of rings (size 3 to 8) (size 9 to 14) (size 15 to 20)
#    0.000    1.800    4.000    1.200    2.800    1.200 
#    0.000    5.000    0.000    0.000    0.000    4.200 
#    0.000    0.000    0.000    0.000    0.000    0.000 
#
# Total GULP energy -222960.436628 kJ/mol
# GULP energy per Si atom -5574.010916 kJ/mol
# Density = 2.216931 g / cm^3
# Si number density = 22.219879 Si / 1000 Ang^3
#
#
#
# Elastic Constant Matrix: (Units=GPa)
#
#
# Indices 1 2 3 4 5 6 
#
# 1 169.1177 81.5799 0.8558 0.0000 0.0000 0.0000
# 2 81.5799 169.1177 0.8558 0.0000 0.0000 0.0000
# 3 0.8558 0.8558 48.6735 0.0000 0.0000 0.0000
# 4 0.0000 0.0000 0.0000 13.1001 0.0000 0.0000
# 5 0.0000 0.0000 0.0000 0.0000 13.1001 0.0000
# 6 0.0000 0.0000 0.0000 0.0000 0.0000 49.6044
#
#
#
# Elastic Compliance Matrix: (Units=1/GPa)
#
#
# Indices 1 2 3 4 5 6 
#
# 1 0.007706 -0.003717 -0.000070 0.000000 0.000000 0.000000
# 2 -0.003717 0.007706 -0.000070 0.000000 0.000000 0.000000
# 3 -0.000070 -0.000070 0.020548 0.000000 0.000000 0.000000
# 4 0.000000 0.000000 0.000000 0.076335 0.000000 0.000000
# 5 0.000000 0.000000 0.000000 0.000000 0.076335 0.000000
# 6 0.000000 0.000000 0.000000 0.000000 0.000000 0.020159
#
#
# Mechanical properties :
#
#
# Convention : Reuss Voigt Hill
#
# Bulk Modulus (GPa) = 35.40369 61.49910 48.45139
# Shear Modulus (GPa) = 22.13163 35.40209 28.76686
#
# Velocity S-wave (km/s) = 3.15942 3.99590 3.60202
# Velocity P-wave (km/s) = 5.41084 7.00194 6.25717
#
# Compressibility (1/GPa) = 0.02824565
#
# Stress axis : x y z
#
# Youngs Moduli (GPa) = 129.76072 129.76072 48.66770
#
# Poissons Ratio (x) = 0.48234 0.00341
# Poissons Ratio (y) = 0.48234 0.00341
# Poissons Ratio (z) = 0.00910 0.00910
#
# Static dielectric constant tensor:
#      x y z
#    x 1.852870 0.000000 0.000000 
#    y 0.000000 1.852870 0.000000 
#    z 0.000000 0.000000 1.907690 
# 
# From -- ./inp_files/1005.got.cif
#   From: 2010.05.17/outbox.cif.g08.bks.cpg/sg89_1_cif.got.tgz:1005.got - 2010.06.03 19:15:31.
