data_PCOD9546495
_publ_section_title
;
Structure prediction by ZEFSAII (Michael W. Deem and Ramdas Pophale) SiO2 
 PCOD9546495
Probable space group: I 41/A
;
_chemical_formula_sum "Si O2"
_cell_formula_units_Z 56
_cell_length_a 14.755527
_cell_length_b 14.755527
_cell_length_c 10.830964
_cell_angle_alpha 90.000000
_cell_angle_beta 90.000000
_cell_angle_gamma 90.000000
_cell_volume 2358.177887
_symmetry_space_group_name_H-M "I 41/A"
_symmetry_group_IT_number 88
_space_group.IT_coordinate_system_code '2'
_symmetry_cell_setting 'tetragonal'
loop_
_space_group_symop_operation_xyz
x,y,z
3/4-y,1/4+x,1/4+z
-x,1/2-y,z
1/4+y,1/4-x,1/4+z
-x,-y,-z
1/4+y,3/4-x,3/4-z
x,1/2+y,-z
3/4-y,3/4+x,3/4-z
1/2+x,1/2+y,1/2+z
1/4-y,3/4+x,3/4+z
1/2-x,-y,1/2+z
3/4+y,3/4-x,3/4+z
1/2-x,1/2-y,1/2-z
3/4+y,1/4-x,1/4-z
1/2+x,y,1/2-z
1/4-y,1/4+x,1/4-z
loop_
_atom_site_type_symbol
_atom_site_label
_atom_site_fract_x
_atom_site_fract_y
_atom_site_fract_z
Si Si1 0.500000 0.750000 0.833414
Si Si2 0.300913 0.048442 0.349163
Si Si3 0.192130 0.258817 0.045245
Si Si4 0.129665 0.737505 0.440331
O O1 0.508168 0.660060 0.752875
O O2 0.412175 0.746801 0.922996
O O3 0.251117 0.018349 0.223997
O O4 0.408797 0.033869 0.340878
O O5 0.291198 0.157067 0.364644
O O6 0.264260 0.276073 0.936587
O O7 0.096987 0.823836 0.362629
#
# Coordination Sequence:
#
# PCOD9546495 Si02
#       4
#     8  16  16  16
#     4  10  21  41  68 104 136 191 242 291 374 435
#     4  12  28  47  72 110 145 194 250 302 378 442
#     4  12  23  45  74  96 153 187 250 299 373 437
#     4   9  22  40  63 103 140 184 242 304 370 430
#
# _framework density 23.747147999999999
#
# number of rings (size 3 to 8) (size 9 to 14) (size 15 to 20)
#    0.000    1.429    0.000    6.000    4.000    4.571 
#    0.000    0.000    0.000    0.000    0.000    0.000 
#    0.000    0.000    0.000    0.000    0.000    0.000 
#
# Total GULP energy -156720.893004 kJ/mol
# GULP energy per Si atom -5597.174750 kJ/mol
# Density = 2.369310 g / cm^3
# Si number density = 23.747148 Si / 1000 Ang^3
#
#
#
# Elastic Constant Matrix: (Units=GPa)
#
#
# Indices 1 2 3 4 5 6 
#
# 1 48.6096 38.1245 25.3300 0.0000 0.0000 15.2786
# 2 38.1245 48.6096 25.3300 0.0000 0.0000 -15.2786
# 3 25.3300 25.3300 120.7604 0.0000 0.0000 0.0000
# 4 0.0000 0.0000 0.0000 16.8373 0.0000 0.0000
# 5 0.0000 0.0000 0.0000 0.0000 16.8373 0.0000
# 6 15.2786 -15.2786 0.0000 0.0000 0.0000 3.8894
#
#
#
# Elastic Compliance Matrix: (Units=1/GPa)
#
#
# Indices 1 2 3 4 5 6 
#
# 1 0.002005 0.011134 -0.002756 0.000000 0.000000 0.035858
# 2 0.011134 0.002005 -0.002756 0.000000 0.000000 -0.035858
# 3 -0.002756 -0.002756 0.009437 0.000000 0.000000 0.000000
# 4 0.000000 0.000000 0.000000 0.059392 0.000000 0.000000
# 5 0.000000 0.000000 0.000000 0.000000 0.059392 0.000000
# 6 0.035858 -0.035858 0.000000 0.000000 0.000000 -0.024608
#
#
# Mechanical properties :
#
#
# Convention : Reuss Voigt Hill
#
# Bulk Modulus (GPa) = 40.49982 43.94983 42.22483
# Shear Modulus (GPa) = 47.79611 16.12582 31.96096
#
# Velocity S-wave (km/s) = 4.49119 2.60871 3.67261
# Velocity P-wave (km/s) = 6.63219 5.25561 5.98362
#
# Compressibility (1/GPa) = 0.02469147
#
# Stress axis : x y z
#
# Youngs Moduli (GPa) = 498.62900 498.62900 105.96554
#
# Poissons Ratio (x) = -5.55161 0.29204
# Poissons Ratio (y) = -5.55161 0.29204
# Poissons Ratio (z) = 1.37423 1.37423
#
# Static dielectric constant tensor:
#      x y z
#    x 1.910410 0.000000 0.000000 
#    y 0.000000 1.910410 0.000000 
#    z 0.000000 0.000000 1.928970 
# 
# From -- ./inp_files/2237.got.cif
#   From: 2010.05.17/outbox.cif.g08.bks.cpg/sg88_2_cif.got.tgz:2237.got - 2010.06.03 19:11:41.
