data_PCOD9546976
_publ_section_title
;
Structure prediction by ZEFSAII (Michael W. Deem and Ramdas Pophale) SiO2 
 PCOD9546976
Probable space group: P 4 2 2
;
_chemical_formula_sum "Si O2"
_cell_formula_units_Z 24
_cell_length_a 11.986460
_cell_length_b 11.986460
_cell_length_c 8.678512
_cell_angle_alpha 90.000000
_cell_angle_beta 90.000000
_cell_angle_gamma 90.000000
_cell_volume 1246.887150
_symmetry_space_group_name_H-M "P 4 2 2"
_symmetry_group_IT_number 89
_symmetry_cell_setting 'tetragonal'
loop_
_space_group_symop_operation_xyz
x,y,z
-y,x,z
-x,-y,z
y,-x,z
x,-y,-z
-x,y,-z
y,x,-z
-y,-x,-z
loop_
_atom_site_type_symbol
_atom_site_label
_atom_site_fract_x
_atom_site_fract_y
_atom_site_fract_z
Si Si1 0.742770 0.257230 0.500000
Si Si2 0.821450 0.500000 0.500000
Si Si3 0.687870 0.000000 0.000000
Si Si4 0.500000 0.000000 0.758023
Si Si5 0.097544 0.162795 0.762256
O O1 0.758270 0.386658 0.542881
O O2 0.772402 0.168145 0.634147
O O3 0.899537 0.529517 0.645025
O O4 0.603552 0.964113 0.864438
O O5 0.764878 0.093435 0.919800
O O6 0.963098 0.145341 0.748308
#
# Coordination Sequence:
#
# PCOD9546976 Si02
#       5
#     4   4   4   4   8
#     4  12  24  42  66  94 132 184 230 294 344 424
#     4  11  24  43  64  94 128 179 237 288 354 420
#     4  11  20  39  64  96 136 179 221 280 338 430
#     4  10  22  40  66  94 134 178 236 278 342 436
#     4  11  23  38  61 100 141 175 214 274 359 426
#
# _framework density 19.247931999999999
#
# number of rings (size 3 to 8) (size 9 to 14) (size 15 to 20)
#    0.000    1.000    3.333    4.000    4.667    3.000 
#    0.000    0.000    0.000    0.000    0.000    0.000 
#    0.000    0.000    0.000    0.000    0.000    0.000 
#
# Total GULP energy -133638.139840 kJ/mol
# GULP energy per Si atom -5568.255827 kJ/mol
# Density = 1.920412 g / cm^3
# Si number density = 19.247932 Si / 1000 Ang^3
#
#
#
# Elastic Constant Matrix: (Units=GPa)
#
#
# Indices 1 2 3 4 5 6 
#
# 1 127.8988 52.5673 51.8023 0.0000 0.0000 0.0000
# 2 52.5673 127.8992 51.8023 0.0000 0.0000 0.0000
# 3 51.8023 51.8023 117.0631 0.0000 0.0000 0.0000
# 4 0.0000 0.0000 0.0000 34.7465 0.0000 0.0000
# 5 0.0000 0.0000 0.0000 0.0000 34.7470 0.0000
# 6 0.0000 0.0000 0.0000 0.0000 0.0000 13.7228
#
#
#
# Elastic Compliance Matrix: (Units=1/GPa)
#
#
# Indices 1 2 3 4 5 6 
#
# 1 0.010352 -0.002923 -0.003287 0.000000 0.000000 0.000000
# 2 -0.002923 0.010351 -0.003287 0.000000 0.000000 0.000000
# 3 -0.003287 -0.003287 0.011452 0.000000 0.000000 0.000000
# 4 0.000000 0.000000 0.000000 0.028780 0.000000 0.000000
# 5 0.000000 0.000000 0.000000 0.000000 0.028779 0.000000
# 6 0.000000 0.000000 0.000000 0.000000 0.000000 0.072872
#
#
# Mechanical properties :
#
#
# Convention : Reuss Voigt Hill
#
# Bulk Modulus (GPa) = 75.98964 76.13385 76.06175
# Shear Modulus (GPa) = 26.88648 31.08920 28.98784
#
# Velocity S-wave (km/s) = 3.74150 4.02331 3.88496
# Velocity P-wave (km/s) = 7.63087 7.82451 7.72829
#
# Compressibility (1/GPa) = 0.01315969
#
# Stress axis : x y z
#
# Youngs Moduli (GPa) = 96.60433 96.60471 87.32375
#
# Poissons Ratio (x) = 0.28239 0.28705
# Poissons Ratio (y) = 0.28239 0.28705
# Poissons Ratio (z) = 0.31755 0.31755
#
# Static dielectric constant tensor:
#      x y z
#    x 1.690150 0.000000 0.000000 
#    y 0.000000 1.690150 0.000000 
#    z 0.000000 0.000000 1.723060 
# 
# From -- ./inp_files/763.got.cif
#   From: 2010.05.17/outbox.cif.g08.bks.cpg/sg89_1_cif.got.tgz:763.got - 2010.06.03 19:15:31.
