data_PCOD9546253
_publ_section_title
;
Structure prediction by ZEFSAII (Michael W. Deem and Ramdas Pophale) SiO2 
 PCOD9546253
Probable space group: I 41/A
;
_chemical_formula_sum "Si O2"
_cell_formula_units_Z 80
_cell_length_a 14.308516
_cell_length_b 14.308516
_cell_length_c 20.342542
_cell_angle_alpha 90.000000
_cell_angle_beta 90.000000
_cell_angle_gamma 90.000000
_cell_volume 4164.802470
_symmetry_space_group_name_H-M "I 41/A"
_symmetry_group_IT_number 88
_space_group.IT_coordinate_system_code '2'
_symmetry_cell_setting 'tetragonal'
loop_
_space_group_symop_operation_xyz
x,y,z
3/4-y,1/4+x,1/4+z
-x,1/2-y,z
1/4+y,1/4-x,1/4+z
-x,-y,-z
1/4+y,3/4-x,3/4-z
x,1/2+y,-z
3/4-y,3/4+x,3/4-z
1/2+x,1/2+y,1/2+z
1/4-y,3/4+x,3/4+z
1/2-x,-y,1/2+z
3/4+y,3/4-x,3/4+z
1/2-x,1/2-y,1/2-z
3/4+y,1/4-x,1/4-z
1/2+x,y,1/2-z
1/4-y,1/4+x,1/4-z
loop_
_atom_site_type_symbol
_atom_site_label
_atom_site_fract_x
_atom_site_fract_y
_atom_site_fract_z
Si Si1 0.061728 0.979003 0.627113
Si Si2 0.329408 0.592197 0.378968
Si Si3 0.604053 0.284096 0.122310
Si Si4 0.683455 0.055391 0.982585
Si Si5 0.892926 0.235653 0.531096
O O1 0.116707 0.886855 0.652863
O O2 0.952758 0.948454 0.625604
O O3 0.100895 0.001544 0.554871
O O4 0.069533 0.073450 0.670495
O O5 0.441936 0.584180 0.384865
O O6 0.291791 0.553605 0.309678
O O7 0.276053 0.544942 0.439146
O O8 0.500000 0.250000 0.140570
O O9 0.604474 0.301047 0.043519
O O10 0.651958 0.162696 0.975897
O O11 0.000000 0.250000 0.552857
#
# Coordination Sequence:
#
# PCOD9546253 Si02
#       5
#    16  16  16  16  16
#     4  10  19  27  48  71 100 137 168 197 240 306
#     4   9  19  34  46  71 100 137 164 209 250 298
#     4   8  16  33  47  63 100 136 168 202 241 294
#     4  10  20  29  48  71 102 130 169 200 249 307
#     4   9  19  29  43  71 108 138 162 197 244 302
#
# _framework density 19.208594999999999
#
# number of rings (size 3 to 8) (size 9 to 14) (size 15 to 20)
#    0.000    2.800    0.000    1.800    8.400    0.000 
#    0.000    0.000    0.000    1.200    0.000    0.000 
#    0.000    0.000    0.000    0.000    0.000    0.000 
#
# Total GULP energy -222799.156995 kJ/mol
# GULP energy per Si atom -5569.978925 kJ/mol
# Density = 1.916488 g / cm^3
# Si number density = 19.208595 Si / 1000 Ang^3
#
#
#
# Elastic Constant Matrix: (Units=GPa)
#
#
# Indices 1 2 3 4 5 6 
#
# 1 96.2080 6.0149 31.1139 0.0000 0.0000 4.9338
# 2 6.0149 96.2080 31.1139 0.0000 0.0000 -4.9338
# 3 31.1139 31.1139 48.1959 0.0000 0.0000 0.0000
# 4 0.0000 0.0000 0.0000 15.1459 0.0000 0.0000
# 5 0.0000 0.0000 0.0000 0.0000 15.1459 0.0000
# 6 4.9338 -4.9338 0.0000 0.0000 0.0000 7.8045
#
#
#
# Elastic Compliance Matrix: (Units=1/GPa)
#
#
# Indices 1 2 3 4 5 6 
#
# 1 0.014014 0.002102 -0.010404 0.000000 0.000000 -0.007530
# 2 0.002102 0.014014 -0.010404 0.000000 0.000000 0.007530
# 3 -0.010404 -0.010404 0.034182 0.000000 0.000000 0.000000
# 4 0.000000 0.000000 0.000000 0.066025 0.000000 0.000000
# 5 0.000000 0.000000 0.000000 0.000000 0.066025 0.000000
# 6 -0.007530 0.007530 0.000000 0.000000 0.000000 0.137651
#
#
# Mechanical properties :
#
#
# Convention : Reuss Voigt Hill
#
# Bulk Modulus (GPa) = 40.32646 41.89970 41.11308
# Shear Modulus (GPa) = 13.24201 19.11054 16.17627
#
# Velocity S-wave (km/s) = 2.62845 3.15762 2.90511
# Velocity P-wave (km/s) = 5.50011 5.92912 5.71864
#
# Compressibility (1/GPa) = 0.02479761
#
# Stress axis : x y z
#
# Youngs Moduli (GPa) = 71.35973 71.35973 29.25549
#
# Poissons Ratio (x) = -0.15003 0.30437
# Poissons Ratio (y) = -0.15003 0.30437
# Poissons Ratio (z) = 0.74242 0.74242
#
# Static dielectric constant tensor:
#      x y z
#    x 1.721060 0.000000 0.000000 
#    y 0.000000 1.721060 0.000000 
#    z 0.000000 0.000000 1.693290 
# 
# From -- ./inp_files/4514.got.cif
#   From: 2010.05.17/outbox.cif.g08.bks.cpg/sg88_3_cif.got.tgz:4514.got - 2010.06.03 19:11:41.
