data_PCOD9546219
_publ_section_title
;
Structure prediction by ZEFSAII (Michael W. Deem and Ramdas Pophale) SiO2 
 PCOD9546219
Probable space group: I 41/A
;
_chemical_formula_sum "Si O2"
_cell_formula_units_Z 56
_cell_length_a 16.364772
_cell_length_b 16.364772
_cell_length_c 10.431976
_cell_angle_alpha 90.000000
_cell_angle_beta 90.000000
_cell_angle_gamma 90.000000
_cell_volume 2793.743288
_symmetry_space_group_name_H-M "I 41/A"
_symmetry_group_IT_number 88
_space_group.IT_coordinate_system_code '2'
_symmetry_cell_setting 'tetragonal'
loop_
_space_group_symop_operation_xyz
x,y,z
3/4-y,1/4+x,1/4+z
-x,1/2-y,z
1/4+y,1/4-x,1/4+z
-x,-y,-z
1/4+y,3/4-x,3/4-z
x,1/2+y,-z
3/4-y,3/4+x,3/4-z
1/2+x,1/2+y,1/2+z
1/4-y,3/4+x,3/4+z
1/2-x,-y,1/2+z
3/4+y,3/4-x,3/4+z
1/2-x,1/2-y,1/2-z
3/4+y,1/4-x,1/4-z
1/2+x,y,1/2-z
1/4-y,1/4+x,1/4-z
loop_
_atom_site_type_symbol
_atom_site_label
_atom_site_fract_x
_atom_site_fract_y
_atom_site_fract_z
Si Si1 0.458163 0.592346 0.162688
Si Si2 0.000000 0.250000 0.839893
Si Si3 0.812502 0.479275 0.614524
Si Si4 0.025708 0.923563 0.638337
O O1 0.492535 0.666880 0.249961
O O2 0.360901 0.600041 0.148381
O O3 0.476635 0.498169 0.203912
O O4 0.489816 0.587033 0.015549
O O5 0.081014 0.242235 0.926858
O O6 0.750027 0.476907 0.729914
O O7 0.881346 0.546026 0.645776
#
# Coordination Sequence:
#
# PCOD9546219 Si02
#       4
#    16   8  16  16
#     4  10  18  29  49  79 109 137 177 231 282 323
#     4  12  19  30  52  78 111 144 179 232 285 324
#     4  10  20  34  53  80 112 144 184 230 276 330
#     4  10  19  29  48  78 108 140 180 227 276 326
#
# _framework density 20.044789000000002
#
# number of rings (size 3 to 8) (size 9 to 14) (size 15 to 20)
#    0.000    1.714    0.000   11.143    0.000    0.000 
#    0.000    0.000    0.000   15.429    0.000    2.000 
#    0.000    0.000    0.000    0.000    0.000    0.000 
#
# Total GULP energy -155895.932366 kJ/mol
# GULP energy per Si atom -5567.711870 kJ/mol
# Density = 1.999917 g / cm^3
# Si number density = 20.044789 Si / 1000 Ang^3
#
#
#
# Elastic Constant Matrix: (Units=GPa)
#
#
# Indices 1 2 3 4 5 6 
#
# 1 144.7302 33.1735 23.6023 0.0000 0.0000 -0.1307
# 2 33.1735 144.7302 23.6023 0.0000 0.0000 0.1307
# 3 23.6023 23.6023 37.9790 0.0000 0.0000 0.0000
# 4 0.0000 0.0000 0.0000 3.4902 0.0000 0.0000
# 5 0.0000 0.0000 0.0000 0.0000 3.4902 0.0000
# 6 -0.1307 0.1307 0.0000 0.0000 0.0000 33.2612
#
#
#
# Elastic Compliance Matrix: (Units=1/GPa)
#
#
# Indices 1 2 3 4 5 6 
#
# 1 0.007848 -0.001117 -0.004183 0.000000 0.000000 0.000035
# 2 -0.001117 0.007848 -0.004183 0.000000 0.000000 -0.000035
# 3 -0.004183 -0.004183 0.031529 0.000000 0.000000 0.000000
# 4 0.000000 0.000000 0.000000 0.286518 0.000000 0.000000
# 5 0.000000 0.000000 0.000000 0.000000 0.286518 0.000000
# 6 0.000035 -0.000035 0.000000 0.000000 0.000000 0.030065
#
#
# Mechanical properties :
#
#
# Convention : Reuss Voigt Hill
#
# Bulk Modulus (GPa) = 35.38654 54.24399 44.81526
# Shear Modulus (GPa) = 7.36691 24.51906 15.94298
#
# Velocity S-wave (km/s) = 1.91917 3.50124 2.82329
# Velocity P-wave (km/s) = 4.75426 6.59280 5.74752
#
# Compressibility (1/GPa) = 0.02825933
#
# Stress axis : x y z
#
# Youngs Moduli (GPa) = 127.42868 127.42868 31.71642
#
# Poissons Ratio (x) = 0.14229 0.13267
# Poissons Ratio (y) = 0.14229 0.13267
# Poissons Ratio (z) = 0.53303 0.53303
#
# Static dielectric constant tensor:
#      x y z
#    x 1.855180 0.000000 0.000000 
#    y 0.000000 1.855180 0.000000 
#    z 0.000000 0.000000 1.678990 
# 
# From -- ./inp_files/1252.got.cif
#   From: 2010.05.17/outbox.cif.g08.bks.cpg/sg88_1_cif.got.tgz:1252.got - 2010.06.03 19:11:41.
