data_PCOD9546920
_publ_section_title
;
Structure prediction by ZEFSAII (Michael W. Deem and Ramdas Pophale) SiO2 
 PCOD9546920
Probable space group: P 4 2 2
;
_chemical_formula_sum "Si O2"
_cell_formula_units_Z 52
_cell_length_a 18.451586
_cell_length_b 18.451586
_cell_length_c 8.036930
_cell_angle_alpha 90.000000
_cell_angle_beta 90.000000
_cell_angle_gamma 90.000000
_cell_volume 2736.261433
_symmetry_space_group_name_H-M "P 4 2 2"
_symmetry_group_IT_number 89
_symmetry_cell_setting 'tetragonal'
loop_
_space_group_symop_operation_xyz
x,y,z
-y,x,z
-x,-y,z
y,-x,z
x,-y,-z
-x,y,-z
y,x,-z
-y,-x,-z
loop_
_atom_site_type_symbol
_atom_site_label
_atom_site_fract_x
_atom_site_fract_y
_atom_site_fract_z
Si Si1 0.083739 0.801408 0.464754
Si Si2 0.133105 0.239877 0.910912
Si Si3 0.700212 0.193544 0.395757
Si Si4 0.458177 0.933536 0.822374
Si Si5 0.000000 0.323712 0.000000
Si Si6 0.679491 0.280556 0.837649
Si Si7 0.565655 0.210685 0.613872
O O1 0.122771 0.877230 0.500000
O O2 0.103102 0.778502 0.274179
O O3 0.120359 0.745117 0.594706
O O4 0.000000 0.803930 0.500000
O O5 0.197522 0.298346 0.883323
O O6 0.171926 0.171926 0.000000
O O7 0.069288 0.272253 0.024292
O O8 0.752608 0.247393 0.500000
O O9 0.689450 0.244918 0.239009
O O10 0.625602 0.180772 0.486761
O O11 0.457126 0.857678 0.727254
O O12 0.500000 0.000000 0.734588
O O13 0.500000 0.922543 0.000000
O O14 0.378918 0.967106 0.862205
O O15 0.609960 0.270948 0.720079
O O16 0.670655 0.329346 0.000000
O O17 0.500000 0.238146 0.500000
#
# Coordination Sequence:
#
# PCOD9546920 Si02
#       7
#     8   8   8   8   4   8   8
#     4  11  22  39  57  80 111 144 201 260 341 394
#     4  11  22  37  61  86 104 143 209 265 317 371
#     4   9  18  40  57  84 116 155 210 256 300 369
#     4   9  20  38  53  81 125 163 201 239 296 377
#     4  10  19  38  62  77 110 148 200 256 314 357
#     4  10  20  38  64  86 116 156 217 264 300 356
#     4  11  21  38  56  88 128 160 205 249 309 368
#
# _framework density 19.004031000000001
#
# number of rings (size 3 to 8) (size 9 to 14) (size 15 to 20)
#    0.000    2.000    6.154    0.000    2.154    1.692 
#   11.077    0.000    0.000    0.231    0.000    0.000 
#    0.000   24.923    0.000   29.077    0.000    0.462 
#
# Total GULP energy -289578.562485 kJ/mol
# GULP energy per Si atom -5568.818509 kJ/mol
# Density = 1.896078 g / cm^3
# Si number density = 19.004031 Si / 1000 Ang^3
#
#
#
# Elastic Constant Matrix: (Units=GPa)
#
#
# Indices 1 2 3 4 5 6 
#
# 1 92.5907 38.5922 37.3608 0.0000 0.0000 0.0000
# 2 38.5922 92.5899 37.3605 0.0000 0.0000 0.0000
# 3 37.3608 37.3605 97.0438 0.0000 0.0000 0.0000
# 4 0.0000 0.0000 0.0000 21.5925 0.0000 0.0000
# 5 0.0000 0.0000 0.0000 0.0000 21.5940 0.0000
# 6 0.0000 0.0000 0.0000 0.0000 0.0000 18.4850
#
#
#
# Elastic Compliance Matrix: (Units=1/GPa)
#
#
# Indices 1 2 3 4 5 6 
#
# 1 0.014142 -0.004378 -0.003759 0.000000 0.000000 0.000000
# 2 -0.004378 0.014142 -0.003759 0.000000 0.000000 0.000000
# 3 -0.003759 -0.003759 0.013199 0.000000 0.000000 0.000000
# 4 0.000000 0.000000 0.000000 0.046312 0.000000 0.000000
# 5 0.000000 0.000000 0.000000 0.000000 0.046309 0.000000
# 6 0.000000 0.000000 0.000000 0.000000 0.000000 0.054098
#
#
# Mechanical properties :
#
#
# Convention : Reuss Voigt Hill
#
# Bulk Modulus (GPa) = 56.52590 56.53902 56.53246
# Shear Modulus (GPa) = 22.94735 23.59503 23.27119
#
# Velocity S-wave (km/s) = 3.47868 3.52743 3.50314
# Velocity P-wave (km/s) = 6.77818 6.81219 6.79521
#
# Compressibility (1/GPa) = 0.01769100
#
# Stress axis : x y z
#
# Youngs Moduli (GPa) = 70.71341 70.71286 75.76326
#
# Poissons Ratio (x) = 0.30955 0.28480
# Poissons Ratio (y) = 0.30955 0.28480
# Poissons Ratio (z) = 0.26582 0.26581
#
# Static dielectric constant tensor:
#      x y z
#    x 1.679620 0.000000 0.000000 
#    y 0.000000 1.679620 0.000000 
#    z 0.000000 0.000000 1.833260 
# 
# From -- ./inp_files/1235.got.cif
#   From: 2010.05.17/outbox.cif.g08.bks.cpg/sg89_1_cif.got.tgz:1235.got - 2010.06.03 19:15:31.
