data_PCOD9546612
_publ_section_title
;
Structure prediction by ZEFSAII (Michael W. Deem and Ramdas Pophale) SiO2 
 PCOD9546612
Probable space group: I 41/A
;
_chemical_formula_sum "Si O2"
_cell_formula_units_Z 80
_cell_length_a 12.976278
_cell_length_b 12.976278
_cell_length_c 20.961814
_cell_angle_alpha 90.000000
_cell_angle_beta 90.000000
_cell_angle_gamma 90.000000
_cell_volume 3529.629702
_symmetry_space_group_name_H-M "I 41/A"
_symmetry_group_IT_number 88
_space_group.IT_coordinate_system_code '2'
_symmetry_cell_setting 'tetragonal'
loop_
_space_group_symop_operation_xyz
x,y,z
3/4-y,1/4+x,1/4+z
-x,1/2-y,z
1/4+y,1/4-x,1/4+z
-x,-y,-z
1/4+y,3/4-x,3/4-z
x,1/2+y,-z
3/4-y,3/4+x,3/4-z
1/2+x,1/2+y,1/2+z
1/4-y,3/4+x,3/4+z
1/2-x,-y,1/2+z
3/4+y,3/4-x,3/4+z
1/2-x,1/2-y,1/2-z
3/4+y,1/4-x,1/4-z
1/2+x,y,1/2-z
1/4-y,1/4+x,1/4-z
loop_
_atom_site_type_symbol
_atom_site_label
_atom_site_fract_x
_atom_site_fract_y
_atom_site_fract_z
Si Si1 0.634743 0.825464 0.150675
Si Si2 0.444844 0.149455 0.598860
Si Si3 0.193092 0.398501 0.377050
Si Si4 0.180935 0.343072 0.777843
Si Si5 0.242518 0.933241 0.764290
O O1 0.628734 0.703326 0.140996
O O2 0.746233 0.876017 0.136244
O O3 0.595346 0.846460 0.222444
O O4 0.500000 0.250000 0.570395
O O5 0.535910 0.100582 0.642602
O O6 0.359156 0.175102 0.652026
O O7 0.385850 0.081728 0.546261
O O8 0.205668 0.380623 0.300798
O O9 0.288737 0.419845 0.425038
O O10 0.250000 0.250000 0.750000
O O11 0.229187 0.455439 0.766765
#
# Coordination Sequence:
#
# PCOD9546612 Si02
#       5
#    16  16  16  16  16
#     4  10  23  39  69 105 143 184 239 296 383 456
#     4  12  27  43  71 109 143 197 250 304 374 463
#     4  11  25  43  75  97 148 188 257 305 383 444
#     4  11  24  44  71 104 146 186 243 308 383 447
#     4  11  24  48  72 101 146 200 249 316 375 452
#
# _framework density 22.665268000000001
#
# number of rings (size 3 to 8) (size 9 to 14) (size 15 to 20)
#    0.000    1.000    2.000    4.200   14.000    0.000 
#    0.000    0.000    0.000    0.000    0.000    0.000 
#    0.000    0.000    0.000    0.000    0.000    0.000 
#
# Total GULP energy -222753.450800 kJ/mol
# GULP energy per Si atom -5568.836270 kJ/mol
# Density = 2.261368 g / cm^3
# Si number density = 22.665268 Si / 1000 Ang^3
#
#
#
# Elastic Constant Matrix: (Units=GPa)
#
#
# Indices 1 2 3 4 5 6 
#
# 1 93.5031 27.2394 28.1137 0.0000 0.0000 -9.2017
# 2 27.2394 93.5031 28.1137 0.0000 0.0000 9.2017
# 3 28.1137 28.1137 122.1576 0.0000 0.0000 0.0000
# 4 0.0000 0.0000 0.0000 28.1985 0.0000 0.0000
# 5 0.0000 0.0000 0.0000 0.0000 28.1985 0.0000
# 6 -9.2017 9.2017 0.0000 0.0000 0.0000 49.0007
#
#
#
# Elastic Compliance Matrix: (Units=1/GPa)
#
#
# Indices 1 2 3 4 5 6 
#
# 1 0.012599 -0.003323 -0.002135 0.000000 0.000000 0.002990
# 2 -0.003323 0.012599 -0.002135 0.000000 0.000000 -0.002990
# 3 -0.002135 -0.002135 0.009169 0.000000 0.000000 0.000000
# 4 0.000000 0.000000 0.000000 0.035463 0.000000 0.000000
# 5 0.000000 0.000000 0.000000 0.000000 0.035463 0.000000
# 6 0.002990 -0.002990 0.000000 0.000000 0.000000 0.021531
#
#
# Mechanical properties :
#
#
# Convention : Reuss Voigt Hill
#
# Bulk Modulus (GPa) = 52.13264 52.89972 52.51618
# Shear Modulus (GPa) = 33.69232 36.12603 34.90918
#
# Velocity S-wave (km/s) = 3.85972 3.99669 3.92880
# Velocity P-wave (km/s) = 6.55090 6.68493 6.61825
#
# Compressibility (1/GPa) = 0.01918184
#
# Stress axis : x y z
#
# Youngs Moduli (GPa) = 79.37188 79.37188 109.06564
#
# Poissons Ratio (x) = 0.26373 0.23284
# Poissons Ratio (y) = 0.26373 0.23284
# Poissons Ratio (z) = 0.16945 0.16945
#
# Static dielectric constant tensor:
#      x y z
#    x 1.919210 0.000000 0.000000 
#    y 0.000000 1.919210 0.000000 
#    z 0.000000 0.000000 2.016210 
# 
# From -- ./inp_files/4537.got.cif
#   From: 2010.05.17/outbox.cif.g08.bks.cpg/sg88_3_cif.got.tgz:4537.got - 2010.06.03 19:11:41.
