data_PCOD9546023
_publ_section_title
;
Structure prediction by ZEFSAII (Michael W. Deem and Ramdas Pophale) SiO2 
 PCOD9546023
Probable space group: I 4/M
;
_chemical_formula_sum "Si O2"
_cell_formula_units_Z 96
_cell_length_a 16.001810
_cell_length_b 16.001810
_cell_length_c 20.052556
_cell_angle_alpha 90.000000
_cell_angle_beta 90.000000
_cell_angle_gamma 90.000000
_cell_volume 5134.615846
_symmetry_space_group_name_H-M "I 4/M"
_symmetry_group_IT_number 87
_symmetry_cell_setting 'tetragonal'
loop_
_space_group_symop_operation_xyz
x,y,z
-y,x,z
-x,-y,z
y,-x,z
-x,-y,-z
y,-x,-z
x,y,-z
-y,x,-z
1/2+x,1/2+y,1/2+z
1/2-y,1/2+x,1/2+z
1/2-x,1/2-y,1/2+z
1/2+y,1/2-x,1/2+z
1/2-x,1/2-y,1/2-z
1/2+y,1/2-x,1/2-z
1/2+x,1/2+y,1/2-z
1/2-y,1/2+x,1/2-z
loop_
_atom_site_type_symbol
_atom_site_label
_atom_site_fract_x
_atom_site_fract_y
_atom_site_fract_z
Si Si1 0.953052 0.630022 0.000000
Si Si2 0.635996 0.304957 0.419380
Si Si3 0.782425 0.369038 0.122495
Si Si4 0.448412 0.128950 0.750160
Si Si5 0.388716 0.583053 0.079105
Si Si6 0.865856 0.453601 0.000000
Si Si7 0.046996 0.249839 0.123536
O O1 0.935632 0.684318 0.064630
O O2 0.898485 0.547187 0.000000
O O3 0.050784 0.603911 0.000000
O O4 0.635528 0.315997 0.500000
O O5 0.687167 0.221720 0.400534
O O6 0.542631 0.290134 0.392954
O O7 0.679754 0.382400 0.383005
O O8 0.827910 0.399406 0.189151
O O9 0.682326 0.373641 0.122685
O O10 0.812810 0.432143 0.064795
O O11 0.542777 0.099618 0.768926
O O12 0.453467 0.195961 0.690750
O O13 0.387326 0.483288 0.091380
O O14 0.372469 0.597179 0.000000
#
# Coordination Sequence:
#
# PCOD9546023 Si02
#       7
#     8  16  16  16  16   8  16
#     4  11  20  37  63  91 124 168 210 277 340 391
#     4  12  23  44  70  99 133 172 225 290 333 400
#     4  12  21  39  64  93 132 163 220 278 326 401
#     4  11  24  44  67  95 133 175 213 272 349 414
#     4   9  19  37  59  87 127 170 210 257 320 394
#     4  11  20  33  63  97 127 161 213 279 339 390
#     4  12  24  44  66  95 135 174 230 274 339 404
#
# _framework density 18.696625999999998
#
# number of rings (size 3 to 8) (size 9 to 14) (size 15 to 20)
#    0.000    0.833    6.667    1.500    0.000    6.333 
#    3.000    0.833    0.000    0.000    0.000    0.000 
#    0.000    0.000    0.000    0.000    0.000    0.000 
#
# Total GULP energy -268263.187770 kJ/mol
# GULP energy per Si atom -5588.816412 kJ/mol
# Density = 1.865407 g / cm^3
# Si number density = 18.696626 Si / 1000 Ang^3
#
#
#
# Elastic Constant Matrix: (Units=GPa)
#
#
# Indices 1 2 3 4 5 6 
#
# 1 83.3648 56.4845 24.6775 0.0000 0.0000 -13.6823
# 2 56.4845 83.3648 24.6775 0.0000 0.0000 13.6823
# 3 24.6775 24.6775 67.5399 0.0000 0.0000 0.0000
# 4 0.0000 0.0000 0.0000 18.5556 0.0000 0.0000
# 5 0.0000 0.0000 0.0000 0.0000 18.5556 0.0000
# 6 -13.6823 13.6823 0.0000 0.0000 0.0000 16.3040
#
#
#
# Elastic Compliance Matrix: (Units=1/GPa)
#
#
# Indices 1 2 3 4 5 6 
#
# 1 0.131789 -0.123580 -0.002999 0.000000 0.000000 0.214305
# 2 -0.123580 0.131789 -0.002999 0.000000 0.000000 -0.214305
# 3 -0.002999 -0.002999 0.016998 0.000000 0.000000 0.000000
# 4 0.000000 0.000000 0.000000 0.053892 0.000000 0.000000
# 5 0.000000 0.000000 0.000000 0.000000 0.053892 0.000000
# 6 0.214305 -0.214305 0.000000 0.000000 0.000000 0.421024
#
#
# Mechanical properties :
#
#
# Convention : Reuss Voigt Hill
#
# Bulk Modulus (GPa) = 46.68874 49.54982 48.11928
# Shear Modulus (GPa) = 4.64822 19.24504 11.94663
#
# Velocity S-wave (km/s) = 1.57846 3.21180 2.53053
# Velocity P-wave (km/s) = 5.32428 6.34931 5.85926
#
# Compressibility (1/GPa) = 0.02141844
#
# Stress axis : x y z
#
# Youngs Moduli (GPa) = 7.58788 7.58788 58.83084
#
# Poissons Ratio (x) = 0.93771 0.17646
# Poissons Ratio (y) = 0.93771 0.17646
# Poissons Ratio (z) = 0.02276 0.02276
#
# Static dielectric constant tensor:
#      x y z
#    x 1.652610 0.000000 0.000000 
#    y 0.000000 1.652610 0.000000 
#    z 0.000000 0.000000 1.627510 
# 
# From -- ./inp_files/5366.got.cif
#   From: 2010.05.17/outbox.cif.g08.bks.cpg/sg87_3_cif.got.tgz:5366.got - 2010.06.03 19:07:00.
