data_PCOD9546092
_publ_section_title
;
Structure prediction by ZEFSAII (Michael W. Deem and Ramdas Pophale) SiO2 
 PCOD9546092
Probable space group: I 4/M
;
_chemical_formula_sum "Si O2"
_cell_formula_units_Z 116
_cell_length_a 28.080105
_cell_length_b 28.080105
_cell_length_c 8.402775
_cell_angle_alpha 90.000000
_cell_angle_beta 90.000000
_cell_angle_gamma 90.000000
_cell_volume 6625.523359
_symmetry_space_group_name_H-M "I 4/M"
_symmetry_group_IT_number 87
_symmetry_cell_setting 'tetragonal'
loop_
_space_group_symop_operation_xyz
x,y,z
-y,x,z
-x,-y,z
y,-x,z
-x,-y,-z
y,-x,-z
x,y,-z
-y,x,-z
1/2+x,1/2+y,1/2+z
1/2-y,1/2+x,1/2+z
1/2-x,1/2-y,1/2+z
1/2+y,1/2-x,1/2+z
1/2-x,1/2-y,1/2-z
1/2+y,1/2-x,1/2-z
1/2+x,1/2+y,1/2-z
1/2-y,1/2+x,1/2-z
loop_
_atom_site_type_symbol
_atom_site_label
_atom_site_fract_x
_atom_site_fract_y
_atom_site_fract_z
Si Si1 0.000000 0.000000 0.703025
Si Si2 0.663308 0.414061 0.187899
Si Si3 0.239235 0.551808 0.308272
Si Si4 0.556668 0.129580 0.692031
Si Si5 0.559693 0.237332 0.308381
Si Si6 0.447696 0.131346 0.692002
Si Si7 0.996774 0.105692 0.184229
Si Si8 0.590529 0.334353 0.812082
O O1 0.058246 0.006640 0.711556
O O2 0.718375 0.418028 0.234082
O O3 0.634598 0.455249 0.279969
O O4 0.638349 0.363778 0.223376
O O5 0.658058 0.423486 0.000000
O O6 0.241950 0.555163 0.500000
O O7 0.246404 0.495938 0.267025
O O8 0.185500 0.564601 0.258108
O O9 0.556252 0.129567 0.500000
O O10 0.570751 0.183273 0.742350
O O11 0.502029 0.121096 0.745067
O O12 0.592801 0.089758 0.749877
O O13 0.563152 0.239662 0.500000
O O14 0.590692 0.279177 0.234334
O O15 0.448099 0.131231 0.500000
O O16 0.952389 0.139922 0.218971
O O17 0.996283 0.089811 0.000000
O O18 0.580656 0.338793 0.000000
#
# Coordination Sequence:
#
# PCOD9546092 Si02
#       8
#     4  16  16  16  16  16  16  16
#     4  12  25  36  49  70  97 140 189 218 261 336
#     4  11  23  35  48  73 103 131 170 223 277 321
#     4   9  18  34  55  76 100 136 180 222 261 311
#     4   9  19  35  55  83 116 146 178 213 253 304
#     4   9  18  34  55  76 100 136 180 222 261 311
#     4   9  19  35  55  83 116 146 178 213 253 304
#     4  12  22  35  50  67  94 133 179 220 260 320
#     4  11  23  35  48  73 103 131 170 223 277 321
#
# _framework density 17.508050000000001
#
# number of rings (size 3 to 8) (size 9 to 14) (size 15 to 20)
#    0.000    1.931    2.759    3.517    0.000    3.586 
#    0.000    5.517    0.000    0.828    0.000    0.000 
#    0.000    0.000    0.000    0.000    0.000    0.000 
#
# Total GULP energy -323236.175518 kJ/mol
# GULP energy per Si atom -5573.037509 kJ/mol
# Density = 1.746820 g / cm^3
# Si number density = 17.508050 Si / 1000 Ang^3
#
#
#
# Elastic Constant Matrix: (Units=GPa)
#
#
# Indices 1 2 3 4 5 6 
#
# 1 97.0407 59.9805 18.4782 0.0000 0.0000 -0.8162
# 2 59.9805 97.0407 18.4782 0.0000 0.0000 0.8162
# 3 18.4782 18.4782 23.5577 0.0000 0.0000 0.0000
# 4 0.0000 0.0000 0.0000 25.4519 0.0000 0.0000
# 5 0.0000 0.0000 0.0000 0.0000 25.4519 0.0000
# 6 -0.8162 0.8162 0.0000 0.0000 0.0000 22.0749
#
#
#
# Elastic Compliance Matrix: (Units=1/GPa)
#
#
# Indices 1 2 3 4 5 6 
#
# 1 0.017419 -0.009608 -0.006126 0.000000 0.000000 0.000999
# 2 -0.009608 0.017419 -0.006126 0.000000 0.000000 -0.000999
# 3 -0.006126 -0.006126 0.052060 0.000000 0.000000 0.000000
# 4 0.000000 0.000000 0.000000 0.039290 0.000000 0.000000
# 5 0.000000 0.000000 0.000000 0.000000 0.039290 0.000000
# 6 0.000999 -0.000999 0.000000 0.000000 0.000000 0.045374
#
#
# Mechanical properties :
#
#
# Convention : Reuss Voigt Hill
#
# Bulk Modulus (GPa) = 23.16140 45.72366 34.44253
# Shear Modulus (GPa) = 18.58976 22.64255 20.61615
#
# Velocity S-wave (km/s) = 3.26204 3.60010 3.43523
# Velocity P-wave (km/s) = 5.23885 6.59192 5.95395
#
# Compressibility (1/GPa) = 0.04317529
#
# Stress axis : x y z
#
# Youngs Moduli (GPa) = 57.40923 57.40923 19.20864
#
# Poissons Ratio (x) = 0.55161 0.11768
# Poissons Ratio (y) = 0.55161 0.11768
# Poissons Ratio (z) = 0.35171 0.35171
#
# Static dielectric constant tensor:
#      x y z
#    x 1.584250 0.000000 0.000000 
#    y 0.000000 1.584250 0.000000 
#    z 0.000000 0.000000 1.634430 
# 
# From -- ./inp_files/1732.got.cif
#   From: 2010.05.17/outbox.cif.g08.bks.cpg/sg87_1_cif.got.tgz:1732.got - 2010.06.03 19:07:00.
