data_PCOD9546311
_publ_section_title
;
Structure prediction by ZEFSAII (Michael W. Deem and Ramdas Pophale) SiO2 
 PCOD9546311
Probable space group: I 41/A
;
_chemical_formula_sum "Si O2"
_cell_formula_units_Z 112
_cell_length_a 16.612879
_cell_length_b 16.612879
_cell_length_c 26.511511
_cell_angle_alpha 90.000000
_cell_angle_beta 90.000000
_cell_angle_gamma 90.000000
_cell_volume 7316.852235
_symmetry_space_group_name_H-M "I 41/A"
_symmetry_group_IT_number 88
_space_group.IT_coordinate_system_code '2'
_symmetry_cell_setting 'tetragonal'
loop_
_space_group_symop_operation_xyz
x,y,z
3/4-y,1/4+x,1/4+z
-x,1/2-y,z
1/4+y,1/4-x,1/4+z
-x,-y,-z
1/4+y,3/4-x,3/4-z
x,1/2+y,-z
3/4-y,3/4+x,3/4-z
1/2+x,1/2+y,1/2+z
1/4-y,3/4+x,3/4+z
1/2-x,-y,1/2+z
3/4+y,3/4-x,3/4+z
1/2-x,1/2-y,1/2-z
3/4+y,1/4-x,1/4-z
1/2+x,y,1/2-z
1/4-y,1/4+x,1/4-z
loop_
_atom_site_type_symbol
_atom_site_label
_atom_site_fract_x
_atom_site_fract_y
_atom_site_fract_z
Si Si1 0.271338 0.062258 0.843289
Si Si2 0.045262 0.020183 0.678366
Si Si3 0.388957 0.433823 0.718693
Si Si4 0.456169 0.564517 0.036172
Si Si5 0.901165 0.331470 0.546412
Si Si6 0.531515 0.339363 0.680188
Si Si7 0.898767 0.946557 0.624266
O O1 0.266525 0.130637 0.888091
O O2 0.187804 0.045834 0.815378
O O3 0.339230 0.097608 0.805658
O O4 0.312293 0.979035 0.859114
O O5 0.078396 0.009786 0.735681
O O6 0.994676 0.105262 0.679273
O O7 0.974386 0.958611 0.662235
O O8 0.358896 0.357393 0.751223
O O9 0.460040 0.404040 0.682094
O O10 0.511468 0.634205 0.060744
O O11 0.420094 0.509387 0.079614
O O12 0.500000 0.500000 0.000000
O O13 0.909910 0.313219 0.487576
O O14 0.500000 0.250000 0.669181
O O15 0.606278 0.356574 0.644670
#
# Coordination Sequence:
#
# PCOD9546311 Si02
#       7
#    16  16  16  16  16  16  16
#     4  11  20  35  47  68 104 141 172 212 251 293
#     4  10  21  31  43  69  97 137 177 204 243 294
#     4  11  21  32  49  70  99 135 178 211 254 300
#     4  12  16  29  45  66 101 139 169 198 237 274
#     4  10  20  28  42  66 100 139 174 201 229 283
#     4  11  19  31  48  70  97 132 174 211 247 295
#     4  11  21  32  47  72 103 138 174 209 252 298
#
# _framework density 15.307129
#
# number of rings (size 3 to 8) (size 9 to 14) (size 15 to 20)
#    0.000    1.143    7.143    0.857    0.000    0.000 
#    0.000    0.000    0.000    0.000    0.000    4.000 
#    0.000    0.000    0.000    0.000    0.000    0.000 
#
# Total GULP energy -311892.977676 kJ/mol
# GULP energy per Si atom -5569.517459 kJ/mol
# Density = 1.527229 g / cm^3
# Si number density = 15.307129 Si / 1000 Ang^3
#
#
#
# Elastic Constant Matrix: (Units=GPa)
#
#
# Indices 1 2 3 4 5 6 
#
# 1 89.4498 36.2069 48.6598 0.0000 0.0000 -4.9911
# 2 36.2069 89.4498 48.6598 0.0000 0.0000 4.9911
# 3 48.6598 48.6598 62.0878 0.0000 0.0000 0.0000
# 4 0.0000 0.0000 0.0000 17.6433 0.0000 0.0000
# 5 0.0000 0.0000 0.0000 0.0000 17.6433 0.0000
# 6 -4.9911 4.9911 0.0000 0.0000 0.0000 17.1849
#
#
#
# Elastic Compliance Matrix: (Units=1/GPa)
#
#
# Indices 1 2 3 4 5 6 
#
# 1 0.020056 0.000193 -0.015870 0.000000 0.000000 0.005769
# 2 0.000193 0.020056 -0.015870 0.000000 0.000000 -0.005769
# 3 -0.015870 -0.015870 0.040981 0.000000 0.000000 0.000000
# 4 0.000000 0.000000 0.000000 0.056679 0.000000 0.000000
# 5 0.000000 0.000000 0.000000 0.000000 0.056679 0.000000
# 6 0.005769 -0.005769 0.000000 0.000000 0.000000 0.061542
#
#
# Mechanical properties :
#
#
# Convention : Reuss Voigt Hill
#
# Bulk Modulus (GPa) = 55.55399 56.44894 56.00147
# Shear Modulus (GPa) = 15.38050 17.65834 16.51942
#
# Velocity S-wave (km/s) = 3.17329 3.40016 3.28868
# Velocity P-wave (km/s) = 7.05677 7.23688 7.14739
#
# Compressibility (1/GPa) = 0.01800051
#
# Stress axis : x y z
#
# Youngs Moduli (GPa) = 49.85958 49.85958 24.40135
#
# Poissons Ratio (x) = -0.00962 0.38724
# Poissons Ratio (y) = -0.00962 0.38724
# Poissons Ratio (z) = 0.79126 0.79126
#
# Static dielectric constant tensor:
#      x y z
#    x 1.512490 0.000000 0.000000 
#    y 0.000000 1.512490 0.000000 
#    z 0.000000 0.000000 1.550330 
# 
# From -- ./inp_files/5420.got.cif
#   From: 2010.05.17/outbox.cif.g08.bks.cpg/sg88_3_cif.got.tgz:5420.got - 2010.06.03 19:11:41.
