data_PCOD9546652
_publ_section_title
;
Structure prediction by ZEFSAII (Michael W. Deem and Ramdas Pophale) SiO2 
 PCOD9546652
Probable space group: I 41/A
;
_chemical_formula_sum "Si O2"
_cell_formula_units_Z 48
_cell_length_a 8.637457
_cell_length_b 8.637457
_cell_length_c 23.712612
_cell_angle_alpha 90.000000
_cell_angle_beta 90.000000
_cell_angle_gamma 90.000000
_cell_volume 1769.095150
_symmetry_space_group_name_H-M "I 41/A"
_symmetry_group_IT_number 88
_space_group.IT_coordinate_system_code '2'
_symmetry_cell_setting 'tetragonal'
loop_
_space_group_symop_operation_xyz
x,y,z
3/4-y,1/4+x,1/4+z
-x,1/2-y,z
1/4+y,1/4-x,1/4+z
-x,-y,-z
1/4+y,3/4-x,3/4-z
x,1/2+y,-z
3/4-y,3/4+x,3/4-z
1/2+x,1/2+y,1/2+z
1/4-y,3/4+x,3/4+z
1/2-x,-y,1/2+z
3/4+y,3/4-x,3/4+z
1/2-x,1/2-y,1/2-z
3/4+y,1/4-x,1/4-z
1/2+x,y,1/2-z
1/4-y,1/4+x,1/4-z
loop_
_atom_site_type_symbol
_atom_site_label
_atom_site_fract_x
_atom_site_fract_y
_atom_site_fract_z
Si Si1 0.298821 0.870049 0.531999
Si Si2 0.925870 0.581963 0.116765
Si Si3 0.582767 0.411919 0.807567
O O1 0.255498 0.747941 0.580734
O O2 0.288777 0.773763 0.475023
O O3 0.436905 0.971519 0.560781
O O4 0.166753 0.001618 0.526757
O O5 0.741017 0.617130 0.116820
O O6 0.000000 0.750000 0.116600
O O7 0.500000 0.250000 0.807498
#
# Coordination Sequence:
#
# PCOD9546652 Si02
#       3
#    16  16  16
#     4  10  24  47  73 107 156 186 257 298 374 439
#     4  10  25  45  70 110 151 194 245 306 375 435
#     4  10  23  47  80 106 150 195 251 302 370 446
#
# _framework density 27.132514
#
# number of rings (size 3 to 8) (size 9 to 14) (size 15 to 20)
#    2.000    0.000    0.000    2.000    0.000    7.333 
#    6.000    0.000    0.000    0.000    0.000    0.000 
#    0.000    0.000    0.000    0.000    0.000    0.000 
#
# Total GULP energy -133874.315533 kJ/mol
# GULP energy per Si atom -5578.096481 kJ/mol
# Density = 2.707076 g / cm^3
# Si number density = 27.132514 Si / 1000 Ang^3
#
#
#
# Elastic Constant Matrix: (Units=GPa)
#
#
# Indices 1 2 3 4 5 6 
#
# 1 62.3857 50.6327 3.7670 0.0000 0.0000 -8.0501
# 2 50.6327 62.3857 3.7670 0.0000 0.0000 8.0501
# 3 3.7670 3.7670 47.5684 0.0000 0.0000 0.0000
# 4 0.0000 0.0000 0.0000 29.2449 0.0000 0.0000
# 5 0.0000 0.0000 0.0000 0.0000 29.2449 0.0000
# 6 -8.0501 8.0501 0.0000 0.0000 0.0000 47.4291
#
#
#
# Elastic Compliance Matrix: (Units=1/GPa)
#
#
# Indices 1 2 3 4 5 6 
#
# 1 0.059878 -0.050983 -0.000704 0.000000 0.000000 0.018816
# 2 -0.050983 0.059878 -0.000704 0.000000 0.000000 -0.018816
# 3 -0.000704 -0.000704 0.021134 0.000000 0.000000 0.000000
# 4 0.000000 0.000000 0.000000 0.034194 0.000000 0.000000
# 5 0.000000 0.000000 0.000000 0.000000 0.034194 0.000000
# 6 0.018816 -0.018816 0.000000 0.000000 0.000000 0.027471
#
#
# Mechanical properties :
#
#
# Convention : Reuss Voigt Hill
#
# Bulk Modulus (GPa) = 27.69589 32.07479 29.88534
# Shear Modulus (GPa) = 14.14149 28.79531 21.46840
#
# Velocity S-wave (km/s) = 2.28546 3.26127 2.81596
# Velocity P-wave (km/s) = 4.14659 5.10180 4.64880
#
# Compressibility (1/GPa) = 0.03610644
#
# Stress axis : x y z
#
# Youngs Moduli (GPa) = 16.70054 16.70054 47.31731
#
# Poissons Ratio (x) = 0.85145 0.03333
# Poissons Ratio (y) = 0.85145 0.03333
# Poissons Ratio (z) = 0.01176 0.01176
#
# Static dielectric constant tensor:
#      x y z
#    x 2.134660 0.000000 0.000000 
#    y 0.000000 2.134660 0.000000 
#    z 0.000000 0.000000 2.145330 
# 
# From -- ./inp_files/6121.got.cif
#   From: 2010.05.17/outbox.cif.g08.bks.cpg/sg88_4_cif.got.tgz:6121.got - 2010.06.03 19:11:41.
