data_PCOD9546836
_publ_section_title
;
Structure prediction by ZEFSAII (Michael W. Deem and Ramdas Pophale) SiO2 
 PCOD9546836
Probable space group: I 41/A
;
_chemical_formula_sum "Si O2"
_cell_formula_units_Z 72
_cell_length_a 12.468019
_cell_length_b 12.468019
_cell_length_c 18.200852
_cell_angle_alpha 90.000000
_cell_angle_beta 90.000000
_cell_angle_gamma 90.000000
_cell_volume 2829.349704
_symmetry_space_group_name_H-M "I 41/A"
_symmetry_group_IT_number 88
_space_group.IT_coordinate_system_code '2'
_symmetry_cell_setting 'tetragonal'
loop_
_space_group_symop_operation_xyz
x,y,z
3/4-y,1/4+x,1/4+z
-x,1/2-y,z
1/4+y,1/4-x,1/4+z
-x,-y,-z
1/4+y,3/4-x,3/4-z
x,1/2+y,-z
3/4-y,3/4+x,3/4-z
1/2+x,1/2+y,1/2+z
1/4-y,3/4+x,3/4+z
1/2-x,-y,1/2+z
3/4+y,3/4-x,3/4+z
1/2-x,1/2-y,1/2-z
3/4+y,1/4-x,1/4-z
1/2+x,y,1/2-z
1/4-y,1/4+x,1/4-z
loop_
_atom_site_type_symbol
_atom_site_label
_atom_site_fract_x
_atom_site_fract_y
_atom_site_fract_z
Si Si1 0.000000 0.250000 0.625000
Si Si2 0.858867 0.357774 0.410437
Si Si3 0.265157 0.211816 0.855555
Si Si4 0.711030 0.213755 0.472453
Si Si5 0.500000 0.250000 0.375000
Si Si6 0.729295 0.972198 0.465841
O O1 0.008000 0.366144 0.586400
O O2 0.968900 0.418382 0.429582
O O3 0.822010 0.238040 0.427553
O O4 0.768370 0.416589 0.460077
O O5 0.838253 0.385380 0.326514
O O6 0.269836 0.087786 0.833219
O O7 0.248024 0.232693 0.942626
O O8 0.606569 0.257800 0.427554
O O9 0.686649 0.089179 0.477075
#
# Coordination Sequence:
#
# PCOD9546836 Si02
#       6
#     4  16  16  16   4  16
#     4  12  20  44  76 106 136 176 236 292 362 424
#     4  12  24  45  71 105 145 182 237 296 355 427
#     4  12  25  44  74 108 140 191 230 293 367 423
#     4  12  26  46  69 103 142 191 242 292 356 420
#     4  12  28  44  72  94 140 204 246 284 344 440
#     4  12  24  45  71 105 145 182 237 296 355 427
#
# _framework density 25.447544000000001
#
# number of rings (size 3 to 8) (size 9 to 14) (size 15 to 20)
#    0.000    0.000    8.889    0.667    0.000    4.444 
#    0.000    4.444    0.000    0.000    0.000    0.000 
#    0.000    0.000    0.000    0.000    0.000    0.000 
#
# Total GULP energy -200814.976689 kJ/mol
# GULP energy per Si atom -5578.193797 kJ/mol
# Density = 2.538962 g / cm^3
# Si number density = 25.447544 Si / 1000 Ang^3
#
#
#
# Elastic Constant Matrix: (Units=GPa)
#
#
# Indices 1 2 3 4 5 6 
#
# 1 61.6597 16.5921 15.9827 0.0000 0.0000 -0.7824
# 2 16.5921 61.6597 15.9827 0.0000 0.0000 0.7824
# 3 15.9827 15.9827 82.8419 0.0000 0.0000 0.0000
# 4 0.0000 0.0000 0.0000 23.3970 0.0000 0.0000
# 5 0.0000 0.0000 0.0000 0.0000 23.3970 0.0000
# 6 -0.7824 0.7824 0.0000 0.0000 0.0000 38.9922
#
#
#
# Elastic Compliance Matrix: (Units=1/GPa)
#
#
# Indices 1 2 3 4 5 6 
#
# 1 0.018038 -0.004166 -0.002676 0.000000 0.000000 0.000446
# 2 -0.004166 0.018038 -0.002676 0.000000 0.000000 -0.000446
# 3 -0.002676 -0.002676 0.013104 0.000000 0.000000 0.000000
# 4 0.000000 0.000000 0.000000 0.042741 0.000000 0.000000
# 5 0.000000 0.000000 0.000000 0.000000 0.042741 0.000000
# 6 0.000446 -0.000446 0.000000 0.000000 0.000000 0.025664
#
#
# Mechanical properties :
#
#
# Convention : Reuss Voigt Hill
#
# Bulk Modulus (GPa) = 33.17486 33.69737 33.43612
# Shear Modulus (GPa) = 26.39759 27.66416 27.03087
#
# Velocity S-wave (km/s) = 3.22426 3.30071 3.26271
# Velocity P-wave (km/s) = 5.18903 5.27227 5.23082
#
# Compressibility (1/GPa) = 0.03014330
#
# Stress axis : x y z
#
# Youngs Moduli (GPa) = 55.43714 55.43714 76.31310
#
# Poissons Ratio (x) = 0.23094 0.20425
# Poissons Ratio (y) = 0.23094 0.20425
# Poissons Ratio (z) = 0.14837 0.14837
#
# Static dielectric constant tensor:
#      x y z
#    x 2.074320 0.000000 0.000000 
#    y 0.000000 2.074320 0.000000 
#    z 0.000000 0.000000 1.998720 
# 
# From -- ./inp_files/3857.got.cif
#   From: 2010.05.17/outbox.cif.g08.bks.cpg/sg88_2_cif.got.tgz:3857.got - 2010.06.03 19:11:41.
