data_PCOD9546766
_publ_section_title
;
Structure prediction by ZEFSAII (Michael W. Deem and Ramdas Pophale) SiO2 
 PCOD9546766
Probable space group: I 41/A
;
_chemical_formula_sum "Si O2"
_cell_formula_units_Z 64
_cell_length_a 20.174887
_cell_length_b 20.174887
_cell_length_c 6.549676
_cell_angle_alpha 90.000000
_cell_angle_beta 90.000000
_cell_angle_gamma 90.000000
_cell_volume 2665.888852
_symmetry_space_group_name_H-M "I 41/A"
_symmetry_group_IT_number 88
_space_group.IT_coordinate_system_code '2'
_symmetry_cell_setting 'tetragonal'
loop_
_space_group_symop_operation_xyz
x,y,z
3/4-y,1/4+x,1/4+z
-x,1/2-y,z
1/4+y,1/4-x,1/4+z
-x,-y,-z
1/4+y,3/4-x,3/4-z
x,1/2+y,-z
3/4-y,3/4+x,3/4-z
1/2+x,1/2+y,1/2+z
1/4-y,3/4+x,3/4+z
1/2-x,-y,1/2+z
3/4+y,3/4-x,3/4+z
1/2-x,1/2-y,1/2-z
3/4+y,1/4-x,1/4-z
1/2+x,y,1/2-z
1/4-y,1/4+x,1/4-z
loop_
_atom_site_type_symbol
_atom_site_label
_atom_site_fract_x
_atom_site_fract_y
_atom_site_fract_z
Si Si1 0.656651 0.978106 0.551115
Si Si2 0.178409 0.805932 0.570606
Si Si3 0.905069 0.215753 0.061354
Si Si4 0.136745 0.661304 0.466161
O O1 0.708263 0.941604 0.697988
O O2 0.632827 0.933659 0.361303
O O3 0.591842 0.000890 0.677868
O O4 0.161378 0.791811 0.809231
O O5 0.167856 0.735282 0.457156
O O6 0.129409 0.861914 0.477922
O O7 0.928251 0.290541 0.049972
O O8 0.914559 0.180635 0.848204
#
# Coordination Sequence:
#
# PCOD9546766 Si02
#       4
#    16  16  16  16
#     4  12  25  46  66  94 135 184 232 272 322 396
#     4  11  23  42  68 100 132 170 221 277 337 398
#     4   9  18  36  62  94 132 166 206 270 335 386
#     4  11  23  42  68 100 132 170 221 277 337 398
#
# _framework density 24.007000999999999
#
# number of rings (size 3 to 8) (size 9 to 14) (size 15 to 20)
#    0.000    1.250    2.500    3.750    0.000    2.500 
#    0.000    2.500    0.000    0.000    0.000    0.000 
#    0.000    0.000    0.000    0.000    0.000    0.000 
#
# Total GULP energy -178786.880355 kJ/mol
# GULP energy per Si atom -5587.090011 kJ/mol
# Density = 2.395236 g / cm^3
# Si number density = 24.007001 Si / 1000 Ang^3
#
#
#
# Elastic Constant Matrix: (Units=GPa)
#
#
# Indices 1 2 3 4 5 6 
#
# 1 50.3740 18.8754 29.2916 0.0000 0.0000 7.8505
# 2 18.8754 50.3740 29.2916 0.0000 0.0000 -7.8505
# 3 29.2916 29.2916 52.4078 0.0000 0.0000 0.0000
# 4 0.0000 0.0000 0.0000 34.0074 0.0000 0.0000
# 5 0.0000 0.0000 0.0000 0.0000 34.0074 0.0000
# 6 7.8505 -7.8505 0.0000 0.0000 0.0000 36.2823
#
#
#
# Elastic Compliance Matrix: (Units=1/GPa)
#
#
# Indices 1 2 3 4 5 6 
#
# 1 0.031489 -0.004096 -0.015310 0.000000 0.000000 -0.007700
# 2 -0.004096 0.031489 -0.015310 0.000000 0.000000 0.007700
# 3 -0.015310 -0.015310 0.036195 0.000000 0.000000 0.000000
# 4 0.000000 0.000000 0.000000 0.029405 0.000000 0.000000
# 5 0.000000 0.000000 0.000000 0.000000 0.029405 0.000000
# 6 -0.007700 0.007700 0.000000 0.000000 0.000000 0.030894
#
#
# Mechanical properties :
#
#
# Convention : Reuss Voigt Hill
#
# Bulk Modulus (GPa) = 33.62495 34.23032 33.92764
# Shear Modulus (GPa) = 18.64112 25.90591 22.27351
#
# Velocity S-wave (km/s) = 2.78957 3.28853 3.04927
# Velocity P-wave (km/s) = 4.94089 5.35804 5.15369
#
# Compressibility (1/GPa) = 0.02973982
#
# Stress axis : x y z
#
# Youngs Moduli (GPa) = 31.75715 31.75715 27.62788
#
# Poissons Ratio (x) = 0.13009 0.42299
# Poissons Ratio (y) = 0.13009 0.42299
# Poissons Ratio (z) = 0.48621 0.48621
#
# Static dielectric constant tensor:
#      x y z
#    x 1.934660 0.000000 0.000000 
#    y 0.000000 1.934660 0.000000 
#    z 0.000000 0.000000 1.926160 
# 
# From -- ./inp_files/536.got.cif
#   From: 2010.05.17/outbox.cif.g08.bks.cpg/sg88_1_cif.got.tgz:536.got - 2010.06.03 19:11:41.
