data_PCOD9546720
_publ_section_title
;
Structure prediction by ZEFSAII (Michael W. Deem and Ramdas Pophale) SiO2 
 PCOD9546720
Probable space group: I 41/A
;
_chemical_formula_sum "Si O2"
_cell_formula_units_Z 108
_cell_length_a 14.430590
_cell_length_b 14.430590
_cell_length_c 28.073971
_cell_angle_alpha 90.000000
_cell_angle_beta 90.000000
_cell_angle_gamma 90.000000
_cell_volume 5846.177841
_symmetry_space_group_name_H-M "I 41/A"
_symmetry_group_IT_number 88
_space_group.IT_coordinate_system_code '2'
_symmetry_cell_setting 'tetragonal'
loop_
_space_group_symop_operation_xyz
x,y,z
3/4-y,1/4+x,1/4+z
-x,1/2-y,z
1/4+y,1/4-x,1/4+z
-x,-y,-z
1/4+y,3/4-x,3/4-z
x,1/2+y,-z
3/4-y,3/4+x,3/4-z
1/2+x,1/2+y,1/2+z
1/4-y,3/4+x,3/4+z
1/2-x,-y,1/2+z
3/4+y,3/4-x,3/4+z
1/2-x,1/2-y,1/2-z
3/4+y,1/4-x,1/4-z
1/2+x,y,1/2-z
1/4-y,1/4+x,1/4-z
loop_
_atom_site_type_symbol
_atom_site_label
_atom_site_fract_x
_atom_site_fract_y
_atom_site_fract_z
Si Si1 0.575976 0.617167 0.837485
Si Si2 0.301581 0.703208 0.603830
Si Si3 0.000000 0.250000 0.830081
Si Si4 0.316735 0.163481 0.043677
Si Si5 0.246228 0.996975 0.865548
Si Si6 0.221439 0.135590 0.944022
Si Si7 0.500000 0.750000 0.625000
Si Si8 0.301462 0.232596 0.201093
O O1 0.550684 0.675084 0.885398
O O2 0.661795 0.547295 0.843214
O O3 0.487725 0.559767 0.821277
O O4 0.610861 0.698358 0.802473
O O5 0.239710 0.747512 0.562942
O O6 0.297731 0.592493 0.607669
O O7 0.405680 0.737851 0.596144
O O8 0.260771 0.741208 0.654569
O O9 0.056705 0.173326 0.800540
O O10 0.287194 0.078483 0.078264
O O11 0.283004 0.139085 0.991123
O O12 0.270018 0.078242 0.902135
O O13 0.123191 0.083298 0.950333
O O14 0.250000 0.250000 0.250000
#
# Coordination Sequence:
#
# PCOD9546720 Si02
#       8
#    16  16   8  16  16  16   4  16
#     4  11  21  42  71  90 130 188 215 269 347 409
#     4  11  21  37  58  90 133 176 200 261 341 405
#     4  12  20  48  69  88 131 193 220 270 351 402
#     4  12  24  41  69  96 134 177 227 274 338 407
#     4  11  22  43  64  95 133 171 221 285 332 390
#     4  12  23  41  64  99 126 174 231 279 331 408
#     4  12  20  28  54  84 128 164 192 236 330 404
#     4  11  21  38  62  94 132 169 221 265 335 424
#
# _framework density 18.473607000000001
#
# number of rings (size 3 to 8) (size 9 to 14) (size 15 to 20)
#    0.000    0.593    8.889    1.778    0.000    3.556 
#    0.000    2.222    0.000    0.000    0.000    0.000 
#    0.000    0.000    0.000    0.000    0.000    0.000 
#
# Total GULP energy -301587.217886 kJ/mol
# GULP energy per Si atom -5584.948479 kJ/mol
# Density = 1.843156 g / cm^3
# Si number density = 18.473607 Si / 1000 Ang^3
#
#
#
# Elastic Constant Matrix: (Units=GPa)
#
#
# Indices 1 2 3 4 5 6 
#
# 1 109.0551 33.4563 31.6882 0.0000 0.0000 15.3682
# 2 33.4563 109.0551 31.6882 0.0000 0.0000 -15.3682
# 3 31.6882 31.6882 79.5559 0.0000 0.0000 0.0000
# 4 0.0000 0.0000 0.0000 23.8562 0.0000 0.0000
# 5 0.0000 0.0000 0.0000 0.0000 23.8562 0.0000
# 6 15.3682 -15.3682 0.0000 0.0000 0.0000 31.2290
#
#
#
# Elastic Compliance Matrix: (Units=1/GPa)
#
#
# Indices 1 2 3 4 5 6 
#
# 1 0.012532 -0.004004 -0.003397 0.000000 0.000000 -0.008138
# 2 -0.004004 0.012532 -0.003397 0.000000 0.000000 0.008138
# 3 -0.003397 -0.003397 0.015276 0.000000 0.000000 0.000000
# 4 0.000000 0.000000 0.000000 0.041918 0.000000 0.000000
# 5 0.000000 0.000000 0.000000 0.000000 0.041918 0.000000
# 6 -0.008138 0.008138 0.000000 0.000000 0.000000 0.040031
#
#
# Mechanical properties :
#
#
# Convention : Reuss Voigt Hill
#
# Bulk Modulus (GPa) = 53.35003 54.59240 53.97122
# Shear Modulus (GPa) = 26.03502 29.17719 27.60611
#
# Velocity S-wave (km/s) = 3.75815 3.97848 3.86988
# Velocity P-wave (km/s) = 6.91182 7.12180 7.01760
#
# Compressibility (1/GPa) = 0.01874413
#
# Stress axis : x y z
#
# Youngs Moduli (GPa) = 79.79649 79.79649 65.46379
#
# Poissons Ratio (x) = 0.31954 0.22236
# Poissons Ratio (y) = 0.31954 0.22236
# Poissons Ratio (z) = 0.27104 0.27104
#
# Static dielectric constant tensor:
#      x y z
#    x 1.651310 0.000000 0.000000 
#    y 0.000000 1.651310 0.000000 
#    z 0.000000 0.000000 1.636670 
# 
# From -- ./inp_files/5906.got.cif
#   From: 2010.05.17/outbox.cif.g08.bks.cpg/sg88_3_cif.got.tgz:5906.got - 2010.06.03 19:11:41.
