data_PCOD9546559
_publ_section_title
;
Structure prediction by ZEFSAII (Michael W. Deem and Ramdas Pophale) SiO2 
 PCOD9546559
Probable space group: I 41/A
;
_chemical_formula_sum "Si O2"
_cell_formula_units_Z 52
_cell_length_a 13.716971
_cell_length_b 13.716971
_cell_length_c 14.936449
_cell_angle_alpha 90.000000
_cell_angle_beta 90.000000
_cell_angle_gamma 90.000000
_cell_volume 2810.371944
_symmetry_space_group_name_H-M "I 41/A"
_symmetry_group_IT_number 88
_space_group.IT_coordinate_system_code '2'
_symmetry_cell_setting 'tetragonal'
loop_
_space_group_symop_operation_xyz
x,y,z
3/4-y,1/4+x,1/4+z
-x,1/2-y,z
1/4+y,1/4-x,1/4+z
-x,-y,-z
1/4+y,3/4-x,3/4-z
x,1/2+y,-z
3/4-y,3/4+x,3/4-z
1/2+x,1/2+y,1/2+z
1/4-y,3/4+x,3/4+z
1/2-x,-y,1/2+z
3/4+y,3/4-x,3/4+z
1/2-x,1/2-y,1/2-z
3/4+y,1/4-x,1/4-z
1/2+x,y,1/2-z
1/4-y,1/4+x,1/4-z
loop_
_atom_site_type_symbol
_atom_site_label
_atom_site_fract_x
_atom_site_fract_y
_atom_site_fract_z
Si Si1 0.675525 0.839880 0.239375
Si Si2 0.197046 0.438898 0.929071
Si Si3 0.131575 0.843546 0.887543
Si Si4 0.500000 0.750000 0.125000
O O1 0.750000 0.750000 0.250000
O O2 0.664960 0.882112 0.339673
O O3 0.579778 0.800355 0.189333
O O4 0.706856 0.936255 0.182951
O O5 0.142249 0.541881 0.929785
O O6 0.166185 0.376317 0.014436
O O7 0.130569 0.727467 0.879011
#
# Coordination Sequence:
#
# PCOD9546559 Si02
#       4
#    16  16  16   4
#     4  11  23  41  64  94 129 164 215 264 325 379
#     4  10  23  40  63  94 128 164 210 271 316 379
#     4  10  22  40  64  91 126 166 214 253 322 385
#     4  12  24  40  68  96 126 176 220 264 328 396
#
# _framework density 18.502889
#
# number of rings (size 3 to 8) (size 9 to 14) (size 15 to 20)
#    0.000    1.538    3.077    0.923    0.000   12.308 
#    0.000    0.000    0.000    0.000    0.000    0.000 
#    0.000    0.000    0.000    0.000    0.000    0.000 
#
# Total GULP energy -145054.665070 kJ/mol
# GULP energy per Si atom -5579.025580 kJ/mol
# Density = 1.846078 g / cm^3
# Si number density = 18.502889 Si / 1000 Ang^3
#
#
#
# Elastic Constant Matrix: (Units=GPa)
#
#
# Indices 1 2 3 4 5 6 
#
# 1 114.6835 91.7476 31.4014 0.0000 0.0000 9.4735
# 2 91.7476 114.6835 31.4014 0.0000 0.0000 -9.4735
# 3 31.4014 31.4014 80.8770 0.0000 0.0000 0.0000
# 4 0.0000 0.0000 0.0000 27.0635 0.0000 0.0000
# 5 0.0000 0.0000 0.0000 0.0000 27.0635 0.0000
# 6 9.4735 -9.4735 0.0000 0.0000 0.0000 38.0786
#
#
#
# Elastic Compliance Matrix: (Units=1/GPa)
#
#
# Indices 1 2 3 4 5 6 
#
# 1 0.030186 -0.024693 -0.002133 0.000000 0.000000 -0.013653
# 2 -0.024693 0.030186 -0.002133 0.000000 0.000000 0.013653
# 3 -0.002133 -0.002133 0.014021 0.000000 0.000000 0.000000
# 4 0.000000 0.000000 0.000000 0.036950 0.000000 0.000000
# 5 0.000000 0.000000 0.000000 0.000000 0.036950 0.000000
# 6 -0.013653 0.013653 0.000000 0.000000 0.000000 0.033055
#
#
# Mechanical properties :
#
#
# Convention : Reuss Voigt Hill
#
# Bulk Modulus (GPa) = 60.69528 68.81609 64.75569
# Shear Modulus (GPa) = 20.42857 28.82070 24.62464
#
# Velocity S-wave (km/s) = 3.32637 3.95097 3.65204
# Velocity P-wave (km/s) = 6.90125 7.62144 7.27027
#
# Compressibility (1/GPa) = 0.01647574
#
# Stress axis : x y z
#
# Youngs Moduli (GPa) = 33.12828 33.12828 71.32369
#
# Poissons Ratio (x) = 0.81802 0.15212
# Poissons Ratio (y) = 0.81802 0.15212
# Poissons Ratio (z) = 0.07065 0.07065
#
# Static dielectric constant tensor:
#      x y z
#    x 1.631900 0.000000 0.000000 
#    y 0.000000 1.631900 0.000000 
#    z 0.000000 0.000000 1.626750 
# 
# From -- ./inp_files/2962.got.cif
#   From: 2010.05.17/outbox.cif.g08.bks.cpg/sg88_2_cif.got.tgz:2962.got - 2010.06.03 19:11:41.
