data_PCOD9546356
_publ_section_title
;
Structure prediction by ZEFSAII (Michael W. Deem and Ramdas Pophale) SiO2 
 PCOD9546356
Probable space group: I 41/A
;
_chemical_formula_sum "Si O2"
_cell_formula_units_Z 96
_cell_length_a 20.493791
_cell_length_b 20.493791
_cell_length_c 11.398857
_cell_angle_alpha 90.000000
_cell_angle_beta 90.000000
_cell_angle_gamma 90.000000
_cell_volume 4787.468298
_symmetry_space_group_name_H-M "I 41/A"
_symmetry_group_IT_number 88
_space_group.IT_coordinate_system_code '2'
_symmetry_cell_setting 'tetragonal'
loop_
_space_group_symop_operation_xyz
x,y,z
3/4-y,1/4+x,1/4+z
-x,1/2-y,z
1/4+y,1/4-x,1/4+z
-x,-y,-z
1/4+y,3/4-x,3/4-z
x,1/2+y,-z
3/4-y,3/4+x,3/4-z
1/2+x,1/2+y,1/2+z
1/4-y,3/4+x,3/4+z
1/2-x,-y,1/2+z
3/4+y,3/4-x,3/4+z
1/2-x,1/2-y,1/2-z
3/4+y,1/4-x,1/4-z
1/2+x,y,1/2-z
1/4-y,1/4+x,1/4-z
loop_
_atom_site_type_symbol
_atom_site_label
_atom_site_fract_x
_atom_site_fract_y
_atom_site_fract_z
Si Si1 0.133113 0.844430 0.633310
Si Si2 0.605939 0.775724 0.629982
Si Si3 0.581261 0.807154 0.088226
Si Si4 0.784415 0.035674 0.415604
Si Si5 0.990924 0.059226 0.339858
Si Si6 0.799272 0.160509 0.697732
O O1 0.137353 0.810075 0.757527
O O2 0.110494 0.791767 0.537924
O O3 0.194604 0.888296 0.595488
O O4 0.070801 0.893612 0.632577
O O5 0.572241 0.705319 0.657116
O O6 0.661251 0.766199 0.531932
O O7 0.580881 0.742239 0.165583
O O8 0.630316 0.857788 0.146224
O O9 0.735662 0.023903 0.527262
O O10 0.847254 0.994585 0.456703
O O11 0.049770 0.059340 0.432874
O O12 0.959739 0.987539 0.357522
#
# Coordination Sequence:
#
# PCOD9546356 Si02
#       6
#    16  16  16  16  16  16
#     4  10  20  38  57  85 123 154 193 251 309 353
#     4   9  19  33  58  86 122 160 195 243 307 372
#     4  11  22  34  60  93 121 151 198 249 300 361
#     4  11  24  42  64  84 115 160 208 254 305 359
#     4   9  19  35  57  84 118 159 197 240 302 361
#     4  10  20  37  60  82 116 156 200 248 297 357
#
# _framework density 20.052353
#
# number of rings (size 3 to 8) (size 9 to 14) (size 15 to 20)
#    0.000    2.000    3.333    0.000    2.333    2.667 
#    0.000    0.833    0.000    0.000    0.000    0.000 
#    0.000    0.000    0.000    0.000    0.000    0.000 
#
# Total GULP energy -267208.744475 kJ/mol
# GULP energy per Si atom -5566.848843 kJ/mol
# Density = 2.000671 g / cm^3
# Si number density = 20.052353 Si / 1000 Ang^3
#
#
#
# Elastic Constant Matrix: (Units=GPa)
#
#
# Indices 1 2 3 4 5 6 
#
# 1 36.3374 9.3621 36.1706 0.0000 0.0000 5.7364
# 2 9.3621 36.3374 36.1706 0.0000 0.0000 -5.7364
# 3 36.1706 36.1706 122.5979 0.0000 0.0000 0.0000
# 4 0.0000 0.0000 0.0000 34.3588 0.0000 0.0000
# 5 0.0000 0.0000 0.0000 0.0000 34.3588 0.0000
# 6 5.7364 -5.7364 0.0000 0.0000 0.0000 11.9026
#
#
#
# Elastic Compliance Matrix: (Units=1/GPa)
#
#
# Indices 1 2 3 4 5 6 
#
# 1 0.043843 -0.002786 -0.012113 0.000000 0.000000 -0.022472
# 2 -0.002786 0.043843 -0.012113 0.000000 0.000000 0.022472
# 3 -0.012113 -0.012113 0.015304 0.000000 0.000000 0.000000
# 4 0.000000 0.000000 0.000000 0.029105 0.000000 0.000000
# 5 0.000000 0.000000 0.000000 0.000000 0.029105 0.000000
# 6 -0.022472 0.022472 0.000000 0.000000 0.000000 0.105676
#
#
# Mechanical properties :
#
#
# Convention : Reuss Voigt Hill
#
# Bulk Modulus (GPa) = 20.42252 39.85326 30.13789
# Shear Modulus (GPa) = 14.82703 23.69533 19.26118
#
# Velocity S-wave (km/s) = 2.72217 3.44128 3.10263
# Velocity P-wave (km/s) = 4.48185 5.97558 5.28179
#
# Compressibility (1/GPa) = 0.04896555
#
# Stress axis : x y z
#
# Youngs Moduli (GPa) = 22.80873 22.80873 65.34057
#
# Poissons Ratio (x) = 0.06354 0.79149
# Poissons Ratio (y) = 0.06354 0.79149
# Poissons Ratio (z) = 0.27629 0.27629
#
# Static dielectric constant tensor:
#      x y z
#    x 1.710650 0.000000 0.000000 
#    y 0.000000 1.710650 0.000000 
#    z 0.000000 0.000000 1.753320 
# 
# From -- ./inp_files/2687.got.cif
#   From: 2010.05.17/outbox.cif.g08.bks.cpg/sg88_2_cif.got.tgz:2687.got - 2010.06.03 19:11:41.
