data_PCOD9546211
_publ_section_title
;
Structure prediction by ZEFSAII (Michael W. Deem and Ramdas Pophale) SiO2 
 PCOD9546211
Probable space group: I 41/A
;
_chemical_formula_sum "Si O2"
_cell_formula_units_Z 96
_cell_length_a 13.998880
_cell_length_b 13.998880
_cell_length_c 19.212221
_cell_angle_alpha 90.000000
_cell_angle_beta 90.000000
_cell_angle_gamma 90.000000
_cell_volume 3764.992845
_symmetry_space_group_name_H-M "I 41/A"
_symmetry_group_IT_number 88
_space_group.IT_coordinate_system_code '2'
_symmetry_cell_setting 'tetragonal'
loop_
_space_group_symop_operation_xyz
x,y,z
3/4-y,1/4+x,1/4+z
-x,1/2-y,z
1/4+y,1/4-x,1/4+z
-x,-y,-z
1/4+y,3/4-x,3/4-z
x,1/2+y,-z
3/4-y,3/4+x,3/4-z
1/2+x,1/2+y,1/2+z
1/4-y,3/4+x,3/4+z
1/2-x,-y,1/2+z
3/4+y,3/4-x,3/4+z
1/2-x,1/2-y,1/2-z
3/4+y,1/4-x,1/4-z
1/2+x,y,1/2-z
1/4-y,1/4+x,1/4-z
loop_
_atom_site_type_symbol
_atom_site_label
_atom_site_fract_x
_atom_site_fract_y
_atom_site_fract_z
Si Si1 0.816150 0.361350 0.822773
Si Si2 0.105161 0.342554 0.869080
Si Si3 0.482052 0.359269 0.767688
Si Si4 0.892677 0.744615 0.766404
Si Si5 0.244916 0.395927 0.298293
Si Si6 0.147107 0.970595 0.309433
O O1 0.859566 0.263923 0.851501
O O2 0.832042 0.444589 0.879059
O O3 0.703443 0.370631 0.811887
O O4 0.872310 0.378268 0.750341
O O5 0.036544 0.370359 0.806596
O O6 0.199836 0.404060 0.880898
O O7 0.046872 0.348818 0.940810
O O8 0.500000 0.250000 0.790870
O O9 0.536446 0.439827 0.810125
O O10 0.841363 0.643670 0.751476
O O11 0.817694 0.807568 0.809273
O O12 0.000000 0.750000 0.794342
O O13 0.307025 0.473850 0.256424
#
# Coordination Sequence:
#
# PCOD9546211 Si02
#       6
#    16  16  16  16  16  16
#     4  11  22  41  65  89 124 173 205 260 326 372
#     4  10  20  40  62  87 127 165 206 257 321 383
#     4  10  22  42  64  86 123 170 211 259 320 383
#     4  10  17  35  64  91 123 167 208 249 320 379
#     4  10  21  35  63  92 122 164 210 262 306 382
#     4  11  25  38  62  98 125 160 220 265 307 383
#
# _framework density 25.498058
#
# number of rings (size 3 to 8) (size 9 to 14) (size 15 to 20)
#    0.000    1.667    3.333    1.500    2.333    2.667 
#    3.000    0.000    0.000    0.000    0.000    0.000 
#    0.000    0.000    0.000    0.000    0.000    0.000 
#
# Total GULP energy -268448.203185 kJ/mol
# GULP energy per Si atom -5592.670900 kJ/mol
# Density = 2.544002 g / cm^3
# Si number density = 25.498058 Si / 1000 Ang^3
#
#
#
# Elastic Constant Matrix: (Units=GPa)
#
#
# Indices 1 2 3 4 5 6 
#
# 1 79.8588 18.6971 4.1899 0.0000 0.0000 -6.3301
# 2 18.6971 79.8588 4.1899 0.0000 0.0000 6.3301
# 3 4.1899 4.1899 37.4233 0.0000 0.0000 0.0000
# 4 0.0000 0.0000 0.0000 20.0417 0.0000 0.0000
# 5 0.0000 0.0000 0.0000 0.0000 20.0417 0.0000
# 6 -6.3301 6.3301 0.0000 0.0000 0.0000 52.4194
#
#
#
# Elastic Compliance Matrix: (Units=1/GPa)
#
#
# Indices 1 2 3 4 5 6 
#
# 1 0.013507 -0.003263 -0.001147 0.000000 0.000000 0.002025
# 2 -0.003263 0.013507 -0.001147 0.000000 0.000000 -0.002025
# 3 -0.001147 -0.001147 0.026978 0.000000 0.000000 0.000000
# 4 0.000000 0.000000 0.000000 0.049896 0.000000 0.000000
# 5 0.000000 0.000000 0.000000 0.000000 0.049896 0.000000
# 6 0.002025 -0.002025 0.000000 0.000000 0.000000 0.019566
#
#
# Mechanical properties :
#
#
# Convention : Reuss Voigt Hill
#
# Bulk Modulus (GPa) = 23.32168 27.92164 25.62166
# Shear Modulus (GPa) = 25.15658 29.83817 27.49738
#
# Velocity S-wave (km/s) = 3.14444 3.42455 3.28748
# Velocity P-wave (km/s) = 4.72754 5.15858 4.94776
#
# Compressibility (1/GPa) = 0.04287856
#
# Stress axis : x y z
#
# Youngs Moduli (GPa) = 74.03755 74.03755 37.06704
#
# Poissons Ratio (x) = 0.24156 0.04251
# Poissons Ratio (y) = 0.24156 0.04251
# Poissons Ratio (z) = 0.08491 0.08491
#
# Static dielectric constant tensor:
#      x y z
#    x 2.024950 0.000000 0.000000 
#    y 0.000000 2.024950 0.000000 
#    z 0.000000 0.000000 2.031010 
# 
# From -- ./inp_files/4667.got.cif
#   From: 2010.05.17/outbox.cif.g08.bks.cpg/sg88_3_cif.got.tgz:4667.got - 2010.06.03 19:11:41.
