data_PCOD9546738
_publ_section_title
;
Structure prediction by ZEFSAII (Michael W. Deem and Ramdas Pophale) SiO2 
 PCOD9546738
Probable space group: I 41/A
;
_chemical_formula_sum "Si O2"
_cell_formula_units_Z 48
_cell_length_a 14.456454
_cell_length_b 14.456454
_cell_length_c 8.459573
_cell_angle_alpha 90.000000
_cell_angle_beta 90.000000
_cell_angle_gamma 90.000000
_cell_volume 1767.958228
_symmetry_space_group_name_H-M "I 41/A"
_symmetry_group_IT_number 88
_space_group.IT_coordinate_system_code '2'
_symmetry_cell_setting 'tetragonal'
loop_
_space_group_symop_operation_xyz
x,y,z
3/4-y,1/4+x,1/4+z
-x,1/2-y,z
1/4+y,1/4-x,1/4+z
-x,-y,-z
1/4+y,3/4-x,3/4-z
x,1/2+y,-z
3/4-y,3/4+x,3/4-z
1/2+x,1/2+y,1/2+z
1/4-y,3/4+x,3/4+z
1/2-x,-y,1/2+z
3/4+y,3/4-x,3/4+z
1/2-x,1/2-y,1/2-z
3/4+y,1/4-x,1/4-z
1/2+x,y,1/2-z
1/4-y,1/4+x,1/4-z
loop_
_atom_site_type_symbol
_atom_site_label
_atom_site_fract_x
_atom_site_fract_y
_atom_site_fract_z
Si Si1 0.785585 0.391291 0.649132
Si Si2 0.606591 0.401517 0.468085
Si Si3 0.369678 0.671284 0.857937
O O1 0.725452 0.420043 0.802355
O O2 0.704646 0.362010 0.528577
O O3 0.870887 0.342297 0.736774
O O4 0.578683 0.359521 0.300311
O O5 0.531641 0.381414 0.603229
O O6 0.607785 0.511921 0.429745
#
# Coordination Sequence:
#
# PCOD9546738 Si02
#       3
#    16  16  16
#     4  12  18  38  66  92 136 180 220 290 336 398
#     4  11  22  39  66  96 131 183 232 276 344 407
#     4  11  22  39  66  96 131 183 232 276 344 407
#
# _framework density 27.149963
#
# number of rings (size 3 to 8) (size 9 to 14) (size 15 to 20)
#    0.000    0.667   10.000    0.000    0.000    0.667 
#    0.000    6.667    0.000    0.000    0.000    0.000 
#    0.000    0.000    0.000    0.000    0.000    0.000 
#
# Total GULP energy -134105.429678 kJ/mol
# GULP energy per Si atom -5587.726237 kJ/mol
# Density = 2.708817 g / cm^3
# Si number density = 27.149963 Si / 1000 Ang^3
#
#
#
# Elastic Constant Matrix: (Units=GPa)
#
#
# Indices 1 2 3 4 5 6 
#
# 1 93.1919 4.9693 6.9742 0.0000 0.0000 4.2374
# 2 4.9693 93.1919 6.9742 0.0000 0.0000 -4.2374
# 3 6.9742 6.9742 101.1039 0.0000 0.0000 0.0000
# 4 0.0000 0.0000 0.0000 38.9561 0.0000 0.0000
# 5 0.0000 0.0000 0.0000 0.0000 38.9561 0.0000
# 6 4.2374 -4.2374 0.0000 0.0000 0.0000 1.9741
#
#
#
# Elastic Compliance Matrix: (Units=1/GPa)
#
#
# Indices 1 2 3 4 5 6 
#
# 1 0.012284 -0.001996 -0.000710 0.000000 0.000000 -0.030651
# 2 -0.001996 0.012284 -0.000710 0.000000 0.000000 0.030651
# 3 -0.000710 -0.000710 0.009989 0.000000 0.000000 0.000000
# 4 0.000000 0.000000 0.000000 0.025670 0.000000 0.000000
# 5 0.000000 0.000000 0.000000 0.000000 0.025670 0.000000
# 6 -0.030651 0.030651 0.000000 0.000000 0.000000 0.638154
#
#
# Mechanical properties :
#
#
# Convention : Reuss Voigt Hill
#
# Bulk Modulus (GPa) = 36.06677 36.14698 36.10687
# Shear Modulus (GPa) = 6.75564 33.88191 20.31877
#
# Velocity S-wave (km/s) = 1.57914 3.53647 2.73864
# Velocity P-wave (km/s) = 4.07897 5.47889 4.82992
#
# Compressibility (1/GPa) = 0.02772636
#
# Stress axis : x y z
#
# Youngs Moduli (GPa) = 81.40811 81.40811 100.11289
#
# Poissons Ratio (x) = 0.16246 0.07105
# Poissons Ratio (y) = 0.16246 0.07105
# Poissons Ratio (z) = 0.05777 0.05777
#
# Static dielectric constant tensor:
#      x y z
#    x 2.161720 0.000000 0.000000 
#    y 0.000000 2.161720 0.000000 
#    z 0.000000 0.000000 2.052100 
# 
# From -- ./inp_files/1131.got.cif
#   From: 2010.05.17/outbox.cif.g08.bks.cpg/sg88_1_cif.got.tgz:1131.got - 2010.06.03 19:11:41.
