data_PCOD9546792
_publ_section_title
;
Structure prediction by ZEFSAII (Michael W. Deem and Ramdas Pophale) SiO2 
 PCOD9546792
Probable space group: I 41/A
;
_chemical_formula_sum "Si O2"
_cell_formula_units_Z 36
_cell_length_a 15.065646
_cell_length_b 15.065646
_cell_length_c 5.689323
_cell_angle_alpha 90.000000
_cell_angle_beta 90.000000
_cell_angle_gamma 90.000000
_cell_volume 1291.326631
_symmetry_space_group_name_H-M "I 41/A"
_symmetry_group_IT_number 88
_space_group.IT_coordinate_system_code '2'
_symmetry_cell_setting 'tetragonal'
loop_
_space_group_symop_operation_xyz
x,y,z
3/4-y,1/4+x,1/4+z
-x,1/2-y,z
1/4+y,1/4-x,1/4+z
-x,-y,-z
1/4+y,3/4-x,3/4-z
x,1/2+y,-z
3/4-y,3/4+x,3/4-z
1/2+x,1/2+y,1/2+z
1/4-y,3/4+x,3/4+z
1/2-x,-y,1/2+z
3/4+y,3/4-x,3/4+z
1/2-x,1/2-y,1/2-z
3/4+y,1/4-x,1/4-z
1/2+x,y,1/2-z
1/4-y,1/4+x,1/4-z
loop_
_atom_site_type_symbol
_atom_site_label
_atom_site_fract_x
_atom_site_fract_y
_atom_site_fract_z
Si Si1 0.857030 0.341827 0.832394
Si Si2 0.075740 0.028016 0.186456
Si Si3 0.000000 0.750000 0.375000
O O1 0.798017 0.366387 0.605372
O O2 0.961026 0.329559 0.777751
O O3 0.853826 0.410681 0.047736
O O4 0.833350 0.240387 0.896437
O O5 0.000000 0.000000 0.000000
#
# Coordination Sequence:
#
# PCOD9546792 Si02
#       3
#    16  16   4
#     4  11  24  41  74 113 154 210 264 331 393 489
#     4  11  24  44  74 108 159 201 270 324 400 479
#     4  12  20  42  76 112 142 200 272 322 384 478
#
# _framework density 27.878307
#
# number of rings (size 3 to 8) (size 9 to 14) (size 15 to 20)
#    0.000    0.889    4.444    2.667    0.000    0.000 
#    0.000    0.000    9.778    5.333    0.000    0.000 
#    0.000    0.000    0.000    0.000    0.000    0.000 
#
# Total GULP energy -100665.869362 kJ/mol
# GULP energy per Si atom -5592.548298 kJ/mol
# Density = 2.781485 g / cm^3
# Si number density = 27.878307 Si / 1000 Ang^3
#
#
#
# Elastic Constant Matrix: (Units=GPa)
#
#
# Indices 1 2 3 4 5 6 
#
# 1 116.8806 44.7699 67.9263 0.0000 0.0000 -6.4701
# 2 44.7699 116.8806 67.9263 0.0000 0.0000 6.4701
# 3 67.9263 67.9263 166.4223 0.0000 0.0000 0.0000
# 4 0.0000 0.0000 0.0000 73.1725 0.0000 0.0000
# 5 0.0000 0.0000 0.0000 0.0000 73.1725 0.0000
# 6 -6.4701 6.4701 0.0000 0.0000 0.0000 34.7710
#
#
#
# Elastic Compliance Matrix: (Units=1/GPa)
#
#
# Indices 1 2 3 4 5 6 
#
# 1 0.011881 -0.002465 -0.003843 0.000000 0.000000 0.002670
# 2 -0.002465 0.011881 -0.003843 0.000000 0.000000 -0.002670
# 3 -0.003843 -0.003843 0.009146 0.000000 0.000000 0.000000
# 4 0.000000 0.000000 0.000000 0.013666 0.000000 0.000000
# 5 0.000000 0.000000 0.000000 0.000000 0.013666 0.000000
# 6 0.002670 -0.002670 0.000000 0.000000 0.000000 0.029753
#
#
# Mechanical properties :
#
#
# Convention : Reuss Voigt Hill
#
# Bulk Modulus (GPa) = 79.33163 84.60317 81.96740
# Shear Modulus (GPa) = 43.66821 50.86060 47.26440
#
# Velocity S-wave (km/s) = 3.96205 4.27591 4.12197
# Velocity P-wave (km/s) = 7.03198 7.40210 7.21941
#
# Compressibility (1/GPa) = 0.01260531
#
# Stress axis : x y z
#
# Youngs Moduli (GPa) = 84.16556 84.16556 109.33648
#
# Poissons Ratio (x) = 0.20749 0.42020
# Poissons Ratio (y) = 0.20749 0.42020
# Poissons Ratio (z) = 0.32347 0.32347
#
# Static dielectric constant tensor:
#      x y z
#    x 2.242850 0.000000 0.000000 
#    y 0.000000 2.242850 0.000000 
#    z 0.000000 0.000000 2.366640 
# 
# From -- ./inp_files/278.got.cif
#   From: 2010.05.17/outbox.cif.g08.bks.cpg/sg88_1_cif.got.tgz:278.got - 2010.06.03 19:11:41.
