data_PCOD9546673
_publ_section_title
;
Structure prediction by ZEFSAII (Michael W. Deem and Ramdas Pophale) SiO2 
 PCOD9546673
Probable space group: I 41/A
;
_chemical_formula_sum "Si O2"
_cell_formula_units_Z 60
_cell_length_a 9.322895
_cell_length_b 9.322895
_cell_length_c 26.512658
_cell_angle_alpha 90.000000
_cell_angle_beta 90.000000
_cell_angle_gamma 90.000000
_cell_volume 2304.384024
_symmetry_space_group_name_H-M "I 41/A"
_symmetry_group_IT_number 88
_space_group.IT_coordinate_system_code '2'
_symmetry_cell_setting 'tetragonal'
loop_
_space_group_symop_operation_xyz
x,y,z
3/4-y,1/4+x,1/4+z
-x,1/2-y,z
1/4+y,1/4-x,1/4+z
-x,-y,-z
1/4+y,3/4-x,3/4-z
x,1/2+y,-z
3/4-y,3/4+x,3/4-z
1/2+x,1/2+y,1/2+z
1/4-y,3/4+x,3/4+z
1/2-x,-y,1/2+z
3/4+y,3/4-x,3/4+z
1/2-x,1/2-y,1/2-z
3/4+y,1/4-x,1/4-z
1/2+x,y,1/2-z
1/4-y,1/4+x,1/4-z
loop_
_atom_site_type_symbol
_atom_site_label
_atom_site_fract_x
_atom_site_fract_y
_atom_site_fract_z
Si Si1 0.000000 0.000000 0.000000
Si Si2 0.650775 0.437104 0.946878
Si Si3 0.950340 0.415222 0.890656
Si Si4 0.748260 0.218750 0.032229
Si Si5 0.000000 0.750000 0.375000
O O1 0.967102 0.028952 0.939968
O O2 0.890005 0.133902 0.015607
O O3 0.785207 0.431533 0.908083
O O4 0.626725 0.595238 0.967666
O O5 0.521504 0.379077 0.913916
O O6 0.710999 0.341142 0.992556
O O7 0.000000 0.250000 0.883313
O O8 0.977195 0.499589 0.839277
#
# Coordination Sequence:
#
# PCOD9546673 Si02
#       5
#     8  16  16  16   4
#     4  10  24  46  74 112 156 206 270 336 406 498
#     4  11  27  46  77 112 158 208 275 334 418 503
#     4  11  23  46  74 109 159 209 269 337 409 502
#     4  11  26  46  76 114 157 211 268 344 412 490
#     4  12  28  48  72 112 156 216 264 344 414 516
#
# _framework density 26.037327000000001
#
# number of rings (size 3 to 8) (size 9 to 14) (size 15 to 20)
#    0.000    1.067    2.667    1.600    5.600    7.467 
#    0.000    0.000    0.000    0.000    0.000    0.000 
#    0.000    0.000    0.000    0.000    0.000    0.000 
#
# Total GULP energy -167061.163141 kJ/mol
# GULP energy per Si atom -5568.705438 kJ/mol
# Density = 2.597806 g / cm^3
# Si number density = 26.037327 Si / 1000 Ang^3
#
#
#
# Elastic Constant Matrix: (Units=GPa)
#
#
# Indices 1 2 3 4 5 6 
#
# 1 74.4470 6.2496 67.4818 0.0000 0.0000 -6.8565
# 2 6.2496 74.4470 67.4818 0.0000 0.0000 6.8565
# 3 67.4818 67.4818 301.4421 0.0000 0.0000 0.0000
# 4 0.0000 0.0000 0.0000 26.0867 0.0000 0.0000
# 5 0.0000 0.0000 0.0000 0.0000 26.0867 0.0000
# 6 -6.8565 6.8565 0.0000 0.0000 0.0000 38.6933
#
#
#
# Elastic Compliance Matrix: (Units=1/GPa)
#
#
# Indices 1 2 3 4 5 6 
#
# 1 0.017507 0.002302 -0.004434 0.000000 0.000000 0.002694
# 2 0.002302 0.017507 -0.004434 0.000000 0.000000 -0.002694
# 3 -0.004434 -0.004434 0.005303 0.000000 0.000000 0.000000
# 4 0.000000 0.000000 0.000000 0.038334 0.000000 0.000000
# 5 0.000000 0.000000 0.000000 0.000000 0.038334 0.000000
# 6 0.002694 -0.002694 0.000000 0.000000 0.000000 0.026799
#
#
# Mechanical properties :
#
#
# Convention : Reuss Voigt Hill
#
# Bulk Modulus (GPa) = 36.78865 81.41803 59.10334
# Shear Modulus (GPa) = 30.12450 38.78155 34.45302
#
# Velocity S-wave (km/s) = 3.40512 3.86354 3.64155
# Velocity P-wave (km/s) = 5.44240 7.15823 6.35845
#
# Compressibility (1/GPa) = 0.02718230
#
# Stress axis : x y z
#
# Youngs Moduli (GPa) = 57.12057 57.12057 188.58011
#
# Poissons Ratio (x) = -0.13148 0.83624
# Poissons Ratio (y) = -0.13148 0.83624
# Poissons Ratio (z) = 0.25330 0.25330
#
# Static dielectric constant tensor:
#      x y z
#    x 2.159890 0.000000 0.000000 
#    y 0.000000 2.159890 0.000000 
#    z 0.000000 0.000000 1.938480 
# 
# From -- ./inp_files/4452.got.cif
#   From: 2010.05.17/outbox.cif.g08.bks.cpg/sg88_3_cif.got.tgz:4452.got - 2010.06.03 19:11:41.
