data_PCOD9546282
_publ_section_title
;
Structure prediction by ZEFSAII (Michael W. Deem and Ramdas Pophale) SiO2 
 PCOD9546282
Probable space group: I 41/A
;
_chemical_formula_sum "Si O2"
_cell_formula_units_Z 88
_cell_length_a 14.155438
_cell_length_b 14.155438
_cell_length_c 18.704699
_cell_angle_alpha 90.000000
_cell_angle_beta 90.000000
_cell_angle_gamma 90.000000
_cell_volume 3747.980716
_symmetry_space_group_name_H-M "I 41/A"
_symmetry_group_IT_number 88
_space_group.IT_coordinate_system_code '2'
_symmetry_cell_setting 'tetragonal'
loop_
_space_group_symop_operation_xyz
x,y,z
3/4-y,1/4+x,1/4+z
-x,1/2-y,z
1/4+y,1/4-x,1/4+z
-x,-y,-z
1/4+y,3/4-x,3/4-z
x,1/2+y,-z
3/4-y,3/4+x,3/4-z
1/2+x,1/2+y,1/2+z
1/4-y,3/4+x,3/4+z
1/2-x,-y,1/2+z
3/4+y,3/4-x,3/4+z
1/2-x,1/2-y,1/2-z
3/4+y,1/4-x,1/4-z
1/2+x,y,1/2-z
1/4-y,1/4+x,1/4-z
loop_
_atom_site_type_symbol
_atom_site_label
_atom_site_fract_x
_atom_site_fract_y
_atom_site_fract_z
Si Si1 0.295591 0.727031 0.919906
Si Si2 0.441174 0.375493 0.911558
Si Si3 0.765617 0.974907 0.141243
Si Si4 0.188767 0.892772 0.994110
Si Si5 0.989412 0.622588 0.915288
Si Si6 0.500000 0.250000 0.040677
O O1 0.278421 0.615773 0.932117
O O2 0.253094 0.801586 0.976565
O O3 0.236716 0.752893 0.849111
O O4 0.406577 0.736597 0.914381
O O5 0.536467 0.371442 0.865241
O O6 0.379076 0.468021 0.897326
O O7 0.477154 0.341131 0.989637
O O8 0.786300 0.025451 0.065236
O O9 0.688986 0.039208 0.181077
O O10 0.080429 0.864066 0.980439
O O11 0.928941 0.664636 0.846745
#
# Coordination Sequence:
#
# PCOD9546282 Si02
#       6
#    16  16  16  16  16   8
#     4  10  21  37  56  88 123 157 205 251 303 359
#     4   9  21  37  59  87 118 163 211 241 303 369
#     4  11  23  39  66  87 122 169 202 254 315 367
#     4  10  22  39  62  94 121 155 209 259 303 372
#     4   8  16  36  62  85 114 160 201 250 315 370
#     4  10  19  36  58  88 124 160 199 256 290 362
#
# _framework density 23.479310000000002
#
# number of rings (size 3 to 8) (size 9 to 14) (size 15 to 20)
#    0.000    2.545    1.818    0.000    5.091    2.182 
#    0.000   16.364    0.000    2.182    0.000    0.000 
#    0.000    0.000    0.000    0.000    0.000    0.000 
#
# Total GULP energy -245398.318080 kJ/mol
# GULP energy per Si atom -5577.234502 kJ/mol
# Density = 2.342587 g / cm^3
# Si number density = 23.479310 Si / 1000 Ang^3
#
#
#
# Elastic Constant Matrix: (Units=GPa)
#
#
# Indices 1 2 3 4 5 6 
#
# 1 130.2546 34.3837 3.4271 0.0000 0.0000 3.5155
# 2 34.3837 130.2546 3.4271 0.0000 0.0000 -3.5155
# 3 3.4271 3.4271 22.6254 0.0000 0.0000 0.0000
# 4 0.0000 0.0000 0.0000 13.8909 0.0000 0.0000
# 5 0.0000 0.0000 0.0000 0.0000 13.8909 0.0000
# 6 3.5155 -3.5155 0.0000 0.0000 0.0000 43.2045
#
#
#
# Elastic Compliance Matrix: (Units=1/GPa)
#
#
# Indices 1 2 3 4 5 6 
#
# 1 0.008303 -0.002190 -0.000926 0.000000 0.000000 -0.000854
# 2 -0.002190 0.008303 -0.000926 0.000000 0.000000 0.000854
# 3 -0.000926 -0.000926 0.044479 0.000000 0.000000 0.000000
# 4 0.000000 0.000000 0.000000 0.071990 0.000000 0.000000
# 5 0.000000 0.000000 0.000000 0.000000 0.071990 0.000000
# 6 -0.000854 0.000854 0.000000 0.000000 0.000000 0.023285
#
#
# Mechanical properties :
#
#
# Convention : Reuss Voigt Hill
#
# Bulk Modulus (GPa) = 18.86789 40.62336 29.74563
# Shear Modulus (GPa) = 19.67732 30.32369 25.00051
#
# Velocity S-wave (km/s) = 2.89809 3.59765 3.26665
# Velocity P-wave (km/s) = 4.38770 5.88190 5.18887
#
# Compressibility (1/GPa) = 0.05300010
#
# Stress axis : x y z
#
# Youngs Moduli (GPa) = 120.43998 120.43999 22.48270
#
# Poissons Ratio (x) = 0.26381 0.02082
# Poissons Ratio (y) = 0.26381 0.02082
# Poissons Ratio (z) = 0.11151 0.11151
#
# Static dielectric constant tensor:
#      x y z
#    x 1.924240 0.000000 0.000000 
#    y 0.000000 1.924240 0.000000 
#    z 0.000000 0.000000 1.907830 
# 
# From -- ./inp_files/4585.got.cif
#   From: 2010.05.17/outbox.cif.g08.bks.cpg/sg88_3_cif.got.tgz:4585.got - 2010.06.03 19:11:41.
