data_PCOD9546033
_publ_section_title
;
Structure prediction by ZEFSAII (Michael W. Deem and Ramdas Pophale) SiO2 
 PCOD9546033
Probable space group: I 4/M
;
_chemical_formula_sum "Si O2"
_cell_formula_units_Z 88
_cell_length_a 11.389448
_cell_length_b 11.389448
_cell_length_c 31.352983
_cell_angle_alpha 90.000000
_cell_angle_beta 90.000000
_cell_angle_gamma 90.000000
_cell_volume 4067.094085
_symmetry_space_group_name_H-M "I 4/M"
_symmetry_group_IT_number 87
_symmetry_cell_setting 'tetragonal'
loop_
_space_group_symop_operation_xyz
x,y,z
-y,x,z
-x,-y,z
y,-x,z
-x,-y,-z
y,-x,-z
x,y,-z
-y,x,-z
1/2+x,1/2+y,1/2+z
1/2-y,1/2+x,1/2+z
1/2-x,1/2-y,1/2+z
1/2+y,1/2-x,1/2+z
1/2-x,1/2-y,1/2-z
1/2+y,1/2-x,1/2-z
1/2+x,1/2+y,1/2-z
1/2-y,1/2+x,1/2-z
loop_
_atom_site_type_symbol
_atom_site_label
_atom_site_fract_x
_atom_site_fract_y
_atom_site_fract_z
Si Si1 0.906710 0.682691 0.953003
Si Si2 0.398149 0.334146 0.627439
Si Si3 0.846174 0.420089 0.933031
Si Si4 0.165326 0.898190 0.500000
Si Si5 0.142763 0.520682 0.167396
Si Si6 0.726242 0.244946 0.800235
O O1 0.860228 0.751972 0.911731
O O2 0.864947 0.548633 0.953016
O O3 0.045841 0.663180 0.945164
O O4 0.886515 0.735885 0.000000
O O5 0.537180 0.345156 0.623879
O O6 0.359836 0.287282 0.673329
O O7 0.846553 0.452737 0.883191
O O8 0.733327 0.367959 0.956637
O O9 0.037021 0.849267 0.500000
O O10 0.207362 0.636273 0.185288
O O11 0.217909 0.409344 0.185607
O O12 0.000000 0.500000 0.175961
O O13 0.750000 0.250000 0.750000
#
# Coordination Sequence:
#
# PCOD9546033 Si02
#       6
#    16  16  16   8  16  16
#     4  11  20  39  68 104 137 189 249 296 372 449
#     4  11  25  46  70 103 149 195 245 311 385 459
#     4  11  20  42  68  95 141 190 248 307 364 454
#     4  11  26  39  58  94 140 197 244 305 366 423
#     4  12  27  50  80 111 156 199 255 315 395 467
#     4  12  29  48  80 112 145 199 256 322 397 470
#
# _framework density 21.637070999999999
#
# number of rings (size 3 to 8) (size 9 to 14) (size 15 to 20)
#    0.000    0.636    5.455    2.727    7.636    2.545 
#    0.000    0.909    0.000    0.000    0.000    0.000 
#    0.000    0.000    0.000    0.000    0.000    0.000 
#
# Total GULP energy -245569.676587 kJ/mol
# GULP energy per Si atom -5581.129013 kJ/mol
# Density = 2.158782 g / cm^3
# Si number density = 21.637071 Si / 1000 Ang^3
#
#
#
# Elastic Constant Matrix: (Units=GPa)
#
#
# Indices 1 2 3 4 5 6 
#
# 1 36.2846 110.3456 54.4497 0.0000 0.0000 -22.2197
# 2 110.3456 36.2846 54.4497 0.0000 0.0000 22.2197
# 3 54.4497 54.4497 204.0432 0.0000 0.0000 0.0000
# 4 0.0000 0.0000 0.0000 10.2599 0.0000 0.0000
# 5 0.0000 0.0000 0.0000 0.0000 10.2599 0.0000
# 6 -22.2197 22.2197 0.0000 0.0000 0.0000 9.9974
#
#
#
# Elastic Compliance Matrix: (Units=1/GPa)
#
#
# Indices 1 2 3 4 5 6 
#
# 1 0.001360 0.007146 -0.002270 0.000000 0.000000 -0.012860
# 2 0.007146 0.001360 -0.002270 0.000000 0.000000 0.012860
# 3 -0.002270 -0.002270 0.006112 0.000000 0.000000 0.000000
# 4 0.000000 0.000000 0.000000 0.097467 0.000000 0.000000
# 5 0.000000 0.000000 0.000000 0.000000 0.097467 0.000000
# 6 -0.012860 0.012860 0.000000 0.000000 0.000000 0.042863
#
#
# Mechanical properties :
#
#
# Convention : Reuss Voigt Hill
#
# Bulk Modulus (GPa) = 71.20243 79.45585 75.32914
# Shear Modulus (GPa) = 20.31718 9.92793 15.12256
#
# Velocity S-wave (km/s) = 3.06763 2.14438 2.64658
# Velocity P-wave (km/s) = 6.74731 6.55232 6.65053
#
# Compressibility (1/GPa) = 0.01404446
#
# Stress axis : x y z
#
# Youngs Moduli (GPa) = 735.41794 735.41794 163.60439
#
# Poissons Ratio (x) = -5.25515 0.37134
# Poissons Ratio (y) = -5.25515 0.37134
# Poissons Ratio (z) = 1.66921 1.66921
#
# Static dielectric constant tensor:
#      x y z
#    x 1.835770 0.000000 0.000000 
#    y 0.000000 1.835770 0.000000 
#    z 0.000000 0.000000 1.826410 
# 
# From -- ./inp_files/6592.got.cif
#   From: 2010.05.17/outbox.cif.g08.bks.cpg/sg87_4_cif.got.tgz:6592.got - 2010.06.03 19:07:00.
