data_PCOD9546838
_publ_section_title
;
Structure prediction by ZEFSAII (Michael W. Deem and Ramdas Pophale) SiO2 
 PCOD9546838
Probable space group: I 41/A
;
_chemical_formula_sum "Si O2"
_cell_formula_units_Z 56
_cell_length_a 14.908107
_cell_length_b 14.908107
_cell_length_c 9.791583
_cell_angle_alpha 90.000000
_cell_angle_beta 90.000000
_cell_angle_gamma 90.000000
_cell_volume 2176.195520
_symmetry_space_group_name_H-M "I 41/A"
_symmetry_group_IT_number 88
_space_group.IT_coordinate_system_code '2'
_symmetry_cell_setting 'tetragonal'
loop_
_space_group_symop_operation_xyz
x,y,z
3/4-y,1/4+x,1/4+z
-x,1/2-y,z
1/4+y,1/4-x,1/4+z
-x,-y,-z
1/4+y,3/4-x,3/4-z
x,1/2+y,-z
3/4-y,3/4+x,3/4-z
1/2+x,1/2+y,1/2+z
1/4-y,3/4+x,3/4+z
1/2-x,-y,1/2+z
3/4+y,3/4-x,3/4+z
1/2-x,1/2-y,1/2-z
3/4+y,1/4-x,1/4-z
1/2+x,y,1/2-z
1/4-y,1/4+x,1/4-z
loop_
_atom_site_type_symbol
_atom_site_label
_atom_site_fract_x
_atom_site_fract_y
_atom_site_fract_z
Si Si1 0.500000 0.250000 0.375000
Si Si2 0.000000 0.750000 0.375000
Si Si3 0.506367 0.919211 0.272603
Si Si4 0.921564 0.402992 0.292698
Si Si5 0.252140 0.581773 0.887942
O O1 0.413503 0.242236 0.471005
O O2 0.082837 0.789940 0.456958
O O3 0.594793 0.877259 0.342121
O O4 0.432102 0.959318 0.374600
O O5 0.534359 0.001621 0.175825
O O6 0.845395 0.422213 0.180436
O O7 0.308573 0.511494 0.797285
#
# Coordination Sequence:
#
# PCOD9546838 Si02
#       5
#     4   4  16  16  16
#     4  12  22  40  76 118 152 196 266 344 388 486
#     4  12  34  52  76 114 172 224 262 350 420 480
#     4  12  29  50  77 116 161 215 275 338 415 488
#     4  12  24  46  77 114 159 206 275 335 405 485
#     4  12  27  48  80 122 161 212 272 334 412 489
#
# _framework density 25.732983999999998
#
# number of rings (size 3 to 8) (size 9 to 14) (size 15 to 20)
#    0.000    0.000    5.714    3.429    8.000    1.143 
#    0.000    0.000    0.000    0.000    0.000    0.000 
#    0.000    0.000    0.000    0.000    0.000    0.000 
#
# Total GULP energy -156837.504363 kJ/mol
# GULP energy per Si atom -5601.339442 kJ/mol
# Density = 2.567441 g / cm^3
# Si number density = 25.732984 Si / 1000 Ang^3
#
#
#
# Elastic Constant Matrix: (Units=GPa)
#
#
# Indices 1 2 3 4 5 6 
#
# 1 109.2653 0.7722 23.2944 0.0000 0.0000 -13.1538
# 2 0.7722 109.2653 23.2944 0.0000 0.0000 13.1538
# 3 23.2944 23.2944 64.6801 0.0000 0.0000 0.0000
# 4 0.0000 0.0000 0.0000 22.9319 0.0000 0.0000
# 5 0.0000 0.0000 0.0000 0.0000 22.9319 0.0000
# 6 -13.1538 13.1538 0.0000 0.0000 0.0000 40.1083
#
#
#
# Elastic Compliance Matrix: (Units=1/GPa)
#
#
# Indices 1 2 3 4 5 6 
#
# 1 0.010368 0.000355 -0.003862 0.000000 0.000000 0.003284
# 2 0.000355 0.010368 -0.003862 0.000000 0.000000 -0.003284
# 3 -0.003862 -0.003862 0.018242 0.000000 0.000000 0.000000
# 4 0.000000 0.000000 0.000000 0.043607 0.000000 0.000000
# 5 0.000000 0.000000 0.000000 0.000000 0.043607 0.000000
# 6 0.003284 -0.003284 0.000000 0.000000 0.000000 0.027086
#
#
# Mechanical properties :
#
#
# Convention : Reuss Voigt Hill
#
# Bulk Modulus (GPa) = 41.25272 41.99251 41.62261
# Shear Modulus (GPa) = 28.39329 32.91776 30.65552
#
# Velocity S-wave (km/s) = 3.32532 3.58048 3.45526
# Velocity P-wave (km/s) = 5.55064 5.78334 5.66818
#
# Compressibility (1/GPa) = 0.02424083
#
# Stress axis : x y z
#
# Youngs Moduli (GPa) = 96.44901 96.44901 54.81746
#
# Poissons Ratio (x) = -0.03421 0.21170
# Poissons Ratio (y) = -0.03421 0.21170
# Poissons Ratio (z) = 0.37247 0.37247
#
# Static dielectric constant tensor:
#      x y z
#    x 1.983060 0.000000 0.000000 
#    y 0.000000 1.983060 0.000000 
#    z 0.000000 0.000000 2.067120 
# 
# From -- ./inp_files/1319.got.cif
#   From: 2010.05.17/outbox.cif.g08.bks.cpg/sg88_1_cif.got.tgz:1319.got - 2010.06.03 19:11:41.
