data_PCOD9546697
_publ_section_title
;
Structure prediction by ZEFSAII (Michael W. Deem and Ramdas Pophale) SiO2 
 PCOD9546697
Probable space group: I 41/A
;
_chemical_formula_sum "Si O2"
_cell_formula_units_Z 72
_cell_length_a 17.280737
_cell_length_b 17.280737
_cell_length_c 10.586346
_cell_angle_alpha 90.000000
_cell_angle_beta 90.000000
_cell_angle_gamma 90.000000
_cell_volume 3161.335625
_symmetry_space_group_name_H-M "I 41/A"
_symmetry_group_IT_number 88
_space_group.IT_coordinate_system_code '2'
_symmetry_cell_setting 'tetragonal'
loop_
_space_group_symop_operation_xyz
x,y,z
3/4-y,1/4+x,1/4+z
-x,1/2-y,z
1/4+y,1/4-x,1/4+z
-x,-y,-z
1/4+y,3/4-x,3/4-z
x,1/2+y,-z
3/4-y,3/4+x,3/4-z
1/2+x,1/2+y,1/2+z
1/4-y,3/4+x,3/4+z
1/2-x,-y,1/2+z
3/4+y,3/4-x,3/4+z
1/2-x,1/2-y,1/2-z
3/4+y,1/4-x,1/4-z
1/2+x,y,1/2-z
1/4-y,1/4+x,1/4-z
loop_
_atom_site_type_symbol
_atom_site_label
_atom_site_fract_x
_atom_site_fract_y
_atom_site_fract_z
Si Si1 0.878345 0.129530 0.785579
Si Si2 0.872141 0.343766 0.996372
Si Si3 0.686727 0.999006 0.890438
Si Si4 0.205819 0.314825 0.040373
Si Si5 0.000000 0.250000 0.850096
O O1 0.821786 0.118471 0.667199
O O2 0.942094 0.195823 0.772964
O O3 0.918410 0.046287 0.806859
O O4 0.824873 0.153923 0.904968
O O5 0.826830 0.387290 0.885849
O O6 0.948439 0.303783 0.941422
O O7 0.816154 0.275729 0.046295
O O8 0.893126 0.404492 0.104142
O O9 0.737806 0.014231 0.767212
#
# Coordination Sequence:
#
# PCOD9546697 Si02
#       5
#    16  16  16  16   8
#     4  11  24  47  72 106 148 198 249 316 381 452
#     4  11  26  45  75 110 153 200 258 314 378 457
#     4  12  27  49  78 112 149 197 256 313 376 450
#     4  11  24  43  75 107 150 197 256 313 376 455
#     4  10  26  47  69 106 156 202 246 316 392 456
#
# _framework density 22.775182000000001
#
# number of rings (size 3 to 8) (size 9 to 14) (size 15 to 20)
#    0.000    0.889    2.222    4.000    6.222    6.222 
#    0.000    1.111    0.000    0.000    0.000    0.000 
#    0.000    0.000    0.000    0.000    0.000    0.000 
#
# Total GULP energy -201732.050669 kJ/mol
# GULP energy per Si atom -5603.668074 kJ/mol
# Density = 2.272335 g / cm^3
# Si number density = 22.775182 Si / 1000 Ang^3
#
#
#
# Elastic Constant Matrix: (Units=GPa)
#
#
# Indices 1 2 3 4 5 6 
#
# 1 83.6941 52.3026 43.5841 0.0000 0.0000 4.2449
# 2 52.3026 83.6941 43.5841 0.0000 0.0000 -4.2449
# 3 43.5841 43.5841 105.3752 0.0000 0.0000 0.0000
# 4 0.0000 0.0000 0.0000 19.4963 0.0000 0.0000
# 5 0.0000 0.0000 0.0000 0.0000 19.4963 0.0000
# 6 4.2449 -4.2449 0.0000 0.0000 0.0000 44.9854
#
#
#
# Elastic Compliance Matrix: (Units=1/GPa)
#
#
# Indices 1 2 3 4 5 6 
#
# 1 0.021348 -0.011342 -0.004138 0.000000 0.000000 -0.003085
# 2 -0.011342 0.021348 -0.004138 0.000000 0.000000 0.003085
# 3 -0.004138 -0.004138 0.012913 0.000000 0.000000 0.000000
# 4 0.000000 0.000000 0.000000 0.051292 0.000000 0.000000
# 5 0.000000 0.000000 0.000000 0.000000 0.051292 0.000000
# 6 -0.003085 0.003085 0.000000 0.000000 0.000000 0.022812
#
#
# Mechanical properties :
#
#
# Convention : Reuss Voigt Hill
#
# Bulk Modulus (GPa) = 61.08396 61.30053 61.19225
# Shear Modulus (GPa) = 22.15341 25.68181 23.91761
#
# Velocity S-wave (km/s) = 3.12220 3.36165 3.24413
# Velocity P-wave (km/s) = 6.31475 6.48394 6.39991
#
# Compressibility (1/GPa) = 0.01637091
#
# Stress axis : x y z
#
# Youngs Moduli (GPa) = 46.84318 46.84318 77.43969
#
# Poissons Ratio (x) = 0.53130 0.32048
# Poissons Ratio (y) = 0.53130 0.32048
# Poissons Ratio (z) = 0.19386 0.19386
#
# Static dielectric constant tensor:
#      x y z
#    x 1.851870 0.000000 0.000000 
#    y 0.000000 1.851870 0.000000 
#    z 0.000000 0.000000 1.821490 
# 
# From -- ./inp_files/2413.got.cif
#   From: 2010.05.17/outbox.cif.g08.bks.cpg/sg88_2_cif.got.tgz:2413.got - 2010.06.03 19:11:41.
