data_PCOD9546468
_publ_section_title
;
Structure prediction by ZEFSAII (Michael W. Deem and Ramdas Pophale) SiO2 
 PCOD9546468
Probable space group: I 41/A
;
_chemical_formula_sum "Si O2"
_cell_formula_units_Z 52
_cell_length_a 16.950641
_cell_length_b 16.950641
_cell_length_c 7.728120
_cell_angle_alpha 90.000000
_cell_angle_beta 90.000000
_cell_angle_gamma 90.000000
_cell_volume 2220.476131
_symmetry_space_group_name_H-M "I 41/A"
_symmetry_group_IT_number 88
_space_group.IT_coordinate_system_code '2'
_symmetry_cell_setting 'tetragonal'
loop_
_space_group_symop_operation_xyz
x,y,z
3/4-y,1/4+x,1/4+z
-x,1/2-y,z
1/4+y,1/4-x,1/4+z
-x,-y,-z
1/4+y,3/4-x,3/4-z
x,1/2+y,-z
3/4-y,3/4+x,3/4-z
1/2+x,1/2+y,1/2+z
1/4-y,3/4+x,3/4+z
1/2-x,-y,1/2+z
3/4+y,3/4-x,3/4+z
1/2-x,1/2-y,1/2-z
3/4+y,1/4-x,1/4-z
1/2+x,y,1/2-z
1/4-y,1/4+x,1/4-z
loop_
_atom_site_type_symbol
_atom_site_label
_atom_site_fract_x
_atom_site_fract_y
_atom_site_fract_z
Si Si1 0.778414 0.287425 0.570770
Si Si2 0.105711 0.637082 0.211799
Si Si3 0.000000 0.750000 0.375000
Si Si4 0.304317 0.091693 0.358697
O O1 0.750000 0.250000 0.750000
O O2 0.832554 0.363195 0.629015
O O3 0.648549 0.123477 0.532038
O O4 0.788774 0.174019 0.044837
O O5 0.068683 0.722678 0.248133
O O6 0.327434 0.718119 0.976522
O O7 0.321973 0.022579 0.493274
#
# Coordination Sequence:
#
# PCOD9546468 Si02
#       4
#    16  16   4  16
#     4  11  22  41  63  88 123 160 200 252 303 359
#     4  10  21  39  62  90 120 161 204 248 303 357
#     4   8  20  40  64  86 124 162 204 256 304 354
#     4  12  24  40  62  92 124 161 203 249 301 362
#
# _framework density 23.418399000000001
#
# number of rings (size 3 to 8) (size 9 to 14) (size 15 to 20)
#    0.000    1.231    0.000    6.462    0.000    0.000 
#    0.000    3.077    0.000    0.000    0.000    0.000 
#    0.000    0.000    0.000    0.000    0.000    0.000 
#
# Total GULP energy -145288.569645 kJ/mol
# GULP energy per Si atom -5588.021909 kJ/mol
# Density = 2.336510 g / cm^3
# Si number density = 23.418399 Si / 1000 Ang^3
#
#
#
# Elastic Constant Matrix: (Units=GPa)
#
#
# Indices 1 2 3 4 5 6 
#
# 1 60.0886 18.1762 34.3385 0.0000 0.0000 -4.6347
# 2 18.1762 60.0886 34.3385 0.0000 0.0000 4.6347
# 3 34.3385 34.3385 112.9161 0.0000 0.0000 0.0000
# 4 0.0000 0.0000 0.0000 54.0137 0.0000 0.0000
# 5 0.0000 0.0000 0.0000 0.0000 54.0137 0.0000
# 6 -4.6347 4.6347 0.0000 0.0000 0.0000 19.2367
#
#
#
# Elastic Compliance Matrix: (Units=1/GPa)
#
#
# Indices 1 2 3 4 5 6 
#
# 1 0.021315 -0.003887 -0.005300 0.000000 0.000000 0.006072
# 2 -0.003887 0.021315 -0.005300 0.000000 0.000000 -0.006072
# 3 -0.005300 -0.005300 0.012080 0.000000 0.000000 0.000000
# 4 0.000000 0.000000 0.000000 0.018514 0.000000 0.000000
# 5 0.000000 0.000000 0.000000 0.000000 0.018514 0.000000
# 6 0.006072 -0.006072 0.000000 0.000000 0.000000 0.054910
#
#
# Mechanical properties :
#
#
# Convention : Reuss Voigt Hill
#
# Bulk Modulus (GPa) = 38.85676 45.19996 42.02836
# Shear Modulus (GPa) = 27.14448 35.20216 31.17332
#
# Velocity S-wave (km/s) = 3.40826 3.88130 3.65245
# Velocity P-wave (km/s) = 5.66717 6.27924 5.98104
#
# Compressibility (1/GPa) = 0.02573555
#
# Stress axis : x y z
#
# Youngs Moduli (GPa) = 46.91537 46.91537 82.78424
#
# Poissons Ratio (x) = 0.18237 0.43875
# Poissons Ratio (y) = 0.18237 0.43875
# Poissons Ratio (z) = 0.24865 0.24865
#
# Static dielectric constant tensor:
#      x y z
#    x 1.954870 0.000000 0.000000 
#    y 0.000000 1.954870 0.000000 
#    z 0.000000 0.000000 1.816580 
# 
# From -- ./inp_files/417.got.cif
#   From: 2010.05.17/outbox.cif.g08.bks.cpg/sg88_1_cif.got.tgz:417.got - 2010.06.03 19:11:41.
