data_PCOD9546550
_publ_section_title
;
Structure prediction by ZEFSAII (Michael W. Deem and Ramdas Pophale) SiO2 
 PCOD9546550
Probable space group: I 41/A
;
_chemical_formula_sum "Si O2"
_cell_formula_units_Z 108
_cell_length_a 14.293466
_cell_length_b 14.293466
_cell_length_c 21.209582
_cell_angle_alpha 90.000000
_cell_angle_beta 90.000000
_cell_angle_gamma 90.000000
_cell_volume 4333.184843
_symmetry_space_group_name_H-M "I 41/A"
_symmetry_group_IT_number 88
_space_group.IT_coordinate_system_code '2'
_symmetry_cell_setting 'tetragonal'
loop_
_space_group_symop_operation_xyz
x,y,z
3/4-y,1/4+x,1/4+z
-x,1/2-y,z
1/4+y,1/4-x,1/4+z
-x,-y,-z
1/4+y,3/4-x,3/4-z
x,1/2+y,-z
3/4-y,3/4+x,3/4-z
1/2+x,1/2+y,1/2+z
1/4-y,3/4+x,3/4+z
1/2-x,-y,1/2+z
3/4+y,3/4-x,3/4+z
1/2-x,1/2-y,1/2-z
3/4+y,1/4-x,1/4-z
1/2+x,y,1/2-z
1/4-y,1/4+x,1/4-z
loop_
_atom_site_type_symbol
_atom_site_label
_atom_site_fract_x
_atom_site_fract_y
_atom_site_fract_z
Si Si1 0.500000 0.750000 0.924057
Si Si2 0.000000 0.250000 0.125000
Si Si3 0.849306 0.745943 0.960425
Si Si4 0.447322 0.565987 0.851845
Si Si5 0.099116 0.951744 0.015872
Si Si6 0.365439 0.796331 0.148600
Si Si7 0.290897 0.476151 0.795538
Si Si8 0.173655 0.163888 0.411987
O O1 0.463059 0.577451 0.777789
O O2 0.457393 0.665529 0.883492
O O3 0.049146 0.324045 0.170101
O O4 0.755995 0.736849 0.921296
O O5 0.886299 0.640127 0.972493
O O6 0.521521 0.489395 0.875898
O O7 0.342551 0.526214 0.854519
O O8 0.587910 0.701209 0.954061
O O9 0.094906 0.911151 0.086991
O O10 0.189907 0.019915 0.005296
O O11 0.000000 0.000000 0.000000
O O12 0.439889 0.842102 0.098899
O O13 0.349763 0.875321 0.204445
O O14 0.186774 0.447776 0.812214
#
# Coordination Sequence:
#
# PCOD9546550 Si02
#       8
#     8   4  16  16  16  16  16  16
#     4  12  21  42  70  99 138 184 243 282 371 420
#     4  12  26  40  64 100 136 172 240 280 338 436
#     4  11  25  41  64  97 138 180 230 286 353 427
#     4  11  22  40  70  96 140 189 233 295 365 435
#     4  11  22  40  65  97 139 181 232 291 364 428
#     4   9  18  38  68 101 135 187 242 292 356 434
#     4  10  22  39  66  98 134 181 236 287 361 427
#     4  11  24  43  65  97 135 180 233 298 349 438
#
# _framework density 24.923929999999999
#
# number of rings (size 3 to 8) (size 9 to 14) (size 15 to 20)
#    0.000    1.333    2.963    2.222    4.148    1.185 
#    0.000    2.963    0.000    4.444    0.000    0.000 
#    0.000    0.000    0.000    0.000    0.000    0.000 
#
# Total GULP energy -301096.213121 kJ/mol
# GULP energy per Si atom -5575.855799 kJ/mol
# Density = 2.486720 g / cm^3
# Si number density = 24.923930 Si / 1000 Ang^3
#
#
#
# Elastic Constant Matrix: (Units=GPa)
#
#
# Indices 1 2 3 4 5 6 
#
# 1 135.4583 31.2292 14.1105 0.0000 0.0000 11.6577
# 2 31.2292 135.4583 14.1105 0.0000 0.0000 -11.6577
# 3 14.1105 14.1105 57.4552 0.0000 0.0000 0.0000
# 4 0.0000 0.0000 0.0000 15.8628 0.0000 0.0000
# 5 0.0000 0.0000 0.0000 0.0000 15.8628 0.0000
# 6 11.6577 -11.6577 0.0000 0.0000 0.0000 60.1329
#
#
#
# Elastic Compliance Matrix: (Units=1/GPa)
#
#
# Indices 1 2 3 4 5 6 
#
# 1 0.008144 -0.001885 -0.001537 0.000000 0.000000 -0.001944
# 2 -0.001885 0.008144 -0.001537 0.000000 0.000000 0.001944
# 3 -0.001537 -0.001537 0.018160 0.000000 0.000000 0.000000
# 4 0.000000 0.000000 0.000000 0.063041 0.000000 0.000000
# 5 0.000000 0.000000 0.000000 0.000000 0.063041 0.000000
# 6 -0.001944 0.001944 0.000000 0.000000 0.000000 0.017384
#
#
# Mechanical properties :
#
#
# Convention : Reuss Voigt Hill
#
# Bulk Modulus (GPa) = 40.76663 49.69691 45.23177
# Shear Modulus (GPa) = 25.50901 36.29979 30.90440
#
# Velocity S-wave (km/s) = 3.20265 3.82045 3.52511
# Velocity P-wave (km/s) = 5.48342 6.28043 5.89541
#
# Compressibility (1/GPa) = 0.02452987
#
# Stress axis : x y z
#
# Youngs Moduli (GPa) = 122.78454 122.78454 55.06619
#
# Poissons Ratio (x) = 0.23143 0.08465
# Poissons Ratio (y) = 0.23143 0.08465
# Poissons Ratio (z) = 0.18875 0.18875
#
# Static dielectric constant tensor:
#      x y z
#    x 2.005020 0.000000 0.000000 
#    y 0.000000 2.005020 0.000000 
#    z 0.000000 0.000000 1.926500 
# 
# From -- ./inp_files/5894.got.cif
#   From: 2010.05.17/outbox.cif.g08.bks.cpg/sg88_3_cif.got.tgz:5894.got - 2010.06.03 19:11:41.
