data_PCOD9546303
_publ_section_title
;
Structure prediction by ZEFSAII (Michael W. Deem and Ramdas Pophale) SiO2 
 PCOD9546303
Probable space group: I 41/A
;
_chemical_formula_sum "Si O2"
_cell_formula_units_Z 128
_cell_length_a 24.820949
_cell_length_b 24.820949
_cell_length_c 8.360573
_cell_angle_alpha 90.000000
_cell_angle_beta 90.000000
_cell_angle_gamma 90.000000
_cell_volume 5150.777711
_symmetry_space_group_name_H-M "I 41/A"
_symmetry_group_IT_number 88
_space_group.IT_coordinate_system_code '2'
_symmetry_cell_setting 'tetragonal'
loop_
_space_group_symop_operation_xyz
x,y,z
3/4-y,1/4+x,1/4+z
-x,1/2-y,z
1/4+y,1/4-x,1/4+z
-x,-y,-z
1/4+y,3/4-x,3/4-z
x,1/2+y,-z
3/4-y,3/4+x,3/4-z
1/2+x,1/2+y,1/2+z
1/4-y,3/4+x,3/4+z
1/2-x,-y,1/2+z
3/4+y,3/4-x,3/4+z
1/2-x,1/2-y,1/2-z
3/4+y,1/4-x,1/4-z
1/2+x,y,1/2-z
1/4-y,1/4+x,1/4-z
loop_
_atom_site_type_symbol
_atom_site_label
_atom_site_fract_x
_atom_site_fract_y
_atom_site_fract_z
Si Si1 0.118894 0.930289 0.211236
Si Si2 0.064157 0.133870 0.936352
Si Si3 0.174194 0.777615 0.140656
Si Si4 0.813429 0.985561 0.392344
Si Si5 0.437440 0.256602 0.690390
Si Si6 0.223702 0.671568 0.198243
Si Si7 0.439373 0.655680 0.502820
Si Si8 0.723139 0.807503 0.697444
O O1 0.182723 0.927091 0.245063
O O2 0.093386 0.943751 0.385283
O O3 0.096007 0.876642 0.127798
O O4 0.098714 0.979461 0.098607
O O5 0.099112 0.161832 0.076350
O O6 0.076559 0.070931 0.921667
O O7 0.070675 0.179378 0.801798
O O8 0.000077 0.135649 0.977535
O O9 0.119060 0.769972 0.242594
O O10 0.191195 0.716332 0.107083
O O11 0.218913 0.803504 0.252973
O O12 0.185606 0.803311 0.965028
O O13 0.778941 0.968216 0.244341
O O14 0.868883 0.014018 0.349566
O O15 0.500000 0.250000 0.733929
O O16 0.439280 0.220489 0.527212
O O17 0.750000 0.750000 0.750000
#
# Coordination Sequence:
#
# PCOD9546303 Si02
#       8
#    16  16  16  16  16  16  16  16
#     4  10  22  37  63  85 119 162 211 256 310 372
#     4  11  20  32  53  86 126 158 195 239 315 388
#     4  10  19  40  65  89 116 161 214 255 301 380
#     4  10  22  44  63  92 122 163 211 259 322 383
#     4  10  21  32  58  89 121 161 194 242 317 387
#     4   9  21  41  68  86 111 167 217 256 306 373
#     4  11  18  32  56  84 116 163 193 246 304 379
#     4  11  21  37  54  93 127 157 204 261 307 361
#
# _framework density 24.850615999999999
#
# number of rings (size 3 to 8) (size 9 to 14) (size 15 to 20)
#    0.000    1.750    3.750    0.750    3.500    0.000 
#    4.500    1.250   11.000    0.000    0.000    0.000 
#    0.000    0.000    0.000    0.000    0.000    0.000 
#
# Total GULP energy -356951.880510 kJ/mol
# GULP energy per Si atom -5577.373133 kJ/mol
# Density = 2.479405 g / cm^3
# Si number density = 24.850616 Si / 1000 Ang^3
#
#
#
# Elastic Constant Matrix: (Units=GPa)
#
#
# Indices 1 2 3 4 5 6 
#
# 1 100.6422 -0.5036 6.7504 0.0000 0.0000 8.9675
# 2 -0.5036 100.6422 6.7504 0.0000 0.0000 -8.9675
# 3 6.7504 6.7504 25.2843 0.0000 0.0000 0.0000
# 4 0.0000 0.0000 0.0000 -138.1357 0.0000 0.0000
# 5 0.0000 0.0000 0.0000 0.0000 -138.1357 0.0000
# 6 8.9675 -8.9675 0.0000 0.0000 0.0000 29.5021
#
#
#
# Elastic Compliance Matrix: (Units=1/GPa)
#
#
# Indices 1 2 3 4 5 6 
#
# 1 0.010404 -0.000045 -0.002766 0.000000 0.000000 -0.003176
# 2 -0.000045 0.010404 -0.002766 0.000000 0.000000 0.003176
# 3 -0.002766 -0.002766 0.041027 0.000000 0.000000 0.000000
# 4 0.000000 0.000000 0.000000 -0.007239 0.000000 0.000000
# 5 0.000000 0.000000 0.000000 0.000000 -0.007239 0.000000
# 6 -0.003176 0.003176 0.000000 0.000000 0.000000 0.035827
#
#
# Mechanical properties :
#
#
# Convention : Reuss Voigt Hill
#
# Bulk Modulus (GPa) = 19.73073 28.06260 23.89666
# Shear Modulus (GPa) = 44.95105 -35.11577 4.91764
#
# Velocity S-wave (km/s) = 4.25767 -3.76317 1.40825
# Velocity P-wave (km/s) = 5.66810 2.75043 3.50446
#
# Compressibility (1/GPa) = 0.05068237
#
# Stress axis : x y z
#
# Youngs Moduli (GPa) = 96.11236 96.11236 24.37420
#
# Poissons Ratio (x) = 0.00437 0.06741
# Poissons Ratio (y) = 0.00437 0.06741
# Poissons Ratio (z) = 0.26582 0.26582
#
# Static dielectric constant tensor:
#      x y z
#    x 2.023830 0.000000 0.000000 
#    y 0.000000 2.023830 0.000000 
#    z 0.000000 0.000000 2.015170 
# 
# From -- ./inp_files/2767.got.cif
#   From: 2010.05.17/outbox.cif.g08.bks.cpg/sg88_2_cif.got.tgz:2767.got - 2010.06.03 19:11:41.
