data_PCOD9546580
_publ_section_title
;
Structure prediction by ZEFSAII (Michael W. Deem and Ramdas Pophale) SiO2 
 PCOD9546580
Probable space group: I 41/A
;
_chemical_formula_sum "Si O2"
_cell_formula_units_Z 56
_cell_length_a 15.689585
_cell_length_b 15.689585
_cell_length_c 9.393712
_cell_angle_alpha 90.000000
_cell_angle_beta 90.000000
_cell_angle_gamma 90.000000
_cell_volume 2312.385055
_symmetry_space_group_name_H-M "I 41/A"
_symmetry_group_IT_number 88
_space_group.IT_coordinate_system_code '2'
_symmetry_cell_setting 'tetragonal'
loop_
_space_group_symop_operation_xyz
x,y,z
3/4-y,1/4+x,1/4+z
-x,1/2-y,z
1/4+y,1/4-x,1/4+z
-x,-y,-z
1/4+y,3/4-x,3/4-z
x,1/2+y,-z
3/4-y,3/4+x,3/4-z
1/2+x,1/2+y,1/2+z
1/4-y,3/4+x,3/4+z
1/2-x,-y,1/2+z
3/4+y,3/4-x,3/4+z
1/2-x,1/2-y,1/2-z
3/4+y,1/4-x,1/4-z
1/2+x,y,1/2-z
1/4-y,1/4+x,1/4-z
loop_
_atom_site_type_symbol
_atom_site_label
_atom_site_fract_x
_atom_site_fract_y
_atom_site_fract_z
Si Si1 0.292382 0.064823 0.541883
Si Si2 0.842568 0.266264 0.318027
Si Si3 0.000000 0.750000 0.875000
Si Si4 0.500000 0.750000 0.125000
Si Si5 0.319183 0.786405 0.143881
O O1 0.271984 0.050193 0.378502
O O2 0.382030 0.111073 0.560554
O O3 0.214265 0.118403 0.609463
O O4 0.750000 0.250000 0.250000
O O5 0.919463 0.226773 0.226749
O O6 0.828378 0.246586 0.485183
O O7 0.412293 0.767321 0.207561
O O8 0.250000 0.750000 0.250000
#
# Coordination Sequence:
#
# PCOD9546580 Si02
#       5
#    16  16   4   4  16
#     4  10  22  42  64  96 138 182 236 301 368 445
#     4  11  25  43  69 103 143 193 248 308 380 456
#     4  12  22  44  76 106 150 200 252 318 378 460
#     4  12  26  44  76 106 138 196 252 306 394 464
#     4  11  24  45  69 102 143 186 245 312 378 461
#
# _framework density 24.217420000000001
#
# number of rings (size 3 to 8) (size 9 to 14) (size 15 to 20)
#    0.000    1.143    0.000    7.714    0.000    6.857 
#    0.000    2.857    0.000    0.000    0.000    0.000 
#    0.000    0.000    0.000    0.000    0.000    0.000 
#
# Total GULP energy -156358.929809 kJ/mol
# GULP energy per Si atom -5584.247493 kJ/mol
# Density = 2.416230 g / cm^3
# Si number density = 24.217420 Si / 1000 Ang^3
#
#
#
# Elastic Constant Matrix: (Units=GPa)
#
#
# Indices 1 2 3 4 5 6 
#
# 1 128.5686 22.0249 35.9707 0.0000 0.0000 -8.4356
# 2 22.0249 128.5686 35.9707 0.0000 0.0000 8.4356
# 3 35.9707 35.9707 147.5808 0.0000 0.0000 0.0000
# 4 0.0000 0.0000 0.0000 32.2375 0.0000 0.0000
# 5 0.0000 0.0000 0.0000 0.0000 32.2375 0.0000
# 6 -8.4356 8.4356 0.0000 0.0000 0.0000 29.3629
#
#
#
# Elastic Compliance Matrix: (Units=1/GPa)
#
#
# Indices 1 2 3 4 5 6 
#
# 1 0.008674 -0.001159 -0.001832 0.000000 0.000000 0.002825
# 2 -0.001159 0.008674 -0.001832 0.000000 0.000000 -0.002825
# 3 -0.001832 -0.001832 0.007669 0.000000 0.000000 0.000000
# 4 0.000000 0.000000 0.000000 0.031020 0.000000 0.000000
# 5 0.000000 0.000000 0.000000 0.000000 0.031020 0.000000
# 6 0.002825 -0.002825 0.000000 0.000000 0.000000 0.035680
#
#
# Mechanical properties :
#
#
# Convention : Reuss Voigt Hill
#
# Bulk Modulus (GPa) = 65.05041 65.85004 65.45022
# Shear Modulus (GPa) = 36.36210 39.48437 37.92324
#
# Velocity S-wave (km/s) = 3.87910 4.04222 3.96150
# Velocity P-wave (km/s) = 6.85438 7.00259 6.92888
#
# Compressibility (1/GPa) = 0.01537269
#
# Stress axis : x y z
#
# Youngs Moduli (GPa) = 115.28288 115.28288 130.39696
#
# Poissons Ratio (x) = 0.13359 0.23886
# Poissons Ratio (y) = 0.13359 0.23886
# Poissons Ratio (z) = 0.21117 0.21117
#
# Static dielectric constant tensor:
#      x y z
#    x 1.984970 0.000000 0.000000 
#    y 0.000000 1.984970 0.000000 
#    z 0.000000 0.000000 1.970760 
# 
# From -- ./inp_files/1231.got.cif
#   From: 2010.05.17/outbox.cif.g08.bks.cpg/sg88_1_cif.got.tgz:1231.got - 2010.06.03 19:11:41.
