data_PCOD9546031
_publ_section_title
;
Structure prediction by ZEFSAII (Michael W. Deem and Ramdas Pophale) SiO2 
 PCOD9546031
Probable space group: I 4/M
;
_chemical_formula_sum "Si O2"
_cell_formula_units_Z 80
_cell_length_a 12.597098
_cell_length_b 12.597098
_cell_length_c 24.199613
_cell_angle_alpha 90.000000
_cell_angle_beta 90.000000
_cell_angle_gamma 90.000000
_cell_volume 3840.161036
_symmetry_space_group_name_H-M "I 4/M"
_symmetry_group_IT_number 87
_symmetry_cell_setting 'tetragonal'
loop_
_space_group_symop_operation_xyz
x,y,z
-y,x,z
-x,-y,z
y,-x,z
-x,-y,-z
y,-x,-z
x,y,-z
-y,x,-z
1/2+x,1/2+y,1/2+z
1/2-y,1/2+x,1/2+z
1/2-x,1/2-y,1/2+z
1/2+y,1/2-x,1/2+z
1/2-x,1/2-y,1/2-z
1/2+y,1/2-x,1/2-z
1/2+x,1/2+y,1/2-z
1/2-y,1/2+x,1/2-z
loop_
_atom_site_type_symbol
_atom_site_label
_atom_site_fract_x
_atom_site_fract_y
_atom_site_fract_z
Si Si1 0.973276 0.374028 0.061289
Si Si2 0.413250 0.125941 0.720181
Si Si3 0.811076 0.612912 0.900580
Si Si4 0.338791 0.575693 0.767868
Si Si5 0.381306 0.234427 0.886532
O O1 0.887120 0.342759 0.106769
O O2 0.000000 0.500000 0.066251
O O3 0.091359 0.331000 0.068487
O O4 0.931243 0.352723 0.000000
O O5 0.540429 0.123668 0.733236
O O6 0.363275 0.094835 0.661187
O O7 0.382973 0.248691 0.726854
O O8 0.772813 0.494832 0.917800
O O9 0.710293 0.687773 0.906238
O O10 0.364824 0.450620 0.762927
O O11 0.283112 0.593397 0.826785
#
# Coordination Sequence:
#
# PCOD9546031 Si02
#       5
#    16  16  16  16  16
#     4   9  21  40  62  87 115 150 195 245 297 356
#     4  11  22  36  54  84 116 162 211 250 285 344
#     4  11  23  37  62  88 123 155 203 248 301 359
#     4  11  22  37  55  82 123 164 200 245 304 357
#     4  11  20  38  60  88 118 158 196 248 299 359
#
# _framework density 20.832460999999999
#
# number of rings (size 3 to 8) (size 9 to 14) (size 15 to 20)
#    0.000    1.400    4.000    1.200    5.600    6.000 
#    0.000    0.000    0.000    0.600    0.000    8.400 
#    0.000    0.000    0.000    0.000    0.000    0.000 
#
# Total GULP energy -222794.444514 kJ/mol
# GULP energy per Si atom -5569.861113 kJ/mol
# Density = 2.078505 g / cm^3
# Si number density = 20.832461 Si / 1000 Ang^3
#
#
#
# Elastic Constant Matrix: (Units=GPa)
#
#
# Indices 1 2 3 4 5 6 
#
# 1 121.4230 39.1537 20.0476 0.0000 0.0000 -3.2567
# 2 39.1537 121.4230 20.0476 0.0000 0.0000 3.2567
# 3 20.0476 20.0476 37.7251 0.0000 0.0000 0.0000
# 4 0.0000 0.0000 0.0000 10.2836 0.0000 0.0000
# 5 0.0000 0.0000 0.0000 0.0000 10.2836 0.0000
# 6 -3.2567 3.2567 0.0000 0.0000 0.0000 14.7639
#
#
#
# Elastic Compliance Matrix: (Units=1/GPa)
#
#
# Indices 1 2 3 4 5 6 
#
# 1 0.009776 -0.002595 -0.003816 0.000000 0.000000 0.002729
# 2 -0.002595 0.009776 -0.003816 0.000000 0.000000 -0.002729
# 3 -0.003816 -0.003816 0.030563 0.000000 0.000000 0.000000
# 4 0.000000 0.000000 0.000000 0.097242 0.000000 0.000000
# 5 0.000000 0.000000 0.000000 0.000000 0.097242 0.000000
# 6 0.002729 -0.002729 0.000000 0.000000 0.000000 0.068937
#
#
# Mechanical properties :
#
#
# Convention : Reuss Voigt Hill
#
# Bulk Modulus (GPa) = 33.71458 48.78543 41.25000
# Shear Modulus (GPa) = 14.54014 20.48772 17.51393
#
# Velocity S-wave (km/s) = 2.64475 3.13941 2.90263
# Velocity P-wave (km/s) = 5.05421 6.05062 5.57472
#
# Compressibility (1/GPa) = 0.02966076
#
# Stress axis : x y z
#
# Youngs Moduli (GPa) = 102.29359 102.29359 32.71936
#
# Poissons Ratio (x) = 0.26550 0.12485
# Poissons Ratio (y) = 0.26550 0.12485
# Poissons Ratio (z) = 0.39032 0.39032
#
# Static dielectric constant tensor:
#      x y z
#    x 1.807090 0.000000 0.000000 
#    y 0.000000 1.807090 0.000000 
#    z 0.000000 0.000000 1.790100 
# 
# From -- ./inp_files/6482.got.cif
#   From: 2010.05.17/outbox.cif.g08.bks.cpg/sg87_4_cif.got.tgz:6482.got - 2010.06.03 19:07:00.
