data_PCOD9546246
_publ_section_title
;
Structure prediction by ZEFSAII (Michael W. Deem and Ramdas Pophale) SiO2 
 PCOD9546246
Probable space group: I 41/A
;
_chemical_formula_sum "Si O2"
_cell_formula_units_Z 120
_cell_length_a 19.329791
_cell_length_b 19.329791
_cell_length_c 14.647210
_cell_angle_alpha 90.000000
_cell_angle_beta 90.000000
_cell_angle_gamma 90.000000
_cell_volume 5472.795557
_symmetry_space_group_name_H-M "I 41/A"
_symmetry_group_IT_number 88
_space_group.IT_coordinate_system_code '2'
_symmetry_cell_setting 'tetragonal'
loop_
_space_group_symop_operation_xyz
x,y,z
3/4-y,1/4+x,1/4+z
-x,1/2-y,z
1/4+y,1/4-x,1/4+z
-x,-y,-z
1/4+y,3/4-x,3/4-z
x,1/2+y,-z
3/4-y,3/4+x,3/4-z
1/2+x,1/2+y,1/2+z
1/4-y,3/4+x,3/4+z
1/2-x,-y,1/2+z
3/4+y,3/4-x,3/4+z
1/2-x,1/2-y,1/2-z
3/4+y,1/4-x,1/4-z
1/2+x,y,1/2-z
1/4-y,1/4+x,1/4-z
loop_
_atom_site_type_symbol
_atom_site_label
_atom_site_fract_x
_atom_site_fract_y
_atom_site_fract_z
Si Si1 0.747777 0.164477 0.941927
Si Si2 0.405991 0.336936 0.429641
Si Si3 0.815320 0.007625 0.323624
Si Si4 0.344818 0.461454 0.015733
Si Si5 0.755803 0.692623 0.540045
Si Si6 0.112001 0.657348 0.725251
Si Si7 0.909441 0.977583 0.009247
Si Si8 0.000000 0.250000 0.937646
O O1 0.767413 0.157812 0.833218
O O2 0.687020 0.112609 0.980760
O O3 0.730415 0.240808 0.978467
O O4 0.824530 0.146481 0.979007
O O5 0.325968 0.322244 0.450507
O O6 0.414194 0.316888 0.324702
O O7 0.427709 0.417060 0.439724
O O8 0.445627 0.295482 0.506432
O O9 0.871619 0.971002 0.258654
O O10 0.791148 0.080820 0.285824
O O11 0.743833 0.966078 0.327543
O O12 0.849325 0.004777 0.422649
O O13 0.781122 0.697832 0.643863
O O14 0.194850 0.666828 0.722313
O O15 0.062768 0.698048 0.652831
#
# Coordination Sequence:
#
# PCOD9546246 Si02
#       8
#    16  16  16  16  16  16  16   8
#     4  11  23  37  57  91 120 151 196 254 299 358
#     4  10  22  35  55  79 113 157 194 235 285 346
#     4  10  18  38  62  87 117 150 193 248 311 353
#     4  10  22  36  62  90 117 149 196 259 308 343
#     4  10  21  38  56  85 119 149 195 242 297 362
#     4  11  22  35  55  77 120 154 194 237 290 350
#     4  10  21  35  59  85 107 155 200 240 287 355
#     4  12  23  40  50  74 120 165 192 231 290 356
#
# _framework density 21.926635999999998
#
# number of rings (size 3 to 8) (size 9 to 14) (size 15 to 20)
#    0.000    1.600    4.000    1.200    3.733    2.133 
#    0.000    0.000    0.000    0.000    0.000    0.000 
#    0.000    0.000    0.000    0.000    0.000    0.000 
#
# Total GULP energy -334133.519863 kJ/mol
# GULP energy per Si atom -5568.891998 kJ/mol
# Density = 2.187673 g / cm^3
# Si number density = 21.926636 Si / 1000 Ang^3
#
#
#
# Elastic Constant Matrix: (Units=GPa)
#
#
# Indices 1 2 3 4 5 6 
#
# 1 92.3344 20.5016 14.8888 0.0000 0.0000 -4.4677
# 2 20.5016 92.3344 14.8888 0.0000 0.0000 4.4677
# 3 14.8888 14.8888 46.5190 0.0000 0.0000 0.0000
# 4 0.0000 0.0000 0.0000 24.5028 0.0000 0.0000
# 5 0.0000 0.0000 0.0000 0.0000 24.5028 0.0000
# 6 -4.4677 4.4677 0.0000 0.0000 0.0000 18.5246
#
#
#
# Elastic Compliance Matrix: (Units=1/GPa)
#
#
# Indices 1 2 3 4 5 6 
#
# 1 0.012016 -0.002336 -0.003098 0.000000 0.000000 0.003461
# 2 -0.002336 0.012016 -0.003098 0.000000 0.000000 -0.003461
# 3 -0.003098 -0.003098 0.023480 0.000000 0.000000 0.000000
# 4 0.000000 0.000000 0.000000 0.040812 0.000000 0.000000
# 5 0.000000 0.000000 0.000000 0.000000 0.040812 0.000000
# 6 0.003461 -0.003461 0.000000 0.000000 0.000000 0.055652
#
#
# Mechanical properties :
#
#
# Convention : Reuss Voigt Hill
#
# Bulk Modulus (GPa) = 32.84381 36.86070 34.85226
# Shear Modulus (GPa) = 23.58489 25.56663 24.57576
#
# Velocity S-wave (km/s) = 3.28323 3.41839 3.35149
# Velocity P-wave (km/s) = 5.42073 5.69455 5.55933
#
# Compressibility (1/GPa) = 0.03044714
#
# Stress axis : x y z
#
# Youngs Moduli (GPa) = 83.22297 83.22297 42.58985
#
# Poissons Ratio (x) = 0.19440 0.13195
# Poissons Ratio (y) = 0.19440 0.13195
# Poissons Ratio (z) = 0.25784 0.25784
#
# Static dielectric constant tensor:
#      x y z
#    x 1.880080 0.000000 0.000000 
#    y 0.000000 1.880080 0.000000 
#    z 0.000000 0.000000 1.871700 
# 
# From -- ./inp_files/3374.got.cif
#   From: 2010.05.17/outbox.cif.g08.bks.cpg/sg88_2_cif.got.tgz:3374.got - 2010.06.03 19:11:41.
