data_PCOD9546284
_publ_section_title
;
Structure prediction by ZEFSAII (Michael W. Deem and Ramdas Pophale) SiO2 
 PCOD9546284
Probable space group: I 41/A
;
_chemical_formula_sum "Si O2"
_cell_formula_units_Z 48
_cell_length_a 15.894779
_cell_length_b 15.894779
_cell_length_c 8.050765
_cell_angle_alpha 90.000000
_cell_angle_beta 90.000000
_cell_angle_gamma 90.000000
_cell_volume 2033.977468
_symmetry_space_group_name_H-M "I 41/A"
_symmetry_group_IT_number 88
_space_group.IT_coordinate_system_code '2'
_symmetry_cell_setting 'tetragonal'
loop_
_space_group_symop_operation_xyz
x,y,z
3/4-y,1/4+x,1/4+z
-x,1/2-y,z
1/4+y,1/4-x,1/4+z
-x,-y,-z
1/4+y,3/4-x,3/4-z
x,1/2+y,-z
3/4-y,3/4+x,3/4-z
1/2+x,1/2+y,1/2+z
1/4-y,3/4+x,3/4+z
1/2-x,-y,1/2+z
3/4+y,3/4-x,3/4+z
1/2-x,1/2-y,1/2-z
3/4+y,1/4-x,1/4-z
1/2+x,y,1/2-z
1/4-y,1/4+x,1/4-z
loop_
_atom_site_type_symbol
_atom_site_label
_atom_site_fract_x
_atom_site_fract_y
_atom_site_fract_z
Si Si1 0.134958 0.286360 0.643263
Si Si2 0.183379 0.408235 0.901419
Si Si3 0.255507 0.885905 0.563386
O O1 0.098028 0.193977 0.643614
O O2 0.172854 0.319172 0.816188
O O3 0.205207 0.308529 0.509048
O O4 0.177368 0.634172 0.794297
O O5 0.167730 0.479122 0.756553
O O6 0.306077 0.936431 0.416942
#
# Coordination Sequence:
#
# PCOD9546284 Si02
#       3
#    16  16  16
#     4  11  24  38  52  78 116 150 180 221 274 326
#     4  10  19  36  61  85 107 138 185 231 269 320
#     4  10  19  36  61  85 107 138 185 231 269 320
#
# _framework density 23.599081000000002
#
# number of rings (size 3 to 8) (size 9 to 14) (size 15 to 20)
#    0.000    1.667    0.000   10.000    0.000    6.667 
#    0.000   10.000    0.000   16.000    0.000    0.000 
#    0.000    0.000    0.000    0.000    0.000    0.000 
#
# Total GULP energy -133835.313456 kJ/mol
# GULP energy per Si atom -5576.471394 kJ/mol
# Density = 2.354537 g / cm^3
# Si number density = 23.599081 Si / 1000 Ang^3
#
#
#
# Elastic Constant Matrix: (Units=GPa)
#
#
# Indices 1 2 3 4 5 6 
#
# 1 57.2270 27.2192 44.0462 0.0000 0.0000 -4.6887
# 2 27.2192 57.2270 44.0462 0.0000 0.0000 4.6887
# 3 44.0462 44.0462 131.7143 0.0000 0.0000 0.0000
# 4 0.0000 0.0000 0.0000 14.4188 0.0000 0.0000
# 5 0.0000 0.0000 0.0000 0.0000 14.4188 0.0000
# 6 -4.6887 4.6887 0.0000 0.0000 0.0000 50.1331
#
#
#
# Elastic Compliance Matrix: (Units=1/GPa)
#
#
# Indices 1 2 3 4 5 6 
#
# 1 0.026257 -0.008071 -0.006082 0.000000 0.000000 0.003211
# 2 -0.008071 0.026257 -0.006082 0.000000 0.000000 -0.003211
# 3 -0.006082 -0.006082 0.011660 0.000000 0.000000 0.000000
# 4 0.000000 0.000000 0.000000 0.069354 0.000000 0.000000
# 5 0.000000 0.000000 0.000000 0.000000 0.069354 0.000000
# 6 0.003211 -0.003211 0.000000 0.000000 0.000000 0.020547
#
#
# Mechanical properties :
#
#
# Convention : Reuss Voigt Hill
#
# Bulk Modulus (GPa) = 42.18441 52.97686 47.58063
# Shear Modulus (GPa) = 18.39597 24.51791 21.45694
#
# Velocity S-wave (km/s) = 2.79502 3.22675 3.01861
# Velocity P-wave (km/s) = 5.32263 6.03158 5.68816
#
# Compressibility (1/GPa) = 0.02370544
#
# Stress axis : x y z
#
# Youngs Moduli (GPa) = 38.08519 38.08519 85.76622
#
# Poissons Ratio (x) = 0.30738 0.52159
# Poissons Ratio (y) = 0.30738 0.52159
# Poissons Ratio (z) = 0.23162 0.23162
#
# Static dielectric constant tensor:
#      x y z
#    x 1.974240 0.000000 0.000000 
#    y 0.000000 1.974240 0.000000 
#    z 0.000000 0.000000 1.962820 
# 
# From -- ./inp_files/1155.got.cif
#   From: 2010.05.17/outbox.cif.g08.bks.cpg/sg88_1_cif.got.tgz:1155.got - 2010.06.03 19:11:41.
