data_PCOD9546860
_publ_section_title
;
Structure prediction by ZEFSAII (Michael W. Deem and Ramdas Pophale) SiO2 
 PCOD9546860
Probable space group: I 41/A
;
_chemical_formula_sum "Si O2"
_cell_formula_units_Z 60
_cell_length_a 11.394671
_cell_length_b 11.394671
_cell_length_c 20.124927
_cell_angle_alpha 90.000000
_cell_angle_beta 90.000000
_cell_angle_gamma 90.000000
_cell_volume 2612.990882
_symmetry_space_group_name_H-M "I 41/A"
_symmetry_group_IT_number 88
_space_group.IT_coordinate_system_code '2'
_symmetry_cell_setting 'tetragonal'
loop_
_space_group_symop_operation_xyz
x,y,z
3/4-y,1/4+x,1/4+z
-x,1/2-y,z
1/4+y,1/4-x,1/4+z
-x,-y,-z
1/4+y,3/4-x,3/4-z
x,1/2+y,-z
3/4-y,3/4+x,3/4-z
1/2+x,1/2+y,1/2+z
1/4-y,3/4+x,3/4+z
1/2-x,-y,1/2+z
3/4+y,3/4-x,3/4+z
1/2-x,1/2-y,1/2-z
3/4+y,1/4-x,1/4-z
1/2+x,y,1/2-z
1/4-y,1/4+x,1/4-z
loop_
_atom_site_type_symbol
_atom_site_label
_atom_site_fract_x
_atom_site_fract_y
_atom_site_fract_z
Si Si1 0.889866 0.581978 0.984615
Si Si2 0.803874 0.094539 0.562510
Si Si3 0.500000 0.250000 0.734735
Si Si4 0.831590 0.706911 0.117920
Si Si5 0.500000 0.750000 0.625000
O O1 0.771637 0.503311 0.977297
O O2 0.920745 0.664262 0.921328
O O3 0.882710 0.661467 0.049712
O O4 0.000000 0.500000 0.000000
O O5 0.703933 0.161097 0.603646
O O6 0.893970 0.181647 0.523034
O O7 0.886151 0.034844 0.616307
O O8 0.408386 0.192847 0.683443
#
# Coordination Sequence:
#
# PCOD9546860 Si02
#       5
#    16  16   8  16   4
#     4  12  26  45  72 105 144 191 241 308 379 455
#     4  12  25  45  70 102 141 189 244 307 373 451
#     4  12  25  45  70 103 141 190 246 306 374 452
#     4  12  25  44  69 100 139 186 241 302 372 444
#     4  12  26  48  72 108 150 192 248 306 380 460
#
# _framework density 22.962191000000001
#
# number of rings (size 3 to 8) (size 9 to 14) (size 15 to 20)
#    0.000    0.000    0.000   11.200    0.000    4.267 
#    0.000    0.000    0.000    0.000    0.000    0.000 
#    0.000    0.000    0.000    0.000    0.000    0.000 
#
# Total GULP energy -167723.931979 kJ/mol
# GULP energy per Si atom -5590.797733 kJ/mol
# Density = 2.290993 g / cm^3
# Si number density = 22.962191 Si / 1000 Ang^3
#
#
#
# Elastic Constant Matrix: (Units=GPa)
#
#
# Indices 1 2 3 4 5 6 
#
# 1 90.5851 48.6347 54.6320 0.0000 0.0000 -5.5472
# 2 48.6347 90.5851 54.6320 0.0000 0.0000 5.5472
# 3 54.6320 54.6320 132.2022 0.0000 0.0000 0.0000
# 4 0.0000 0.0000 0.0000 22.2554 0.0000 0.0000
# 5 0.0000 0.0000 0.0000 0.0000 22.2554 0.0000
# 6 -5.5472 5.5472 0.0000 0.0000 0.0000 50.6009
#
#
#
# Elastic Compliance Matrix: (Units=1/GPa)
#
#
# Indices 1 2 3 4 5 6 
#
# 1 0.017590 -0.006959 -0.004393 0.000000 0.000000 0.002691
# 2 -0.006959 0.017590 -0.004393 0.000000 0.000000 -0.002691
# 3 -0.004393 -0.004393 0.011195 0.000000 0.000000 0.000000
# 4 0.000000 0.000000 0.000000 0.044933 0.000000 0.000000
# 5 0.000000 0.000000 0.000000 0.000000 0.044933 0.000000
# 6 0.002691 -0.002691 0.000000 0.000000 0.000000 0.020353
#
#
# Mechanical properties :
#
#
# Convention : Reuss Voigt Hill
#
# Bulk Modulus (GPa) = 67.18591 69.90778 68.54684
# Shear Modulus (GPa) = 25.90054 29.38723 27.64388
#
# Velocity S-wave (km/s) = 3.36216 3.58132 3.47347
# Velocity P-wave (km/s) = 6.66296 6.90014 6.78259
#
# Compressibility (1/GPa) = 0.01488407
#
# Stress axis : x y z
#
# Youngs Moduli (GPa) = 56.85028 56.85028 89.32527
#
# Poissons Ratio (x) = 0.39564 0.39242
# Poissons Ratio (y) = 0.39564 0.39242
# Poissons Ratio (z) = 0.24975 0.24975
#
# Static dielectric constant tensor:
#      x y z
#    x 1.831020 0.000000 0.000000 
#    y 0.000000 1.831020 0.000000 
#    z 0.000000 0.000000 1.695650 
# 
# From -- ./inp_files/4444.got.cif
#   From: 2010.05.17/outbox.cif.g08.bks.cpg/sg88_3_cif.got.tgz:4444.got - 2010.06.03 19:11:41.
