data_PCOD9546156
_publ_section_title
;
Structure prediction by ZEFSAII (Michael W. Deem and Ramdas Pophale) SiO2 
 PCOD9546156
Probable space group: I 4/M
;
_chemical_formula_sum "Si O2"
_cell_formula_units_Z 60
_cell_length_a 11.854357
_cell_length_b 11.854357
_cell_length_c 18.019532
_cell_angle_alpha 90.000000
_cell_angle_beta 90.000000
_cell_angle_gamma 90.000000
_cell_volume 2532.208787
_symmetry_space_group_name_H-M "I 4/M"
_symmetry_group_IT_number 87
_symmetry_cell_setting 'tetragonal'
loop_
_space_group_symop_operation_xyz
x,y,z
-y,x,z
-x,-y,z
y,-x,z
-x,-y,-z
y,-x,-z
x,y,-z
-y,x,-z
1/2+x,1/2+y,1/2+z
1/2-y,1/2+x,1/2+z
1/2-x,1/2-y,1/2+z
1/2+y,1/2-x,1/2+z
1/2-x,1/2-y,1/2-z
1/2+y,1/2-x,1/2-z
1/2+x,1/2+y,1/2-z
1/2-y,1/2+x,1/2-z
loop_
_atom_site_type_symbol
_atom_site_label
_atom_site_fract_x
_atom_site_fract_y
_atom_site_fract_z
Si Si1 0.000000 0.500000 0.250000
Si Si2 0.635170 0.620141 0.281447
Si Si3 0.613382 0.821659 0.633650
Si Si4 0.577661 0.336503 0.894600
Si Si5 0.485176 0.307877 0.500000
O O1 0.096014 0.556106 0.303900
O O2 0.507408 0.651296 0.304925
O O3 0.688501 0.723293 0.324509
O O4 0.652705 0.600502 0.194606
O O5 0.710348 0.887543 0.588661
O O6 0.530041 0.771240 0.571727
O O7 0.644080 0.448471 0.918065
O O8 0.599671 0.382281 0.500000
#
# Coordination Sequence:
#
# PCOD9546156 Si02
#       5
#     4  16  16  16   8
#     4  12  28  42  68 116 144 178 236 296 372 430
#     4   9  17  31  56  88 122 166 220 277 337 403
#     4  12  24  42  66  99 143 180 229 299 359 414
#     4   9  19  36  61  94 130 177 233 283 342 413
#     4  11  28  51  74 101 138 195 248 283 346 442
#
# _framework density 23.69473
#
# number of rings (size 3 to 8) (size 9 to 14) (size 15 to 20)
#    0.000    1.733    0.000    7.200    0.000    9.067 
#    0.000    1.333    0.000    1.600    0.000    0.000 
#    0.000    0.000    0.000    0.000    0.000    0.000 
#
# Total GULP energy -167021.339004 kJ/mol
# GULP energy per Si atom -5567.377967 kJ/mol
# Density = 2.364080 g / cm^3
# Si number density = 23.694730 Si / 1000 Ang^3
#
#
#
# Elastic Constant Matrix: (Units=GPa)
#
#
# Indices 1 2 3 4 5 6 
#
# 1 86.7915 20.7992 27.6853 0.0000 0.0000 14.3952
# 2 20.7992 86.7915 27.6853 0.0000 0.0000 -14.3952
# 3 27.6853 27.6853 147.2587 0.0000 0.0000 0.0000
# 4 0.0000 0.0000 0.0000 -10.2556 0.0000 0.0000
# 5 0.0000 0.0000 0.0000 0.0000 -10.2556 0.0000
# 6 14.3952 -14.3952 0.0000 0.0000 0.0000 26.2965
#
#
#
# Elastic Compliance Matrix: (Units=1/GPa)
#
#
# Indices 1 2 3 4 5 6 
#
# 1 0.015099 -0.004809 -0.001935 0.000000 0.000000 -0.010898
# 2 -0.004809 0.015099 -0.001935 0.000000 0.000000 0.010898
# 3 -0.001935 -0.001935 0.007518 0.000000 0.000000 0.000000
# 4 0.000000 0.000000 0.000000 -0.097508 0.000000 0.000000
# 5 0.000000 0.000000 0.000000 0.000000 -0.097508 0.000000
# 6 -0.010898 0.010898 0.000000 0.000000 0.000000 0.049959
#
#
# Mechanical properties :
#
#
# Convention : Reuss Voigt Hill
#
# Bulk Modulus (GPa) = 49.11578 52.57569 50.84573
# Shear Modulus (GPa) = -60.09791 17.46853 -21.31469
#
# Velocity S-wave (km/s) = -5.04167 2.71815 -3.00251
# Velocity P-wave (km/s) = 3.62184 5.66463 3.07980
#
# Compressibility (1/GPa) = 0.02036005
#
# Stress axis : x y z
#
# Youngs Moduli (GPa) = 66.23009 66.23010 133.01075
#
# Poissons Ratio (x) = 0.31849 0.25732
# Poissons Ratio (y) = 0.31849 0.25732
# Poissons Ratio (z) = 0.12813 0.12813
#
# Static dielectric constant tensor:
#      x y z
#    x 1.968410 0.000000 0.000000 
#    y 0.000000 1.968410 0.000000 
#    z 0.000000 0.000000 1.957720 
# 
# From -- ./inp_files/4993.got.cif
#   From: 2010.05.17/outbox.cif.g08.bks.cpg/sg87_3_cif.got.tgz:4993.got - 2010.06.03 19:07:00.
