data_PCOD9546763
_publ_section_title
;
Structure prediction by ZEFSAII (Michael W. Deem and Ramdas Pophale) SiO2 
 PCOD9546763
Probable space group: I 41/A
;
_chemical_formula_sum "Si O2"
_cell_formula_units_Z 48
_cell_length_a 19.286204
_cell_length_b 19.286204
_cell_length_c 4.837042
_cell_angle_alpha 90.000000
_cell_angle_beta 90.000000
_cell_angle_gamma 90.000000
_cell_volume 1799.174847
_symmetry_space_group_name_H-M "I 41/A"
_symmetry_group_IT_number 88
_space_group.IT_coordinate_system_code '2'
_symmetry_cell_setting 'tetragonal'
loop_
_space_group_symop_operation_xyz
x,y,z
3/4-y,1/4+x,1/4+z
-x,1/2-y,z
1/4+y,1/4-x,1/4+z
-x,-y,-z
1/4+y,3/4-x,3/4-z
x,1/2+y,-z
3/4-y,3/4+x,3/4-z
1/2+x,1/2+y,1/2+z
1/4-y,3/4+x,3/4+z
1/2-x,-y,1/2+z
3/4+y,3/4-x,3/4+z
1/2-x,1/2-y,1/2-z
3/4+y,1/4-x,1/4-z
1/2+x,y,1/2-z
1/4-y,1/4+x,1/4-z
loop_
_atom_site_type_symbol
_atom_site_label
_atom_site_fract_x
_atom_site_fract_y
_atom_site_fract_z
Si Si1 0.903131 0.937398 0.943970
Si Si2 0.096878 0.968603 0.574409
Si Si3 0.997323 0.643342 0.293658
O O1 0.832522 0.909410 0.088964
O O2 0.960941 0.879940 0.022037
O O3 0.925848 0.001526 0.133279
O O4 0.889066 0.968591 0.641275
O O5 0.036910 0.922167 0.441223
O O6 0.053033 0.684134 0.482199
#
# Coordination Sequence:
#
# PCOD9546763 Si02
#       3
#    16  16  16
#     4  11  23  41  65  94 130 172 219 273 332 399
#     4  11  23  41  65  94 130 172 219 273 332 399
#     4   9  20  40  66  96 130 171 219 272 334 403
#
# _framework density 26.678894
#
# number of rings (size 3 to 8) (size 9 to 14) (size 15 to 20)
#    0.000    1.667    0.000    4.000    0.000    2.667 
#    0.000   10.000    0.000   24.000    0.000    0.000 
#    0.000    0.000    0.000    0.000    0.000    0.000 
#
# Total GULP energy -134411.413823 kJ/mol
# GULP energy per Si atom -5600.475576 kJ/mol
# Density = 2.661817 g / cm^3
# Si number density = 26.678894 Si / 1000 Ang^3
#
#
#
# Elastic Constant Matrix: (Units=GPa)
#
#
# Indices 1 2 3 4 5 6 
#
# 1 121.2926 55.5949 51.7913 0.0000 0.0000 -3.8771
# 2 55.5949 121.2926 51.7913 0.0000 0.0000 3.8771
# 3 51.7913 51.7913 169.8902 0.0000 0.0000 0.0000
# 4 0.0000 0.0000 0.0000 24.7042 0.0000 0.0000
# 5 0.0000 0.0000 0.0000 0.0000 24.7042 0.0000
# 6 -3.8771 3.8771 0.0000 0.0000 0.0000 49.9842
#
#
#
# Elastic Compliance Matrix: (Units=1/GPa)
#
#
# Indices 1 2 3 4 5 6 
#
# 1 0.011122 -0.004240 -0.002098 0.000000 0.000000 0.001192
# 2 -0.004240 0.011122 -0.002098 0.000000 0.000000 -0.001192
# 3 -0.002098 -0.002098 0.007165 0.000000 0.000000 0.000000
# 4 0.000000 0.000000 0.000000 0.040479 0.000000 0.000000
# 5 0.000000 0.000000 0.000000 0.000000 0.040479 0.000000
# 6 0.001192 -0.001192 0.000000 0.000000 0.000000 0.020191
#
#
# Mechanical properties :
#
#
# Convention : Reuss Voigt Hill
#
# Bulk Modulus (GPa) = 79.76270 81.20336 80.48303
# Shear Modulus (GPa) = 32.97961 36.76506 34.87234
#
# Velocity S-wave (km/s) = 3.51973 3.71625 3.61932
# Velocity P-wave (km/s) = 6.81764 6.99410 6.90643
#
# Compressibility (1/GPa) = 0.01253719
#
# Stress axis : x y z
#
# Youngs Moduli (GPa) = 89.91303 89.91303 139.56208
#
# Poissons Ratio (x) = 0.38123 0.29279
# Poissons Ratio (y) = 0.38123 0.29279
# Poissons Ratio (z) = 0.18863 0.18863
#
# Static dielectric constant tensor:
#      x y z
#    x 2.158140 0.000000 0.000000 
#    y 0.000000 2.158140 0.000000 
#    z 0.000000 0.000000 2.008660 
# 
# From -- ./inp_files/336.got.cif
#   From: 2010.05.17/outbox.cif.g08.bks.cpg/sg88_1_cif.got.tgz:336.got - 2010.06.03 19:11:41.
