data_PCOD9546062
_publ_section_title
;
Structure prediction by ZEFSAII (Michael W. Deem and Ramdas Pophale) SiO2 
 PCOD9546062
Probable space group: I 4/M
;
_chemical_formula_sum "Si O2"
_cell_formula_units_Z 120
_cell_length_a 14.766520
_cell_length_b 14.766520
_cell_length_c 28.082459
_cell_angle_alpha 90.000000
_cell_angle_beta 90.000000
_cell_angle_gamma 90.000000
_cell_volume 6123.383356
_symmetry_space_group_name_H-M "I 4/M"
_symmetry_group_IT_number 87
_symmetry_cell_setting 'tetragonal'
loop_
_space_group_symop_operation_xyz
x,y,z
-y,x,z
-x,-y,z
y,-x,z
-x,-y,-z
y,-x,-z
x,y,-z
-y,x,-z
1/2+x,1/2+y,1/2+z
1/2-y,1/2+x,1/2+z
1/2-x,1/2-y,1/2+z
1/2+y,1/2-x,1/2+z
1/2-x,1/2-y,1/2-z
1/2+y,1/2-x,1/2-z
1/2+x,1/2+y,1/2-z
1/2-y,1/2+x,1/2-z
loop_
_atom_site_type_symbol
_atom_site_label
_atom_site_fract_x
_atom_site_fract_y
_atom_site_fract_z
Si Si1 0.867784 0.922801 0.398431
Si Si2 0.158122 0.569189 0.811364
Si Si3 0.212614 0.455705 0.358548
Si Si4 0.863744 0.379654 0.703565
Si Si5 0.077447 0.867214 0.500000
Si Si6 0.848187 0.986368 0.943260
Si Si7 0.428874 0.632570 0.291295
Si Si8 0.835232 0.186095 0.304080
O O1 0.825231 0.897916 0.449527
O O2 0.814784 0.885594 0.354216
O O3 0.969316 0.881843 0.396145
O O4 0.107107 0.623952 0.853177
O O5 0.120646 0.591398 0.758323
O O6 0.145183 0.462489 0.816867
O O7 0.258585 0.609991 0.807433
O O8 0.183547 0.544756 0.328613
O O9 0.261246 0.476998 0.408729
O O10 0.289546 0.404158 0.327961
O O11 0.803803 0.288573 0.705043
O O12 0.969031 0.882301 0.500000
O O13 0.920787 0.904988 0.933887
O O14 0.826847 0.984335 0.000000
O O15 0.382939 0.535843 0.298443
O O16 0.404599 0.662689 0.238142
#
# Coordination Sequence:
#
# PCOD9546062 Si02
#       8
#    16  16  16  16   8  16  16  16
#     4   9  16  29  51  77 109 145 182 234 303 366
#     4  12  25  40  61  84 122 173 217 254 313 389
#     4  12  24  37  66  90 125 168 214 260 310 382
#     4  12  24  42  59  84 124 170 214 257 312 388
#     4   7  12  24  46  74 100 138 184 220 273 360
#     4   9  20  41  71 105 137 169 210 271 346 402
#     4  11  22  35  54  88 126 156 193 251 318 373
#     4  12  23  36  56  85 117 157 205 261 316 373
#
# _framework density 19.597009
#
# number of rings (size 3 to 8) (size 9 to 14) (size 15 to 20)
#    0.000    1.267    2.667    6.000    3.733    2.133 
#    0.000    0.000    2.933    1.600    0.000    0.000 
#    0.000    0.000    0.000    0.000    0.000    0.000 
#
# Total GULP energy -334983.135255 kJ/mol
# GULP energy per Si atom -5583.052254 kJ/mol
# Density = 1.955241 g / cm^3
# Si number density = 19.597009 Si / 1000 Ang^3
#
#
#
# Elastic Constant Matrix: (Units=GPa)
#
#
# Indices 1 2 3 4 5 6 
#
# 1 92.2293 18.9676 28.6181 0.0000 0.0000 0.9333
# 2 18.9676 92.2293 28.6181 0.0000 0.0000 -0.9333
# 3 28.6181 28.6181 101.2164 0.0000 0.0000 0.0000
# 4 0.0000 0.0000 0.0000 22.3427 0.0000 0.0000
# 5 0.0000 0.0000 0.0000 0.0000 22.3427 0.0000
# 6 0.9333 -0.9333 0.0000 0.0000 0.0000 21.6869
#
#
#
# Elastic Compliance Matrix: (Units=1/GPa)
#
#
# Indices 1 2 3 4 5 6 
#
# 1 0.012095 -0.001570 -0.002976 0.000000 0.000000 -0.000588
# 2 -0.001570 0.012095 -0.002976 0.000000 0.000000 0.000588
# 3 -0.002976 -0.002976 0.011563 0.000000 0.000000 0.000000
# 4 0.000000 0.000000 0.000000 0.044757 0.000000 0.000000
# 5 0.000000 0.000000 0.000000 0.000000 0.044757 0.000000
# 6 -0.000588 0.000588 0.000000 0.000000 0.000000 0.046161
#
#
# Mechanical properties :
#
#
# Convention : Reuss Voigt Hill
#
# Bulk Modulus (GPa) = 48.28829 48.67588 48.48209
# Shear Modulus (GPa) = 25.85663 27.23922 26.54793
#
# Velocity S-wave (km/s) = 3.63632 3.73227 3.68461
# Velocity P-wave (km/s) = 6.50573 6.59284 6.54943
#
# Compressibility (1/GPa) = 0.02070895
#
# Stress axis : x y z
#
# Youngs Moduli (GPa) = 82.68065 82.68065 86.48584
#
# Poissons Ratio (x) = 0.12980 0.25736
# Poissons Ratio (y) = 0.12980 0.25736
# Poissons Ratio (z) = 0.24604 0.24604
#
# Static dielectric constant tensor:
#      x y z
#    x 1.718670 0.000000 0.000000 
#    y 0.000000 1.718670 0.000000 
#    z 0.000000 0.000000 1.692680 
# 
# From -- ./inp_files/6759.got.cif
#   From: 2010.05.17/outbox.cif.g08.bks.cpg/sg87_4_cif.got.tgz:6759.got - 2010.06.03 19:07:00.
