data_PCOD9546577
_publ_section_title
;
Structure prediction by ZEFSAII (Michael W. Deem and Ramdas Pophale) SiO2 
 PCOD9546577
Probable space group: I 41/A
;
_chemical_formula_sum "Si O2"
_cell_formula_units_Z 56
_cell_length_a 17.339972
_cell_length_b 17.339972
_cell_length_c 7.374811
_cell_angle_alpha 90.000000
_cell_angle_beta 90.000000
_cell_angle_gamma 90.000000
_cell_volume 2217.418561
_symmetry_space_group_name_H-M "I 41/A"
_symmetry_group_IT_number 88
_space_group.IT_coordinate_system_code '2'
_symmetry_cell_setting 'tetragonal'
loop_
_space_group_symop_operation_xyz
x,y,z
3/4-y,1/4+x,1/4+z
-x,1/2-y,z
1/4+y,1/4-x,1/4+z
-x,-y,-z
1/4+y,3/4-x,3/4-z
x,1/2+y,-z
3/4-y,3/4+x,3/4-z
1/2+x,1/2+y,1/2+z
1/4-y,3/4+x,3/4+z
1/2-x,-y,1/2+z
3/4+y,3/4-x,3/4+z
1/2-x,1/2-y,1/2-z
3/4+y,1/4-x,1/4-z
1/2+x,y,1/2-z
1/4-y,1/4+x,1/4-z
loop_
_atom_site_type_symbol
_atom_site_label
_atom_site_fract_x
_atom_site_fract_y
_atom_site_fract_z
Si Si1 0.000000 0.250000 0.625000
Si Si2 0.131396 0.151926 0.472396
Si Si3 0.879579 0.370684 0.053069
Si Si4 0.500000 0.250000 0.375000
Si Si5 0.436047 0.467000 0.756513
O O1 0.048529 0.191291 0.506360
O O2 0.135300 0.121822 0.266920
O O3 0.190368 0.223667 0.512756
O O4 0.121126 0.080269 0.609528
O O5 0.955220 0.319067 0.028982
O O6 0.807418 0.325700 0.967449
O O7 0.901731 0.446254 0.942038
#
# Coordination Sequence:
#
# PCOD9546577 Si02
#       5
#     4  16  16   4  16
#     4   8  18  36  66 114 132 190 250 292 362 418
#     4  10  22  41  73 103 149 190 240 308 354 441
#     4  12  26  48  72 112 141 199 242 312 357 447
#     4  12  26  44  86  94 144 198 254 292 370 438
#     4  11  27  45  73 111 148 188 256 291 382 422
#
# _framework density 25.254591000000001
#
# number of rings (size 3 to 8) (size 9 to 14) (size 15 to 20)
#    0.000    1.143    2.857    1.714    8.000    3.429 
#    5.143    0.000    0.000    0.000    0.000    0.000 
#    0.000    0.000    0.000    0.000    0.000    0.000 
#
# Total GULP energy -156636.324103 kJ/mol
# GULP energy per Si atom -5594.154432 kJ/mol
# Density = 2.519711 g / cm^3
# Si number density = 25.254591 Si / 1000 Ang^3
#
#
#
# Elastic Constant Matrix: (Units=GPa)
#
#
# Indices 1 2 3 4 5 6 
#
# 1 80.3920 -27.2175 34.1449 0.0000 0.0000 0.5720
# 2 -27.2175 80.3920 34.1449 0.0000 0.0000 -0.5720
# 3 34.1449 34.1449 135.3248 0.0000 0.0000 0.0000
# 4 0.0000 0.0000 0.0000 20.3336 0.0000 0.0000
# 5 0.0000 0.0000 0.0000 0.0000 20.3336 0.0000
# 6 0.5720 -0.5720 0.0000 0.0000 0.0000 13.5937
#
#
#
# Elastic Compliance Matrix: (Units=1/GPa)
#
#
# Indices 1 2 3 4 5 6 
#
# 1 0.018559 0.009262 -0.007020 0.000000 0.000000 -0.000391
# 2 0.009262 0.018559 -0.007020 0.000000 0.000000 0.000391
# 3 -0.007020 -0.007020 0.010932 0.000000 0.000000 0.000000
# 4 0.000000 0.000000 0.000000 0.049180 0.000000 0.000000
# 5 0.000000 0.000000 0.000000 0.000000 0.049180 0.000000
# 6 -0.000391 0.000391 0.000000 0.000000 0.000000 0.073596
#
#
# Mechanical properties :
#
#
# Convention : Reuss Voigt Hill
#
# Bulk Modulus (GPa) = 25.97717 42.02818 34.00267
# Shear Modulus (GPa) = 20.62765 27.85459 24.24112
#
# Velocity S-wave (km/s) = 2.86105 3.32467 3.10154
# Velocity P-wave (km/s) = 4.60680 5.60499 5.13023
#
# Compressibility (1/GPa) = 0.03849534
#
# Stress axis : x y z
#
# Youngs Moduli (GPa) = 53.88182 53.88182 91.47389
#
# Poissons Ratio (x) = -0.49906 0.64213
# Poissons Ratio (y) = -0.49906 0.64213
# Poissons Ratio (z) = 0.37824 0.37824
#
# Static dielectric constant tensor:
#      x y z
#    x 1.917430 0.000000 0.000000 
#    y 0.000000 1.917430 0.000000 
#    z 0.000000 0.000000 2.135020 
# 
# From -- ./inp_files/1240.got.cif
#   From: 2010.05.17/outbox.cif.g08.bks.cpg/sg88_1_cif.got.tgz:1240.got - 2010.06.03 19:11:41.
