data_PCOD9546117
_publ_section_title
;
Structure prediction by ZEFSAII (Michael W. Deem and Ramdas Pophale) SiO2 
 PCOD9546117
Probable space group: I 4/M
;
_chemical_formula_sum "Si O2"
_cell_formula_units_Z 88
_cell_length_a 10.804861
_cell_length_b 10.804861
_cell_length_c 30.734449
_cell_angle_alpha 90.000000
_cell_angle_beta 90.000000
_cell_angle_gamma 90.000000
_cell_volume 3588.093901
_symmetry_space_group_name_H-M "I 4/M"
_symmetry_group_IT_number 87
_symmetry_cell_setting 'tetragonal'
loop_
_space_group_symop_operation_xyz
x,y,z
-y,x,z
-x,-y,z
y,-x,z
-x,-y,-z
y,-x,-z
x,y,-z
-y,x,-z
1/2+x,1/2+y,1/2+z
1/2-y,1/2+x,1/2+z
1/2-x,1/2-y,1/2+z
1/2+y,1/2-x,1/2+z
1/2-x,1/2-y,1/2-z
1/2+y,1/2-x,1/2-z
1/2+x,1/2+y,1/2-z
1/2-y,1/2+x,1/2-z
loop_
_atom_site_type_symbol
_atom_site_label
_atom_site_fract_x
_atom_site_fract_y
_atom_site_fract_z
Si Si1 0.172323 0.395245 0.263252
Si Si2 0.171471 0.115705 0.682534
Si Si3 0.418104 0.693412 0.452243
Si Si4 0.177695 0.113636 0.500000
Si Si5 0.805295 0.918200 0.854656
Si Si6 0.321845 0.387357 0.091583
O O1 0.158504 0.540685 0.250998
O O2 0.270746 0.349854 0.227752
O O3 0.216170 0.388365 0.313555
O O4 0.237662 0.149812 0.637227
O O5 0.032151 0.161967 0.680958
O O6 0.346267 0.562609 0.452286
O O7 0.395336 0.756105 0.500000
O O8 0.398346 0.750246 0.403732
O O9 0.162394 0.964010 0.500000
O O10 0.237854 0.149347 0.545813
O O11 0.845702 0.063465 0.850924
O O12 0.463279 0.337642 0.091097
#
# Coordination Sequence:
#
# PCOD9546117 Si02
#       6
#    16  16  16   8  16  16
#     4  11  24  37  46  62  89 129 169 206 238 276
#     4   9  17  30  49  72  94 115 147 192 238 286
#     4   7  10  19  39  71 106 127 140 173 232 295
#     4   7   8  12  26  52  86 115 136 160 200 255
#     4   9  17  30  51  79 104 124 154 196 240 292
#     4   7  10  17  32  58  88 113 136 167 210 258
#
# _framework density 24.525556999999999
#
# number of rings (size 3 to 8) (size 9 to 14) (size 15 to 20)
#    0.000    3.545    0.000    4.909    0.000    4.364 
#    0.000    0.000    0.000    0.000    4.727    1.273 
#    0.000    0.000    0.000    0.000    0.000    0.000 
#
# Total GULP energy -245592.729736 kJ/mol
# GULP energy per Si atom -5581.652949 kJ/mol
# Density = 2.446974 g / cm^3
# Si number density = 24.525557 Si / 1000 Ang^3
#
#
#
# Elastic Constant Matrix: (Units=GPa)
#
#
# Indices 1 2 3 4 5 6 
#
# 1 59.9053 14.6961 52.7842 0.0000 0.0000 -7.1395
# 2 14.6961 59.9053 52.7842 0.0000 0.0000 7.1395
# 3 52.7842 52.7842 328.5896 0.0000 0.0000 0.0000
# 4 0.0000 0.0000 0.0000 37.2520 0.0000 0.0000
# 5 0.0000 0.0000 0.0000 0.0000 37.2520 0.0000
# 6 -7.1395 7.1395 0.0000 0.0000 0.0000 24.3406
#
#
#
# Elastic Compliance Matrix: (Units=1/GPa)
#
#
# Indices 1 2 3 4 5 6 
#
# 1 0.020863 -0.003515 -0.002787 0.000000 0.000000 0.007150
# 2 -0.003515 0.020863 -0.002787 0.000000 0.000000 -0.007150
# 3 -0.002787 -0.002787 0.003939 0.000000 0.000000 0.000000
# 4 0.000000 0.000000 0.000000 0.026844 0.000000 0.000000
# 5 0.000000 0.000000 0.000000 0.000000 0.026844 0.000000
# 6 0.007150 -0.007150 0.000000 0.000000 0.000000 0.045278
#
#
# Mechanical properties :
#
#
# Convention : Reuss Voigt Hill
#
# Bulk Modulus (GPa) = 36.37978 76.54769 56.46374
# Shear Modulus (GPa) = 29.07468 41.64461 35.35964
#
# Velocity S-wave (km/s) = 3.44682 4.12516 3.80115
# Velocity P-wave (km/s) = 5.54134 7.34632 6.50672
#
# Compressibility (1/GPa) = 0.02748779
#
# Stress axis : x y z
#
# Youngs Moduli (GPa) = 47.93175 47.93175 253.89466
#
# Poissons Ratio (x) = 0.16847 0.70755
# Poissons Ratio (y) = 0.16847 0.70755
# Poissons Ratio (z) = 0.13358 0.13358
#
# Static dielectric constant tensor:
#      x y z
#    x 1.955360 0.000000 0.000000 
#    y 0.000000 1.955360 0.000000 
#    z 0.000000 0.000000 2.039430 
# 
# From -- ./inp_files/6566.got.cif
#   From: 2010.05.17/outbox.cif.g08.bks.cpg/sg87_4_cif.got.tgz:6566.got - 2010.06.03 19:07:00.
