data_PCOD9546401
_publ_section_title
;
Structure prediction by ZEFSAII (Michael W. Deem and Ramdas Pophale) SiO2 
 PCOD9546401
Probable space group: I 41/A
;
_chemical_formula_sum "Si O2"
_cell_formula_units_Z 88
_cell_length_a 13.307338
_cell_length_b 13.307338
_cell_length_c 20.724817
_cell_angle_alpha 90.000000
_cell_angle_beta 90.000000
_cell_angle_gamma 90.000000
_cell_volume 3670.059289
_symmetry_space_group_name_H-M "I 41/A"
_symmetry_group_IT_number 88
_space_group.IT_coordinate_system_code '2'
_symmetry_cell_setting 'tetragonal'
loop_
_space_group_symop_operation_xyz
x,y,z
3/4-y,1/4+x,1/4+z
-x,1/2-y,z
1/4+y,1/4-x,1/4+z
-x,-y,-z
1/4+y,3/4-x,3/4-z
x,1/2+y,-z
3/4-y,3/4+x,3/4-z
1/2+x,1/2+y,1/2+z
1/4-y,3/4+x,3/4+z
1/2-x,-y,1/2+z
3/4+y,3/4-x,3/4+z
1/2-x,1/2-y,1/2-z
3/4+y,1/4-x,1/4-z
1/2+x,y,1/2-z
1/4-y,1/4+x,1/4-z
loop_
_atom_site_type_symbol
_atom_site_label
_atom_site_fract_x
_atom_site_fract_y
_atom_site_fract_z
Si Si1 0.027496 0.952223 0.647200
Si Si2 0.455508 0.058041 0.298625
Si Si3 0.528179 0.589662 0.407300
Si Si4 0.500000 0.750000 0.125000
Si Si5 0.139985 0.420620 0.669267
Si Si6 0.000000 0.750000 0.875000
Si Si7 0.654895 0.981778 0.485326
O O1 0.029314 0.967901 0.724228
O O2 0.058868 0.837332 0.641984
O O3 0.115213 0.016189 0.613414
O O4 0.919938 0.996197 0.626008
O O5 0.510428 0.155314 0.327548
O O6 0.336654 0.083807 0.303789
O O7 0.490562 0.966094 0.341198
O O8 0.429641 0.587840 0.451673
O O9 0.607472 0.518531 0.447407
O O10 0.557644 0.830907 0.169938
O O11 0.180705 0.486073 0.729440
#
# Coordination Sequence:
#
# PCOD9546401 Si02
#       7
#    16  16  16   4  16   4  16
#     4  10  23  39  66  90 130 176 234 282 335 397
#     4  11  22  38  60  97 136 177 217 273 343 421
#     4  10  21  38  56  97 134 169 221 275 333 429
#     4   8  20  40  68  92 122 172 240 288 336 386
#     4  10  20  41  66  91 123 179 231 289 339 394
#     4  12  24  36  64 104 146 180 224 260 350 448
#     4  10  21  35  63  91 135 178 215 275 350 402
#
# _framework density 23.977813999999999
#
# number of rings (size 3 to 8) (size 9 to 14) (size 15 to 20)
#    0.000    1.818    3.636    0.000    2.545    0.727 
#    0.000    0.909    4.000    2.182    0.000    0.000 
#    0.000    0.000    0.000    0.000    0.000    0.000 
#
# Total GULP energy -245592.713033 kJ/mol
# GULP energy per Si atom -5581.652569 kJ/mol
# Density = 2.392324 g / cm^3
# Si number density = 23.977814 Si / 1000 Ang^3
#
#
#
# Elastic Constant Matrix: (Units=GPa)
#
#
# Indices 1 2 3 4 5 6 
#
# 1 78.2421 61.4915 11.4812 0.0000 0.0000 -0.8883
# 2 61.4915 78.2421 11.4812 0.0000 0.0000 0.8883
# 3 11.4812 11.4812 49.8060 0.0000 0.0000 0.0000
# 4 0.0000 0.0000 0.0000 22.0178 0.0000 0.0000
# 5 0.0000 0.0000 0.0000 0.0000 22.0178 0.0000
# 6 -0.8883 0.8883 0.0000 0.0000 0.0000 46.8096
#
#
#
# Elastic Compliance Matrix: (Units=1/GPa)
#
#
# Indices 1 2 3 4 5 6 
#
# 1 0.033629 -0.026191 -0.001715 0.000000 0.000000 0.001135
# 2 -0.026191 0.033629 -0.001715 0.000000 0.000000 -0.001135
# 3 -0.001715 -0.001715 0.020868 0.000000 0.000000 0.000000
# 4 0.000000 0.000000 0.000000 0.045418 0.000000 0.000000
# 5 0.000000 0.000000 0.000000 0.000000 0.045418 0.000000
# 6 0.001135 -0.001135 0.000000 0.000000 0.000000 0.021406
#
#
# Mechanical properties :
#
#
# Convention : Reuss Voigt Hill
#
# Bulk Modulus (GPa) = 34.61848 41.68865 38.15357
# Shear Modulus (GPa) = 18.57098 26.29145 22.43122
#
# Velocity S-wave (km/s) = 2.78602 3.31492 3.06191
# Velocity P-wave (km/s) = 4.98179 5.66354 5.33357
#
# Compressibility (1/GPa) = 0.02888630
#
# Stress axis : x y z
#
# Youngs Moduli (GPa) = 29.73623 29.73623 47.91931
#
# Poissons Ratio (x) = 0.77881 0.08216
# Poissons Ratio (y) = 0.77881 0.08216
# Poissons Ratio (z) = 0.05099 0.05099
#
# Static dielectric constant tensor:
#      x y z
#    x 1.981370 0.000000 0.000000 
#    y 0.000000 1.981370 0.000000 
#    z 0.000000 0.000000 1.836160 
# 
# From -- ./inp_files/5258.got.cif
#   From: 2010.05.17/outbox.cif.g08.bks.cpg/sg88_3_cif.got.tgz:5258.got - 2010.06.03 19:11:41.
