data_PCOD9546454
_publ_section_title
;
Structure prediction by ZEFSAII (Michael W. Deem and Ramdas Pophale) SiO2 
 PCOD9546454
Probable space group: I 41/A
;
_chemical_formula_sum "Si O2"
_cell_formula_units_Z 48
_cell_length_a 17.078996
_cell_length_b 17.078996
_cell_length_c 8.638512
_cell_angle_alpha 90.000000
_cell_angle_beta 90.000000
_cell_angle_gamma 90.000000
_cell_volume 2519.785744
_symmetry_space_group_name_H-M "I 41/A"
_symmetry_group_IT_number 88
_space_group.IT_coordinate_system_code '2'
_symmetry_cell_setting 'tetragonal'
loop_
_space_group_symop_operation_xyz
x,y,z
3/4-y,1/4+x,1/4+z
-x,1/2-y,z
1/4+y,1/4-x,1/4+z
-x,-y,-z
1/4+y,3/4-x,3/4-z
x,1/2+y,-z
3/4-y,3/4+x,3/4-z
1/2+x,1/2+y,1/2+z
1/4-y,3/4+x,3/4+z
1/2-x,-y,1/2+z
3/4+y,3/4-x,3/4+z
1/2-x,1/2-y,1/2-z
3/4+y,1/4-x,1/4-z
1/2+x,y,1/2-z
1/4-y,1/4+x,1/4-z
loop_
_atom_site_type_symbol
_atom_site_label
_atom_site_fract_x
_atom_site_fract_y
_atom_site_fract_z
Si Si1 0.445754 0.853567 0.697395
Si Si2 0.595714 0.684951 0.052037
Si Si3 0.748769 0.596672 0.986591
O O1 0.536738 0.847166 0.653553
O O2 0.408765 0.938435 0.671690
O O3 0.431705 0.830653 0.876238
O O4 0.527199 0.651228 0.161426
O O5 0.678859 0.643333 0.071359
O O6 0.795758 0.541216 0.103215
#
# Coordination Sequence:
#
# PCOD9546454 Si02
#       3
#    16  16  16
#     4  10  21  38  60  84 112 152 193 228 281 343
#     4  10  21  38  60  84 112 152 193 228 281 343
#     4  10  24  38  56  88 116 148 190 236 288 328
#
# _framework density 19.049237999999999
#
# number of rings (size 3 to 8) (size 9 to 14) (size 15 to 20)
#    0.000    2.000    0.000    4.000    0.000   18.667 
#    0.000    0.000    0.000    0.000    0.000    0.000 
#    0.000    0.000    0.000    0.000    0.000    0.000 
#
# Total GULP energy -134018.719881 kJ/mol
# GULP energy per Si atom -5584.113328 kJ/mol
# Density = 1.900588 g / cm^3
# Si number density = 19.049238 Si / 1000 Ang^3
#
#
#
# Elastic Constant Matrix: (Units=GPa)
#
#
# Indices 1 2 3 4 5 6 
#
# 1 23.1767 -2.3935 -1.8649 0.0000 0.0000 4.0429
# 2 -2.3935 23.1767 -1.8649 0.0000 0.0000 -4.0429
# 3 -1.8649 -1.8649 38.5073 0.0000 0.0000 0.0000
# 4 0.0000 0.0000 0.0000 33.0714 0.0000 0.0000
# 5 0.0000 0.0000 0.0000 0.0000 33.0714 0.0000
# 6 4.0429 -4.0429 0.0000 0.0000 0.0000 47.6513
#
#
#
# Elastic Compliance Matrix: (Units=1/GPa)
#
#
# Indices 1 2 3 4 5 6 
#
# 1 0.044362 0.004176 0.002351 0.000000 0.000000 -0.003410
# 2 0.004176 0.044362 0.002351 0.000000 0.000000 0.003410
# 3 0.002351 0.002351 0.026197 0.000000 0.000000 0.000000
# 4 0.000000 0.000000 0.000000 0.030238 0.000000 0.000000
# 5 0.000000 0.000000 0.000000 0.000000 0.030238 0.000000
# 6 -0.003410 0.003410 0.000000 0.000000 0.000000 0.021564
#
#
# Mechanical properties :
#
#
# Convention : Reuss Voigt Hill
#
# Bulk Modulus (GPa) = 7.53723 8.06824 7.80274
# Shear Modulus (GPa) = 22.37827 28.82442 25.60135
#
# Velocity S-wave (km/s) = 3.43119 3.89415 3.66998
# Velocity P-wave (km/s) = 4.43427 4.94609 4.69716
#
# Compressibility (1/GPa) = 0.13267470
#
# Stress axis : x y z
#
# Youngs Moduli (GPa) = 22.54185 22.54185 38.17265
#
# Poissons Ratio (x) = -0.09413 -0.08973
# Poissons Ratio (y) = -0.09413 -0.08973
# Poissons Ratio (z) = -0.05299 -0.05299
#
# Static dielectric constant tensor:
#      x y z
#    x 1.659940 0.000000 0.000000 
#    y 0.000000 1.659940 0.000000 
#    z 0.000000 0.000000 1.651950 
# 
# From -- ./inp_files/1124.got.cif
#   From: 2010.05.17/outbox.cif.g08.bks.cpg/sg88_1_cif.got.tgz:1124.got - 2010.06.03 19:11:41.
