data_PCOD9546385
_publ_section_title
;
Structure prediction by ZEFSAII (Michael W. Deem and Ramdas Pophale) SiO2 
 PCOD9546385
Probable space group: I 41/A
;
_chemical_formula_sum "Si O2"
_cell_formula_units_Z 72
_cell_length_a 10.058643
_cell_length_b 10.058643
_cell_length_c 25.610471
_cell_angle_alpha 90.000000
_cell_angle_beta 90.000000
_cell_angle_gamma 90.000000
_cell_volume 2591.172671
_symmetry_space_group_name_H-M "I 41/A"
_symmetry_group_IT_number 88
_space_group.IT_coordinate_system_code '2'
_symmetry_cell_setting 'tetragonal'
loop_
_space_group_symop_operation_xyz
x,y,z
3/4-y,1/4+x,1/4+z
-x,1/2-y,z
1/4+y,1/4-x,1/4+z
-x,-y,-z
1/4+y,3/4-x,3/4-z
x,1/2+y,-z
3/4-y,3/4+x,3/4-z
1/2+x,1/2+y,1/2+z
1/4-y,3/4+x,3/4+z
1/2-x,-y,1/2+z
3/4+y,3/4-x,3/4+z
1/2-x,1/2-y,1/2-z
3/4+y,1/4-x,1/4-z
1/2+x,y,1/2-z
1/4-y,1/4+x,1/4-z
loop_
_atom_site_type_symbol
_atom_site_label
_atom_site_fract_x
_atom_site_fract_y
_atom_site_fract_z
Si Si1 0.413452 0.476557 0.159154
Si Si2 0.877562 0.894055 0.152118
Si Si3 0.000000 0.250000 0.125000
Si Si4 0.000000 0.250000 0.625000
Si Si5 0.581004 0.452257 0.444776
Si Si6 0.306321 0.342831 0.497974
O O1 0.259940 0.516310 0.152784
O O2 0.491708 0.407491 0.110933
O O3 0.484999 0.620921 0.160132
O O4 0.466319 0.417611 0.214566
O O5 0.958123 0.941433 0.100464
O O6 0.930203 0.936284 0.208505
O O7 0.930186 0.356943 0.161445
O O8 0.447640 0.400816 0.474490
O O9 0.711243 0.523371 0.467387
#
# Coordination Sequence:
#
# PCOD9546385 Si02
#       6
#    16  16   4   4  16  16
#     4   9  20  38  64  88 126 166 213 263 321 373
#     4  10  20  40  61  90 124 164 208 261 316 380
#     4  12  20  36  60  80 130 160 192 248 316 372
#     4   8  16  40  64  88 126 172 204 260 324 376
#     4  10  22  36  57  87 122 159 204 250 313 373
#     4  10  21  38  60  91 119 161 212 259 311 381
#
# _framework density 27.786646999999999
#
# number of rings (size 3 to 8) (size 9 to 14) (size 15 to 20)
#    0.000    2.222    2.222    0.000    3.111    0.000 
#    0.000   17.778    0.000    0.000    0.000    0.000 
#    0.000    0.000    0.000    0.000    0.000    0.000 
#
# Total GULP energy -200650.504057 kJ/mol
# GULP energy per Si atom -5573.625113 kJ/mol
# Density = 2.772340 g / cm^3
# Si number density = 27.786647 Si / 1000 Ang^3
#
#
#
# Elastic Constant Matrix: (Units=GPa)
#
#
# Indices 1 2 3 4 5 6 
#
# 1 59.6360 22.0175 10.5546 0.0000 0.0000 1.4858
# 2 22.0175 59.6360 10.5546 0.0000 0.0000 -1.4858
# 3 10.5546 10.5546 77.9281 0.0000 0.0000 0.0000
# 4 0.0000 0.0000 0.0000 41.5628 0.0000 0.0000
# 5 0.0000 0.0000 0.0000 0.0000 41.5628 0.0000
# 6 1.4858 -1.4858 0.0000 0.0000 0.0000 39.3902
#
#
#
# Elastic Compliance Matrix: (Units=1/GPa)
#
#
# Indices 1 2 3 4 5 6 
#
# 1 0.019677 -0.006985 -0.001719 0.000000 0.000000 -0.001006
# 2 -0.006985 0.019677 -0.001719 0.000000 0.000000 0.001006
# 3 -0.001719 -0.001719 0.013298 0.000000 0.000000 0.000000
# 4 0.000000 0.000000 0.000000 0.024060 0.000000 0.000000
# 5 0.000000 0.000000 0.000000 0.000000 0.024060 0.000000
# 6 -0.001006 0.001006 0.000000 0.000000 0.000000 0.025463
#
#
# Mechanical properties :
#
#
# Convention : Reuss Voigt Hill
#
# Bulk Modulus (GPa) = 31.44174 31.49480 31.46827
# Shear Modulus (GPa) = 31.70932 34.77471 33.24201
#
# Velocity S-wave (km/s) = 3.38179 3.54148 3.46255
# Velocity P-wave (km/s) = 5.15642 5.29923 5.22831
#
# Compressibility (1/GPa) = 0.03180486
#
# Stress axis : x y z
#
# Youngs Moduli (GPa) = 50.82154 50.82155 75.19950
#
# Poissons Ratio (x) = 0.35501 0.12926
# Poissons Ratio (y) = 0.35501 0.12926
# Poissons Ratio (z) = 0.08736 0.08736
#
# Static dielectric constant tensor:
#      x y z
#    x 2.235050 0.000000 0.000000 
#    y 0.000000 2.235050 0.000000 
#    z 0.000000 0.000000 2.829290 
# 
# From -- ./inp_files/5774.got.cif
#   From: 2010.05.17/outbox.cif.g08.bks.cpg/sg88_3_cif.got.tgz:5774.got - 2010.06.03 19:11:41.
