data_PCOD9546791
_publ_section_title
;
Structure prediction by ZEFSAII (Michael W. Deem and Ramdas Pophale) SiO2 
 PCOD9546791
Probable space group: I 41/A
;
_chemical_formula_sum "Si O2"
_cell_formula_units_Z 64
_cell_length_a 21.037564
_cell_length_b 21.037564
_cell_length_c 5.212966
_cell_angle_alpha 90.000000
_cell_angle_beta 90.000000
_cell_angle_gamma 90.000000
_cell_volume 2307.149796
_symmetry_space_group_name_H-M "I 41/A"
_symmetry_group_IT_number 88
_space_group.IT_coordinate_system_code '2'
_symmetry_cell_setting 'tetragonal'
loop_
_space_group_symop_operation_xyz
x,y,z
3/4-y,1/4+x,1/4+z
-x,1/2-y,z
1/4+y,1/4-x,1/4+z
-x,-y,-z
1/4+y,3/4-x,3/4-z
x,1/2+y,-z
3/4-y,3/4+x,3/4-z
1/2+x,1/2+y,1/2+z
1/4-y,3/4+x,3/4+z
1/2-x,-y,1/2+z
3/4+y,3/4-x,3/4+z
1/2-x,1/2-y,1/2-z
3/4+y,1/4-x,1/4-z
1/2+x,y,1/2-z
1/4-y,1/4+x,1/4-z
loop_
_atom_site_type_symbol
_atom_site_label
_atom_site_fract_x
_atom_site_fract_y
_atom_site_fract_z
Si Si1 0.367698 0.598802 0.986948
Si Si2 0.484563 0.039344 0.248197
Si Si3 0.459840 0.839648 0.566098
Si Si4 0.155662 0.486440 0.945617
O O1 0.410845 0.563114 0.763837
O O2 0.395478 0.669461 0.937304
O O3 0.292969 0.604054 0.917351
O O4 0.383411 0.558759 0.241174
O O5 0.533224 0.097709 0.265213
O O6 0.500000 0.000000 0.500000
O O7 0.500000 0.000000 0.000000
O O8 0.532362 0.819717 0.521462
O O9 0.212081 0.438180 0.007296
#
# Coordination Sequence:
#
# PCOD9546791 Si02
#       4
#    16  16  16  16
#     4  11  24  41  73  99 151 194 253 311 385 459
#     4  11  26  46  74 112 147 193 251 314 377 457
#     4   9  21  47  74 105 148 200 255 315 383 461
#     4  12  23  40  63 104 144 197 242 312 385 454
#
# _framework density 27.739856
#
# number of rings (size 3 to 8) (size 9 to 14) (size 15 to 20)
#    0.000    1.250    2.500    1.500   10.500    0.000 
#    0.000    2.500    0.000    6.000    0.000    0.000 
#    0.000    0.000    0.000    0.000    0.000    0.000 
#
# Total GULP energy -178611.933809 kJ/mol
# GULP energy per Si atom -5581.622932 kJ/mol
# Density = 2.767672 g / cm^3
# Si number density = 27.739856 Si / 1000 Ang^3
#
#
#
# Elastic Constant Matrix: (Units=GPa)
#
#
# Indices 1 2 3 4 5 6 
#
# 1 139.6553 49.8959 39.4335 0.0000 0.0000 -43.1917
# 2 49.8959 139.6553 39.4335 0.0000 0.0000 43.1917
# 3 39.4335 39.4335 135.9752 0.0000 0.0000 0.0000
# 4 0.0000 0.0000 0.0000 20.4585 0.0000 0.0000
# 5 0.0000 0.0000 0.0000 0.0000 20.4585 0.0000
# 6 -43.1917 43.1917 0.0000 0.0000 0.0000 40.6073
#
#
#
# Elastic Compliance Matrix: (Units=1/GPa)
#
#
# Indices 1 2 3 4 5 6 
#
# 1 -0.232645 0.238645 -0.001740 0.000000 0.000000 -0.501285
# 2 0.238645 -0.232645 -0.001740 0.000000 0.000000 0.501285
# 3 -0.001740 -0.001740 0.008363 0.000000 0.000000 0.000000
# 4 0.000000 0.000000 0.000000 0.048879 0.000000 0.000000
# 5 0.000000 0.000000 0.000000 0.000000 0.048879 0.000000
# 6 -0.501285 0.501285 0.000000 0.000000 0.000000 -1.041751
#
#
# Mechanical properties :
#
#
# Convention : Reuss Voigt Hill
#
# Bulk Modulus (GPa) = 74.61054 74.75686 74.68370
# Shear Modulus (GPa) = -2.67841 35.40641 16.36400
#
# Velocity S-wave (km/s) = -0.98369 3.57651 2.43144
# Velocity P-wave (km/s) = 5.06604 6.63800 5.90456
#
# Compressibility (1/GPa) = 0.01340293
#
# Stress axis : x y z
#
# Youngs Moduli (GPa) = -4.29839 -4.29839 119.56803
#
# Poissons Ratio (x) = 1.02579 0.20804
# Poissons Ratio (y) = 1.02579 0.20804
# Poissons Ratio (z) = -0.00748 -0.00748
#
# Static dielectric constant tensor:
#      x y z
#    x -5.073230 0.000000 0.000000 
#    y 0.000000 -5.073230 0.000000 
#    z 0.000000 0.000000 2.430110 
# 
# From -- ./inp_files/591.got.cif
#   From: 2010.05.17/outbox.cif.g08.bks.cpg/sg88_1_cif.got.tgz:591.got - 2010.06.03 19:11:41.
