data_PCOD9546977
_publ_section_title
;
Structure prediction by ZEFSAII (Michael W. Deem and Ramdas Pophale) SiO2 
 PCOD9546977
Probable space group: P 4 2 2
;
_chemical_formula_sum "Si O2"
_cell_formula_units_Z 48
_cell_length_a 12.102427
_cell_length_b 12.102427
_cell_length_c 19.157587
_cell_angle_alpha 90.000000
_cell_angle_beta 90.000000
_cell_angle_gamma 90.000000
_cell_volume 2805.987616
_symmetry_space_group_name_H-M "P 4 2 2"
_symmetry_group_IT_number 89
_symmetry_cell_setting 'tetragonal'
loop_
_space_group_symop_operation_xyz
x,y,z
-y,x,z
-x,-y,z
y,-x,z
x,-y,-z
-x,y,-z
y,x,-z
-y,-x,-z
loop_
_atom_site_type_symbol
_atom_site_label
_atom_site_fract_x
_atom_site_fract_y
_atom_site_fract_z
Si Si1 0.184754 0.985823 0.919390
Si Si2 0.787927 0.581440 0.715664
Si Si3 0.753226 0.642693 0.217912
Si Si4 0.622760 0.995025 0.189592
Si Si5 0.371590 0.363561 0.923464
Si Si6 0.686895 0.490483 0.420782
O O1 0.097728 0.886422 0.907993
O O2 0.286045 0.967684 0.867678
O O3 0.220674 0.000000 0.000000
O O4 0.732697 0.485889 0.763846
O O5 0.716243 0.690970 0.725793
O O6 0.777919 0.531438 0.638332
O O7 0.906859 0.608805 0.748174
O O8 0.884397 0.653643 0.218076
O O9 0.703689 0.672722 0.142206
O O10 0.500000 0.000000 0.156576
O O11 0.504942 0.350278 0.920261
O O12 0.328653 0.328653 0.000000
O O13 0.610828 0.599649 0.412524
O O14 0.729619 0.500000 0.500000
#
# Coordination Sequence:
#
# PCOD9546977 Si02
#       6
#     8   8   8   8   8   8
#     4   9  18  37  61  75  89 128 191 250 286 316
#     4  11  20  33  55  78 109 143 179 224 272 329
#     4  11  20  33  52  74 105 142 182 222 276 330
#     4  10  23  36  46  74 111 144 179 217 274 345
#     4   9  17  30  47  71  99 127 172 225 270 321
#     4   9  17  30  53  89 114 136 173 220 268 319
#
# _framework density 17.106275
#
# number of rings (size 3 to 8) (size 9 to 14) (size 15 to 20)
#    0.000    2.167    3.333    2.500    0.000    0.667 
#    6.000    0.000    0.000    4.500    0.000    0.000 
#    0.000    0.000    0.000    0.000   14.000    0.000 
#
# Total GULP energy -267507.777977 kJ/mol
# GULP energy per Si atom -5573.078708 kJ/mol
# Density = 1.706734 g / cm^3
# Si number density = 17.106275 Si / 1000 Ang^3
#
#
#
# Elastic Constant Matrix: (Units=GPa)
#
#
# Indices 1 2 3 4 5 6 
#
# 1 64.8276 36.0922 47.7648 0.0000 0.0000 0.0000
# 2 36.0922 64.8276 47.7648 0.0000 0.0000 0.0000
# 3 47.7648 47.7648 143.7386 0.0000 0.0000 0.0000
# 4 0.0000 0.0000 0.0000 19.4200 0.0000 0.0000
# 5 0.0000 0.0000 0.0000 0.0000 19.4200 0.0000
# 6 0.0000 0.0000 0.0000 0.0000 0.0000 12.6561
#
#
#
# Elastic Compliance Matrix: (Units=1/GPa)
#
#
# Indices 1 2 3 4 5 6 
#
# 1 0.024628 -0.010172 -0.004804 0.000000 0.000000 0.000000
# 2 -0.010172 0.024628 -0.004804 0.000000 0.000000 0.000000
# 3 -0.004804 -0.004804 0.010150 0.000000 0.000000 0.000000
# 4 0.000000 0.000000 0.000000 0.051493 0.000000 0.000000
# 5 0.000000 0.000000 0.000000 0.000000 0.051493 0.000000
# 6 0.000000 0.000000 0.000000 0.000000 0.000000 0.079013
#
#
# Mechanical properties :
#
#
# Convention : Reuss Voigt Hill
#
# Bulk Modulus (GPa) = 50.38628 59.62638 55.00633
# Shear Modulus (GPa) = 17.38640 19.75068 18.56854
#
# Velocity S-wave (km/s) = 3.19152 3.40161 3.29824
# Velocity P-wave (km/s) = 6.56505 7.09648 6.83593
#
# Compressibility (1/GPa) = 0.01984667
#
# Stress axis : x y z
#
# Youngs Moduli (GPa) = 40.60388 40.60388 98.52500
#
# Poissons Ratio (x) = 0.41303 0.47329
# Poissons Ratio (y) = 0.41303 0.47329
# Poissons Ratio (z) = 0.19505 0.19505
#
# Static dielectric constant tensor:
#      x y z
#    x 1.599990 0.000000 0.000000 
#    y 0.000000 1.599990 0.000000 
#    z 0.000000 0.000000 1.605120 
# 
# From -- ./inp_files/2388.got.cif
#   From: 2010.05.17/outbox.cif.g08.bks.cpg/sg89_2_cif.got.tgz:2388.got - 2010.06.03 19:15:31.
