data_PCOD9546222
_publ_section_title
;
Structure prediction by ZEFSAII (Michael W. Deem and Ramdas Pophale) SiO2 
 PCOD9546222
Probable space group: I 41/A
;
_chemical_formula_sum "Si O2"
_cell_formula_units_Z 128
_cell_length_a 21.188332
_cell_length_b 21.188332
_cell_length_c 17.975991
_cell_angle_alpha 90.000000
_cell_angle_beta 90.000000
_cell_angle_gamma 90.000000
_cell_volume 8070.238703
_symmetry_space_group_name_H-M "I 41/A"
_symmetry_group_IT_number 88
_space_group.IT_coordinate_system_code '2'
_symmetry_cell_setting 'tetragonal'
loop_
_space_group_symop_operation_xyz
x,y,z
3/4-y,1/4+x,1/4+z
-x,1/2-y,z
1/4+y,1/4-x,1/4+z
-x,-y,-z
1/4+y,3/4-x,3/4-z
x,1/2+y,-z
3/4-y,3/4+x,3/4-z
1/2+x,1/2+y,1/2+z
1/4-y,3/4+x,3/4+z
1/2-x,-y,1/2+z
3/4+y,3/4-x,3/4+z
1/2-x,1/2-y,1/2-z
3/4+y,1/4-x,1/4-z
1/2+x,y,1/2-z
1/4-y,1/4+x,1/4-z
loop_
_atom_site_type_symbol
_atom_site_label
_atom_site_fract_x
_atom_site_fract_y
_atom_site_fract_z
Si Si1 0.175234 0.507656 0.695445
Si Si2 0.681607 0.683377 0.582048
Si Si3 0.254120 0.359905 0.184840
Si Si4 0.947066 0.626331 0.991380
Si Si5 0.777903 0.467282 0.703516
Si Si6 0.933320 0.937830 0.783221
Si Si7 0.299466 0.594258 0.891691
Si Si8 0.584255 0.616879 0.471520
O O1 0.224809 0.566711 0.688127
O O2 0.173411 0.471245 0.618313
O O3 0.207520 0.469168 0.762048
O O4 0.107530 0.532283 0.718043
O O5 0.651052 0.708155 0.658498
O O6 0.706883 0.744212 0.538682
O O7 0.734360 0.633496 0.606102
O O8 0.631104 0.652150 0.527476
O O9 0.319681 0.324648 0.203513
O O10 0.216434 0.347142 0.108709
O O11 0.205019 0.335623 0.246905
O O12 0.887745 0.673263 0.977735
O O13 0.015065 0.646986 0.021880
O O14 0.819483 0.446443 0.773731
O O15 0.794380 0.535551 0.666436
O O16 0.356358 0.637201 0.860539
#
# Coordination Sequence:
#
# PCOD9546222 Si02
#       8
#    16  16  16  16  16  16  16  16
#     4  10  18  30  47  71  95 124 156 201 259 304
#     4  12  20  31  47  67 102 137 172 206 237 286
#     4  11  17  29  45  67  95 131 167 205 238 292
#     4  11  21  30  46  66 101 143 175 204 236 283
#     4  10  18  29  51  75  98 118 159 212 258 307
#     4  11  22  32  44  68 101 137 172 198 241 291
#     4  11  19  31  50  77  96 126 164 212 256 294
#     4  12  20  31  45  67  99 134 175 209 237 288
#
# _framework density 15.860745
#
# number of rings (size 3 to 8) (size 9 to 14) (size 15 to 20)
#    0.000    1.000    7.500    2.625    0.000    0.500 
#    0.000    1.250    0.000    0.750    0.000    0.000 
#    0.000    0.000    0.000    0.000    0.000    0.000 
#
# Total GULP energy -356494.524625 kJ/mol
# GULP energy per Si atom -5570.226947 kJ/mol
# Density = 1.582465 g / cm^3
# Si number density = 15.860745 Si / 1000 Ang^3
#
#
#
# Elastic Constant Matrix: (Units=GPa)
#
#
# Indices 1 2 3 4 5 6 
#
# 1 38.5011 10.9501 23.9144 0.0000 0.0000 -3.7130
# 2 10.9501 38.5011 23.9144 0.0000 0.0000 3.7130
# 3 23.9144 23.9144 90.5505 0.0000 0.0000 0.0000
# 4 0.0000 0.0000 0.0000 18.8412 0.0000 0.0000
# 5 0.0000 0.0000 0.0000 0.0000 18.8412 0.0000
# 6 -3.7130 3.7130 0.0000 0.0000 0.0000 6.0869
#
#
#
# Elastic Compliance Matrix: (Units=1/GPa)
#
#
# Indices 1 2 3 4 5 6 
#
# 1 0.035299 -0.008139 -0.007173 0.000000 0.000000 0.026497
# 2 -0.008139 0.035299 -0.007173 0.000000 0.000000 -0.026497
# 3 -0.007173 -0.007173 0.014832 0.000000 0.000000 0.000000
# 4 0.000000 0.000000 0.000000 0.053075 0.000000 0.000000
# 5 0.000000 0.000000 0.000000 0.000000 0.053075 0.000000
# 6 0.026497 -0.026497 0.000000 0.000000 0.000000 0.196615
#
#
# Mechanical properties :
#
#
# Convention : Reuss Voigt Hill
#
# Bulk Modulus (GPa) = 24.71584 31.67896 28.19740
# Shear Modulus (GPa) = 11.19440 16.00542 13.59991
#
# Velocity S-wave (km/s) = 2.65956 3.18011 2.93141
# Velocity P-wave (km/s) = 5.00478 5.78798 5.41057
#
# Compressibility (1/GPa) = 0.04045988
#
# Stress axis : x y z
#
# Youngs Moduli (GPa) = 28.32955 28.32955 67.42055
#
# Poissons Ratio (x) = 0.23058 0.48360
# Poissons Ratio (y) = 0.23058 0.48360
# Poissons Ratio (z) = 0.20320 0.20320
#
# Static dielectric constant tensor:
#      x y z
#    x 1.566510 0.000000 0.000000 
#    y 0.000000 1.566510 0.000000 
#    z 0.000000 0.000000 1.546750 
# 
# From -- ./inp_files/4081.got.cif
#   From: 2010.05.17/outbox.cif.g08.bks.cpg/sg88_3_cif.got.tgz:4081.got - 2010.06.03 19:11:41.
