data_PCOD9546625
_publ_section_title
;
Structure prediction by ZEFSAII (Michael W. Deem and Ramdas Pophale) SiO2 
 PCOD9546625
Probable space group: I 41/A
;
_chemical_formula_sum "Si O2"
_cell_formula_units_Z 88
_cell_length_a 13.660764
_cell_length_b 13.660764
_cell_length_c 21.977972
_cell_angle_alpha 90.000000
_cell_angle_beta 90.000000
_cell_angle_gamma 90.000000
_cell_volume 4101.451620
_symmetry_space_group_name_H-M "I 41/A"
_symmetry_group_IT_number 88
_space_group.IT_coordinate_system_code '2'
_symmetry_cell_setting 'tetragonal'
loop_
_space_group_symop_operation_xyz
x,y,z
3/4-y,1/4+x,1/4+z
-x,1/2-y,z
1/4+y,1/4-x,1/4+z
-x,-y,-z
1/4+y,3/4-x,3/4-z
x,1/2+y,-z
3/4-y,3/4+x,3/4-z
1/2+x,1/2+y,1/2+z
1/4-y,3/4+x,3/4+z
1/2-x,-y,1/2+z
3/4+y,3/4-x,3/4+z
1/2-x,1/2-y,1/2-z
3/4+y,1/4-x,1/4-z
1/2+x,y,1/2-z
1/4-y,1/4+x,1/4-z
loop_
_atom_site_type_symbol
_atom_site_label
_atom_site_fract_x
_atom_site_fract_y
_atom_site_fract_z
Si Si1 0.615550 0.416181 0.996296
Si Si2 0.500000 0.750000 0.935892
Si Si3 0.295148 0.561986 0.881248
Si Si4 0.462839 0.551976 0.791835
Si Si5 0.683843 0.864871 0.357527
Si Si6 0.635030 0.710907 0.592387
O O1 0.544844 0.333980 0.022093
O O2 0.658541 0.473081 0.054941
O O3 0.702796 0.347492 0.970773
O O4 0.577977 0.492765 0.946234
O O5 0.582374 0.680210 0.902370
O O6 0.383619 0.597007 0.838175
O O7 0.218266 0.478697 0.859294
O O8 0.235563 0.659002 0.894309
O O9 0.561484 0.537303 0.829680
O O10 0.481687 0.611497 0.729760
O O11 0.550949 0.635620 0.613144
#
# Coordination Sequence:
#
# PCOD9546625 Si02
#       6
#    16   8  16  16  16  16
#     4  10  24  43  66 100 141 178 222 288 352 414
#     4  12  24  38  71 100 133 180 238 276 338 424
#     4  10  23  43  66  97 137 175 226 283 350 416
#     4  10  23  42  66  98 130 177 233 270 353 430
#     4  11  25  41  69 100 141 180 225 291 346 424
#     4  10  24  43  64  91 130 176 228 294 349 407
#
# _framework density 21.455818000000001
#
# number of rings (size 3 to 8) (size 9 to 14) (size 15 to 20)
#    0.000    1.636    1.818    0.545    7.636    6.545 
#    0.000    0.000    0.000    0.000    0.000    0.000 
#    0.000    0.000    0.000    0.000    0.000    0.000 
#
# Total GULP energy -245004.659026 kJ/mol
# GULP energy per Si atom -5568.287705 kJ/mol
# Density = 2.140698 g / cm^3
# Si number density = 21.455818 Si / 1000 Ang^3
#
#
#
# Elastic Constant Matrix: (Units=GPa)
#
#
# Indices 1 2 3 4 5 6 
#
# 1 53.8511 49.2913 28.1133 0.0000 0.0000 1.8398
# 2 49.2913 53.8511 28.1133 0.0000 0.0000 -1.8398
# 3 28.1133 28.1133 114.1380 0.0000 0.0000 0.0000
# 4 0.0000 0.0000 0.0000 45.2801 0.0000 0.0000
# 5 0.0000 0.0000 0.0000 0.0000 45.2801 0.0000
# 6 1.8398 -1.8398 0.0000 0.0000 0.0000 35.9155
#
#
#
# Elastic Compliance Matrix: (Units=1/GPa)
#
#
# Indices 1 2 3 4 5 6 
#
# 1 0.119981 -0.108782 -0.002758 0.000000 0.000000 -0.011719
# 2 -0.108782 0.119981 -0.002758 0.000000 0.000000 0.011719
# 3 -0.002758 -0.002758 0.010120 0.000000 0.000000 0.000000
# 4 0.000000 0.000000 0.000000 0.022085 0.000000 0.000000
# 5 0.000000 0.000000 0.000000 0.000000 0.022085 0.000000
# 6 -0.011719 0.011719 0.000000 0.000000 0.000000 0.029044
#
#
# Mechanical properties :
#
#
# Convention : Reuss Voigt Hill
#
# Bulk Modulus (GPa) = 46.54506 48.09731 47.32119
# Shear Modulus (GPa) = 8.94366 33.04998 20.99682
#
# Velocity S-wave (km/s) = 2.04388 3.92902 3.13166
# Velocity P-wave (km/s) = 5.22594 6.56113 5.93123
#
# Compressibility (1/GPa) = 0.02148456
#
# Stress axis : x y z
#
# Youngs Moduli (GPa) = 8.33465 8.33465 98.81243
#
# Poissons Ratio (x) = 0.90666 0.27257
# Poissons Ratio (y) = 0.90666 0.27257
# Poissons Ratio (z) = 0.02299 0.02299
#
# Static dielectric constant tensor:
#      x y z
#    x 1.830170 0.000000 0.000000 
#    y 0.000000 1.830170 0.000000 
#    z 0.000000 0.000000 1.894530 
# 
# From -- ./inp_files/4600.got.cif
#   From: 2010.05.17/outbox.cif.g08.bks.cpg/sg88_3_cif.got.tgz:4600.got - 2010.06.03 19:11:41.
