data_PCOD9546998
_publ_section_title
;
Structure prediction by ZEFSAII (Michael W. Deem and Ramdas Pophale) SiO2 
 PCOD9546998
Probable space group: P 4 2 2
;
_chemical_formula_sum "Si O2"
_cell_formula_units_Z 24
_cell_length_a 12.887195
_cell_length_b 12.887195
_cell_length_c 7.374893
_cell_angle_alpha 90.000000
_cell_angle_beta 90.000000
_cell_angle_gamma 90.000000
_cell_volume 1224.820717
_symmetry_space_group_name_H-M "P 4 2 2"
_symmetry_group_IT_number 89
_symmetry_cell_setting 'tetragonal'
loop_
_space_group_symop_operation_xyz
x,y,z
-y,x,z
-x,-y,z
y,-x,z
x,-y,-z
-x,y,-z
y,x,-z
-y,-x,-z
loop_
_atom_site_type_symbol
_atom_site_label
_atom_site_fract_x
_atom_site_fract_y
_atom_site_fract_z
Si Si1 0.115469 0.718665 0.939884
Si Si2 0.883376 0.454086 0.231313
Si Si3 0.350476 0.811185 0.427727
O O1 0.128442 0.713867 0.724242
O O2 0.861838 0.609377 0.953012
O O3 0.199536 0.800465 0.000000
O O4 0.000000 0.745616 0.000000
O O5 0.878932 0.371512 0.394708
O O6 0.803976 0.540646 0.313110
O O7 0.000000 0.500000 0.223646
O O8 0.292080 0.707921 0.500000
#
# Coordination Sequence:
#
# PCOD9546998 Si02
#       3
#     8   8   8
#     4  12  25  41  64  98 138 178 224 283 344 411
#     4  11  23  39  68  97 128 172 234 284 335 405
#     4  11  22  38  62  99 131 169 217 288 342 396
#
# _framework density 19.594705000000001
#
# number of rings (size 3 to 8) (size 9 to 14) (size 15 to 20)
#    0.000    0.667    6.667    3.000    0.000    0.333 
#    0.000    0.000    0.000    8.000    0.000    9.333 
#    0.000    0.000    0.000    0.000    0.000    0.000 
#
# Total GULP energy -133691.594423 kJ/mol
# GULP energy per Si atom -5570.483101 kJ/mol
# Density = 1.955011 g / cm^3
# Si number density = 19.594705 Si / 1000 Ang^3
#
#
#
# Elastic Constant Matrix: (Units=GPa)
#
#
# Indices 1 2 3 4 5 6 
#
# 1 100.5495 72.8401 33.2109 0.0000 0.0000 0.0000
# 2 72.8401 100.5528 33.2143 0.0000 0.0000 0.0000
# 3 33.2109 33.2143 144.9812 0.0000 0.0000 0.0000
# 4 0.0000 0.0000 0.0000 23.4602 0.0000 0.0000
# 5 0.0000 0.0000 0.0000 0.0000 23.4616 0.0000
# 6 0.0000 0.0000 0.0000 0.0000 0.0000 51.3463
#
#
#
# Elastic Compliance Matrix: (Units=1/GPa)
#
#
# Indices 1 2 3 4 5 6 
#
# 1 0.021205 -0.014882 -0.001448 0.000000 0.000000 0.000000
# 2 -0.014882 0.021204 -0.001449 0.000000 0.000000 0.000000
# 3 -0.001448 -0.001449 0.007561 0.000000 0.000000 0.000000
# 4 0.000000 0.000000 0.000000 0.042625 0.000000 0.000000
# 5 0.000000 0.000000 0.000000 0.000000 0.042623 0.000000
# 6 0.000000 0.000000 0.000000 0.000000 0.000000 0.019476
#
#
# Mechanical properties :
#
#
# Convention : Reuss Voigt Hill
#
# Bulk Modulus (GPa) = 69.38603 69.40154 69.39379
# Shear Modulus (GPa) = 25.63378 33.44152 29.53765
#
# Velocity S-wave (km/s) = 3.62083 4.13566 3.88678
# Velocity P-wave (km/s) = 7.27791 7.63546 7.45883
#
# Compressibility (1/GPa) = 0.01441212
#
# Stress axis : x y z
#
# Youngs Moduli (GPa) = 47.15962 47.16054 132.25762
#
# Poissons Ratio (x) = 0.70185 0.19150
# Poissons Ratio (y) = 0.70184 0.19160
# Poissons Ratio (z) = 0.06828 0.06832
#
# Static dielectric constant tensor:
#      x y z
#    x 1.726010 0.000000 0.000000 
#    y 0.000000 1.726010 0.000000 
#    z 0.000000 0.000000 1.751440 
# 
# From -- ./inp_files/736.got.cif
#   From: 2010.05.17/outbox.cif.g08.bks.cpg/sg89_1_cif.got.tgz:736.got - 2010.06.03 19:15:31.
