data_PCOD9546391
_publ_section_title
;
Structure prediction by ZEFSAII (Michael W. Deem and Ramdas Pophale) SiO2 
 PCOD9546391
Probable space group: I 41/A
;
_chemical_formula_sum "Si O2"
_cell_formula_units_Z 96
_cell_length_a 15.374560
_cell_length_b 15.374560
_cell_length_c 21.355766
_cell_angle_alpha 90.000000
_cell_angle_beta 90.000000
_cell_angle_gamma 90.000000
_cell_volume 5048.013933
_symmetry_space_group_name_H-M "I 41/A"
_symmetry_group_IT_number 88
_space_group.IT_coordinate_system_code '2'
_symmetry_cell_setting 'tetragonal'
loop_
_space_group_symop_operation_xyz
x,y,z
3/4-y,1/4+x,1/4+z
-x,1/2-y,z
1/4+y,1/4-x,1/4+z
-x,-y,-z
1/4+y,3/4-x,3/4-z
x,1/2+y,-z
3/4-y,3/4+x,3/4-z
1/2+x,1/2+y,1/2+z
1/4-y,3/4+x,3/4+z
1/2-x,-y,1/2+z
3/4+y,3/4-x,3/4+z
1/2-x,1/2-y,1/2-z
3/4+y,1/4-x,1/4-z
1/2+x,y,1/2-z
1/4-y,1/4+x,1/4-z
loop_
_atom_site_type_symbol
_atom_site_label
_atom_site_fract_x
_atom_site_fract_y
_atom_site_fract_z
Si Si1 0.607230 0.428703 0.056370
Si Si2 0.201946 0.336750 0.814214
Si Si3 0.099849 0.736060 0.589540
Si Si4 0.066776 0.930861 0.027703
Si Si5 0.597606 0.340079 0.403712
Si Si6 0.287345 0.498803 0.399639
O O1 0.513267 0.449579 0.087362
O O2 0.622101 0.324961 0.054216
O O3 0.691351 0.464116 0.090790
O O4 0.598589 0.478602 0.990564
O O5 0.220424 0.409447 0.864991
O O6 0.100366 0.354549 0.796739
O O7 0.151678 0.716967 0.653726
O O8 0.000000 0.750000 0.608986
O O9 0.159294 0.978421 0.037468
O O10 0.077404 0.854303 0.977049
O O11 0.000000 0.000000 0.000000
O O12 0.615648 0.240279 0.384444
O O13 0.677332 0.402678 0.385207
#
# Coordination Sequence:
#
# PCOD9546391 Si02
#       6
#    16  16  16  16  16  16
#     4  10  20  40  64  84 118 162 201 251 316 365
#     4   9  21  41  59  89 121 147 208 259 299 371
#     4   9  20  36  62  88 116 161 202 247 308 370
#     4  11  21  37  57  87 130 161 205 258 301 377
#     4  11  24  39  59  92 130 168 205 258 310 371
#     4  11  22  39  62  91 121 165 205 256 311 377
#
# _framework density 19.017379999999999
#
# number of rings (size 3 to 8) (size 9 to 14) (size 15 to 20)
#    0.000    1.833    1.667    2.000    4.667    0.000 
#    3.000    0.000    0.000    0.000    0.000    0.000 
#    0.000    0.000    0.000    0.000    0.000    0.000 
#
# Total GULP energy -267512.646233 kJ/mol
# GULP energy per Si atom -5573.180130 kJ/mol
# Density = 1.897410 g / cm^3
# Si number density = 19.017380 Si / 1000 Ang^3
#
#
#
# Elastic Constant Matrix: (Units=GPa)
#
#
# Indices 1 2 3 4 5 6 
#
# 1 112.1020 50.3773 31.4900 0.0000 0.0000 9.8479
# 2 50.3773 112.1020 31.4900 0.0000 0.0000 -9.8479
# 3 31.4900 31.4900 57.7792 0.0000 0.0000 0.0000
# 4 0.0000 0.0000 0.0000 29.1414 0.0000 0.0000
# 5 0.0000 0.0000 0.0000 0.0000 29.1414 0.0000
# 6 9.8479 -9.8479 0.0000 0.0000 0.0000 30.5891
#
#
#
# Elastic Compliance Matrix: (Units=1/GPa)
#
#
# Indices 1 2 3 4 5 6 
#
# 1 0.012929 -0.005126 -0.004253 0.000000 0.000000 -0.005813
# 2 -0.005126 0.012929 -0.004253 0.000000 0.000000 0.005813
# 3 -0.004253 -0.004253 0.021943 0.000000 0.000000 0.000000
# 4 0.000000 0.000000 0.000000 0.034315 0.000000 0.000000
# 5 0.000000 0.000000 0.000000 0.000000 0.034315 0.000000
# 6 -0.005813 0.005813 0.000000 0.000000 0.000000 0.036434
#
#
# Mechanical properties :
#
#
# Convention : Reuss Voigt Hill
#
# Bulk Modulus (GPa) = 48.69013 56.52198 52.60605
# Shear Modulus (GPa) = 26.74135 29.01611 27.87873
#
# Velocity S-wave (km/s) = 3.75394 3.91035 3.83294
# Velocity P-wave (km/s) = 6.66693 7.08332 6.87828
#
# Compressibility (1/GPa) = 0.02053804
#
# Stress axis : x y z
#
# Youngs Moduli (GPa) = 77.34284 77.34284 45.57313
#
# Poissons Ratio (x) = 0.39649 0.19381
# Poissons Ratio (y) = 0.39649 0.19381
# Poissons Ratio (z) = 0.32892 0.32892
#
# Static dielectric constant tensor:
#      x y z
#    x 1.696050 0.000000 0.000000 
#    y 0.000000 1.696050 0.000000 
#    z 0.000000 0.000000 1.653320 
# 
# From -- ./inp_files/4686.got.cif
#   From: 2010.05.17/outbox.cif.g08.bks.cpg/sg88_3_cif.got.tgz:4686.got - 2010.06.03 19:11:41.
