data_PCOD9546243
_publ_section_title
;
Structure prediction by ZEFSAII (Michael W. Deem and Ramdas Pophale) SiO2 
 PCOD9546243
Probable space group: I 41/A
;
_chemical_formula_sum "Si O2"
_cell_formula_units_Z 84
_cell_length_a 16.263638
_cell_length_b 16.263638
_cell_length_c 18.198983
_cell_angle_alpha 90.000000
_cell_angle_beta 90.000000
_cell_angle_gamma 90.000000
_cell_volume 4813.738760
_symmetry_space_group_name_H-M "I 41/A"
_symmetry_group_IT_number 88
_space_group.IT_coordinate_system_code '2'
_symmetry_cell_setting 'tetragonal'
loop_
_space_group_symop_operation_xyz
x,y,z
3/4-y,1/4+x,1/4+z
-x,1/2-y,z
1/4+y,1/4-x,1/4+z
-x,-y,-z
1/4+y,3/4-x,3/4-z
x,1/2+y,-z
3/4-y,3/4+x,3/4-z
1/2+x,1/2+y,1/2+z
1/4-y,3/4+x,3/4+z
1/2-x,-y,1/2+z
3/4+y,3/4-x,3/4+z
1/2-x,1/2-y,1/2-z
3/4+y,1/4-x,1/4-z
1/2+x,y,1/2-z
1/4-y,1/4+x,1/4-z
loop_
_atom_site_type_symbol
_atom_site_label
_atom_site_fract_x
_atom_site_fract_y
_atom_site_fract_z
Si Si1 0.399813 0.365054 0.277019
Si Si2 0.215741 0.479753 0.206720
Si Si3 0.086351 0.210216 0.376411
Si Si4 0.704955 0.590834 0.936592
Si Si5 0.281157 0.653696 0.828503
Si Si6 0.500000 0.750000 0.625000
O O1 0.427282 0.345871 0.195085
O O2 0.388032 0.460783 0.293330
O O3 0.310575 0.324319 0.298168
O O4 0.468426 0.325056 0.327208
O O5 0.278663 0.440956 0.146663
O O6 0.264625 0.544988 0.257090
O O7 0.145306 0.515067 0.154582
O O8 0.188168 0.408969 0.264316
O O9 0.129154 0.152311 0.436544
O O10 0.154007 0.276257 0.347902
O O11 0.000000 0.250000 0.398280
#
# Coordination Sequence:
#
# PCOD9546243 Si02
#       6
#    16  16  16  16  16   4
#     4  10  21  31  53  76 119 148 180 217 272 346
#     4   8  18  34  58  73 104 149 189 218 269 342
#     4  12  23  33  50  85 117 141 180 235 276 331
#     4  10  18  37  52  78 105 152 188 224 269 330
#     4  10  20  34  54  81 110 144 185 227 282 330
#     4  12  20  28  44  84 120 156 176 202 284 344
#
# _framework density 17.450054999999999
#
# number of rings (size 3 to 8) (size 9 to 14) (size 15 to 20)
#    0.000    2.286    4.762    1.714    5.333    1.524 
#    0.000    0.952    0.000    0.000    0.000    0.000 
#    0.000    0.000    0.000    0.000    0.000    0.000 
#
# Total GULP energy -234026.432367 kJ/mol
# GULP energy per Si atom -5572.057913 kJ/mol
# Density = 1.741034 g / cm^3
# Si number density = 17.450055 Si / 1000 Ang^3
#
#
#
# Elastic Constant Matrix: (Units=GPa)
#
#
# Indices 1 2 3 4 5 6 
#
# 1 37.8395 1.0260 4.4595 0.0000 0.0000 -10.0175
# 2 1.0260 37.8395 4.4595 0.0000 0.0000 10.0175
# 3 4.4595 4.4595 65.3633 0.0000 0.0000 0.0000
# 4 0.0000 0.0000 0.0000 9.5971 0.0000 0.0000
# 5 0.0000 0.0000 0.0000 0.0000 9.5971 0.0000
# 6 -10.0175 10.0175 0.0000 0.0000 0.0000 28.4396
#
#
#
# Elastic Compliance Matrix: (Units=1/GPa)
#
#
# Indices 1 2 3 4 5 6 
#
# 1 0.029873 -0.003734 -0.001783 0.000000 0.000000 0.011837
# 2 -0.003734 0.029873 -0.001783 0.000000 0.000000 -0.011837
# 3 -0.001783 -0.001783 0.015542 0.000000 0.000000 0.000000
# 4 0.000000 0.000000 0.000000 0.104198 0.000000 0.000000
# 5 0.000000 0.000000 0.000000 0.000000 0.104198 0.000000
# 6 0.011837 -0.011837 0.000000 0.000000 0.000000 0.043501
#
#
# Mechanical properties :
#
#
# Convention : Reuss Voigt Hill
#
# Bulk Modulus (GPa) = 16.47800 17.88136 17.17968
# Shear Modulus (GPa) = 13.81159 18.26658 16.03908
#
# Velocity S-wave (km/s) = 2.81640 3.23893 3.03503
# Velocity P-wave (km/s) = 4.47656 4.92513 4.70619
#
# Compressibility (1/GPa) = 0.06068699
#
# Stress axis : x y z
#
# Youngs Moduli (GPa) = 33.47554 33.47554 64.33994
#
# Poissons Ratio (x) = 0.12498 0.11474
# Poissons Ratio (y) = 0.12498 0.11474
# Poissons Ratio (z) = 0.05970 0.05970
#
# Static dielectric constant tensor:
#      x y z
#    x 1.617920 0.000000 0.000000 
#    y 0.000000 1.617920 0.000000 
#    z 0.000000 0.000000 1.594900 
# 
# From -- ./inp_files/3891.got.cif
#   From: 2010.05.17/outbox.cif.g08.bks.cpg/sg88_2_cif.got.tgz:3891.got - 2010.06.03 19:11:41.
