data_PCOD9546926
_publ_section_title
;
Structure prediction by ZEFSAII (Michael W. Deem and Ramdas Pophale) SiO2 
 PCOD9546926
Probable space group: P 4 2 2
;
_chemical_formula_sum "Si O2"
_cell_formula_units_Z 56
_cell_length_a 10.774972
_cell_length_b 10.774972
_cell_length_c 30.294439
_cell_angle_alpha 90.000000
_cell_angle_beta 90.000000
_cell_angle_gamma 90.000000
_cell_volume 3517.185022
_symmetry_space_group_name_H-M "P 4 2 2"
_symmetry_group_IT_number 89
_symmetry_cell_setting 'tetragonal'
loop_
_space_group_symop_operation_xyz
x,y,z
-y,x,z
-x,-y,z
y,-x,z
x,-y,-z
-x,y,-z
y,x,-z
-y,-x,-z
loop_
_atom_site_type_symbol
_atom_site_label
_atom_site_fract_x
_atom_site_fract_y
_atom_site_fract_z
Si Si1 0.148953 0.148953 0.500000
Si Si2 0.739502 0.218784 0.311274
Si Si3 0.500000 0.710898 0.000000
Si Si4 0.551927 0.137961 0.183375
Si Si5 0.522087 0.849702 0.279470
Si Si6 0.139676 0.843245 0.595951
Si Si7 0.089942 0.184136 0.224002
Si Si8 0.490676 0.709091 0.095669
O O1 0.199718 0.189106 0.547755
O O2 0.000000 0.167372 0.500000
O O3 0.591572 0.216194 0.304481
O O4 0.805585 0.346566 0.297550
O O5 0.775641 0.190426 0.361230
O O6 0.785954 0.115636 0.275659
O O7 0.381588 0.618413 0.000000
O O8 0.493971 0.776179 0.047664
O O9 0.486955 0.187680 0.227923
O O10 0.698134 0.134805 0.195841
O O11 0.521303 0.209388 0.138980
O O12 0.500000 0.000000 0.178192
O O13 0.500000 0.000000 0.281988
O O14 0.990278 0.832024 0.597939
O O15 0.944643 0.160727 0.215225
O O16 0.375704 0.613409 0.096893
#
# Coordination Sequence:
#
# PCOD9546926 Si02
#       8
#     4   8   4   8   8   8   8   8
#     4   7  12  22  38  68 100 117 146 208 272 307
#     4  11  20  33  50  67  98 136 172 203 249 301
#     4   7  12  28  47  70  96 118 155 203 242 274
#     4  10  21  32  47  70 104 130 154 201 248 287
#     4  10  22  35  48  71 102 134 168 215 250 287
#     4   9  15  25  46  72  95 123 162 210 262 309
#     4  10  20  33  50  69  94 130 169 205 239 288
#     4   9  18  30  51  74  95 127 161 197 243 295
#
# _framework density 15.921823
#
# number of rings (size 3 to 8) (size 9 to 14) (size 15 to 20)
#    0.000    2.571    0.000    6.000    6.000    1.429 
#    0.000    0.357    0.000    0.857    0.000    4.000 
#    0.000    1.143    0.000    0.000    0.000    0.000 
#
# Total GULP energy -311792.195748 kJ/mol
# GULP energy per Si atom -5567.717781 kJ/mol
# Density = 1.588558 g / cm^3
# Si number density = 15.921823 Si / 1000 Ang^3
#
#
#
# Elastic Constant Matrix: (Units=GPa)
#
#
# Indices 1 2 3 4 5 6 
#
# 1 96.4982 -21.3443 49.6040 0.0000 0.0000 0.0000
# 2 -21.3443 96.4979 49.6039 0.0000 0.0000 0.0000
# 3 49.6040 49.6039 192.4523 0.0000 0.0000 0.0000
# 4 0.0000 0.0000 0.0000 18.3279 0.0000 0.0000
# 5 0.0000 0.0000 0.0000 0.0000 18.3280 0.0000
# 6 0.0000 0.0000 0.0000 0.0000 0.0000 51.4571
#
#
#
# Elastic Compliance Matrix: (Units=1/GPa)
#
#
# Indices 1 2 3 4 5 6 
#
# 1 0.014327 0.005841 -0.005198 0.000000 0.000000 0.000000
# 2 0.005841 0.014327 -0.005198 0.000000 0.000000 0.000000
# 3 -0.005198 -0.005198 0.007876 0.000000 0.000000 0.000000
# 4 0.000000 0.000000 0.000000 0.054562 0.000000 0.000000
# 5 0.000000 0.000000 0.000000 0.000000 0.054561 0.000000
# 6 0.000000 0.000000 0.000000 0.000000 0.000000 0.019434
#
#
# Mechanical properties :
#
#
# Convention : Reuss Voigt Hill
#
# Bulk Modulus (GPa) = 36.47114 60.13061 48.30088
# Shear Modulus (GPa) = 27.27219 38.12825 32.70022
#
# Velocity S-wave (km/s) = 4.14319 4.89889 4.53680
# Velocity P-wave (km/s) = 6.77083 8.35745 7.60563
#
# Compressibility (1/GPa) = 0.02741894
#
# Stress axis : x y z
#
# Youngs Moduli (GPa) = 69.79833 69.79808 126.97179
#
# Poissons Ratio (x) = -0.40770 0.66003
# Poissons Ratio (y) = -0.40770 0.66003
# Poissons Ratio (z) = 0.36283 0.36283
#
# Static dielectric constant tensor:
#      x y z
#    x 1.536680 0.000000 0.000000 
#    y 0.000000 1.536680 0.000000 
#    z 0.000000 0.000000 1.566170 
# 
# From -- ./inp_files/2786.got.cif
#   From: 2010.05.17/outbox.cif.g08.bks.cpg/sg89_2_cif.got.tgz:2786.got - 2010.06.03 19:15:31.
