data_PCOD9546341
_publ_section_title
;
Structure prediction by ZEFSAII (Michael W. Deem and Ramdas Pophale) SiO2 
 PCOD9546341
Probable space group: I 41/A
;
_chemical_formula_sum "Si O2"
_cell_formula_units_Z 104
_cell_length_a 17.790666
_cell_length_b 17.790666
_cell_length_c 18.025987
_cell_angle_alpha 90.000000
_cell_angle_beta 90.000000
_cell_angle_gamma 90.000000
_cell_volume 5705.365429
_symmetry_space_group_name_H-M "I 41/A"
_symmetry_group_IT_number 88
_space_group.IT_coordinate_system_code '2'
_symmetry_cell_setting 'tetragonal'
loop_
_space_group_symop_operation_xyz
x,y,z
3/4-y,1/4+x,1/4+z
-x,1/2-y,z
1/4+y,1/4-x,1/4+z
-x,-y,-z
1/4+y,3/4-x,3/4-z
x,1/2+y,-z
3/4-y,3/4+x,3/4-z
1/2+x,1/2+y,1/2+z
1/4-y,3/4+x,3/4+z
1/2-x,-y,1/2+z
3/4+y,3/4-x,3/4+z
1/2-x,1/2-y,1/2-z
3/4+y,1/4-x,1/4-z
1/2+x,y,1/2-z
1/4-y,1/4+x,1/4-z
loop_
_atom_site_type_symbol
_atom_site_label
_atom_site_fract_x
_atom_site_fract_y
_atom_site_fract_z
Si Si1 0.835975 0.727790 0.447827
Si Si2 0.651893 0.299964 0.675446
Si Si3 0.259656 0.620966 0.436148
Si Si4 0.905542 0.491934 0.561946
Si Si5 0.000000 0.250000 0.495790
Si Si6 0.266417 0.604981 0.957932
Si Si7 0.237441 0.521440 0.823844
O O1 0.801978 0.811496 0.435490
O O2 0.813248 0.672948 0.380317
O O3 0.925611 0.728061 0.458107
O O4 0.794586 0.686746 0.517332
O O5 0.666357 0.337722 0.596349
O O6 0.687870 0.349748 0.741070
O O7 0.703890 0.227108 0.683576
O O8 0.568537 0.277585 0.695412
O O9 0.250405 0.552553 0.376407
O O10 0.265975 0.581127 0.515668
O O11 0.839127 0.551551 0.553654
O O12 0.225836 0.591315 0.879715
O O13 0.221330 0.562942 0.023899
#
# Coordination Sequence:
#
# PCOD9546341 Si02
#       7
#    16  16  16  16   8  16  16
#     4  11  24  34  56  83 126 157 195 232 299 349
#     4  10  21  35  55  75 123 154 199 230 291 344
#     4  10  21  40  58  85 112 158 195 254 292 352
#     4  10  20  36  50  77 115 164 187 235 274 349
#     4  12  24  35  52  92 122 165 198 238 288 373
#     4  11  19  36  55  81 109 151 198 241 282 348
#     4  10  21  35  62  80 109 150 210 239 292 341
#
# _framework density 18.228455
#
# number of rings (size 3 to 8) (size 9 to 14) (size 15 to 20)
#    0.000    1.538    4.615    0.923    2.154    1.846 
#    0.000    0.000    0.000   12.000    0.000    0.000 
#    0.000    0.000    0.000    0.000    0.000    0.000 
#
# Total GULP energy -289713.024751 kJ/mol
# GULP energy per Si atom -5571.404322 kJ/mol
# Density = 1.818697 g / cm^3
# Si number density = 18.228455 Si / 1000 Ang^3
#
#
#
# Elastic Constant Matrix: (Units=GPa)
#
#
# Indices 1 2 3 4 5 6 
#
# 1 58.5135 24.0015 28.3954 0.0000 0.0000 -1.3945
# 2 24.0015 58.5135 28.3954 0.0000 0.0000 1.3945
# 3 28.3954 28.3954 102.5400 0.0000 0.0000 0.0000
# 4 0.0000 0.0000 0.0000 23.1669 0.0000 0.0000
# 5 0.0000 0.0000 0.0000 0.0000 23.1669 0.0000
# 6 -1.3945 1.3945 0.0000 0.0000 0.0000 24.0177
#
#
#
# Elastic Compliance Matrix: (Units=1/GPa)
#
#
# Indices 1 2 3 4 5 6 
#
# 1 0.022042 -0.007070 -0.004146 0.000000 0.000000 0.001690
# 2 -0.007070 0.022042 -0.004146 0.000000 0.000000 -0.001690
# 3 -0.004146 -0.004146 0.012049 0.000000 0.000000 0.000000
# 4 0.000000 0.000000 0.000000 0.043165 0.000000 0.000000
# 5 0.000000 0.000000 0.000000 0.000000 0.043165 0.000000
# 6 0.001690 -0.001690 0.000000 0.000000 0.000000 0.041832
#
#
# Mechanical properties :
#
#
# Convention : Reuss Voigt Hill
#
# Bulk Modulus (GPa) = 39.35612 42.35019 40.85316
# Shear Modulus (GPa) = 22.37239 23.32193 22.84716
#
# Velocity S-wave (km/s) = 3.50713 3.58078 3.54415
# Velocity P-wave (km/s) = 6.16744 6.35448 6.26166
#
# Compressibility (1/GPa) = 0.02540901
#
# Stress axis : x y z
#
# Youngs Moduli (GPa) = 45.36717 45.36717 82.99685
#
# Poissons Ratio (x) = 0.32073 0.34412
# Poissons Ratio (y) = 0.32073 0.34412
# Poissons Ratio (z) = 0.18810 0.18810
#
# Static dielectric constant tensor:
#      x y z
#    x 1.670190 0.000000 0.000000 
#    y 0.000000 1.670190 0.000000 
#    z 0.000000 0.000000 1.706280 
# 
# From -- ./inp_files/3986.got.cif
#   From: 2010.05.17/outbox.cif.g08.bks.cpg/sg88_2_cif.got.tgz:3986.got - 2010.06.03 19:11:41.
