data_PCOD9546159
_publ_section_title
;
Structure prediction by ZEFSAII (Michael W. Deem and Ramdas Pophale) SiO2 
 PCOD9546159
Probable space group: I 4/M
;
_chemical_formula_sum "Si O2"
_cell_formula_units_Z 96
_cell_length_a 23.279329
_cell_length_b 23.279329
_cell_length_c 10.026823
_cell_angle_alpha 90.000000
_cell_angle_beta 90.000000
_cell_angle_gamma 90.000000
_cell_volume 5433.807699
_symmetry_space_group_name_H-M "I 4/M"
_symmetry_group_IT_number 87
_symmetry_cell_setting 'tetragonal'
loop_
_space_group_symop_operation_xyz
x,y,z
-y,x,z
-x,-y,z
y,-x,z
-x,-y,-z
y,-x,-z
x,y,-z
-y,x,-z
1/2+x,1/2+y,1/2+z
1/2-y,1/2+x,1/2+z
1/2-x,1/2-y,1/2+z
1/2+y,1/2-x,1/2+z
1/2-x,1/2-y,1/2-z
1/2+y,1/2-x,1/2-z
1/2+x,1/2+y,1/2-z
1/2-y,1/2+x,1/2-z
loop_
_atom_site_type_symbol
_atom_site_label
_atom_site_fract_x
_atom_site_fract_y
_atom_site_fract_z
Si Si1 0.123418 0.109382 0.000000
Si Si2 0.796541 0.386507 0.658987
Si Si3 0.506177 0.320081 0.000000
Si Si4 0.822058 0.178523 0.229259
Si Si5 0.630811 0.376427 0.000000
Si Si6 0.163784 0.997550 0.000000
Si Si7 0.988865 0.253890 0.767986
Si Si8 0.800714 0.635967 0.662024
O O1 0.158731 0.128525 0.127768
O O2 0.066286 0.144313 0.000000
O O3 0.112417 0.042292 0.000000
O O4 0.809460 0.383669 0.500000
O O5 0.736538 0.352183 0.683437
O O6 0.788870 0.452683 0.703612
O O7 0.841702 0.355463 0.756094
O O8 0.509661 0.277662 0.873619
O O9 0.562515 0.361520 0.000000
O O10 0.444658 0.353647 0.000000
O O11 0.840171 0.154179 0.372381
O O12 0.824591 0.247191 0.213354
O O13 0.202798 0.008789 0.126106
O O14 0.929764 0.287417 0.796127
O O15 0.805211 0.640497 0.500000
#
# Coordination Sequence:
#
# PCOD9546159 Si02
#       8
#     8  16   8  16   8   8  16  16
#     4  12  20  37  63  88 118 174 220 260 311 375
#     4  12  25  41  66  98 128 165 213 267 329 396
#     4  12  24  39  64  92 126 179 230 268 320 374
#     4  12  21  40  59  89 131 164 207 272 329 385
#     4  12  24  37  63  94 126 176 230 274 313 377
#     4  12  20  39  64  84 122 175 218 258 316 372
#     4  12  22  44  64  86 132 176 209 258 329 397
#     4  12  25  41  66  98 128 165 213 267 329 396
#
# _framework density 17.667169999999999
#
# number of rings (size 3 to 8) (size 9 to 14) (size 15 to 20)
#    0.000    0.000   10.000    0.500    4.667    0.333 
#    0.000    0.000    0.000    4.500    0.000    2.333 
#    0.000    0.000    0.000    0.000    0.000    0.000 
#
# Total GULP energy -268015.750070 kJ/mol
# GULP energy per Si atom -5583.661460 kJ/mol
# Density = 1.762696 g / cm^3
# Si number density = 17.667170 Si / 1000 Ang^3
#
#
#
# Elastic Constant Matrix: (Units=GPa)
#
#
# Indices 1 2 3 4 5 6 
#
# 1 187.0234 -39.5697 42.2978 0.0000 0.0000 138.1566
# 2 -39.5697 187.0234 42.2978 0.0000 0.0000 -138.1566
# 3 42.2978 42.2978 170.3602 0.0000 0.0000 0.0000
# 4 0.0000 0.0000 0.0000 34.0405 0.0000 0.0000
# 5 0.0000 0.0000 0.0000 0.0000 34.0405 0.0000
# 6 138.1566 -138.1566 0.0000 0.0000 0.0000 252.7029
#
#
#
# Elastic Compliance Matrix: (Units=1/GPa)
#
#
# Indices 1 2 3 4 5 6 
#
# 1 0.010574 -0.002666 -0.001964 0.000000 0.000000 -0.007239
# 2 -0.002666 0.010574 -0.001964 0.000000 0.000000 0.007239
# 3 -0.001964 -0.001964 0.006845 0.000000 0.000000 0.000000
# 4 0.000000 0.000000 0.000000 0.029377 0.000000 0.000000
# 5 0.000000 0.000000 0.000000 0.000000 0.029377 0.000000
# 6 -0.007239 0.007239 0.000000 0.000000 0.000000 0.011872
#
#
# Mechanical properties :
#
#
# Convention : Reuss Voigt Hill
#
# Bulk Modulus (GPa) = 67.53351 70.49543 69.01447
# Shear Modulus (GPa) = 42.83002 97.44884 70.13943
#
# Velocity S-wave (km/s) = 4.92903 7.43491 6.30766
# Velocity P-wave (km/s) = 8.40846 10.66266 9.60194
#
# Compressibility (1/GPa) = 0.01480746
#
# Stress axis : x y z
#
# Youngs Moduli (GPa) = 94.57011 94.57011 146.09359
#
# Poissons Ratio (x) = 0.25211 0.28685
# Poissons Ratio (y) = 0.25211 0.28685
# Poissons Ratio (z) = 0.18569 0.18569
#
# Static dielectric constant tensor:
#      x y z
#    x 1.602200 0.000000 0.000000 
#    y 0.000000 1.602200 0.000000 
#    z 0.000000 0.000000 1.637670 
# 
# From -- ./inp_files/1527.got.cif
#   From: 2010.05.17/outbox.cif.g08.bks.cpg/sg87_1_cif.got.tgz:1527.got - 2010.06.03 19:07:00.
