data_PCOD9546938
_publ_section_title
;
Structure prediction by ZEFSAII (Michael W. Deem and Ramdas Pophale) SiO2 
 PCOD9546938
Probable space group: P 4 2 2
;
_chemical_formula_sum "Si O2"
_cell_formula_units_Z 38
_cell_length_a 8.897192
_cell_length_b 8.897192
_cell_length_c 23.782607
_cell_angle_alpha 90.000000
_cell_angle_beta 90.000000
_cell_angle_gamma 90.000000
_cell_volume 1882.631776
_symmetry_space_group_name_H-M "P 4 2 2"
_symmetry_group_IT_number 89
_symmetry_cell_setting 'tetragonal'
loop_
_space_group_symop_operation_xyz
x,y,z
-y,x,z
-x,-y,z
y,-x,z
x,-y,-z
-x,y,-z
y,x,-z
-y,-x,-z
loop_
_atom_site_type_symbol
_atom_site_label
_atom_site_fract_x
_atom_site_fract_y
_atom_site_fract_z
Si Si1 0.546358 0.830622 0.085642
Si Si2 0.243043 0.929766 0.579379
Si Si3 0.000000 0.500000 0.500000
Si Si4 0.266543 0.575314 0.212311
Si Si5 0.707027 0.707027 0.000000
Si Si6 0.759034 0.070744 0.710368
O O1 0.580756 0.758725 0.145358
O O2 0.500000 0.000000 0.096397
O O3 0.685822 0.841806 0.042657
O O4 0.427991 0.731169 0.047692
O O5 0.285774 0.916305 0.644959
O O6 0.099493 0.821490 0.569657
O O7 0.386895 0.907589 0.540163
O O8 0.317831 0.407356 0.226366
O O9 0.124738 0.632735 0.246984
O O10 0.903590 0.178590 0.719025
#
# Coordination Sequence:
#
# PCOD9546938 Si02
#       6
#     8   8   2   8   4   8
#     4  11  23  37  61  87 116 160 205 256 330 393
#     4   9  20  40  62  90 131 173 221 268 316 384
#     4  12  20  30  64 102 120 162 224 268 316 350
#     4  11  24  39  59  93 127 159 209 264 322 390
#     4  10  20  39  58  83 118 150 200 261 318 391
#     4   9  21  41  64  89 123 171 218 266 326 384
#
# _framework density 20.184512000000002
#
# number of rings (size 3 to 8) (size 9 to 14) (size 15 to 20)
#    0.000    1.895    2.105    3.158    2.947    7.579 
#    0.000    0.000    0.000   10.105    0.000    0.000 
#    0.000    0.000    0.000    0.000    0.000    0.000 
#
# Total GULP energy -211689.317339 kJ/mol
# GULP energy per Si atom -5570.771509 kJ/mol
# Density = 2.013857 g / cm^3
# Si number density = 20.184512 Si / 1000 Ang^3
#
#
#
# Elastic Constant Matrix: (Units=GPa)
#
#
# Indices 1 2 3 4 5 6 
#
# 1 63.8605 39.5366 57.0552 0.0000 0.0000 0.0000
# 2 39.5366 63.8605 57.0552 0.0000 0.0000 0.0000
# 3 57.0552 57.0552 121.5849 0.0000 0.0000 0.0000
# 4 0.0000 0.0000 0.0000 38.1583 0.0000 0.0000
# 5 0.0000 0.0000 0.0000 0.0000 38.1583 0.0000
# 6 0.0000 0.0000 0.0000 0.0000 0.0000 32.2396
#
#
#
# Elastic Compliance Matrix: (Units=1/GPa)
#
#
# Indices 1 2 3 4 5 6 
#
# 1 0.030586 -0.010526 -0.009414 0.000000 0.000000 0.000000
# 2 -0.010526 0.030586 -0.009414 0.000000 0.000000 0.000000
# 3 -0.009414 -0.009414 0.017060 0.000000 0.000000 0.000000
# 4 0.000000 0.000000 0.000000 0.026207 0.000000 0.000000
# 5 0.000000 0.000000 0.000000 0.000000 0.026207 0.000000
# 6 0.000000 0.000000 0.000000 0.000000 0.000000 0.031018
#
#
# Mechanical properties :
#
#
# Convention : Reuss Voigt Hill
#
# Bulk Modulus (GPa) = 51.21367 61.84445 56.52906
# Shear Modulus (GPa) = 22.03835 28.08851 25.06343
#
# Velocity S-wave (km/s) = 3.30789 3.73445 3.52762
# Velocity P-wave (km/s) = 6.32593 7.02146 6.68275
#
# Compressibility (1/GPa) = 0.01952604
#
# Stress axis : x y z
#
# Youngs Moduli (GPa) = 32.69459 32.69459 58.61806
#
# Poissons Ratio (x) = 0.34413 0.55181
# Poissons Ratio (y) = 0.34413 0.55181
# Poissons Ratio (z) = 0.30777 0.30777
#
# Static dielectric constant tensor:
#      x y z
#    x 1.779570 0.000000 0.000000 
#    y 0.000000 1.779570 0.000000 
#    z 0.000000 0.000000 1.713950 
# 
# From -- ./inp_files/2736.got.cif
#   From: 2010.05.17/outbox.cif.g08.bks.cpg/sg89_2_cif.got.tgz:2736.got - 2010.06.03 19:15:31.
