data_PCOD9546498
_publ_section_title
;
Structure prediction by ZEFSAII (Michael W. Deem and Ramdas Pophale) SiO2 
 PCOD9546498
Probable space group: I 41/A
;
_chemical_formula_sum "Si O2"
_cell_formula_units_Z 96
_cell_length_a 23.662660
_cell_length_b 23.662660
_cell_length_c 7.406247
_cell_angle_alpha 90.000000
_cell_angle_beta 90.000000
_cell_angle_gamma 90.000000
_cell_volume 4146.916769
_symmetry_space_group_name_H-M "I 41/A"
_symmetry_group_IT_number 88
_space_group.IT_coordinate_system_code '2'
_symmetry_cell_setting 'tetragonal'
loop_
_space_group_symop_operation_xyz
x,y,z
3/4-y,1/4+x,1/4+z
-x,1/2-y,z
1/4+y,1/4-x,1/4+z
-x,-y,-z
1/4+y,3/4-x,3/4-z
x,1/2+y,-z
3/4-y,3/4+x,3/4-z
1/2+x,1/2+y,1/2+z
1/4-y,3/4+x,3/4+z
1/2-x,-y,1/2+z
3/4+y,3/4-x,3/4+z
1/2-x,1/2-y,1/2-z
3/4+y,1/4-x,1/4-z
1/2+x,y,1/2-z
1/4-y,1/4+x,1/4-z
loop_
_atom_site_type_symbol
_atom_site_label
_atom_site_fract_x
_atom_site_fract_y
_atom_site_fract_z
Si Si1 0.370503 0.332138 0.782134
Si Si2 0.282050 0.932173 0.634422
Si Si3 0.045906 0.121477 0.416247
Si Si4 0.375828 0.853530 0.617892
Si Si5 0.259854 0.815864 0.616386
Si Si6 0.050418 0.495161 0.718530
O O1 0.385100 0.267617 0.727208
O O2 0.379781 0.365956 0.594647
O O3 0.306603 0.329365 0.863466
O O4 0.411268 0.356501 0.932760
O O5 0.235699 0.951325 0.772443
O O6 0.338934 0.903591 0.710965
O O7 0.256280 0.877741 0.528988
O O8 0.067503 0.151290 0.230200
O O9 0.050603 0.054162 0.385027
O O10 0.328269 0.803711 0.623893
O O11 0.230541 0.765421 0.513121
O O12 0.256035 0.678193 0.673695
#
# Coordination Sequence:
#
# PCOD9546498 Si02
#       6
#    16  16  16  16  16  16
#     4  12  27  47  76 110 139 197 248 305 380 438
#     4  10  21  42  57  94 143 182 228 279 358 431
#     4  12  26  46  74 107 149 182 252 310 368 443
#     4  10  24  46  66 103 138 189 236 292 366 424
#     4   9  21  42  73  99 144 186 243 297 364 429
#     4  11  22  47  77 107 138 189 251 310 354 452
#
# _framework density 23.149730000000002
#
# number of rings (size 3 to 8) (size 9 to 14) (size 15 to 20)
#    1.000    0.333    3.333    1.500    0.000    7.000 
#   12.000    0.000    0.000    0.000    0.000    0.000 
#    0.000    0.000    0.000    0.000    0.000    0.000 
#
# Total GULP energy -267852.509661 kJ/mol
# GULP energy per Si atom -5580.260618 kJ/mol
# Density = 2.309704 g / cm^3
# Si number density = 23.149730 Si / 1000 Ang^3
#
#
#
# Elastic Constant Matrix: (Units=GPa)
#
#
# Indices 1 2 3 4 5 6 
#
# 1 56.5797 9.0317 29.6369 0.0000 0.0000 6.3061
# 2 9.0317 56.5797 29.6369 0.0000 0.0000 -6.3061
# 3 29.6369 29.6369 132.3220 0.0000 0.0000 0.0000
# 4 0.0000 0.0000 0.0000 36.4619 0.0000 0.0000
# 5 0.0000 0.0000 0.0000 0.0000 36.4619 0.0000
# 6 6.3061 -6.3061 0.0000 0.0000 0.0000 31.9144
#
#
#
# Elastic Compliance Matrix: (Units=1/GPa)
#
#
# Indices 1 2 3 4 5 6 
#
# 1 0.020651 -0.001544 -0.004280 0.000000 0.000000 -0.004385
# 2 -0.001544 0.020651 -0.004280 0.000000 0.000000 0.004385
# 3 -0.004280 -0.004280 0.009474 0.000000 0.000000 0.000000
# 4 0.000000 0.000000 0.000000 0.027426 0.000000 0.000000
# 5 0.000000 0.000000 0.000000 0.000000 0.027426 0.000000
# 6 -0.004385 0.004385 0.000000 0.000000 0.000000 0.033067
#
#
# Mechanical properties :
#
#
# Convention : Reuss Voigt Hill
#
# Bulk Modulus (GPa) = 32.71084 42.45473 37.58278
# Shear Modulus (GPa) = 29.56987 32.77937 31.17462
#
# Velocity S-wave (km/s) = 3.57785 3.76702 3.67366
# Velocity P-wave (km/s) = 5.58828 6.10734 5.85357
#
# Compressibility (1/GPa) = 0.03057091
#
# Stress axis : x y z
#
# Youngs Moduli (GPa) = 48.42370 48.42370 105.54774
#
# Poissons Ratio (x) = 0.07474 0.45170
# Poissons Ratio (y) = 0.07474 0.45170
# Poissons Ratio (z) = 0.20724 0.20724
#
# Static dielectric constant tensor:
#      x y z
#    x 1.907180 0.000000 0.000000 
#    y 0.000000 1.907180 0.000000 
#    z 0.000000 0.000000 1.965910 
# 
# From -- ./inp_files/1725.got.cif
#   From: 2010.05.17/outbox.cif.g08.bks.cpg/sg88_1_cif.got.tgz:1725.got - 2010.06.03 19:11:41.
