data_PCOD9546279
_publ_section_title
;
Structure prediction by ZEFSAII (Michael W. Deem and Ramdas Pophale) SiO2 
 PCOD9546279
Probable space group: I 41/A
;
_chemical_formula_sum "Si O2"
_cell_formula_units_Z 112
_cell_length_a 15.354631
_cell_length_b 15.354631
_cell_length_c 22.827135
_cell_angle_alpha 90.000000
_cell_angle_beta 90.000000
_cell_angle_gamma 90.000000
_cell_volume 5381.832479
_symmetry_space_group_name_H-M "I 41/A"
_symmetry_group_IT_number 88
_space_group.IT_coordinate_system_code '2'
_symmetry_cell_setting 'tetragonal'
loop_
_space_group_symop_operation_xyz
x,y,z
3/4-y,1/4+x,1/4+z
-x,1/2-y,z
1/4+y,1/4-x,1/4+z
-x,-y,-z
1/4+y,3/4-x,3/4-z
x,1/2+y,-z
3/4-y,3/4+x,3/4-z
1/2+x,1/2+y,1/2+z
1/4-y,3/4+x,3/4+z
1/2-x,-y,1/2+z
3/4+y,3/4-x,3/4+z
1/2-x,1/2-y,1/2-z
3/4+y,1/4-x,1/4-z
1/2+x,y,1/2-z
1/4-y,1/4+x,1/4-z
loop_
_atom_site_type_symbol
_atom_site_label
_atom_site_fract_x
_atom_site_fract_y
_atom_site_fract_z
Si Si1 0.009675 0.149215 0.311586
Si Si2 0.505831 0.148745 0.950312
Si Si3 0.708363 0.397972 0.846492
Si Si4 0.332790 0.551246 0.788047
Si Si5 0.882663 0.892699 0.220398
Si Si6 0.355120 0.470052 0.252772
Si Si7 0.614911 0.669810 0.932960
O O1 0.068146 0.094607 0.265891
O O2 0.063463 0.146008 0.373594
O O3 0.000000 0.250000 0.295930
O O4 0.910506 0.113159 0.309945
O O5 0.500000 0.250000 0.938106
O O6 0.560172 0.098582 0.901810
O O7 0.410643 0.121239 0.969403
O O8 0.559251 0.137425 0.011227
O O9 0.736992 0.436056 0.907817
O O10 0.798794 0.370190 0.816780
O O11 0.663211 0.468403 0.804157
O O12 0.374888 0.493939 0.736127
O O13 0.236065 0.578693 0.767582
O O14 0.974859 0.869795 0.191102
O O15 0.383529 0.537865 0.304183
#
# Coordination Sequence:
#
# PCOD9546279 Si02
#       7
#    16  16  16  16  16  16  16
#     4  12  24  41  69  96 119 171 226 270 329 402
#     4   9  18  32  50  83 129 168 206 259 309 376
#     4  10  20  34  58  87 124 175 214 248 333 391
#     4  11  23  39  61  93 128 171 220 269 324 398
#     4  10  19  36  56  88 129 162 210 271 315 376
#     4  10  23  41  61  95 138 166 210 283 332 385
#     4  10  19  39  63  90 127 164 214 269 322 385
#
# _framework density 20.810753999999999
#
# number of rings (size 3 to 8) (size 9 to 14) (size 15 to 20)
#    0.000    1.714    1.429    4.286    0.000    4.000 
#    0.000    0.000    0.000    0.000    0.000    0.000 
#    0.000    0.000    0.000    0.000    0.000    0.000 
#
# Total GULP energy -312485.807065 kJ/mol
# GULP energy per Si atom -5580.103698 kJ/mol
# Density = 2.076339 g / cm^3
# Si number density = 20.810754 Si / 1000 Ang^3
#
#
#
# Elastic Constant Matrix: (Units=GPa)
#
#
# Indices 1 2 3 4 5 6 
#
# 1 90.0348 71.1413 26.0758 0.0000 0.0000 5.8826
# 2 71.1413 90.0348 26.0758 0.0000 0.0000 -5.8826
# 3 26.0758 26.0758 42.3668 0.0000 0.0000 0.0000
# 4 0.0000 0.0000 0.0000 9.2548 0.0000 0.0000
# 5 0.0000 0.0000 0.0000 0.0000 9.2548 0.0000
# 6 5.8826 -5.8826 0.0000 0.0000 0.0000 31.7984
#
#
#
# Elastic Compliance Matrix: (Units=1/GPa)
#
#
# Indices 1 2 3 4 5 6 
#
# 1 0.033783 -0.026036 -0.004768 0.000000 0.000000 -0.011066
# 2 -0.026036 0.033783 -0.004768 0.000000 0.000000 0.011066
# 3 -0.004768 -0.004768 0.029473 0.000000 0.000000 0.000000
# 4 0.000000 0.000000 0.000000 0.108052 0.000000 0.000000
# 5 0.000000 0.000000 0.000000 0.000000 0.108052 0.000000
# 6 -0.011066 0.011066 0.000000 0.000000 0.000000 0.035543
#
#
# Mechanical properties :
#
#
# Convention : Reuss Voigt Hill
#
# Bulk Modulus (GPa) = 38.61841 52.11358 45.36599
# Shear Modulus (GPa) = 11.66965 16.67118 14.17042
#
# Velocity S-wave (km/s) = 2.37059 2.83342 2.61227
# Velocity P-wave (km/s) = 5.10785 5.98334 5.56284
#
# Compressibility (1/GPa) = 0.02589439
#
# Stress axis : x y z
#
# Youngs Moduli (GPa) = 29.60045 29.60045 33.92943
#
# Poissons Ratio (x) = 0.77068 0.16178
# Poissons Ratio (y) = 0.77068 0.16178
# Poissons Ratio (z) = 0.14114 0.14114
#
# Static dielectric constant tensor:
#      x y z
#    x 1.774560 0.000000 0.000000 
#    y 0.000000 1.774560 0.000000 
#    z 0.000000 0.000000 1.780090 
# 
# From -- ./inp_files/5335.got.cif
#   From: 2010.05.17/outbox.cif.g08.bks.cpg/sg88_3_cif.got.tgz:5335.got - 2010.06.03 19:11:41.
