data_PCOD9546619
_publ_section_title
;
Structure prediction by ZEFSAII (Michael W. Deem and Ramdas Pophale) SiO2 
 PCOD9546619
Probable space group: I 41/A
;
_chemical_formula_sum "Si O2"
_cell_formula_units_Z 112
_cell_length_a 13.374274
_cell_length_b 13.374274
_cell_length_c 26.533001
_cell_angle_alpha 90.000000
_cell_angle_beta 90.000000
_cell_angle_gamma 90.000000
_cell_volume 4745.989862
_symmetry_space_group_name_H-M "I 41/A"
_symmetry_group_IT_number 88
_space_group.IT_coordinate_system_code '2'
_symmetry_cell_setting 'tetragonal'
loop_
_space_group_symop_operation_xyz
x,y,z
3/4-y,1/4+x,1/4+z
-x,1/2-y,z
1/4+y,1/4-x,1/4+z
-x,-y,-z
1/4+y,3/4-x,3/4-z
x,1/2+y,-z
3/4-y,3/4+x,3/4-z
1/2+x,1/2+y,1/2+z
1/4-y,3/4+x,3/4+z
1/2-x,-y,1/2+z
3/4+y,3/4-x,3/4+z
1/2-x,1/2-y,1/2-z
3/4+y,1/4-x,1/4-z
1/2+x,y,1/2-z
1/4-y,1/4+x,1/4-z
loop_
_atom_site_type_symbol
_atom_site_label
_atom_site_fract_x
_atom_site_fract_y
_atom_site_fract_z
Si Si1 0.000000 0.250000 0.215129
Si Si2 0.475327 0.387434 0.904137
Si Si3 0.709108 0.936787 0.589732
Si Si4 0.500000 0.750000 0.881348
Si Si5 0.199358 0.775625 0.829852
Si Si6 0.626289 0.858656 0.453333
Si Si7 0.825007 0.083712 0.739020
Si Si8 0.172598 0.120855 0.835598
O O1 0.086038 0.300941 0.183274
O O2 0.045273 0.165659 0.250681
O O3 0.581560 0.345212 0.887238
O O4 0.432220 0.374621 0.961975
O O5 0.462011 0.504965 0.898261
O O6 0.593437 0.953970 0.573713
O O7 0.716543 0.829363 0.616882
O O8 0.792930 0.933115 0.546024
O O9 0.710587 0.027530 0.630365
O O10 0.556571 0.671440 0.845244
O O11 0.413632 0.688247 0.909964
O O12 0.281224 0.827703 0.794945
O O13 0.743648 0.871008 0.459060
O O14 0.710335 0.093655 0.720026
#
# Coordination Sequence:
#
# PCOD9546619 Si02
#       8
#     8  16  16   8  16  16  16  16
#     4  11  24  37  65 104 138 206 257 300 376 478
#     4   9  19  42  76 102 133 190 262 318 390 448
#     4  12  24  42  67 104 154 199 256 313 388 473
#     4  11  22  42  71 108 139 206 254 316 391 462
#     4  12  23  42  63  99 148 201 246 318 379 457
#     4  11  22  39  67  96 148 192 244 312 381 465
#     4  10  23  42  67 104 143 198 249 321 379 465
#     4  10  23  41  70 103 146 200 251 322 396 464
#
# _framework density 23.598870999999999
#
# number of rings (size 3 to 8) (size 9 to 14) (size 15 to 20)
#    0.857    0.429    4.286    2.143    0.000    0.000 
#    0.000    2.143    0.000    1.714    0.000    0.000 
#    0.000    0.000    0.000    0.000    0.000    0.000 
#
# Total GULP energy -312014.844220 kJ/mol
# GULP energy per Si atom -5571.693647 kJ/mol
# Density = 2.354516 g / cm^3
# Si number density = 23.598871 Si / 1000 Ang^3
#
#
#
# Elastic Constant Matrix: (Units=GPa)
#
#
# Indices 1 2 3 4 5 6 
#
# 1 80.2373 6.5815 38.5274 0.0000 0.0000 -4.8093
# 2 6.5815 80.2373 38.5274 0.0000 0.0000 4.8093
# 3 38.5274 38.5274 119.8190 0.0000 0.0000 0.0000
# 4 0.0000 0.0000 0.0000 15.6004 0.0000 0.0000
# 5 0.0000 0.0000 0.0000 0.0000 15.6004 0.0000
# 6 -4.8093 4.8093 0.0000 0.0000 0.0000 31.5777
#
#
#
# Elastic Compliance Matrix: (Units=1/GPa)
#
#
# Indices 1 2 3 4 5 6 
#
# 1 0.014985 0.001133 -0.005183 0.000000 0.000000 0.002110
# 2 0.001133 0.014985 -0.005183 0.000000 0.000000 -0.002110
# 3 -0.005183 -0.005183 0.011679 0.000000 0.000000 0.000000
# 4 0.000000 0.000000 0.000000 0.064101 0.000000 0.000000
# 5 0.000000 0.000000 0.000000 0.000000 0.064101 0.000000
# 6 0.002110 -0.002110 0.000000 0.000000 0.000000 0.032310
#
#
# Mechanical properties :
#
#
# Convention : Reuss Voigt Hill
#
# Bulk Modulus (GPa) = 43.13281 49.72958 46.43120
# Shear Modulus (GPa) = 21.89577 25.66618 23.78098
#
# Velocity S-wave (km/s) = 3.04934 3.30146 3.17790
# Velocity P-wave (km/s) = 5.54212 5.97088 5.76049
#
# Compressibility (1/GPa) = 0.02318421
#
# Stress axis : x y z
#
# Youngs Moduli (GPa) = 66.73277 66.73277 85.62442
#
# Poissons Ratio (x) = -0.07561 0.44377
# Poissons Ratio (y) = -0.07561 0.44377
# Poissons Ratio (z) = 0.34586 0.34586
#
# Static dielectric constant tensor:
#      x y z
#    x 1.954080 0.000000 0.000000 
#    y 0.000000 1.954080 0.000000 
#    z 0.000000 0.000000 1.974900 
# 
# From -- ./inp_files/5889.got.cif
#   From: 2010.05.17/outbox.cif.g08.bks.cpg/sg88_3_cif.got.tgz:5889.got - 2010.06.03 19:11:41.
