data_PCOD9546383
_publ_section_title
;
Structure prediction by ZEFSAII (Michael W. Deem and Ramdas Pophale) SiO2 
 PCOD9546383
Probable space group: I 41/A
;
_chemical_formula_sum "Si O2"
_cell_formula_units_Z 100
_cell_length_a 14.270535
_cell_length_b 14.270535
_cell_length_c 23.165720
_cell_angle_alpha 90.000000
_cell_angle_beta 90.000000
_cell_angle_gamma 90.000000
_cell_volume 4717.656466
_symmetry_space_group_name_H-M "I 41/A"
_symmetry_group_IT_number 88
_space_group.IT_coordinate_system_code '2'
_symmetry_cell_setting 'tetragonal'
loop_
_space_group_symop_operation_xyz
x,y,z
3/4-y,1/4+x,1/4+z
-x,1/2-y,z
1/4+y,1/4-x,1/4+z
-x,-y,-z
1/4+y,3/4-x,3/4-z
x,1/2+y,-z
3/4-y,3/4+x,3/4-z
1/2+x,1/2+y,1/2+z
1/4-y,3/4+x,3/4+z
1/2-x,-y,1/2+z
3/4+y,3/4-x,3/4+z
1/2-x,1/2-y,1/2-z
3/4+y,1/4-x,1/4-z
1/2+x,y,1/2-z
1/4-y,1/4+x,1/4-z
loop_
_atom_site_type_symbol
_atom_site_label
_atom_site_fract_x
_atom_site_fract_y
_atom_site_fract_z
Si Si1 0.500000 0.250000 0.875000
Si Si2 0.604837 0.773776 0.740524
Si Si3 0.446621 0.880049 0.322374
Si Si4 0.722626 0.673732 0.832469
Si Si5 0.709303 0.496922 0.079310
Si Si6 0.844003 0.313709 0.539183
Si Si7 0.679098 0.185929 0.584811
O O1 0.449178 0.172747 0.836985
O O2 0.500000 0.750000 0.722600
O O3 0.650088 0.691932 0.779868
O O4 0.676441 0.791816 0.689372
O O5 0.599628 0.864102 0.782725
O O6 0.511933 0.936650 0.366250
O O7 0.357292 0.943824 0.304610
O O8 0.509776 0.866618 0.266551
O O9 0.395268 0.798346 0.361236
O O10 0.731700 0.565166 0.845979
O O11 0.675083 0.575803 0.034837
O O12 0.645257 0.493021 0.136888
O O13 0.747704 0.266233 0.562395
#
# Coordination Sequence:
#
# PCOD9546383 Si02
#       7
#     4  16  16  16  16  16  16
#     4  12  24  44  64 108 128 176 240 284 322 416
#     4  10  20  39  67  93 133 176 222 279 335 400
#     4   9  23  43  63 100 137 171 227 282 325 411
#     4  10  21  40  62  99 133 175 227 274 334 409
#     4  10  22  42  66  99 132 178 223 274 347 400
#     4  12  22  46  72  92 140 181 219 288 345 392
#     4   9  21  42  64  95 135 168 228 271 334 412
#
# _framework density 21.196966
#
# number of rings (size 3 to 8) (size 9 to 14) (size 15 to 20)
#    0.960    0.960    1.600    1.920    0.000    2.560 
#   14.400    1.600    0.000    0.000    0.000    0.000 
#    0.000    0.000    0.000    0.000    0.000    0.000 
#
# Total GULP energy -278950.748159 kJ/mol
# GULP energy per Si atom -5579.014963 kJ/mol
# Density = 2.114872 g / cm^3
# Si number density = 21.196966 Si / 1000 Ang^3
#
#
#
# Elastic Constant Matrix: (Units=GPa)
#
#
# Indices 1 2 3 4 5 6 
#
# 1 81.5414 3.5882 20.6926 0.0000 0.0000 -1.1223
# 2 3.5882 81.5414 20.6926 0.0000 0.0000 1.1223
# 3 20.6926 20.6926 61.9300 0.0000 0.0000 0.0000
# 4 0.0000 0.0000 0.0000 -636.1561 0.0004 0.0000
# 5 0.0000 0.0000 0.0000 0.0004 -636.1564 0.0000
# 6 -1.1223 1.1223 0.0000 0.0000 0.0000 18.2058
#
#
#
# Elastic Compliance Matrix: (Units=1/GPa)
#
#
# Indices 1 2 3 4 5 6 
#
# 1 0.013438 0.000587 -0.004686 0.000000 0.000000 0.000792
# 2 0.000587 0.013438 -0.004686 0.000000 0.000000 -0.000792
# 3 -0.004686 -0.004686 0.019279 0.000000 0.000000 0.000000
# 4 0.000000 0.000000 0.000000 -0.001572 0.000000 0.000000
# 5 0.000000 0.000000 0.000000 0.000000 -0.001572 0.000000
# 6 0.000792 -0.000792 0.000000 0.000000 0.000000 0.055025
#
#
# Mechanical properties :
#
#
# Convention : Reuss Voigt Hill
#
# Bulk Modulus (GPa) = 34.98443 34.99550 34.98997
# Shear Modulus (GPa) = 39.95692 -238.81873 -99.43090
#
# Velocity S-wave (km/s) = 4.34640 -10.62596 -6.85638
# Velocity P-wave (km/s) = 6.45977 11.57595 6.79242
#
# Compressibility (1/GPa) = 0.02858414
#
# Stress axis : x y z
#
# Youngs Moduli (GPa) = 74.41597 74.41597 51.87040
#
# Poissons Ratio (x) = -0.04368 0.24307
# Poissons Ratio (y) = -0.04368 0.24307
# Poissons Ratio (z) = 0.34872 0.34872
#
# Static dielectric constant tensor:
#      x y z
#    x 1.803890 0.000000 0.000000 
#    y 0.000000 1.803890 0.000000 
#    z 0.000000 0.000000 1.804840 
# 
# From -- ./inp_files/5292.got.cif
#   From: 2010.05.17/outbox.cif.g08.bks.cpg/sg88_3_cif.got.tgz:5292.got - 2010.06.03 19:11:41.
