data_PCOD9546249
_publ_section_title
;
Structure prediction by ZEFSAII (Michael W. Deem and Ramdas Pophale) SiO2 
 PCOD9546249
Probable space group: I 41/A
;
_chemical_formula_sum "Si O2"
_cell_formula_units_Z 108
_cell_length_a 14.056370
_cell_length_b 14.056370
_cell_length_c 22.436467
_cell_angle_alpha 90.000000
_cell_angle_beta 90.000000
_cell_angle_gamma 90.000000
_cell_volume 4433.031648
_symmetry_space_group_name_H-M "I 41/A"
_symmetry_group_IT_number 88
_space_group.IT_coordinate_system_code '2'
_symmetry_cell_setting 'tetragonal'
loop_
_space_group_symop_operation_xyz
x,y,z
3/4-y,1/4+x,1/4+z
-x,1/2-y,z
1/4+y,1/4-x,1/4+z
-x,-y,-z
1/4+y,3/4-x,3/4-z
x,1/2+y,-z
3/4-y,3/4+x,3/4-z
1/2+x,1/2+y,1/2+z
1/4-y,3/4+x,3/4+z
1/2-x,-y,1/2+z
3/4+y,3/4-x,3/4+z
1/2-x,1/2-y,1/2-z
3/4+y,1/4-x,1/4-z
1/2+x,y,1/2-z
1/4-y,1/4+x,1/4-z
loop_
_atom_site_type_symbol
_atom_site_label
_atom_site_fract_x
_atom_site_fract_y
_atom_site_fract_z
Si Si1 0.159648 0.898634 0.095333
Si Si2 0.500000 0.750000 0.125000
Si Si3 0.655069 0.801048 0.816219
Si Si4 0.887615 0.272032 0.828592
Si Si5 0.047855 0.043642 0.222043
Si Si6 0.272516 0.006321 0.419397
Si Si7 0.500000 0.750000 0.532529
Si Si8 0.357519 0.656737 0.027918
O O1 0.167493 0.819541 0.147666
O O2 0.177758 0.835942 0.037125
O O3 0.051303 0.933038 0.089850
O O4 0.231006 0.987444 0.101245
O O5 0.415517 0.713335 0.080047
O O6 0.595380 0.858255 0.866266
O O7 0.742921 0.870199 0.808696
O O8 0.588200 0.781262 0.760060
O O9 0.857837 0.317287 0.766705
O O10 0.000000 0.250000 0.820148
O O11 0.138903 0.997205 0.191774
O O12 0.021647 0.144904 0.189654
O O13 0.970103 0.962515 0.235594
O O14 0.210934 0.921388 0.444430
#
# Coordination Sequence:
#
# PCOD9546249 Si02
#       8
#    16   4  16  16  16  16   8  16
#     4  10  22  42  65  94 134 181 236 286 348 424
#     4  12  28  46  72 104 152 188 242 300 360 430
#     4  10  19  41  66  93 125 183 233 284 347 428
#     4  10  18  39  67  90 131 185 226 275 356 415
#     4  11  23  45  67 103 138 182 238 291 354 432
#     4  12  26  40  67 108 138 183 244 297 359 432
#     4  10  18  41  72  84 133 181 227 294 344 416
#     4  12  25  44  68 105 147 187 236 297 360 432
#
# _framework density 24.362559999999998
#
# number of rings (size 3 to 8) (size 9 to 14) (size 15 to 20)
#    0.000    1.185    5.926    2.667    2.074    2.963 
#    2.667    0.000    0.000    0.000    0.000    0.000 
#    0.000    0.000    0.000    0.000    0.000    0.000 
#
# Total GULP energy -301492.807149 kJ/mol
# GULP energy per Si atom -5583.200132 kJ/mol
# Density = 2.430711 g / cm^3
# Si number density = 24.362560 Si / 1000 Ang^3
#
#
#
# Elastic Constant Matrix: (Units=GPa)
#
#
# Indices 1 2 3 4 5 6 
#
# 1 76.2814 21.6010 5.7847 0.0000 0.0000 4.6998
# 2 21.6010 76.2814 5.7847 0.0000 0.0000 -4.6998
# 3 5.7847 5.7847 19.1328 0.0000 0.0000 0.0000
# 4 0.0000 0.0000 0.0000 20.3157 0.0000 0.0000
# 5 0.0000 0.0000 0.0000 0.0000 20.3157 0.0000
# 6 4.6998 -4.6998 0.0000 0.0000 0.0000 42.4723
#
#
#
# Elastic Compliance Matrix: (Units=1/GPa)
#
#
# Indices 1 2 3 4 5 6 
#
# 1 0.014619 -0.004024 -0.003203 0.000000 0.000000 -0.002063
# 2 -0.004024 0.014619 -0.003203 0.000000 0.000000 0.002063
# 3 -0.003203 -0.003203 0.054203 0.000000 0.000000 0.000000
# 4 0.000000 0.000000 0.000000 0.049223 0.000000 0.000000
# 5 0.000000 0.000000 0.000000 0.000000 0.049223 0.000000
# 6 -0.002063 0.002063 0.000000 0.000000 0.000000 0.024001
#
#
# Mechanical properties :
#
#
# Convention : Reuss Voigt Hill
#
# Bulk Modulus (GPa) = 15.97958 26.44850 21.21404
# Shear Modulus (GPa) = 20.19310 25.85575 23.02443
#
# Velocity S-wave (km/s) = 2.88211 3.26128 3.07754
# Velocity P-wave (km/s) = 4.20104 5.00610 4.62114
#
# Compressibility (1/GPa) = 0.06257986
#
# Stress axis : x y z
#
# Youngs Moduli (GPa) = 68.40492 68.40492 18.44905
#
# Poissons Ratio (x) = 0.27525 0.05910
# Poissons Ratio (y) = 0.27525 0.05910
# Poissons Ratio (z) = 0.21913 0.21913
#
# Static dielectric constant tensor:
#      x y z
#    x 2.015290 0.000000 0.000000 
#    y 0.000000 2.015290 0.000000 
#    z 0.000000 0.000000 2.161330 
# 
# From -- ./inp_files/5370.got.cif
#   From: 2010.05.17/outbox.cif.g08.bks.cpg/sg88_3_cif.got.tgz:5370.got - 2010.06.03 19:11:41.
