data_PCOD9546050
_publ_section_title
;
Structure prediction by ZEFSAII (Michael W. Deem and Ramdas Pophale) SiO2 
 PCOD9546050
Probable space group: I 4/M
;
_chemical_formula_sum "Si O2"
_cell_formula_units_Z 84
_cell_length_a 12.045563
_cell_length_b 12.045563
_cell_length_c 33.680593
_cell_angle_alpha 90.000000
_cell_angle_beta 90.000000
_cell_angle_gamma 90.000000
_cell_volume 4886.905445
_symmetry_space_group_name_H-M "I 4/M"
_symmetry_group_IT_number 87
_symmetry_cell_setting 'tetragonal'
loop_
_space_group_symop_operation_xyz
x,y,z
-y,x,z
-x,-y,z
y,-x,z
-x,-y,-z
y,-x,-z
x,y,-z
-y,x,-z
1/2+x,1/2+y,1/2+z
1/2-y,1/2+x,1/2+z
1/2-x,1/2-y,1/2+z
1/2+y,1/2-x,1/2+z
1/2-x,1/2-y,1/2-z
1/2+y,1/2-x,1/2-z
1/2+x,1/2+y,1/2-z
1/2-y,1/2+x,1/2-z
loop_
_atom_site_type_symbol
_atom_site_label
_atom_site_fract_x
_atom_site_fract_y
_atom_site_fract_z
Si Si1 0.743457 0.985508 0.163147
Si Si2 0.871029 0.716557 0.374169
Si Si3 0.329010 0.576889 0.954969
Si Si4 0.677978 0.561955 0.252894
Si Si5 0.607967 0.211703 0.169266
Si Si6 0.500000 0.500000 0.647771
O O1 0.757106 0.924728 0.205897
O O2 0.665390 0.092027 0.168033
O O3 0.865678 0.024712 0.150510
O O4 0.691232 0.898959 0.132670
O O5 0.886708 0.748355 0.420040
O O6 0.799651 0.812661 0.352804
O O7 0.990292 0.710470 0.352946
O O8 0.359235 0.446578 0.950773
O O9 0.288346 0.595234 0.000000
O O10 0.565885 0.635434 0.252699
O O11 0.749041 0.589380 0.214430
#
# Coordination Sequence:
#
# PCOD9546050 Si02
#       6
#    16  16  16  16  16   4
#     4  12  25  42  58  83 117 170 222 259 294 351
#     4  12  23  39  62  91 129 158 196 253 315 376
#     4   9  18  35  64  98 127 154 189 241 314 395
#     4  11  21  38  59  82 114 159 215 261 312 358
#     4  12  25  37  59  91 123 160 205 261 310 369
#     4  12  20  44  64  76 105 172 228 244 285 356
#
# _framework density 17.188790000000001
#
# number of rings (size 3 to 8) (size 9 to 14) (size 15 to 20)
#    0.000    0.762    7.619    1.143    2.667    1.905 
#    0.000    0.000    0.000    3.429    0.000    0.667 
#    0.000    0.000    0.000    0.000    0.000    0.000 
#
# Total GULP energy -234261.987403 kJ/mol
# GULP energy per Si atom -5577.666367 kJ/mol
# Density = 1.714967 g / cm^3
# Si number density = 17.188790 Si / 1000 Ang^3
#
#
#
# Elastic Constant Matrix: (Units=GPa)
#
#
# Indices 1 2 3 4 5 6 
#
# 1 87.6473 29.6063 52.7005 0.0000 0.0000 -0.1257
# 2 29.6063 87.6473 52.7005 0.0000 0.0000 0.1257
# 3 52.7005 52.7005 134.1877 0.0000 0.0000 0.0000
# 4 0.0000 0.0000 0.0000 24.1568 0.0000 0.0000
# 5 0.0000 0.0000 0.0000 0.0000 24.1568 0.0000
# 6 -0.1257 0.1257 0.0000 0.0000 0.0000 42.8813
#
#
#
# Elastic Compliance Matrix: (Units=1/GPa)
#
#
# Indices 1 2 3 4 5 6 
#
# 1 0.015206 -0.002024 -0.005177 0.000000 0.000000 0.000051
# 2 -0.002024 0.015206 -0.005177 0.000000 0.000000 -0.000051
# 3 -0.005177 -0.005177 0.011519 0.000000 0.000000 0.000000
# 4 0.000000 0.000000 0.000000 0.041396 0.000000 0.000000
# 5 0.000000 0.000000 0.000000 0.000000 0.041396 0.000000
# 6 0.000051 -0.000051 0.000000 0.000000 0.000000 0.023320
#
#
# Mechanical properties :
#
#
# Convention : Reuss Voigt Hill
#
# Bulk Modulus (GPa) = 58.22501 64.38855 61.30678
# Shear Modulus (GPa) = 28.00735 29.87063 28.93899
#
# Velocity S-wave (km/s) = 4.04096 4.17321 4.10762
# Velocity P-wave (km/s) = 7.46457 7.79499 7.63157
#
# Compressibility (1/GPa) = 0.01717475
#
# Stress axis : x y z
#
# Youngs Moduli (GPa) = 65.76386 65.76386 86.81431
#
# Poissons Ratio (x) = 0.13307 0.44946
# Poissons Ratio (y) = 0.13307 0.44946
# Poissons Ratio (z) = 0.34047 0.34047
#
# Static dielectric constant tensor:
#      x y z
#    x 1.577800 0.000000 0.000000 
#    y 0.000000 1.577800 0.000000 
#    z 0.000000 0.000000 1.567950 
# 
# From -- ./inp_files/6583.got.cif
#   From: 2010.05.17/outbox.cif.g08.bks.cpg/sg87_4_cif.got.tgz:6583.got - 2010.06.03 19:07:00.
