data_PCOD9546527
_publ_section_title
;
Structure prediction by ZEFSAII (Michael W. Deem and Ramdas Pophale) SiO2 
 PCOD9546527
Probable space group: I 41/A
;
_chemical_formula_sum "Si O2"
_cell_formula_units_Z 80
_cell_length_a 26.281282
_cell_length_b 26.281282
_cell_length_c 4.882858
_cell_angle_alpha 90.000000
_cell_angle_beta 90.000000
_cell_angle_gamma 90.000000
_cell_volume 3372.618261
_symmetry_space_group_name_H-M "I 41/A"
_symmetry_group_IT_number 88
_space_group.IT_coordinate_system_code '2'
_symmetry_cell_setting 'tetragonal'
loop_
_space_group_symop_operation_xyz
x,y,z
3/4-y,1/4+x,1/4+z
-x,1/2-y,z
1/4+y,1/4-x,1/4+z
-x,-y,-z
1/4+y,3/4-x,3/4-z
x,1/2+y,-z
3/4-y,3/4+x,3/4-z
1/2+x,1/2+y,1/2+z
1/4-y,3/4+x,3/4+z
1/2-x,-y,1/2+z
3/4+y,3/4-x,3/4+z
1/2-x,1/2-y,1/2-z
3/4+y,1/4-x,1/4-z
1/2+x,y,1/2-z
1/4-y,1/4+x,1/4-z
loop_
_atom_site_type_symbol
_atom_site_label
_atom_site_fract_x
_atom_site_fract_y
_atom_site_fract_z
Si Si1 0.325085 0.287971 0.559563
Si Si2 0.282738 0.884418 0.217330
Si Si3 0.372640 0.694342 0.604710
Si Si4 0.839458 0.425127 0.214450
Si Si5 0.458982 0.638724 0.313883
O O1 0.283531 0.325383 0.682996
O O2 0.338858 0.303830 0.252159
O O3 0.393371 0.232241 0.159879
O O4 0.374657 0.296952 0.749937
O O5 0.295308 0.916467 0.491404
O O6 0.326796 0.896926 0.999216
O O7 0.232147 0.900593 0.061987
O O8 0.347936 0.640406 0.673140
O O9 0.420934 0.681965 0.413420
O O10 0.326845 0.726939 0.459627
#
# Coordination Sequence:
#
# PCOD9546527 Si02
#       5
#    16  16  16  16  16
#     4  10  22  39  66  96 137 176 237 271 343 423
#     4  12  25  48  69 106 131 187 231 294 362 419
#     4  10  23  41  68  97 144 181 227 288 343 413
#     4  12  26  45  75  96 144 177 233 298 356 418
#     4  10  22  37  65  97 135 183 223 281 334 421
#
# _framework density 23.720443
#
# number of rings (size 3 to 8) (size 9 to 14) (size 15 to 20)
#    1.200    0.000    4.000    1.200    5.600    2.800 
#    0.000    1.000    0.000    0.000    0.000    0.000 
#    0.000    0.000    0.000    0.000    0.000    0.000 
#
# Total GULP energy -222872.217763 kJ/mol
# GULP energy per Si atom -5571.805444 kJ/mol
# Density = 2.366645 g / cm^3
# Si number density = 23.720443 Si / 1000 Ang^3
#
#
#
# Elastic Constant Matrix: (Units=GPa)
#
#
# Indices 1 2 3 4 5 6 
#
# 1 66.9015 44.2157 16.1408 0.0000 0.0000 23.4277
# 2 44.2157 66.9015 16.1408 0.0000 0.0000 -23.4277
# 3 16.1408 16.1408 87.5029 0.0000 0.0000 0.0000
# 4 0.0000 0.0000 0.0000 32.8487 0.0000 0.0000
# 5 0.0000 0.0000 0.0000 0.0000 32.8487 0.0000
# 6 23.4277 -23.4277 0.0000 0.0000 0.0000 -30.3664
#
#
#
# Elastic Compliance Matrix: (Units=1/GPa)
#
#
# Indices 1 2 3 4 5 6 
#
# 1 0.013253 -0.003744 -0.001754 0.000000 0.000000 0.013113
# 2 -0.003744 0.013253 -0.001754 0.000000 0.000000 -0.013113
# 3 -0.001754 -0.001754 0.012075 0.000000 0.000000 0.000000
# 4 0.000000 0.000000 0.000000 0.030443 0.000000 0.000000
# 5 0.000000 0.000000 0.000000 0.000000 0.030443 0.000000
# 6 0.013113 -0.013113 0.000000 0.000000 0.000000 -0.012698
#
#
# Mechanical properties :
#
#
# Convention : Reuss Voigt Hill
#
# Bulk Modulus (GPa) = 41.53290 41.58893 41.56091
# Shear Modulus (GPa) = 45.74639 16.72010 31.23324
#
# Velocity S-wave (km/s) = 4.39631 2.65784 3.63260
# Velocity P-wave (km/s) = 6.58159 5.19517 5.92905
#
# Compressibility (1/GPa) = 0.02407730
#
# Stress axis : x y z
#
# Youngs Moduli (GPa) = 75.45511 75.45511 82.81368
#
# Poissons Ratio (x) = 0.28249 0.14526
# Poissons Ratio (y) = 0.28249 0.14526
# Poissons Ratio (z) = 0.13235 0.13235
#
# Static dielectric constant tensor:
#      x y z
#    x 1.958090 0.000000 0.000000 
#    y 0.000000 1.958090 0.000000 
#    z 0.000000 0.000000 1.864280 
# 
# From -- ./inp_files/684.got.cif
#   From: 2010.05.17/outbox.cif.g08.bks.cpg/sg88_1_cif.got.tgz:684.got - 2010.06.03 19:11:41.
