data_PCOD9546937
_publ_section_title
;
Structure prediction by ZEFSAII (Michael W. Deem and Ramdas Pophale) SiO2 
 PCOD9546937
Probable space group: P 4 2 2
;
_chemical_formula_sum "Si O2"
_cell_formula_units_Z 40
_cell_length_a 15.492076
_cell_length_b 15.492076
_cell_length_c 8.402702
_cell_angle_alpha 90.000000
_cell_angle_beta 90.000000
_cell_angle_gamma 90.000000
_cell_volume 2016.685610
_symmetry_space_group_name_H-M "P 4 2 2"
_symmetry_group_IT_number 89
_symmetry_cell_setting 'tetragonal'
loop_
_space_group_symop_operation_xyz
x,y,z
-y,x,z
-x,-y,z
y,-x,z
x,-y,-z
-x,y,-z
y,x,-z
-y,-x,-z
loop_
_atom_site_type_symbol
_atom_site_label
_atom_site_fract_x
_atom_site_fract_y
_atom_site_fract_z
Si Si1 0.310232 0.326619 0.305276
Si Si2 0.755244 0.982776 0.178194
Si Si3 0.256762 0.513019 0.310839
Si Si4 0.553678 0.075705 0.831173
Si Si5 0.189813 0.833299 0.312019
O O1 0.316727 0.316727 0.500000
O O2 0.276150 0.418440 0.247292
O O3 0.408683 0.315522 0.252018
O O4 0.241933 0.254530 0.251901
O O5 0.653991 0.953198 0.164937
O O6 0.812233 0.904232 0.243263
O O7 0.771003 0.072469 0.272446
O O8 0.784468 0.000000 0.000000
O O9 0.265956 0.500000 0.500000
O O10 0.161986 0.544203 0.267205
O O11 0.500000 0.000000 0.748480
O O12 0.500000 0.087912 0.000000
O O13 0.179284 0.820717 0.500000
#
# Coordination Sequence:
#
# PCOD9546937 Si02
#       5
#     8   8   8   8   8
#     4   9  19  35  60  92 130 167 217 269 327 385
#     4  12  24  44  68  95 133 177 214 269 335 395
#     4  10  20  38  60  92 128 172 218 271 326 386
#     4  11  22  40  60  93 129 165 221 269 323 389
#     4  11  24  44  68  99 132 171 225 278 332 396
#
# _framework density 19.834523999999998
#
# number of rings (size 3 to 8) (size 9 to 14) (size 15 to 20)
#    0.000    1.400    4.000    2.400    0.000    1.200 
#    3.600    5.000    0.000    0.000    0.000    1.400 
#    0.000    0.000    0.000    0.000    0.000    0.000 
#
# Total GULP energy -223003.750821 kJ/mol
# GULP energy per Si atom -5575.093771 kJ/mol
# Density = 1.978938 g / cm^3
# Si number density = 19.834524 Si / 1000 Ang^3
#
#
#
# Elastic Constant Matrix: (Units=GPa)
#
#
# Indices 1 2 3 4 5 6 
#
# 1 136.4321 58.0427 23.2041 0.0000 0.0000 0.0000
# 2 58.0427 136.4328 23.2044 0.0000 0.0000 0.0000
# 3 23.2041 23.2044 25.4276 0.0000 0.0000 0.0000
# 4 0.0000 0.0000 0.0000 24.4699 0.0000 0.0000
# 5 0.0000 0.0000 0.0000 0.0000 24.4709 0.0000
# 6 0.0000 0.0000 0.0000 0.0000 0.0000 42.8415
#
#
#
# Elastic Compliance Matrix: (Units=1/GPa)
#
#
# Indices 1 2 3 4 5 6 
#
# 1 0.009665 -0.003092 -0.005999 0.000000 0.000000 0.000000
# 2 -0.003092 0.009665 -0.005999 0.000000 0.000000 0.000000
# 3 -0.005999 -0.005999 0.050276 0.000000 0.000000 0.000000
# 4 0.000000 0.000000 0.000000 0.040867 0.000000 0.000000
# 5 0.000000 0.000000 0.000000 0.000000 0.040865 0.000000
# 6 0.000000 0.000000 0.000000 0.000000 0.000000 0.023342
#
#
# Mechanical properties :
#
#
# Convention : Reuss Voigt Hill
#
# Bulk Modulus (GPa) = 25.36277 56.35499 40.85888
# Shear Modulus (GPa) = 22.93573 31.27921 27.10747
#
# Velocity S-wave (km/s) = 3.40421 3.97546 3.70088
# Velocity P-wave (km/s) = 5.31662 7.03894 6.23751
#
# Compressibility (1/GPa) = 0.03942788
#
# Stress axis : x y z
#
# Youngs Moduli (GPa) = 103.46428 103.46439 19.89025
#
# Poissons Ratio (x) = 0.31987 0.11932
# Poissons Ratio (y) = 0.31987 0.11932
# Poissons Ratio (z) = 0.62065 0.62067
#
# Static dielectric constant tensor:
#      x y z
#    x 1.621290 0.000000 0.000000 
#    y 0.000000 1.621270 0.000000 
#    z 0.000000 0.000000 1.709710 
# 
# From -- ./inp_files/1040.got.cif
#   From: 2010.05.17/outbox.cif.g08.bks.cpg/sg89_1_cif.got.tgz:1040.got - 2010.06.03 19:15:31.
