data_PCOD9546283
_publ_section_title
;
Structure prediction by ZEFSAII (Michael W. Deem and Ramdas Pophale) SiO2 
 PCOD9546283
Probable space group: I 41/A
;
_chemical_formula_sum "Si O2"
_cell_formula_units_Z 96
_cell_length_a 21.815029
_cell_length_b 21.815029
_cell_length_c 9.013759
_cell_angle_alpha 90.000000
_cell_angle_beta 90.000000
_cell_angle_gamma 90.000000
_cell_volume 4289.607258
_symmetry_space_group_name_H-M "I 41/A"
_symmetry_group_IT_number 88
_space_group.IT_coordinate_system_code '2'
_symmetry_cell_setting 'tetragonal'
loop_
_space_group_symop_operation_xyz
x,y,z
3/4-y,1/4+x,1/4+z
-x,1/2-y,z
1/4+y,1/4-x,1/4+z
-x,-y,-z
1/4+y,3/4-x,3/4-z
x,1/2+y,-z
3/4-y,3/4+x,3/4-z
1/2+x,1/2+y,1/2+z
1/4-y,3/4+x,3/4+z
1/2-x,-y,1/2+z
3/4+y,3/4-x,3/4+z
1/2-x,1/2-y,1/2-z
3/4+y,1/4-x,1/4-z
1/2+x,y,1/2-z
1/4-y,1/4+x,1/4-z
loop_
_atom_site_type_symbol
_atom_site_label
_atom_site_fract_x
_atom_site_fract_y
_atom_site_fract_z
Si Si1 0.051172 0.918529 0.857876
Si Si2 0.227948 0.167882 0.655866
Si Si3 0.953138 0.953160 0.327538
Si Si4 0.865223 0.015240 0.909142
Si Si5 0.199843 0.984961 0.500946
Si Si6 0.422166 0.393818 0.528847
O O1 0.081736 0.863205 0.765296
O O2 0.044714 0.980043 0.756329
O O3 0.100568 0.935809 0.986673
O O4 0.985835 0.902815 0.935079
O O5 0.192785 0.230534 0.651805
O O6 0.283968 0.164703 0.773130
O O7 0.245246 0.153910 0.489361
O O8 0.193671 0.107582 0.707585
O O9 0.939262 0.904251 0.201514
O O10 0.798495 0.039323 0.848758
O O11 0.876675 0.950645 0.990519
O O12 0.198889 0.995442 0.674278
#
# Coordination Sequence:
#
# PCOD9546283 Si02
#       6
#    16  16  16  16  16  16
#     4  11  21  37  61  85 119 157 211 261 312 374
#     4  10  19  36  60  84 120 160 202 253 305 395
#     4  10  21  38  59  87 119 155 214 252 320 386
#     4  10  19  38  60  85 117 163 196 249 317 387
#     4  10  22  34  54  87 126 156 192 244 317 383
#     4  11  22  38  60  89 120 162 212 263 311 377
#
# _framework density 22.379673
#
# number of rings (size 3 to 8) (size 9 to 14) (size 15 to 20)
#    0.000    1.667    3.333    3.000    0.000    7.000 
#    0.000    0.000    0.000    0.000    0.000    0.000 
#    0.000    0.000    0.000    0.000    0.000    0.000 
#
# Total GULP energy -267323.584195 kJ/mol
# GULP energy per Si atom -5569.241337 kJ/mol
# Density = 2.232874 g / cm^3
# Si number density = 22.379673 Si / 1000 Ang^3
#
#
#
# Elastic Constant Matrix: (Units=GPa)
#
#
# Indices 1 2 3 4 5 6 
#
# 1 101.2951 28.3255 22.0654 0.0000 0.0000 -8.8938
# 2 28.3255 101.2951 22.0654 0.0000 0.0000 8.8938
# 3 22.0654 22.0654 117.0400 0.0000 0.0000 0.0000
# 4 0.0000 0.0000 0.0000 32.3263 0.0000 0.0000
# 5 0.0000 0.0000 0.0000 0.0000 32.3263 0.0000
# 6 -8.8938 8.8938 0.0000 0.0000 0.0000 16.3499
#
#
#
# Elastic Compliance Matrix: (Units=1/GPa)
#
#
# Indices 1 2 3 4 5 6 
#
# 1 0.012022 -0.003778 -0.001554 0.000000 0.000000 0.008594
# 2 -0.003778 0.012022 -0.001554 0.000000 0.000000 -0.008594
# 3 -0.001554 -0.001554 0.009130 0.000000 0.000000 0.000000
# 4 0.000000 0.000000 0.000000 0.030935 0.000000 0.000000
# 5 0.000000 0.000000 0.000000 0.000000 0.030935 0.000000
# 6 0.008594 -0.008594 0.000000 0.000000 0.000000 0.070512
#
#
# Mechanical properties :
#
#
# Convention : Reuss Voigt Hill
#
# Bulk Modulus (GPa) = 51.54332 51.61590 51.57961
# Shear Modulus (GPa) = 26.91146 32.67874 29.79510
#
# Velocity S-wave (km/s) = 3.47146 3.82540 3.65272
# Velocity P-wave (km/s) = 6.25695 6.52881 6.39432
#
# Compressibility (1/GPa) = 0.01940116
#
# Stress axis : x y z
#
# Youngs Moduli (GPa) = 83.18318 83.18318 109.52761
#
# Poissons Ratio (x) = 0.31424 0.17023
# Poissons Ratio (y) = 0.31424 0.17023
# Poissons Ratio (z) = 0.12929 0.12929
#
# Static dielectric constant tensor:
#      x y z
#    x 1.957450 0.000000 0.000000 
#    y 0.000000 1.957450 0.000000 
#    z 0.000000 0.000000 1.906810 
# 
# From -- ./inp_files/1705.got.cif
#   From: 2010.05.17/outbox.cif.g08.bks.cpg/sg88_1_cif.got.tgz:1705.got - 2010.06.03 19:11:41.
