data_PCOD9546967
_publ_section_title
;
Structure prediction by ZEFSAII (Michael W. Deem and Ramdas Pophale) SiO2 
 PCOD9546967
Probable space group: P 4 2 2
;
_chemical_formula_sum "Si O2"
_cell_formula_units_Z 40
_cell_length_a 10.598069
_cell_length_b 10.598069
_cell_length_c 18.125066
_cell_angle_alpha 90.000000
_cell_angle_beta 90.000000
_cell_angle_gamma 90.000000
_cell_volume 2035.790494
_symmetry_space_group_name_H-M "P 4 2 2"
_symmetry_group_IT_number 89
_symmetry_cell_setting 'tetragonal'
loop_
_space_group_symop_operation_xyz
x,y,z
-y,x,z
-x,-y,z
y,-x,z
x,-y,-z
-x,y,-z
y,x,-z
-y,-x,-z
loop_
_atom_site_type_symbol
_atom_site_label
_atom_site_fract_x
_atom_site_fract_y
_atom_site_fract_z
Si Si1 0.011873 0.790649 0.127815
Si Si2 0.051633 0.638865 0.272552
Si Si3 0.690108 0.412188 0.206380
Si Si4 0.001363 0.787252 0.416139
Si Si5 0.370805 0.186448 0.045533
O O1 0.005259 0.735827 0.210014
O O2 0.049555 0.678710 0.072999
O O3 0.887232 0.871805 0.116589
O O4 0.202193 0.633727 0.261838
O O5 0.008860 0.684791 0.352381
O O6 0.000000 0.500000 0.255624
O O7 0.661790 0.559962 0.216387
O O8 0.740823 0.393055 0.123241
O O9 0.879990 0.878029 0.407798
O O10 0.000000 0.737589 0.500000
O O11 0.500000 0.182666 0.000000
O O12 0.267103 0.267103 0.000000
#
# Coordination Sequence:
#
# PCOD9546967 Si02
#       5
#     8   8   8   8   8
#     4  10  24  44  65  88 123 163 205 265 335 394
#     4  11  24  35  64  95 128 157 211 259 316 377
#     4  10  22  39  60  84 122 168 218 261 314 382
#     4   9  19  38  65  95 129 167 205 252 315 380
#     4  11  22  38  66  88 121 163 218 271 328 380
#
# _framework density 19.648385999999999
#
# number of rings (size 3 to 8) (size 9 to 14) (size 15 to 20)
#    0.000    1.800    2.000    1.800    8.400    3.000 
#    0.000    6.000    0.000    0.000    0.000    0.000 
#    0.000    0.000    0.000    0.000    0.000    0.000 
#
# Total GULP energy -223658.193822 kJ/mol
# GULP energy per Si atom -5591.454846 kJ/mol
# Density = 1.960367 g / cm^3
# Si number density = 19.648386 Si / 1000 Ang^3
#
#
#
# Elastic Constant Matrix: (Units=GPa)
#
#
# Indices 1 2 3 4 5 6 
#
# 1 49.0218 21.0283 38.3169 0.0000 0.0000 0.0000
# 2 21.0283 49.0218 38.3169 0.0000 0.0000 0.0000
# 3 38.3169 38.3169 97.6874 0.0000 0.0000 0.0000
# 4 0.0000 0.0000 0.0000 24.6972 0.0000 0.0000
# 5 0.0000 0.0000 0.0000 0.0000 24.6972 0.0000
# 6 0.0000 0.0000 0.0000 0.0000 0.0000 8.2577
#
#
#
# Elastic Compliance Matrix: (Units=1/GPa)
#
#
# Indices 1 2 3 4 5 6 
#
# 1 0.030364 -0.005359 -0.009808 0.000000 0.000000 0.000000
# 2 -0.005359 0.030364 -0.009808 0.000000 0.000000 0.000000
# 3 -0.009808 -0.009808 0.017931 0.000000 0.000000 0.000000
# 4 0.000000 0.000000 0.000000 0.040490 0.000000 0.000000
# 5 0.000000 0.000000 0.000000 0.000000 0.040490 0.000000
# 6 0.000000 0.000000 0.000000 0.000000 0.000000 0.121099
#
#
# Mechanical properties :
#
#
# Convention : Reuss Voigt Hill
#
# Bulk Modulus (GPa) = 34.83182 43.45058 39.14120
# Shear Modulus (GPa) = 14.69472 18.06834 16.38153
#
# Velocity S-wave (km/s) = 2.73771 3.03575 2.89058
# Velocity P-wave (km/s) = 5.26873 5.86940 5.57715
#
# Compressibility (1/GPa) = 0.02870938
#
# Stress axis : x y z
#
# Youngs Moduli (GPa) = 32.93374 32.93374 55.76920
#
# Poissons Ratio (x) = 0.17648 0.54699
# Poissons Ratio (y) = 0.17648 0.54699
# Poissons Ratio (z) = 0.32302 0.32302
#
# Static dielectric constant tensor:
#      x y z
#    x 1.710670 0.000000 0.000000 
#    y 0.000000 1.710670 0.000000 
#    z 0.000000 0.000000 1.670710 
# 
# From -- ./inp_files/2117.got.cif
#   From: 2010.05.17/outbox.cif.g08.bks.cpg/sg89_2_cif.got.tgz:2117.got - 2010.06.03 19:15:31.
