data_PCOD9546006
_publ_section_title
;
Structure prediction by ZEFSAII (Michael W. Deem and Ramdas Pophale) SiO2 
 PCOD9546006
Probable space group: I 4/M
;
_chemical_formula_sum "Si O2"
_cell_formula_units_Z 88
_cell_length_a 13.822529
_cell_length_b 13.822529
_cell_length_c 20.294934
_cell_angle_alpha 90.000000
_cell_angle_beta 90.000000
_cell_angle_gamma 90.000000
_cell_volume 3877.596930
_symmetry_space_group_name_H-M "I 4/M"
_symmetry_group_IT_number 87
_symmetry_cell_setting 'tetragonal'
loop_
_space_group_symop_operation_xyz
x,y,z
-y,x,z
-x,-y,z
y,-x,z
-x,-y,-z
y,-x,-z
x,y,-z
-y,x,-z
1/2+x,1/2+y,1/2+z
1/2-y,1/2+x,1/2+z
1/2-x,1/2-y,1/2+z
1/2+y,1/2-x,1/2+z
1/2-x,1/2-y,1/2-z
1/2+y,1/2-x,1/2-z
1/2+x,1/2+y,1/2-z
1/2-y,1/2+x,1/2-z
loop_
_atom_site_type_symbol
_atom_site_label
_atom_site_fract_x
_atom_site_fract_y
_atom_site_fract_z
Si Si1 0.905037 0.458205 0.861531
Si Si2 0.656212 0.466604 0.712402
Si Si3 0.634975 0.213721 0.075265
Si Si4 0.830597 0.759092 0.308858
Si Si5 0.943885 0.150296 0.000000
Si Si6 0.011440 0.291284 0.903371
O O1 0.831954 0.538149 0.890357
O O2 0.845647 0.374673 0.824584
O O3 0.000000 0.500000 0.824389
O O4 0.962679 0.394533 0.915109
O O5 0.608886 0.570159 0.697797
O O6 0.684546 0.426940 0.784022
O O7 0.753423 0.466352 0.669925
O O8 0.687321 0.284945 0.127577
O O9 0.702500 0.119163 0.068791
O O10 0.618305 0.250570 0.000000
O O11 0.750000 0.750000 0.250000
O O12 0.938535 0.216029 0.063719
O O13 0.883878 0.054920 0.000000
#
# Coordination Sequence:
#
# PCOD9546006 Si02
#       6
#    16  16  16  16   8  16
#     4  10  26  45  69 104 146 189 241 307 375 444
#     4  11  23  41  65  95 137 181 232 297 368 437
#     4  11  25  46  69 105 143 195 250 308 381 446
#     4  12  24  46  70 103 139 189 252 308 377 451
#     4  11  24  36  59  98 144 190 237 288 369 453
#     4  11  22  40  64  97 140 186 236 300 363 444
#
# _framework density 22.694469000000002
#
# number of rings (size 3 to 8) (size 9 to 14) (size 15 to 20)
#    0.000    1.000    2.727    3.273    3.818    3.273 
#    3.273    0.000    0.000    0.000    0.000    3.818 
#    0.000    0.000    0.000    0.000    0.000    0.000 
#
# Total GULP energy -245068.119330 kJ/mol
# GULP energy per Si atom -5569.729985 kJ/mol
# Density = 2.264281 g / cm^3
# Si number density = 22.694469 Si / 1000 Ang^3
#
#
#
# Elastic Constant Matrix: (Units=GPa)
#
#
# Indices 1 2 3 4 5 6 
#
# 1 98.9500 55.9511 51.1513 0.0000 0.0000 4.0838
# 2 55.9511 98.9500 51.1513 0.0000 0.0000 -4.0838
# 3 51.1513 51.1513 126.2030 0.0000 0.0000 0.0000
# 4 0.0000 0.0000 0.0000 3.8586 0.0000 0.0000
# 5 0.0000 0.0000 0.0000 0.0000 3.8586 0.0000
# 6 4.0838 -4.0838 0.0000 0.0000 0.0000 53.4445
#
#
#
# Elastic Compliance Matrix: (Units=1/GPa)
#
#
# Indices 1 2 3 4 5 6 
#
# 1 0.016207 -0.007392 -0.003573 0.000000 0.000000 -0.001803
# 2 -0.007392 0.016207 -0.003573 0.000000 0.000000 0.001803
# 3 -0.003573 -0.003573 0.010820 0.000000 0.000000 0.000000
# 4 0.000000 0.000000 0.000000 0.259160 0.000000 0.000000
# 5 0.000000 0.000000 0.000000 0.000000 0.259160 0.000000
# 6 -0.001803 0.001803 0.000000 0.000000 0.000000 0.018987
#
#
# Mechanical properties :
#
#
# Convention : Reuss Voigt Hill
#
# Bulk Modulus (GPa) = 70.62623 71.17893 70.90258
# Shear Modulus (GPa) = 8.13887 23.28898 15.71393
#
# Velocity S-wave (km/s) = 1.89580 3.20691 2.63423
# Velocity P-wave (km/s) = 5.99834 6.71896 6.36885
#
# Compressibility (1/GPa) = 0.01415904
#
# Stress axis : x y z
#
# Youngs Moduli (GPa) = 61.70097 61.70097 92.42082
#
# Poissons Ratio (x) = 0.45608 0.33022
# Poissons Ratio (y) = 0.45608 0.33022
# Poissons Ratio (z) = 0.22046 0.22046
#
# Static dielectric constant tensor:
#      x y z
#    x 1.959060 0.000000 0.000000 
#    y 0.000000 1.959060 0.000000 
#    z 0.000000 0.000000 1.780370 
# 
# From -- ./inp_files/5161.got.cif
#   From: 2010.05.17/outbox.cif.g08.bks.cpg/sg87_3_cif.got.tgz:5161.got - 2010.06.03 19:07:00.
