data_PCOD9546668
_publ_section_title
;
Structure prediction by ZEFSAII (Michael W. Deem and Ramdas Pophale) SiO2 
 PCOD9546668
Probable space group: I 41/A
;
_chemical_formula_sum "Si O2"
_cell_formula_units_Z 52
_cell_length_a 21.134230
_cell_length_b 21.134230
_cell_length_c 4.902202
_cell_angle_alpha 90.000000
_cell_angle_beta 90.000000
_cell_angle_gamma 90.000000
_cell_volume 2189.596356
_symmetry_space_group_name_H-M "I 41/A"
_symmetry_group_IT_number 88
_space_group.IT_coordinate_system_code '2'
_symmetry_cell_setting 'tetragonal'
loop_
_space_group_symop_operation_xyz
x,y,z
3/4-y,1/4+x,1/4+z
-x,1/2-y,z
1/4+y,1/4-x,1/4+z
-x,-y,-z
1/4+y,3/4-x,3/4-z
x,1/2+y,-z
3/4-y,3/4+x,3/4-z
1/2+x,1/2+y,1/2+z
1/4-y,3/4+x,3/4+z
1/2-x,-y,1/2+z
3/4+y,3/4-x,3/4+z
1/2-x,1/2-y,1/2-z
3/4+y,1/4-x,1/4-z
1/2+x,y,1/2-z
1/4-y,1/4+x,1/4-z
loop_
_atom_site_type_symbol
_atom_site_label
_atom_site_fract_x
_atom_site_fract_y
_atom_site_fract_z
Si Si1 0.150962 0.637336 0.892219
Si Si2 0.063993 0.531150 0.131873
Si Si3 0.000000 0.750000 0.375000
Si Si4 0.533578 0.881119 0.140727
O O1 0.224707 0.641057 0.984853
O O2 0.154979 0.658878 0.578381
O O3 0.108094 0.576429 0.948116
O O4 0.122973 0.692760 0.084651
O O5 0.028638 0.575615 0.351257
O O6 0.000000 0.500000 0.000000
O O7 0.064053 0.732477 0.525406
#
# Coordination Sequence:
#
# PCOD9546668 Si02
#       4
#    16  16   4  16
#     4  11  25  44  66  96 132 182 219 272 329 397
#     4  10  24  45  69  95 137 174 225 273 333 389
#     4  12  24  38  72 106 132 166 220 278 348 398
#     4  11  25  40  69  99 136 167 219 277 341 392
#
# _framework density 23.748671000000002
#
# number of rings (size 3 to 8) (size 9 to 14) (size 15 to 20)
#    0.000    1.231    3.077    0.923    8.615    6.154 
#    0.000    6.154    0.000    0.000    0.000    0.000 
#    0.000    0.000    0.000    0.000    0.000    0.000 
#
# Total GULP energy -144926.992921 kJ/mol
# GULP energy per Si atom -5574.115112 kJ/mol
# Density = 2.369462 g / cm^3
# Si number density = 23.748671 Si / 1000 Ang^3
#
#
#
# Elastic Constant Matrix: (Units=GPa)
#
#
# Indices 1 2 3 4 5 6 
#
# 1 132.2890 57.3291 21.0333 0.0000 0.0000 12.1379
# 2 57.3291 132.2890 21.0333 0.0000 0.0000 -12.1379
# 3 21.0333 21.0333 86.8713 0.0000 0.0000 0.0000
# 4 0.0000 0.0000 0.0000 20.7915 0.0000 0.0000
# 5 0.0000 0.0000 0.0000 0.0000 20.7915 0.0000
# 6 12.1379 -12.1379 0.0000 0.0000 0.0000 55.9611
#
#
#
# Elastic Compliance Matrix: (Units=1/GPa)
#
#
# Indices 1 2 3 4 5 6 
#
# 1 0.009961 -0.004388 -0.001349 0.000000 0.000000 -0.003112
# 2 -0.004388 0.009961 -0.001349 0.000000 0.000000 0.003112
# 3 -0.001349 -0.001349 0.012165 0.000000 0.000000 0.000000
# 4 0.000000 0.000000 0.000000 0.048097 0.000000 0.000000
# 5 0.000000 0.000000 0.000000 0.000000 0.048097 0.000000
# 6 -0.003112 0.003112 0.000000 0.000000 0.000000 0.019220
#
#
# Mechanical properties :
#
#
# Convention : Reuss Voigt Hill
#
# Bulk Modulus (GPa) = 55.82392 61.13786 58.48089
# Shear Modulus (GPa) = 29.82534 36.31240 33.06887
#
# Velocity S-wave (km/s) = 3.54768 3.91452 3.73560
# Velocity P-wave (km/s) = 6.35126 6.79933 6.57911
#
# Compressibility (1/GPa) = 0.01791347
#
# Stress axis : x y z
#
# Youngs Moduli (GPa) = 100.39430 100.39430 82.20510
#
# Poissons Ratio (x) = 0.44049 0.11092
# Poissons Ratio (y) = 0.44049 0.11092
# Poissons Ratio (z) = 0.13547 0.13547
#
# Static dielectric constant tensor:
#      x y z
#    x 1.976810 0.000000 0.000000 
#    y 0.000000 1.976810 0.000000 
#    z 0.000000 0.000000 1.925190 
# 
# From -- ./inp_files/388.got.cif
#   From: 2010.05.17/outbox.cif.g08.bks.cpg/sg88_1_cif.got.tgz:388.got - 2010.06.03 19:11:41.
