data_PCOD9546017
_publ_section_title
;
Structure prediction by ZEFSAII (Michael W. Deem and Ramdas Pophale) SiO2 
 PCOD9546017
Probable space group: I 4/M
;
_chemical_formula_sum "Si O2"
_cell_formula_units_Z 84
_cell_length_a 14.883169
_cell_length_b 14.883169
_cell_length_c 20.242728
_cell_angle_alpha 90.000000
_cell_angle_beta 90.000000
_cell_angle_gamma 90.000000
_cell_volume 4483.940758
_symmetry_space_group_name_H-M "I 4/M"
_symmetry_group_IT_number 87
_symmetry_cell_setting 'tetragonal'
loop_
_space_group_symop_operation_xyz
x,y,z
-y,x,z
-x,-y,z
y,-x,z
-x,-y,-z
y,-x,-z
x,y,-z
-y,x,-z
1/2+x,1/2+y,1/2+z
1/2-y,1/2+x,1/2+z
1/2-x,1/2-y,1/2+z
1/2+y,1/2-x,1/2+z
1/2-x,1/2-y,1/2-z
1/2+y,1/2-x,1/2-z
1/2+x,1/2+y,1/2-z
1/2-y,1/2+x,1/2-z
loop_
_atom_site_type_symbol
_atom_site_label
_atom_site_fract_x
_atom_site_fract_y
_atom_site_fract_z
Si Si1 0.237662 0.085584 0.078261
Si Si2 0.162249 0.403325 0.194883
Si Si3 0.401141 0.290095 0.649845
Si Si4 0.000000 0.000000 0.340861
Si Si5 0.859629 0.398308 0.837768
Si Si6 0.845842 0.130871 0.298047
O O1 0.176647 0.166572 0.105585
O O2 0.339170 0.102482 0.103033
O O3 0.201714 0.995840 0.113686
O O4 0.232124 0.078073 0.000000
O O5 0.118870 0.314410 0.164028
O O6 0.138789 0.494452 0.156956
O O7 0.129653 0.411266 0.270659
O O8 0.269008 0.385563 0.198223
O O9 0.398817 0.338618 0.721219
O O10 0.091852 0.938414 0.336076
O O11 0.755899 0.370266 0.824806
#
# Coordination Sequence:
#
# PCOD9546017 Si02
#       6
#    16  16  16   4  16  16
#     4  12  25  42  61  86 125 173 213 249 302 377
#     4  11  21  37  65  92 122 155 201 263 328 367
#     4  11  23  41  61  90 123 163 212 260 303 376
#     4  12  20  28  60 104 126 148 192 248 324 398
#     4  11  21  39  61  91 125 158 199 257 318 375
#     4  11  19  35  61  97 126 152 196 260 329 370
#
# _framework density 18.733521
#
# number of rings (size 3 to 8) (size 9 to 14) (size 15 to 20)
#    0.000    0.762    5.714    5.143    0.000    3.048 
#    0.000    3.810    0.000    0.000    0.000    0.667 
#    0.000    0.000    0.000    0.000    0.000    0.000 
#
# Total GULP energy -234352.391658 kJ/mol
# GULP energy per Si atom -5579.818849 kJ/mol
# Density = 1.869088 g / cm^3
# Si number density = 18.733521 Si / 1000 Ang^3
#
#
#
# Elastic Constant Matrix: (Units=GPa)
#
#
# Indices 1 2 3 4 5 6 
#
# 1 76.1460 3.9942 6.9199 0.0000 0.0000 3.4752
# 2 3.9942 76.1460 6.9199 0.0000 0.0000 -3.4752
# 3 6.9199 6.9199 52.1605 0.0000 0.0000 0.0000
# 4 0.0000 0.0000 0.0000 10.7882 0.0000 0.0000
# 5 0.0000 0.0000 0.0000 0.0000 10.7882 0.0000
# 6 3.4752 -3.4752 0.0000 0.0000 0.0000 33.9013
#
#
#
# Elastic Compliance Matrix: (Units=1/GPa)
#
#
# Indices 1 2 3 4 5 6 
#
# 1 0.013384 -0.000614 -0.001694 0.000000 0.000000 -0.001435
# 2 -0.000614 0.013384 -0.001694 0.000000 0.000000 0.001435
# 3 -0.001694 -0.001694 0.019621 0.000000 0.000000 0.000000
# 4 0.000000 0.000000 0.000000 0.092694 0.000000 0.000000
# 5 0.000000 0.000000 0.000000 0.000000 0.092694 0.000000
# 6 -0.001435 0.001435 0.000000 0.000000 0.000000 0.029792
#
#
# Mechanical properties :
#
#
# Convention : Reuss Voigt Hill
#
# Bulk Modulus (GPa) = 26.05141 26.68005 26.36573
# Shear Modulus (GPa) = 17.70734 23.53676 20.62205
#
# Velocity S-wave (km/s) = 3.07778 3.54842 3.32145
# Velocity P-wave (km/s) = 5.15430 5.57325 5.36787
#
# Compressibility (1/GPa) = 0.03838564
#
# Stress axis : x y z
#
# Youngs Moduli (GPa) = 74.71440 74.71440 50.96547
#
# Poissons Ratio (x) = 0.04584 0.08635
# Poissons Ratio (y) = 0.04584 0.08635
# Poissons Ratio (z) = 0.12658 0.12658
#
# Static dielectric constant tensor:
#      x y z
#    x 1.668140 0.000000 0.000000 
#    y 0.000000 1.668140 0.000000 
#    z 0.000000 0.000000 1.617540 
# 
# From -- ./inp_files/5164.got.cif
#   From: 2010.05.17/outbox.cif.g08.bks.cpg/sg87_3_cif.got.tgz:5164.got - 2010.06.03 19:07:00.
