data_PCOD9546751
_publ_section_title
;
Structure prediction by ZEFSAII (Michael W. Deem and Ramdas Pophale) SiO2 
 PCOD9546751
Probable space group: I 41/A
;
_chemical_formula_sum "Si O2"
_cell_formula_units_Z 112
_cell_length_a 15.242215
_cell_length_b 15.242215
_cell_length_c 23.103809
_cell_angle_alpha 90.000000
_cell_angle_beta 90.000000
_cell_angle_gamma 90.000000
_cell_volume 5367.595155
_symmetry_space_group_name_H-M "I 41/A"
_symmetry_group_IT_number 88
_space_group.IT_coordinate_system_code '2'
_symmetry_cell_setting 'tetragonal'
loop_
_space_group_symop_operation_xyz
x,y,z
3/4-y,1/4+x,1/4+z
-x,1/2-y,z
1/4+y,1/4-x,1/4+z
-x,-y,-z
1/4+y,3/4-x,3/4-z
x,1/2+y,-z
3/4-y,3/4+x,3/4-z
1/2+x,1/2+y,1/2+z
1/4-y,3/4+x,3/4+z
1/2-x,-y,1/2+z
3/4+y,3/4-x,3/4+z
1/2-x,1/2-y,1/2-z
3/4+y,1/4-x,1/4-z
1/2+x,y,1/2-z
1/4-y,1/4+x,1/4-z
loop_
_atom_site_type_symbol
_atom_site_label
_atom_site_fract_x
_atom_site_fract_y
_atom_site_fract_z
Si Si1 0.975524 0.510891 0.325204
Si Si2 0.022978 0.467692 0.808860
Si Si3 0.079611 0.932496 0.508170
Si Si4 0.169057 0.511380 0.160209
Si Si5 0.674141 0.904687 0.111688
Si Si6 0.920672 0.868989 0.875046
Si Si7 0.964151 0.339534 0.398801
O O1 0.001320 0.522214 0.258489
O O2 0.887506 0.564615 0.336451
O O3 0.961122 0.413846 0.349987
O O4 0.054831 0.546049 0.364407
O O5 0.071456 0.557132 0.826153
O O6 0.078682 0.381823 0.823269
O O7 0.932788 0.461134 0.845826
O O8 0.171705 0.954418 0.540591
O O9 0.113056 0.910052 0.444594
O O10 0.032438 0.861216 0.549354
O O11 0.000000 0.000000 0.500000
O O12 0.238500 0.534827 0.109866
O O13 0.156999 0.406120 0.166995
O O14 0.892844 0.771461 0.853607
O O15 0.000000 0.250000 0.372201
#
# Coordination Sequence:
#
# PCOD9546751 Si02
#       7
#    16  16  16  16  16  16  16
#     4  12  26  42  66 101 133 181 232 281 348 413
#     4  11  24  45  69  99 138 186 232 287 358 404
#     4  12  24  43  66  97 134 179 225 282 347 406
#     4  11  22  44  69  94 138 181 223 286 349 416
#     4  12  24  42  64  99 133 177 229 279 342 417
#     4   9  21  43  71 103 133 176 230 286 349 417
#     4  12  23  45  67  98 139 182 229 291 348 410
#
# _framework density 20.865956000000001
#
# number of rings (size 3 to 8) (size 9 to 14) (size 15 to 20)
#    0.000    0.714    5.714    0.857    4.000    0.286 
#    5.143    0.000    0.000    4.286    0.000    0.000 
#    0.000    0.000    0.000    0.000    0.000    0.000 
#
# Total GULP energy -312047.717532 kJ/mol
# GULP energy per Si atom -5572.280670 kJ/mol
# Density = 2.081846 g / cm^3
# Si number density = 20.865956 Si / 1000 Ang^3
#
#
#
# Elastic Constant Matrix: (Units=GPa)
#
#
# Indices 1 2 3 4 5 6 
#
# 1 141.6349 58.7982 27.9774 0.0000 0.0000 -5.8794
# 2 58.7982 141.6349 27.9774 0.0000 0.0000 5.8794
# 3 27.9774 27.9774 29.6341 0.0000 0.0000 0.0000
# 4 0.0000 0.0000 0.0000 18.9935 0.0000 0.0000
# 5 0.0000 0.0000 0.0000 0.0000 18.9935 0.0000
# 6 -5.8794 5.8794 0.0000 0.0000 0.0000 22.1851
#
#
#
# Elastic Compliance Matrix: (Units=1/GPa)
#
#
# Indices 1 2 3 4 5 6 
#
# 1 0.009659 -0.002885 -0.006396 0.000000 0.000000 0.003324
# 2 -0.002885 0.009659 -0.006396 0.000000 0.000000 -0.003324
# 3 -0.006396 -0.006396 0.045822 0.000000 0.000000 0.000000
# 4 0.000000 0.000000 0.000000 0.052650 0.000000 0.000000
# 5 0.000000 0.000000 0.000000 0.000000 0.052650 0.000000
# 6 0.003324 -0.003324 0.000000 0.000000 0.000000 0.046837
#
#
# Mechanical properties :
#
#
# Convention : Reuss Voigt Hill
#
# Bulk Modulus (GPa) = 29.59696 60.26778 44.93237
# Shear Modulus (GPa) = 19.23873 25.24448 22.24160
#
# Velocity S-wave (km/s) = 3.03976 3.48205 3.26840
# Velocity P-wave (km/s) = 5.15125 6.71656 5.98530
#
# Compressibility (1/GPa) = 0.03378725
#
# Stress axis : x y z
#
# Youngs Moduli (GPa) = 103.52720 103.52720 21.82367
#
# Poissons Ratio (x) = 0.29863 0.13958
# Poissons Ratio (y) = 0.29863 0.13958
# Poissons Ratio (z) = 0.66216 0.66216
#
# Static dielectric constant tensor:
#      x y z
#    x 1.796170 0.000000 0.000000 
#    y 0.000000 1.796170 0.000000 
#    z 0.000000 0.000000 1.759790 
# 
# From -- ./inp_files/5360.got.cif
#   From: 2010.05.17/outbox.cif.g08.bks.cpg/sg88_3_cif.got.tgz:5360.got - 2010.06.03 19:11:41.
