data_PCOD9546016
_publ_section_title
;
Structure prediction by ZEFSAII (Michael W. Deem and Ramdas Pophale) SiO2 
 PCOD9546016
Probable space group: I 4/M
;
_chemical_formula_sum "Si O2"
_cell_formula_units_Z 88
_cell_length_a 14.463650
_cell_length_b 14.463650
_cell_length_c 21.087626
_cell_angle_alpha 90.000000
_cell_angle_beta 90.000000
_cell_angle_gamma 90.000000
_cell_volume 4411.471709
_symmetry_space_group_name_H-M "I 4/M"
_symmetry_group_IT_number 87
_symmetry_cell_setting 'tetragonal'
loop_
_space_group_symop_operation_xyz
x,y,z
-y,x,z
-x,-y,z
y,-x,z
-x,-y,-z
y,-x,-z
x,y,-z
-y,x,-z
1/2+x,1/2+y,1/2+z
1/2-y,1/2+x,1/2+z
1/2-x,1/2-y,1/2+z
1/2+y,1/2-x,1/2+z
1/2-x,1/2-y,1/2-z
1/2+y,1/2-x,1/2-z
1/2+x,1/2+y,1/2-z
1/2-y,1/2+x,1/2-z
loop_
_atom_site_type_symbol
_atom_site_label
_atom_site_fract_x
_atom_site_fract_y
_atom_site_fract_z
Si Si1 0.410592 0.047536 0.928025
Si Si2 0.228972 0.107932 0.425800
Si Si3 0.905260 0.718321 0.110825
Si Si4 0.071225 0.358539 0.247176
Si Si5 0.585130 0.755955 0.878116
Si Si6 0.135920 0.921762 0.000000
O O1 0.417263 0.156052 0.924555
O O2 0.500000 0.000000 0.895595
O O3 0.317416 0.009613 0.898676
O O4 0.408190 0.015173 0.000000
O O5 0.210232 0.093700 0.500000
O O6 0.334243 0.142262 0.417026
O O7 0.165787 0.188461 0.398031
O O8 0.210538 0.014681 0.387343
O O9 0.896860 0.703638 0.186740
O O10 0.894299 0.807059 0.064423
O O11 0.119907 0.460119 0.249715
O O12 0.095952 0.300718 0.309468
O O13 0.033425 0.877688 0.000000
#
# Coordination Sequence:
#
# PCOD9546016 Si02
#       6
#    16  16  16  16  16   8
#     4  11  19  34  63  96 125 162 221 292 344 377
#     4  12  25  44  67 104 138 182 238 286 346 420
#     4  12  23  40  71 101 134 173 232 291 347 414
#     4  11  22  42  69 104 142 173 223 293 362 413
#     4  12  26  43  66  98 143 186 225 287 349 419
#     4  11  28  50  67 100 146 187 234 287 363 430
#
# _framework density 19.947990999999998
#
# number of rings (size 3 to 8) (size 9 to 14) (size 15 to 20)
#    0.000    0.455    7.273    1.636    2.545    1.091 
#    3.273    0.909    0.000    0.000    0.000    0.000 
#    0.000    0.000    0.000    0.000    0.000    0.000 
#
# Total GULP energy -245523.659604 kJ/mol
# GULP energy per Si atom -5580.083173 kJ/mol
# Density = 1.990259 g / cm^3
# Si number density = 19.947991 Si / 1000 Ang^3
#
#
#
# Elastic Constant Matrix: (Units=GPa)
#
#
# Indices 1 2 3 4 5 6 
#
# 1 53.2794 14.5961 5.6656 0.0000 0.0000 1.4278
# 2 14.5961 53.2794 5.6656 0.0000 0.0000 -1.4278
# 3 5.6656 5.6656 119.2177 0.0000 0.0000 0.0000
# 4 0.0000 0.0000 0.0000 25.5329 0.0000 0.0000
# 5 0.0000 0.0000 0.0000 0.0000 25.5329 0.0000
# 6 1.4278 -1.4278 0.0000 0.0000 0.0000 35.6621
#
#
#
# Elastic Compliance Matrix: (Units=1/GPa)
#
#
# Indices 1 2 3 4 5 6 
#
# 1 0.020389 -0.005538 -0.000706 0.000000 0.000000 -0.001038
# 2 -0.005538 0.020389 -0.000706 0.000000 0.000000 0.001038
# 3 -0.000706 -0.000706 0.008455 0.000000 0.000000 0.000000
# 4 0.000000 0.000000 0.000000 0.039165 0.000000 0.000000
# 5 0.000000 0.000000 0.000000 0.000000 0.039165 0.000000
# 6 -0.001038 0.001038 0.000000 0.000000 0.000000 0.028124
#
#
# Mechanical properties :
#
#
# Convention : Reuss Voigt Hill
#
# Bulk Modulus (GPa) = 28.30178 30.84789 29.57483
# Shear Modulus (GPa) = 27.56865 30.66886 29.11875
#
# Velocity S-wave (km/s) = 3.72159 3.92528 3.82479
# Velocity P-wave (km/s) = 5.71713 6.00345 5.86204
#
# Compressibility (1/GPa) = 0.03533347
#
# Stress axis : x y z
#
# Youngs Moduli (GPa) = 49.04574 49.04574 118.27192
#
# Poissons Ratio (x) = 0.27164 0.08347
# Poissons Ratio (y) = 0.27164 0.08347
# Poissons Ratio (z) = 0.03461 0.03461
#
# Static dielectric constant tensor:
#      x y z
#    x 1.712900 0.000000 0.000000 
#    y 0.000000 1.712900 0.000000 
#    z 0.000000 0.000000 1.735690 
# 
# From -- ./inp_files/5202.got.cif
#   From: 2010.05.17/outbox.cif.g08.bks.cpg/sg87_3_cif.got.tgz:5202.got - 2010.06.03 19:07:00.
