data_PCOD9546328
_publ_section_title
;
Structure prediction by ZEFSAII (Michael W. Deem and Ramdas Pophale) SiO2 
 PCOD9546328
Probable space group: I 41/A
;
_chemical_formula_sum "Si O2"
_cell_formula_units_Z 96
_cell_length_a 21.931158
_cell_length_b 21.931158
_cell_length_c 11.758756
_cell_angle_alpha 90.000000
_cell_angle_beta 90.000000
_cell_angle_gamma 90.000000
_cell_volume 5655.675795
_symmetry_space_group_name_H-M "I 41/A"
_symmetry_group_IT_number 88
_space_group.IT_coordinate_system_code '2'
_symmetry_cell_setting 'tetragonal'
loop_
_space_group_symop_operation_xyz
x,y,z
3/4-y,1/4+x,1/4+z
-x,1/2-y,z
1/4+y,1/4-x,1/4+z
-x,-y,-z
1/4+y,3/4-x,3/4-z
x,1/2+y,-z
3/4-y,3/4+x,3/4-z
1/2+x,1/2+y,1/2+z
1/4-y,3/4+x,3/4+z
1/2-x,-y,1/2+z
3/4+y,3/4-x,3/4+z
1/2-x,1/2-y,1/2-z
3/4+y,1/4-x,1/4-z
1/2+x,y,1/2-z
1/4-y,1/4+x,1/4-z
loop_
_atom_site_type_symbol
_atom_site_label
_atom_site_fract_x
_atom_site_fract_y
_atom_site_fract_z
Si Si1 0.192712 0.589701 0.943888
Si Si2 0.661866 0.760153 0.171630
Si Si3 0.185171 0.968417 0.438196
Si Si4 0.349560 0.039094 0.568604
Si Si5 0.214577 0.673127 0.140243
Si Si6 0.364097 0.851505 0.023208
O O1 0.145031 0.534089 0.937955
O O2 0.194902 0.608089 0.812782
O O3 0.256631 0.560929 0.995898
O O4 0.182341 0.645889 0.029028
O O5 0.724268 0.788429 0.120759
O O6 0.675088 0.716198 0.278582
O O7 0.636482 0.716382 0.073939
O O8 0.623879 0.816662 0.219180
O O9 0.135801 0.982852 0.535053
O O10 0.146793 0.923880 0.356699
O O11 0.200161 0.030066 0.367728
O O12 0.390837 0.078815 0.653520
#
# Coordination Sequence:
#
# PCOD9546328 Si02
#       6
#    16  16  16  16  16  16
#     4  12  19  28  52  87 127 160 182 229 308 376
#     4  10  22  38  63  77 119 159 209 264 281 360
#     4  11  17  32  54  84 125 150 189 230 294 369
#     4  12  20  29  53  91 125 153 183 243 302 381
#     4  10  20  35  53  84 120 165 186 240 311 351
#     4  11  22  38  58  88 111 159 210 246 303 342
#
# _framework density 16.9741
#
# number of rings (size 3 to 8) (size 9 to 14) (size 15 to 20)
#    0.000    1.000    8.333    0.000    0.000    0.333 
#    0.000    0.833    0.000    2.000    0.000    0.000 
#    0.000    0.000    0.000    0.000    0.000    0.000 
#
# Total GULP energy -267246.674686 kJ/mol
# GULP energy per Si atom -5567.639056 kJ/mol
# Density = 1.693547 g / cm^3
# Si number density = 16.974100 Si / 1000 Ang^3
#
#
#
# Elastic Constant Matrix: (Units=GPa)
#
#
# Indices 1 2 3 4 5 6 
#
# 1 63.8007 23.2557 39.9281 0.0000 0.0000 -3.7699
# 2 23.2557 63.8007 39.9281 0.0000 0.0000 3.7699
# 3 39.9281 39.9281 136.3182 0.0000 0.0000 0.0000
# 4 0.0000 0.0000 0.0000 22.9393 0.0000 0.0000
# 5 0.0000 0.0000 0.0000 0.0000 22.9393 0.0000
# 6 -3.7699 3.7699 0.0000 0.0000 0.0000 16.6787
#
#
#
# Elastic Compliance Matrix: (Units=1/GPa)
#
#
# Indices 1 2 3 4 5 6 
#
# 1 0.020727 -0.005020 -0.004601 0.000000 0.000000 0.005819
# 2 -0.005020 0.020727 -0.004601 0.000000 0.000000 -0.005819
# 3 -0.004601 -0.004601 0.010031 0.000000 0.000000 0.000000
# 4 0.000000 0.000000 0.000000 0.043593 0.000000 0.000000
# 5 0.000000 0.000000 0.000000 0.000000 0.043593 0.000000
# 6 0.005819 -0.005819 0.000000 0.000000 0.000000 0.062587
#
#
# Mechanical properties :
#
#
# Convention : Reuss Voigt Hill
#
# Bulk Modulus (GPa) = 43.39856 52.23814 47.81835
# Shear Modulus (GPa) = 21.06324 23.23196 22.14760
#
# Velocity S-wave (km/s) = 3.52647 3.70357 3.61610
# Velocity P-wave (km/s) = 6.49649 7.00932 6.75777
#
# Compressibility (1/GPa) = 0.02304224
#
# Stress axis : x y z
#
# Youngs Moduli (GPa) = 48.24739 48.24739 99.69237
#
# Poissons Ratio (x) = 0.24218 0.45865
# Poissons Ratio (y) = 0.24218 0.45865
# Poissons Ratio (z) = 0.22197 0.22197
#
# Static dielectric constant tensor:
#      x y z
#    x 1.600150 0.000000 0.000000 
#    y 0.000000 1.600150 0.000000 
#    z 0.000000 0.000000 1.625980 
# 
# From -- ./inp_files/2632.got.cif
#   From: 2010.05.17/outbox.cif.g08.bks.cpg/sg88_2_cif.got.tgz:2632.got - 2010.06.03 19:11:41.
