data_PCOD9546715
_publ_section_title
;
Structure prediction by ZEFSAII (Michael W. Deem and Ramdas Pophale) SiO2 
 PCOD9546715
Probable space group: I 41/A
;
_chemical_formula_sum "Si O2"
_cell_formula_units_Z 84
_cell_length_a 21.528172
_cell_length_b 21.528172
_cell_length_c 9.692248
_cell_angle_alpha 90.000000
_cell_angle_beta 90.000000
_cell_angle_gamma 90.000000
_cell_volume 4491.990481
_symmetry_space_group_name_H-M "I 41/A"
_symmetry_group_IT_number 88
_space_group.IT_coordinate_system_code '2'
_symmetry_cell_setting 'tetragonal'
loop_
_space_group_symop_operation_xyz
x,y,z
3/4-y,1/4+x,1/4+z
-x,1/2-y,z
1/4+y,1/4-x,1/4+z
-x,-y,-z
1/4+y,3/4-x,3/4-z
x,1/2+y,-z
3/4-y,3/4+x,3/4-z
1/2+x,1/2+y,1/2+z
1/4-y,3/4+x,3/4+z
1/2-x,-y,1/2+z
3/4+y,3/4-x,3/4+z
1/2-x,1/2-y,1/2-z
3/4+y,1/4-x,1/4-z
1/2+x,y,1/2-z
1/4-y,1/4+x,1/4-z
loop_
_atom_site_type_symbol
_atom_site_label
_atom_site_fract_x
_atom_site_fract_y
_atom_site_fract_z
Si Si1 0.398596 0.701979 0.293999
Si Si2 0.129846 0.616294 0.811306
Si Si3 0.434617 0.009478 0.585016
Si Si4 0.500000 0.250000 0.375000
Si Si5 0.648901 0.749705 0.027820
Si Si6 0.431146 0.829540 0.437685
O O1 0.377510 0.664798 0.429166
O O2 0.348778 0.716482 0.174341
O O3 0.454867 0.662151 0.227433
O O4 0.418607 0.769269 0.347701
O O5 0.105173 0.550203 0.868903
O O6 0.196199 0.637740 0.751249
O O7 0.120433 0.657573 0.949026
O O8 0.457756 0.045092 0.723677
O O9 0.500000 0.000000 0.500000
O O10 0.509744 0.189875 0.468432
O O11 0.635588 0.801293 0.910706
#
# Coordination Sequence:
#
# PCOD9546715 Si02
#       6
#    16  16  16   4  16  16
#     4  11  21  32  55  95 130 160 195 261 332 391
#     4  11  24  41  65  87 123 175 217 268 323 390
#     4  11  23  44  68  94 124 166 225 275 325 394
#     4  12  16  24  50  88 124 152 190 236 312 408
#     4  11  21  33  57  92 134 163 194 258 334 396
#     4  12  18  30  54  90 125 162 197 248 325 391
#
# _framework density 18.699952
#
# number of rings (size 3 to 8) (size 9 to 14) (size 15 to 20)
#    0.000    0.762    7.619    2.286    0.000    0.762 
#    0.000    0.000   12.571    0.000    0.000    0.000 
#    0.000    0.000    0.000    0.000    0.000    0.000 
#
# Total GULP energy -233923.039323 kJ/mol
# GULP energy per Si atom -5569.596174 kJ/mol
# Density = 1.865739 g / cm^3
# Si number density = 18.699952 Si / 1000 Ang^3
#
#
#
# Elastic Constant Matrix: (Units=GPa)
#
#
# Indices 1 2 3 4 5 6 
#
# 1 74.9024 20.8217 29.7580 0.0000 0.0000 -9.6159
# 2 20.8217 74.9024 29.7580 0.0000 0.0000 9.6159
# 3 29.7580 29.7580 95.7031 0.0000 0.0000 0.0000
# 4 0.0000 0.0000 0.0000 20.9463 0.0000 0.0000
# 5 0.0000 0.0000 0.0000 0.0000 20.9463 0.0000
# 6 -9.6159 9.6159 0.0000 0.0000 0.0000 20.5007
#
#
#
# Elastic Compliance Matrix: (Units=1/GPa)
#
#
# Indices 1 2 3 4 5 6 
#
# 1 0.017571 -0.004621 -0.004027 0.000000 0.000000 0.010409
# 2 -0.004621 0.017571 -0.004027 0.000000 0.000000 -0.010409
# 3 -0.004027 -0.004027 0.012953 0.000000 0.000000 0.000000
# 4 0.000000 0.000000 0.000000 0.047741 0.000000 0.000000
# 5 0.000000 0.000000 0.000000 0.000000 0.047741 0.000000
# 6 0.010409 -0.010409 0.000000 0.000000 0.000000 0.058544
#
#
# Mechanical properties :
#
#
# Convention : Reuss Voigt Hill
#
# Bulk Modulus (GPa) = 43.96246 45.13147 44.54696
# Shear Modulus (GPa) = 21.27170 23.49001 22.38085
#
# Velocity S-wave (km/s) = 3.37638 3.54807 3.46329
# Velocity P-wave (km/s) = 6.22578 6.40094 6.31397
#
# Compressibility (1/GPa) = 0.02274668
#
# Stress axis : x y z
#
# Youngs Moduli (GPa) = 56.91038 56.91038 77.20121
#
# Poissons Ratio (x) = 0.26299 0.31087
# Poissons Ratio (y) = 0.26299 0.31087
# Poissons Ratio (z) = 0.22917 0.22917
#
# Static dielectric constant tensor:
#      x y z
#    x 1.684470 0.000000 0.000000 
#    y 0.000000 1.684470 0.000000 
#    z 0.000000 0.000000 1.702560 
# 
# From -- ./inp_files/1655.got.cif
#   From: 2010.05.17/outbox.cif.g08.bks.cpg/sg88_1_cif.got.tgz:1655.got - 2010.06.03 19:11:41.
