data_PCOD9546027
_publ_section_title
;
Structure prediction by ZEFSAII (Michael W. Deem and Ramdas Pophale) SiO2 
 PCOD9546027
Probable space group: I 4/M
;
_chemical_formula_sum "Si O2"
_cell_formula_units_Z 80
_cell_length_a 11.170624
_cell_length_b 11.170624
_cell_length_c 32.686799
_cell_angle_alpha 90.000000
_cell_angle_beta 90.000000
_cell_angle_gamma 90.000000
_cell_volume 4078.751628
_symmetry_space_group_name_H-M "I 4/M"
_symmetry_group_IT_number 87
_symmetry_cell_setting 'tetragonal'
loop_
_space_group_symop_operation_xyz
x,y,z
-y,x,z
-x,-y,z
y,-x,z
-x,-y,-z
y,-x,-z
x,y,-z
-y,x,-z
1/2+x,1/2+y,1/2+z
1/2-y,1/2+x,1/2+z
1/2-x,1/2-y,1/2+z
1/2+y,1/2-x,1/2+z
1/2-x,1/2-y,1/2-z
1/2+y,1/2-x,1/2-z
1/2+x,1/2+y,1/2-z
1/2-y,1/2+x,1/2-z
loop_
_atom_site_type_symbol
_atom_site_label
_atom_site_fract_x
_atom_site_fract_y
_atom_site_fract_z
Si Si1 0.216900 0.725632 0.120981
Si Si2 0.664982 0.393132 0.197351
Si Si3 0.593427 0.678605 0.954897
Si Si4 0.356486 0.963534 0.136338
Si Si5 0.173347 0.567844 0.266920
O O1 0.248054 0.667414 0.165025
O O2 0.249249 0.638035 0.083822
O O3 0.301188 0.842815 0.116478
O O4 0.073266 0.727788 0.122047
O O5 0.657665 0.534230 0.189015
O O6 0.708895 0.384353 0.244162
O O7 0.452010 0.654492 0.952822
O O8 0.620650 0.730696 0.000000
O O9 0.333935 0.941128 0.184656
O O10 0.500000 0.000000 0.130876
O O11 0.146575 0.436928 0.248943
#
# Coordination Sequence:
#
# PCOD9546027 Si02
#       5
#    16  16  16  16  16
#     4  12  24  41  63  88 128 168 211 260 316 382
#     4  11  23  36  57  87 113 151 211 271 320 368
#     4   9  18  36  66 100 129 157 198 262 332 385
#     4  12  25  41  63  91 122 171 217 263 317 376
#     4  11  20  37  56  78 117 162 207 254 318 373
#
# _framework density 19.613845000000001
#
# number of rings (size 3 to 8) (size 9 to 14) (size 15 to 20)
#    0.000    1.000    4.000    5.400    2.800    3.600 
#    0.000    1.000    0.000    3.600    0.000    1.400 
#    0.000    0.000    0.000    0.000    0.000    0.000 
#
# Total GULP energy -223232.120124 kJ/mol
# GULP energy per Si atom -5580.803003 kJ/mol
# Density = 1.956920 g / cm^3
# Si number density = 19.613845 Si / 1000 Ang^3
#
#
#
# Elastic Constant Matrix: (Units=GPa)
#
#
# Indices 1 2 3 4 5 6 
#
# 1 19.2891 64.5387 5.8255 0.0000 0.0000 18.1539
# 2 64.5387 19.2891 5.8255 0.0000 0.0000 -18.1539
# 3 5.8255 5.8255 60.6372 0.0000 0.0000 0.0000
# 4 0.0000 0.0000 0.0000 16.1860 0.0000 0.0000
# 5 0.0000 0.0000 0.0000 0.0000 16.1860 0.0000
# 6 18.1539 -18.1539 0.0000 0.0000 0.0000 17.6778
#
#
#
# Elastic Compliance Matrix: (Units=1/GPa)
#
#
# Indices 1 2 3 4 5 6 
#
# 1 -0.000013 0.012103 -0.001162 0.000000 0.000000 0.012442
# 2 0.012103 -0.000013 -0.001162 0.000000 0.000000 -0.012442
# 3 -0.001162 -0.001162 0.016715 0.000000 0.000000 0.000000
# 4 0.000000 0.000000 0.000000 0.061782 0.000000 0.000000
# 5 0.000000 0.000000 0.000000 0.000000 0.061782 0.000000
# 6 0.012442 -0.012442 0.000000 0.000000 0.000000 0.031013
#
#
# Mechanical properties :
#
#
# Convention : Reuss Voigt Hill
#
# Bulk Modulus (GPa) = 27.58635 27.95494 27.77065
# Shear Modulus (GPa) = 30.52712 11.54502 21.03607
#
# Velocity S-wave (km/s) = 3.94941 2.42877 3.27847
# Velocity P-wave (km/s) = 5.90698 4.70626 5.34047
#
# Compressibility (1/GPa) = 0.03624981
#
# Stress axis : x y z
#
# Youngs Moduli (GPa) = -78858.41594 -78855.45148 59.82749
#
# Poissons Ratio (x) = 954.41470 0.06949
# Poissons Ratio (y) = 954.45058 0.06949
# Poissons Ratio (z) = -91.59872 -91.59528
#
# Static dielectric constant tensor:
#      x y z
#    x 1.737520 0.000000 0.000000 
#    y 0.000000 1.737520 0.000000 
#    z 0.000000 0.000000 1.668040 
# 
# From -- ./inp_files/6487.got.cif
#   From: 2010.05.17/outbox.cif.g08.bks.cpg/sg87_4_cif.got.tgz:6487.got - 2010.06.03 19:07:00.
