data_PCOD9546980
_publ_section_title
;
Structure prediction by ZEFSAII (Michael W. Deem and Ramdas Pophale) SiO2 
 PCOD9546980
Probable space group: P 4 2 2
;
_chemical_formula_sum "Si O2"
_cell_formula_units_Z 40
_cell_length_a 14.978320
_cell_length_b 14.978320
_cell_length_c 9.687094
_cell_angle_alpha 90.000000
_cell_angle_beta 90.000000
_cell_angle_gamma 90.000000
_cell_volume 2173.300217
_symmetry_space_group_name_H-M "P 4 2 2"
_symmetry_group_IT_number 89
_symmetry_cell_setting 'tetragonal'
loop_
_space_group_symop_operation_xyz
x,y,z
-y,x,z
-x,-y,z
y,-x,z
x,-y,-z
-x,y,-z
y,x,-z
-y,-x,-z
loop_
_atom_site_type_symbol
_atom_site_label
_atom_site_fract_x
_atom_site_fract_y
_atom_site_fract_z
Si Si1 0.399728 0.254674 0.827633
Si Si2 0.754396 0.395440 0.149881
Si Si3 0.590401 0.109151 0.408496
Si Si4 0.926349 0.337270 0.320063
Si Si5 0.012167 0.856026 0.333202
O O1 0.324531 0.329182 0.804714
O O2 0.504240 0.280762 0.824152
O O3 0.394129 0.179722 0.710927
O O4 0.385157 0.225908 0.986694
O O5 0.846952 0.375245 0.227668
O O6 0.500000 0.123143 0.500000
O O7 0.668000 0.112272 0.523894
O O8 0.598192 0.011613 0.339218
O O9 0.965487 0.241746 0.277891
O O10 0.921443 0.906503 0.291683
O O11 0.000000 0.851028 0.500000
#
# Coordination Sequence:
#
# PCOD9546980 Si02
#       5
#     8   8   8   8   8
#     4  10  23  42  61  88 122 158 205 256 303 380
#     4  10  23  41  63  87 119 163 206 250 313 364
#     4  11  22  38  57  88 125 151 195 249 307 365
#     4  11  21  35  60  90 116 158 199 247 305 364
#     4   9  18  31  48  80 117 149 191 241 294 356
#
# _framework density 18.405190000000001
#
# number of rings (size 3 to 8) (size 9 to 14) (size 15 to 20)
#    0.000    1.800    4.000    1.800    2.800    2.000 
#    0.000    4.000    0.000    0.000    0.000    0.000 
#    0.000    0.000    0.000    0.000    0.000    0.000 
#
# Total GULP energy -222787.222202 kJ/mol
# GULP energy per Si atom -5569.680555 kJ/mol
# Density = 1.836330 g / cm^3
# Si number density = 18.405190 Si / 1000 Ang^3
#
#
#
# Elastic Constant Matrix: (Units=GPa)
#
#
# Indices 1 2 3 4 5 6 
#
# 1 120.2384 61.0074 62.3335 0.0000 0.0000 0.0000
# 2 61.0074 120.2384 62.3335 0.0000 0.0000 0.0000
# 3 62.3335 62.3335 75.0875 0.0000 0.0000 0.0000
# 4 0.0000 0.0000 0.0000 25.4406 0.0000 0.0000
# 5 0.0000 0.0000 0.0000 0.0000 25.4406 0.0000
# 6 0.0000 0.0000 0.0000 0.0000 0.0000 23.9085
#
#
#
# Elastic Compliance Matrix: (Units=1/GPa)
#
#
# Indices 1 2 3 4 5 6 
#
# 1 0.014872 -0.002011 -0.010677 0.000000 0.000000 0.000000
# 2 -0.002011 0.014872 -0.010677 0.000000 0.000000 0.000000
# 3 -0.010677 -0.010677 0.031044 0.000000 0.000000 0.000000
# 4 0.000000 0.000000 0.000000 0.039307 0.000000 0.000000
# 5 0.000000 0.000000 0.000000 0.000000 0.039307 0.000000
# 6 0.000000 0.000000 0.000000 0.000000 0.000000 0.041826
#
#
# Mechanical properties :
#
#
# Convention : Reuss Voigt Hill
#
# Bulk Modulus (GPa) = 71.12425 76.32366 73.72395
# Shear Modulus (GPa) = 21.49210 23.61724 22.55467
#
# Velocity S-wave (km/s) = 3.42090 3.58604 3.50444
# Velocity P-wave (km/s) = 7.37095 7.66191 7.51784
#
# Compressibility (1/GPa) = 0.01405990
#
# Stress axis : x y z
#
# Youngs Moduli (GPa) = 67.24019 67.24019 32.21241
#
# Poissons Ratio (x) = 0.13522 0.34392
# Poissons Ratio (y) = 0.13522 0.34392
# Poissons Ratio (z) = 0.71789 0.71789
#
# Static dielectric constant tensor:
#      x y z
#    x 1.655930 0.000000 0.000000 
#    y 0.000000 1.655930 0.000000 
#    z 0.000000 0.000000 1.632550 
# 
# From -- ./inp_files/1021.got.cif
#   From: 2010.05.17/outbox.cif.g08.bks.cpg/sg89_1_cif.got.tgz:1021.got - 2010.06.03 19:15:31.
