data_PCOD9546991
_publ_section_title
;
Structure prediction by ZEFSAII (Michael W. Deem and Ramdas Pophale) SiO2 
 PCOD9546991
Probable space group: P 4 2 2
;
_chemical_formula_sum "Si O2"
_cell_formula_units_Z 56
_cell_length_a 15.064189
_cell_length_b 15.064189
_cell_length_c 11.495167
_cell_angle_alpha 90.000000
_cell_angle_beta 90.000000
_cell_angle_gamma 90.000000
_cell_volume 2608.595836
_symmetry_space_group_name_H-M "P 4 2 2"
_symmetry_group_IT_number 89
_symmetry_cell_setting 'tetragonal'
loop_
_space_group_symop_operation_xyz
x,y,z
-y,x,z
-x,-y,z
y,-x,z
x,-y,-z
-x,y,-z
y,x,-z
-y,-x,-z
loop_
_atom_site_type_symbol
_atom_site_label
_atom_site_fract_x
_atom_site_fract_y
_atom_site_fract_z
Si Si1 0.766371 0.278856 0.129492
Si Si2 0.561472 0.633962 0.159960
Si Si3 0.304208 0.578158 0.421015
Si Si4 0.698880 0.061101 0.761292
Si Si5 0.487091 0.894462 0.868282
Si Si6 0.863636 0.658965 0.266483
Si Si7 0.849060 0.289126 0.471619
O O1 0.719114 0.378059 0.122747
O O2 0.866248 0.246877 0.167175
O O3 0.707023 0.223008 0.219400
O O4 0.754934 0.245067 0.000000
O O5 0.457612 0.614664 0.127485
O O6 0.554071 0.653412 0.298364
O O7 0.264941 0.500000 0.500000
O O8 0.381144 0.618857 0.500000
O O9 0.228610 0.652782 0.411365
O O10 0.605507 0.104730 0.801815
O O11 0.714691 0.074801 0.624369
O O12 0.697551 0.956466 0.785681
O O13 0.559844 0.856305 0.781887
O O14 0.500000 0.000000 0.879916
O O15 0.500000 0.859049 0.000000
O O16 0.870224 0.666088 0.405166
O O17 0.806262 0.193739 0.500000
#
# Coordination Sequence:
#
# PCOD9546991 Si02
#       7
#     8   8   8   8   8   8   8
#     4  12  26  43  67  96 128 174 223 275 333 392
#     4  11  24  41  61  89 128 177 229 273 319 375
#     4  11  20  31  54  84 121 166 214 262 314 376
#     4  11  23  42  67  97 130 170 219 267 336 406
#     4   9  20  38  60  90 129 170 215 267 319 382
#     4  11  24  42  66  96 131 170 216 273 335 399
#     4  11  22  39  61  94 130 164 210 265 335 401
#
# _framework density 21.467486000000001
#
# number of rings (size 3 to 8) (size 9 to 14) (size 15 to 20)
#    0.000    1.143    4.286    2.143    4.000    2.429 
#    0.000    2.857    0.000    0.429    0.000    2.000 
#    0.000    0.000    0.000    0.000    0.000    0.000 
#
# Total GULP energy -312157.604096 kJ/mol
# GULP energy per Si atom -5574.242930 kJ/mol
# Density = 2.141863 g / cm^3
# Si number density = 21.467486 Si / 1000 Ang^3
#
#
#
# Elastic Constant Matrix: (Units=GPa)
#
#
# Indices 1 2 3 4 5 6 
#
# 1 54.7485 -9.2007 -2.5120 0.0000 0.0000 0.0000
# 2 -9.2007 54.7500 -2.5135 0.0000 0.0000 0.0000
# 3 -2.5120 -2.5135 104.1302 0.0000 0.0000 0.0000
# 4 0.0000 0.0000 0.0000 31.8311 0.0000 0.0000
# 5 0.0000 0.0000 0.0000 0.0000 31.8278 0.0000
# 6 0.0000 0.0000 0.0000 0.0000 0.0000 0.1952
#
#
#
# Elastic Compliance Matrix: (Units=1/GPa)
#
#
# Indices 1 2 3 4 5 6 
#
# 1 0.018825 0.003188 0.000531 0.000000 0.000000 0.000000
# 2 0.003188 0.018825 0.000531 0.000000 0.000000 0.000000
# 3 0.000531 0.000531 0.009629 0.000000 0.000000 0.000000
# 4 0.000000 0.000000 0.000000 0.031416 0.000000 0.000000
# 5 0.000000 0.000000 0.000000 0.000000 0.031419 0.000000
# 6 0.000000 0.000000 0.000000 0.000000 0.000000 5.122895
#
#
# Mechanical properties :
#
#
# Convention : Reuss Voigt Hill
#
# Bulk Modulus (GPa) = 17.92751 20.57514 19.25132
# Shear Modulus (GPa) = 0.95363 27.96114 14.45739
#
# Velocity S-wave (km/s) = 0.66722 3.61292 2.59792
# Velocity P-wave (km/s) = 2.99378 5.19705 4.24099
#
# Compressibility (1/GPa) = 0.05578019
#
# Stress axis : x y z
#
# Youngs Moduli (GPa) = 53.11959 53.12094 103.85296
#
# Poissons Ratio (x) = -0.16935 -0.05516
# Poissons Ratio (y) = -0.16934 -0.05518
# Poissons Ratio (z) = -0.02821 -0.02822
#
# Static dielectric constant tensor:
#      x y z
#    x 1.670480 0.000000 0.000000 
#    y 0.000000 1.670470 0.000000 
#    z 0.000000 0.000000 1.781480 
# 
# From -- ./inp_files/1848.got.cif
#   From: 2010.05.17/outbox.cif.g08.bks.cpg/sg89_1_cif.got.tgz:1848.got - 2010.06.03 19:15:31.
