data_PCOD9546300
_publ_section_title
;
Structure prediction by ZEFSAII (Michael W. Deem and Ramdas Pophale) SiO2 
 PCOD9546300
Probable space group: I 41/A
;
_chemical_formula_sum "Si O2"
_cell_formula_units_Z 112
_cell_length_a 14.291503
_cell_length_b 14.291503
_cell_length_c 26.676002
_cell_angle_alpha 90.000000
_cell_angle_beta 90.000000
_cell_angle_gamma 90.000000
_cell_volume 5448.494928
_symmetry_space_group_name_H-M "I 41/A"
_symmetry_group_IT_number 88
_space_group.IT_coordinate_system_code '2'
_symmetry_cell_setting 'tetragonal'
loop_
_space_group_symop_operation_xyz
x,y,z
3/4-y,1/4+x,1/4+z
-x,1/2-y,z
1/4+y,1/4-x,1/4+z
-x,-y,-z
1/4+y,3/4-x,3/4-z
x,1/2+y,-z
3/4-y,3/4+x,3/4-z
1/2+x,1/2+y,1/2+z
1/4-y,3/4+x,3/4+z
1/2-x,-y,1/2+z
3/4+y,3/4-x,3/4+z
1/2-x,1/2-y,1/2-z
3/4+y,1/4-x,1/4-z
1/2+x,y,1/2-z
1/4-y,1/4+x,1/4-z
loop_
_atom_site_type_symbol
_atom_site_label
_atom_site_fract_x
_atom_site_fract_y
_atom_site_fract_z
Si Si1 0.331101 0.861794 0.352818
Si Si2 0.263835 0.471419 0.971984
Si Si3 0.169931 0.141498 0.439592
Si Si4 0.937739 0.426583 0.341466
Si Si5 0.955040 0.029170 0.127497
Si Si6 0.646568 0.337869 0.300238
Si Si7 0.000000 0.750000 0.026663
Si Si8 0.000000 0.250000 0.448582
O O1 0.271752 0.899671 0.306042
O O2 0.283758 0.787636 0.389944
O O3 0.422605 0.805650 0.333571
O O4 0.372397 0.954000 0.378592
O O5 0.241693 0.375567 0.942716
O O6 0.173910 0.539248 0.967861
O O7 0.284321 0.439253 0.027984
O O8 0.123110 0.097793 0.390313
O O9 0.239854 0.220429 0.418444
O O10 0.086147 0.191462 0.471593
O O11 0.957018 0.331196 0.311090
O O12 0.912332 0.121390 0.152562
O O13 0.005598 0.043352 0.074928
O O14 0.578295 0.297750 0.258254
#
# Coordination Sequence:
#
# PCOD9546300 Si02
#       8
#    16  16  16  16  16  16   8   8
#     4   9  21  41  66  91 122 174 220 262 332 394
#     4  11  24  40  65 102 128 164 231 282 325 387
#     4  10  20  41  63  87 124 169 215 271 319 396
#     4  11  23  43  62  90 131 174 218 275 334 396
#     4  10  19  40  62  92 134 173 211 264 330 384
#     4  11  23  38  63  98 132 175 217 270 310 395
#     4  12  25  41  62  96 131 183 229 256 328 411
#     4   8  17  36  66  80 114 169 212 251 326 389
#
# _framework density 20.556135999999999
#
# number of rings (size 3 to 8) (size 9 to 14) (size 15 to 20)
#    0.000    1.714    1.429    4.286    0.000    4.000 
#    2.571    1.429    0.000    0.000    0.000    1.000 
#    0.000    0.000    0.000    0.000    0.000    0.000 
#
# Total GULP energy -312765.283340 kJ/mol
# GULP energy per Si atom -5585.094345 kJ/mol
# Density = 2.050935 g / cm^3
# Si number density = 20.556136 Si / 1000 Ang^3
#
#
#
# Elastic Constant Matrix: (Units=GPa)
#
#
# Indices 1 2 3 4 5 6 
#
# 1 53.2153 18.8016 33.0906 0.0000 0.0000 -1.2833
# 2 18.8016 53.2153 33.0906 0.0000 0.0000 1.2833
# 3 33.0906 33.0906 50.8444 0.0000 0.0000 0.0000
# 4 0.0000 0.0000 0.0000 29.4103 0.0000 0.0000
# 5 0.0000 0.0000 0.0000 0.0000 29.4103 0.0000
# 6 -1.2833 1.2833 0.0000 0.0000 0.0000 25.8807
#
#
#
# Elastic Compliance Matrix: (Units=1/GPa)
#
#
# Indices 1 2 3 4 5 6 
#
# 1 0.031857 0.002691 -0.022485 0.000000 0.000000 0.001446
# 2 0.002691 0.031857 -0.022485 0.000000 0.000000 -0.001446
# 3 -0.022485 -0.022485 0.048935 0.000000 0.000000 0.000000
# 4 0.000000 0.000000 0.000000 0.034002 0.000000 0.000000
# 5 0.000000 0.000000 0.000000 0.000000 0.034002 0.000000
# 6 0.001446 -0.001446 0.000000 0.000000 0.000000 0.038782
#
#
# Mechanical properties :
#
#
# Convention : Reuss Voigt Hill
#
# Bulk Modulus (GPa) = 35.59660 36.36006 35.97833
# Shear Modulus (GPa) = 15.95628 21.75974 18.85801
#
# Velocity S-wave (km/s) = 2.78911 3.25707 3.03213
# Velocity P-wave (km/s) = 5.26560 5.64546 5.45884
#
# Compressibility (1/GPa) = 0.02809257
#
# Stress axis : x y z
#
# Youngs Moduli (GPa) = 31.39005 31.39005 20.43525
#
# Poissons Ratio (x) = -0.08448 0.45948
# Poissons Ratio (y) = -0.08448 0.45948
# Poissons Ratio (z) = 0.70580 0.70580
#
# Static dielectric constant tensor:
#      x y z
#    x 1.785960 0.000000 0.000000 
#    y 0.000000 1.785960 0.000000 
#    z 0.000000 0.000000 1.725690 
# 
# From -- ./inp_files/5921.got.cif
#   From: 2010.05.17/outbox.cif.g08.bks.cpg/sg88_3_cif.got.tgz:5921.got - 2010.06.03 19:11:41.
