data_PCOD9546872
_publ_section_title
;
Structure prediction by ZEFSAII (Michael W. Deem and Ramdas Pophale) SiO2 
 PCOD9546872
Probable space group: I 41/A
;
_chemical_formula_sum "Si O2"
_cell_formula_units_Z 52
_cell_length_a 14.610451
_cell_length_b 14.610451
_cell_length_c 9.502551
_cell_angle_alpha 90.000000
_cell_angle_beta 90.000000
_cell_angle_gamma 90.000000
_cell_volume 2028.464695
_symmetry_space_group_name_H-M "I 41/A"
_symmetry_group_IT_number 88
_space_group.IT_coordinate_system_code '2'
_symmetry_cell_setting 'tetragonal'
loop_
_space_group_symop_operation_xyz
x,y,z
3/4-y,1/4+x,1/4+z
-x,1/2-y,z
1/4+y,1/4-x,1/4+z
-x,-y,-z
1/4+y,3/4-x,3/4-z
x,1/2+y,-z
3/4-y,3/4+x,3/4-z
1/2+x,1/2+y,1/2+z
1/4-y,3/4+x,3/4+z
1/2-x,-y,1/2+z
3/4+y,3/4-x,3/4+z
1/2-x,1/2-y,1/2-z
3/4+y,1/4-x,1/4-z
1/2+x,y,1/2-z
1/4-y,1/4+x,1/4-z
loop_
_atom_site_type_symbol
_atom_site_label
_atom_site_fract_x
_atom_site_fract_y
_atom_site_fract_z
Si Si1 0.658910 0.179511 0.675749
Si Si2 0.730643 0.766807 0.912783
Si Si3 0.186690 0.064777 0.449034
Si Si4 0.500000 0.250000 0.875000
O O1 0.684792 0.219386 0.521619
O O2 0.756072 0.149009 0.743318
O O3 0.588003 0.234132 0.774056
O O4 0.604601 0.083655 0.667998
O O5 0.750000 0.750000 0.750000
O O6 0.678104 0.673495 0.954126
O O7 0.274671 0.045501 0.545706
#
# Coordination Sequence:
#
# PCOD9546872 Si02
#       4
#    16  16  16   4
#     4  12  29  56  84 130 174 230 307 371 457 548
#     4  12  31  52  88 123 176 235 300 373 454 539
#     4  12  27  51  88 122 169 228 289 359 452 535
#     4  12  32  56  90 136 176 236 306 392 464 552
#
# _framework density 25.635152999999999
#
# number of rings (size 3 to 8) (size 9 to 14) (size 15 to 20)
#    0.000    0.000    3.077    3.692   12.923    2.462 
#    0.000    0.000    0.000    0.000    0.000    0.000 
#    0.000    0.000    0.000    0.000    0.000    0.000 
#
# Total GULP energy -145722.984752 kJ/mol
# GULP energy per Si atom -5604.730183 kJ/mol
# Density = 2.557681 g / cm^3
# Si number density = 25.635153 Si / 1000 Ang^3
#
#
#
# Elastic Constant Matrix: (Units=GPa)
#
#
# Indices 1 2 3 4 5 6 
#
# 1 177.6974 65.4632 75.7561 0.0000 0.0000 6.7324
# 2 65.4632 177.6974 75.7561 0.0000 0.0000 -6.7324
# 3 75.7561 75.7561 199.3157 0.0000 0.0000 0.0000
# 4 0.0000 0.0000 0.0000 50.4362 0.0000 0.0000
# 5 0.0000 0.0000 0.0000 0.0000 50.4362 0.0000
# 6 6.7324 -6.7324 0.0000 0.0000 0.0000 39.5427
#
#
#
# Elastic Compliance Matrix: (Units=1/GPa)
#
#
# Indices 1 2 3 4 5 6 
#
# 1 0.007242 -0.001854 -0.002048 0.000000 0.000000 -0.001549
# 2 -0.001854 0.007242 -0.002048 0.000000 0.000000 0.001549
# 3 -0.002048 -0.002048 0.006574 0.000000 0.000000 0.000000
# 4 0.000000 0.000000 0.000000 0.019827 0.000000 0.000000
# 5 0.000000 0.000000 0.000000 0.000000 0.019827 0.000000
# 6 -0.001549 0.001549 0.000000 0.000000 0.000000 0.025816
#
#
# Mechanical properties :
#
#
# Convention : Reuss Voigt Hill
#
# Bulk Modulus (GPa) = 109.18326 109.85125 109.51725
# Shear Modulus (GPa) = 49.27001 50.59868 49.93434
#
# Velocity S-wave (km/s) = 4.38878 4.44757 4.41827
# Velocity P-wave (km/s) = 8.26835 8.32582 8.29713
#
# Compressibility (1/GPa) = 0.00915891
#
# Stress axis : x y z
#
# Youngs Moduli (GPa) = 138.07943 138.07943 152.11243
#
# Poissons Ratio (x) = 0.25593 0.31155
# Poissons Ratio (y) = 0.25593 0.31155
# Poissons Ratio (z) = 0.28281 0.28281
#
# Static dielectric constant tensor:
#      x y z
#    x 2.031470 0.000000 0.000000 
#    y 0.000000 2.031470 0.000000 
#    z 0.000000 0.000000 2.037510 
# 
# From -- ./inp_files/1201.got.cif
#   From: 2010.05.17/outbox.cif.g08.bks.cpg/sg88_1_cif.got.tgz:1201.got - 2010.06.03 19:11:41.
