data_PCOD9546922
_publ_section_title
;
Structure prediction by ZEFSAII (Michael W. Deem and Ramdas Pophale) SiO2 
 PCOD9546922
Probable space group: P 4 2 2
;
_chemical_formula_sum "Si O2"
_cell_formula_units_Z 28
_cell_length_a 15.434383
_cell_length_b 15.434383
_cell_length_c 5.404769
_cell_angle_alpha 90.000000
_cell_angle_beta 90.000000
_cell_angle_gamma 90.000000
_cell_volume 1287.525036
_symmetry_space_group_name_H-M "P 4 2 2"
_symmetry_group_IT_number 89
_symmetry_cell_setting 'tetragonal'
loop_
_space_group_symop_operation_xyz
x,y,z
-y,x,z
-x,-y,z
y,-x,z
x,-y,-z
-x,y,-z
y,x,-z
-y,-x,-z
loop_
_atom_site_type_symbol
_atom_site_label
_atom_site_fract_x
_atom_site_fract_y
_atom_site_fract_z
Si Si1 0.444637 0.133969 0.250248
Si Si2 0.678285 0.000000 0.000000
Si Si3 0.844082 0.774824 0.247670
Si Si4 0.687037 0.342146 0.252942
O O1 0.500000 0.121221 0.500000
O O2 0.389748 0.221545 0.269049
O O3 0.379661 0.056670 0.185930
O O4 0.500000 0.141611 0.000000
O O5 0.729093 0.065581 0.183470
O O6 0.829611 0.829611 0.500000
O O7 0.762540 0.707079 0.250474
O O8 0.830024 0.830024 0.000000
O O9 0.636719 0.363282 0.500000
O O10 0.639370 0.360631 0.000000
#
# Coordination Sequence:
#
# PCOD9546922 Si02
#       4
#     8   4   8   8
#     4  12  27  42  64 105 148 176 217 284 360 427
#     4  12  25  46  68  99 144 192 232 289 370 430
#     4  10  22  40  67  89 124 185 241 276 330 423
#     4  10  19  42  65  85 130 188 227 262 317 419
#
# _framework density 21.747150000000001
#
# number of rings (size 3 to 8) (size 9 to 14) (size 15 to 20)
#    0.000    1.143    5.714    2.143    4.000    5.714 
#    0.000    0.000    0.000    0.429    0.000    4.000 
#    0.000   40.000    0.000    0.000    0.000    0.000 
#
# Total GULP energy -156406.350442 kJ/mol
# GULP energy per Si atom -5585.941087 kJ/mol
# Density = 2.169765 g / cm^3
# Si number density = 21.747150 Si / 1000 Ang^3
#
#
#
# Elastic Constant Matrix: (Units=GPa)
#
#
# Indices 1 2 3 4 5 6 
#
# 1 95.7963 -5.1299 58.9740 0.0000 0.0000 0.0000
# 2 -5.1299 95.7900 58.9697 0.0000 0.0000 0.0000
# 3 58.9740 58.9697 270.9740 0.0000 0.0000 0.0000
# 4 0.0000 0.0000 0.0000 29.2630 0.0000 0.0000
# 5 0.0000 0.0000 0.0000 0.0000 29.2632 0.0000
# 6 0.0000 0.0000 0.0000 0.0000 0.0000 15.3315
#
#
#
# Elastic Compliance Matrix: (Units=1/GPa)
#
#
# Indices 1 2 3 4 5 6 
#
# 1 0.012647 0.002739 -0.003348 0.000000 0.000000 0.000000
# 2 0.002739 0.012647 -0.003348 0.000000 0.000000 0.000000
# 3 -0.003348 -0.003348 0.005148 0.000000 0.000000 0.000000
# 4 0.000000 0.000000 0.000000 0.034173 0.000000 0.000000
# 5 0.000000 0.000000 0.000000 0.000000 0.034173 0.000000
# 6 0.000000 0.000000 0.000000 0.000000 0.000000 0.065225
#
#
# Mechanical properties :
#
#
# Convention : Reuss Voigt Hill
#
# Bulk Modulus (GPa) = 44.39365 76.46530 60.42948
# Shear Modulus (GPa) = 27.86483 38.08798 32.97641
#
# Velocity S-wave (km/s) = 3.58342 4.18951 3.89827
# Velocity P-wave (km/s) = 6.13018 7.65768 6.93611
#
# Compressibility (1/GPa) = 0.02252574
#
# Stress axis : x y z
#
# Youngs Moduli (GPa) = 79.07140 79.06716 194.25761
#
# Poissons Ratio (x) = -0.21653 0.65045
# Poissons Ratio (y) = -0.21655 0.65045
# Poissons Ratio (z) = 0.26476 0.26475
#
# Static dielectric constant tensor:
#      x y z
#    x 1.841550 0.000000 0.000000 
#    y 0.000000 1.841550 0.000000 
#    z 0.000000 0.000000 1.917090 
# 
# From -- ./inp_files/245.got.cif
#   From: 2010.05.17/outbox.cif.g08.bks.cpg/sg89_1_cif.got.tgz:245.got - 2010.06.03 19:15:31.
