data_PCOD9546594
_publ_section_title
;
Structure prediction by ZEFSAII (Michael W. Deem and Ramdas Pophale) SiO2 
 PCOD9546594
Probable space group: I 41/A
;
_chemical_formula_sum "Si O2"
_cell_formula_units_Z 48
_cell_length_a 10.234872
_cell_length_b 10.234872
_cell_length_c 16.855594
_cell_angle_alpha 90.000000
_cell_angle_beta 90.000000
_cell_angle_gamma 90.000000
_cell_volume 1765.667378
_symmetry_space_group_name_H-M "I 41/A"
_symmetry_group_IT_number 88
_space_group.IT_coordinate_system_code '2'
_symmetry_cell_setting 'tetragonal'
loop_
_space_group_symop_operation_xyz
x,y,z
3/4-y,1/4+x,1/4+z
-x,1/2-y,z
1/4+y,1/4-x,1/4+z
-x,-y,-z
1/4+y,3/4-x,3/4-z
x,1/2+y,-z
3/4-y,3/4+x,3/4-z
1/2+x,1/2+y,1/2+z
1/4-y,3/4+x,3/4+z
1/2-x,-y,1/2+z
3/4+y,3/4-x,3/4+z
1/2-x,1/2-y,1/2-z
3/4+y,1/4-x,1/4-z
1/2+x,y,1/2-z
1/4-y,1/4+x,1/4-z
loop_
_atom_site_type_symbol
_atom_site_label
_atom_site_fract_x
_atom_site_fract_y
_atom_site_fract_z
Si Si1 0.457022 0.951025 0.153520
Si Si2 0.171754 0.001022 0.814312
Si Si3 0.628114 0.658083 0.725952
O O1 0.581239 0.895829 0.107234
O O2 0.393342 0.068682 0.103951
O O3 0.436852 0.991400 0.245601
O O4 0.313625 0.964035 0.777928
O O5 0.136698 0.901787 0.885179
O O6 0.500000 0.750000 0.738668
O O7 0.750000 0.750000 0.750000
#
# Coordination Sequence:
#
# PCOD9546594 Si02
#       3
#    16  16  16
#     4  10  22  44  73 107 152 204 262 322 403 482
#     4  10  25  45  75 108 156 207 270 331 402 481
#     4  11  28  49  79 114 163 210 273 335 404 480
#
# _framework density 27.185191
#
# number of rings (size 3 to 8) (size 9 to 14) (size 15 to 20)
#    0.000    1.667    0.000    1.000   14.000    2.667 
#    6.000    0.000    7.333    0.000    0.000    0.000 
#    0.000    0.000    0.000    0.000    0.000    0.000 
#
# Total GULP energy -133927.527258 kJ/mol
# GULP energy per Si atom -5580.313636 kJ/mol
# Density = 2.712332 g / cm^3
# Si number density = 27.185191 Si / 1000 Ang^3
#
#
#
# Elastic Constant Matrix: (Units=GPa)
#
#
# Indices 1 2 3 4 5 6 
#
# 1 100.8836 -11.5216 33.7859 0.0000 0.0000 -28.2257
# 2 -11.5216 100.8835 33.7859 0.0000 0.0000 28.2257
# 3 33.7859 33.7859 191.8269 0.0000 0.0000 0.0000
# 4 0.0000 0.0000 0.0000 17.3289 0.0000 0.0000
# 5 0.0000 0.0000 0.0000 0.0000 17.3289 0.0000
# 6 -28.2257 28.2257 0.0000 0.0000 0.0000 45.3815
#
#
#
# Elastic Compliance Matrix: (Units=1/GPa)
#
#
# Indices 1 2 3 4 5 6 
#
# 1 0.012924 -0.000014 -0.002274 0.000000 0.000000 0.008047
# 2 -0.000014 0.012924 -0.002274 0.000000 0.000000 -0.008047
# 3 -0.002274 -0.002274 0.006014 0.000000 0.000000 0.000000
# 4 0.000000 0.000000 0.000000 0.057707 0.000000 0.000000
# 5 0.000000 0.000000 0.000000 0.000000 0.057707 0.000000
# 6 0.008047 -0.008047 0.000000 0.000000 0.000000 0.032045
#
#
# Mechanical properties :
#
#
# Convention : Reuss Voigt Hill
#
# Bulk Modulus (GPa) = 43.97832 56.18825 50.08329
# Shear Modulus (GPa) = 25.50723 38.51077 32.00900
#
# Velocity S-wave (km/s) = 3.06645 3.76787 3.43511
# Velocity P-wave (km/s) = 5.36190 6.29624 5.84776
#
# Compressibility (1/GPa) = 0.02273847
#
# Stress axis : x y z
#
# Youngs Moduli (GPa) = 77.37748 77.37748 166.27940
#
# Poissons Ratio (x) = 0.00108 0.37808
# Poissons Ratio (y) = 0.00108 0.37808
# Poissons Ratio (z) = 0.17594 0.17594
#
# Static dielectric constant tensor:
#      x y z
#    x 2.523900 0.000000 0.000000 
#    y 0.000000 2.523900 0.000000 
#    z 0.000000 0.000000 2.200360 
# 
# From -- ./inp_files/3574.got.cif
#   From: 2010.05.17/outbox.cif.g08.bks.cpg/sg88_2_cif.got.tgz:3574.got - 2010.06.03 19:11:41.
