data_PCOD9546107
_publ_section_title
;
Structure prediction by ZEFSAII (Michael W. Deem and Ramdas Pophale) SiO2 
 PCOD9546107
Probable space group: I 4/M
;
_chemical_formula_sum "Si O2"
_cell_formula_units_Z 56
_cell_length_a 13.547744
_cell_length_b 13.547744
_cell_length_c 12.335255
_cell_angle_alpha 90.000000
_cell_angle_beta 90.000000
_cell_angle_gamma 90.000000
_cell_volume 2264.029571
_symmetry_space_group_name_H-M "I 4/M"
_symmetry_group_IT_number 87
_symmetry_cell_setting 'tetragonal'
loop_
_space_group_symop_operation_xyz
x,y,z
-y,x,z
-x,-y,z
y,-x,z
-x,-y,-z
y,-x,-z
x,y,-z
-y,x,-z
1/2+x,1/2+y,1/2+z
1/2-y,1/2+x,1/2+z
1/2-x,1/2-y,1/2+z
1/2+y,1/2-x,1/2+z
1/2-x,1/2-y,1/2-z
1/2+y,1/2-x,1/2-z
1/2+x,1/2+y,1/2-z
1/2-y,1/2+x,1/2-z
loop_
_atom_site_type_symbol
_atom_site_label
_atom_site_fract_x
_atom_site_fract_y
_atom_site_fract_z
Si Si1 0.875064 0.111887 0.875579
Si Si2 0.382293 0.022035 0.882041
Si Si3 0.663735 0.483607 0.000000
Si Si4 0.226373 0.599974 0.199704
O O1 0.810181 0.151200 0.774072
O O2 0.866610 0.991798 0.864869
O O3 0.846506 0.137930 0.000000
O O4 0.351300 0.136127 0.866342
O O5 0.334655 0.960092 0.788215
O O6 0.500000 0.000000 0.879934
O O7 0.348028 0.988524 0.000000
O O8 0.604978 0.584845 0.000000
O O9 0.724610 0.469814 0.890441
#
# Coordination Sequence:
#
# PCOD9546107 Si02
#       4
#    16  16   8  16
#     4   9  19  37  60  87 121 165 213 259 315 376
#     4  11  23  41  65  93 126 170 213 263 328 395
#     4  11  26  46  67  94 134 182 221 258 324 401
#     4  12  20  39  67  91 123 167 214 265 312 386
#
# _framework density 24.734659000000001
#
# number of rings (size 3 to 8) (size 9 to 14) (size 15 to 20)
#    0.000    1.286    4.286    3.429    0.000    2.286 
#    2.571    5.714    0.000    0.000    0.000    0.000 
#    0.000    0.000    0.000    0.000    0.000    0.000 
#
# Total GULP energy -156603.856130 kJ/mol
# GULP energy per Si atom -5592.994862 kJ/mol
# Density = 2.467836 g / cm^3
# Si number density = 24.734659 Si / 1000 Ang^3
#
#
#
# Elastic Constant Matrix: (Units=GPa)
#
#
# Indices 1 2 3 4 5 6 
#
# 1 79.3690 -11.6313 26.7173 0.0000 0.0000 -8.5732
# 2 -11.6313 79.3690 26.7173 0.0000 0.0000 8.5732
# 3 26.7173 26.7173 203.8456 0.0000 0.0000 0.0000
# 4 0.0000 0.0000 0.0000 39.4469 0.0000 0.0000
# 5 0.0000 0.0000 0.0000 0.0000 39.4469 0.0000
# 6 -8.5732 8.5732 0.0000 0.0000 0.0000 22.2556
#
#
#
# Elastic Compliance Matrix: (Units=1/GPa)
#
#
# Indices 1 2 3 4 5 6 
#
# 1 0.014157 0.002308 -0.002158 0.000000 0.000000 0.004564
# 2 0.002308 0.014157 -0.002158 0.000000 0.000000 -0.004564
# 3 -0.002158 -0.002158 0.005471 0.000000 0.000000 0.000000
# 4 0.000000 0.000000 0.000000 0.025351 0.000000 0.000000
# 5 0.000000 0.000000 0.000000 0.000000 0.025351 0.000000
# 6 0.004564 -0.004564 0.000000 0.000000 0.000000 0.048449
#
#
# Mechanical properties :
#
#
# Convention : Reuss Voigt Hill
#
# Bulk Modulus (GPa) = 33.59129 49.57668 41.58398
# Shear Modulus (GPa) = 34.04255 41.61522 37.82889
#
# Velocity S-wave (km/s) = 3.71389 4.10624 3.91498
# Velocity P-wave (km/s) = 5.65692 6.52445 6.10611
#
# Compressibility (1/GPa) = 0.02976963
#
# Stress axis : x y z
#
# Youngs Moduli (GPa) = 70.63590 70.63590 182.76980
#
# Poissons Ratio (x) = -0.16303 0.39442
# Poissons Ratio (y) = -0.16303 0.39442
# Poissons Ratio (z) = 0.15243 0.15243
#
# Static dielectric constant tensor:
#      x y z
#    x 2.029510 0.000000 0.000000 
#    y 0.000000 2.029510 0.000000 
#    z 0.000000 0.000000 1.893270 
# 
# From -- ./inp_files/2178.got.cif
#   From: 2010.05.17/outbox.cif.g08.bks.cpg/sg87_2_cif.got.tgz:2178.got - 2010.06.03 19:07:00.
