data_PCOD9546339
_publ_section_title
;
Structure prediction by ZEFSAII (Michael W. Deem and Ramdas Pophale) SiO2 
 PCOD9546339
Probable space group: I 41/A
;
_chemical_formula_sum "Si O2"
_cell_formula_units_Z 88
_cell_length_a 11.148097
_cell_length_b 11.148097
_cell_length_c 28.827866
_cell_angle_alpha 90.000000
_cell_angle_beta 90.000000
_cell_angle_gamma 90.000000
_cell_volume 3582.729110
_symmetry_space_group_name_H-M "I 41/A"
_symmetry_group_IT_number 88
_space_group.IT_coordinate_system_code '2'
_symmetry_cell_setting 'tetragonal'
loop_
_space_group_symop_operation_xyz
x,y,z
3/4-y,1/4+x,1/4+z
-x,1/2-y,z
1/4+y,1/4-x,1/4+z
-x,-y,-z
1/4+y,3/4-x,3/4-z
x,1/2+y,-z
3/4-y,3/4+x,3/4-z
1/2+x,1/2+y,1/2+z
1/4-y,3/4+x,3/4+z
1/2-x,-y,1/2+z
3/4+y,3/4-x,3/4+z
1/2-x,1/2-y,1/2-z
3/4+y,1/4-x,1/4-z
1/2+x,y,1/2-z
1/4-y,1/4+x,1/4-z
loop_
_atom_site_type_symbol
_atom_site_label
_atom_site_fract_x
_atom_site_fract_y
_atom_site_fract_z
Si Si1 0.520261 0.984480 0.242668
Si Si2 0.506278 0.061923 0.862419
Si Si3 0.122523 0.070529 0.887754
Si Si4 0.734023 0.996853 0.763891
Si Si5 0.500000 0.250000 0.466013
Si Si6 0.398779 0.972773 0.577888
O O1 0.386427 0.933447 0.251621
O O2 0.637696 0.940002 0.269708
O O3 0.503905 0.126104 0.255492
O O4 0.544397 0.959742 0.188724
O O5 0.404447 0.131360 0.890492
O O6 0.560204 0.937892 0.880583
O O7 0.178822 0.052792 0.939283
O O8 0.168627 0.960579 0.856715
O O9 0.979807 0.067988 0.894849
O O10 0.759066 0.901753 0.722366
O O11 0.509528 0.134788 0.433473
#
# Coordination Sequence:
#
# PCOD9546339 Si02
#       6
#    16  16  16  16   8  16
#     4  10  21  37  67  95 138 175 231 281 356 429
#     4  10  23  45  65  85 121 183 244 280 333 418
#     4  11  22  37  63 101 136 182 222 286 356 426
#     4  10  22  38  59 102 142 184 223 282 358 441
#     4  10  20  35  64 104 142 180 218 278 370 434
#     4  11  21  35  61 101 145 175 222 288 361 427
#
# _framework density 24.562283000000001
#
# number of rings (size 3 to 8) (size 9 to 14) (size 15 to 20)
#    0.000    1.636    1.818    2.727    7.636    0.000 
#    0.000    0.000    0.000   53.455    0.000    0.000 
#    0.000    0.000    0.000    0.000    0.000    0.000 
#
# Total GULP energy -245774.079440 kJ/mol
# GULP energy per Si atom -5585.774533 kJ/mol
# Density = 2.450638 g / cm^3
# Si number density = 24.562283 Si / 1000 Ang^3
#
#
#
# Elastic Constant Matrix: (Units=GPa)
#
#
# Indices 1 2 3 4 5 6 
#
# 1 87.1204 13.9210 14.2724 0.0000 0.0000 -1.5209
# 2 13.9210 87.1204 14.2724 0.0000 0.0000 1.5209
# 3 14.2724 14.2724 66.2244 0.0000 0.0000 0.0000
# 4 0.0000 0.0000 0.0000 26.5449 0.0000 0.0000
# 5 0.0000 0.0000 0.0000 0.0000 26.5449 0.0000
# 6 -1.5209 1.5209 0.0000 0.0000 0.0000 35.8337
#
#
#
# Elastic Compliance Matrix: (Units=1/GPa)
#
#
# Indices 1 2 3 4 5 6 
#
# 1 0.012112 -0.001573 -0.002271 0.000000 0.000000 0.000581
# 2 -0.001573 0.012112 -0.002271 0.000000 0.000000 -0.000581
# 3 -0.002271 -0.002271 0.016079 0.000000 0.000000 0.000000
# 4 0.000000 0.000000 0.000000 0.037672 0.000000 0.000000
# 5 0.000000 0.000000 0.000000 0.000000 0.037672 0.000000
# 6 0.000581 -0.000581 0.000000 0.000000 0.000000 0.027956
#
#
# Mechanical properties :
#
#
# Convention : Reuss Voigt Hill
#
# Bulk Modulus (GPa) = 35.62350 36.15523 35.88937
# Shear Modulus (GPa) = 30.26779 30.98466 30.62622
#
# Velocity S-wave (km/s) = 3.51420 3.55558 3.53495
# Velocity P-wave (km/s) = 5.56785 5.62209 5.59504
#
# Compressibility (1/GPa) = 0.02807135
#
# Stress axis : x y z
#
# Youngs Moduli (GPa) = 82.56267 82.56267 62.19233
#
# Poissons Ratio (x) = 0.12991 0.14125
# Poissons Ratio (y) = 0.12991 0.14125
# Poissons Ratio (z) = 0.18752 0.18752
#
# Static dielectric constant tensor:
#      x y z
#    x 2.049990 0.000000 0.000000 
#    y 0.000000 2.049990 0.000000 
#    z 0.000000 0.000000 1.916550 
# 
# From -- ./inp_files/6465.got.cif
#   From: 2010.05.17/outbox.cif.g08.bks.cpg/sg88_4_cif.got.tgz:6465.got - 2010.06.03 19:11:41.
