data_PCOD9546347
_publ_section_title
;
Structure prediction by ZEFSAII (Michael W. Deem and Ramdas Pophale) SiO2 
 PCOD9546347
Probable space group: I 41/A
;
_chemical_formula_sum "Si O2"
_cell_formula_units_Z 68
_cell_length_a 26.210072
_cell_length_b 26.210072
_cell_length_c 5.055850
_cell_angle_alpha 90.000000
_cell_angle_beta 90.000000
_cell_angle_gamma 90.000000
_cell_volume 3473.206527
_symmetry_space_group_name_H-M "I 41/A"
_symmetry_group_IT_number 88
_space_group.IT_coordinate_system_code '2'
_symmetry_cell_setting 'tetragonal'
loop_
_space_group_symop_operation_xyz
x,y,z
3/4-y,1/4+x,1/4+z
-x,1/2-y,z
1/4+y,1/4-x,1/4+z
-x,-y,-z
1/4+y,3/4-x,3/4-z
x,1/2+y,-z
3/4-y,3/4+x,3/4-z
1/2+x,1/2+y,1/2+z
1/4-y,3/4+x,3/4+z
1/2-x,-y,1/2+z
3/4+y,3/4-x,3/4+z
1/2-x,1/2-y,1/2-z
3/4+y,1/4-x,1/4-z
1/2+x,y,1/2-z
1/4-y,1/4+x,1/4-z
loop_
_atom_site_type_symbol
_atom_site_label
_atom_site_fract_x
_atom_site_fract_y
_atom_site_fract_z
Si Si1 0.410875 0.818536 0.452167
Si Si2 0.744977 0.311443 0.703964
Si Si3 0.046892 0.402956 0.782152
Si Si4 0.000000 0.250000 0.125000
Si Si5 0.183362 0.815285 0.690978
O O1 0.382578 0.817863 0.735095
O O2 0.466391 0.792451 0.474277
O O3 0.413395 0.877705 0.373789
O O4 0.380337 0.787539 0.230068
O O5 0.750000 0.250000 0.750000
O O6 0.798753 0.328405 0.579301
O O7 0.701683 0.323025 0.488670
O O8 0.726622 0.332713 0.984678
O O9 0.995408 0.426304 0.902871
#
# Coordination Sequence:
#
# PCOD9546347 Si02
#       5
#    16  16  16   4  16
#     4  12  25  36  55  80 117 159 198 220 263 341
#     4  10  20  36  58  76 102 143 193 250 290 313
#     4  11  22  37  55  78 109 148 196 237 280 324
#     4  12  28  38  52  74 132 170 196 218 248 322
#     4  11  21  36  56  79 109 147 196 234 282 323
#
# _framework density 19.578448000000002
#
# number of rings (size 3 to 8) (size 9 to 14) (size 15 to 20)
#    0.000    0.941    2.353    8.471    3.294    0.941 
#    0.000    0.000    0.000    0.000    0.000    0.000 
#    0.000   52.706    0.000    0.000    0.000    0.000 
#
# Total GULP energy -189736.038411 kJ/mol
# GULP energy per Si atom -5580.471718 kJ/mol
# Density = 1.953389 g / cm^3
# Si number density = 19.578448 Si / 1000 Ang^3
#
#
#
# Elastic Constant Matrix: (Units=GPa)
#
#
# Indices 1 2 3 4 5 6 
#
# 1 57.8574 -4.4028 10.0570 0.0000 0.0000 -0.8106
# 2 -4.4028 57.8574 10.0570 0.0000 0.0000 0.8106
# 3 10.0570 10.0570 101.7896 0.0000 0.0000 0.0000
# 4 0.0000 0.0000 0.0000 18.4812 0.0000 0.0000
# 5 0.0000 0.0000 0.0000 0.0000 18.4812 0.0000
# 6 -0.8106 0.8106 0.0000 0.0000 0.0000 5.2010
#
#
#
# Elastic Compliance Matrix: (Units=1/GPa)
#
#
# Indices 1 2 3 4 5 6 
#
# 1 0.017778 0.001651 -0.001920 0.000000 0.000000 0.002513
# 2 0.001651 0.017778 -0.001920 0.000000 0.000000 -0.002513
# 3 -0.001920 -0.001920 0.010204 0.000000 0.000000 0.000000
# 4 0.000000 0.000000 0.000000 0.054109 0.000000 0.000000
# 5 0.000000 0.000000 0.000000 0.000000 0.054109 0.000000
# 6 0.002513 -0.002513 0.000000 0.000000 0.000000 0.193053
#
#
# Mechanical properties :
#
#
# Convention : Reuss Voigt Hill
#
# Bulk Modulus (GPa) = 24.16373 27.65852 25.91112
# Shear Modulus (GPa) = 13.69104 21.88559 17.78831
#
# Velocity S-wave (km/s) = 2.64728 3.34704 3.01751
# Velocity P-wave (km/s) = 4.65971 5.39394 5.04021
#
# Compressibility (1/GPa) = 0.04138434
#
# Stress axis : x y z
#
# Youngs Moduli (GPa) = 56.24793 56.24793 98.00534
#
# Poissons Ratio (x) = -0.09289 0.18814
# Poissons Ratio (y) = -0.09289 0.18814
# Poissons Ratio (z) = 0.10798 0.10798
#
# Static dielectric constant tensor:
#      x y z
#    x 1.731320 0.000000 0.000000 
#    y 0.000000 1.731320 0.000000 
#    z 0.000000 0.000000 1.707250 
# 
# From -- ./inp_files/645.got.cif
#   From: 2010.05.17/outbox.cif.g08.bks.cpg/sg88_1_cif.got.tgz:645.got - 2010.06.03 19:11:41.
