data_PCOD9546586
_publ_section_title
;
Structure prediction by ZEFSAII (Michael W. Deem and Ramdas Pophale) SiO2 
 PCOD9546586
Probable space group: I 41/A
;
_chemical_formula_sum "Si O2"
_cell_formula_units_Z 68
_cell_length_a 11.819906
_cell_length_b 11.819906
_cell_length_c 22.973335
_cell_angle_alpha 90.000000
_cell_angle_beta 90.000000
_cell_angle_gamma 90.000000
_cell_volume 3209.608719
_symmetry_space_group_name_H-M "I 41/A"
_symmetry_group_IT_number 88
_space_group.IT_coordinate_system_code '2'
_symmetry_cell_setting 'tetragonal'
loop_
_space_group_symop_operation_xyz
x,y,z
3/4-y,1/4+x,1/4+z
-x,1/2-y,z
1/4+y,1/4-x,1/4+z
-x,-y,-z
1/4+y,3/4-x,3/4-z
x,1/2+y,-z
3/4-y,3/4+x,3/4-z
1/2+x,1/2+y,1/2+z
1/4-y,3/4+x,3/4+z
1/2-x,-y,1/2+z
3/4+y,3/4-x,3/4+z
1/2-x,1/2-y,1/2-z
3/4+y,1/4-x,1/4-z
1/2+x,y,1/2-z
1/4-y,1/4+x,1/4-z
loop_
_atom_site_type_symbol
_atom_site_label
_atom_site_fract_x
_atom_site_fract_y
_atom_site_fract_z
Si Si1 0.000000 0.750000 0.875000
Si Si2 0.664638 0.538015 0.867435
Si Si3 0.621129 0.753151 0.944064
Si Si4 0.868195 0.091268 0.214805
Si Si5 0.321816 0.340010 0.588898
O O1 0.061951 0.837928 0.832494
O O2 0.659951 0.632958 0.918317
O O3 0.746820 0.573921 0.814413
O O4 0.538464 0.528283 0.842593
O O5 0.722154 0.427080 0.894814
O O6 0.500000 0.750000 0.976135
O O7 0.722505 0.816947 0.975387
O O8 0.598847 0.833711 0.888787
O O9 0.871006 0.136382 0.280152
#
# Coordination Sequence:
#
# PCOD9546586 Si02
#       5
#     4  16  16  16  16
#     4  12  24  36  64 108 136 156 216 256 316 410
#     4  10  22  43  58  92 130 155 222 255 300 401
#     4   9  20  41  58  88 127 159 208 259 304 388
#     4  11  23  39  64  96 127 166 206 265 324 373
#     4  10  24  40  66  88 124 176 203 267 329 357
#
# _framework density 21.186381999999998
#
# number of rings (size 3 to 8) (size 9 to 14) (size 15 to 20)
#    0.000    1.882    2.353    0.000    8.235    1.412 
#    4.235    3.529    0.000    0.000    0.000    0.000 
#    0.000    0.000    0.000    0.000    0.000    0.000 
#
# Total GULP energy -189859.153550 kJ/mol
# GULP energy per Si atom -5584.092751 kJ/mol
# Density = 2.113816 g / cm^3
# Si number density = 21.186382 Si / 1000 Ang^3
#
#
#
# Elastic Constant Matrix: (Units=GPa)
#
#
# Indices 1 2 3 4 5 6 
#
# 1 86.2043 48.7691 -9.5809 0.0000 0.0000 5.8302
# 2 48.7691 86.2043 -9.5809 0.0000 0.0000 -5.8302
# 3 -9.5809 -9.5809 44.7747 0.0000 0.0000 0.0000
# 4 0.0000 0.0000 0.0000 -11.4157 0.0000 0.0000
# 5 0.0000 0.0000 0.0000 0.0000 -11.4157 0.0000
# 6 5.8302 -5.8302 0.0000 0.0000 0.0000 31.6828
#
#
#
# Elastic Compliance Matrix: (Units=1/GPa)
#
#
# Indices 1 2 3 4 5 6 
#
# 1 0.017989 -0.010348 0.001635 0.000000 0.000000 -0.005215
# 2 -0.010348 0.017989 0.001635 0.000000 0.000000 0.005215
# 3 0.001635 0.001635 0.023034 0.000000 0.000000 0.000000
# 4 0.000000 0.000000 0.000000 -0.087599 0.000000 0.000000
# 5 0.000000 0.000000 0.000000 0.000000 -0.087599 0.000000
# 6 -0.005215 0.005215 0.000000 0.000000 0.000000 0.033482
#
#
# Mechanical properties :
#
#
# Convention : Reuss Voigt Hill
#
# Bulk Modulus (GPa) = 22.29362 30.71086 26.50224
# Shear Modulus (GPa) = -93.29001 14.27537 -39.50732
#
# Velocity S-wave (km/s) = -6.64294 2.59858 -4.32296
# Velocity P-wave (km/s) = 6.94929 4.85083 3.51867
#
# Compressibility (1/GPa) = 0.04485589
#
# Stress axis : x y z
#
# Youngs Moduli (GPa) = 55.58947 55.58947 43.41447
#
# Poissons Ratio (x) = 0.57524 -0.07098
# Poissons Ratio (y) = 0.57524 -0.07098
# Poissons Ratio (z) = -0.09089 -0.09089
#
# Static dielectric constant tensor:
#      x y z
#    x 1.816620 0.000000 0.000000 
#    y 0.000000 1.816620 0.000000 
#    z 0.000000 0.000000 1.754730 
# 
# From -- ./inp_files/5685.got.cif
#   From: 2010.05.17/outbox.cif.g08.bks.cpg/sg88_3_cif.got.tgz:5685.got - 2010.06.03 19:11:41.
