data_PCOD9546590
_publ_section_title
;
Structure prediction by ZEFSAII (Michael W. Deem and Ramdas Pophale) SiO2 
 PCOD9546590
Probable space group: I 41/A
;
_chemical_formula_sum "Si O2"
_cell_formula_units_Z 72
_cell_length_a 16.367710
_cell_length_b 16.367710
_cell_length_c 11.069104
_cell_angle_alpha 90.000000
_cell_angle_beta 90.000000
_cell_angle_gamma 90.000000
_cell_volume 2965.434332
_symmetry_space_group_name_H-M "I 41/A"
_symmetry_group_IT_number 88
_space_group.IT_coordinate_system_code '2'
_symmetry_cell_setting 'tetragonal'
loop_
_space_group_symop_operation_xyz
x,y,z
3/4-y,1/4+x,1/4+z
-x,1/2-y,z
1/4+y,1/4-x,1/4+z
-x,-y,-z
1/4+y,3/4-x,3/4-z
x,1/2+y,-z
3/4-y,3/4+x,3/4-z
1/2+x,1/2+y,1/2+z
1/4-y,3/4+x,3/4+z
1/2-x,-y,1/2+z
3/4+y,3/4-x,3/4+z
1/2-x,1/2-y,1/2-z
3/4+y,1/4-x,1/4-z
1/2+x,y,1/2-z
1/4-y,1/4+x,1/4-z
loop_
_atom_site_type_symbol
_atom_site_label
_atom_site_fract_x
_atom_site_fract_y
_atom_site_fract_z
Si Si1 0.227663 0.324573 0.836030
Si Si2 0.480929 0.921837 0.262595
Si Si3 0.086242 0.695100 0.707778
Si Si4 0.500000 0.750000 0.625000
Si Si5 0.000000 0.250000 0.625000
Si Si6 0.302581 0.485669 0.725571
O O1 0.250000 0.250000 0.750000
O O2 0.134162 0.325652 0.877493
O O3 0.254638 0.404103 0.765884
O O4 0.281957 0.306911 0.953326
O O5 0.500588 0.905431 0.401383
O O6 0.477089 0.830625 0.202662
O O7 0.397737 0.970530 0.245625
O O8 0.081428 0.685648 0.849388
O O9 0.000000 0.750000 0.712125
O O10 0.262224 0.545489 0.828047
#
# Coordination Sequence:
#
# PCOD9546590 Si02
#       6
#    16  16  16   4   4  16
#     4  12  22  42  70 102 136 178 244 304 353 420
#     4  12  22  38  75 102 137 187 237 301 360 419
#     4  10  22  43  68  97 135 182 239 298 355 426
#     4   8  22  44  68  90 144 184 230 304 342 456
#     4  12  18  36  68 114 132 164 238 292 368 398
#     4  12  27  46  67 105 152 186 234 303 365 432
#
# _framework density 24.279748999999999
#
# number of rings (size 3 to 8) (size 9 to 14) (size 15 to 20)
#    0.667    0.000    5.556    4.000    0.000    0.000 
#    8.000    1.111    0.000    0.000    0.000    0.000 
#    0.000    0.000    0.000    0.000    0.000    0.000 
#
# Total GULP energy -200577.854260 kJ/mol
# GULP energy per Si atom -5571.607063 kJ/mol
# Density = 2.422449 g / cm^3
# Si number density = 24.279749 Si / 1000 Ang^3
#
#
#
# Elastic Constant Matrix: (Units=GPa)
#
#
# Indices 1 2 3 4 5 6 
#
# 1 61.9794 -11.9576 6.3593 0.0000 0.0000 -6.5238
# 2 -11.9576 61.9794 6.3593 0.0000 0.0000 6.5238
# 3 6.3593 6.3593 94.4265 0.0000 0.0000 0.0000
# 4 0.0000 0.0000 0.0000 29.6869 0.0000 0.0000
# 5 0.0000 0.0000 0.0000 0.0000 29.6869 0.0000
# 6 -6.5238 6.5238 0.0000 0.0000 0.0000 20.6733
#
#
#
# Elastic Compliance Matrix: (Units=1/GPa)
#
#
# Indices 1 2 3 4 5 6 
#
# 1 0.017331 0.003008 -0.001370 0.000000 0.000000 0.004520
# 2 0.003008 0.017331 -0.001370 0.000000 0.000000 -0.004520
# 3 -0.001370 -0.001370 0.010775 0.000000 0.000000 0.000000
# 4 0.000000 0.000000 0.000000 0.033685 0.000000 0.000000
# 5 0.000000 0.000000 0.000000 0.000000 0.033685 0.000000
# 6 0.004520 -0.004520 0.000000 0.000000 0.000000 0.051224
#
#
# Mechanical properties :
#
#
# Convention : Reuss Voigt Hill
#
# Bulk Modulus (GPa) = 21.75110 24.43415 23.09262
# Shear Modulus (GPa) = 27.96140 30.51771 29.23956
#
# Velocity S-wave (km/s) = 3.39726 3.54915 3.47403
# Velocity P-wave (km/s) = 4.93624 5.18467 5.06198
#
# Compressibility (1/GPa) = 0.04597469
#
# Stress axis : x y z
#
# Youngs Moduli (GPa) = 57.69972 57.69972 92.80958
#
# Poissons Ratio (x) = -0.17359 0.12713
# Poissons Ratio (y) = -0.17359 0.12713
# Poissons Ratio (z) = 0.07904 0.07904
#
# Static dielectric constant tensor:
#      x y z
#    x 2.051820 0.000000 0.000000 
#    y 0.000000 2.051820 0.000000 
#    z 0.000000 0.000000 2.063210 
# 
# From -- ./inp_files/2477.got.cif
#   From: 2010.05.17/outbox.cif.g08.bks.cpg/sg88_2_cif.got.tgz:2477.got - 2010.06.03 19:11:41.
