data_PCOD9546119
_publ_section_title
;
Structure prediction by ZEFSAII (Michael W. Deem and Ramdas Pophale) SiO2 
 PCOD9546119
Probable space group: I 4/M
;
_chemical_formula_sum "Si O2"
_cell_formula_units_Z 56
_cell_length_a 11.275321
_cell_length_b 11.275321
_cell_length_c 18.727837
_cell_angle_alpha 90.000000
_cell_angle_beta 90.000000
_cell_angle_gamma 90.000000
_cell_volume 2380.923548
_symmetry_space_group_name_H-M "I 4/M"
_symmetry_group_IT_number 87
_symmetry_cell_setting 'tetragonal'
loop_
_space_group_symop_operation_xyz
x,y,z
-y,x,z
-x,-y,z
y,-x,z
-x,-y,-z
y,-x,-z
x,y,-z
-y,x,-z
1/2+x,1/2+y,1/2+z
1/2-y,1/2+x,1/2+z
1/2-x,1/2-y,1/2+z
1/2+y,1/2-x,1/2+z
1/2-x,1/2-y,1/2-z
1/2+y,1/2-x,1/2-z
1/2+x,1/2+y,1/2-z
1/2-y,1/2+x,1/2-z
loop_
_atom_site_type_symbol
_atom_site_label
_atom_site_fract_x
_atom_site_fract_y
_atom_site_fract_z
Si Si1 0.831123 0.408745 0.273272
Si Si2 0.608543 0.666531 0.850796
Si Si3 0.809953 0.066520 0.916971
Si Si4 0.329417 0.608335 0.000000
O O1 0.849653 0.544862 0.247748
O O2 0.731604 0.359387 0.220458
O O3 0.786402 0.405692 0.355202
O O4 0.466647 0.654661 0.852012
O O5 0.644673 0.727852 0.925377
O O6 0.929918 0.144837 0.907672
O O7 0.769437 0.080063 0.000000
O O8 0.344013 0.465118 0.000000
#
# Coordination Sequence:
#
# PCOD9546119 Si02
#       4
#    16  16  16   8
#     4  11  24  39  51  78 117 157 192 227 282 338
#     4   9  17  32  56  81 106 138 178 230 282 330
#     4   9  19  39  66  90 112 144 191 245 292 336
#     4   7  12  26  48  77 106 126 156 209 276 335
#
# _framework density 23.520285999999999
#
# number of rings (size 3 to 8) (size 9 to 14) (size 15 to 20)
#    0.000    2.714    0.000    4.286    0.000    6.857 
#    5.143    1.429    0.000    0.000    0.000    0.000 
#    0.000    0.000    0.000    0.000    0.000    0.000 
#
# Total GULP energy -156444.443427 kJ/mol
# GULP energy per Si atom -5587.301551 kJ/mol
# Density = 2.346675 g / cm^3
# Si number density = 23.520286 Si / 1000 Ang^3
#
#
#
# Elastic Constant Matrix: (Units=GPa)
#
#
# Indices 1 2 3 4 5 6 
#
# 1 79.0172 -0.3414 68.1574 0.0000 0.0000 3.3635
# 2 -0.3414 79.0172 68.1574 0.0000 0.0000 -3.3635
# 3 68.1574 68.1574 250.8304 0.0000 0.0000 0.0000
# 4 0.0000 0.0000 0.0000 25.9359 0.0000 0.0000
# 5 0.0000 0.0000 0.0000 0.0000 25.9359 0.0000
# 6 3.3635 -3.3635 0.0000 0.0000 0.0000 12.8518
#
#
#
# Elastic Compliance Matrix: (Units=1/GPa)
#
#
# Indices 1 2 3 4 5 6 
#
# 1 0.018452 0.005566 -0.006526 0.000000 0.000000 -0.003373
# 2 0.005566 0.018452 -0.006526 0.000000 0.000000 0.003373
# 3 -0.006526 -0.006526 0.007534 0.000000 0.000000 0.000000
# 4 0.000000 0.000000 0.000000 0.038557 0.000000 0.000000
# 5 0.000000 0.000000 0.000000 0.000000 0.038557 0.000000
# 6 -0.003373 0.003373 0.000000 0.000000 0.000000 0.079576
#
#
# Mechanical properties :
#
#
# Convention : Reuss Voigt Hill
#
# Bulk Modulus (GPa) = 33.93948 75.64576 54.79262
# Shear Modulus (GPa) = 22.13141 31.13746 26.63443
#
# Velocity S-wave (km/s) = 3.07082 3.64243 3.36877
# Velocity P-wave (km/s) = 5.19947 7.06551 6.20306
#
# Compressibility (1/GPa) = 0.02946421
#
# Stress axis : x y z
#
# Youngs Moduli (GPa) = 54.19322 54.19322 132.73982
#
# Poissons Ratio (x) = -0.30162 0.86631
# Poissons Ratio (y) = -0.30162 0.86631
# Poissons Ratio (z) = 0.35368 0.35368
#
# Static dielectric constant tensor:
#      x y z
#    x 1.908230 0.000000 0.000000 
#    y 0.000000 1.908230 0.000000 
#    z 0.000000 0.000000 1.908280 
# 
# From -- ./inp_files/4126.got.cif
#   From: 2010.05.17/outbox.cif.g08.bks.cpg/sg87_3_cif.got.tgz:4126.got - 2010.06.03 19:07:00.
