data_PCOD9546804
_publ_section_title
;
Structure prediction by ZEFSAII (Michael W. Deem and Ramdas Pophale) SiO2 
 PCOD9546804
Probable space group: I 41/A
;
_chemical_formula_sum "Si O2"
_cell_formula_units_Z 100
_cell_length_a 13.058782
_cell_length_b 13.058782
_cell_length_c 23.434110
_cell_angle_alpha 90.000000
_cell_angle_beta 90.000000
_cell_angle_gamma 90.000000
_cell_volume 3996.260663
_symmetry_space_group_name_H-M "I 41/A"
_symmetry_group_IT_number 88
_space_group.IT_coordinate_system_code '2'
_symmetry_cell_setting 'tetragonal'
loop_
_space_group_symop_operation_xyz
x,y,z
3/4-y,1/4+x,1/4+z
-x,1/2-y,z
1/4+y,1/4-x,1/4+z
-x,-y,-z
1/4+y,3/4-x,3/4-z
x,1/2+y,-z
3/4-y,3/4+x,3/4-z
1/2+x,1/2+y,1/2+z
1/4-y,3/4+x,3/4+z
1/2-x,-y,1/2+z
3/4+y,3/4-x,3/4+z
1/2-x,1/2-y,1/2-z
3/4+y,1/4-x,1/4-z
1/2+x,y,1/2-z
1/4-y,1/4+x,1/4-z
loop_
_atom_site_type_symbol
_atom_site_label
_atom_site_fract_x
_atom_site_fract_y
_atom_site_fract_z
Si Si1 0.472636 0.925201 0.798918
Si Si2 0.397239 0.305043 0.097572
Si Si3 0.805994 0.585572 0.252239
Si Si4 0.336983 0.711539 0.137238
Si Si5 0.000000 0.250000 0.125000
Si Si6 0.219009 0.732527 0.839916
Si Si7 0.653071 0.577725 0.505943
O O1 0.423399 0.838272 0.837819
O O2 0.552240 0.885588 0.752767
O O3 0.389346 0.000504 0.772363
O O4 0.537508 0.991595 0.844839
O O5 0.500000 0.250000 0.074971
O O6 0.294037 0.238398 0.105408
O O7 0.374364 0.402991 0.058334
O O8 0.808381 0.673203 0.299959
O O9 0.701562 0.522022 0.253195
O O10 0.386624 0.824266 0.136320
O O11 0.048193 0.350927 0.096229
O O12 0.210330 0.846096 0.812412
O O13 0.270452 0.655081 0.795473
#
# Coordination Sequence:
#
# PCOD9546804 Si02
#       7
#    16  16  16  16   4  16  16
#     4  11  25  45  72 102 142 186 235 305 361 441
#     4  12  26  47  71 107 148 189 249 306 365 435
#     4  11  26  43  72 106 136 191 244 295 361 449
#     4   9  22  44  66  97 143 179 227 289 361 426
#     4  12  28  44  76 108 144 184 248 308 364 444
#     4  11  26  46  69 103 144 190 235 310 367 436
#     4  11  25  44  72  98 141 188 240 292 378 432
#
# _framework density 25.023391
#
# number of rings (size 3 to 8) (size 9 to 14) (size 15 to 20)
#    0.000    1.120    3.200    0.960   13.440    3.200 
#    0.000    0.000    0.000    0.000    0.000    0.000 
#    0.000    0.000    0.000    0.000    0.000    0.000 
#
# Total GULP energy -280083.376535 kJ/mol
# GULP energy per Si atom -5601.667531 kJ/mol
# Density = 2.496644 g / cm^3
# Si number density = 25.023391 Si / 1000 Ang^3
#
#
#
# Elastic Constant Matrix: (Units=GPa)
#
#
# Indices 1 2 3 4 5 6 
#
# 1 86.5337 8.1633 26.4880 0.0000 0.0000 -5.1135
# 2 8.1633 86.5337 26.4880 0.0000 0.0000 5.1135
# 3 26.4880 26.4880 65.1230 0.0000 0.0000 0.0000
# 4 0.0000 0.0000 0.0000 34.8326 0.0000 0.0000
# 5 0.0000 0.0000 0.0000 0.0000 34.8326 0.0000
# 6 -5.1135 5.1135 0.0000 0.0000 0.0000 41.0813
#
#
#
# Elastic Compliance Matrix: (Units=1/GPa)
#
#
# Indices 1 2 3 4 5 6 
#
# 1 0.013321 0.000350 -0.005560 0.000000 0.000000 0.001614
# 2 0.000350 0.013321 -0.005560 0.000000 0.000000 -0.001614
# 3 -0.005560 -0.005560 0.019879 0.000000 0.000000 0.000000
# 4 0.000000 0.000000 0.000000 0.028709 0.000000 0.000000
# 5 0.000000 0.000000 0.000000 0.000000 0.028709 0.000000
# 6 0.001614 -0.001614 0.000000 0.000000 0.000000 0.024744
#
#
# Mechanical properties :
#
#
# Convention : Reuss Voigt Hill
#
# Bulk Modulus (GPa) = 40.03431 40.05210 40.04321
# Shear Modulus (GPa) = 31.53600 33.95271 32.74436
#
# Velocity S-wave (km/s) = 3.55387 3.68753 3.62131
# Velocity P-wave (km/s) = 5.73354 5.84560 5.78984
#
# Compressibility (1/GPa) = 0.02497857
#
# Stress axis : x y z
#
# Youngs Moduli (GPa) = 75.07169 75.07169 50.30488
#
# Poissons Ratio (x) = -0.02628 0.27971
# Poissons Ratio (y) = -0.02628 0.27971
# Poissons Ratio (z) = 0.41743 0.41743
#
# Static dielectric constant tensor:
#      x y z
#    x 2.005490 0.000000 0.000000 
#    y 0.000000 2.005490 0.000000 
#    z 0.000000 0.000000 1.938060 
# 
# From -- ./inp_files/5274.got.cif
#   From: 2010.05.17/outbox.cif.g08.bks.cpg/sg88_3_cif.got.tgz:5274.got - 2010.06.03 19:11:41.
