data_PCOD9546789
_publ_section_title
;
Structure prediction by ZEFSAII (Michael W. Deem and Ramdas Pophale) SiO2 
 PCOD9546789
Probable space group: I 41/A
;
_chemical_formula_sum "Si O2"
_cell_formula_units_Z 96
_cell_length_a 13.647019
_cell_length_b 13.647019
_cell_length_c 21.119735
_cell_angle_alpha 90.000000
_cell_angle_beta 90.000000
_cell_angle_gamma 90.000000
_cell_volume 3933.363261
_symmetry_space_group_name_H-M "I 41/A"
_symmetry_group_IT_number 88
_space_group.IT_coordinate_system_code '2'
_symmetry_cell_setting 'tetragonal'
loop_
_space_group_symop_operation_xyz
x,y,z
3/4-y,1/4+x,1/4+z
-x,1/2-y,z
1/4+y,1/4-x,1/4+z
-x,-y,-z
1/4+y,3/4-x,3/4-z
x,1/2+y,-z
3/4-y,3/4+x,3/4-z
1/2+x,1/2+y,1/2+z
1/4-y,3/4+x,3/4+z
1/2-x,-y,1/2+z
3/4+y,3/4-x,3/4+z
1/2-x,1/2-y,1/2-z
3/4+y,1/4-x,1/4-z
1/2+x,y,1/2-z
1/4-y,1/4+x,1/4-z
loop_
_atom_site_type_symbol
_atom_site_label
_atom_site_fract_x
_atom_site_fract_y
_atom_site_fract_z
Si Si1 0.268756 0.421811 0.900083
Si Si2 0.574644 0.161479 0.567359
Si Si3 0.389318 0.951316 0.555095
Si Si4 0.747565 0.273867 0.088620
Si Si5 0.291958 0.232858 0.958228
Si Si6 0.717908 0.136603 0.758720
O O1 0.163203 0.444187 0.932753
O O2 0.319881 0.316437 0.909834
O O3 0.247956 0.420604 0.824107
O O4 0.337022 0.491334 0.944064
O O5 0.500000 0.250000 0.554015
O O6 0.570819 0.078392 0.512991
O O7 0.688574 0.191894 0.567855
O O8 0.546040 0.107444 0.631361
O O9 0.469203 0.940690 0.608884
O O10 0.306196 0.870828 0.569859
O O11 0.734870 0.214450 0.024233
O O12 0.366847 0.148424 0.979292
O O13 0.750000 0.250000 0.750000
#
# Coordination Sequence:
#
# PCOD9546789 Si02
#       6
#    16  16  16  16  16  16
#     4  12  25  49  77 111 159 210 266 345 419 491
#     4  11  24  43  68 103 146 191 252 325 403 497
#     4  11  25  40  71 103 149 196 249 322 406 499
#     4  11  24  41  68  99 147 189 250 316 404 487
#     4  11  26  45  73 108 147 198 264 330 404 501
#     4  12  27  49  80 114 159 217 275 349 416 499
#
# _framework density 24.406593000000001
#
# number of rings (size 3 to 8) (size 9 to 14) (size 15 to 20)
#    0.000    0.667    3.333    4.500    9.333    0.667 
#    0.000    1.667    0.000    0.000    0.000    0.000 
#    0.000    0.000    0.000    0.000    0.000    0.000 
#
# Total GULP energy -267749.157713 kJ/mol
# GULP energy per Si atom -5578.107452 kJ/mol
# Density = 2.435104 g / cm^3
# Si number density = 24.406593 Si / 1000 Ang^3
#
#
#
# Elastic Constant Matrix: (Units=GPa)
#
#
# Indices 1 2 3 4 5 6 
#
# 1 89.4191 32.6915 24.8803 0.0000 0.0000 -5.6679
# 2 32.6915 89.4191 24.8803 0.0000 0.0000 5.6679
# 3 24.8803 24.8803 141.8225 0.0000 0.0000 0.0000
# 4 0.0000 0.0000 0.0000 36.4940 0.0000 0.0000
# 5 0.0000 0.0000 0.0000 0.0000 36.4940 0.0000
# 6 -5.6679 5.6679 0.0000 0.0000 0.0000 33.1602
#
#
#
# Elastic Compliance Matrix: (Units=1/GPa)
#
#
# Indices 1 2 3 4 5 6 
#
# 1 0.013536 -0.004716 -0.001547 0.000000 0.000000 0.003120
# 2 -0.004716 0.013536 -0.001547 0.000000 0.000000 -0.003120
# 3 -0.001547 -0.001547 0.007594 0.000000 0.000000 0.000000
# 4 0.000000 0.000000 0.000000 0.027402 0.000000 0.000000
# 5 0.000000 0.000000 0.000000 0.000000 0.027402 0.000000
# 6 0.003120 -0.003120 0.000000 0.000000 0.000000 0.031223
#
#
# Mechanical properties :
#
#
# Convention : Reuss Voigt Hill
#
# Bulk Modulus (GPa) = 52.50869 53.95165 53.23017
# Shear Modulus (GPa) = 35.04816 37.11022 36.07919
#
# Velocity S-wave (km/s) = 3.79359 3.90359 3.84898
# Velocity P-wave (km/s) = 6.38351 6.51695 6.45058
#
# Compressibility (1/GPa) = 0.01904446
#
# Stress axis : x y z
#
# Youngs Moduli (GPa) = 73.87894 73.87894 131.68370
#
# Poissons Ratio (x) = 0.34840 0.20375
# Poissons Ratio (y) = 0.34840 0.20375
# Poissons Ratio (z) = 0.11431 0.11431
#
# Static dielectric constant tensor:
#      x y z
#    x 2.046780 0.000000 0.000000 
#    y 0.000000 2.046780 0.000000 
#    z 0.000000 0.000000 1.954880 
# 
# From -- ./inp_files/4693.got.cif
#   From: 2010.05.17/outbox.cif.g08.bks.cpg/sg88_3_cif.got.tgz:4693.got - 2010.06.03 19:11:41.
