data_PCOD9546005
_publ_section_title
;
Structure prediction by ZEFSAII (Michael W. Deem and Ramdas Pophale) SiO2 
 PCOD9546005
Probable space group: I 4/M
;
_chemical_formula_sum "Si O2"
_cell_formula_units_Z 72
_cell_length_a 15.882365
_cell_length_b 15.882365
_cell_length_c 11.925177
_cell_angle_alpha 90.000000
_cell_angle_beta 90.000000
_cell_angle_gamma 90.000000
_cell_volume 3008.120150
_symmetry_space_group_name_H-M "I 4/M"
_symmetry_group_IT_number 87
_symmetry_cell_setting 'tetragonal'
loop_
_space_group_symop_operation_xyz
x,y,z
-y,x,z
-x,-y,z
y,-x,z
-x,-y,-z
y,-x,-z
x,y,-z
-y,x,-z
1/2+x,1/2+y,1/2+z
1/2-y,1/2+x,1/2+z
1/2-x,1/2-y,1/2+z
1/2+y,1/2-x,1/2+z
1/2-x,1/2-y,1/2-z
1/2+y,1/2-x,1/2-z
1/2+x,1/2+y,1/2-z
1/2-y,1/2+x,1/2-z
loop_
_atom_site_type_symbol
_atom_site_label
_atom_site_fract_x
_atom_site_fract_y
_atom_site_fract_z
Si Si1 0.773358 0.046022 0.626814
Si Si2 0.610091 0.059599 0.775817
Si Si3 0.964596 0.133634 0.812756
Si Si4 0.732230 0.933794 0.000000
Si Si5 0.260122 0.698985 0.000000
Si Si6 0.845239 0.376989 0.500000
O O1 0.752502 0.016780 0.500000
O O2 0.697920 0.056230 0.714298
O O3 0.838539 0.982692 0.684696
O O4 0.796876 0.144413 0.603754
O O5 0.536311 0.087594 0.691659
O O6 0.606708 0.120760 0.881910
O O7 0.901420 0.057884 0.839581
O O8 0.935652 0.210143 0.888905
O O9 0.687890 0.842039 0.000000
O O10 0.693419 0.028187 0.000000
O O11 0.284286 0.796456 0.000000
#
# Coordination Sequence:
#
# PCOD9546005 Si02
#       6
#    16  16  16   8   8   8
#     4  10  25  45  64 102 139 189 235 294 360 430
#     4  11  26  44  70 101 140 183 234 295 362 440
#     4  11  24  43  71 102 144 192 242 303 369 440
#     4  12  22  45  70 108 141 177 241 310 363 433
#     4  10  26  45  72 103 144 180 244 298 364 439
#     4  12  24  44  72 105 129 191 230 293 362 419
#
# _framework density 23.935213999999998
#
# number of rings (size 3 to 8) (size 9 to 14) (size 15 to 20)
#    0.667    0.444    2.222    3.333    3.111    5.333 
#    0.000    1.111    0.000    0.000    0.000    0.000 
#    0.000    0.000    0.000    0.000    0.000    0.000 
#
# Total GULP energy -200806.205386 kJ/mol
# GULP energy per Si atom -5577.950150 kJ/mol
# Density = 2.388074 g / cm^3
# Si number density = 23.935214 Si / 1000 Ang^3
#
#
#
# Elastic Constant Matrix: (Units=GPa)
#
#
# Indices 1 2 3 4 5 6 
#
# 1 67.3892 18.0906 -2.8538 0.0000 0.0000 3.9856
# 2 18.0906 67.3892 -2.8538 0.0000 0.0000 -3.9856
# 3 -2.8538 -2.8538 72.0386 0.0000 0.0000 0.0000
# 4 0.0000 0.0000 0.0000 14.6948 0.0000 0.0000
# 5 0.0000 0.0000 0.0000 0.0000 14.6948 0.0000
# 6 3.9856 -3.9856 0.0000 0.0000 0.0000 23.4887
#
#
#
# Elastic Compliance Matrix: (Units=1/GPa)
#
#
# Indices 1 2 3 4 5 6 
#
# 1 0.016293 -0.004564 0.000465 0.000000 0.000000 -0.003539
# 2 -0.004564 0.016293 0.000465 0.000000 0.000000 0.003539
# 3 0.000465 0.000465 0.013918 0.000000 0.000000 0.000000
# 4 0.000000 0.000000 0.000000 0.068051 0.000000 0.000000
# 5 0.000000 0.000000 0.000000 0.000000 0.068051 0.000000
# 6 -0.003539 0.003539 0.000000 0.000000 0.000000 0.043775
#
#
# Mechanical properties :
#
#
# Convention : Reuss Voigt Hill
#
# Bulk Modulus (GPa) = 25.48655 25.73142 25.60898
# Shear Modulus (GPa) = 20.26515 23.53794 21.90154
#
# Velocity S-wave (km/s) = 2.91291 3.13933 3.02824
# Velocity P-wave (km/s) = 4.68878 4.89022 4.79056
#
# Compressibility (1/GPa) = 0.03923638
#
# Stress axis : x y z
#
# Youngs Moduli (GPa) = 61.37511 61.37511 71.84802
#
# Poissons Ratio (x) = 0.28009 -0.03339
# Poissons Ratio (y) = 0.28009 -0.03339
# Poissons Ratio (z) = -0.02852 -0.02852
#
# Static dielectric constant tensor:
#      x y z
#    x 1.923620 0.000000 0.000000 
#    y 0.000000 1.923620 0.000000 
#    z 0.000000 0.000000 1.941740 
# 
# From -- ./inp_files/2510.got.cif
#   From: 2010.05.17/outbox.cif.g08.bks.cpg/sg87_2_cif.got.tgz:2510.got - 2010.06.03 19:07:00.
