data_PCOD9546162
_publ_section_title
;
Structure prediction by ZEFSAII (Michael W. Deem and Ramdas Pophale) SiO2 
 PCOD9546162
Probable space group: I 4/M
;
_chemical_formula_sum "Si O2"
_cell_formula_units_Z 68
_cell_length_a 11.890955
_cell_length_b 11.890955
_cell_length_c 27.960851
_cell_angle_alpha 90.000000
_cell_angle_beta 90.000000
_cell_angle_gamma 90.000000
_cell_volume 3953.519237
_symmetry_space_group_name_H-M "I 4/M"
_symmetry_group_IT_number 87
_symmetry_cell_setting 'tetragonal'
loop_
_space_group_symop_operation_xyz
x,y,z
-y,x,z
-x,-y,z
y,-x,z
-x,-y,-z
y,-x,-z
x,y,-z
-y,x,-z
1/2+x,1/2+y,1/2+z
1/2-y,1/2+x,1/2+z
1/2-x,1/2-y,1/2+z
1/2+y,1/2-x,1/2+z
1/2-x,1/2-y,1/2-z
1/2+y,1/2-x,1/2-z
1/2+x,1/2+y,1/2-z
1/2-y,1/2+x,1/2-z
loop_
_atom_site_type_symbol
_atom_site_label
_atom_site_fract_x
_atom_site_fract_y
_atom_site_fract_z
Si Si1 0.386525 0.775800 0.202948
Si Si2 0.795384 0.378479 0.850132
Si Si3 0.920468 0.827884 0.555058
Si Si4 0.248651 0.495994 0.303574
Si Si5 0.500000 0.500000 0.329155
O O1 0.300616 0.690248 0.178353
O O2 0.495326 0.793213 0.170028
O O3 0.428915 0.731110 0.254062
O O4 0.325411 0.895139 0.209370
O O5 0.760174 0.381006 0.905517
O O6 0.913644 0.320769 0.838200
O O7 0.904087 0.792539 0.500000
O O8 0.052761 0.856784 0.561729
O O9 0.365763 0.534042 0.326143
#
# Coordination Sequence:
#
# PCOD9546162 Si02
#       5
#    16  16  16  16   4
#     4  12  24  38  57  83 121 160 197 240 290 348
#     4  12  22  36  62  88 117 155 197 240 294 352
#     4   9  18  35  58  87 120 150 186 241 305 359
#     4  12  24  42  54  82 121 165 200 240 287 340
#     4  12  24  40  60  76 109 164 209 232 272 352
#
# _framework density 17.199864999999999
#
# number of rings (size 3 to 8) (size 9 to 14) (size 15 to 20)
#    0.000    0.706    7.059    3.529    0.000    0.471 
#    0.000    0.000    0.000    4.235    0.000    0.824 
#    0.000    0.000    0.000    0.000    0.000    0.000 
#
# Total GULP energy -189553.953016 kJ/mol
# GULP energy per Si atom -5575.116265 kJ/mol
# Density = 1.716072 g / cm^3
# Si number density = 17.199865 Si / 1000 Ang^3
#
#
#
# Elastic Constant Matrix: (Units=GPa)
#
#
# Indices 1 2 3 4 5 6 
#
# 1 67.5435 -14.0797 -1.7707 0.0000 0.0000 -1.2145
# 2 -14.0797 67.5435 -1.7707 0.0000 0.0000 1.2145
# 3 -1.7707 -1.7707 72.9766 0.0000 0.0000 0.0000
# 4 0.0000 0.0000 0.0000 20.4719 0.0000 0.0000
# 5 0.0000 0.0000 0.0000 0.0000 20.4719 0.0000
# 6 -1.2145 1.2145 0.0000 0.0000 0.0000 29.1057
#
#
#
# Elastic Compliance Matrix: (Units=1/GPa)
#
#
# Indices 1 2 3 4 5 6 
#
# 1 0.015501 0.003234 0.000455 0.000000 0.000000 0.000512
# 2 0.003234 0.015501 0.000455 0.000000 0.000000 -0.000512
# 3 0.000455 0.000455 0.013725 0.000000 0.000000 0.000000
# 4 0.000000 0.000000 0.000000 0.048847 0.000000 0.000000
# 5 0.000000 0.000000 0.000000 0.000000 0.048847 0.000000
# 6 0.000512 -0.000512 0.000000 0.000000 0.000000 0.034400
#
#
# Mechanical properties :
#
#
# Convention : Reuss Voigt Hill
#
# Bulk Modulus (GPa) = 18.86360 19.20235 19.03297
# Shear Modulus (GPa) = 26.85199 29.05555 27.95377
#
# Velocity S-wave (km/s) = 3.95546 4.11456 4.03579
# Velocity P-wave (km/s) = 5.64375 5.81044 5.72770
#
# Compressibility (1/GPa) = 0.05301216
#
# Stress axis : x y z
#
# Youngs Moduli (GPa) = 64.51398 64.51398 72.85930
#
# Poissons Ratio (x) = -0.20863 -0.03312
# Poissons Ratio (y) = -0.20863 -0.03312
# Poissons Ratio (z) = -0.02933 -0.02933
#
# Static dielectric constant tensor:
#      x y z
#    x 1.580550 0.000000 0.000000 
#    y 0.000000 1.580550 0.000000 
#    z 0.000000 0.000000 1.575210 
# 
# From -- ./inp_files/6160.got.cif
#   From: 2010.05.17/outbox.cif.g08.bks.cpg/sg87_4_cif.got.tgz:6160.got - 2010.06.03 19:07:00.
