data_PCOD9546301
_publ_section_title
;
Structure prediction by ZEFSAII (Michael W. Deem and Ramdas Pophale) SiO2 
 PCOD9546301
Probable space group: I 41/A
;
_chemical_formula_sum "Si O2"
_cell_formula_units_Z 92
_cell_length_a 14.139078
_cell_length_b 14.139078
_cell_length_c 24.310477
_cell_angle_alpha 90.000000
_cell_angle_beta 90.000000
_cell_angle_gamma 90.000000
_cell_volume 4859.993193
_symmetry_space_group_name_H-M "I 41/A"
_symmetry_group_IT_number 88
_space_group.IT_coordinate_system_code '2'
_symmetry_cell_setting 'tetragonal'
loop_
_space_group_symop_operation_xyz
x,y,z
3/4-y,1/4+x,1/4+z
-x,1/2-y,z
1/4+y,1/4-x,1/4+z
-x,-y,-z
1/4+y,3/4-x,3/4-z
x,1/2+y,-z
3/4-y,3/4+x,3/4-z
1/2+x,1/2+y,1/2+z
1/4-y,3/4+x,3/4+z
1/2-x,-y,1/2+z
3/4+y,3/4-x,3/4+z
1/2-x,1/2-y,1/2-z
3/4+y,1/4-x,1/4-z
1/2+x,y,1/2-z
1/4-y,1/4+x,1/4-z
loop_
_atom_site_type_symbol
_atom_site_label
_atom_site_fract_x
_atom_site_fract_y
_atom_site_fract_z
Si Si1 0.938305 0.924238 0.573608
Si Si2 0.968278 0.605574 0.014710
Si Si3 0.000000 0.250000 0.625000
Si Si4 0.660735 0.337285 0.803252
Si Si5 0.577340 0.145886 0.406991
Si Si6 0.709280 0.548163 0.830503
Si Si7 0.000000 0.750000 0.108058
O O1 0.913708 0.893271 0.511975
O O2 0.848054 0.940889 0.612548
O O3 0.994389 0.841665 0.604347
O O4 0.002800 0.017193 0.568176
O O5 0.857596 0.594887 0.031864
O O6 0.007694 0.658663 0.068429
O O7 0.000000 0.500000 0.000000
O O8 0.017010 0.655164 0.962783
O O9 0.066801 0.184629 0.587065
O O10 0.707979 0.437773 0.817122
O O11 0.494632 0.125830 0.361896
O O12 0.652491 0.061541 0.412588
#
# Coordination Sequence:
#
# PCOD9546301 Si02
#       7
#    16  16   4  16  16  16   8
#     4  10  23  41  61  92 122 165 214 268 313 386
#     4   9  20  38  59  92 127 164 203 257 312 387
#     4  12  22  44  68  92 128 174 212 272 334 364
#     4  11  23  42  65  92 126 162 222 269 324 376
#     4  10  21  38  63  96 134 169 208 253 317 399
#     4  10  22  40  65  93 127 167 211 267 322 380
#     4  10  19  40  63  85 130 163 204 252 328 380
#
# _framework density 18.930067999999999
#
# number of rings (size 3 to 8) (size 9 to 14) (size 15 to 20)
#    0.000    1.913    1.739    1.565    2.435    4.174 
#    3.130    0.000    0.000    0.000    0.000    0.000 
#    0.000    0.000    0.000    0.000    0.000    0.000 
#
# Total GULP energy -256213.258324 kJ/mol
# GULP energy per Si atom -5569.853442 kJ/mol
# Density = 1.888698 g / cm^3
# Si number density = 18.930068 Si / 1000 Ang^3
#
#
#
# Elastic Constant Matrix: (Units=GPa)
#
#
# Indices 1 2 3 4 5 6 
#
# 1 99.9973 27.9727 42.8960 0.0000 0.0000 0.9320
# 2 27.9727 99.9973 42.8960 0.0000 0.0000 -0.9320
# 3 42.8960 42.8960 124.1520 0.0000 0.0000 0.0000
# 4 0.0000 0.0000 0.0000 20.0357 0.0000 0.0000
# 5 0.0000 0.0000 0.0000 0.0000 20.0357 0.0000
# 6 0.9320 -0.9320 0.0000 0.0000 0.0000 35.4003
#
#
#
# Elastic Compliance Matrix: (Units=1/GPa)
#
#
# Indices 1 2 3 4 5 6 
#
# 1 0.012032 -0.001862 -0.003514 0.000000 0.000000 -0.000366
# 2 -0.001862 0.012032 -0.003514 0.000000 0.000000 0.000366
# 3 -0.003514 -0.003514 0.010483 0.000000 0.000000 0.000000
# 4 0.000000 0.000000 0.000000 0.049911 0.000000 0.000000
# 5 0.000000 0.000000 0.000000 0.000000 0.049911 0.000000
# 6 -0.000366 0.000366 0.000000 0.000000 0.000000 0.028268
#
#
# Mechanical properties :
#
#
# Convention : Reuss Voigt Hill
#
# Bulk Modulus (GPa) = 59.63944 61.29733 60.46838
# Shear Modulus (GPa) = 26.88117 29.11983 28.00050
#
# Velocity S-wave (km/s) = 3.77241 3.92635 3.85015
# Velocity P-wave (km/s) = 7.10973 7.28054 7.19564
#
# Compressibility (1/GPa) = 0.01676743
#
# Stress axis : x y z
#
# Youngs Moduli (GPa) = 83.11283 83.11283 95.39422
#
# Poissons Ratio (x) = 0.15474 0.33520
# Poissons Ratio (y) = 0.15474 0.33520
# Poissons Ratio (z) = 0.29205 0.29205
#
# Static dielectric constant tensor:
#      x y z
#    x 1.664630 0.000000 0.000000 
#    y 0.000000 1.664630 0.000000 
#    z 0.000000 0.000000 1.693170 
# 
# From -- ./inp_files/4755.got.cif
#   From: 2010.05.17/outbox.cif.g08.bks.cpg/sg88_3_cif.got.tgz:4755.got - 2010.06.03 19:11:41.
