data_PCOD9546562
_publ_section_title
;
Structure prediction by ZEFSAII (Michael W. Deem and Ramdas Pophale) SiO2 
 PCOD9546562
Probable space group: I 41/A
;
_chemical_formula_sum "Si O2"
_cell_formula_units_Z 88
_cell_length_a 10.310589
_cell_length_b 10.310589
_cell_length_c 31.089018
_cell_angle_alpha 90.000000
_cell_angle_beta 90.000000
_cell_angle_gamma 90.000000
_cell_volume 3305.018959
_symmetry_space_group_name_H-M "I 41/A"
_symmetry_group_IT_number 88
_space_group.IT_coordinate_system_code '2'
_symmetry_cell_setting 'tetragonal'
loop_
_space_group_symop_operation_xyz
x,y,z
3/4-y,1/4+x,1/4+z
-x,1/2-y,z
1/4+y,1/4-x,1/4+z
-x,-y,-z
1/4+y,3/4-x,3/4-z
x,1/2+y,-z
3/4-y,3/4+x,3/4-z
1/2+x,1/2+y,1/2+z
1/4-y,3/4+x,3/4+z
1/2-x,-y,1/2+z
3/4+y,3/4-x,3/4+z
1/2-x,1/2-y,1/2-z
3/4+y,1/4-x,1/4-z
1/2+x,y,1/2-z
1/4-y,1/4+x,1/4-z
loop_
_atom_site_type_symbol
_atom_site_label
_atom_site_fract_x
_atom_site_fract_y
_atom_site_fract_z
Si Si1 0.000000 0.250000 0.285712
Si Si2 0.831972 0.419408 0.019798
Si Si3 0.295092 0.155595 0.669042
Si Si4 0.576578 0.558107 0.615985
Si Si5 0.475127 0.979477 0.167688
Si Si6 0.164010 0.663491 0.500648
O O1 0.882419 0.209173 0.254746
O O2 0.993403 0.376925 0.314955
O O3 0.862610 0.449184 0.069067
O O4 0.766128 0.546127 0.000458
O O5 0.734191 0.295104 0.016620
O O6 0.240485 0.254153 0.633317
O O7 0.401927 0.068971 0.644086
O O8 0.359853 0.191068 0.714914
O O9 0.170952 0.063559 0.675549
O O10 0.427879 0.599689 0.611471
O O11 0.559031 0.887112 0.200023
#
# Coordination Sequence:
#
# PCOD9546562 Si02
#       6
#     8  16  16  16  16  16
#     4  10  22  40  65 108 140 186 238 291 382 430
#     4  11  22  37  66 100 149 185 234 292 363 447
#     4  12  25  46  69 101 144 184 249 292 364 434
#     4  11  23  35  62 104 143 183 220 284 358 430
#     4  11  27  43  72 100 141 193 238 305 359 450
#     4  11  22  43  65 102 140 191 236 297 365 438
#
# _framework density 26.626172
#
# number of rings (size 3 to 8) (size 9 to 14) (size 15 to 20)
#    0.000    0.909    7.273    1.091    5.091    3.273 
#    0.000    0.909    0.000    0.000    0.000    0.000 
#    0.000    0.000    0.000    0.000    0.000    0.000 
#
# Total GULP energy -246280.751428 kJ/mol
# GULP energy per Si atom -5597.289805 kJ/mol
# Density = 2.656557 g / cm^3
# Si number density = 26.626172 Si / 1000 Ang^3
#
#
#
# Elastic Constant Matrix: (Units=GPa)
#
#
# Indices 1 2 3 4 5 6 
#
# 1 101.7549 16.3905 24.2480 0.0000 0.0000 0.6215
# 2 16.3905 101.7549 24.2480 0.0000 0.0000 -0.6215
# 3 24.2480 24.2480 147.5417 0.0000 0.0000 0.0000
# 4 0.0000 0.0000 0.0000 28.3679 0.0000 0.0000
# 5 0.0000 0.0000 0.0000 0.0000 28.3678 0.0000
# 6 0.6215 -0.6215 0.0000 0.0000 0.0000 25.3071
#
#
#
# Elastic Compliance Matrix: (Units=1/GPa)
#
#
# Indices 1 2 3 4 5 6 
#
# 1 0.010398 -0.001321 -0.001492 0.000000 0.000000 -0.000288
# 2 -0.001321 0.010398 -0.001492 0.000000 0.000000 0.000288
# 3 -0.001492 -0.001492 0.007268 0.000000 0.000000 0.000000
# 4 0.000000 0.000000 0.000000 0.035251 0.000000 0.000000
# 5 0.000000 0.000000 0.000000 0.000000 0.035251 0.000000
# 6 -0.000288 0.000288 0.000000 0.000000 0.000000 0.039529
#
#
# Mechanical properties :
#
#
# Convention : Reuss Voigt Hill
#
# Bulk Modulus (GPa) = 51.40275 53.42493 52.41384
# Shear Modulus (GPa) = 32.63966 35.48624 34.06295
#
# Velocity S-wave (km/s) = 3.50501 3.65466 3.58062
# Velocity P-wave (km/s) = 5.97724 6.15768 6.06813
#
# Compressibility (1/GPa) = 0.01945421
#
# Stress axis : x y z
#
# Youngs Moduli (GPa) = 96.17640 96.17641 137.58844
#
# Poissons Ratio (x) = 0.12706 0.20524
# Poissons Ratio (y) = 0.12706 0.20524
# Poissons Ratio (z) = 0.14346 0.14346
#
# Static dielectric constant tensor:
#      x y z
#    x 2.102180 0.000000 0.000000 
#    y 0.000000 2.102180 0.000000 
#    z 0.000000 0.000000 2.152810 
# 
# From -- ./inp_files/6458.got.cif
#   From: 2010.05.17/outbox.cif.g08.bks.cpg/sg88_4_cif.got.tgz:6458.got - 2010.06.03 19:11:41.
