data_PCOD9546413
_publ_section_title
;
Structure prediction by ZEFSAII (Michael W. Deem and Ramdas Pophale) SiO2 
 PCOD9546413
Probable space group: I 41/A
;
_chemical_formula_sum "Si O2"
_cell_formula_units_Z 72
_cell_length_a 20.314740
_cell_length_b 20.314740
_cell_length_c 8.118591
_cell_angle_alpha 90.000000
_cell_angle_beta 90.000000
_cell_angle_gamma 90.000000
_cell_volume 3350.450451
_symmetry_space_group_name_H-M "I 41/A"
_symmetry_group_IT_number 88
_space_group.IT_coordinate_system_code '2'
_symmetry_cell_setting 'tetragonal'
loop_
_space_group_symop_operation_xyz
x,y,z
3/4-y,1/4+x,1/4+z
-x,1/2-y,z
1/4+y,1/4-x,1/4+z
-x,-y,-z
1/4+y,3/4-x,3/4-z
x,1/2+y,-z
3/4-y,3/4+x,3/4-z
1/2+x,1/2+y,1/2+z
1/4-y,3/4+x,3/4+z
1/2-x,-y,1/2+z
3/4+y,3/4-x,3/4+z
1/2-x,1/2-y,1/2-z
3/4+y,1/4-x,1/4-z
1/2+x,y,1/2-z
1/4-y,1/4+x,1/4-z
loop_
_atom_site_type_symbol
_atom_site_label
_atom_site_fract_x
_atom_site_fract_y
_atom_site_fract_z
Si Si1 0.499205 0.857449 0.878980
Si Si2 0.369159 0.999771 0.593692
Si Si3 0.702335 0.637815 0.501058
Si Si4 0.500000 0.250000 0.375000
Si Si5 0.000000 0.750000 0.375000
Si Si6 0.115735 0.546688 0.563320
O O1 0.556973 0.902159 0.809604
O O2 0.473506 0.809639 0.734840
O O3 0.438451 0.896801 0.955365
O O4 0.527936 0.807707 0.013066
O O5 0.330427 0.933497 0.538827
O O6 0.407007 0.987961 0.765291
O O7 0.408327 0.018730 0.428873
O O8 0.322368 0.061309 0.641884
O O9 0.753768 0.630603 0.351235
#
# Coordination Sequence:
#
# PCOD9546413 Si02
#       6
#    16  16  16   4   4  16
#     4  11  25  47  66 100 125 187 235 282 350 402
#     4  10  24  39  68 104 136 183 218 272 362 397
#     4  11  24  42  67 102 140 177 227 282 336 420
#     4  10  20  46  72  78 136 162 228 294 336 422
#     4  10  28  46  72  86 140 186 228 282 360 422
#     4  11  24  42  67 102 140 177 227 282 336 420
#
# _framework density 21.489649
#
# number of rings (size 3 to 8) (size 9 to 14) (size 15 to 20)
#    0.000    1.333    0.000    4.667   18.667    0.889 
#    0.000    0.000    0.000    0.000    0.000    0.000 
#    0.000    0.000    0.000    0.000    0.000    0.000 
#
# Total GULP energy -200974.207719 kJ/mol
# GULP energy per Si atom -5582.616881 kJ/mol
# Density = 2.144074 g / cm^3
# Si number density = 21.489649 Si / 1000 Ang^3
#
#
#
# Elastic Constant Matrix: (Units=GPa)
#
#
# Indices 1 2 3 4 5 6 
#
# 1 14.4634 34.8247 2.9359 0.0000 0.0000 -4.5680
# 2 34.8247 14.4634 2.9359 0.0000 0.0000 4.5680
# 3 2.9359 2.9359 136.7396 0.0000 0.0000 0.0000
# 4 0.0000 0.0000 0.0000 12.9293 0.0000 0.0000
# 5 0.0000 0.0000 0.0000 0.0000 12.9293 0.0000
# 6 -4.5680 4.5680 0.0000 0.0000 0.0000 19.3606
#
#
#
# Elastic Compliance Matrix: (Units=1/GPa)
#
#
# Indices 1 2 3 4 5 6 
#
# 1 -0.012035 0.032376 -0.000437 0.000000 0.000000 -0.010478
# 2 0.032376 -0.012035 -0.000437 0.000000 0.000000 0.010478
# 3 -0.000437 -0.000437 0.007332 0.000000 0.000000 0.000000
# 4 0.000000 0.000000 0.000000 0.077344 0.000000 0.000000
# 5 0.000000 0.000000 0.000000 0.000000 0.077344 0.000000
# 6 -0.010478 0.010478 0.000000 0.000000 0.000000 0.046707
#
#
# Mechanical properties :
#
#
# Convention : Reuss Voigt Hill
#
# Bulk Modulus (GPa) = 21.61379 27.45107 24.53243
# Shear Modulus (GPa) = 36.47678 17.37514 26.92596
#
# Velocity S-wave (km/s) = 4.12444 2.84656 3.54358
# Velocity P-wave (km/s) = 5.72371 4.85857 5.30879
#
# Compressibility (1/GPa) = 0.04626676
#
# Stress axis : x y z
#
# Youngs Moduli (GPa) = -83.09032 -83.09032 136.38982
#
# Poissons Ratio (x) = 2.69013 0.05957
# Poissons Ratio (y) = 2.69013 0.05957
# Poissons Ratio (z) = -0.03629 -0.03629
#
# Static dielectric constant tensor:
#      x y z
#    x 1.819120 0.000000 0.000000 
#    y 0.000000 1.819120 0.000000 
#    z 0.000000 0.000000 1.854600 
# 
# From -- ./inp_files/1593.got.cif
#   From: 2010.05.17/outbox.cif.g08.bks.cpg/sg88_1_cif.got.tgz:1593.got - 2010.06.03 19:11:41.
