data_PCOD9546717
_publ_section_title
;
Structure prediction by ZEFSAII (Michael W. Deem and Ramdas Pophale) SiO2 
 PCOD9546717
Probable space group: I 41/A
;
_chemical_formula_sum "Si O2"
_cell_formula_units_Z 96
_cell_length_a 16.009340
_cell_length_b 16.009340
_cell_length_c 17.296396
_cell_angle_alpha 90.000000
_cell_angle_beta 90.000000
_cell_angle_gamma 90.000000
_cell_volume 4433.048432
_symmetry_space_group_name_H-M "I 41/A"
_symmetry_group_IT_number 88
_space_group.IT_coordinate_system_code '2'
_symmetry_cell_setting 'tetragonal'
loop_
_space_group_symop_operation_xyz
x,y,z
3/4-y,1/4+x,1/4+z
-x,1/2-y,z
1/4+y,1/4-x,1/4+z
-x,-y,-z
1/4+y,3/4-x,3/4-z
x,1/2+y,-z
3/4-y,3/4+x,3/4-z
1/2+x,1/2+y,1/2+z
1/4-y,3/4+x,3/4+z
1/2-x,-y,1/2+z
3/4+y,3/4-x,3/4+z
1/2-x,1/2-y,1/2-z
3/4+y,1/4-x,1/4-z
1/2+x,y,1/2-z
1/4-y,1/4+x,1/4-z
loop_
_atom_site_type_symbol
_atom_site_label
_atom_site_fract_x
_atom_site_fract_y
_atom_site_fract_z
Si Si1 0.561825 0.176770 0.110589
Si Si2 0.144145 0.143883 0.093665
Si Si3 0.283784 0.530489 0.868700
Si Si4 0.544077 0.579286 0.462385
Si Si5 0.829347 0.930421 0.502814
Si Si6 0.444044 0.425104 0.261748
O O1 0.500000 0.250000 0.084695
O O2 0.635636 0.229028 0.150958
O O3 0.594968 0.117480 0.043277
O O4 0.529916 0.120606 0.182612
O O5 0.203084 0.063224 0.083009
O O6 0.192956 0.225674 0.065487
O O7 0.111822 0.133432 0.181269
O O8 0.067084 0.138813 0.034670
O O9 0.313482 0.616110 0.828629
O O10 0.246649 0.461736 0.811491
O O11 0.346522 0.482749 0.925390
O O12 0.500000 0.500000 0.500000
O O13 0.755696 0.861446 0.491223
#
# Coordination Sequence:
#
# PCOD9546717 Si02
#       6
#    16  16  16  16  16  16
#     4  12  24  40  61  95 137 173 222 284 348 406
#     4  11  21  33  57  90 130 169 215 264 348 418
#     4  11  21  39  62  92 129 173 232 271 328 422
#     4  12  22  38  60  96 135 173 215 279 351 421
#     4  11  22  41  63  91 127 179 226 281 335 412
#     4  11  22  36  59  91 135 177 215 272 347 429
#
# _framework density 21.655526999999999
#
# number of rings (size 3 to 8) (size 9 to 14) (size 15 to 20)
#    0.000    0.667    5.000    7.000    0.000    0.000 
#    0.000    0.833    0.000    0.000    0.000    0.000 
#    0.000    0.000    0.000    0.000    0.000    0.000 
#
# Total GULP energy -268126.701457 kJ/mol
# GULP energy per Si atom -5585.972947 kJ/mol
# Density = 2.160624 g / cm^3
# Si number density = 21.655527 Si / 1000 Ang^3
#
#
#
# Elastic Constant Matrix: (Units=GPa)
#
#
# Indices 1 2 3 4 5 6 
#
# 1 58.2703 6.1330 31.2011 0.0000 0.0000 -8.2915
# 2 6.1330 58.2703 31.2011 0.0000 0.0000 8.2915
# 3 31.2011 31.2011 70.6514 0.0000 0.0000 0.0000
# 4 0.0000 0.0000 0.0000 39.6155 0.0000 0.0000
# 5 0.0000 0.0000 0.0000 0.0000 39.6155 0.0000
# 6 -8.2915 8.2915 0.0000 0.0000 0.0000 46.0498
#
#
#
# Elastic Compliance Matrix: (Units=1/GPa)
#
#
# Indices 1 2 3 4 5 6 
#
# 1 0.023743 0.003398 -0.011986 0.000000 0.000000 0.003663
# 2 0.003398 0.023743 -0.011986 0.000000 0.000000 -0.003663
# 3 -0.011986 -0.011986 0.024740 0.000000 0.000000 0.000000
# 4 0.000000 0.000000 0.000000 0.025243 0.000000 0.000000
# 5 0.000000 0.000000 0.000000 0.000000 0.025243 0.000000
# 6 0.003663 -0.003663 0.000000 0.000000 0.000000 0.023035
#
#
# Mechanical properties :
#
#
# Convention : Reuss Voigt Hill
#
# Bulk Modulus (GPa) = 32.17689 36.02916 34.10303
# Shear Modulus (GPa) = 25.34806 32.96663 29.15735
#
# Velocity S-wave (km/s) = 3.42499 3.90592 3.67333
# Velocity P-wave (km/s) = 5.52553 6.08401 5.81148
#
# Compressibility (1/GPa) = 0.03107820
#
# Stress axis : x y z
#
# Youngs Moduli (GPa) = 42.11779 42.11779 40.41977
#
# Poissons Ratio (x) = -0.14310 0.48446
# Poissons Ratio (y) = -0.14310 0.48446
# Poissons Ratio (z) = 0.50482 0.50482
#
# Static dielectric constant tensor:
#      x y z
#    x 1.835840 0.000000 0.000000 
#    y 0.000000 1.835840 0.000000 
#    z 0.000000 0.000000 1.844000 
# 
# From -- ./inp_files/3942.got.cif
#   From: 2010.05.17/outbox.cif.g08.bks.cpg/sg88_2_cif.got.tgz:3942.got - 2010.06.03 19:11:41.
