data_PCOD9546176
_publ_section_title
;
Structure prediction by ZEFSAII (Michael W. Deem and Ramdas Pophale) SiO2 
 PCOD9546176
Probable space group: I 4/M
;
_chemical_formula_sum "Si O2"
_cell_formula_units_Z 60
_cell_length_a 27.000000
_cell_length_b 27.000000
_cell_length_c 9.000000
_cell_angle_alpha 90.000000
_cell_angle_beta 90.000000
_cell_angle_gamma 90.000000
_cell_volume 6561.000000
_symmetry_space_group_name_H-M "I 4/M"
_symmetry_group_IT_number 87
_symmetry_cell_setting 'tetragonal'
loop_
_space_group_symop_operation_xyz
x,y,z
-y,x,z
-x,-y,z
y,-x,z
-x,-y,-z
y,-x,-z
x,y,-z
-y,x,-z
1/2+x,1/2+y,1/2+z
1/2-y,1/2+x,1/2+z
1/2-x,1/2-y,1/2+z
1/2+y,1/2-x,1/2+z
1/2-x,1/2-y,1/2-z
1/2+y,1/2-x,1/2-z
1/2+x,1/2+y,1/2-z
1/2-y,1/2+x,1/2-z
loop_
_atom_site_type_symbol
_atom_site_label
_atom_site_fract_x
_atom_site_fract_y
_atom_site_fract_z
Si Si1 0.172106 0.810712 0.830435
Si Si2 0.301690 0.131904 0.171256
Si Si3 0.462100 0.425785 0.000000
Si Si4 0.261920 0.554986 0.668560
Si Si5 0.733699 0.153770 0.324081
Si Si6 0.978158 0.876215 0.176885
Si Si7 0.077767 0.846726 0.326320
Si Si8 0.960491 0.267488 0.331898
O O1 0.151942 0.754863 0.829747
O O2 0.225223 0.812617 0.754391
O O3 0.131974 0.844366 0.745605
O O4 0.175868 0.828003 0.000000
O O5 0.334291 0.177933 0.224370
O O6 0.301333 0.083918 0.273598
O O7 0.314198 0.119572 0.000000
O O8 0.520576 0.437637 0.000000
O O9 0.455699 0.400197 0.166845
O O10 0.249533 0.568957 0.500000
O O11 0.249073 0.598737 0.779876
O O12 0.320299 0.542416 0.674488
O O13 0.233064 0.506178 0.720117
O O14 0.735848 0.162004 0.500000
O O15 0.036808 0.872497 0.220279
O O16 0.972796 0.894516 0.000000
O O17 0.081314 0.862747 0.500000
O O18 0.059220 0.789431 0.332674
O O19 0.975382 0.279459 0.500000
#
# Coordination Sequence:
#
# PCOD9546176 Si02
#       8
#    16  16   8  16  16  16  16  16
#     4  10  19  31  47  70 105 144 183 219 256 312
#     4   9  19  34  50  71 102 143 182 215 255 311
#     4  11  26  44  60  78 100 130 168 220 286 345
#     4  10  21  36  55  79 105 134 170 219 271 314
#     4  11  22  33  48  73 108 143 175 216 265 314
#     4  10  21  39  62  82 102 132 172 222 279 337
#     4   9  16  30  52  77 101 130 172 216 259 313
#     4   9  17  30  53  76  97 131 173 214 253 302
#
# _framework density 9.1449470000000002
#
# number of rings (size 3 to 8) (size 9 to 14) (size 15 to 20)
#    0.000    2.200    0.667    2.400    1.867    6.400 
#    0.000    2.000    0.000    0.000    0.000    0.000 
#    0.000    0.533    0.000    5.600    0.000    2.400 
#
# Total GULP energy -334578.796421 kJ/mol
# GULP energy per Si atom -5576.313274 kJ/mol
# Density = 0.912413 g / cm^3
# Si number density = 9.144947 Si / 1000 Ang^3
#
#
#
# Elastic Constant Matrix: (Units=GPa)
#
#
# Indices 1 2 3 4 5 6 
#
# 1 32.7292 10.4469 16.0870 0.0000 0.0000 -8.0229
# 2 10.4469 32.7292 16.0870 0.0000 0.0000 8.0229
# 3 16.0870 16.0870 94.3071 0.0000 0.0000 0.0000
# 4 0.0000 0.0000 0.0000 24.7103 0.0000 0.0000
# 5 0.0000 0.0000 0.0000 0.0000 24.7103 0.0000
# 6 -8.0229 8.0229 0.0000 0.0000 0.0000 29.5893
#
#
#
# Elastic Compliance Matrix: (Units=1/GPa)
#
#
# Indices 1 2 3 4 5 6 
#
# 1 0.041151 -0.014617 -0.004526 0.000000 0.000000 0.015121
# 2 -0.014617 0.041151 -0.004526 0.000000 0.000000 -0.015121
# 3 -0.004526 -0.004526 0.012148 0.000000 0.000000 0.000000
# 4 0.000000 0.000000 0.000000 0.040469 0.000000 0.000000
# 5 0.000000 0.000000 0.000000 0.000000 0.040469 0.000000
# 6 0.015121 -0.015121 0.000000 0.000000 0.000000 0.041996
#
#
# Mechanical properties :
#
#
# Convention : Reuss Voigt Hill
#
# Bulk Modulus (GPa) = 21.22660 27.22303 24.22482
# Shear Modulus (GPa) = 17.83008 23.61162 20.72085
#
# Velocity S-wave (km/s) = 3.12566 3.59690 3.36953
# Velocity P-wave (km/s) = 4.96560 5.67157 5.33029
#
# Compressibility (1/GPa) = 0.04711070
#
# Stress axis : x y z
#
# Youngs Moduli (GPa) = 24.30094 24.30094 82.31933
#
# Poissons Ratio (x) = 0.35520 0.37259
# Poissons Ratio (y) = 0.35520 0.37259
# Poissons Ratio (z) = 0.10999 0.10999
#
# Static dielectric constant tensor:
#      x y z
#    x 1.651530 0.000000 0.000000 
#    y 0.000000 1.651530 0.000000 
#    z 0.000000 0.000000 1.645970 
# 
# From -- ./inp_files/1659.got.cif
#   From: 2010.05.17/outbox.ucp.g08.bks.cvg/sg87_1_cif.got.tgz:1659.got - 2010.06.11 10:35:24.
