data_PCOD9546399
_publ_section_title
;
Structure prediction by ZEFSAII (Michael W. Deem and Ramdas Pophale) SiO2 
 PCOD9546399
Probable space group: I 41/A
;
_chemical_formula_sum "Si O2"
_cell_formula_units_Z 104
_cell_length_a 16.427896
_cell_length_b 16.427896
_cell_length_c 17.606035
_cell_angle_alpha 90.000000
_cell_angle_beta 90.000000
_cell_angle_gamma 90.000000
_cell_volume 4751.442199
_symmetry_space_group_name_H-M "I 41/A"
_symmetry_group_IT_number 88
_space_group.IT_coordinate_system_code '2'
_symmetry_cell_setting 'tetragonal'
loop_
_space_group_symop_operation_xyz
x,y,z
3/4-y,1/4+x,1/4+z
-x,1/2-y,z
1/4+y,1/4-x,1/4+z
-x,-y,-z
1/4+y,3/4-x,3/4-z
x,1/2+y,-z
3/4-y,3/4+x,3/4-z
1/2+x,1/2+y,1/2+z
1/4-y,3/4+x,3/4+z
1/2-x,-y,1/2+z
3/4+y,3/4-x,3/4+z
1/2-x,1/2-y,1/2-z
3/4+y,1/4-x,1/4-z
1/2+x,y,1/2-z
1/4-y,1/4+x,1/4-z
loop_
_atom_site_type_symbol
_atom_site_label
_atom_site_fract_x
_atom_site_fract_y
_atom_site_fract_z
Si Si1 0.107632 0.155452 0.845886
Si Si2 0.262171 0.560065 0.808921
Si Si3 0.147605 0.892146 0.434160
Si Si4 0.500000 0.250000 0.544225
Si Si5 0.006279 0.910031 0.793249
Si Si6 0.689842 0.365155 0.333588
Si Si7 0.756759 0.256453 0.607260
O O1 0.146664 0.074851 0.883297
O O2 0.098064 0.141228 0.757121
O O3 0.032510 0.180374 0.898895
O O4 0.172633 0.229072 0.853736
O O5 0.304523 0.474597 0.787805
O O6 0.251001 0.618094 0.736347
O O7 0.178436 0.541476 0.849848
O O8 0.183227 0.820316 0.382437
O O9 0.085365 0.950701 0.390858
O O10 0.575009 0.277633 0.491005
O O11 0.970684 0.932629 0.874982
O O12 0.101733 0.891182 0.800689
O O13 0.989530 0.980196 0.731437
#
# Coordination Sequence:
#
# PCOD9546399 Si02
#       7
#    16  16  16   8  16  16  16
#     4  10  20  41  63  90 126 172 214 259 330 391
#     4  11  23  43  65  92 128 177 207 269 331 384
#     4  11  22  43  64  88 131 166 218 277 315 391
#     4  10  20  41  66  89 136 172 204 268 334 383
#     4  11  23  43  62 104 130 170 221 268 325 402
#     4  12  24  42  69  94 134 172 215 267 332 392
#     4  10  23  39  63  92 127 167 219 265 329 381
#
# _framework density 21.888090999999999
#
# number of rings (size 3 to 8) (size 9 to 14) (size 15 to 20)
#    0.000    1.231    6.154    1.385    2.154    2.154 
#    2.769    1.538    0.000    0.000    0.000    0.000 
#    0.000    0.000    0.000    0.000    0.000    0.000 
#
# Total GULP energy -290603.290709 kJ/mol
# GULP energy per Si atom -5588.524821 kJ/mol
# Density = 2.183827 g / cm^3
# Si number density = 21.888091 Si / 1000 Ang^3
#
#
#
# Elastic Constant Matrix: (Units=GPa)
#
#
# Indices 1 2 3 4 5 6 
#
# 1 42.1520 10.6744 3.0166 0.0000 0.0000 -13.2152
# 2 10.6744 42.1520 3.0166 0.0000 0.0000 13.2152
# 3 3.0166 3.0166 63.0272 0.0000 0.0000 0.0000
# 4 0.0000 0.0000 0.0000 30.8008 0.0000 0.0000
# 5 0.0000 0.0000 0.0000 0.0000 30.8008 0.0000
# 6 -13.2152 13.2152 0.0000 0.0000 0.0000 15.9466
#
#
#
# Elastic Compliance Matrix: (Units=1/GPa)
#
#
# Indices 1 2 3 4 5 6 
#
# 1 0.061739 -0.042705 -0.000911 0.000000 0.000000 0.086554
# 2 -0.042705 0.061739 -0.000911 0.000000 0.000000 -0.086554
# 3 -0.000911 -0.000911 0.015953 0.000000 0.000000 0.000000
# 4 0.000000 0.000000 0.000000 0.032467 0.000000 0.000000
# 5 0.000000 0.000000 0.000000 0.000000 0.032467 0.000000
# 6 0.086554 -0.086554 0.000000 0.000000 0.000000 0.206167
#
#
# Mechanical properties :
#
#
# Convention : Reuss Voigt Hill
#
# Bulk Modulus (GPa) = 19.85019 20.08292 19.96655
# Shear Modulus (GPa) = 9.68283 24.21790 16.95037
#
# Velocity S-wave (km/s) = 2.10556 3.32993 2.78584
# Velocity P-wave (km/s) = 3.87296 4.89691 4.41473
#
# Compressibility (1/GPa) = 0.05037735
#
# Stress axis : x y z
#
# Youngs Moduli (GPa) = 16.19721 16.19721 62.68269
#
# Poissons Ratio (x) = 0.69170 0.05710
# Poissons Ratio (y) = 0.69170 0.05710
# Poissons Ratio (z) = 0.01476 0.01476
#
# Static dielectric constant tensor:
#      x y z
#    x 1.816170 0.000000 0.000000 
#    y 0.000000 1.816170 0.000000 
#    z 0.000000 0.000000 1.822800 
# 
# From -- ./inp_files/3977.got.cif
#   From: 2010.05.17/outbox.cif.g08.bks.cpg/sg88_2_cif.got.tgz:3977.got - 2010.06.03 19:11:41.
