data_PCOD9546286
_publ_section_title
;
Structure prediction by ZEFSAII (Michael W. Deem and Ramdas Pophale) SiO2 
 PCOD9546286
Probable space group: I 41/A
;
_chemical_formula_sum "Si O2"
_cell_formula_units_Z 64
_cell_length_a 10.269071
_cell_length_b 10.269071
_cell_length_c 26.588315
_cell_angle_alpha 90.000000
_cell_angle_beta 90.000000
_cell_angle_gamma 90.000000
_cell_volume 2803.839363
_symmetry_space_group_name_H-M "I 41/A"
_symmetry_group_IT_number 88
_space_group.IT_coordinate_system_code '2'
_symmetry_cell_setting 'tetragonal'
loop_
_space_group_symop_operation_xyz
x,y,z
3/4-y,1/4+x,1/4+z
-x,1/2-y,z
1/4+y,1/4-x,1/4+z
-x,-y,-z
1/4+y,3/4-x,3/4-z
x,1/2+y,-z
3/4-y,3/4+x,3/4-z
1/2+x,1/2+y,1/2+z
1/4-y,3/4+x,3/4+z
1/2-x,-y,1/2+z
3/4+y,3/4-x,3/4+z
1/2-x,1/2-y,1/2-z
3/4+y,1/4-x,1/4-z
1/2+x,y,1/2-z
1/4-y,1/4+x,1/4-z
loop_
_atom_site_type_symbol
_atom_site_label
_atom_site_fract_x
_atom_site_fract_y
_atom_site_fract_z
Si Si1 0.579165 0.878936 0.853612
Si Si2 0.701784 0.048566 0.697181
Si Si3 0.265216 0.706188 0.500707
Si Si4 0.993409 0.570508 0.946471
O O1 0.500000 0.750000 0.868070
O O2 0.603235 0.971919 0.901039
O O3 0.513553 0.933584 0.802755
O O4 0.723521 0.831357 0.839983
O O5 0.819330 0.049036 0.736884
O O6 0.564566 0.074577 0.724286
O O7 0.685780 0.895494 0.680518
O O8 0.388596 0.683118 0.538682
O O9 0.000000 0.500000 0.000000
#
# Coordination Sequence:
#
# PCOD9546286 Si02
#       4
#    16  16  16  16
#     4  12  22  39  64 100 140 177 228 286 345 414
#     4  11  24  36  69  97 133 183 223 287 344 411
#     4  11  21  44  64 100 142 177 228 288 347 403
#     4  10  19  36  61  95 132 177 215 286 344 391
#
# _framework density 22.825842999999999
#
# number of rings (size 3 to 8) (size 9 to 14) (size 15 to 20)
#    0.000    1.000   10.000    0.750    3.500    0.000 
#    0.000    1.250    0.000    0.000    0.000    0.000 
#    0.000    0.000    0.000    0.000    0.000    0.000 
#
# Total GULP energy -178329.134963 kJ/mol
# GULP energy per Si atom -5572.785468 kJ/mol
# Density = 2.277389 g / cm^3
# Si number density = 22.825843 Si / 1000 Ang^3
#
#
#
# Elastic Constant Matrix: (Units=GPa)
#
#
# Indices 1 2 3 4 5 6 
#
# 1 50.0634 5.5517 29.6874 0.0000 0.0000 7.1604
# 2 5.5517 50.0634 29.6874 0.0000 0.0000 -7.1604
# 3 29.6874 29.6874 55.3632 0.0000 0.0000 0.0000
# 4 0.0000 0.0000 0.0000 28.4500 0.0000 0.0000
# 5 0.0000 0.0000 0.0000 0.0000 28.4500 0.0000
# 6 7.1604 -7.1604 0.0000 0.0000 0.0000 20.2310
#
#
#
# Elastic Compliance Matrix: (Units=1/GPa)
#
#
# Indices 1 2 3 4 5 6 
#
# 1 0.033706 0.008353 -0.022553 0.000000 0.000000 -0.008973
# 2 0.008353 0.033706 -0.022553 0.000000 0.000000 0.008973
# 3 -0.022553 -0.022553 0.042249 0.000000 0.000000 0.000000
# 4 0.000000 0.000000 0.000000 0.035149 0.000000 0.000000
# 5 0.000000 0.000000 0.000000 0.000000 0.035149 0.000000
# 6 -0.008973 0.008973 0.000000 0.000000 0.000000 0.055781
#
#
# Mechanical properties :
#
#
# Convention : Reuss Voigt Hill
#
# Bulk Modulus (GPa) = 27.65904 31.70476 29.68190
# Shear Modulus (GPa) = 15.56190 21.46378 18.51284
#
# Velocity S-wave (km/s) = 2.61390 3.06980 2.85098
# Velocity P-wave (km/s) = 4.61017 5.14635 4.88562
#
# Compressibility (1/GPa) = 0.03615454
#
# Stress axis : x y z
#
# Youngs Moduli (GPa) = 29.66871 29.66871 23.66899
#
# Poissons Ratio (x) = -0.24781 0.53380
# Poissons Ratio (y) = -0.24781 0.53380
# Poissons Ratio (z) = 0.66911 0.66911
#
# Static dielectric constant tensor:
#      x y z
#    x 1.910600 0.000000 0.000000 
#    y 0.000000 1.910600 0.000000 
#    z 0.000000 0.000000 2.623190 
# 
# From -- ./inp_files/5624.got.cif
#   From: 2010.05.17/outbox.cif.g08.bks.cpg/sg88_3_cif.got.tgz:5624.got - 2010.06.03 19:11:41.
