data_PCOD9546832
_publ_section_title
;
Structure prediction by ZEFSAII (Michael W. Deem and Ramdas Pophale) SiO2 
 PCOD9546832
Probable space group: I 41/A
;
_chemical_formula_sum "Si O2"
_cell_formula_units_Z 48
_cell_length_a 19.116384
_cell_length_b 19.116384
_cell_length_c 5.103817
_cell_angle_alpha 90.000000
_cell_angle_beta 90.000000
_cell_angle_gamma 90.000000
_cell_volume 1865.119170
_symmetry_space_group_name_H-M "I 41/A"
_symmetry_group_IT_number 88
_space_group.IT_coordinate_system_code '2'
_symmetry_cell_setting 'tetragonal'
loop_
_space_group_symop_operation_xyz
x,y,z
3/4-y,1/4+x,1/4+z
-x,1/2-y,z
1/4+y,1/4-x,1/4+z
-x,-y,-z
1/4+y,3/4-x,3/4-z
x,1/2+y,-z
3/4-y,3/4+x,3/4-z
1/2+x,1/2+y,1/2+z
1/4-y,3/4+x,3/4+z
1/2-x,-y,1/2+z
3/4+y,3/4-x,3/4+z
1/2-x,1/2-y,1/2-z
3/4+y,1/4-x,1/4-z
1/2+x,y,1/2-z
1/4-y,1/4+x,1/4-z
loop_
_atom_site_type_symbol
_atom_site_label
_atom_site_fract_x
_atom_site_fract_y
_atom_site_fract_z
Si Si1 0.944743 0.846160 0.422221
Si Si2 0.842977 0.451276 0.890782
Si Si3 0.539180 0.031948 0.252770
O O1 0.913149 0.769818 0.465037
O O2 0.892130 0.895245 0.257989
O O3 0.962351 0.885746 0.691365
O O4 0.769482 0.417905 0.965814
O O5 0.880584 0.477964 0.158293
O O6 0.500000 0.000000 0.500000
O O7 0.500000 0.000000 0.000000
#
# Coordination Sequence:
#
# PCOD9546832 Si02
#       3
#    16  16  16
#     4  11  28  53  86 127 175 234 299 368 451 544
#     4  12  31  51  86 131 178 235 303 375 459 546
#     4  12  27  52  85 119 169 224 283 363 441 522
#
# _framework density 25.735620999999998
#
# number of rings (size 3 to 8) (size 9 to 14) (size 15 to 20)
#    0.000    0.333    3.333    2.000    9.333    2.667 
#    0.000    3.333    0.000    0.000    0.000    0.000 
#    0.000    0.000    0.000    0.000    0.000    0.000 
#
# Total GULP energy -134462.217820 kJ/mol
# GULP energy per Si atom -5602.592409 kJ/mol
# Density = 2.567705 g / cm^3
# Si number density = 25.735621 Si / 1000 Ang^3
#
#
#
# Elastic Constant Matrix: (Units=GPa)
#
#
# Indices 1 2 3 4 5 6 
#
# 1 204.4129 114.1106 89.9293 0.0000 0.0000 -0.3030
# 2 114.1106 204.4129 89.9293 0.0000 0.0000 0.3030
# 3 89.9293 89.9293 191.0059 0.0000 0.0000 0.0000
# 4 0.0000 0.0000 0.0000 35.0952 0.0000 0.0000
# 5 0.0000 0.0000 0.0000 0.0000 35.0952 0.0000
# 6 -0.3030 0.3030 0.0000 0.0000 0.0000 62.8595
#
#
#
# Elastic Compliance Matrix: (Units=1/GPa)
#
#
# Indices 1 2 3 4 5 6 
#
# 1 0.007675 -0.003399 -0.002013 0.000000 0.000000 0.000053
# 2 -0.003399 0.007675 -0.002013 0.000000 0.000000 -0.000053
# 3 -0.002013 -0.002013 0.007131 0.000000 0.000000 0.000000
# 4 0.000000 0.000000 0.000000 0.028494 0.000000 0.000000
# 5 0.000000 0.000000 0.000000 0.000000 0.028494 0.000000
# 6 0.000053 -0.000053 0.000000 0.000000 0.000000 0.015909
#
#
# Mechanical properties :
#
#
# Convention : Reuss Voigt Hill
#
# Bulk Modulus (GPa) = 131.05325 131.97448 131.51386
# Shear Modulus (GPa) = 44.33654 47.00082 45.66868
#
# Velocity S-wave (km/s) = 4.15513 4.27815 4.21709
# Velocity P-wave (km/s) = 8.60544 8.70607 8.65590
#
# Compressibility (1/GPa) = 0.00763049
#
# Stress axis : x y z
#
# Youngs Moduli (GPa) = 130.28757 130.28757 140.22612
#
# Poissons Ratio (x) = 0.44284 0.28233
# Poissons Ratio (y) = 0.44284 0.28233
# Poissons Ratio (z) = 0.26232 0.26232
#
# Static dielectric constant tensor:
#      x y z
#    x 2.067630 0.000000 0.000000 
#    y 0.000000 2.067630 0.000000 
#    z 0.000000 0.000000 2.100960 
# 
# From -- ./inp_files/375.got.cif
#   From: 2010.05.17/outbox.cif.g08.bks.cpg/sg88_1_cif.got.tgz:375.got - 2010.06.03 19:11:41.
