data_PCOD9546567
_publ_section_title
;
Structure prediction by ZEFSAII (Michael W. Deem and Ramdas Pophale) SiO2 
 PCOD9546567
Probable space group: I 41/A
;
_chemical_formula_sum "Si O2"
_cell_formula_units_Z 88
_cell_length_a 12.376774
_cell_length_b 12.376774
_cell_length_c 28.007560
_cell_angle_alpha 90.000000
_cell_angle_beta 90.000000
_cell_angle_gamma 90.000000
_cell_volume 4290.325045
_symmetry_space_group_name_H-M "I 41/A"
_symmetry_group_IT_number 88
_space_group.IT_coordinate_system_code '2'
_symmetry_cell_setting 'tetragonal'
loop_
_space_group_symop_operation_xyz
x,y,z
3/4-y,1/4+x,1/4+z
-x,1/2-y,z
1/4+y,1/4-x,1/4+z
-x,-y,-z
1/4+y,3/4-x,3/4-z
x,1/2+y,-z
3/4-y,3/4+x,3/4-z
1/2+x,1/2+y,1/2+z
1/4-y,3/4+x,3/4+z
1/2-x,-y,1/2+z
3/4+y,3/4-x,3/4+z
1/2-x,1/2-y,1/2-z
3/4+y,1/4-x,1/4-z
1/2+x,y,1/2-z
1/4-y,1/4+x,1/4-z
loop_
_atom_site_type_symbol
_atom_site_label
_atom_site_fract_x
_atom_site_fract_y
_atom_site_fract_z
Si Si1 0.686298 0.001557 0.614754
Si Si2 0.330393 0.299563 0.118835
Si Si3 0.000000 0.750000 0.049505
Si Si4 0.545273 0.643993 0.977706
Si Si5 0.248239 0.082466 0.795100
Si Si6 0.188934 0.367009 0.258727
O O1 0.732457 0.882713 0.621315
O O2 0.569170 0.030843 0.635485
O O3 0.764153 0.075205 0.647842
O O4 0.670681 0.024669 0.558939
O O5 0.409486 0.300332 0.164995
O O6 0.401422 0.328994 0.073063
O O7 0.084509 0.685935 0.016844
O O8 0.500000 0.750000 0.002126
O O9 0.437403 0.574960 0.966812
O O10 0.637713 0.597930 0.011674
O O11 0.206546 0.963581 0.778900
O O12 0.250000 0.250000 0.250000
#
# Coordination Sequence:
#
# PCOD9546567 Si02
#       6
#    16  16   8  16  16  16
#     4  11  23  41  67  97 138 173 235 288 352 429
#     4  11  21  42  66  95 133 186 225 288 358 423
#     4  10  22  40  66  93 138 182 229 284 370 414
#     4  11  21  41  68  93 132 181 230 283 354 430
#     4  11  23  39  69 100 129 180 233 286 355 430
#     4  11  24  43  65 102 138 180 233 294 355 435
#
# _framework density 20.511267
#
# number of rings (size 3 to 8) (size 9 to 14) (size 15 to 20)
#    0.000    1.091    4.545    3.273    0.000    4.727 
#    0.000    0.000    0.000    0.000    0.000    0.000 
#    0.000    0.000    0.000    0.000    0.000    0.000 
#
# Total GULP energy -245226.136610 kJ/mol
# GULP energy per Si atom -5573.321287 kJ/mol
# Density = 2.046458 g / cm^3
# Si number density = 20.511267 Si / 1000 Ang^3
#
#
#
# Elastic Constant Matrix: (Units=GPa)
#
#
# Indices 1 2 3 4 5 6 
#
# 1 75.3973 52.2313 29.9993 0.0000 0.0000 -4.3407
# 2 52.2313 75.3973 29.9993 0.0000 0.0000 4.3407
# 3 29.9993 29.9993 107.6524 0.0000 0.0000 0.0000
# 4 0.0000 0.0000 0.0000 1051.5451 0.0000 0.0000
# 5 0.0000 0.0000 0.0000 0.0000 1051.5452 0.0000
# 6 -4.3407 4.3407 0.0000 0.0000 0.0000 31.3273
#
#
#
# Elastic Compliance Matrix: (Units=1/GPa)
#
#
# Indices 1 2 3 4 5 6 
#
# 1 0.027274 -0.018257 -0.002513 0.000000 0.000000 0.006309
# 2 -0.018257 0.027274 -0.002513 0.000000 0.000000 -0.006309
# 3 -0.002513 -0.002513 0.010690 0.000000 0.000000 0.000000
# 4 0.000000 0.000000 0.000000 0.000951 0.000000 0.000000
# 5 0.000000 0.000000 0.000000 0.000000 0.000951 0.000000
# 6 0.006309 -0.006309 0.000000 0.000000 0.000000 0.033669
#
#
# Mechanical properties :
#
#
# Convention : Reuss Voigt Hill
#
# Bulk Modulus (GPa) = 53.55617 53.65631 53.60624
# Shear Modulus (GPa) = 32.55276 436.63134 234.59205
#
# Velocity S-wave (km/s) = 3.98812 14.60603 10.70610
# Velocity P-wave (km/s) = 6.88289 17.62567 13.37981
#
# Compressibility (1/GPa) = 0.01867199
#
# Stress axis : x y z
#
# Youngs Moduli (GPa) = 36.66544 36.66544 93.54969
#
# Poissons Ratio (x) = 0.66941 0.23505
# Poissons Ratio (y) = 0.66941 0.23505
# Poissons Ratio (z) = 0.09213 0.09213
#
# Static dielectric constant tensor:
#      x y z
#    x 1.844470 0.000000 0.000000 
#    y 0.000000 1.844470 0.000000 
#    z 0.000000 0.000000 1.790070 
# 
# From -- ./inp_files/6431.got.cif
#   From: 2010.05.17/outbox.cif.g08.bks.cpg/sg88_4_cif.got.tgz:6431.got - 2010.06.03 19:11:41.
