data_PCOD9546972
_publ_section_title
;
Structure prediction by ZEFSAII (Michael W. Deem and Ramdas Pophale) SiO2 
 PCOD9546972
Probable space group: P 4 2 2
;
_chemical_formula_sum "Si O2"
_cell_formula_units_Z 48
_cell_length_a 8.624317
_cell_length_b 8.624317
_cell_length_c 33.020562
_cell_angle_alpha 90.000000
_cell_angle_beta 90.000000
_cell_angle_gamma 90.000000
_cell_volume 2456.031220
_symmetry_space_group_name_H-M "P 4 2 2"
_symmetry_group_IT_number 89
_symmetry_cell_setting 'tetragonal'
loop_
_space_group_symop_operation_xyz
x,y,z
-y,x,z
-x,-y,z
y,-x,z
x,-y,-z
-x,y,-z
y,x,-z
-y,-x,-z
loop_
_atom_site_type_symbol
_atom_site_label
_atom_site_fract_x
_atom_site_fract_y
_atom_site_fract_z
Si Si1 0.329770 0.301951 0.543269
Si Si2 0.212852 0.851476 0.375428
Si Si3 0.256183 0.595302 0.790667
Si Si4 0.132203 0.229241 0.285735
Si Si5 0.254779 0.939715 0.140348
Si Si6 0.242660 0.500000 0.000000
Si Si7 0.000000 0.500000 0.928875
O O1 0.515767 0.291028 0.543686
O O2 0.254163 0.254163 0.500000
O O3 0.282616 0.215712 0.583834
O O4 0.282146 0.818534 0.330997
O O5 0.036684 0.792736 0.376051
O O6 0.306179 0.416252 0.795258
O O7 0.190089 0.649577 0.747373
O O8 0.125506 0.639345 0.823426
O O9 0.945620 0.203292 0.281259
O O10 0.109594 0.821609 0.142453
O O11 0.358577 0.949375 0.100076
O O12 0.351133 0.351133 0.000000
O O13 0.140841 0.478097 0.959873
#
# Coordination Sequence:
#
# PCOD9546972 Si02
#       7
#     8   8   8   8   8   4   4
#     4   9  19  35  52  72 102 139 178 223 278 343
#     4   9  19  35  54  78 107 138 177 228 285 346
#     4  11  24  39  56  83 118 154 196 248 303 358
#     4   9  19  37  58  79 107 145 188 235 291 355
#     4  11  23  39  61  88 119 158 202 248 299 353
#     4  10  22  40  64  94 128 166 204 248 304 358
#     4  11  22  40  64  92 126 162 206 252 296 357
#
# _framework density 19.543724000000001
#
# number of rings (size 3 to 8) (size 9 to 14) (size 15 to 20)
#    0.000    2.083    0.000    4.500    0.000    6.000 
#    0.000    9.167    0.000    4.000    0.000    0.000 
#    0.000    0.000    0.000    0.000    0.000    0.000 
#
# Total GULP energy -267568.678332 kJ/mol
# GULP energy per Si atom -5574.347465 kJ/mol
# Density = 1.949924 g / cm^3
# Si number density = 19.543724 Si / 1000 Ang^3
#
#
#
# Elastic Constant Matrix: (Units=GPa)
#
#
# Indices 1 2 3 4 5 6 
#
# 1 52.9409 47.8240 64.5554 0.0000 0.0000 0.0000
# 2 47.8240 52.9409 64.5554 0.0000 0.0000 0.0000
# 3 64.5554 64.5554 189.2056 0.0000 0.0000 0.0000
# 4 0.0000 0.0000 0.0000 52.2530 0.0000 0.0000
# 5 0.0000 0.0000 0.0000 0.0000 52.2530 0.0000
# 6 0.0000 0.0000 0.0000 0.0000 0.0000 26.2567
#
#
#
# Elastic Compliance Matrix: (Units=1/GPa)
#
#
# Indices 1 2 3 4 5 6 
#
# 1 0.106533 -0.088900 -0.006016 0.000000 0.000000 0.000000
# 2 -0.088900 0.106533 -0.006016 0.000000 0.000000 0.000000
# 3 -0.006016 -0.006016 0.009391 0.000000 0.000000 0.000000
# 4 0.000000 0.000000 0.000000 0.019138 0.000000 0.000000
# 5 0.000000 0.000000 0.000000 0.000000 0.019138 0.000000
# 6 0.000000 0.000000 0.000000 0.000000 0.000000 0.038086
#
#
# Mechanical properties :
#
#
# Convention : Reuss Voigt Hill
#
# Bulk Modulus (GPa) = 48.56420 72.10635 60.33528
# Shear Modulus (GPa) = 9.85134 34.02936 21.94035
#
# Velocity S-wave (km/s) = 2.24758 4.17729 3.35420
# Velocity P-wave (km/s) = 5.62480 7.76152 6.77789
#
# Compressibility (1/GPa) = 0.02059130
#
# Stress axis : x y z
#
# Youngs Moduli (GPa) = 9.38679 9.38679 106.49019
#
# Poissons Ratio (x) = 0.83449 0.64065
# Poissons Ratio (y) = 0.83449 0.64065
# Poissons Ratio (z) = 0.05647 0.05647
#
# Static dielectric constant tensor:
#      x y z
#    x 1.681340 0.000000 0.000000 
#    y 0.000000 1.681340 0.000000 
#    z 0.000000 0.000000 1.694890 
# 
# From -- ./inp_files/3033.got.cif
#   From: 2010.05.17/outbox.cif.g08.bks.cpg/sg89_2_cif.got.tgz:3033.got - 2010.06.03 19:15:31.
