data_PCOD9546675
_publ_section_title
;
Structure prediction by ZEFSAII (Michael W. Deem and Ramdas Pophale) SiO2 
 PCOD9546675
Probable space group: I 41/A
;
_chemical_formula_sum "Si O2"
_cell_formula_units_Z 56
_cell_length_a 14.403707
_cell_length_b 14.403707
_cell_length_c 12.671807
_cell_angle_alpha 90.000000
_cell_angle_beta 90.000000
_cell_angle_gamma 90.000000
_cell_volume 2628.978936
_symmetry_space_group_name_H-M "I 41/A"
_symmetry_group_IT_number 88
_space_group.IT_coordinate_system_code '2'
_symmetry_cell_setting 'tetragonal'
loop_
_space_group_symop_operation_xyz
x,y,z
3/4-y,1/4+x,1/4+z
-x,1/2-y,z
1/4+y,1/4-x,1/4+z
-x,-y,-z
1/4+y,3/4-x,3/4-z
x,1/2+y,-z
3/4-y,3/4+x,3/4-z
1/2+x,1/2+y,1/2+z
1/4-y,3/4+x,3/4+z
1/2-x,-y,1/2+z
3/4+y,3/4-x,3/4+z
1/2-x,1/2-y,1/2-z
3/4+y,1/4-x,1/4-z
1/2+x,y,1/2-z
1/4-y,1/4+x,1/4-z
loop_
_atom_site_type_symbol
_atom_site_label
_atom_site_fract_x
_atom_site_fract_y
_atom_site_fract_z
Si Si1 0.834334 0.532368 0.722142
Si Si2 0.922558 0.079169 0.494645
Si Si3 0.921184 0.062036 0.054200
Si Si4 0.500000 0.250000 0.375000
Si Si5 0.000000 0.750000 0.375000
O O1 0.886831 0.582448 0.626053
O O2 0.815083 0.425447 0.695433
O O3 0.901644 0.542483 0.822195
O O4 0.734576 0.579354 0.745884
O O5 0.965245 0.169408 0.547723
O O6 0.000000 0.000000 0.500000
O O7 0.950360 0.169832 0.054634
O O8 0.000000 0.000000 0.000000
#
# Coordination Sequence:
#
# PCOD9546675 Si02
#       5
#    16  16  16   4   4
#     4  10  24  47  69 106 153 189 245 315 375 443
#     4  11  23  48  71 107 146 190 248 307 375 445
#     4  11  23  48  71 107 149 194 249 302 376 447
#     4  12  24  46  76 108 148 198 256 306 368 456
#     4  12  24  46  80 112 146 204 260 310 384 456
#
# _framework density 21.301047000000001
#
# number of rings (size 3 to 8) (size 9 to 14) (size 15 to 20)
#    0.000    1.143    5.714    0.000    0.000    1.143 
#   20.571    0.000    0.000    0.000    0.000    0.000 
#    0.000    0.000    0.000    0.000    0.000    0.000 
#
# Total GULP energy -156046.767983 kJ/mol
# GULP energy per Si atom -5573.098857 kJ/mol
# Density = 2.125256 g / cm^3
# Si number density = 21.301047 Si / 1000 Ang^3
#
#
#
# Elastic Constant Matrix: (Units=GPa)
#
#
# Indices 1 2 3 4 5 6 
#
# 1 175.3315 104.7493 38.0582 0.0000 0.0000 -11.2482
# 2 104.7493 175.3315 38.0582 0.0000 0.0000 11.2482
# 3 38.0582 38.0582 115.9049 0.0000 0.0000 0.0000
# 4 0.0000 0.0000 0.0000 27.1972 0.0000 0.0000
# 5 0.0000 0.0000 0.0000 0.0000 27.1972 0.0000
# 6 -11.2482 11.2482 0.0000 0.0000 0.0000 46.1876
#
#
#
# Elastic Compliance Matrix: (Units=1/GPa)
#
#
# Indices 1 2 3 4 5 6 
#
# 1 0.009640 -0.005720 -0.001287 0.000000 0.000000 0.003741
# 2 -0.005720 0.009640 -0.001287 0.000000 0.000000 -0.003741
# 3 -0.001287 -0.001287 0.009473 0.000000 0.000000 0.000000
# 4 0.000000 0.000000 0.000000 0.036768 0.000000 0.000000
# 5 0.000000 0.000000 0.000000 0.000000 0.036768 0.000000
# 6 0.003741 -0.003741 0.000000 0.000000 0.000000 0.023473
#
#
# Mechanical properties :
#
#
# Convention : Reuss Voigt Hill
#
# Bulk Modulus (GPa) = 82.20560 92.03327 87.11943
# Shear Modulus (GPa) = 34.15139 39.16323 36.65731
#
# Velocity S-wave (km/s) = 4.00843 4.29249 4.15289
# Velocity P-wave (km/s) = 7.75238 8.23815 7.99895
#
# Compressibility (1/GPa) = 0.01216462
#
# Stress axis : x y z
#
# Youngs Moduli (GPa) = 103.73249 103.73249 105.56195
#
# Poissons Ratio (x) = 0.59335 0.13588
# Poissons Ratio (y) = 0.59335 0.13588
# Poissons Ratio (z) = 0.13353 0.13353
#
# Static dielectric constant tensor:
#      x y z
#    x 1.813870 0.000000 0.000000 
#    y 0.000000 1.813870 0.000000 
#    z 0.000000 0.000000 1.808410 
# 
# From -- ./inp_files/2262.got.cif
#   From: 2010.05.17/outbox.cif.g08.bks.cpg/sg88_2_cif.got.tgz:2262.got - 2010.06.03 19:11:41.
