data_PCOD9546121
_publ_section_title
;
Structure prediction by ZEFSAII (Michael W. Deem and Ramdas Pophale) SiO2 
 PCOD9546121
Probable space group: I 4/M
;
_chemical_formula_sum "Si O2"
_cell_formula_units_Z 72
_cell_length_a 16.761397
_cell_length_b 16.761397
_cell_length_c 10.799222
_cell_angle_alpha 90.000000
_cell_angle_beta 90.000000
_cell_angle_gamma 90.000000
_cell_volume 3033.981263
_symmetry_space_group_name_H-M "I 4/M"
_symmetry_group_IT_number 87
_symmetry_cell_setting 'tetragonal'
loop_
_space_group_symop_operation_xyz
x,y,z
-y,x,z
-x,-y,z
y,-x,z
-x,-y,-z
y,-x,-z
x,y,-z
-y,x,-z
1/2+x,1/2+y,1/2+z
1/2-y,1/2+x,1/2+z
1/2-x,1/2-y,1/2+z
1/2+y,1/2-x,1/2+z
1/2-x,1/2-y,1/2-z
1/2+y,1/2-x,1/2-z
1/2+x,1/2+y,1/2-z
1/2-y,1/2+x,1/2-z
loop_
_atom_site_type_symbol
_atom_site_label
_atom_site_fract_x
_atom_site_fract_y
_atom_site_fract_z
Si Si1 0.043528 0.624164 0.000000
Si Si2 0.133427 0.454320 0.000000
Si Si3 0.863556 0.786797 0.216047
Si Si4 0.383236 0.540723 0.856056
Si Si5 0.385061 0.800295 0.751312
Si Si6 0.449814 0.375845 0.500000
O O1 0.096233 0.542961 0.000000
O O2 0.069289 0.670030 0.872666
O O3 0.949132 0.599952 0.000000
O O4 0.186540 0.437435 0.876124
O O5 0.912988 0.802605 0.339246
O O6 0.848820 0.694191 0.208866
O O7 0.783885 0.841030 0.219526
O O8 0.923193 0.822706 0.115271
O O9 0.402671 0.453869 0.803946
O O10 0.392120 0.529139 0.000000
O O11 0.541813 0.400157 0.500000
#
# Coordination Sequence:
#
# PCOD9546121 Si02
#       6
#     8   8  16  16  16   8
#     4  11  25  46  69  95 126 166 222 279 329 390
#     4  11  25  46  69  95 126 166 222 279 329 390
#     4  11  24  40  62  92 134 165 211 262 316 383
#     4   9  19  35  56  86 123 160 200 247 297 357
#     4  11  26  43  66  96 132 171 212 269 336 388
#     4  11  24  42  66  96 132 178 222 263 318 390
#
# _framework density 23.731193000000001
#
# number of rings (size 3 to 8) (size 9 to 14) (size 15 to 20)
#    0.000    1.444    0.000    4.667    3.111   14.222 
#    0.000    0.000    0.000    0.000    0.000    0.000 
#    0.000    0.000    0.000    0.000    0.000    0.000 
#
# Total GULP energy -200900.589275 kJ/mol
# GULP energy per Si atom -5580.571924 kJ/mol
# Density = 2.367718 g / cm^3
# Si number density = 23.731193 Si / 1000 Ang^3
#
#
#
# Elastic Constant Matrix: (Units=GPa)
#
#
# Indices 1 2 3 4 5 6 
#
# 1 18.5594 41.1847 7.1822 0.0000 0.0000 0.0650
# 2 41.1847 18.5594 7.1822 0.0000 0.0000 -0.0650
# 3 7.1822 7.1822 127.7201 0.0000 0.0000 0.0000
# 4 0.0000 0.0000 0.0000 45.8104 0.0000 0.0000
# 5 0.0000 0.0000 0.0000 0.0000 45.8104 0.0000
# 6 0.0650 -0.0650 0.0000 0.0000 0.0000 45.4490
#
#
#
# Elastic Compliance Matrix: (Units=1/GPa)
#
#
# Indices 1 2 3 4 5 6 
#
# 1 -0.013615 0.030583 -0.000954 0.000000 0.000000 0.000063
# 2 0.030583 -0.013615 -0.000954 0.000000 0.000000 -0.000063
# 3 -0.000954 -0.000954 0.007937 0.000000 0.000000 0.000000
# 4 0.000000 0.000000 0.000000 0.021829 0.000000 0.000000
# 5 0.000000 0.000000 0.000000 0.000000 0.021829 0.000000
# 6 0.000063 -0.000063 0.000000 0.000000 0.000000 0.022003
#
#
# Mechanical properties :
#
#
# Convention : Reuss Voigt Hill
#
# Bulk Modulus (GPa) = 26.27761 30.65972 28.46866
# Shear Modulus (GPa) = 2935.32090 34.69992 1485.01041
#
# Velocity S-wave (km/s) = 35.20780 3.82803 25.04239
# Velocity P-wave (km/s) = 40.79072 5.69965 29.12361
#
# Compressibility (1/GPa) = 0.03805521
#
# Stress axis : x y z
#
# Youngs Moduli (GPa) = -73.44692 -73.44692 125.99325
#
# Poissons Ratio (x) = 2.24621 0.12022
# Poissons Ratio (y) = 2.24621 0.12022
# Poissons Ratio (z) = -0.07008 -0.07008
#
# Static dielectric constant tensor:
#      x y z
#    x 1.691910 0.000000 0.000000 
#    y 0.000000 1.691910 0.000000 
#    z 0.000000 0.000000 1.728170 
# 
# From -- ./inp_files/2503.got.cif
#   From: 2010.05.17/outbox.cif.g08.bks.cpg/sg87_2_cif.got.tgz:2503.got - 2010.06.03 19:07:00.
