data_PCOD9546336
_publ_section_title
;
Structure prediction by ZEFSAII (Michael W. Deem and Ramdas Pophale) SiO2 
 PCOD9546336
Probable space group: I 41/A
;
_chemical_formula_sum "Si O2"
_cell_formula_units_Z 80
_cell_length_a 27.124523
_cell_length_b 27.124523
_cell_length_c 5.210873
_cell_angle_alpha 90.000000
_cell_angle_beta 90.000000
_cell_angle_gamma 90.000000
_cell_volume 3833.846388
_symmetry_space_group_name_H-M "I 41/A"
_symmetry_group_IT_number 88
_space_group.IT_coordinate_system_code '2'
_symmetry_cell_setting 'tetragonal'
loop_
_space_group_symop_operation_xyz
x,y,z
3/4-y,1/4+x,1/4+z
-x,1/2-y,z
1/4+y,1/4-x,1/4+z
-x,-y,-z
1/4+y,3/4-x,3/4-z
x,1/2+y,-z
3/4-y,3/4+x,3/4-z
1/2+x,1/2+y,1/2+z
1/4-y,3/4+x,3/4+z
1/2-x,-y,1/2+z
3/4+y,3/4-x,3/4+z
1/2-x,1/2-y,1/2-z
3/4+y,1/4-x,1/4-z
1/2+x,y,1/2-z
1/4-y,1/4+x,1/4-z
loop_
_atom_site_type_symbol
_atom_site_label
_atom_site_fract_x
_atom_site_fract_y
_atom_site_fract_z
Si Si1 0.857116 0.084041 0.526167
Si Si2 0.567603 0.341671 0.189420
Si Si3 0.285492 0.815665 0.908755
Si Si4 0.104427 0.509463 0.349605
Si Si5 0.116984 0.739611 0.561240
O O1 0.897427 0.111628 0.353457
O O2 0.886242 0.070353 0.787110
O O3 0.811442 0.119246 0.569378
O O4 0.851492 0.030710 0.395103
O O5 0.600161 0.294213 0.127433
O O6 0.544623 0.342063 0.470783
O O7 0.525954 0.348203 0.970096
O O8 0.256516 0.823378 0.647673
O O9 0.324278 0.770954 0.919680
O O10 0.248275 0.819980 0.150115
#
# Coordination Sequence:
#
# PCOD9546336 Si02
#       5
#    16  16  16  16  16
#     4   9  22  38  58  85 114 157 186 240 290 343
#     4  11  23  38  64  83 122 151 194 240 297 348
#     4   9  20  37  53  80 119 149 181 248 270 346
#     4  10  20  35  61  78 119 147 195 228 296 333
#     4  11  21  40  58  88 117 155 189 245 293 345
#
# _framework density 20.866771
#
# number of rings (size 3 to 8) (size 9 to 14) (size 15 to 20)
#    1.200    0.800    2.000    1.200    2.800    2.400 
#    3.600    2.000    0.000    0.000    0.000    0.000 
#    0.000    0.000    0.000    0.000    0.000    0.000 
#
# Total GULP energy -223042.178396 kJ/mol
# GULP energy per Si atom -5576.054460 kJ/mol
# Density = 2.081928 g / cm^3
# Si number density = 20.866771 Si / 1000 Ang^3
#
#
#
# Elastic Constant Matrix: (Units=GPa)
#
#
# Indices 1 2 3 4 5 6 
#
# 1 82.3222 -46.5075 1.7255 0.0000 0.0000 14.0465
# 2 -46.5075 82.3222 1.7255 0.0000 0.0000 -14.0465
# 3 1.7255 1.7255 105.8457 0.0000 0.0000 0.0000
# 4 0.0000 0.0000 0.0000 12.0950 0.0000 0.0000
# 5 0.0000 0.0000 0.0000 0.0000 12.0950 0.0000
# 6 14.0465 -14.0465 0.0000 0.0000 0.0000 14.2043
#
#
#
# Elastic Compliance Matrix: (Units=1/GPa)
#
#
# Indices 1 2 3 4 5 6 
#
# 1 0.018931 0.009035 -0.000456 0.000000 0.000000 -0.009786
# 2 0.009035 0.018931 -0.000456 0.000000 0.000000 0.009786
# 3 -0.000456 -0.000456 0.009463 0.000000 0.000000 0.000000
# 4 0.000000 0.000000 0.000000 0.082679 0.000000 0.000000
# 5 0.000000 0.000000 0.000000 0.000000 0.082679 0.000000
# 6 -0.009786 0.009786 0.000000 0.000000 0.000000 0.089756
#
#
# Mechanical properties :
#
#
# Convention : Reuss Voigt Hill
#
# Bulk Modulus (GPa) = 15.73073 20.48634 18.10853
# Shear Modulus (GPa) = 16.26643 28.58199 22.42421
#
# Velocity S-wave (km/s) = 2.79505 3.70501 3.28172
# Velocity P-wave (km/s) = 4.23927 5.30489 4.80173
#
# Compressibility (1/GPa) = 0.06356985
#
# Stress axis : x y z
#
# Youngs Moduli (GPa) = 52.82395 52.82395 105.67943
#
# Poissons Ratio (x) = -0.47724 0.04818
# Poissons Ratio (y) = -0.47724 0.04818
# Poissons Ratio (z) = 0.02408 0.02408
#
# Static dielectric constant tensor:
#      x y z
#    x 1.750890 0.000000 0.000000 
#    y 0.000000 1.750890 0.000000 
#    z 0.000000 0.000000 1.761530 
# 
# From -- ./inp_files/700.got.cif
#   From: 2010.05.17/outbox.cif.g08.bks.cpg/sg88_1_cif.got.tgz:700.got - 2010.06.03 19:11:41.
