data_PCOD9546372
_publ_section_title
;
Structure prediction by ZEFSAII (Michael W. Deem and Ramdas Pophale) SiO2 
 PCOD9546372
Probable space group: I 41/A
;
_chemical_formula_sum "Si O2"
_cell_formula_units_Z 72
_cell_length_a 10.439690
_cell_length_b 10.439690
_cell_length_c 27.684364
_cell_angle_alpha 90.000000
_cell_angle_beta 90.000000
_cell_angle_gamma 90.000000
_cell_volume 3017.239303
_symmetry_space_group_name_H-M "I 41/A"
_symmetry_group_IT_number 88
_space_group.IT_coordinate_system_code '2'
_symmetry_cell_setting 'tetragonal'
loop_
_space_group_symop_operation_xyz
x,y,z
3/4-y,1/4+x,1/4+z
-x,1/2-y,z
1/4+y,1/4-x,1/4+z
-x,-y,-z
1/4+y,3/4-x,3/4-z
x,1/2+y,-z
3/4-y,3/4+x,3/4-z
1/2+x,1/2+y,1/2+z
1/4-y,3/4+x,3/4+z
1/2-x,-y,1/2+z
3/4+y,3/4-x,3/4+z
1/2-x,1/2-y,1/2-z
3/4+y,1/4-x,1/4-z
1/2+x,y,1/2-z
1/4-y,1/4+x,1/4-z
loop_
_atom_site_type_symbol
_atom_site_label
_atom_site_fract_x
_atom_site_fract_y
_atom_site_fract_z
Si Si1 0.374630 0.588017 0.512941
Si Si2 0.340356 0.967020 0.393629
Si Si3 0.687282 0.097369 0.711516
Si Si4 0.000000 0.750000 0.057819
Si Si5 0.923321 0.627377 0.440807
O O1 0.500000 0.500000 0.500000
O O2 0.363461 0.587379 0.570784
O O3 0.246593 0.527401 0.491908
O O4 0.391287 0.712512 0.480542
O O5 0.350523 0.979211 0.336475
O O6 0.446661 0.862947 0.409457
O O7 0.200167 0.911205 0.408955
O O8 0.759216 0.226521 0.694269
O O9 0.589538 0.133913 0.753663
O O10 0.000000 0.750000 0.423360
#
# Coordination Sequence:
#
# PCOD9546372 Si02
#       5
#    16  16  16   8  16
#     4   9  20  41  58  84 119 158 203 255 307 379
#     4  10  22  37  62  91 121 166 208 262 315 385
#     4  10  22  38  58  92 120 158 208 255 318 381
#     4  10  20  38  64  83 122 166 207 254 326 372
#     4  10  22  37  58  88 130 157 200 261 316 379
#
# _framework density 23.862874000000001
#
# number of rings (size 3 to 8) (size 9 to 14) (size 15 to 20)
#    0.000    2.222    0.000    1.333    7.778    0.000 
#    0.000   13.333    0.000    5.333    0.000    0.000 
#    0.000    0.000    0.000    0.000    0.000    0.000 
#
# Total GULP energy -200956.582601 kJ/mol
# GULP energy per Si atom -5582.127294 kJ/mol
# Density = 2.380856 g / cm^3
# Si number density = 23.862874 Si / 1000 Ang^3
#
#
#
# Elastic Constant Matrix: (Units=GPa)
#
#
# Indices 1 2 3 4 5 6 
#
# 1 40.7550 1.1709 -8.0863 0.0000 0.0000 -0.0476
# 2 1.1709 40.7550 -8.0863 0.0000 0.0000 0.0476
# 3 -8.0863 -8.0863 179.9020 0.0000 0.0000 0.0000
# 4 0.0000 0.0000 0.0000 -16.1662 0.0000 0.0000
# 5 0.0000 0.0000 0.0000 0.0000 -16.1662 0.0000
# 6 -0.0476 0.0476 0.0000 0.0000 0.0000 35.9128
#
#
#
# Elastic Compliance Matrix: (Units=1/GPa)
#
#
# Indices 1 2 3 4 5 6 
#
# 1 0.024768 -0.000495 0.001091 0.000000 0.000000 0.000033
# 2 -0.000495 0.024768 0.001091 0.000000 0.000000 -0.000033
# 3 0.001091 0.001091 0.005657 0.000000 0.000000 0.000000
# 4 0.000000 0.000000 0.000000 -0.061858 0.000000 0.000000
# 5 0.000000 0.000000 0.000000 0.000000 -0.061858 0.000000
# 6 0.000033 -0.000033 0.000000 0.000000 0.000000 0.027845
#
#
# Mechanical properties :
#
#
# Convention : Reuss Voigt Hill
#
# Bulk Modulus (GPa) = 17.07489 25.71209 21.39349
# Shear Modulus (GPa) = -203.83433 19.14367 -92.34533
#
# Velocity S-wave (km/s) = -9.25227 2.83545 -6.22755
# Velocity P-wave (km/s) = 10.34255 4.63875 6.53645
#
# Compressibility (1/GPa) = 0.05856552
#
# Stress axis : x y z
#
# Youngs Moduli (GPa) = 40.37532 40.37532 176.78282
#
# Poissons Ratio (x) = 0.01999 -0.19287
# Poissons Ratio (y) = 0.01999 -0.19287
# Poissons Ratio (z) = -0.04405 -0.04405
#
# Static dielectric constant tensor:
#      x y z
#    x 1.963610 0.000000 0.000000 
#    y 0.000000 1.963610 0.000000 
#    z 0.000000 0.000000 1.931710 
# 
# From -- ./inp_files/5705.got.cif
#   From: 2010.05.17/outbox.cif.g08.bks.cpg/sg88_3_cif.got.tgz:5705.got - 2010.06.03 19:11:41.
