data_PCOD9546451
_publ_section_title
;
Structure prediction by ZEFSAII (Michael W. Deem and Ramdas Pophale) SiO2 
 PCOD9546451
Probable space group: I 41/A
;
_chemical_formula_sum "Si O2"
_cell_formula_units_Z 80
_cell_length_a 15.201273
_cell_length_b 15.201273
_cell_length_c 18.021474
_cell_angle_alpha 90.000000
_cell_angle_beta 90.000000
_cell_angle_gamma 90.000000
_cell_volume 4164.378799
_symmetry_space_group_name_H-M "I 41/A"
_symmetry_group_IT_number 88
_space_group.IT_coordinate_system_code '2'
_symmetry_cell_setting 'tetragonal'
loop_
_space_group_symop_operation_xyz
x,y,z
3/4-y,1/4+x,1/4+z
-x,1/2-y,z
1/4+y,1/4-x,1/4+z
-x,-y,-z
1/4+y,3/4-x,3/4-z
x,1/2+y,-z
3/4-y,3/4+x,3/4-z
1/2+x,1/2+y,1/2+z
1/4-y,3/4+x,3/4+z
1/2-x,-y,1/2+z
3/4+y,3/4-x,3/4+z
1/2-x,1/2-y,1/2-z
3/4+y,1/4-x,1/4-z
1/2+x,y,1/2-z
1/4-y,1/4+x,1/4-z
loop_
_atom_site_type_symbol
_atom_site_label
_atom_site_fract_x
_atom_site_fract_y
_atom_site_fract_z
Si Si1 0.875809 0.757261 0.701988
Si Si2 0.068040 0.938832 0.897207
Si Si3 0.883145 0.956009 0.657227
Si Si4 0.059052 0.427607 0.275012
Si Si5 0.742970 0.501441 0.707309
O O1 0.875829 0.781352 0.789709
O O2 0.781732 0.720107 0.675102
O O3 0.882407 0.849869 0.660719
O O4 0.063134 0.827881 0.693637
O O5 0.041299 0.922331 0.813085
O O6 0.173705 0.946986 0.905353
O O7 0.844050 0.986397 0.579328
O O8 0.981525 0.979263 0.683216
O O9 0.812952 0.991154 0.717617
O O10 0.155515 0.470471 0.283217
#
# Coordination Sequence:
#
# PCOD9546451 Si02
#       5
#    16  16  16  16  16
#     4   9  20  32  52  85 121 151 193 233 300 371
#     4   9  18  33  53  81 120 155 181 236 294 361
#     4  11  21  37  58  82 117 160 193 244 304 349
#     4  11  21  34  58  88 118 154 201 243 294 363
#     4  10  21  38  57  83 116 152 196 239 296 353
#
# _framework density 19.210549
#
# number of rings (size 3 to 8) (size 9 to 14) (size 15 to 20)
#    0.000    2.000    2.000    3.000    5.600    0.000 
#    0.000    1.000    0.000    0.600    0.000    0.000 
#    0.000    0.000    0.000    0.000    0.000    0.000 
#
# Total GULP energy -223081.746050 kJ/mol
# GULP energy per Si atom -5577.043651 kJ/mol
# Density = 1.916683 g / cm^3
# Si number density = 19.210549 Si / 1000 Ang^3
#
#
#
# Elastic Constant Matrix: (Units=GPa)
#
#
# Indices 1 2 3 4 5 6 
#
# 1 84.8858 21.2027 21.5483 0.0000 0.0000 -9.6756
# 2 21.2027 84.8858 21.5483 0.0000 0.0000 9.6756
# 3 21.5483 21.5483 37.7318 0.0000 0.0000 0.0000
# 4 0.0000 0.0000 0.0000 17.2774 0.0000 0.0000
# 5 0.0000 0.0000 0.0000 0.0000 17.2774 0.0000
# 6 -9.6756 9.6756 0.0000 0.0000 0.0000 19.6507
#
#
#
# Elastic Compliance Matrix: (Units=1/GPa)
#
#
# Indices 1 2 3 4 5 6 
#
# 1 0.015370 -0.003096 -0.007009 0.000000 0.000000 0.009092
# 2 -0.003096 0.015370 -0.007009 0.000000 0.000000 -0.009092
# 3 -0.007009 -0.007009 0.034509 0.000000 0.000000 0.000000
# 4 0.000000 0.000000 0.000000 0.057879 0.000000 0.000000
# 5 0.000000 0.000000 0.000000 0.000000 0.057879 0.000000
# 6 0.009092 -0.009092 0.000000 0.000000 0.000000 0.059842
#
#
# Mechanical properties :
#
#
# Convention : Reuss Voigt Hill
#
# Bulk Modulus (GPa) = 32.23876 37.34467 34.79171
# Shear Modulus (GPa) = 17.51825 20.38804 18.95315
#
# Velocity S-wave (km/s) = 3.02306 3.26129 3.14443
# Velocity P-wave (km/s) = 5.38548 5.80200 5.59761
#
# Compressibility (1/GPa) = 0.03101856
#
# Stress axis : x y z
#
# Youngs Moduli (GPa) = 65.06389 65.06389 28.97819
#
# Poissons Ratio (x) = 0.20144 0.20312
# Poissons Ratio (y) = 0.20144 0.20312
# Poissons Ratio (z) = 0.45605 0.45605
#
# Static dielectric constant tensor:
#      x y z
#    x 1.710810 0.000000 0.000000 
#    y 0.000000 1.710810 0.000000 
#    z 0.000000 0.000000 1.663450 
# 
# From -- ./inp_files/4520.got.cif
#   From: 2010.05.17/outbox.cif.g08.bks.cpg/sg88_3_cif.got.tgz:4520.got - 2010.06.03 19:11:41.
