data_PCOD9546582
_publ_section_title
;
Structure prediction by ZEFSAII (Michael W. Deem and Ramdas Pophale) SiO2 
 PCOD9546582
Probable space group: I 41/A
;
_chemical_formula_sum "Si O2"
_cell_formula_units_Z 96
_cell_length_a 14.981112
_cell_length_b 14.981112
_cell_length_c 18.943437
_cell_angle_alpha 90.000000
_cell_angle_beta 90.000000
_cell_angle_gamma 90.000000
_cell_volume 4251.545974
_symmetry_space_group_name_H-M "I 41/A"
_symmetry_group_IT_number 88
_space_group.IT_coordinate_system_code '2'
_symmetry_cell_setting 'tetragonal'
loop_
_space_group_symop_operation_xyz
x,y,z
3/4-y,1/4+x,1/4+z
-x,1/2-y,z
1/4+y,1/4-x,1/4+z
-x,-y,-z
1/4+y,3/4-x,3/4-z
x,1/2+y,-z
3/4-y,3/4+x,3/4-z
1/2+x,1/2+y,1/2+z
1/4-y,3/4+x,3/4+z
1/2-x,-y,1/2+z
3/4+y,3/4-x,3/4+z
1/2-x,1/2-y,1/2-z
3/4+y,1/4-x,1/4-z
1/2+x,y,1/2-z
1/4-y,1/4+x,1/4-z
loop_
_atom_site_type_symbol
_atom_site_label
_atom_site_fract_x
_atom_site_fract_y
_atom_site_fract_z
Si Si1 0.595297 0.763756 0.786076
Si Si2 0.054356 0.614620 0.890906
Si Si3 0.081530 0.427381 0.836203
Si Si4 0.806291 0.843603 0.102807
Si Si5 0.565096 0.991230 0.065475
Si Si6 0.676862 0.862416 0.986984
O O1 0.500000 0.750000 0.748465
O O2 0.658517 0.795067 0.723436
O O3 0.637247 0.689849 0.836007
O O4 0.568192 0.842053 0.839236
O O5 0.114615 0.702170 0.881342
O O6 0.090967 0.533261 0.845429
O O7 0.173926 0.381747 0.813075
O O8 0.990128 0.414156 0.789487
O O9 0.751496 0.753794 0.120285
O O10 0.820220 0.909712 0.170189
O O11 0.769535 0.876659 0.027871
O O12 0.500000 0.000000 0.000000
O O13 0.612158 0.897237 0.050168
#
# Coordination Sequence:
#
# PCOD9546582 Si02
#       6
#    16  16  16  16  16  16
#     4  11  20  39  65  92 128 183 221 274 354 429
#     4  11  23  40  63  98 138 175 226 286 356 431
#     4  11  24  41  68  98 136 182 231 288 349 417
#     4  10  22  42  66  96 136 175 228 286 348 416
#     4  10  23  43  66  96 134 181 231 282 349 417
#     4  10  24  41  67 101 135 181 234 289 350 423
#
# _framework density 22.580022
#
# number of rings (size 3 to 8) (size 9 to 14) (size 15 to 20)
#    0.000    1.500    3.333    1.500    0.000    6.667 
#    0.000    1.667    0.000    0.000    0.000    0.000 
#    0.000    0.000    0.000    0.000    0.000    0.000 
#
# Total GULP energy -267271.877872 kJ/mol
# GULP energy per Si atom -5568.164122 kJ/mol
# Density = 2.252863 g / cm^3
# Si number density = 22.580022 Si / 1000 Ang^3
#
#
#
# Elastic Constant Matrix: (Units=GPa)
#
#
# Indices 1 2 3 4 5 6 
#
# 1 74.1134 41.8451 33.1460 0.0000 0.0000 6.6124
# 2 41.8451 74.1134 33.1460 0.0000 0.0000 -6.6124
# 3 33.1460 33.1460 95.9698 0.0000 0.0000 0.0000
# 4 0.0000 0.0000 0.0000 32.6111 0.0000 0.0000
# 5 0.0000 0.0000 0.0000 0.0000 32.6111 0.0000
# 6 6.6124 -6.6124 0.0000 0.0000 0.0000 25.1276
#
#
#
# Elastic Compliance Matrix: (Units=1/GPa)
#
#
# Indices 1 2 3 4 5 6 
#
# 1 0.022741 -0.011996 -0.003711 0.000000 0.000000 -0.009141
# 2 -0.011996 0.022741 -0.003711 0.000000 0.000000 0.009141
# 3 -0.003711 -0.003711 0.012984 0.000000 0.000000 0.000000
# 4 0.000000 0.000000 0.000000 0.030664 0.000000 0.000000
# 5 0.000000 0.000000 0.000000 0.000000 0.030664 0.000000
# 6 -0.009141 0.009141 0.000000 0.000000 0.000000 0.044608
#
#
# Mechanical properties :
#
#
# Convention : Reuss Voigt Hill
#
# Bulk Modulus (GPa) = 50.94396 51.16340 51.05368
# Shear Modulus (GPa) = 23.83435 27.14061 25.48748
#
# Velocity S-wave (km/s) = 3.25245 3.47071 3.36335
# Velocity P-wave (km/s) = 6.05930 6.22648 6.14345
#
# Compressibility (1/GPa) = 0.01962941
#
# Stress axis : x y z
#
# Youngs Moduli (GPa) = 43.97348 43.97348 77.02065
#
# Poissons Ratio (x) = 0.52748 0.28584
# Poissons Ratio (y) = 0.52748 0.28584
# Poissons Ratio (z) = 0.16320 0.16320
#
# Static dielectric constant tensor:
#      x y z
#    x 3.335820 0.000000 0.000000 
#    y 0.000000 3.335820 0.000000 
#    z 0.000000 0.000000 1.913850 
# 
# From -- ./inp_files/4710.got.cif
#   From: 2010.05.17/outbox.cif.g08.bks.cpg/sg88_3_cif.got.tgz:4710.got - 2010.06.03 19:11:41.
