data_PCOD9546628
_publ_section_title
;
Structure prediction by ZEFSAII (Michael W. Deem and Ramdas Pophale) SiO2 
 PCOD9546628
Probable space group: I 41/A
;
_chemical_formula_sum "Si O2"
_cell_formula_units_Z 56
_cell_length_a 11.357082
_cell_length_b 11.357082
_cell_length_c 18.173123
_cell_angle_alpha 90.000000
_cell_angle_beta 90.000000
_cell_angle_gamma 90.000000
_cell_volume 2344.029586
_symmetry_space_group_name_H-M "I 41/A"
_symmetry_group_IT_number 88
_space_group.IT_coordinate_system_code '2'
_symmetry_cell_setting 'tetragonal'
loop_
_space_group_symop_operation_xyz
x,y,z
3/4-y,1/4+x,1/4+z
-x,1/2-y,z
1/4+y,1/4-x,1/4+z
-x,-y,-z
1/4+y,3/4-x,3/4-z
x,1/2+y,-z
3/4-y,3/4+x,3/4-z
1/2+x,1/2+y,1/2+z
1/4-y,3/4+x,3/4+z
1/2-x,-y,1/2+z
3/4+y,3/4-x,3/4+z
1/2-x,1/2-y,1/2-z
3/4+y,1/4-x,1/4-z
1/2+x,y,1/2-z
1/4-y,1/4+x,1/4-z
loop_
_atom_site_type_symbol
_atom_site_label
_atom_site_fract_x
_atom_site_fract_y
_atom_site_fract_z
Si Si1 0.000000 0.250000 0.420819
Si Si2 0.082963 0.943201 0.684655
Si Si3 0.207452 0.889829 0.151041
Si Si4 0.636169 0.341022 0.339231
O O1 0.911642 0.169842 0.370803
O O2 0.920393 0.356345 0.453131
O O3 0.079891 0.888721 0.765001
O O4 0.964239 0.000006 0.652482
O O5 0.185980 0.039050 0.685723
O O6 0.141732 0.985825 0.101202
O O7 0.633907 0.200348 0.345305
#
# Coordination Sequence:
#
# PCOD9546628 Si02
#       4
#     8  16  16  16
#     4   8  20  40  67 104 152 187 264 306 378 462
#     4  10  23  45  72 109 155 190 257 312 385 466
#     4  10  23  42  72 102 153 204 243 327 371 454
#     4  11  24  41  76 114 143 197 251 327 393 437
#
# _framework density 23.890483
#
# number of rings (size 3 to 8) (size 9 to 14) (size 15 to 20)
#    1.714    0.286    0.000    3.429    4.000    2.857 
#    0.000    1.429    6.286    0.000    0.000    0.000 
#    0.000    0.000    0.000    0.000    0.000    0.000 
#
# Total GULP energy -156029.012842 kJ/mol
# GULP energy per Si atom -5572.464744 kJ/mol
# Density = 2.383611 g / cm^3
# Si number density = 23.890483 Si / 1000 Ang^3
#
#
#
# Elastic Constant Matrix: (Units=GPa)
#
#
# Indices 1 2 3 4 5 6 
#
# 1 142.1711 50.4188 20.1016 0.0000 0.0000 11.1842
# 2 50.4188 142.1711 20.1016 0.0000 0.0000 -11.1842
# 3 20.1016 20.1016 16.9417 0.0000 0.0000 0.0000
# 4 0.0000 0.0000 0.0000 38.4057 0.0000 0.0000
# 5 0.0000 0.0000 0.0000 0.0000 38.4057 0.0000
# 6 11.1842 -11.1842 0.0000 0.0000 0.0000 71.2230
#
#
#
# Elastic Compliance Matrix: (Units=1/GPa)
#
#
# Indices 1 2 3 4 5 6 
#
# 1 0.009117 -0.002215 -0.008189 0.000000 0.000000 -0.001780
# 2 -0.002215 0.009117 -0.008189 0.000000 0.000000 0.001780
# 3 -0.008189 -0.008189 0.078459 0.000000 0.000000 0.000000
# 4 0.000000 0.000000 0.000000 0.026038 0.000000 0.000000
# 5 0.000000 0.000000 0.000000 0.000000 0.026038 0.000000
# 6 -0.001780 0.001780 0.000000 0.000000 0.000000 0.014599
#
#
# Mechanical properties :
#
#
# Convention : Reuss Voigt Hill
#
# Bulk Modulus (GPa) = 16.80499 53.61420 35.20960
# Shear Modulus (GPa) = 22.68689 43.65102 33.16895
#
# Velocity S-wave (km/s) = 3.08493 4.27913 3.73013
# Velocity P-wave (km/s) = 4.44281 6.84872 5.77250
#
# Compressibility (1/GPa) = 0.05950613
#
# Stress axis : x y z
#
# Youngs Moduli (GPa) = 109.68135 109.68135 12.74549
#
# Poissons Ratio (x) = 0.24299 0.10438
# Poissons Ratio (y) = 0.24299 0.10438
# Poissons Ratio (z) = 0.89820 0.89820
#
# Static dielectric constant tensor:
#      x y z
#    x 1.977570 0.000000 0.000000 
#    y 0.000000 1.977570 0.000000 
#    z 0.000000 0.000000 1.866900 
# 
# From -- ./inp_files/4322.got.cif
#   From: 2010.05.17/outbox.cif.g08.bks.cpg/sg88_3_cif.got.tgz:4322.got - 2010.06.03 19:11:41.
