data_PCOD9546129
_publ_section_title
;
Structure prediction by ZEFSAII (Michael W. Deem and Ramdas Pophale) SiO2 
 PCOD9546129
Probable space group: I 4/M
;
_chemical_formula_sum "Si O2"
_cell_formula_units_Z 88
_cell_length_a 11.372098
_cell_length_b 11.372098
_cell_length_c 31.677292
_cell_angle_alpha 90.000000
_cell_angle_beta 90.000000
_cell_angle_gamma 90.000000
_cell_volume 4096.653526
_symmetry_space_group_name_H-M "I 4/M"
_symmetry_group_IT_number 87
_symmetry_cell_setting 'tetragonal'
loop_
_space_group_symop_operation_xyz
x,y,z
-y,x,z
-x,-y,z
y,-x,z
-x,-y,-z
y,-x,-z
x,y,-z
-y,x,-z
1/2+x,1/2+y,1/2+z
1/2-y,1/2+x,1/2+z
1/2-x,1/2-y,1/2+z
1/2+y,1/2-x,1/2+z
1/2-x,1/2-y,1/2-z
1/2+y,1/2-x,1/2-z
1/2+x,1/2+y,1/2-z
1/2-y,1/2+x,1/2-z
loop_
_atom_site_type_symbol
_atom_site_label
_atom_site_fract_x
_atom_site_fract_y
_atom_site_fract_z
Si Si1 0.638053 0.976090 0.801418
Si Si2 0.863794 0.287500 0.590158
Si Si3 0.514314 0.311499 0.770005
Si Si4 0.085329 0.820416 0.500000
Si Si5 0.438612 0.311441 0.366058
Si Si6 0.739328 0.081786 0.643902
O O1 0.690738 0.968965 0.754603
O O2 0.649450 0.854200 0.826960
O O3 0.500000 0.000000 0.804375
O O4 0.722953 0.067416 0.825920
O O5 0.881764 0.248775 0.542300
O O6 0.772211 0.393429 0.596499
O O7 0.812713 0.174742 0.616398
O O8 0.989000 0.317174 0.611504
O O9 0.621030 0.395563 0.757103
O O10 0.498566 0.302230 0.820284
O O11 0.946436 0.849429 0.500000
O O12 0.571410 0.360056 0.366589
#
# Coordination Sequence:
#
# PCOD9546129 Si02
#       6
#    16  16  16   8  16  16
#     4  12  26  42  66 102 140 192 250 308 362 431
#     4  12  24  46  73 111 151 192 246 310 382 456
#     4  11  26  44  65  97 143 199 248 306 362 432
#     4  11  24  42  76 117 156 198 241 307 389 472
#     4  11  24  46  75 104 142 197 246 304 376 443
#     4  12  25  41  70 104 151 193 249 306 375 446
#
# _framework density 21.480947
#
# number of rings (size 3 to 8) (size 9 to 14) (size 15 to 20)
#    0.000    0.455    7.273    1.091    2.545    2.545 
#    0.000    0.909    0.000    3.273    0.000    0.000 
#    0.000    0.000    0.000    0.000    0.000    0.000 
#
# Total GULP energy -245927.895334 kJ/mol
# GULP energy per Si atom -5589.270348 kJ/mol
# Density = 2.143206 g / cm^3
# Si number density = 21.480947 Si / 1000 Ang^3
#
#
#
# Elastic Constant Matrix: (Units=GPa)
#
#
# Indices 1 2 3 4 5 6 
#
# 1 91.9039 32.8565 39.6157 0.0000 0.0000 8.9264
# 2 32.8565 91.9039 39.6157 0.0000 0.0000 -8.9264
# 3 39.6157 39.6157 144.9175 0.0000 0.0000 0.0000
# 4 0.0000 0.0000 0.0000 35.3007 0.0000 0.0000
# 5 0.0000 0.0000 0.0000 0.0000 35.3007 0.0000
# 6 8.9264 -8.9264 0.0000 0.0000 0.0000 31.3779
#
#
#
# Elastic Compliance Matrix: (Units=1/GPa)
#
#
# Indices 1 2 3 4 5 6 
#
# 1 0.014114 -0.004415 -0.002651 0.000000 0.000000 -0.005271
# 2 -0.004415 0.014114 -0.002651 0.000000 0.000000 0.005271
# 3 -0.002651 -0.002651 0.008350 0.000000 0.000000 0.000000
# 4 0.000000 0.000000 0.000000 0.028328 0.000000 0.000000
# 5 0.000000 0.000000 0.000000 0.000000 0.028328 0.000000
# 6 -0.005271 0.005271 0.000000 0.000000 0.000000 0.034869
#
#
# Mechanical properties :
#
#
# Convention : Reuss Voigt Hill
#
# Bulk Modulus (GPa) = 58.33365 61.43343 59.88354
# Shear Modulus (GPa) = 32.62570 34.83837 33.73204
#
# Velocity S-wave (km/s) = 3.90143 4.03156 3.96703
# Velocity P-wave (km/s) = 6.89274 7.09453 6.99436
#
# Compressibility (1/GPa) = 0.01714276
#
# Stress axis : x y z
#
# Youngs Moduli (GPa) = 70.85041 70.85041 119.75887
#
# Poissons Ratio (x) = 0.31281 0.31753
# Poissons Ratio (y) = 0.31281 0.31753
# Poissons Ratio (z) = 0.18786 0.18786
#
# Static dielectric constant tensor:
#      x y z
#    x 1.844540 0.000000 0.000000 
#    y 0.000000 1.844540 0.000000 
#    z 0.000000 0.000000 1.761990 
# 
# From -- ./inp_files/6586.got.cif
#   From: 2010.05.17/outbox.cif.g08.bks.cpg/sg87_4_cif.got.tgz:6586.got - 2010.06.03 19:07:00.
