data_PCOD9546680
_publ_section_title
;
Structure prediction by ZEFSAII (Michael W. Deem and Ramdas Pophale) SiO2 
 PCOD9546680
Probable space group: I 41/A
;
_chemical_formula_sum "Si O2"
_cell_formula_units_Z 64
_cell_length_a 13.969199
_cell_length_b 13.969199
_cell_length_c 15.439703
_cell_angle_alpha 90.000000
_cell_angle_beta 90.000000
_cell_angle_gamma 90.000000
_cell_volume 3012.880803
_symmetry_space_group_name_H-M "I 41/A"
_symmetry_group_IT_number 88
_space_group.IT_coordinate_system_code '2'
_symmetry_cell_setting 'tetragonal'
loop_
_space_group_symop_operation_xyz
x,y,z
3/4-y,1/4+x,1/4+z
-x,1/2-y,z
1/4+y,1/4-x,1/4+z
-x,-y,-z
1/4+y,3/4-x,3/4-z
x,1/2+y,-z
3/4-y,3/4+x,3/4-z
1/2+x,1/2+y,1/2+z
1/4-y,3/4+x,3/4+z
1/2-x,-y,1/2+z
3/4+y,3/4-x,3/4+z
1/2-x,1/2-y,1/2-z
3/4+y,1/4-x,1/4-z
1/2+x,y,1/2-z
1/4-y,1/4+x,1/4-z
loop_
_atom_site_type_symbol
_atom_site_label
_atom_site_fract_x
_atom_site_fract_y
_atom_site_fract_z
Si Si1 0.572074 0.978996 0.579087
Si Si2 0.073779 0.408888 0.401678
Si Si3 0.887195 0.717706 0.979948
Si Si4 0.625497 0.284173 0.826925
O O1 0.524185 0.925169 0.660029
O O2 0.634397 0.893568 0.538049
O O3 0.500000 0.000000 0.500000
O O4 0.617622 0.076016 0.616015
O O5 0.082483 0.521713 0.419124
O O6 0.998169 0.391205 0.325613
O O7 0.027055 0.366878 0.488958
O O8 0.000000 0.750000 0.970882
O O9 0.457376 0.139424 0.845474
#
# Coordination Sequence:
#
# PCOD9546680 Si02
#       4
#    16  16  16  16
#     4  12  23  42  72 101 147 190 238 307 365 449
#     4  11  25  45  72 107 140 194 248 301 372 448
#     4  12  23  44  68 106 146 186 242 304 379 432
#     4  10  24  48  73  99 146 190 242 303 370 449
#
# _framework density 21.242128000000001
#
# number of rings (size 3 to 8) (size 9 to 14) (size 15 to 20)
#    0.000    0.750    5.000    1.500    3.500    2.000 
#   18.000    0.000    0.000    0.000    0.000    0.000 
#    0.000    0.000    0.000    0.000    0.000    0.000 
#
# Total GULP energy -178688.582800 kJ/mol
# GULP energy per Si atom -5584.018212 kJ/mol
# Density = 2.119378 g / cm^3
# Si number density = 21.242128 Si / 1000 Ang^3
#
#
#
# Elastic Constant Matrix: (Units=GPa)
#
#
# Indices 1 2 3 4 5 6 
#
# 1 100.0074 33.3180 58.8976 0.0000 0.0000 -6.5478
# 2 33.3180 100.0074 58.8976 0.0000 0.0000 6.5478
# 3 58.8976 58.8976 144.2103 0.0000 0.0000 0.0000
# 4 0.0000 0.0000 0.0000 29.1114 0.0000 0.0000
# 5 0.0000 0.0000 0.0000 0.0000 29.1114 0.0000
# 6 -6.5478 6.5478 0.0000 0.0000 0.0000 26.9713
#
#
#
# Elastic Compliance Matrix: (Units=1/GPa)
#
#
# Indices 1 2 3 4 5 6 
#
# 1 0.013740 -0.002005 -0.004793 0.000000 0.000000 0.003823
# 2 -0.002005 0.013740 -0.004793 0.000000 0.000000 -0.003823
# 3 -0.004793 -0.004793 0.010849 0.000000 0.000000 0.000000
# 4 0.000000 0.000000 0.000000 0.034351 0.000000 0.000000
# 5 0.000000 0.000000 0.000000 0.000000 0.034351 0.000000
# 6 0.003823 -0.003823 0.000000 0.000000 0.000000 0.038932
#
#
# Mechanical properties :
#
#
# Convention : Reuss Voigt Hill
#
# Bulk Modulus (GPa) = 66.01490 71.82795 68.92143
# Shear Modulus (GPa) = 28.70357 29.91293 29.30825
#
# Velocity S-wave (km/s) = 3.67993 3.75666 3.71849
# Velocity P-wave (km/s) = 7.01432 7.25975 7.13809
#
# Compressibility (1/GPa) = 0.01514809
#
# Stress axis : x y z
#
# Youngs Moduli (GPa) = 72.77923 72.77923 92.17323
#
# Poissons Ratio (x) = 0.14595 0.44176
# Poissons Ratio (y) = 0.14595 0.44176
# Poissons Ratio (z) = 0.34881 0.34881
#
# Static dielectric constant tensor:
#      x y z
#    x 1.850770 0.000000 0.000000 
#    y 0.000000 1.850770 0.000000 
#    z 0.000000 0.000000 1.748680 
# 
# From -- ./inp_files/3063.got.cif
#   From: 2010.05.17/outbox.cif.g08.bks.cpg/sg88_2_cif.got.tgz:3063.got - 2010.06.03 19:11:41.
