data_PCOD9546260
_publ_section_title
;
Structure prediction by ZEFSAII (Michael W. Deem and Ramdas Pophale) SiO2 
 PCOD9546260
Probable space group: I 41/A
;
_chemical_formula_sum "Si O2"
_cell_formula_units_Z 48
_cell_length_a 8.584077
_cell_length_b 8.584077
_cell_length_c 30.151523
_cell_angle_alpha 90.000000
_cell_angle_beta 90.000000
_cell_angle_gamma 90.000000
_cell_volume 2221.756519
_symmetry_space_group_name_H-M "I 41/A"
_symmetry_group_IT_number 88
_space_group.IT_coordinate_system_code '2'
_symmetry_cell_setting 'tetragonal'
loop_
_space_group_symop_operation_xyz
x,y,z
3/4-y,1/4+x,1/4+z
-x,1/2-y,z
1/4+y,1/4-x,1/4+z
-x,-y,-z
1/4+y,3/4-x,3/4-z
x,1/2+y,-z
3/4-y,3/4+x,3/4-z
1/2+x,1/2+y,1/2+z
1/4-y,3/4+x,3/4+z
1/2-x,-y,1/2+z
3/4+y,3/4-x,3/4+z
1/2-x,1/2-y,1/2-z
3/4+y,1/4-x,1/4-z
1/2+x,y,1/2-z
1/4-y,1/4+x,1/4-z
loop_
_atom_site_type_symbol
_atom_site_label
_atom_site_fract_x
_atom_site_fract_y
_atom_site_fract_z
Si Si1 0.644712 0.529575 0.687773
Si Si2 0.812210 0.578308 0.767501
Si Si3 0.431677 0.085353 0.596667
O O1 0.771066 0.478696 0.724332
O O2 0.488483 0.565813 0.715841
O O3 0.613970 0.412270 0.647797
O O4 0.706365 0.683080 0.661418
O O5 0.750000 0.750000 0.750000
O O6 0.712732 0.548730 0.811916
O O7 0.500000 0.250000 0.582733
#
# Coordination Sequence:
#
# PCOD9546260 Si02
#       3
#    16  16  16
#     4  11  21  37  59  92 126 155 204 254 303 360
#     4  10  19  31  59  90 121 151 196 251 299 353
#     4  11  21  36  60  91 125 160 203 250 306 358
#
# _framework density 21.604526
#
# number of rings (size 3 to 8) (size 9 to 14) (size 15 to 20)
#    0.000    1.333    3.333    8.000    0.000    0.000 
#    0.000    1.667    0.000    1.000    0.000    0.000 
#    0.000    0.000    0.000    0.000    0.000    0.000 
#
# Total GULP energy -133749.434320 kJ/mol
# GULP energy per Si atom -5572.893097 kJ/mol
# Density = 2.155535 g / cm^3
# Si number density = 21.604526 Si / 1000 Ang^3
#
#
#
# Elastic Constant Matrix: (Units=GPa)
#
#
# Indices 1 2 3 4 5 6 
#
# 1 61.4777 -1.9670 30.2713 0.0000 0.0000 -6.3156
# 2 -1.9670 61.4777 30.2713 0.0000 0.0000 6.3156
# 3 30.2713 30.2713 157.7063 0.0000 0.0000 0.0000
# 4 0.0000 0.0000 0.0000 31.8534 0.0000 0.0000
# 5 0.0000 0.0000 0.0000 0.0000 31.8534 0.0000
# 6 -6.3156 6.3156 0.0000 0.0000 0.0000 3.5649
#
#
#
# Elastic Compliance Matrix: (Units=1/GPa)
#
#
# Indices 1 2 3 4 5 6 
#
# 1 0.022616 -0.001734 -0.004008 0.000000 0.000000 0.043139
# 2 -0.001734 0.022616 -0.004008 0.000000 0.000000 -0.043139
# 3 -0.004008 -0.004008 0.007880 0.000000 0.000000 0.000000
# 4 0.000000 0.000000 0.000000 0.031394 0.000000 0.000000
# 5 0.000000 0.000000 0.000000 0.000000 0.031394 0.000000
# 6 0.043139 -0.043139 0.000000 0.000000 0.000000 0.433362
#
#
# Mechanical properties :
#
#
# Convention : Reuss Voigt Hill
#
# Bulk Modulus (GPa) = 29.75326 44.20146 36.97736
# Shear Modulus (GPa) = 8.62120 28.26008 18.44064
#
# Velocity S-wave (km/s) = 1.99978 3.62064 2.92474
# Velocity P-wave (km/s) = 4.37422 6.16299 5.34398
#
# Compressibility (1/GPa) = 0.03360976
#
# Stress axis : x y z
#
# Youngs Moduli (GPa) = 44.21691 44.21690 126.91005
#
# Poissons Ratio (x) = 0.07669 0.50867
# Poissons Ratio (y) = 0.07669 0.50867
# Poissons Ratio (z) = 0.17723 0.17723
#
# Static dielectric constant tensor:
#      x y z
#    x 1.851760 0.000000 0.000000 
#    y 0.000000 1.851760 0.000000 
#    z 0.000000 0.000000 1.918490 
# 
# From -- ./inp_files/6021.got.cif
#   From: 2010.05.17/outbox.cif.g08.bks.cpg/sg88_4_cif.got.tgz:6021.got - 2010.06.03 19:11:41.
