data_PCOD9546431
_publ_section_title
;
Structure prediction by ZEFSAII (Michael W. Deem and Ramdas Pophale) SiO2 
 PCOD9546431
Probable space group: I 41/A
;
_chemical_formula_sum "Si O2"
_cell_formula_units_Z 116
_cell_length_a 16.887110
_cell_length_b 16.887110
_cell_length_c 19.565264
_cell_angle_alpha 90.000000
_cell_angle_beta 90.000000
_cell_angle_gamma 90.000000
_cell_volume 5579.514068
_symmetry_space_group_name_H-M "I 41/A"
_symmetry_group_IT_number 88
_space_group.IT_coordinate_system_code '2'
_symmetry_cell_setting 'tetragonal'
loop_
_space_group_symop_operation_xyz
x,y,z
3/4-y,1/4+x,1/4+z
-x,1/2-y,z
1/4+y,1/4-x,1/4+z
-x,-y,-z
1/4+y,3/4-x,3/4-z
x,1/2+y,-z
3/4-y,3/4+x,3/4-z
1/2+x,1/2+y,1/2+z
1/4-y,3/4+x,3/4+z
1/2-x,-y,1/2+z
3/4+y,3/4-x,3/4+z
1/2-x,1/2-y,1/2-z
3/4+y,1/4-x,1/4-z
1/2+x,y,1/2-z
1/4-y,1/4+x,1/4-z
loop_
_atom_site_type_symbol
_atom_site_label
_atom_site_fract_x
_atom_site_fract_y
_atom_site_fract_z
Si Si1 0.247224 0.078845 0.926233
Si Si2 0.681310 0.040763 0.973694
Si Si3 0.380646 0.794712 0.007602
Si Si4 0.523960 0.459969 0.264867
Si Si5 0.000000 0.750000 0.375000
Si Si6 0.491981 0.660353 0.390298
Si Si7 0.361293 0.891505 0.773117
Si Si8 0.412873 0.996198 0.411945
O O1 0.279163 0.103775 0.852339
O O2 0.181074 0.015382 0.903287
O O3 0.202906 0.147445 0.968866
O O4 0.309742 0.035817 0.977049
O O5 0.630090 0.111787 0.004983
O O6 0.772731 0.071407 0.966512
O O7 0.430552 0.777996 0.074750
O O8 0.292765 0.760368 0.013031
O O9 0.413898 0.750251 0.941205
O O10 0.448838 0.402404 0.258908
O O11 0.549329 0.467561 0.343714
O O12 0.500000 0.750000 0.417445
O O13 0.405290 0.626800 0.407560
O O14 0.549446 0.591431 0.418045
O O15 0.304881 0.836205 0.726354
#
# Coordination Sequence:
#
# PCOD9546431 Si02
#       8
#    16  16  16  16   4  16  16  16
#     4  11  19  38  62  88 121 156 206 257 313 370
#     4  10  21  36  61  89 117 158 209 255 312 370
#     4  10  22  37  59  87 122 163 202 253 308 377
#     4  10  21  40  59  88 127 153 206 259 308 369
#     4  12  20  40  60  84 128 168 202 240 324 380
#     4  11  21  40  61  88 122 159 207 254 310 370
#     4  10  22  40  60  87 120 161 206 257 310 374
#     4  10  22  39  62  90 120 163 200 254 314 371
#
# _framework density 20.790341000000002
#
# number of rings (size 3 to 8) (size 9 to 14) (size 15 to 20)
#    0.000    1.655    2.069    2.897    0.000    1.103 
#    4.966    0.000    0.000    6.621    0.000    0.000 
#    0.000    0.000    0.000    0.000    0.000    0.000 
#
# Total GULP energy -323196.941842 kJ/mol
# GULP energy per Si atom -5572.361066 kJ/mol
# Density = 2.074302 g / cm^3
# Si number density = 20.790341 Si / 1000 Ang^3
#
#
#
# Elastic Constant Matrix: (Units=GPa)
#
#
# Indices 1 2 3 4 5 6 
#
# 1 62.0836 9.4376 35.5201 0.0000 0.0000 4.3732
# 2 9.4376 62.0836 35.5201 0.0000 0.0000 -4.3732
# 3 35.5201 35.5201 104.2587 0.0000 0.0000 0.0000
# 4 0.0000 0.0000 0.0000 17.7886 0.0000 0.0000
# 5 0.0000 0.0000 0.0000 0.0000 17.7886 0.0000
# 6 4.3732 -4.3732 0.0000 0.0000 0.0000 24.2703
#
#
#
# Elastic Compliance Matrix: (Units=1/GPa)
#
#
# Indices 1 2 3 4 5 6 
#
# 1 0.020357 0.000776 -0.007200 0.000000 0.000000 -0.003528
# 2 0.000776 0.020357 -0.007200 0.000000 0.000000 0.003528
# 3 -0.007200 -0.007200 0.014497 0.000000 0.000000 0.000000
# 4 0.000000 0.000000 0.000000 0.056216 0.000000 0.000000
# 5 0.000000 0.000000 0.000000 0.000000 0.056216 0.000000
# 6 -0.003528 0.003528 0.000000 0.000000 0.000000 0.042474
#
#
# Mechanical properties :
#
#
# Convention : Reuss Voigt Hill
#
# Bulk Modulus (GPa) = 35.75978 43.26461 39.51219
# Shear Modulus (GPa) = 20.26864 21.83270 21.05067
#
# Velocity S-wave (km/s) = 3.12574 3.24410 3.18547
# Velocity P-wave (km/s) = 5.50132 5.90655 5.70753
#
# Compressibility (1/GPa) = 0.02796438
#
# Stress axis : x y z
#
# Youngs Moduli (GPa) = 49.12274 49.12273 68.97762
#
# Poissons Ratio (x) = -0.03813 0.49664
# Poissons Ratio (y) = -0.03813 0.49664
# Poissons Ratio (z) = 0.35368 0.35368
#
# Static dielectric constant tensor:
#      x y z
#    x 1.777030 0.000000 0.000000 
#    y 0.000000 1.777030 0.000000 
#    z 0.000000 0.000000 1.732540 
# 
# From -- ./inp_files/4038.got.cif
#   From: 2010.05.17/outbox.cif.g08.bks.cpg/sg88_3_cif.got.tgz:4038.got - 2010.06.03 19:11:41.
