data_PCOD9546271
_publ_section_title
;
Structure prediction by ZEFSAII (Michael W. Deem and Ramdas Pophale) SiO2 
 PCOD9546271
Probable space group: I 41/A
;
_chemical_formula_sum "Si O2"
_cell_formula_units_Z 128
_cell_length_a 24.635754
_cell_length_b 24.635754
_cell_length_c 10.088968
_cell_angle_alpha 90.000000
_cell_angle_beta 90.000000
_cell_angle_gamma 90.000000
_cell_volume 6123.200243
_symmetry_space_group_name_H-M "I 41/A"
_symmetry_group_IT_number 88
_space_group.IT_coordinate_system_code '2'
_symmetry_cell_setting 'tetragonal'
loop_
_space_group_symop_operation_xyz
x,y,z
3/4-y,1/4+x,1/4+z
-x,1/2-y,z
1/4+y,1/4-x,1/4+z
-x,-y,-z
1/4+y,3/4-x,3/4-z
x,1/2+y,-z
3/4-y,3/4+x,3/4-z
1/2+x,1/2+y,1/2+z
1/4-y,3/4+x,3/4+z
1/2-x,-y,1/2+z
3/4+y,3/4-x,3/4+z
1/2-x,1/2-y,1/2-z
3/4+y,1/4-x,1/4-z
1/2+x,y,1/2-z
1/4-y,1/4+x,1/4-z
loop_
_atom_site_type_symbol
_atom_site_label
_atom_site_fract_x
_atom_site_fract_y
_atom_site_fract_z
Si Si1 0.150194 0.342948 0.998979
Si Si2 0.415897 0.496628 0.855391
Si Si3 0.082905 0.874612 0.260977
Si Si4 0.941168 0.691311 0.822352
Si Si5 0.476960 0.605986 0.866908
Si Si6 0.793593 0.485526 0.732363
Si Si7 0.027767 0.110527 0.657194
Si Si8 0.741931 0.129211 0.893125
O O1 0.115161 0.364308 0.874479
O O2 0.159844 0.279604 0.968291
O O3 0.208581 0.371671 0.996814
O O4 0.110765 0.341724 0.124673
O O5 0.434432 0.558325 0.843170
O O6 0.357424 0.489114 0.791292
O O7 0.455492 0.450217 0.801549
O O8 0.411802 0.486613 0.014205
O O9 0.106887 0.832487 0.370532
O O10 0.095081 0.936560 0.303047
O O11 0.018307 0.865720 0.247211
O O12 0.932026 0.755871 0.832708
O O13 0.957561 0.664608 0.683627
O O14 0.495385 0.607525 0.018085
O O15 0.779608 0.484710 0.887124
O O16 0.772817 0.429283 0.666778
#
# Coordination Sequence:
#
# PCOD9546271 Si02
#       8
#    16  16  16  16  16  16  16  16
#     4  10  21  37  58  85 112 157 205 237 299 367
#     4  11  19  36  60  88 114 153 210 247 299 368
#     4  11  21  34  57  87 118 150 189 254 299 357
#     4   9  20  39  60  84 119 163 206 246 295 364
#     4  10  19  34  61  84 109 156 204 245 289 361
#     4  10  22  37  58  86 122 159 206 259 319 368
#     4  11  21  35  56  91 118 152 198 248 309 358
#     4  11  18  37  61  81 116 159 204 241 293 378
#
# _framework density 20.904102999999999
#
# number of rings (size 3 to 8) (size 9 to 14) (size 15 to 20)
#    0.000    1.625    5.000    1.875    0.000    2.250 
#    0.000    2.500    0.000    8.250    0.000    0.000 
#    0.000    0.000    0.000    0.000    0.000    0.000 
#
# Total GULP energy -357230.051444 kJ/mol
# GULP energy per Si atom -5581.719554 kJ/mol
# Density = 2.085652 g / cm^3
# Si number density = 20.904103 Si / 1000 Ang^3
#
#
#
# Elastic Constant Matrix: (Units=GPa)
#
#
# Indices 1 2 3 4 5 6 
#
# 1 87.6363 37.7110 8.4781 0.0000 0.0000 1.7843
# 2 37.7110 87.6363 8.4781 0.0000 0.0000 -1.7843
# 3 8.4781 8.4781 21.9979 0.0000 0.0000 0.0000
# 4 0.0000 0.0000 0.0000 15.1526 0.0000 0.0000
# 5 0.0000 0.0000 0.0000 0.0000 15.1526 0.0000
# 6 1.7843 -1.7843 0.0000 0.0000 0.0000 33.1766
#
#
#
# Elastic Compliance Matrix: (Units=1/GPa)
#
#
# Indices 1 2 3 4 5 6 
#
# 1 0.014262 -0.005845 -0.003244 0.000000 0.000000 -0.001081
# 2 -0.005845 0.014262 -0.003244 0.000000 0.000000 0.001081
# 3 -0.003244 -0.003244 0.047959 0.000000 0.000000 0.000000
# 4 0.000000 0.000000 0.000000 0.065995 0.000000 0.000000
# 5 0.000000 0.000000 0.000000 0.000000 0.065995 0.000000
# 6 -0.001081 0.001081 0.000000 0.000000 0.000000 0.030258
#
#
# Mechanical properties :
#
#
# Convention : Reuss Voigt Hill
#
# Bulk Modulus (GPa) = 19.29860 34.06720 26.68290
# Shear Modulus (GPa) = 17.81456 22.20328 20.00892
#
# Velocity S-wave (km/s) = 2.92242 3.26260 3.09718
# Velocity P-wave (km/s) = 4.54306 5.52494 5.05789
#
# Compressibility (1/GPa) = 0.05181723
#
# Stress axis : x y z
#
# Youngs Moduli (GPa) = 70.11682 70.11682 20.85109
#
# Poissons Ratio (x) = 0.40985 0.06764
# Poissons Ratio (y) = 0.40985 0.06764
# Poissons Ratio (z) = 0.22744 0.22744
#
# Static dielectric constant tensor:
#      x y z
#    x 1.776620 0.000000 0.000000 
#    y 0.000000 1.776620 0.000000 
#    z 0.000000 0.000000 1.756410 
# 
# From -- ./inp_files/2757.got.cif
#   From: 2010.05.17/outbox.cif.g08.bks.cpg/sg88_2_cif.got.tgz:2757.got - 2010.06.03 19:11:41.
