data_PCOD9546916
_publ_section_title
;
Structure prediction by ZEFSAII (Michael W. Deem and Ramdas Pophale) SiO2 
 PCOD9546916
Probable space group: P 4 2 2
;
_chemical_formula_sum "Si O2"
_cell_formula_units_Z 56
_cell_length_a 11.737003
_cell_length_b 11.737003
_cell_length_c 22.003193
_cell_angle_alpha 90.000000
_cell_angle_beta 90.000000
_cell_angle_gamma 90.000000
_cell_volume 3031.099126
_symmetry_space_group_name_H-M "P 4 2 2"
_symmetry_group_IT_number 89
_symmetry_cell_setting 'tetragonal'
loop_
_space_group_symop_operation_xyz
x,y,z
-y,x,z
-x,-y,z
y,-x,z
x,-y,-z
-x,y,-z
y,x,-z
-y,-x,-z
loop_
_atom_site_type_symbol
_atom_site_label
_atom_site_fract_x
_atom_site_fract_y
_atom_site_fract_z
Si Si1 0.545834 0.167955 0.561465
Si Si2 0.380901 0.650337 0.269446
Si Si3 0.806759 0.988718 0.866795
Si Si4 0.500000 0.000000 0.330187
Si Si5 0.696658 0.891172 0.753480
Si Si6 0.000000 0.807132 0.000000
Si Si7 0.081294 0.832298 0.636784
Si Si8 0.733093 0.676925 0.404868
O O1 0.500000 0.112361 0.500000
O O2 0.548927 0.092807 0.622468
O O3 0.664315 0.231463 0.557163
O O4 0.449584 0.263821 0.570803
O O5 0.345555 0.518356 0.260254
O O6 0.327486 0.757558 0.232907
O O7 0.338297 0.679853 0.337717
O O8 0.719679 0.966338 0.812617
O O9 0.897677 0.884117 0.861961
O O10 0.750131 0.993730 0.933910
O O11 0.406951 0.941372 0.286880
O O12 0.804517 0.902457 0.708141
O O13 0.108633 0.891368 0.000000
O O14 0.139609 0.726992 0.602539
O O15 0.949376 0.852699 0.622950
#
# Coordination Sequence:
#
# PCOD9546916 Si02
#       8
#     8   8   8   4   8   4   8   8
#     4  12  25  41  59  79 105 138 184 233 291 352
#     4  10  19  35  54  74 105 144 181 232 295 338
#     4   9  17  30  51  84 118 153 190 221 264 324
#     4  12  23  42  52  81 110 146 174 232 298 341
#     4  11  21  33  55  81 109 145 184 233 274 336
#     4   7  12  26  48  75 116 156 186 221 258 309
#     4  10  20  35  55  79 108 142 174 216 273 337
#     4  11  21  38  59  83 100 135 179 233 284 340
#
# _framework density 18.475147
#
# number of rings (size 3 to 8) (size 9 to 14) (size 15 to 20)
#    0.000    1.643    4.286    3.214    0.000    4.857 
#    0.000    0.714    0.000    0.429    0.000    4.000 
#    0.000    0.000    0.000   16.286    0.000    0.000 
#
# Total GULP energy -312110.535694 kJ/mol
# GULP energy per Si atom -5573.402423 kJ/mol
# Density = 1.843310 g / cm^3
# Si number density = 18.475147 Si / 1000 Ang^3
#
#
#
# Elastic Constant Matrix: (Units=GPa)
#
#
# Indices 1 2 3 4 5 6 
#
# 1 57.0848 18.3136 16.0479 0.0000 0.0000 0.0000
# 2 18.3136 57.0849 16.0478 0.0000 0.0000 0.0000
# 3 16.0479 16.0478 92.2004 0.0000 0.0000 0.0000
# 4 0.0000 0.0000 0.0000 18.3058 0.0000 0.0000
# 5 0.0000 0.0000 0.0000 0.0000 18.3057 0.0000
# 6 0.0000 0.0000 0.0000 0.0000 0.0000 18.7577
#
#
#
# Elastic Compliance Matrix: (Units=1/GPa)
#
#
# Indices 1 2 3 4 5 6 
#
# 1 0.020058 -0.005734 -0.002493 0.000000 0.000000 0.000000
# 2 -0.005734 0.020058 -0.002493 0.000000 0.000000 0.000000
# 3 -0.002493 -0.002493 0.011714 0.000000 0.000000 0.000000
# 4 0.000000 0.000000 0.000000 0.054628 0.000000 0.000000
# 5 0.000000 0.000000 0.000000 0.000000 0.054628 0.000000
# 6 0.000000 0.000000 0.000000 0.000000 0.000000 0.053311
#
#
# Mechanical properties :
#
#
# Convention : Reuss Voigt Hill
#
# Bulk Modulus (GPa) = 32.90616 34.13209 33.51912
# Shear Modulus (GPa) = 20.32785 21.47121 20.89953
#
# Velocity S-wave (km/s) = 3.32065 3.41276 3.36702
# Velocity P-wave (km/s) = 5.70543 5.83472 5.77044
#
# Compressibility (1/GPa) = 0.03038945
#
# Stress axis : x y z
#
# Youngs Moduli (GPa) = 49.85476 49.85487 85.36917
#
# Poissons Ratio (x) = 0.28587 0.21284
# Poissons Ratio (y) = 0.28587 0.21284
# Poissons Ratio (z) = 0.12430 0.12430
#
# Static dielectric constant tensor:
#      x y z
#    x 1.657990 0.000000 0.000000 
#    y 0.000000 1.657990 0.000000 
#    z 0.000000 0.000000 1.695770 
# 
# From -- ./inp_files/2792.got.cif
#   From: 2010.05.17/outbox.cif.g08.bks.cpg/sg89_2_cif.got.tgz:2792.got - 2010.06.03 19:15:31.
