data_PCOD9546514
_publ_section_title
;
Structure prediction by ZEFSAII (Michael W. Deem and Ramdas Pophale) SiO2 
 PCOD9546514
Probable space group: I 41/A
;
_chemical_formula_sum "Si O2"
_cell_formula_units_Z 88
_cell_length_a 14.308925
_cell_length_b 14.308925
_cell_length_c 20.228065
_cell_angle_alpha 90.000000
_cell_angle_beta 90.000000
_cell_angle_gamma 90.000000
_cell_volume 4141.601938
_symmetry_space_group_name_H-M "I 41/A"
_symmetry_group_IT_number 88
_space_group.IT_coordinate_system_code '2'
_symmetry_cell_setting 'tetragonal'
loop_
_space_group_symop_operation_xyz
x,y,z
3/4-y,1/4+x,1/4+z
-x,1/2-y,z
1/4+y,1/4-x,1/4+z
-x,-y,-z
1/4+y,3/4-x,3/4-z
x,1/2+y,-z
3/4-y,3/4+x,3/4-z
1/2+x,1/2+y,1/2+z
1/4-y,3/4+x,3/4+z
1/2-x,-y,1/2+z
3/4+y,3/4-x,3/4+z
1/2-x,1/2-y,1/2-z
3/4+y,1/4-x,1/4-z
1/2+x,y,1/2-z
1/4-y,1/4+x,1/4-z
loop_
_atom_site_type_symbol
_atom_site_label
_atom_site_fract_x
_atom_site_fract_y
_atom_site_fract_z
Si Si1 0.500000 0.250000 0.375000
Si Si2 0.666357 0.873931 0.296390
Si Si3 0.078525 0.876704 0.487238
Si Si4 0.500000 0.750000 0.125000
Si Si5 0.000663 0.509746 0.217497
Si Si6 0.569094 0.447232 0.581633
Si Si7 0.120357 0.337456 0.240029
O O1 0.455057 0.322960 0.425202
O O2 0.774343 0.875467 0.278490
O O3 0.635856 0.770341 0.274316
O O4 0.601691 0.952640 0.260550
O O5 0.643198 0.891352 0.373634
O O6 0.150083 0.815785 0.528286
O O7 0.056413 0.821569 0.420305
O O8 0.053214 0.425821 0.254515
O O9 0.986136 0.495204 0.139110
O O10 0.494357 0.382134 0.544060
O O11 0.611820 0.522666 0.530823
#
# Coordination Sequence:
#
# PCOD9546514 Si02
#       7
#     4  16  16   4  16  16  16
#     4  12  20  40  62  84 132 172 216 282 332 412
#     4   9  21  46  64  97 136 181 224 294 342 418
#     4  11  22  43  72  94 141 179 225 290 354 410
#     4  12  20  44  66 104 132 172 232 282 348 420
#     4  10  21  44  66  93 138 179 226 296 336 425
#     4   9  22  43  64  98 137 177 234 277 349 419
#     4  11  22  41  65  96 134 184 222 289 347 412
#
# _framework density 21.247817000000001
#
# number of rings (size 3 to 8) (size 9 to 14) (size 15 to 20)
#    1.091    0.727    3.636    0.000    0.000    2.909 
#   22.909    0.000    0.000    0.000    0.000    0.000 
#    0.000    0.000    0.000    0.000    0.000    0.000 
#
# Total GULP energy -245168.250082 kJ/mol
# GULP energy per Si atom -5572.005684 kJ/mol
# Density = 2.119946 g / cm^3
# Si number density = 21.247817 Si / 1000 Ang^3
#
#
#
# Elastic Constant Matrix: (Units=GPa)
#
#
# Indices 1 2 3 4 5 6 
#
# 1 84.2545 59.4178 14.0933 0.0000 0.0000 4.7882
# 2 59.4178 84.2545 14.0933 0.0000 0.0000 -4.7882
# 3 14.0933 14.0933 23.1063 0.0000 0.0000 0.0000
# 4 0.0000 0.0000 0.0000 59.4919 0.0000 0.0000
# 5 0.0000 0.0000 0.0000 0.0000 59.4919 0.0000
# 6 4.7882 -4.7882 0.0000 0.0000 0.0000 26.1668
#
#
#
# Elastic Compliance Matrix: (Units=1/GPa)
#
#
# Indices 1 2 3 4 5 6 
#
# 1 0.025613 -0.017707 -0.004822 0.000000 0.000000 -0.007927
# 2 -0.017707 0.025613 -0.004822 0.000000 0.000000 0.007927
# 3 -0.004822 -0.004822 0.049161 0.000000 0.000000 0.000000
# 4 0.000000 0.000000 0.000000 0.016809 0.000000 0.000000
# 5 0.000000 0.000000 0.000000 0.000000 0.016809 0.000000
# 6 -0.007927 0.007927 0.000000 0.000000 0.000000 0.041118
#
#
# Mechanical properties :
#
#
# Convention : Reuss Voigt Hill
#
# Bulk Modulus (GPa) = 21.88943 40.75823 31.32383
# Shear Modulus (GPa) = 20.40375 35.96418 28.18397
#
# Velocity S-wave (km/s) = 3.10219 4.11859 3.64598
# Velocity P-wave (km/s) = 4.81205 6.46846 5.70074
#
# Compressibility (1/GPa) = 0.04568415
#
# Stress axis : x y z
#
# Youngs Moduli (GPa) = 39.04270 39.04270 20.34141
#
# Poissons Ratio (x) = 0.69131 0.09809
# Poissons Ratio (y) = 0.69131 0.09809
# Poissons Ratio (z) = 0.18828 0.18828
#
# Static dielectric constant tensor:
#      x y z
#    x 1.788590 0.000000 0.000000 
#    y 0.000000 1.788590 0.000000 
#    z 0.000000 0.000000 1.754890 
# 
# From -- ./inp_files/5254.got.cif
#   From: 2010.05.17/outbox.cif.g08.bks.cpg/sg88_3_cif.got.tgz:5254.got - 2010.06.03 19:11:41.
