data_PCOD9546352
_publ_section_title
;
Structure prediction by ZEFSAII (Michael W. Deem and Ramdas Pophale) SiO2 
 PCOD9546352
Probable space group: I 41/A
;
_chemical_formula_sum "Si O2"
_cell_formula_units_Z 108
_cell_length_a 13.821452
_cell_length_b 13.821452
_cell_length_c 28.056055
_cell_angle_alpha 90.000000
_cell_angle_beta 90.000000
_cell_angle_gamma 90.000000
_cell_volume 5359.619320
_symmetry_space_group_name_H-M "I 41/A"
_symmetry_group_IT_number 88
_space_group.IT_coordinate_system_code '2'
_symmetry_cell_setting 'tetragonal'
loop_
_space_group_symop_operation_xyz
x,y,z
3/4-y,1/4+x,1/4+z
-x,1/2-y,z
1/4+y,1/4-x,1/4+z
-x,-y,-z
1/4+y,3/4-x,3/4-z
x,1/2+y,-z
3/4-y,3/4+x,3/4-z
1/2+x,1/2+y,1/2+z
1/4-y,3/4+x,3/4+z
1/2-x,-y,1/2+z
3/4+y,3/4-x,3/4+z
1/2-x,1/2-y,1/2-z
3/4+y,1/4-x,1/4-z
1/2+x,y,1/2-z
1/4-y,1/4+x,1/4-z
loop_
_atom_site_type_symbol
_atom_site_label
_atom_site_fract_x
_atom_site_fract_y
_atom_site_fract_z
Si Si1 0.000000 0.250000 0.980777
Si Si2 0.324829 0.778933 0.410269
Si Si3 0.544023 0.105405 0.959231
Si Si4 0.000000 0.250000 0.625000
Si Si5 0.251624 0.978612 0.655142
Si Si6 0.818526 0.495060 0.306584
Si Si7 0.187151 0.164585 0.228184
Si Si8 0.071482 0.080570 0.439739
O O1 0.916797 0.290503 0.945295
O O2 0.950051 0.171403 0.014195
O O3 0.269040 0.882717 0.409784
O O4 0.267450 0.682883 0.429112
O O5 0.355467 0.741989 0.357240
O O6 0.540031 0.172387 0.912664
O O7 0.645170 0.050588 0.956505
O O8 0.459792 0.028684 0.953021
O O9 0.546780 0.144050 0.013533
O O10 0.283970 0.876299 0.676888
O O11 0.276310 0.998524 0.600416
O O12 0.315217 0.065096 0.679013
O O13 0.797521 0.425412 0.263349
O O14 0.250000 0.250000 0.250000
#
# Coordination Sequence:
#
# PCOD9546352 Si02
#       8
#     8  16  16   4  16  16  16  16
#     4  10  22  39  64  93 118 163 221 266 320 388
#     4  10  20  36  64  89 125 165 214 263 320 382
#     4  11  22  37  55  91 129 170 214 256 311 393
#     4  12  24  34  60  88 124 180 218 248 316 392
#     4  11  20  39  65  94 126 169 207 269 325 381
#     4  10  22  38  61  98 128 166 210 265 318 386
#     4  11  22  42  68  91 122 172 221 263 326 384
#     4  10  22  37  58  90 130 166 209 264 318 380
#
# _framework density 20.150683999999998
#
# number of rings (size 3 to 8) (size 9 to 14) (size 15 to 20)
#    0.000    1.481    4.444    1.778    2.074    0.593 
#    0.000    1.481    3.259    0.000    0.000    0.000 
#    0.000    0.000    0.000    0.000    0.000    0.000 
#
# Total GULP energy -300796.891021 kJ/mol
# GULP energy per Si atom -5570.312797 kJ/mol
# Density = 2.010482 g / cm^3
# Si number density = 20.150684 Si / 1000 Ang^3
#
#
#
# Elastic Constant Matrix: (Units=GPa)
#
#
# Indices 1 2 3 4 5 6 
#
# 1 57.6745 13.5731 21.0494 0.0000 0.0000 1.7711
# 2 13.5731 57.6745 21.0494 0.0000 0.0000 -1.7711
# 3 21.0494 21.0494 89.7237 0.0000 0.0000 0.0000
# 4 0.0000 0.0000 0.0000 20.2534 0.0000 0.0000
# 5 0.0000 0.0000 0.0000 0.0000 20.2534 0.0000
# 6 1.7711 -1.7711 0.0000 0.0000 0.0000 20.9968
#
#
#
# Elastic Compliance Matrix: (Units=1/GPa)
#
#
# Indices 1 2 3 4 5 6 
#
# 1 0.019562 -0.003268 -0.003823 0.000000 0.000000 -0.001926
# 2 -0.003268 0.019562 -0.003823 0.000000 0.000000 0.001926
# 3 -0.003823 -0.003823 0.012939 0.000000 0.000000 0.000000
# 4 0.000000 0.000000 0.000000 0.049374 0.000000 0.000000
# 5 0.000000 0.000000 0.000000 0.000000 0.049374 0.000000
# 6 -0.001926 0.001926 0.000000 0.000000 0.000000 0.047951
#
#
# Mechanical properties :
#
#
# Convention : Reuss Voigt Hill
#
# Bulk Modulus (GPa) = 33.07224 35.15739 34.11481
# Shear Modulus (GPa) = 21.67616 22.26076 21.96846
#
# Velocity S-wave (km/s) = 3.28335 3.32733 3.30541
# Velocity P-wave (km/s) = 5.55175 5.67861 5.61554
#
# Compressibility (1/GPa) = 0.03023684
#
# Stress axis : x y z
#
# Youngs Moduli (GPa) = 51.11946 51.11946 77.28600
#
# Poissons Ratio (x) = 0.16704 0.29544
# Poissons Ratio (y) = 0.16704 0.29544
# Poissons Ratio (z) = 0.19541 0.19541
#
# Static dielectric constant tensor:
#      x y z
#    x 1.734620 0.000000 0.000000 
#    y 0.000000 1.734620 0.000000 
#    z 0.000000 0.000000 1.766380 
# 
# From -- ./inp_files/5898.got.cif
#   From: 2010.05.17/outbox.cif.g08.bks.cpg/sg88_3_cif.got.tgz:5898.got - 2010.06.03 19:11:41.
