data_PCOD9546019
_publ_section_title
;
Structure prediction by ZEFSAII (Michael W. Deem and Ramdas Pophale) SiO2 
 PCOD9546019
Probable space group: I 4/M
;
_chemical_formula_sum "Si O2"
_cell_formula_units_Z 72
_cell_length_a 16.891743
_cell_length_b 16.891743
_cell_length_c 11.217401
_cell_angle_alpha 90.000000
_cell_angle_beta 90.000000
_cell_angle_gamma 90.000000
_cell_volume 3200.672038
_symmetry_space_group_name_H-M "I 4/M"
_symmetry_group_IT_number 87
_symmetry_cell_setting 'tetragonal'
loop_
_space_group_symop_operation_xyz
x,y,z
-y,x,z
-x,-y,z
y,-x,z
-x,-y,-z
y,-x,-z
x,y,-z
-y,x,-z
1/2+x,1/2+y,1/2+z
1/2-y,1/2+x,1/2+z
1/2-x,1/2-y,1/2+z
1/2+y,1/2-x,1/2+z
1/2-x,1/2-y,1/2-z
1/2+y,1/2-x,1/2-z
1/2+x,1/2+y,1/2-z
1/2-y,1/2+x,1/2-z
loop_
_atom_site_type_symbol
_atom_site_label
_atom_site_fract_x
_atom_site_fract_y
_atom_site_fract_z
Si Si1 0.570355 0.170345 0.866001
Si Si2 0.609472 0.428812 0.000000
Si Si3 0.592592 0.412792 0.641930
Si Si4 0.114432 0.343903 0.362396
Si Si5 0.318949 0.681545 0.811405
O O1 0.594369 0.122330 0.746648
O O2 0.476397 0.187079 0.858714
O O3 0.627860 0.246611 0.858000
O O4 0.583073 0.134791 0.000000
O O5 0.604779 0.521585 0.000000
O O6 0.652818 0.393761 0.112435
O O7 0.608410 0.503235 0.682882
O O8 0.591623 0.415917 0.500000
O O9 0.654389 0.346887 0.681768
O O10 0.127949 0.371098 0.500000
O O11 0.178640 0.274750 0.332585
#
# Coordination Sequence:
#
# PCOD9546019 Si02
#       5
#    16   8  16  16  16
#     4  11  25  45  69  98 133 174 223 279 337 401
#     4  11  20  30  54  92 130 172 212 251 310 384
#     4   9  18  31  48  78 124 174 218 258 306 375
#     4  11  25  45  69  98 133 174 223 279 337 401
#     4  12  21  37  64  94 131 166 210 267 332 397
#
# _framework density 22.495277000000002
#
# number of rings (size 3 to 8) (size 9 to 14) (size 15 to 20)
#    0.000    1.222    2.222    5.333    0.000    4.889 
#    0.000    2.222    0.000    0.000    0.000    0.000 
#    0.000    0.000    0.000    0.000    0.000    0.000 
#
# Total GULP energy -200901.652342 kJ/mol
# GULP energy per Si atom -5580.601454 kJ/mol
# Density = 2.244408 g / cm^3
# Si number density = 22.495277 Si / 1000 Ang^3
#
#
#
# Elastic Constant Matrix: (Units=GPa)
#
#
# Indices 1 2 3 4 5 6 
#
# 1 77.3734 19.8260 38.1875 0.0000 0.0000 -4.9333
# 2 19.8260 77.3734 38.1875 0.0000 0.0000 4.9333
# 3 38.1875 38.1875 135.4576 0.0000 0.0000 0.0000
# 4 0.0000 0.0000 0.0000 37.6448 0.0000 0.0000
# 5 0.0000 0.0000 0.0000 0.0000 37.6448 0.0000
# 6 -4.9333 4.9333 0.0000 0.0000 0.0000 33.7617
#
#
#
# Elastic Compliance Matrix: (Units=1/GPa)
#
#
# Indices 1 2 3 4 5 6 
#
# 1 0.015520 -0.002304 -0.003726 0.000000 0.000000 0.002604
# 2 -0.002304 0.015520 -0.003726 0.000000 0.000000 -0.002604
# 3 -0.003726 -0.003726 0.009483 0.000000 0.000000 0.000000
# 4 0.000000 0.000000 0.000000 0.026564 0.000000 0.000000
# 5 0.000000 0.000000 0.000000 0.000000 0.026564 0.000000
# 6 0.002604 -0.002604 0.000000 0.000000 0.000000 0.030380
#
#
# Mechanical properties :
#
#
# Convention : Reuss Voigt Hill
#
# Bulk Modulus (GPa) = 47.59288 53.62293 50.60791
# Shear Modulus (GPa) = 33.21260 34.74382 33.97821
#
# Velocity S-wave (km/s) = 3.84660 3.93427 3.89068
# Velocity P-wave (km/s) = 6.39775 6.67286 6.53675
#
# Compressibility (1/GPa) = 0.02101154
#
# Stress axis : x y z
#
# Youngs Moduli (GPa) = 64.43482 64.43482 105.45154
#
# Poissons Ratio (x) = 0.14845 0.39288
# Poissons Ratio (y) = 0.14845 0.39288
# Poissons Ratio (z) = 0.24006 0.24006
#
# Static dielectric constant tensor:
#      x y z
#    x 1.840680 0.000000 0.000000 
#    y 0.000000 1.840680 0.000000 
#    z 0.000000 0.000000 1.829910 
# 
# From -- ./inp_files/2466.got.cif
#   From: 2010.05.17/outbox.cif.g08.bks.cpg/sg87_2_cif.got.tgz:2466.got - 2010.06.03 19:07:00.
