data_PCOD9546386
_publ_section_title
;
Structure prediction by ZEFSAII (Michael W. Deem and Ramdas Pophale) SiO2 
 PCOD9546386
Probable space group: I 41/A
;
_chemical_formula_sum "Si O2"
_cell_formula_units_Z 96
_cell_length_a 15.812857
_cell_length_b 15.812857
_cell_length_c 19.966112
_cell_angle_alpha 90.000000
_cell_angle_beta 90.000000
_cell_angle_gamma 90.000000
_cell_volume 4992.455356
_symmetry_space_group_name_H-M "I 41/A"
_symmetry_group_IT_number 88
_space_group.IT_coordinate_system_code '2'
_symmetry_cell_setting 'tetragonal'
loop_
_space_group_symop_operation_xyz
x,y,z
3/4-y,1/4+x,1/4+z
-x,1/2-y,z
1/4+y,1/4-x,1/4+z
-x,-y,-z
1/4+y,3/4-x,3/4-z
x,1/2+y,-z
3/4-y,3/4+x,3/4-z
1/2+x,1/2+y,1/2+z
1/4-y,3/4+x,3/4+z
1/2-x,-y,1/2+z
3/4+y,3/4-x,3/4+z
1/2-x,1/2-y,1/2-z
3/4+y,1/4-x,1/4-z
1/2+x,y,1/2-z
1/4-y,1/4+x,1/4-z
loop_
_atom_site_type_symbol
_atom_site_label
_atom_site_fract_x
_atom_site_fract_y
_atom_site_fract_z
Si Si1 0.500000 0.250000 0.114457
Si Si2 0.123074 0.236174 0.742160
Si Si3 0.179221 0.185302 0.171350
Si Si4 0.174985 0.187059 0.329062
Si Si5 0.353749 0.980138 0.022824
Si Si6 0.000000 0.250000 0.625000
Si Si7 0.000000 0.250000 0.125000
Si Si8 0.226315 0.498355 0.859184
O O1 0.417241 0.274301 0.156648
O O2 0.520035 0.324582 0.062342
O O3 0.148700 0.334715 0.731333
O O4 0.198376 0.170408 0.750994
O O5 0.068321 0.212604 0.676865
O O6 0.190997 0.174903 0.250590
O O7 0.251420 0.249564 0.145640
O O8 0.085466 0.222306 0.162600
O O9 0.192794 0.094455 0.137305
O O10 0.186514 0.096354 0.362992
O O11 0.279587 0.985458 0.967818
O O12 0.309930 0.989716 0.095179
#
# Coordination Sequence:
#
# PCOD9546386 Si02
#       8
#     8  16  16  16  16   4   4  16
#     4  11  21  41  64  93 123 167 212 256 320 384
#     4  10  22  39  63  90 126 160 208 263 310 378
#     4  11  24  41  63  92 127 167 209 267 315 382
#     4  11  23  41  62  90 128 165 208 262 316 373
#     4  11  23  40  63  93 125 166 209 260 317 377
#     4  10  20  40  62  88 120 166 200 258 316 370
#     4  12  22  40  66  92 126 164 220 258 328 378
#     4  12  22  41  65  91 126 169 209 259 320 381
#
# _framework density 19.229016000000001
#
# number of rings (size 3 to 8) (size 9 to 14) (size 15 to 20)
#    0.000    1.000    5.000    2.500    0.000    0.000 
#    0.000    0.000    0.000    0.000    0.000    0.000 
#    0.000    0.000    0.000    0.000    0.000    0.000 
#
# Total GULP energy -267738.146571 kJ/mol
# GULP energy per Si atom -5577.878054 kJ/mol
# Density = 1.918525 g / cm^3
# Si number density = 19.229016 Si / 1000 Ang^3
#
#
#
# Elastic Constant Matrix: (Units=GPa)
#
#
# Indices 1 2 3 4 5 6 
#
# 1 81.5142 18.2859 -2.3050 0.0000 0.0000 3.1344
# 2 18.2859 81.5142 -2.3050 0.0000 0.0000 -3.1344
# 3 -2.3050 -2.3050 42.8926 0.0000 0.0000 0.0000
# 4 0.0000 0.0000 0.0000 44.2955 0.0000 0.0000
# 5 0.0000 0.0000 0.0000 0.0000 44.2955 0.0000
# 6 3.1344 -3.1344 0.0000 0.0000 0.0000 20.3653
#
#
#
# Elastic Compliance Matrix: (Units=1/GPa)
#
#
# Indices 1 2 3 4 5 6 
#
# 1 0.013053 -0.003008 0.000540 0.000000 0.000000 -0.002472
# 2 -0.003008 0.013053 0.000540 0.000000 0.000000 0.002472
# 3 0.000540 0.000540 0.023372 0.000000 0.000000 0.000000
# 4 0.000000 0.000000 0.000000 0.022576 0.000000 0.000000
# 5 0.000000 0.000000 0.000000 0.000000 0.022576 0.000000
# 6 -0.002472 0.002472 0.000000 0.000000 0.000000 0.049864
#
#
# Mechanical properties :
#
#
# Convention : Reuss Voigt Hill
#
# Bulk Modulus (GPa) = 21.91962 25.91920 23.91941
# Shear Modulus (GPa) = 30.57038 34.60758 32.58898
#
# Velocity S-wave (km/s) = 3.99156 4.24696 4.12124
# Velocity P-wave (km/s) = 5.71554 6.12840 5.92557
#
# Compressibility (1/GPa) = 0.04562124
#
# Stress axis : x y z
#
# Youngs Moduli (GPa) = 76.61147 76.61147 42.78609
#
# Poissons Ratio (x) = 0.23044 -0.02310
# Poissons Ratio (y) = 0.23044 -0.02310
# Poissons Ratio (z) = -0.04136 -0.04136
#
# Static dielectric constant tensor:
#      x y z
#    x 1.704480 0.000000 0.000000 
#    y 0.000000 1.704480 0.000000 
#    z 0.000000 0.000000 1.640820 
# 
# From -- ./inp_files/4791.got.cif
#   From: 2010.05.17/outbox.cif.g08.bks.cpg/sg88_3_cif.got.tgz:4791.got - 2010.06.03 19:11:41.
