data_PCOD9546808
_publ_section_title
;
Structure prediction by ZEFSAII (Michael W. Deem and Ramdas Pophale) SiO2 
 PCOD9546808
Probable space group: I 41/A
;
_chemical_formula_sum "Si O2"
_cell_formula_units_Z 108
_cell_length_a 14.237245
_cell_length_b 14.237245
_cell_length_c 25.841795
_cell_angle_alpha 90.000000
_cell_angle_beta 90.000000
_cell_angle_gamma 90.000000
_cell_volume 5238.109757
_symmetry_space_group_name_H-M "I 41/A"
_symmetry_group_IT_number 88
_space_group.IT_coordinate_system_code '2'
_symmetry_cell_setting 'tetragonal'
loop_
_space_group_symop_operation_xyz
x,y,z
3/4-y,1/4+x,1/4+z
-x,1/2-y,z
1/4+y,1/4-x,1/4+z
-x,-y,-z
1/4+y,3/4-x,3/4-z
x,1/2+y,-z
3/4-y,3/4+x,3/4-z
1/2+x,1/2+y,1/2+z
1/4-y,3/4+x,3/4+z
1/2-x,-y,1/2+z
3/4+y,3/4-x,3/4+z
1/2-x,1/2-y,1/2-z
3/4+y,1/4-x,1/4-z
1/2+x,y,1/2-z
1/4-y,1/4+x,1/4-z
loop_
_atom_site_type_symbol
_atom_site_label
_atom_site_fract_x
_atom_site_fract_y
_atom_site_fract_z
Si Si1 0.000000 0.250000 0.375724
Si Si2 0.783305 0.000710 0.384438
Si Si3 0.561243 0.161485 0.292037
Si Si4 0.333876 0.804156 0.306787
Si Si5 0.707290 0.712773 0.624069
Si Si6 0.500000 0.250000 0.875000
Si Si7 0.394215 0.095405 0.565817
Si Si8 0.909383 0.576299 0.438441
O O1 0.940881 0.181191 0.412333
O O2 0.942197 0.321264 0.340712
O O3 0.872408 0.009874 0.420951
O O4 0.747422 0.107104 0.378018
O O5 0.704654 0.939465 0.412767
O O6 0.813760 0.946135 0.332726
O O7 0.500000 0.250000 0.272874
O O8 0.615526 0.201344 0.341283
O O9 0.503186 0.073933 0.317505
O O10 0.634368 0.138970 0.245678
O O11 0.277815 0.706634 0.313875
O O12 0.353514 0.829323 0.247927
O O13 0.772813 0.781036 0.658623
O O14 0.461324 0.159049 0.906528
#
# Coordination Sequence:
#
# PCOD9546808 Si02
#       8
#     8  16  16  16  16   4  16  16
#     4  12  23  48  66  98 144 186 237 294 354 436
#     4  12  25  46  71 107 144 183 244 307 354 430
#     4  12  23  45  71  99 143 193 236 289 366 430
#     4  11  25  46  70 101 142 186 234 292 366 425
#     4  12  24  45  70 101 147 186 238 299 355 431
#     4  12  22  48  72 100 132 180 234 296 364 426
#     4  12  26  43  71 106 140 193 239 295 363 438
#     4  11  25  45  73 101 137 184 235 297 362 432
#
# _framework density 20.618126
#
# number of rings (size 3 to 8) (size 9 to 14) (size 15 to 20)
#    0.000    0.296    8.148    0.889    2.074    0.000 
#    5.333    0.000    0.000    0.000    0.000    0.000 
#    0.000    0.000    0.000    0.000    0.000    0.000 
#
# Total GULP energy -301271.716491 kJ/mol
# GULP energy per Si atom -5579.105861 kJ/mol
# Density = 2.057120 g / cm^3
# Si number density = 20.618126 Si / 1000 Ang^3
#
#
#
# Elastic Constant Matrix: (Units=GPa)
#
#
# Indices 1 2 3 4 5 6 
#
# 1 74.1963 17.2982 44.6508 0.0000 0.0000 13.6718
# 2 17.2982 74.1963 44.6508 0.0000 0.0000 -13.6718
# 3 44.6508 44.6508 121.8744 0.0000 0.0000 0.0000
# 4 0.0000 0.0000 0.0000 15.0957 0.0000 0.0000
# 5 0.0000 0.0000 0.0000 0.0000 15.0957 0.0000
# 6 13.6718 -13.6718 0.0000 0.0000 0.0000 33.8505
#
#
#
# Elastic Compliance Matrix: (Units=1/GPa)
#
#
# Indices 1 2 3 4 5 6 
#
# 1 0.019411 -0.002397 -0.006233 0.000000 0.000000 -0.008808
# 2 -0.002397 0.019411 -0.006233 0.000000 0.000000 0.008808
# 3 -0.006233 -0.006233 0.012772 0.000000 0.000000 0.000000
# 4 0.000000 0.000000 0.000000 0.066244 0.000000 0.000000
# 5 0.000000 0.000000 0.000000 0.000000 0.066244 0.000000
# 6 -0.008808 0.008808 0.000000 0.000000 0.000000 0.036657
#
#
# Mechanical properties :
#
#
# Convention : Reuss Voigt Hill
#
# Bulk Modulus (GPa) = 45.73191 53.71853 49.72522
# Shear Modulus (GPa) = 19.39824 23.71951 21.55887
#
# Velocity S-wave (km/s) = 3.07063 3.39546 3.23712
# Velocity P-wave (km/s) = 5.89918 6.44072 6.17588
#
# Compressibility (1/GPa) = 0.02186657
#
# Stress axis : x y z
#
# Youngs Moduli (GPa) = 51.51770 51.51770 78.29374
#
# Poissons Ratio (x) = 0.12351 0.48802
# Poissons Ratio (y) = 0.12351 0.48802
# Poissons Ratio (z) = 0.32112 0.32112
#
# Static dielectric constant tensor:
#      x y z
#    x 1.834340 0.000000 0.000000 
#    y 0.000000 1.834340 0.000000 
#    z 0.000000 0.000000 1.720820 
# 
# From -- ./inp_files/5402.got.cif
#   From: 2010.05.17/outbox.cif.g08.bks.cpg/sg88_3_cif.got.tgz:5402.got - 2010.06.03 19:11:41.
