data_PCOD9546210
_publ_section_title
;
Structure prediction by ZEFSAII (Michael W. Deem and Ramdas Pophale) SiO2 
 PCOD9546210
Probable space group: I 41/A
;
_chemical_formula_sum "Si O2"
_cell_formula_units_Z 112
_cell_length_a 14.883235
_cell_length_b 14.883235
_cell_length_c 26.809333
_cell_angle_alpha 90.000000
_cell_angle_beta 90.000000
_cell_angle_gamma 90.000000
_cell_volume 5938.553692
_symmetry_space_group_name_H-M "I 41/A"
_symmetry_group_IT_number 88
_space_group.IT_coordinate_system_code '2'
_symmetry_cell_setting 'tetragonal'
loop_
_space_group_symop_operation_xyz
x,y,z
3/4-y,1/4+x,1/4+z
-x,1/2-y,z
1/4+y,1/4-x,1/4+z
-x,-y,-z
1/4+y,3/4-x,3/4-z
x,1/2+y,-z
3/4-y,3/4+x,3/4-z
1/2+x,1/2+y,1/2+z
1/4-y,3/4+x,3/4+z
1/2-x,-y,1/2+z
3/4+y,3/4-x,3/4+z
1/2-x,1/2-y,1/2-z
3/4+y,1/4-x,1/4-z
1/2+x,y,1/2-z
1/4-y,1/4+x,1/4-z
loop_
_atom_site_type_symbol
_atom_site_label
_atom_site_fract_x
_atom_site_fract_y
_atom_site_fract_z
Si Si1 0.446941 0.155062 0.540417
Si Si2 0.790646 0.102418 0.116966
Si Si3 0.217353 0.592044 0.966326
Si Si4 0.520312 0.645135 0.692194
Si Si5 0.310427 0.126146 0.183793
Si Si6 0.597130 0.862147 0.917239
Si Si7 0.099267 0.647471 0.597181
O O1 0.500000 0.250000 0.538796
O O2 0.393811 0.157955 0.488394
O O3 0.524239 0.079420 0.545072
O O4 0.394860 0.158782 0.592508
O O5 0.778285 0.078535 0.174817
O O6 0.841897 0.194375 0.105835
O O7 0.695924 0.103148 0.088141
O O8 0.860658 0.030167 0.096204
O O9 0.161538 0.684587 0.959970
O O10 0.322243 0.602373 0.951998
O O11 0.195072 0.563234 0.021934
O O12 0.500000 0.750000 0.683112
O O13 0.383166 0.109862 0.140028
O O14 0.493174 0.886755 0.927379
O O15 0.605034 0.753404 0.916414
#
# Coordination Sequence:
#
# PCOD9546210 Si02
#       7
#    16  16  16  16  16  16  16
#     4  10  17  33  57  74 101 157 189 208 264 345
#     4  11  26  32  50  82 114 141 187 233 276 327
#     4  11  21  35  52  79 111 148 182 231 279 325
#     4  11  22  33  49  78 115 151 180 213 270 331
#     4  10  20  38  50  79 110 140 186 224 273 341
#     4   9  18  35  60  74 103 147 192 229 269 328
#     4  10  17  36  55  78 102 142 199 229 263 330
#
# _framework density 18.859812000000002
#
# number of rings (size 3 to 8) (size 9 to 14) (size 15 to 20)
#    0.000    1.714    7.143    0.000    4.000    0.571 
#    0.000    0.714    0.000    0.000    0.000    0.000 
#    0.000    5.143    0.000    0.000    0.000    0.000 
#
# Total GULP energy -312149.635637 kJ/mol
# GULP energy per Si atom -5574.100636 kJ/mol
# Density = 1.881689 g / cm^3
# Si number density = 18.859812 Si / 1000 Ang^3
#
#
#
# Elastic Constant Matrix: (Units=GPa)
#
#
# Indices 1 2 3 4 5 6 
#
# 1 69.7760 21.5369 9.6156 0.0000 0.0000 1.2623
# 2 21.5369 69.7760 9.6156 0.0000 0.0000 -1.2623
# 3 9.6156 9.6156 46.7330 0.0000 0.0000 0.0000
# 4 0.0000 0.0000 0.0000 17.2481 0.0000 0.0000
# 5 0.0000 0.0000 0.0000 0.0000 17.2481 0.0000
# 6 1.2623 -1.2623 0.0000 0.0000 0.0000 17.6869
#
#
#
# Elastic Compliance Matrix: (Units=1/GPa)
#
#
# Indices 1 2 3 4 5 6 
#
# 1 0.016128 -0.004680 -0.002355 0.000000 0.000000 -0.001485
# 2 -0.004680 0.016128 -0.002355 0.000000 0.000000 0.001485
# 3 -0.002355 -0.002355 0.022367 0.000000 0.000000 0.000000
# 4 0.000000 0.000000 0.000000 0.057977 0.000000 0.000000
# 5 0.000000 0.000000 0.000000 0.000000 0.057977 0.000000
# 6 -0.001485 0.001485 0.000000 0.000000 0.000000 0.056751
#
#
# Mechanical properties :
#
#
# Convention : Reuss Voigt Hill
#
# Bulk Modulus (GPa) = 27.90118 29.75788 28.82953
# Shear Modulus (GPa) = 19.37554 20.13774 19.75664
#
# Velocity S-wave (km/s) = 3.20870 3.27120 3.24010
# Velocity P-wave (km/s) = 5.34357 5.48456 5.41453
#
# Compressibility (1/GPa) = 0.03584078
#
# Stress axis : x y z
#
# Youngs Moduli (GPa) = 62.00548 62.00548 44.70786
#
# Poissons Ratio (x) = 0.29020 0.10530
# Poissons Ratio (y) = 0.29020 0.10530
# Poissons Ratio (z) = 0.14605 0.14605
#
# Static dielectric constant tensor:
#      x y z
#    x 1.689550 0.000000 0.000000 
#    y 0.000000 1.689550 0.000000 
#    z 0.000000 0.000000 1.706270 
# 
# From -- ./inp_files/6593.got.cif
#   From: 2010.05.17/outbox.cif.g08.bks.cpg/sg88_4_cif.got.tgz:6593.got - 2010.06.03 19:11:41.
