data_PCOD9546534
_publ_section_title
;
Structure prediction by ZEFSAII (Michael W. Deem and Ramdas Pophale) SiO2 
 PCOD9546534
Probable space group: I 41/A
;
_chemical_formula_sum "Si O2"
_cell_formula_units_Z 64
_cell_length_a 10.829328
_cell_length_b 10.829328
_cell_length_c 21.056127
_cell_angle_alpha 90.000000
_cell_angle_beta 90.000000
_cell_angle_gamma 90.000000
_cell_volume 2469.343501
_symmetry_space_group_name_H-M "I 41/A"
_symmetry_group_IT_number 88
_space_group.IT_coordinate_system_code '2'
_symmetry_cell_setting 'tetragonal'
loop_
_space_group_symop_operation_xyz
x,y,z
3/4-y,1/4+x,1/4+z
-x,1/2-y,z
1/4+y,1/4-x,1/4+z
-x,-y,-z
1/4+y,3/4-x,3/4-z
x,1/2+y,-z
3/4-y,3/4+x,3/4-z
1/2+x,1/2+y,1/2+z
1/4-y,3/4+x,3/4+z
1/2-x,-y,1/2+z
3/4+y,3/4-x,3/4+z
1/2-x,1/2-y,1/2-z
3/4+y,1/4-x,1/4-z
1/2+x,y,1/2-z
1/4-y,1/4+x,1/4-z
loop_
_atom_site_type_symbol
_atom_site_label
_atom_site_fract_x
_atom_site_fract_y
_atom_site_fract_z
Si Si1 0.461261 0.004342 0.638181
Si Si2 0.500000 0.750000 0.125000
Si Si3 0.261356 0.726189 0.445934
Si Si4 0.000000 0.750000 0.875000
Si Si5 0.000000 0.250000 0.394938
Si Si6 0.253250 0.422528 0.291943
O O1 0.510013 0.119698 0.678085
O O2 0.377413 0.756977 0.585206
O O3 0.530721 0.006232 0.569616
O O4 0.314746 0.990637 0.646247
O O5 0.469719 0.625588 0.165509
O O6 0.376814 0.727757 0.395827
O O7 0.292070 0.606100 0.489607
O O8 0.278304 0.867755 0.470731
#
# Coordination Sequence:
#
# PCOD9546534 Si02
#       6
#    16   4  16   4   8  16
#     4   9  19  37  61  90 130 174 223 285 348 412
#     4  12  28  50  68 100 152 194 240 306 360 422
#     4  11  26  44  69 102 140 187 243 297 359 428
#     4   8  16  30  56  84 116 174 220 264 336 402
#     4  10  22  38  60  93 130 171 224 283 346 413
#     4  10  23  41  69 103 138 186 239 294 360 429
#
# _framework density 25.917818
#
# number of rings (size 3 to 8) (size 9 to 14) (size 15 to 20)
#    0.000    2.000    0.000    1.500    0.000   22.000 
#    0.000    0.000    0.000    0.000    0.000    0.000 
#    0.000    0.000    0.000    0.000    0.000    0.000 
#
# Total GULP energy -178190.420425 kJ/mol
# GULP energy per Si atom -5568.450638 kJ/mol
# Density = 2.585883 g / cm^3
# Si number density = 25.917818 Si / 1000 Ang^3
#
#
#
# Elastic Constant Matrix: (Units=GPa)
#
#
# Indices 1 2 3 4 5 6 
#
# 1 233.6965 52.4383 63.4487 0.0000 0.0000 -11.5358
# 2 52.4383 233.6965 63.4487 0.0000 0.0000 11.5358
# 3 63.4487 63.4487 96.5098 0.0000 0.0000 0.0000
# 4 0.0000 0.0000 0.0000 41.5633 0.0000 0.0000
# 5 0.0000 0.0000 0.0000 0.0000 41.5633 0.0000
# 6 -11.5358 11.5358 0.0000 0.0000 0.0000 43.4153
#
#
#
# Elastic Compliance Matrix: (Units=1/GPa)
#
#
# Indices 1 2 3 4 5 6 
#
# 1 0.005322 -0.000388 -0.003243 0.000000 0.000000 0.001517
# 2 -0.000388 0.005322 -0.003243 0.000000 0.000000 -0.001517
# 3 -0.003243 -0.003243 0.014626 0.000000 0.000000 0.000000
# 4 0.000000 0.000000 0.000000 0.024060 0.000000 0.000000
# 5 0.000000 0.000000 0.000000 0.000000 0.024060 0.000000
# 6 0.001517 -0.001517 0.000000 0.000000 0.000000 0.023840
#
#
# Mechanical properties :
#
#
# Convention : Reuss Voigt Hill
#
# Bulk Modulus (GPa) = 86.80945 102.50825 94.65885
# Shear Modulus (GPa) = 43.54713 50.94618 47.24666
#
# Velocity S-wave (km/s) = 4.10347 4.43841 4.27422
# Velocity P-wave (km/s) = 7.48453 8.11807 7.80773
#
# Compressibility (1/GPa) = 0.01151948
#
# Stress axis : x y z
#
# Youngs Moduli (GPa) = 187.91153 187.91153 68.37109
#
# Poissons Ratio (x) = 0.07300 0.22174
# Poissons Ratio (y) = 0.07300 0.22174
# Poissons Ratio (z) = 0.60944 0.60944
#
# Static dielectric constant tensor:
#      x y z
#    x 2.248820 0.000000 0.000000 
#    y 0.000000 2.248820 0.000000 
#    z 0.000000 0.000000 2.186510 
# 
# From -- ./inp_files/5679.got.cif
#   From: 2010.05.17/outbox.cif.g08.bks.cpg/sg88_3_cif.got.tgz:5679.got - 2010.06.03 19:11:41.
