data_PCOD9546275
_publ_section_title
;
Structure prediction by ZEFSAII (Michael W. Deem and Ramdas Pophale) SiO2 
 PCOD9546275
Probable space group: I 41/A
;
_chemical_formula_sum "Si O2"
_cell_formula_units_Z 112
_cell_length_a 15.298112
_cell_length_b 15.298112
_cell_length_c 23.316610
_cell_angle_alpha 90.000000
_cell_angle_beta 90.000000
_cell_angle_gamma 90.000000
_cell_volume 5456.838252
_symmetry_space_group_name_H-M "I 41/A"
_symmetry_group_IT_number 88
_space_group.IT_coordinate_system_code '2'
_symmetry_cell_setting 'tetragonal'
loop_
_space_group_symop_operation_xyz
x,y,z
3/4-y,1/4+x,1/4+z
-x,1/2-y,z
1/4+y,1/4-x,1/4+z
-x,-y,-z
1/4+y,3/4-x,3/4-z
x,1/2+y,-z
3/4-y,3/4+x,3/4-z
1/2+x,1/2+y,1/2+z
1/4-y,3/4+x,3/4+z
1/2-x,-y,1/2+z
3/4+y,3/4-x,3/4+z
1/2-x,1/2-y,1/2-z
3/4+y,1/4-x,1/4-z
1/2+x,y,1/2-z
1/4-y,1/4+x,1/4-z
loop_
_atom_site_type_symbol
_atom_site_label
_atom_site_fract_x
_atom_site_fract_y
_atom_site_fract_z
Si Si1 0.022066 0.149092 0.303324
Si Si2 0.511152 0.101860 0.982635
Si Si3 0.703459 0.403537 0.840148
Si Si4 0.348178 0.540904 0.795352
Si Si5 0.895596 0.902548 0.208930
Si Si6 0.342825 0.461702 0.262487
Si Si7 0.634884 0.667524 0.916471
O O1 0.080389 0.105084 0.253417
O O2 0.084571 0.141217 0.359184
O O3 0.000000 0.250000 0.292547
O O4 0.928888 0.101844 0.313221
O O5 0.565478 0.100225 0.923918
O O6 0.419898 0.150103 0.990724
O O7 0.571739 0.143146 0.031219
O O8 0.500000 0.000000 0.000000
O O9 0.715149 0.421723 0.907151
O O10 0.804320 0.388079 0.822492
O O11 0.670337 0.477036 0.794969
O O12 0.386589 0.494954 0.739012
O O13 0.252288 0.577706 0.778877
O O14 0.978362 0.896568 0.168377
O O15 0.372622 0.524283 0.315033
#
# Coordination Sequence:
#
# PCOD9546275 Si02
#       7
#    16  16  16  16  16  16  16
#     4  12  24  40  66  96 120 169 225 268 326 398
#     4   9  17  30  50  83 121 159 198 254 308 372
#     4   9  19  34  57  87 124 168 208 250 331 383
#     4  11  22  39  61  91 129 167 216 267 323 394
#     4  10  19  35  56  88 126 160 204 266 314 376
#     4  10  23  40  61  95 133 168 209 278 331 384
#     4  11  20  38  63  88 124 161 217 262 318 391
#
# _framework density 20.524705999999998
#
# number of rings (size 3 to 8) (size 9 to 14) (size 15 to 20)
#    0.000    1.714    1.429    5.571    0.000    1.714 
#    0.000    0.000    0.000    0.000    0.000    0.000 
#    0.000    0.000    0.000    0.000    0.000    0.000 
#
# Total GULP energy -312177.779862 kJ/mol
# GULP energy per Si atom -5574.603212 kJ/mol
# Density = 2.047799 g / cm^3
# Si number density = 20.524706 Si / 1000 Ang^3
#
#
#
# Elastic Constant Matrix: (Units=GPa)
#
#
# Indices 1 2 3 4 5 6 
#
# 1 89.6700 53.5815 27.5877 0.0000 0.0000 -3.3060
# 2 53.5815 89.6700 27.5877 0.0000 0.0000 3.3060
# 3 27.5877 27.5877 49.1486 0.0000 0.0000 0.0000
# 4 0.0000 0.0000 0.0000 24.2328 0.0000 0.0000
# 5 0.0000 0.0000 0.0000 0.0000 24.2328 0.0000
# 6 -3.3060 3.3060 0.0000 0.0000 0.0000 31.5297
#
#
#
# Elastic Compliance Matrix: (Units=1/GPa)
#
#
# Indices 1 2 3 4 5 6 
#
# 1 0.018579 -0.009673 -0.004999 0.000000 0.000000 0.002962
# 2 -0.009673 0.018579 -0.004999 0.000000 0.000000 -0.002962
# 3 -0.004999 -0.004999 0.025959 0.000000 0.000000 0.000000
# 4 0.000000 0.000000 0.000000 0.041266 0.000000 0.000000
# 5 0.000000 0.000000 0.000000 0.000000 0.041266 0.000000
# 6 0.002962 -0.002962 0.000000 0.000000 0.000000 0.032337
#
#
# Mechanical properties :
#
#
# Convention : Reuss Voigt Hill
#
# Bulk Modulus (GPa) = 42.06201 49.55583 45.80892
# Shear Modulus (GPa) = 22.19705 23.98117 23.08911
#
# Velocity S-wave (km/s) = 3.29215 3.42190 3.35765
# Velocity P-wave (km/s) = 5.91514 6.30947 6.11549
#
# Compressibility (1/GPa) = 0.02377442
#
# Stress axis : x y z
#
# Youngs Moduli (GPa) = 53.82324 53.82324 38.52282
#
# Poissons Ratio (x) = 0.52064 0.19258
# Poissons Ratio (y) = 0.52064 0.19258
# Poissons Ratio (z) = 0.26907 0.26907
#
# Static dielectric constant tensor:
#      x y z
#    x 2.151770 0.000000 0.000000 
#    y 0.000000 2.151770 0.000000 
#    z 0.000000 0.000000 1.793260 
# 
# From -- ./inp_files/5336.got.cif
#   From: 2010.05.17/outbox.cif.g08.bks.cpg/sg88_3_cif.got.tgz:5336.got - 2010.06.03 19:11:41.
