data_PCOD9546332
_publ_section_title
;
Structure prediction by ZEFSAII (Michael W. Deem and Ramdas Pophale) SiO2 
 PCOD9546332
Probable space group: I 41/A
;
_chemical_formula_sum "Si O2"
_cell_formula_units_Z 80
_cell_length_a 12.181068
_cell_length_b 12.181068
_cell_length_c 26.882309
_cell_angle_alpha 90.000000
_cell_angle_beta 90.000000
_cell_angle_gamma 90.000000
_cell_volume 3988.754471
_symmetry_space_group_name_H-M "I 41/A"
_symmetry_group_IT_number 88
_space_group.IT_coordinate_system_code '2'
_symmetry_cell_setting 'tetragonal'
loop_
_space_group_symop_operation_xyz
x,y,z
3/4-y,1/4+x,1/4+z
-x,1/2-y,z
1/4+y,1/4-x,1/4+z
-x,-y,-z
1/4+y,3/4-x,3/4-z
x,1/2+y,-z
3/4-y,3/4+x,3/4-z
1/2+x,1/2+y,1/2+z
1/4-y,3/4+x,3/4+z
1/2-x,-y,1/2+z
3/4+y,3/4-x,3/4+z
1/2-x,1/2-y,1/2-z
3/4+y,1/4-x,1/4-z
1/2+x,y,1/2-z
1/4-y,1/4+x,1/4-z
loop_
_atom_site_type_symbol
_atom_site_label
_atom_site_fract_x
_atom_site_fract_y
_atom_site_fract_z
Si Si1 0.069636 0.364065 0.243143
Si Si2 0.760211 0.976017 0.683862
Si Si3 0.131248 0.536955 0.092209
Si Si4 0.389469 0.818772 0.878783
Si Si5 0.730061 0.125817 0.030008
O O1 0.168337 0.388407 0.203718
O O2 0.125140 0.368915 0.297738
O O3 0.000000 0.250000 0.237562
O O4 0.989349 0.467479 0.237202
O O5 0.865383 0.911758 0.661585
O O6 0.713841 0.049391 0.638819
O O7 0.798936 0.039307 0.732707
O O8 0.175279 0.430419 0.063972
O O9 0.014798 0.538574 0.119151
O O10 0.500000 0.750000 0.874072
O O11 0.373696 0.862573 0.934265
#
# Coordination Sequence:
#
# PCOD9546332 Si02
#       5
#    16  16  16  16  16
#     4  11  20  35  61  87 119 152 186 238 293 346
#     4  10  21  37  56  86 122 148 194 237 287 344
#     4  10  20  35  56  84 117 151 191 233 283 348
#     4  11  21  37  59  85 117 155 194 236 288 347
#     4  10  21  36  57  85 118 155 188 238 289 343
#
# _framework density 20.056387000000001
#
# number of rings (size 3 to 8) (size 9 to 14) (size 15 to 20)
#    0.000    1.600    2.000    4.200    0.000    3.200 
#    0.000    1.000    4.400    1.200    0.000    0.000 
#    0.000    0.000    0.000    0.000    0.000    0.000 
#
# Total GULP energy -222904.866620 kJ/mol
# GULP energy per Si atom -5572.621665 kJ/mol
# Density = 2.001074 g / cm^3
# Si number density = 20.056387 Si / 1000 Ang^3
#
#
#
# Elastic Constant Matrix: (Units=GPa)
#
#
# Indices 1 2 3 4 5 6 
#
# 1 47.1150 6.0283 23.3342 0.0000 0.0000 -9.1567
# 2 6.0283 47.1150 23.3342 0.0000 0.0000 9.1567
# 3 23.3342 23.3342 119.8347 0.0000 0.0000 0.0000
# 4 0.0000 0.0000 0.0000 16.1131 0.0000 0.0000
# 5 0.0000 0.0000 0.0000 0.0000 16.1131 0.0000
# 6 -9.1567 9.1567 0.0000 0.0000 0.0000 19.6262
#
#
#
# Elastic Compliance Matrix: (Units=1/GPa)
#
#
# Indices 1 2 3 4 5 6 
#
# 1 0.026714 -0.004015 -0.004420 0.000000 0.000000 0.014337
# 2 -0.004015 0.026714 -0.004420 0.000000 0.000000 -0.014337
# 3 -0.004420 -0.004420 0.010066 0.000000 0.000000 0.000000
# 4 0.000000 0.000000 0.000000 0.062061 0.000000 0.000000
# 5 0.000000 0.000000 0.000000 0.000000 0.062061 0.000000
# 6 0.014337 -0.014337 0.000000 0.000000 0.000000 0.064330
#
#
# Mechanical properties :
#
#
# Convention : Reuss Voigt Hill
#
# Bulk Modulus (GPa) = 26.46655 35.49532 30.98093
# Shear Modulus (GPa) = 17.22651 21.12836 19.17744
#
# Velocity S-wave (km/s) = 2.93389 3.24921 3.09556
# Velocity P-wave (km/s) = 4.97007 5.64027 5.31574
#
# Compressibility (1/GPa) = 0.03778355
#
# Stress axis : x y z
#
# Youngs Moduli (GPa) = 37.43396 37.43396 99.34359
#
# Poissons Ratio (x) = 0.15031 0.43908
# Poissons Ratio (y) = 0.15031 0.43908
# Poissons Ratio (z) = 0.16545 0.16545
#
# Static dielectric constant tensor:
#      x y z
#    x 1.730980 0.000000 0.000000 
#    y 0.000000 1.730980 0.000000 
#    z 0.000000 0.000000 1.755160 
# 
# From -- ./inp_files/6327.got.cif
#   From: 2010.05.17/outbox.cif.g08.bks.cpg/sg88_4_cif.got.tgz:6327.got - 2010.06.03 19:11:41.
