data_PCOD9546921
_publ_section_title
;
Structure prediction by ZEFSAII (Michael W. Deem and Ramdas Pophale) SiO2 
 PCOD9546921
Probable space group: P 4 2 2
;
_chemical_formula_sum "Si O2"
_cell_formula_units_Z 52
_cell_length_a 16.536529
_cell_length_b 16.536529
_cell_length_c 8.711872
_cell_angle_alpha 90.000000
_cell_angle_beta 90.000000
_cell_angle_gamma 90.000000
_cell_volume 2382.320564
_symmetry_space_group_name_H-M "P 4 2 2"
_symmetry_group_IT_number 89
_symmetry_cell_setting 'tetragonal'
loop_
_space_group_symop_operation_xyz
x,y,z
-y,x,z
-x,-y,z
y,-x,z
x,-y,-z
-x,y,-z
y,x,-z
-y,-x,-z
loop_
_atom_site_type_symbol
_atom_site_label
_atom_site_fract_x
_atom_site_fract_y
_atom_site_fract_z
Si Si1 0.514906 0.814458 0.676246
Si Si2 0.333783 0.333783 0.000000
Si Si3 0.327426 0.642587 0.670619
Si Si4 0.636438 0.067024 0.386408
Si Si5 0.721846 0.957250 0.143969
Si Si6 0.259483 0.824327 0.615788
Si Si7 0.591746 0.165886 0.938513
O O1 0.500000 0.829646 0.500000
O O2 0.568610 0.734829 0.685716
O O3 0.571875 0.889309 0.721894
O O4 0.430684 0.811732 0.762700
O O5 0.359815 0.372213 0.836294
O O6 0.238515 0.355853 0.010237
O O7 0.366046 0.633955 0.500000
O O8 0.284495 0.732099 0.662950
O O9 0.676360 0.131556 0.502596
O O10 0.600051 0.000000 0.500000
O O11 0.699273 0.022052 0.275092
O O12 0.757055 0.880411 0.237453
O O13 0.641190 0.916288 0.069941
O O14 0.764944 0.000000 0.000000
O O15 0.184652 0.815349 0.500000
O O16 0.500000 0.165328 0.000000
#
# Coordination Sequence:
#
# PCOD9546921 Si02
#       7
#     8   4   8   8   8   8   8
#     4  12  22  36  59  94 125 167 226 264 324 402
#     4  12  24  44  62  89 126 162 233 292 312 398
#     4  11  21  38  66  89 119 165 227 282 319 378
#     4  10  21  36  57  89 136 178 213 261 324 399
#     4  11  24  38  57  92 135 175 218 272 331 411
#     4  10  19  39  63  86 121 179 227 273 322 379
#     4  12  25  40  61  91 128 178 223 270 348 403
#
# _framework density 21.827459000000001
#
# number of rings (size 3 to 8) (size 9 to 14) (size 15 to 20)
#    0.000    0.923    6.154    3.692    0.000    3.692 
#    0.000    0.000    0.000    0.231    0.000    0.000 
#    0.000   24.923   15.692    0.000    0.000    0.000 
#
# Total GULP energy -289895.575048 kJ/mol
# GULP energy per Si atom -5574.914905 kJ/mol
# Density = 2.177778 g / cm^3
# Si number density = 21.827459 Si / 1000 Ang^3
#
#
#
# Elastic Constant Matrix: (Units=GPa)
#
#
# Indices 1 2 3 4 5 6 
#
# 1 37.3657 37.6484 8.7453 0.0000 0.0000 0.0000
# 2 37.6484 37.3630 8.7452 0.0000 0.0000 0.0000
# 3 8.7453 8.7452 138.7162 0.0000 0.0000 0.0000
# 4 0.0000 0.0000 0.0000 37.7051 0.0000 0.0000
# 5 0.0000 0.0000 0.0000 0.0000 37.7054 0.0000
# 6 0.0000 0.0000 0.0000 0.0000 0.0000 15.4439
#
#
#
# Elastic Compliance Matrix: (Units=1/GPa)
#
#
# Indices 1 2 3 4 5 6 
#
# 1 -1.753478 1.767071 -0.000856 0.000000 0.000000 0.000000
# 2 1.767071 -1.753604 -0.000850 0.000000 0.000000 0.000000
# 3 -0.000856 -0.000850 0.007317 0.000000 0.000000 0.000000
# 4 0.000000 0.000000 0.000000 0.026522 0.000000 0.000000
# 5 0.000000 0.000000 0.000000 0.000000 0.026521 0.000000
# 6 0.000000 0.000000 0.000000 0.000000 0.000000 0.064751
#
#
# Mechanical properties :
#
#
# Convention : Reuss Voigt Hill
#
# Bulk Modulus (GPa) = 32.29505 35.96918 34.13212
# Shear Modulus (GPa) = -0.72439 28.72461 14.00011
#
# Velocity S-wave (km/s) = -0.57671 3.63159 2.53533
# Velocity P-wave (km/s) = 3.79266 5.83945 4.92359
#
# Compressibility (1/GPa) = 0.03096450
#
# Stress axis : x y z
#
# Youngs Moduli (GPa) = -0.57030 -0.57025 136.67712
#
# Poissons Ratio (x) = 1.00768 0.11699
# Poissons Ratio (y) = 1.00775 0.11618
# Poissons Ratio (z) = -0.00049 -0.00048
#
# Static dielectric constant tensor:
#      x y z
#    x 1.814360 0.000000 0.000000 
#    y 0.000000 1.814360 0.000000 
#    z 0.000000 0.000000 2.718840 
# 
# From -- ./inp_files/1214.got.cif
#   From: 2010.05.17/outbox.cif.g08.bks.cpg/sg89_1_cif.got.tgz:1214.got - 2010.06.03 19:15:31.
