data_PCOD9546718
_publ_section_title
;
Structure prediction by ZEFSAII (Michael W. Deem and Ramdas Pophale) SiO2 
 PCOD9546718
Probable space group: I 41/A
;
_chemical_formula_sum "Si O2"
_cell_formula_units_Z 68
_cell_length_a 14.648295
_cell_length_b 14.648295
_cell_length_c 13.781913
_cell_angle_alpha 90.000000
_cell_angle_beta 90.000000
_cell_angle_gamma 90.000000
_cell_volume 2957.220167
_symmetry_space_group_name_H-M "I 41/A"
_symmetry_group_IT_number 88
_space_group.IT_coordinate_system_code '2'
_symmetry_cell_setting 'tetragonal'
loop_
_space_group_symop_operation_xyz
x,y,z
3/4-y,1/4+x,1/4+z
-x,1/2-y,z
1/4+y,1/4-x,1/4+z
-x,-y,-z
1/4+y,3/4-x,3/4-z
x,1/2+y,-z
3/4-y,3/4+x,3/4-z
1/2+x,1/2+y,1/2+z
1/4-y,3/4+x,3/4+z
1/2-x,-y,1/2+z
3/4+y,3/4-x,3/4+z
1/2-x,1/2-y,1/2-z
3/4+y,1/4-x,1/4-z
1/2+x,y,1/2-z
1/4-y,1/4+x,1/4-z
loop_
_atom_site_type_symbol
_atom_site_label
_atom_site_fract_x
_atom_site_fract_y
_atom_site_fract_z
Si Si1 0.457818 0.075430 0.572096
Si Si2 0.000000 0.250000 0.625000
Si Si3 0.775922 0.594228 0.985627
Si Si4 0.652820 0.514466 0.146397
Si Si5 0.099722 0.661415 0.209924
O O1 0.406962 0.017840 0.655201
O O2 0.500000 0.000000 0.500000
O O3 0.374645 0.126956 0.519197
O O4 0.526486 0.144957 0.625009
O O5 0.983248 0.170292 0.545860
O O6 0.786992 0.490314 0.943972
O O7 0.703499 0.583513 0.072934
O O8 0.601398 0.566470 0.230668
O O9 0.585720 0.448151 0.089133
#
# Coordination Sequence:
#
# PCOD9546718 Si02
#       5
#    16   4  16  16  16
#     4  11  21  35  61  89 120 152 195 247 295 353
#     4  12  28  40  52  88 126 156 192 244 304 344
#     4   9  19  37  59  91 114 150 199 241 294 345
#     4   9  19  39  65  81 110 158 205 238 275 355
#     4  11  23  39  60  86 119 155 196 244 293 353
#
# _framework density 22.994565999999999
#
# number of rings (size 3 to 8) (size 9 to 14) (size 15 to 20)
#    0.000    1.882    2.353    1.412    0.000    2.824 
#    0.000    0.000    0.000    0.000    0.000    0.000 
#    0.000    0.000    0.000    0.000    0.000    0.000 
#
# Total GULP energy -189937.527200 kJ/mol
# GULP energy per Si atom -5586.397859 kJ/mol
# Density = 2.294223 g / cm^3
# Si number density = 22.994566 Si / 1000 Ang^3
#
#
#
# Elastic Constant Matrix: (Units=GPa)
#
#
# Indices 1 2 3 4 5 6 
#
# 1 26.3476 2.7260 1.5517 0.0000 0.0000 -2.5209
# 2 2.7260 26.3476 1.5517 0.0000 0.0000 2.5209
# 3 1.5517 1.5517 67.3459 0.0000 0.0000 0.0000
# 4 0.0000 0.0000 0.0000 47.2115 0.0000 0.0000
# 5 0.0000 0.0000 0.0000 0.0000 47.2115 0.0000
# 6 -2.5209 2.5209 0.0000 0.0000 0.0000 13.0230
#
#
#
# Elastic Compliance Matrix: (Units=1/GPa)
#
#
# Indices 1 2 3 4 5 6 
#
# 1 0.039319 -0.004839 -0.000794 0.000000 0.000000 0.008548
# 2 -0.004839 0.039319 -0.000794 0.000000 0.000000 -0.008548
# 3 -0.000794 -0.000794 0.014885 0.000000 0.000000 0.000000
# 4 0.000000 0.000000 0.000000 0.021181 0.000000 0.000000
# 5 0.000000 0.000000 0.000000 0.000000 0.021181 0.000000
# 6 0.008548 -0.008548 0.000000 0.000000 0.000000 0.080097
#
#
# Mechanical properties :
#
#
# Convention : Reuss Voigt Hill
#
# Bulk Modulus (GPa) = 12.39648 14.63332 13.51490
# Shear Modulus (GPa) = 19.55197 29.10331 24.32764
#
# Velocity S-wave (km/s) = 2.91913 3.56147 3.25618
# Velocity P-wave (km/s) = 4.09445 4.82594 4.47517
#
# Compressibility (1/GPa) = 0.08066805
#
# Stress axis : x y z
#
# Youngs Moduli (GPa) = 25.43276 25.43276 67.18029
#
# Poissons Ratio (x) = 0.12307 0.05337
# Poissons Ratio (y) = 0.12307 0.05337
# Poissons Ratio (z) = 0.02020 0.02020
#
# Static dielectric constant tensor:
#      x y z
#    x 1.892720 0.000000 0.000000 
#    y 0.000000 1.892720 0.000000 
#    z 0.000000 0.000000 1.890950 
# 
# From -- ./inp_files/3110.got.cif
#   From: 2010.05.17/outbox.cif.g08.bks.cpg/sg88_2_cif.got.tgz:3110.got - 2010.06.03 19:11:41.
