data_PCOD9546268
_publ_section_title
;
Structure prediction by ZEFSAII (Michael W. Deem and Ramdas Pophale) SiO2 
 PCOD9546268
Probable space group: I 41/A
;
_chemical_formula_sum "Si O2"
_cell_formula_units_Z 128
_cell_length_a 24.368160
_cell_length_b 24.368160
_cell_length_c 10.537186
_cell_angle_alpha 90.000000
_cell_angle_beta 90.000000
_cell_angle_gamma 90.000000
_cell_volume 6257.057144
_symmetry_space_group_name_H-M "I 41/A"
_symmetry_group_IT_number 88
_space_group.IT_coordinate_system_code '2'
_symmetry_cell_setting 'tetragonal'
loop_
_space_group_symop_operation_xyz
x,y,z
3/4-y,1/4+x,1/4+z
-x,1/2-y,z
1/4+y,1/4-x,1/4+z
-x,-y,-z
1/4+y,3/4-x,3/4-z
x,1/2+y,-z
3/4-y,3/4+x,3/4-z
1/2+x,1/2+y,1/2+z
1/4-y,3/4+x,3/4+z
1/2-x,-y,1/2+z
3/4+y,3/4-x,3/4+z
1/2-x,1/2-y,1/2-z
3/4+y,1/4-x,1/4-z
1/2+x,y,1/2-z
1/4-y,1/4+x,1/4-z
loop_
_atom_site_type_symbol
_atom_site_label
_atom_site_fract_x
_atom_site_fract_y
_atom_site_fract_z
Si Si1 0.436838 0.086918 0.996096
Si Si2 0.451602 0.829925 0.616448
Si Si3 0.645256 0.882933 0.797449
Si Si4 0.780232 0.157903 0.717576
Si Si5 0.120441 0.293358 0.867041
Si Si6 0.286141 0.996202 0.942870
Si Si7 0.245722 0.383026 0.456038
Si Si8 0.072763 0.715366 0.431769
O O1 0.379884 0.100698 0.064665
O O2 0.481131 0.111558 0.093759
O O3 0.441099 0.022057 0.980300
O O4 0.447773 0.117866 0.865023
O O5 0.517997 0.822065 0.612148
O O6 0.419542 0.862069 0.504964
O O7 0.440678 0.868508 0.738237
O O8 0.634219 0.937543 0.710823
O O9 0.710031 0.874380 0.828525
O O10 0.837609 0.176101 0.774196
O O11 0.770909 0.096231 0.764969
O O12 0.774170 0.159172 0.565423
O O13 0.059657 0.304770 0.813940
O O14 0.271793 0.057649 0.989015
O O15 0.244738 0.965205 0.039775
O O16 0.062355 0.779680 0.417529
#
# Coordination Sequence:
#
# PCOD9546268 Si02
#       8
#    16  16  16  16  16  16  16  16
#     4  10  19  37  62  85 124 159 197 253 321 385
#     4  11  26  45  67  88 125 178 221 265 311 377
#     4  11  21  40  66  92 125 166 220 255 324 383
#     4  10  21  35  59  90 127 158 200 257 327 381
#     4  11  22  38  57  91 122 157 211 257 315 375
#     4  10  19  34  56  87 119 161 211 252 308 380
#     4  10  19  37  66  90 123 169 206 261 314 395
#     4   9  20  33  58  92 120 150 205 269 311 354
#
# _framework density 20.456900999999998
#
# number of rings (size 3 to 8) (size 9 to 14) (size 15 to 20)
#    0.000    1.750    5.000    1.125    3.500    2.000 
#    0.000    1.875    0.000    0.000    0.000    0.000 
#    0.000    0.000    0.000    0.000    0.000    0.000 
#
# Total GULP energy -356505.057242 kJ/mol
# GULP energy per Si atom -5570.391519 kJ/mol
# Density = 2.041034 g / cm^3
# Si number density = 20.456901 Si / 1000 Ang^3
#
#
#
# Elastic Constant Matrix: (Units=GPa)
#
#
# Indices 1 2 3 4 5 6 
#
# 1 64.7813 19.3411 14.2280 0.0000 0.0000 -9.8637
# 2 19.3411 64.7813 14.2280 0.0000 0.0000 9.8637
# 3 14.2280 14.2280 43.2731 0.0000 0.0000 0.0000
# 4 0.0000 0.0000 0.0000 19.0121 0.0000 0.0000
# 5 0.0000 0.0000 0.0000 0.0000 19.0121 0.0000
# 6 -9.8637 9.8637 0.0000 0.0000 0.0000 15.3679
#
#
#
# Elastic Compliance Matrix: (Units=1/GPa)
#
#
# Indices 1 2 3 4 5 6 
#
# 1 0.021941 -0.008566 -0.004398 0.000000 0.000000 0.019581
# 2 -0.008566 0.021941 -0.004398 0.000000 0.000000 -0.019581
# 3 -0.004398 -0.004398 0.026001 0.000000 0.000000 0.000000
# 4 0.000000 0.000000 0.000000 0.052598 0.000000 0.000000
# 5 0.000000 0.000000 0.000000 0.000000 0.052598 0.000000
# 6 0.019581 -0.019581 0.000000 0.000000 0.000000 0.090207
#
#
# Mechanical properties :
#
#
# Convention : Reuss Voigt Hill
#
# Bulk Modulus (GPa) = 28.44115 29.82556 29.13336
# Shear Modulus (GPa) = 16.03952 19.01434 17.52693
#
# Velocity S-wave (km/s) = 2.80315 3.05205 2.93024
# Velocity P-wave (km/s) = 4.94065 5.19917 5.07156
#
# Compressibility (1/GPa) = 0.03516033
#
# Stress axis : x y z
#
# Youngs Moduli (GPa) = 45.57585 45.57585 38.46021
#
# Poissons Ratio (x) = 0.39042 0.16914
# Poissons Ratio (y) = 0.39042 0.16914
# Poissons Ratio (z) = 0.20043 0.20043
#
# Static dielectric constant tensor:
#      x y z
#    x 1.765210 0.000000 0.000000 
#    y 0.000000 1.765210 0.000000 
#    z 0.000000 0.000000 1.758610 
# 
# From -- ./inp_files/2768.got.cif
#   From: 2010.05.17/outbox.cif.g08.bks.cpg/sg88_2_cif.got.tgz:2768.got - 2010.06.03 19:11:41.
