data_PCOD9546075
_publ_section_title
;
Structure prediction by ZEFSAII (Michael W. Deem and Ramdas Pophale) SiO2 
 PCOD9546075
Probable space group: I 4/M
;
_chemical_formula_sum "Si O2"
_cell_formula_units_Z 120
_cell_length_a 13.312205
_cell_length_b 13.312205
_cell_length_c 32.188595
_cell_angle_alpha 90.000000
_cell_angle_beta 90.000000
_cell_angle_gamma 90.000000
_cell_volume 5704.295488
_symmetry_space_group_name_H-M "I 4/M"
_symmetry_group_IT_number 87
_symmetry_cell_setting 'tetragonal'
loop_
_space_group_symop_operation_xyz
x,y,z
-y,x,z
-x,-y,z
y,-x,z
-x,-y,-z
y,-x,-z
x,y,-z
-y,x,-z
1/2+x,1/2+y,1/2+z
1/2-y,1/2+x,1/2+z
1/2-x,1/2-y,1/2+z
1/2+y,1/2-x,1/2+z
1/2-x,1/2-y,1/2-z
1/2+y,1/2-x,1/2-z
1/2+x,1/2+y,1/2-z
1/2-y,1/2+x,1/2-z
loop_
_atom_site_type_symbol
_atom_site_label
_atom_site_fract_x
_atom_site_fract_y
_atom_site_fract_z
Si Si1 0.861842 0.698703 0.108005
Si Si2 0.651607 0.086399 0.707982
Si Si3 0.651317 0.732210 0.922626
Si Si4 0.064878 0.151399 0.342414
Si Si5 0.028551 0.166992 0.046070
Si Si6 0.868362 0.894535 0.500000
Si Si7 0.071366 0.357303 0.801519
Si Si8 0.619200 0.987079 0.452080
O O1 0.755482 0.753222 0.100437
O O2 0.947731 0.757492 0.082816
O O3 0.884882 0.688358 0.156506
O O4 0.855356 0.591108 0.084748
O O5 0.749133 0.102017 0.680416
O O6 0.682900 0.100736 0.756035
O O7 0.550418 0.146966 0.697012
O O8 0.611794 0.972092 0.701356
O O9 0.578332 0.674088 0.891012
O O10 0.591621 0.826116 0.941042
O O11 0.676388 0.656926 0.959778
O O12 0.948792 0.127798 0.332471
O O13 0.921839 0.111460 0.048249
O O14 0.036978 0.214904 0.000000
O O15 0.986358 0.865189 0.500000
O O16 0.645705 0.958254 0.500000
O O17 0.500000 0.000000 0.451078
#
# Coordination Sequence:
#
# PCOD9546075 Si02
#       8
#    16  16  16  16  16   8  16  16
#     4  12  25  39  69  98 129 169 226 275 334 391
#     4   9  19  41  68  90 131 169 211 272 336 403
#     4  12  25  40  61  88 131 169 218 267 326 388
#     4  11  23  40  63  94 130 174 221 269 331 404
#     4   9  21  42  65  89 126 176 228 279 336 400
#     4  11  22  38  61  84 120 171 219 258 314 383
#     4   9  20  39  66 100 124 166 220 271 337 404
#     4  11  26  42  59  92 135 175 220 274 327 381
#
# _framework density 21.036777000000001
#
# number of rings (size 3 to 8) (size 9 to 14) (size 15 to 20)
#    0.000    1.533    0.667    5.600    7.467    1.067 
#    0.000    7.333    0.000    1.600    0.000    0.000 
#    0.000    0.000    0.000    0.000    0.000    0.000 
#
# Total GULP energy -335378.907902 kJ/mol
# GULP energy per Si atom -5589.648465 kJ/mol
# Density = 2.098890 g / cm^3
# Si number density = 21.036777 Si / 1000 Ang^3
#
#
#
# Elastic Constant Matrix: (Units=GPa)
#
#
# Indices 1 2 3 4 5 6 
#
# 1 72.0024 3.9512 43.2927 0.0000 0.0000 -3.9015
# 2 3.9512 72.0024 43.2927 0.0000 0.0000 3.9015
# 3 43.2927 43.2927 158.5255 0.0000 0.0000 0.0000
# 4 0.0000 0.0000 0.0000 25.3612 0.0000 0.0000
# 5 0.0000 0.0000 0.0000 0.0000 25.3612 0.0000
# 6 -3.9015 3.9015 0.0000 0.0000 0.0000 17.1515
#
#
#
# Elastic Compliance Matrix: (Units=1/GPa)
#
#
# Indices 1 2 3 4 5 6 
#
# 1 0.017103 0.002015 -0.005221 0.000000 0.000000 0.003432
# 2 0.002015 0.017103 -0.005221 0.000000 0.000000 -0.003432
# 3 -0.005221 -0.005221 0.009160 0.000000 0.000000 0.000000
# 4 0.000000 0.000000 0.000000 0.039430 0.000000 0.000000
# 5 0.000000 0.000000 0.000000 0.000000 0.039430 0.000000
# 6 0.003432 -0.003432 0.000000 0.000000 0.000000 0.059865
#
#
# Mechanical properties :
#
#
# Convention : Reuss Voigt Hill
#
# Bulk Modulus (GPa) = 37.71971 53.73371 45.72671
# Shear Modulus (GPa) = 24.06352 27.70772 25.88562
#
# Velocity S-wave (km/s) = 3.38580 3.63314 3.51164
# Velocity P-wave (km/s) = 5.76664 6.57250 6.18271
#
# Compressibility (1/GPa) = 0.02651134
#
# Stress axis : x y z
#
# Youngs Moduli (GPa) = 58.46917 58.46917 109.17292
#
# Poissons Ratio (x) = -0.11780 0.56999
# Poissons Ratio (y) = -0.11780 0.56999
# Poissons Ratio (z) = 0.30527 0.30527
#
# Static dielectric constant tensor:
#      x y z
#    x 1.769970 0.000000 0.000000 
#    y 0.000000 1.769970 0.000000 
#    z 0.000000 0.000000 1.740550 
# 
# From -- ./inp_files/6744.got.cif
#   From: 2010.05.17/outbox.cif.g08.bks.cpg/sg87_4_cif.got.tgz:6744.got - 2010.06.03 19:07:00.
