data_PCOD9546128
_publ_section_title
;
Structure prediction by ZEFSAII (Michael W. Deem and Ramdas Pophale) SiO2 
 PCOD9546128
Probable space group: I 4/M
;
_chemical_formula_sum "Si O2"
_cell_formula_units_Z 64
_cell_length_a 12.541861
_cell_length_b 12.541861
_cell_length_c 17.671211
_cell_angle_alpha 90.000000
_cell_angle_beta 90.000000
_cell_angle_gamma 90.000000
_cell_volume 2779.651049
_symmetry_space_group_name_H-M "I 4/M"
_symmetry_group_IT_number 87
_symmetry_cell_setting 'tetragonal'
loop_
_space_group_symop_operation_xyz
x,y,z
-y,x,z
-x,-y,z
y,-x,z
-x,-y,-z
y,-x,-z
x,y,-z
-y,x,-z
1/2+x,1/2+y,1/2+z
1/2-y,1/2+x,1/2+z
1/2-x,1/2-y,1/2+z
1/2+y,1/2-x,1/2+z
1/2-x,1/2-y,1/2-z
1/2+y,1/2-x,1/2-z
1/2+x,1/2+y,1/2-z
1/2-y,1/2+x,1/2-z
loop_
_atom_site_type_symbol
_atom_site_label
_atom_site_fract_x
_atom_site_fract_y
_atom_site_fract_z
Si Si1 0.586737 0.651446 0.800705
Si Si2 0.630583 0.099994 0.776894
Si Si3 0.248620 0.313272 0.911418
Si Si4 0.863618 0.899659 0.909063
O O1 0.462709 0.638193 0.783277
O O2 0.628139 0.755225 0.758352
O O3 0.629836 0.665722 0.886398
O O4 0.529380 0.127626 0.723339
O O5 0.624389 0.164869 0.856146
O O6 0.223848 0.188776 0.895081
O O7 0.229821 0.334301 0.000000
O O8 0.978761 0.855246 0.882328
O O9 0.868215 0.907889 0.000000
#
# Coordination Sequence:
#
# PCOD9546128 Si02
#       4
#    16  16  16  16
#     4  11  25  47  75 103 138 195 249 290 350 434
#     4  11  25  48  75 104 144 191 239 295 362 438
#     4  11  24  42  70 107 144 185 237 302 360 416
#     4   8  16  32  56  93 140 181 221 279 352 417
#
# _framework density 23.024474000000001
#
# number of rings (size 3 to 8) (size 9 to 14) (size 15 to 20)
#    0.000    1.750    2.500    1.500    3.500    1.000 
#    0.000    6.250    0.000    0.000    0.000    0.000 
#    0.000    0.000    0.000    0.000    0.000    0.000 
#
# Total GULP energy -178499.206532 kJ/mol
# GULP energy per Si atom -5578.100204 kJ/mol
# Density = 2.297207 g / cm^3
# Si number density = 23.024474 Si / 1000 Ang^3
#
#
#
# Elastic Constant Matrix: (Units=GPa)
#
#
# Indices 1 2 3 4 5 6 
#
# 1 125.3428 20.3586 39.7237 0.0000 0.0000 9.7406
# 2 20.3586 125.3428 39.7237 0.0000 0.0000 -9.7406
# 3 39.7237 39.7237 137.0056 0.0000 0.0000 0.0000
# 4 0.0000 0.0000 0.0000 23.9983 0.0000 0.0000
# 5 0.0000 0.0000 0.0000 0.0000 23.9983 0.0000
# 6 9.7406 -9.7406 0.0000 0.0000 0.0000 15.8767
#
#
#
# Elastic Compliance Matrix: (Units=1/GPa)
#
#
# Indices 1 2 3 4 5 6 
#
# 1 0.009451 -0.001298 -0.002364 0.000000 0.000000 -0.006595
# 2 -0.001298 0.009451 -0.002364 0.000000 0.000000 0.006595
# 3 -0.002364 -0.002364 0.008670 0.000000 0.000000 0.000000
# 4 0.000000 0.000000 0.000000 0.041670 0.000000 0.000000
# 5 0.000000 0.000000 0.000000 0.000000 0.041670 0.000000
# 6 -0.006595 0.006595 0.000000 0.000000 0.000000 0.071077
#
#
# Mechanical properties :
#
#
# Convention : Reuss Voigt Hill
#
# Bulk Modulus (GPa) = 64.43562 65.25589 64.84576
# Shear Modulus (GPa) = 25.09894 31.96702 28.53298
#
# Velocity S-wave (km/s) = 3.30525 3.73016 3.52411
# Velocity P-wave (km/s) = 6.52784 6.85241 6.69209
#
# Compressibility (1/GPa) = 0.01551937
#
# Stress axis : x y z
#
# Youngs Moduli (GPa) = 105.81353 105.81353 115.34526
#
# Poissons Ratio (x) = 0.13739 0.27264
# Poissons Ratio (y) = 0.13739 0.27264
# Poissons Ratio (z) = 0.25011 0.25011
#
# Static dielectric constant tensor:
#      x y z
#    x 1.885450 0.000000 0.000000 
#    y 0.000000 1.885450 0.000000 
#    z 0.000000 0.000000 1.886750 
# 
# From -- ./inp_files/4183.got.cif
#   From: 2010.05.17/outbox.cif.g08.bks.cpg/sg87_3_cif.got.tgz:4183.got - 2010.06.03 19:07:00.
