data_PCOD9546827
_publ_section_title
;
Structure prediction by ZEFSAII (Michael W. Deem and Ramdas Pophale) SiO2 
 PCOD9546827
Probable space group: I 41/A
;
_chemical_formula_sum "Si O2"
_cell_formula_units_Z 80
_cell_length_a 14.097203
_cell_length_b 14.097203
_cell_length_c 14.649529
_cell_angle_alpha 90.000000
_cell_angle_beta 90.000000
_cell_angle_gamma 90.000000
_cell_volume 2911.317488
_symmetry_space_group_name_H-M "I 41/A"
_symmetry_group_IT_number 88
_space_group.IT_coordinate_system_code '2'
_symmetry_cell_setting 'tetragonal'
loop_
_space_group_symop_operation_xyz
x,y,z
3/4-y,1/4+x,1/4+z
-x,1/2-y,z
1/4+y,1/4-x,1/4+z
-x,-y,-z
1/4+y,3/4-x,3/4-z
x,1/2+y,-z
3/4-y,3/4+x,3/4-z
1/2+x,1/2+y,1/2+z
1/4-y,3/4+x,3/4+z
1/2-x,-y,1/2+z
3/4+y,3/4-x,3/4+z
1/2-x,1/2-y,1/2-z
3/4+y,1/4-x,1/4-z
1/2+x,y,1/2-z
1/4-y,1/4+x,1/4-z
loop_
_atom_site_type_symbol
_atom_site_label
_atom_site_fract_x
_atom_site_fract_y
_atom_site_fract_z
Si Si1 0.114696 0.662626 0.895053
Si Si2 0.847589 0.991129 0.995955
Si Si3 0.636046 0.912975 0.965541
Si Si4 0.038932 0.015350 0.378291
Si Si5 0.437751 0.583036 0.313546
O O1 0.111562 0.772431 0.911900
O O2 0.106862 0.612956 0.991715
O O3 0.201630 0.628199 0.833853
O O4 0.734087 0.176817 0.972944
O O5 0.901390 0.032288 0.906847
O O6 0.736389 0.968267 0.982647
O O7 0.573693 0.970774 0.890785
O O8 0.643665 0.800311 0.944049
O O9 0.577755 0.931079 0.058274
O O10 0.080319 0.112742 0.424991
#
# Coordination Sequence:
#
# PCOD9546827 Si02
#       5
#    16  16  16  16  16
#     4  11  26  51  82 119 168 216 281 352 427 515
#     4  12  26  50  81 122 163 223 281 349 435 515
#     4  11  28  50  84 123 172 226 288 360 436 520
#     4  11  27  51  84 126 167 227 292 363 442 522
#     4  12  27  52  86 122 175 221 289 362 436 526
#
# _framework density 27.47897
#
# number of rings (size 3 to 8) (size 9 to 14) (size 15 to 20)
#    0.000    0.600    0.000    6.000   11.200    0.000 
#   14.400    3.000    4.400    0.000    0.000    0.000 
#    0.000    0.000    0.000    0.000    0.000    0.000 
#
# Total GULP energy -223602.234245 kJ/mol
# GULP energy per Si atom -5590.055856 kJ/mol
# Density = 2.741643 g / cm^3
# Si number density = 27.478970 Si / 1000 Ang^3
#
#
#
# Elastic Constant Matrix: (Units=GPa)
#
#
# Indices 1 2 3 4 5 6 
#
# 1 192.0422 61.0271 51.8494 0.0000 0.0000 18.9717
# 2 61.0271 192.0422 51.8495 0.0000 0.0000 -18.9717
# 3 51.8494 51.8495 172.7059 0.0000 0.0000 0.0000
# 4 0.0000 0.0000 0.0000 39.4817 0.0000 0.0000
# 5 0.0000 0.0000 0.0000 0.0000 39.4817 0.0000
# 6 18.9717 -18.9717 0.0000 0.0000 0.0000 38.5822
#
#
#
# Elastic Compliance Matrix: (Units=1/GPa)
#
#
# Indices 1 2 3 4 5 6 
#
# 1 0.006703 -0.002197 -0.001353 0.000000 0.000000 -0.004376
# 2 -0.002197 0.006703 -0.001353 0.000000 0.000000 0.004376
# 3 -0.001353 -0.001353 0.006602 0.000000 0.000000 0.000000
# 4 0.000000 0.000000 0.000000 0.025328 0.000000 0.000000
# 5 0.000000 0.000000 0.000000 0.000000 0.025328 0.000000
# 6 -0.004376 0.004376 0.000000 0.000000 0.000000 0.030223
#
#
# Mechanical properties :
#
#
# Convention : Reuss Voigt Hill
#
# Bulk Modulus (GPa) = 98.00938 98.47138 98.24038
# Shear Modulus (GPa) = 43.82364 49.64675 46.73519
#
# Velocity S-wave (km/s) = 3.99784 4.25516 4.12850
# Velocity P-wave (km/s) = 7.55346 7.74951 7.65211
#
# Compressibility (1/GPa) = 0.01020310
#
# Stress axis : x y z
#
# Youngs Moduli (GPa) = 149.18749 149.18750 151.45977
#
# Poissons Ratio (x) = 0.32779 0.20488
# Poissons Ratio (y) = 0.32779 0.20488
# Poissons Ratio (z) = 0.20181 0.20181
#
# Static dielectric constant tensor:
#      x y z
#    x 2.277830 0.000000 0.000000 
#    y 0.000000 2.277830 0.000000 
#    z 0.000000 0.000000 2.159040 
# 
# From -- ./inp_files/4515.got.cif
#   From: 2010.05.17/outbox.cif.g08.bks.cpg/sg88_3_cif.got.tgz:4515.got - 2010.06.03 19:11:41.
