data_PCOD9546894
_publ_section_title
;
Structure prediction by ZEFSAII (Michael W. Deem and Ramdas Pophale) SiO2 
 PCOD9546894
Probable space group: P 4 2 2
;
_chemical_formula_sum "Si O2"
_cell_formula_units_Z 40
_cell_length_a 15.477815
_cell_length_b 15.477815
_cell_length_c 8.404311
_cell_angle_alpha 90.000000
_cell_angle_beta 90.000000
_cell_angle_gamma 90.000000
_cell_volume 2013.359915
_symmetry_space_group_name_H-M "P 4 2 2"
_symmetry_group_IT_number 89
_symmetry_cell_setting 'tetragonal'
loop_
_space_group_symop_operation_xyz
x,y,z
-y,x,z
-x,-y,z
y,-x,z
x,-y,-z
-x,y,-z
y,x,-z
-y,-x,-z
loop_
_atom_site_type_symbol
_atom_site_label
_atom_site_fract_x
_atom_site_fract_y
_atom_site_fract_z
Si Si1 0.444271 0.928506 0.332585
Si Si2 0.736797 0.521047 0.313079
Si Si3 0.805867 0.822808 0.306690
Si Si4 0.987159 0.755100 0.320494
Si Si5 0.689205 0.662229 0.814604
O O1 0.500000 0.919291 0.500000
O O2 0.442967 0.831875 0.270733
O O3 0.500000 0.000000 0.240261
O O4 0.346602 0.963482 0.338792
O O5 0.731357 0.500000 0.500000
O O6 0.724239 0.432632 0.220097
O O7 0.671332 0.596437 0.269132
O O8 0.812669 0.812669 0.500000
O O9 0.773912 0.917827 0.252040
O O10 0.734504 0.753946 0.253294
O O11 0.902608 0.800114 0.247146
O O12 0.000000 0.789698 0.500000
O O13 0.677627 0.677627 0.000000
#
# Coordination Sequence:
#
# PCOD9546894 Si02
#       5
#     8   8   8   8   8
#     4  10  17  29  57  90 121 150 203 264 321 364
#     4  11  23  40  67  92 120 165 218 257 308 379
#     4  10  21  37  62  91 126 169 219 265 319 379
#     4  10  18  33  57  93 128 162 210 274 323 367
#     4  12  25  42  61  92 134 169 204 260 321 379
#
# _framework density 19.867286
#
# number of rings (size 3 to 8) (size 9 to 14) (size 15 to 20)
#    0.000    1.400    4.000    3.600    5.600    0.800 
#    0.000    5.000    0.000    1.200    0.000    1.400 
#    0.000    0.000    0.000    0.000    0.000    0.000 
#
# Total GULP energy -223011.369121 kJ/mol
# GULP energy per Si atom -5575.284228 kJ/mol
# Density = 1.982207 g / cm^3
# Si number density = 19.867286 Si / 1000 Ang^3
#
#
#
# Elastic Constant Matrix: (Units=GPa)
#
#
# Indices 1 2 3 4 5 6 
#
# 1 148.7804 72.0728 26.7405 0.0000 0.0000 0.0000
# 2 72.0728 148.7804 26.7405 0.0000 0.0000 0.0000
# 3 26.7405 26.7405 39.6975 0.0000 0.0000 0.0000
# 4 0.0000 0.0000 0.0000 -85.1361 0.0000 0.0000
# 5 0.0000 0.0000 0.0000 0.0000 -85.1361 0.0000
# 6 0.0000 0.0000 0.0000 0.0000 0.0000 44.4075
#
#
#
# Elastic Compliance Matrix: (Units=1/GPa)
#
#
# Indices 1 2 3 4 5 6 
#
# 1 0.009223 -0.003813 -0.003645 0.000000 0.000000 0.000000
# 2 -0.003813 0.009223 -0.003645 0.000000 0.000000 0.000000
# 3 -0.003645 -0.003645 0.030100 0.000000 0.000000 0.000000
# 4 0.000000 0.000000 0.000000 -0.011746 0.000000 0.000000
# 5 0.000000 0.000000 0.000000 0.000000 -0.011746 0.000000
# 6 0.000000 0.000000 0.000000 0.000000 0.000000 0.022519
#
#
# Mechanical properties :
#
#
# Convention : Reuss Voigt Hill
#
# Bulk Modulus (GPa) = 37.96031 65.37398 51.66715
# Shear Modulus (GPa) = 63.64603 -11.05929 26.29337
#
# Velocity S-wave (km/s) = 5.66614 -2.36192 3.64187
# Velocity P-wave (km/s) = 7.87117 5.05357 6.61415
#
# Compressibility (1/GPa) = 0.02634330
#
# Stress axis : x y z
#
# Youngs Moduli (GPa) = 108.41907 108.41907 33.22209
#
# Poissons Ratio (x) = 0.41341 0.12108
# Poissons Ratio (y) = 0.41341 0.12108
# Poissons Ratio (z) = 0.39513 0.39513
#
# Static dielectric constant tensor:
#      x y z
#    x 1.725350 0.000000 0.000000 
#    y 0.000000 1.725350 0.000000 
#    z 0.000000 0.000000 1.720120 
# 
# From -- ./inp_files/1006.got.cif
#   From: 2010.05.17/outbox.cif.g08.bks.cpg/sg89_1_cif.got.tgz:1006.got - 2010.06.03 19:15:31.
