data_PCOD9546247
_publ_section_title
;
Structure prediction by ZEFSAII (Michael W. Deem and Ramdas Pophale) SiO2 
 PCOD9546247
Probable space group: I 41/A
;
_chemical_formula_sum "Si O2"
_cell_formula_units_Z 72
_cell_length_a 13.954716
_cell_length_b 13.954716
_cell_length_c 15.043675
_cell_angle_alpha 90.000000
_cell_angle_beta 90.000000
_cell_angle_gamma 90.000000
_cell_volume 2929.516491
_symmetry_space_group_name_H-M "I 41/A"
_symmetry_group_IT_number 88
_space_group.IT_coordinate_system_code '2'
_symmetry_cell_setting 'tetragonal'
loop_
_space_group_symop_operation_xyz
x,y,z
3/4-y,1/4+x,1/4+z
-x,1/2-y,z
1/4+y,1/4-x,1/4+z
-x,-y,-z
1/4+y,3/4-x,3/4-z
x,1/2+y,-z
3/4-y,3/4+x,3/4-z
1/2+x,1/2+y,1/2+z
1/4-y,3/4+x,3/4+z
1/2-x,-y,1/2+z
3/4+y,3/4-x,3/4+z
1/2-x,1/2-y,1/2-z
3/4+y,1/4-x,1/4-z
1/2+x,y,1/2-z
1/4-y,1/4+x,1/4-z
loop_
_atom_site_type_symbol
_atom_site_label
_atom_site_fract_x
_atom_site_fract_y
_atom_site_fract_z
Si Si1 0.486514 0.380073 0.138005
Si Si2 0.582273 0.558244 0.164459
Si Si3 0.500000 0.250000 0.767523
Si Si4 0.392313 0.833860 0.675735
Si Si5 0.840104 0.452446 0.857185
O O1 0.490682 0.495229 0.134803
O O2 0.452456 0.328736 0.048551
O O3 0.434761 0.344070 0.225773
O O4 0.602540 0.360834 0.139318
O O5 0.555994 0.666515 0.181768
O O6 0.667937 0.520466 0.102045
O O7 0.616513 0.522939 0.261751
O O8 0.474603 0.872417 0.608003
O O9 0.293269 0.890191 0.667611
#
# Coordination Sequence:
#
# PCOD9546247 Si02
#       5
#    16  16   8  16  16
#     4   9  20  35  55  96 134 183 229 280 367 420
#     4   9  19  38  61  95 142 185 230 296 364 429
#     4  10  18  38  63  94 144 181 242 300 346 460
#     4  11  19  33  56  93 137 179 228 286 369 438
#     4   9  19  38  56  92 137 180 232 293 355 426
#
# _framework density 24.577434
#
# number of rings (size 3 to 8) (size 9 to 14) (size 15 to 20)
#    1.333    1.111    2.222    1.333    0.000    0.000 
#    8.000   12.222    0.000    1.333    0.000    0.000 
#    0.000    3.556    0.000    0.222    0.000    0.000 
#
# Total GULP energy -200876.591979 kJ/mol
# GULP energy per Si atom -5579.905333 kJ/mol
# Density = 2.452149 g / cm^3
# Si number density = 24.577434 Si / 1000 Ang^3
#
#
#
# Elastic Constant Matrix: (Units=GPa)
#
#
# Indices 1 2 3 4 5 6 
#
# 1 116.8021 38.2763 27.4463 0.0000 0.0000 -16.6153
# 2 38.2763 116.8021 27.4463 0.0000 0.0000 16.6153
# 3 27.4463 27.4463 40.3257 0.0000 0.0000 0.0000
# 4 0.0000 0.0000 0.0000 32.6482 0.0000 0.0000
# 5 0.0000 0.0000 0.0000 0.0000 32.6482 0.0000
# 6 -16.6153 16.6153 0.0000 0.0000 0.0000 33.5485
#
#
#
# Elastic Compliance Matrix: (Units=1/GPa)
#
#
# Indices 1 2 3 4 5 6 
#
# 1 0.012303 -0.003808 -0.005782 0.000000 0.000000 0.007979
# 2 -0.003808 0.012303 -0.005782 0.000000 0.000000 -0.007979
# 3 -0.005782 -0.005782 0.032668 0.000000 0.000000 0.000000
# 4 0.000000 0.000000 0.000000 0.030630 0.000000 0.000000
# 5 0.000000 0.000000 0.000000 0.000000 0.030630 0.000000
# 6 0.007979 -0.007979 0.000000 0.000000 0.000000 0.037711
#
#
# Mechanical properties :
#
#
# Convention : Reuss Voigt Hill
#
# Bulk Modulus (GPa) = 37.69156 51.14086 44.41621
# Shear Modulus (GPa) = 25.53206 31.81973 28.67590
#
# Velocity S-wave (km/s) = 3.22660 3.60206 3.41949
# Velocity P-wave (km/s) = 5.40837 6.17681 5.80532
#
# Compressibility (1/GPa) = 0.02653114
#
# Stress axis : x y z
#
# Youngs Moduli (GPa) = 81.28009 81.28009 30.61071
#
# Poissons Ratio (x) = 0.30953 0.17698
# Poissons Ratio (y) = 0.30953 0.17698
# Poissons Ratio (z) = 0.46994 0.46994
#
# Static dielectric constant tensor:
#      x y z
#    x 2.017070 0.000000 0.000000 
#    y 0.000000 2.017070 0.000000 
#    z 0.000000 0.000000 2.039060 
# 
# From -- ./inp_files/3796.got.cif
#   From: 2010.05.17/outbox.cif.g08.bks.cpg/sg88_2_cif.got.tgz:3796.got - 2010.06.03 19:11:41.
