data_PCOD9546438
_publ_section_title
;
Structure prediction by ZEFSAII (Michael W. Deem and Ramdas Pophale) SiO2 
 PCOD9546438
Probable space group: I 41/A
;
_chemical_formula_sum "Si O2"
_cell_formula_units_Z 64
_cell_length_a 19.548469
_cell_length_b 19.548469
_cell_length_c 6.365021
_cell_angle_alpha 90.000000
_cell_angle_beta 90.000000
_cell_angle_gamma 90.000000
_cell_volume 2432.345930
_symmetry_space_group_name_H-M "I 41/A"
_symmetry_group_IT_number 88
_space_group.IT_coordinate_system_code '2'
_symmetry_cell_setting 'tetragonal'
loop_
_space_group_symop_operation_xyz
x,y,z
3/4-y,1/4+x,1/4+z
-x,1/2-y,z
1/4+y,1/4-x,1/4+z
-x,-y,-z
1/4+y,3/4-x,3/4-z
x,1/2+y,-z
3/4-y,3/4+x,3/4-z
1/2+x,1/2+y,1/2+z
1/4-y,3/4+x,3/4+z
1/2-x,-y,1/2+z
3/4+y,3/4-x,3/4+z
1/2-x,1/2-y,1/2-z
3/4+y,1/4-x,1/4-z
1/2+x,y,1/2-z
1/4-y,1/4+x,1/4-z
loop_
_atom_site_type_symbol
_atom_site_label
_atom_site_fract_x
_atom_site_fract_y
_atom_site_fract_z
Si Si1 0.331103 0.206947 0.517001
Si Si2 0.415851 0.799213 0.026246
Si Si3 0.167086 0.038207 0.038689
Si Si4 0.209332 0.662011 0.214637
O O1 0.409396 0.190352 0.573543
O O2 0.304632 0.162157 0.324916
O O3 0.285792 0.178272 0.713949
O O4 0.314296 0.287053 0.526991
O O5 0.467855 0.824460 0.212503
O O6 0.339771 0.818030 0.092239
O O7 0.210626 0.064802 0.237048
O O8 0.335204 0.054852 0.101018
#
# Coordination Sequence:
#
# PCOD9546438 Si02
#       4
#    16  16  16  16
#     4  10  21  37  57  80 108 142 178 218 265 317
#     4   9  18  35  58  81 108 142 176 213 262 319
#     4  12  24  37  56  80 108 142 180 224 268 313
#     4  10  21  37  57  80 108 142 178 218 265 317
#
# _framework density 26.312048000000001
#
# number of rings (size 3 to 8) (size 9 to 14) (size 15 to 20)
#    0.000    1.750    0.000    4.500    0.000    3.000 
#    0.000    0.000    0.000    0.000    0.000    0.000 
#    0.000    0.000    0.000    0.000    0.000    0.000 
#
# Total GULP energy -179141.624131 kJ/mol
# GULP energy per Si atom -5598.175754 kJ/mol
# Density = 2.625216 g / cm^3
# Si number density = 26.312048 Si / 1000 Ang^3
#
#
#
# Elastic Constant Matrix: (Units=GPa)
#
#
# Indices 1 2 3 4 5 6 
#
# 1 83.1833 -11.2521 11.1894 0.0000 0.0000 3.7870
# 2 -11.2521 83.1833 11.1894 0.0000 0.0000 -3.7870
# 3 11.1894 11.1894 28.4055 0.0000 0.0000 0.0000
# 4 0.0000 0.0000 0.0000 37.8730 0.0000 0.0000
# 5 0.0000 0.0000 0.0000 0.0000 37.8730 0.0000
# 6 3.7870 -3.7870 0.0000 0.0000 0.0000 28.2792
#
#
#
# Elastic Compliance Matrix: (Units=1/GPa)
#
#
# Indices 1 2 3 4 5 6 
#
# 1 0.013274 0.002570 -0.006241 0.000000 0.000000 -0.001433
# 2 0.002570 0.013274 -0.006241 0.000000 0.000000 0.001433
# 3 -0.006241 -0.006241 0.040121 0.000000 0.000000 0.000000
# 4 0.000000 0.000000 0.000000 0.026404 0.000000 0.000000
# 5 0.000000 0.000000 0.000000 0.000000 0.026404 0.000000
# 6 -0.001433 0.001433 0.000000 0.000000 0.000000 0.035746
#
#
# Mechanical properties :
#
#
# Convention : Reuss Voigt Hill
#
# Bulk Modulus (GPa) = 21.34721 24.11395 22.73058
# Shear Modulus (GPa) = 26.22428 33.04806 29.63617
#
# Velocity S-wave (km/s) = 3.16042 3.54786 3.35973
# Velocity P-wave (km/s) = 4.63124 5.09584 4.86909
#
# Compressibility (1/GPa) = 0.04684452
#
# Stress axis : x y z
#
# Youngs Moduli (GPa) = 75.33497 75.33497 24.92435
#
# Poissons Ratio (x) = -0.19360 0.15556
# Poissons Ratio (y) = -0.19360 0.15556
# Poissons Ratio (z) = 0.47018 0.47018
#
# Static dielectric constant tensor:
#      x y z
#    x 1.986590 0.000000 0.000000 
#    y 0.000000 1.986590 0.000000 
#    z 0.000000 0.000000 2.085030 
# 
# From -- ./inp_files/2348.got.cif
#   From: 2010.05.17/outbox.cif.g08.bks.cpg/sg88_2_cif.got.tgz:2348.got - 2010.06.03 19:11:41.
