data_PCOD9546196
_publ_section_title
;
Structure prediction by ZEFSAII (Michael W. Deem and Ramdas Pophale) SiO2 
 PCOD9546196
Probable space group: I 41/A
;
_chemical_formula_sum "Si O2"
_cell_formula_units_Z 96
_cell_length_a 22.115782
_cell_length_b 22.115782
_cell_length_c 7.571375
_cell_angle_alpha 90.000000
_cell_angle_beta 90.000000
_cell_angle_gamma 90.000000
_cell_volume 3703.218671
_symmetry_space_group_name_H-M "I 41/A"
_symmetry_group_IT_number 88
_space_group.IT_coordinate_system_code '2'
_symmetry_cell_setting 'tetragonal'
loop_
_space_group_symop_operation_xyz
x,y,z
3/4-y,1/4+x,1/4+z
-x,1/2-y,z
1/4+y,1/4-x,1/4+z
-x,-y,-z
1/4+y,3/4-x,3/4-z
x,1/2+y,-z
3/4-y,3/4+x,3/4-z
1/2+x,1/2+y,1/2+z
1/4-y,3/4+x,3/4+z
1/2-x,-y,1/2+z
3/4+y,3/4-x,3/4+z
1/2-x,1/2-y,1/2-z
3/4+y,1/4-x,1/4-z
1/2+x,y,1/2-z
1/4-y,1/4+x,1/4-z
loop_
_atom_site_type_symbol
_atom_site_label
_atom_site_fract_x
_atom_site_fract_y
_atom_site_fract_z
Si Si1 0.949480 0.375227 0.631682
Si Si2 0.322226 0.510029 0.537565
Si Si3 0.020121 0.317006 0.331903
Si Si4 0.181415 0.607685 0.277843
Si Si5 0.529998 0.983915 0.188448
Si Si6 0.322666 0.311585 0.420275
O O1 0.941913 0.319400 0.762706
O O2 0.882312 0.401697 0.622897
O O3 0.998172 0.419328 0.723220
O O4 0.970383 0.356214 0.437641
O O5 0.307581 0.477573 0.353988
O O6 0.311748 0.457321 0.685843
O O7 0.388674 0.540619 0.546538
O O8 0.043493 0.356774 0.166446
O O9 0.000000 0.250000 0.296500
O O10 0.224029 0.649546 0.399710
O O11 0.177329 0.651835 0.106668
O O12 0.499762 0.033285 0.316777
O O13 0.500000 0.000000 0.000000
#
# Coordination Sequence:
#
# PCOD9546196 Si02
#       6
#    16  16  16  16  16  16
#     4  11  14  21  34  56  92 129 149 184 246 312
#     4  10  20  34  50  71 100 137 179 215 254 306
#     4  11  17  23  34  57  90 130 158 191 252 320
#     4   9  17  24  40  64  94 128 159 196 248 309
#     4  10  15  24  36  58  90 125 155 193 244 297
#     4   9  18  27  41  61  95 130 162 209 253 302
#
# _framework density 25.923396
#
# number of rings (size 3 to 8) (size 9 to 14) (size 15 to 20)
#    0.000    2.000    8.333    0.000    0.000    0.000 
#    0.000    0.000    0.000    0.000    0.000    1.167 
#    0.000    0.000    0.000   11.167    0.000    0.000 
#
# Total GULP energy -268041.250530 kJ/mol
# GULP energy per Si atom -5584.192719 kJ/mol
# Density = 2.586439 g / cm^3
# Si number density = 25.923396 Si / 1000 Ang^3
#
#
#
# Elastic Constant Matrix: (Units=GPa)
#
#
# Indices 1 2 3 4 5 6 
#
# 1 95.4982 64.9564 15.5158 0.0000 0.0000 -4.2144
# 2 64.9564 95.4982 15.5158 0.0000 0.0000 4.2144
# 3 15.5158 15.5158 51.4427 0.0000 0.0000 0.0000
# 4 0.0000 0.0000 0.0000 7.6402 0.0000 0.0000
# 5 0.0000 0.0000 0.0000 0.0000 7.6402 0.0000
# 6 -4.2144 4.2144 0.0000 0.0000 0.0000 30.6453
#
#
#
# Elastic Compliance Matrix: (Units=1/GPa)
#
#
# Indices 1 2 3 4 5 6 
#
# 1 0.020326 -0.013708 -0.001996 0.000000 0.000000 0.004680
# 2 -0.013708 0.020326 -0.001996 0.000000 0.000000 -0.004680
# 3 -0.001996 -0.001996 0.020643 0.000000 0.000000 0.000000
# 4 0.000000 0.000000 0.000000 0.130887 0.000000 0.000000
# 5 0.000000 0.000000 0.000000 0.000000 0.130887 0.000000
# 6 0.004680 -0.004680 0.000000 0.000000 0.000000 0.033919
#
#
# Mechanical properties :
#
#
# Convention : Reuss Voigt Hill
#
# Bulk Modulus (GPa) = 38.61718 48.26837 43.44277
# Shear Modulus (GPa) = 12.46822 18.94854 15.70838
#
# Velocity S-wave (km/s) = 2.19547 2.70653 2.46428
# Velocity P-wave (km/s) = 4.62123 5.33171 4.98913
#
# Compressibility (1/GPa) = 0.02589521
#
# Stress axis : x y z
#
# Youngs Moduli (GPa) = 49.19801 49.19801 48.44196
#
# Poissons Ratio (x) = 0.67439 0.09670
# Poissons Ratio (y) = 0.67439 0.09670
# Poissons Ratio (z) = 0.09821 0.09821
#
# Static dielectric constant tensor:
#      x y z
#    x 2.188530 0.000000 0.000000 
#    y 0.000000 2.188530 0.000000 
#    z 0.000000 0.000000 0.899280 
# 
# From -- ./inp_files/2683.got.cif
#   From: 2010.05.17/outbox.cif.g08.bks.cpg/sg88_2_cif.got.tgz:2683.got - 2010.06.03 19:11:41.
