data_PCOD9546583
_publ_section_title
;
Structure prediction by ZEFSAII (Michael W. Deem and Ramdas Pophale) SiO2 
 PCOD9546583
Probable space group: I 41/A
;
_chemical_formula_sum "Si O2"
_cell_formula_units_Z 72
_cell_length_a 17.981235
_cell_length_b 17.981235
_cell_length_c 9.401405
_cell_angle_alpha 90.000000
_cell_angle_beta 90.000000
_cell_angle_gamma 90.000000
_cell_volume 3039.707505
_symmetry_space_group_name_H-M "I 41/A"
_symmetry_group_IT_number 88
_space_group.IT_coordinate_system_code '2'
_symmetry_cell_setting 'tetragonal'
loop_
_space_group_symop_operation_xyz
x,y,z
3/4-y,1/4+x,1/4+z
-x,1/2-y,z
1/4+y,1/4-x,1/4+z
-x,-y,-z
1/4+y,3/4-x,3/4-z
x,1/2+y,-z
3/4-y,3/4+x,3/4-z
1/2+x,1/2+y,1/2+z
1/4-y,3/4+x,3/4+z
1/2-x,-y,1/2+z
3/4+y,3/4-x,3/4+z
1/2-x,1/2-y,1/2-z
3/4+y,1/4-x,1/4-z
1/2+x,y,1/2-z
1/4-y,1/4+x,1/4-z
loop_
_atom_site_type_symbol
_atom_site_label
_atom_site_fract_x
_atom_site_fract_y
_atom_site_fract_z
Si Si1 0.000000 0.750000 0.375000
Si Si2 0.500000 0.750000 0.625000
Si Si3 0.182645 0.016730 0.887947
Si Si4 0.576989 0.383580 0.720495
Si Si5 0.206432 0.353892 0.963806
Si Si6 0.851693 0.708624 0.756963
O O1 0.975215 0.678213 0.286818
O O2 0.544929 0.690587 0.530891
O O3 0.108238 0.062589 0.921761
O O4 0.191435 0.998980 0.721846
O O5 0.189409 0.935219 0.965116
O O6 0.591664 0.456922 0.811561
O O7 0.654994 0.349021 0.672785
O O8 0.535055 0.410014 0.576270
O O9 0.180837 0.296130 0.084587
#
# Coordination Sequence:
#
# PCOD9546583 Si02
#       6
#     4   4  16  16  16  16
#     4  12  34  52  66 104 160 206 236 294 392 472
#     4  12  22  36  68 102 152 198 240 308 374 420
#     4  10  22  42  67 106 146 186 251 320 377 444
#     4  12  26  50  70 107 149 195 251 308 375 453
#     4  11  23  42  80 104 144 183 255 317 364 446
#     4  11  23  41  70 107 141 191 248 308 370 436
#
# _framework density 23.686489999999999
#
# number of rings (size 3 to 8) (size 9 to 14) (size 15 to 20)
#    0.000    0.889    6.667    1.333    0.000    2.667 
#    0.000    0.000    0.000    0.000    0.000    0.000 
#    0.000    0.000    0.000    0.000    0.000    0.000 
#
# Total GULP energy -201332.927310 kJ/mol
# GULP energy per Si atom -5592.581314 kJ/mol
# Density = 2.363258 g / cm^3
# Si number density = 23.686490 Si / 1000 Ang^3
#
#
#
# Elastic Constant Matrix: (Units=GPa)
#
#
# Indices 1 2 3 4 5 6 
#
# 1 115.8515 59.3403 21.0121 0.0000 0.0000 -10.5761
# 2 59.3403 115.8515 21.0121 0.0000 0.0000 10.5761
# 3 21.0121 21.0121 29.1481 0.0000 0.0000 0.0000
# 4 0.0000 0.0000 0.0000 26.9296 0.0000 0.0000
# 5 0.0000 0.0000 0.0000 0.0000 26.9296 0.0000
# 6 -10.5761 10.5761 0.0000 0.0000 0.0000 50.8815
#
#
#
# Elastic Compliance Matrix: (Units=1/GPa)
#
#
# Indices 1 2 3 4 5 6 
#
# 1 0.013045 -0.006144 -0.004975 0.000000 0.000000 0.003988
# 2 -0.006144 0.013045 -0.004975 0.000000 0.000000 -0.003988
# 3 -0.004975 -0.004975 0.041480 0.000000 0.000000 0.000000
# 4 0.000000 0.000000 0.000000 0.037134 0.000000 0.000000
# 5 0.000000 0.000000 0.000000 0.000000 0.037134 0.000000
# 6 0.003988 -0.003988 0.000000 0.000000 0.000000 0.021312
#
#
# Mechanical properties :
#
#
# Convention : Reuss Voigt Hill
#
# Bulk Modulus (GPa) = 28.26218 51.50891 39.88554
# Shear Modulus (GPa) = 24.13927 31.58056 27.85992
#
# Velocity S-wave (km/s) = 3.19582 3.65536 3.43329
# Velocity P-wave (km/s) = 5.05721 6.29356 5.70895
#
# Compressibility (1/GPa) = 0.03538298
#
# Stress axis : x y z
#
# Youngs Moduli (GPa) = 76.65798 76.65798 24.10777
#
# Poissons Ratio (x) = 0.47095 0.11994
# Poissons Ratio (y) = 0.47095 0.11994
# Poissons Ratio (z) = 0.38138 0.38138
#
# Static dielectric constant tensor:
#      x y z
#    x 1.923040 0.000000 0.000000 
#    y 0.000000 1.923040 0.000000 
#    z 0.000000 0.000000 1.922860 
# 
# From -- ./inp_files/2464.got.cif
#   From: 2010.05.17/outbox.cif.g08.bks.cpg/sg88_2_cif.got.tgz:2464.got - 2010.06.03 19:11:41.
