data_PCOD9546726
_publ_section_title
;
Structure prediction by ZEFSAII (Michael W. Deem and Ramdas Pophale) SiO2 
 PCOD9546726
Probable space group: I 41/A
;
_chemical_formula_sum "Si O2"
_cell_formula_units_Z 108
_cell_length_a 13.413329
_cell_length_b 13.413329
_cell_length_c 29.083626
_cell_angle_alpha 90.000000
_cell_angle_beta 90.000000
_cell_angle_gamma 90.000000
_cell_volume 5232.650223
_symmetry_space_group_name_H-M "I 41/A"
_symmetry_group_IT_number 88
_space_group.IT_coordinate_system_code '2'
_symmetry_cell_setting 'tetragonal'
loop_
_space_group_symop_operation_xyz
x,y,z
3/4-y,1/4+x,1/4+z
-x,1/2-y,z
1/4+y,1/4-x,1/4+z
-x,-y,-z
1/4+y,3/4-x,3/4-z
x,1/2+y,-z
3/4-y,3/4+x,3/4-z
1/2+x,1/2+y,1/2+z
1/4-y,3/4+x,3/4+z
1/2-x,-y,1/2+z
3/4+y,3/4-x,3/4+z
1/2-x,1/2-y,1/2-z
3/4+y,1/4-x,1/4-z
1/2+x,y,1/2-z
1/4-y,1/4+x,1/4-z
loop_
_atom_site_type_symbol
_atom_site_label
_atom_site_fract_x
_atom_site_fract_y
_atom_site_fract_z
Si Si1 0.391380 0.799532 0.515173
Si Si2 0.691059 0.667275 0.969616
Si Si3 0.780059 0.019902 0.855566
Si Si4 0.841907 0.336711 0.909972
Si Si5 0.321179 0.324848 0.922972
Si Si6 0.360364 0.183016 0.356320
Si Si7 0.000000 0.250000 0.413010
Si Si8 0.500000 0.750000 0.125000
O O1 0.500000 0.750000 0.520960
O O2 0.296665 0.730125 0.530019
O O3 0.384036 0.830592 0.461991
O O4 0.398605 0.885041 0.553599
O O5 0.697918 0.558797 0.945627
O O6 0.596136 0.721179 0.944850
O O7 0.676670 0.651346 0.023641
O O8 0.736962 0.099168 0.890609
O O9 0.699772 0.931611 0.853829
O O10 0.889293 0.989501 0.873383
O O11 0.736573 0.279297 0.915135
O O12 0.910902 0.283657 0.871772
O O13 0.433576 0.319189 0.906391
O O14 0.380088 0.298236 0.366293
#
# Coordination Sequence:
#
# PCOD9546726 Si02
#       8
#    16  16  16  16  16  16   8   4
#     4  11  21  43  65  99 138 178 228 274 345 428
#     4  11  25  43  69 103 137 182 232 290 346 428
#     4  12  24  43  65 102 135 176 229 283 343 413
#     4  11  25  41  68  98 135 178 216 291 345 411
#     4  11  25  45  69  97 134 175 234 282 352 409
#     4  11  21  39  63  93 136 180 216 264 332 409
#     4  12  23  48  68  99 141 180 232 291 360 402
#     4  12  22  52  68  92 128 188 224 302 348 408
#
# _framework density 20.639637
#
# number of rings (size 3 to 8) (size 9 to 14) (size 15 to 20)
#    0.000    0.741    6.667    1.333    2.074    0.000 
#    0.000    2.963    0.000    0.000    0.000    0.000 
#    0.000    0.000    0.000    0.000    0.000    0.000 
#
# Total GULP energy -301208.630312 kJ/mol
# GULP energy per Si atom -5577.937598 kJ/mol
# Density = 2.059266 g / cm^3
# Si number density = 20.639637 Si / 1000 Ang^3
#
#
#
# Elastic Constant Matrix: (Units=GPa)
#
#
# Indices 1 2 3 4 5 6 
#
# 1 60.5324 22.2239 30.8729 0.0000 0.0000 -1.8374
# 2 22.2239 60.5324 30.8729 0.0000 0.0000 1.8374
# 3 30.8729 30.8729 119.4963 0.0000 0.0000 0.0000
# 4 0.0000 0.0000 0.0000 22.8455 0.0000 0.0000
# 5 0.0000 0.0000 0.0000 0.0000 22.8455 0.0000
# 6 -1.8374 1.8374 0.0000 0.0000 0.0000 36.0561
#
#
#
# Elastic Compliance Matrix: (Units=1/GPa)
#
#
# Indices 1 2 3 4 5 6 
#
# 1 0.020601 -0.005631 -0.003867 0.000000 0.000000 0.001337
# 2 -0.005631 0.020601 -0.003867 0.000000 0.000000 -0.001337
# 3 -0.003867 -0.003867 0.010367 0.000000 0.000000 0.000000
# 4 0.000000 0.000000 0.000000 0.043772 0.000000 0.000000
# 5 0.000000 0.000000 0.000000 0.000000 0.043772 0.000000
# 6 0.001337 -0.001337 0.000000 0.000000 0.000000 0.027871
#
#
# Mechanical properties :
#
#
# Convention : Reuss Voigt Hill
#
# Bulk Modulus (GPa) = 40.26486 45.38895 42.82690
# Shear Modulus (GPa) = 24.75314 26.78886 25.77100
#
# Velocity S-wave (km/s) = 3.46685 3.60659 3.53741
# Velocity P-wave (km/s) = 5.96458 6.27553 6.12203
#
# Compressibility (1/GPa) = 0.02483555
#
# Stress axis : x y z
#
# Youngs Moduli (GPa) = 48.54214 48.54214 96.46149
#
# Poissons Ratio (x) = 0.27336 0.37306
# Poissons Ratio (y) = 0.27336 0.37306
# Poissons Ratio (z) = 0.18773 0.18773
#
# Static dielectric constant tensor:
#      x y z
#    x 1.763560 0.000000 0.000000 
#    y 0.000000 1.763560 0.000000 
#    z 0.000000 0.000000 1.798250 
# 
# From -- ./inp_files/5913.got.cif
#   From: 2010.05.17/outbox.cif.g08.bks.cpg/sg88_3_cif.got.tgz:5913.got - 2010.06.03 19:11:41.
