data_PCOD9546600
_publ_section_title
;
Structure prediction by ZEFSAII (Michael W. Deem and Ramdas Pophale) SiO2 
 PCOD9546600
Probable space group: I 41/A
;
_chemical_formula_sum "Si O2"
_cell_formula_units_Z 64
_cell_length_a 10.062773
_cell_length_b 10.062773
_cell_length_c 25.219085
_cell_angle_alpha 90.000000
_cell_angle_beta 90.000000
_cell_angle_gamma 90.000000
_cell_volume 2553.669427
_symmetry_space_group_name_H-M "I 41/A"
_symmetry_group_IT_number 88
_space_group.IT_coordinate_system_code '2'
_symmetry_cell_setting 'tetragonal'
loop_
_space_group_symop_operation_xyz
x,y,z
3/4-y,1/4+x,1/4+z
-x,1/2-y,z
1/4+y,1/4-x,1/4+z
-x,-y,-z
1/4+y,3/4-x,3/4-z
x,1/2+y,-z
3/4-y,3/4+x,3/4-z
1/2+x,1/2+y,1/2+z
1/4-y,3/4+x,3/4+z
1/2-x,-y,1/2+z
3/4+y,3/4-x,3/4+z
1/2-x,1/2-y,1/2-z
3/4+y,1/4-x,1/4-z
1/2+x,y,1/2-z
1/4-y,1/4+x,1/4-z
loop_
_atom_site_type_symbol
_atom_site_label
_atom_site_fract_x
_atom_site_fract_y
_atom_site_fract_z
Si Si1 0.000000 0.250000 0.499475
Si Si2 0.127279 0.118659 0.594760
Si Si3 0.000000 0.250000 0.301058
Si Si4 0.701265 0.225887 0.462187
Si Si5 0.590356 0.505147 0.599579
O O1 0.054457 0.133207 0.538364
O O2 0.138188 0.292679 0.470452
O O3 0.169930 0.266658 0.612513
O O4 0.255388 0.033098 0.600418
O O5 0.026443 0.117241 0.265900
O O6 0.868397 0.245459 0.336959
O O7 0.690557 0.309010 0.407907
O O8 0.598833 0.106304 0.449015
#
# Coordination Sequence:
#
# PCOD9546600 Si02
#       5
#     8  16   8  16  16
#     4  10  22  46  70 109 141 202 260 318 390 464
#     4   9  22  43  69 106 151 189 251 326 388 453
#     4  12  27  51  72 113 157 214 259 335 400 478
#     4  12  27  46  76 109 155 208 264 323 406 482
#     4  12  27  46  75 111 156 206 265 323 397 490
#
# _framework density 25.061976999999999
#
# number of rings (size 3 to 8) (size 9 to 14) (size 15 to 20)
#    0.000    1.250    2.500    3.000    7.000    5.000 
#    0.000    0.000    0.000    0.000    0.000    0.000 
#    0.000    0.000    0.000    0.000    0.000    0.000 
#
# Total GULP energy -178686.696330 kJ/mol
# GULP energy per Si atom -5583.959260 kJ/mol
# Density = 2.500494 g / cm^3
# Si number density = 25.061977 Si / 1000 Ang^3
#
#
#
# Elastic Constant Matrix: (Units=GPa)
#
#
# Indices 1 2 3 4 5 6 
#
# 1 93.6632 14.9023 33.8539 0.0000 0.0000 -11.4644
# 2 14.9023 93.6632 33.8539 0.0000 0.0000 11.4644
# 3 33.8539 33.8539 92.4710 0.0000 0.0000 0.0000
# 4 0.0000 0.0000 0.0000 36.0599 0.0000 0.0000
# 5 0.0000 0.0000 0.0000 0.0000 36.0599 0.0000
# 6 -11.4644 11.4644 0.0000 0.0000 0.0000 42.9756
#
#
#
# Elastic Compliance Matrix: (Units=1/GPa)
#
#
# Indices 1 2 3 4 5 6 
#
# 1 0.012851 -0.000915 -0.004370 0.000000 0.000000 0.003672
# 2 -0.000915 0.012851 -0.004370 0.000000 0.000000 -0.003672
# 3 -0.004370 -0.004370 0.014014 0.000000 0.000000 0.000000
# 4 0.000000 0.000000 0.000000 0.027732 0.000000 0.000000
# 5 0.000000 0.000000 0.000000 0.000000 0.027732 0.000000
# 6 0.003672 -0.003672 0.000000 0.000000 0.000000 0.025228
#
#
# Mechanical properties :
#
#
# Convention : Reuss Voigt Hill
#
# Bulk Modulus (GPa) = 49.00305 49.44639 49.22472
# Shear Modulus (GPa) = 34.12527 36.16488 35.14508
#
# Velocity S-wave (km/s) = 3.69404 3.80283 3.74883
# Velocity P-wave (km/s) = 6.14734 6.24936 6.19856
#
# Compressibility (1/GPa) = 0.02040689
#
# Stress axis : x y z
#
# Youngs Moduli (GPa) = 77.81467 77.81468 71.35782
#
# Poissons Ratio (x) = 0.07118 0.31183
# Poissons Ratio (y) = 0.07118 0.31183
# Poissons Ratio (z) = 0.34004 0.34004
#
# Static dielectric constant tensor:
#      x y z
#    x 2.112860 0.000000 0.000000 
#    y 0.000000 2.112860 0.000000 
#    z 0.000000 0.000000 1.965270 
# 
# From -- ./inp_files/5166.got.cif
#   From: 2010.05.17/outbox.cif.g08.bks.cpg/sg88_3_cif.got.tgz:5166.got - 2010.06.03 19:11:41.
