data_PCOD9546826
_publ_section_title
;
Structure prediction by ZEFSAII (Michael W. Deem and Ramdas Pophale) SiO2 
 PCOD9546826
Probable space group: I 41/A
;
_chemical_formula_sum "Si O2"
_cell_formula_units_Z 32
_cell_length_a 10.642090
_cell_length_b 10.642090
_cell_length_c 12.318948
_cell_angle_alpha 90.000000
_cell_angle_beta 90.000000
_cell_angle_gamma 90.000000
_cell_volume 1395.171117
_symmetry_space_group_name_H-M "I 41/A"
_symmetry_group_IT_number 88
_space_group.IT_coordinate_system_code '2'
_symmetry_cell_setting 'tetragonal'
loop_
_space_group_symop_operation_xyz
x,y,z
3/4-y,1/4+x,1/4+z
-x,1/2-y,z
1/4+y,1/4-x,1/4+z
-x,-y,-z
1/4+y,3/4-x,3/4-z
x,1/2+y,-z
3/4-y,3/4+x,3/4-z
1/2+x,1/2+y,1/2+z
1/4-y,3/4+x,3/4+z
1/2-x,-y,1/2+z
3/4+y,3/4-x,3/4+z
1/2-x,1/2-y,1/2-z
3/4+y,1/4-x,1/4-z
1/2+x,y,1/2-z
1/4-y,1/4+x,1/4-z
loop_
_atom_site_type_symbol
_atom_site_label
_atom_site_fract_x
_atom_site_fract_y
_atom_site_fract_z
Si Si1 0.169132 0.688460 0.431749
Si Si2 0.451983 0.614220 0.427877
O O1 0.153967 0.805307 0.349767
O O2 0.301401 0.620314 0.425581
O O3 0.152723 0.741875 0.552892
O O4 0.500000 0.750000 0.467816
O O5 0.500000 0.500000 0.500000
#
# Coordination Sequence:
#
# PCOD9546826 Si02
#       2
#    16  16
#     4  11  26  51  80 110 155 223 274 327 413 509
#     4  12  30  46  79 120 166 212 277 350 419 490
#
# _framework density 22.936254000000002
#
# number of rings (size 3 to 8) (size 9 to 14) (size 15 to 20)
#    0.000    0.500    5.000    1.500   14.000    0.000 
#    0.000    0.000    0.000    0.000    0.000    0.000 
#    0.000    0.000    0.000    0.000    0.000    0.000 
#
# Total GULP energy -89673.667083 kJ/mol
# GULP energy per Si atom -5604.604193 kJ/mol
# Density = 2.288405 g / cm^3
# Si number density = 22.936254 Si / 1000 Ang^3
#
#
#
# Elastic Constant Matrix: (Units=GPa)
#
#
# Indices 1 2 3 4 5 6 
#
# 1 167.6904 45.4790 63.1979 0.0000 0.0000 -11.3202
# 2 45.4790 167.6904 63.1979 0.0000 0.0000 11.3202
# 3 63.1979 63.1979 155.7533 0.0000 0.0000 0.0000
# 4 0.0000 0.0000 0.0000 38.5752 0.0000 0.0000
# 5 0.0000 0.0000 0.0000 0.0000 38.5752 0.0000
# 6 -11.3202 11.3202 0.0000 0.0000 0.0000 28.0515
#
#
#
# Elastic Compliance Matrix: (Units=1/GPa)
#
#
# Indices 1 2 3 4 5 6 
#
# 1 0.007510 -0.001333 -0.002506 0.000000 0.000000 0.003569
# 2 -0.001333 0.007510 -0.002506 0.000000 0.000000 -0.003569
# 3 -0.002506 -0.002506 0.008454 0.000000 0.000000 0.000000
# 4 0.000000 0.000000 0.000000 0.025923 0.000000 0.000000
# 5 0.000000 0.000000 0.000000 0.000000 0.025923 0.000000
# 6 0.003569 -0.003569 0.000000 0.000000 0.000000 0.038529
#
#
# Mechanical properties :
#
#
# Convention : Reuss Voigt Hill
#
# Bulk Modulus (GPa) = 92.73753 92.76486 92.75119
# Shear Modulus (GPa) = 38.42071 42.32431 40.37251
#
# Velocity S-wave (km/s) = 4.09725 4.30036 4.20003
# Velocity P-wave (km/s) = 7.93119 8.07402 8.00293
#
# Compressibility (1/GPa) = 0.01078312
#
# Stress axis : x y z
#
# Youngs Moduli (GPa) = 133.14700 133.14700 118.28092
#
# Poissons Ratio (x) = 0.17751 0.29647
# Poissons Ratio (y) = 0.17751 0.29647
# Poissons Ratio (z) = 0.33373 0.33373
#
# Static dielectric constant tensor:
#      x y z
#    x 1.845120 0.000000 0.000000 
#    y 0.000000 1.845120 0.000000 
#    z 0.000000 0.000000 1.859630 
# 
# From -- ./inp_files/1936.got.cif
#   From: 2010.05.17/outbox.cif.g08.bks.cpg/sg88_1_cif.got.tgz:1936.got - 2010.06.03 19:11:41.
