data_PCOD9546530
_publ_section_title
;
Structure prediction by ZEFSAII (Michael W. Deem and Ramdas Pophale) SiO2 
 PCOD9546530
Probable space group: I 41/A
;
_chemical_formula_sum "Si O2"
_cell_formula_units_Z 80
_cell_length_a 13.493415
_cell_length_b 13.493415
_cell_length_c 19.762526
_cell_angle_alpha 90.000000
_cell_angle_beta 90.000000
_cell_angle_gamma 90.000000
_cell_volume 3598.207542
_symmetry_space_group_name_H-M "I 41/A"
_symmetry_group_IT_number 88
_space_group.IT_coordinate_system_code '2'
_symmetry_cell_setting 'tetragonal'
loop_
_space_group_symop_operation_xyz
x,y,z
3/4-y,1/4+x,1/4+z
-x,1/2-y,z
1/4+y,1/4-x,1/4+z
-x,-y,-z
1/4+y,3/4-x,3/4-z
x,1/2+y,-z
3/4-y,3/4+x,3/4-z
1/2+x,1/2+y,1/2+z
1/4-y,3/4+x,3/4+z
1/2-x,-y,1/2+z
3/4+y,3/4-x,3/4+z
1/2-x,1/2-y,1/2-z
3/4+y,1/4-x,1/4-z
1/2+x,y,1/2-z
1/4-y,1/4+x,1/4-z
loop_
_atom_site_type_symbol
_atom_site_label
_atom_site_fract_x
_atom_site_fract_y
_atom_site_fract_z
Si Si1 0.240663 0.761338 0.480739
Si Si2 0.597824 0.529188 0.904683
Si Si3 0.796719 0.560172 0.650728
Si Si4 0.429868 0.619526 0.974954
Si Si5 0.654541 0.724973 0.617181
O O1 0.253456 0.683783 0.421117
O O2 0.287502 0.864493 0.452479
O O3 0.126956 0.783533 0.499359
O O4 0.297179 0.735460 0.548698
O O5 0.716116 0.526386 0.906197
O O6 0.531379 0.620062 0.932120
O O7 0.560883 0.443841 0.956401
O O8 0.851057 0.567872 0.577252
O O9 0.736350 0.662083 0.657707
O O10 0.566956 0.648184 0.597307
#
# Coordination Sequence:
#
# PCOD9546530 Si02
#       5
#    16  16  16  16  16
#     4   9  18  33  56  83 112 146 182 222 276 333
#     4   9  16  30  57  83 111 145 177 220 275 332
#     4   9  18  34  58  83 109 144 180 224 279 331
#     4   8  16  31  52  83 115 142 178 219 267 334
#     4  10  22  38  55  76 105 142 187 236 277 319
#
# _framework density 22.233291000000001
#
# number of rings (size 3 to 8) (size 9 to 14) (size 15 to 20)
#    0.000    3.000    0.000    0.000    0.000    5.600 
#    0.000    2.000    0.000  114.600    0.000    0.000 
#    0.000    0.000    0.000    0.000    0.000    0.000 
#
# Total GULP energy -223086.620071 kJ/mol
# GULP energy per Si atom -5577.165502 kJ/mol
# Density = 2.218269 g / cm^3
# Si number density = 22.233291 Si / 1000 Ang^3
#
#
#
# Elastic Constant Matrix: (Units=GPa)
#
#
# Indices 1 2 3 4 5 6 
#
# 1 51.1686 9.6806 8.9456 0.0000 0.0000 -13.5966
# 2 9.6806 51.1686 8.9456 0.0000 0.0000 13.5966
# 3 8.9456 8.9456 55.6943 0.0000 0.0000 0.0000
# 4 0.0000 0.0000 0.0000 20.6366 0.0000 0.0000
# 5 0.0000 0.0000 0.0000 0.0000 20.6366 0.0000
# 6 -13.5966 13.5966 0.0000 0.0000 0.0000 16.4698
#
#
#
# Elastic Compliance Matrix: (Units=1/GPa)
#
#
# Indices 1 2 3 4 5 6 
#
# 1 0.034887 -0.017638 -0.002770 0.000000 0.000000 0.043361
# 2 -0.017638 0.034887 -0.002770 0.000000 0.000000 -0.043361
# 3 -0.002770 -0.002770 0.018845 0.000000 0.000000 0.000000
# 4 0.000000 0.000000 0.000000 0.048458 0.000000 0.000000
# 5 0.000000 0.000000 0.000000 0.000000 0.048458 0.000000
# 6 0.043361 -0.043361 0.000000 0.000000 0.000000 0.132311
#
#
# Mechanical properties :
#
#
# Convention : Reuss Voigt Hill
#
# Bulk Modulus (GPa) = 23.66275 23.68615 23.67445
# Shear Modulus (GPa) = 13.21742 20.24592 16.73167
#
# Velocity S-wave (km/s) = 2.44086 3.02091 2.74624
# Velocity P-wave (km/s) = 4.31390 4.77959 4.55270
#
# Compressibility (1/GPa) = 0.04226052
#
# Stress axis : x y z
#
# Youngs Moduli (GPa) = 28.66434 28.66434 53.06403
#
# Poissons Ratio (x) = 0.50558 0.14701
# Poissons Ratio (y) = 0.50558 0.14701
# Poissons Ratio (z) = 0.07941 0.07941
#
# Static dielectric constant tensor:
#      x y z
#    x 1.857820 0.000000 0.000000 
#    y 0.000000 1.857820 0.000000 
#    z 0.000000 0.000000 1.769750 
# 
# From -- ./inp_files/4509.got.cif
#   From: 2010.05.17/outbox.cif.g08.bks.cpg/sg88_3_cif.got.tgz:4509.got - 2010.06.03 19:11:41.
