data_PCOD9546621
_publ_section_title
;
Structure prediction by ZEFSAII (Michael W. Deem and Ramdas Pophale) SiO2 
 PCOD9546621
Probable space group: I 41/A
;
_chemical_formula_sum "Si O2"
_cell_formula_units_Z 80
_cell_length_a 15.888582
_cell_length_b 15.888582
_cell_length_c 15.446560
_cell_angle_alpha 90.000000
_cell_angle_beta 90.000000
_cell_angle_gamma 90.000000
_cell_volume 3899.438319
_symmetry_space_group_name_H-M "I 41/A"
_symmetry_group_IT_number 88
_space_group.IT_coordinate_system_code '2'
_symmetry_cell_setting 'tetragonal'
loop_
_space_group_symop_operation_xyz
x,y,z
3/4-y,1/4+x,1/4+z
-x,1/2-y,z
1/4+y,1/4-x,1/4+z
-x,-y,-z
1/4+y,3/4-x,3/4-z
x,1/2+y,-z
3/4-y,3/4+x,3/4-z
1/2+x,1/2+y,1/2+z
1/4-y,3/4+x,3/4+z
1/2-x,-y,1/2+z
3/4+y,3/4-x,3/4+z
1/2-x,1/2-y,1/2-z
3/4+y,1/4-x,1/4-z
1/2+x,y,1/2-z
1/4-y,1/4+x,1/4-z
loop_
_atom_site_type_symbol
_atom_site_label
_atom_site_fract_x
_atom_site_fract_y
_atom_site_fract_z
Si Si1 0.343409 0.022221 0.023650
Si Si2 0.765888 0.322294 0.958065
Si Si3 0.240239 0.358715 0.917982
Si Si4 0.837656 0.354034 0.222497
Si Si5 0.091252 0.097120 0.046176
O O1 0.400281 0.027544 0.108598
O O2 0.284171 0.941584 0.042503
O O3 0.289994 0.107266 0.006758
O O4 0.391346 0.005975 0.934093
O O5 0.729572 0.228684 0.959529
O O6 0.856704 0.328028 0.002651
O O7 0.142513 0.369752 0.942415
O O8 0.737458 0.356637 0.239938
O O9 0.869247 0.410087 0.141954
O O10 0.860968 0.258101 0.202367
#
# Coordination Sequence:
#
# PCOD9546621 Si02
#       5
#    16  16  16  16  16
#     4  10  23  42  61  90 126 160 219 268 314 384
#     4  11  22  39  64  89 122 169 212 263 325 383
#     4  11  22  39  64  89 122 169 212 263 325 383
#     4  11  23  39  60  91 130 168 211 267 328 393
#     4  11  23  39  60  91 130 168 211 267 328 393
#
# _framework density 20.515775000000001
#
# number of rings (size 3 to 8) (size 9 to 14) (size 15 to 20)
#    0.000    1.200    2.000    4.200    0.000    7.600 
#    0.000    0.000    0.000   19.200    0.000    0.000 
#    0.000    0.000    0.000    0.000    0.000    0.000 
#
# Total GULP energy -223492.485667 kJ/mol
# GULP energy per Si atom -5587.312142 kJ/mol
# Density = 2.046908 g / cm^3
# Si number density = 20.515775 Si / 1000 Ang^3
#
#
#
# Elastic Constant Matrix: (Units=GPa)
#
#
# Indices 1 2 3 4 5 6 
#
# 1 80.3924 5.4440 20.7414 0.0000 0.0000 -0.6043
# 2 5.4440 80.3924 20.7414 0.0000 0.0000 0.6043
# 3 20.7414 20.7414 64.9029 0.0000 0.0000 0.0000
# 4 0.0000 0.0000 0.0000 24.0870 0.0000 0.0000
# 5 0.0000 0.0000 0.0000 0.0000 24.0870 0.0000
# 6 -0.6043 0.6043 0.0000 0.0000 0.0000 12.4940
#
#
#
# Elastic Compliance Matrix: (Units=1/GPa)
#
#
# Indices 1 2 3 4 5 6 
#
# 1 0.013565 0.000213 -0.004403 0.000000 0.000000 0.000646
# 2 0.000213 0.013565 -0.004403 0.000000 0.000000 -0.000646
# 3 -0.004403 -0.004403 0.018222 0.000000 0.000000 0.000000
# 4 0.000000 0.000000 0.000000 0.041516 0.000000 0.000000
# 5 0.000000 0.000000 0.000000 0.000000 0.041516 0.000000
# 6 0.000646 -0.000646 0.000000 0.000000 0.000000 0.080101
#
#
# Mechanical properties :
#
#
# Convention : Reuss Voigt Hill
#
# Bulk Modulus (GPa) = 35.50452 35.50458 35.50455
# Shear Modulus (GPa) = 21.27097 24.05099 22.66098
#
# Velocity S-wave (km/s) = 3.22345 3.42763 3.32710
# Velocity P-wave (km/s) = 5.58549 5.74529 5.66595
#
# Compressibility (1/GPa) = 0.02816543
#
# Stress axis : x y z
#
# Youngs Moduli (GPa) = 73.71666 73.71666 54.87906
#
# Poissons Ratio (x) = -0.01567 0.24164
# Poissons Ratio (y) = -0.01567 0.24164
# Poissons Ratio (z) = 0.32458 0.32458
#
# Static dielectric constant tensor:
#      x y z
#    x 1.751440 0.000000 0.000000 
#    y 0.000000 1.751440 0.000000 
#    z 0.000000 0.000000 1.746330 
# 
# From -- ./inp_files/3155.got.cif
#   From: 2010.05.17/outbox.cif.g08.bks.cpg/sg88_2_cif.got.tgz:3155.got - 2010.06.03 19:11:41.
