data_PCOD9546367
_publ_section_title
;
Structure prediction by ZEFSAII (Michael W. Deem and Ramdas Pophale) SiO2 
 PCOD9546367
Probable space group: I 41/A
;
_chemical_formula_sum "Si O2"
_cell_formula_units_Z 96
_cell_length_a 19.969848
_cell_length_b 19.969848
_cell_length_c 11.560289
_cell_angle_alpha 90.000000
_cell_angle_beta 90.000000
_cell_angle_gamma 90.000000
_cell_volume 4610.183477
_symmetry_space_group_name_H-M "I 41/A"
_symmetry_group_IT_number 88
_space_group.IT_coordinate_system_code '2'
_symmetry_cell_setting 'tetragonal'
loop_
_space_group_symop_operation_xyz
x,y,z
3/4-y,1/4+x,1/4+z
-x,1/2-y,z
1/4+y,1/4-x,1/4+z
-x,-y,-z
1/4+y,3/4-x,3/4-z
x,1/2+y,-z
3/4-y,3/4+x,3/4-z
1/2+x,1/2+y,1/2+z
1/4-y,3/4+x,3/4+z
1/2-x,-y,1/2+z
3/4+y,3/4-x,3/4+z
1/2-x,1/2-y,1/2-z
3/4+y,1/4-x,1/4-z
1/2+x,y,1/2-z
1/4-y,1/4+x,1/4-z
loop_
_atom_site_type_symbol
_atom_site_label
_atom_site_fract_x
_atom_site_fract_y
_atom_site_fract_z
Si Si1 0.505403 0.363904 0.499070
Si Si2 0.511580 0.357947 0.246726
Si Si3 0.527894 0.405820 0.743041
Si Si4 0.705194 0.996200 0.128006
Si Si5 0.213916 0.812069 0.140362
Si Si6 0.652500 0.846483 0.140301
O O1 0.510880 0.394148 0.371478
O O2 0.554716 0.299426 0.496356
O O3 0.432565 0.330199 0.518407
O O4 0.525678 0.409732 0.605434
O O5 0.490416 0.408191 0.147997
O O6 0.546885 0.472586 0.811397
O O7 0.584980 0.353867 0.783709
O O8 0.454030 0.387112 0.787410
O O9 0.736922 0.994477 0.257884
O O10 0.676715 0.920736 0.107433
O O11 0.641871 0.046961 0.134233
O O12 0.210955 0.814354 0.279327
#
# Coordination Sequence:
#
# PCOD9546367 Si02
#       6
#    16  16  16  16  16  16
#     4   9  19  35  56  83 115 153 192 238 299 352
#     4   9  18  36  57  80 119 153 185 248 302 337
#     4  11  22  35  58  87 112 154 200 236 292 366
#     4   9  20  42  62  83 117 161 202 240 302 364
#     4  10  20  38  60  81 118 158 188 243 304 350
#     4  10  22  37  57  85 121 148 192 251 300 352
#
# _framework density 20.823466
#
# number of rings (size 3 to 8) (size 9 to 14) (size 15 to 20)
#    0.000    2.333    1.667    1.500    2.333    1.000 
#    3.000    1.667    0.000    0.000    0.000    0.000 
#    0.000    0.000    0.000    0.000    0.000    0.000 
#
# Total GULP energy -267292.678914 kJ/mol
# GULP energy per Si atom -5568.597477 kJ/mol
# Density = 2.077607 g / cm^3
# Si number density = 20.823466 Si / 1000 Ang^3
#
#
#
# Elastic Constant Matrix: (Units=GPa)
#
#
# Indices 1 2 3 4 5 6 
#
# 1 33.4745 -0.2454 17.6860 0.0000 0.0000 -0.8820
# 2 -0.2454 33.4745 17.6860 0.0000 0.0000 0.8820
# 3 17.6860 17.6860 115.3879 0.0000 0.0000 0.0000
# 4 0.0000 0.0000 0.0000 30.2738 0.0000 0.0000
# 5 0.0000 0.0000 0.0000 0.0000 30.2738 0.0000
# 6 -0.8820 0.8820 0.0000 0.0000 0.0000 18.4687
#
#
#
# Elastic Compliance Matrix: (Units=1/GPa)
#
#
# Indices 1 2 3 4 5 6 
#
# 1 0.032846 0.003116 -0.005512 0.000000 0.000000 0.001420
# 2 0.003116 0.032846 -0.005512 0.000000 0.000000 -0.001420
# 3 -0.005512 -0.005512 0.010356 0.000000 0.000000 0.000000
# 4 0.000000 0.000000 0.000000 0.033032 0.000000 0.000000
# 5 0.000000 0.000000 0.000000 0.000000 0.033032 0.000000
# 6 0.001420 -0.001420 0.000000 0.000000 0.000000 0.054281
#
#
# Mechanical properties :
#
#
# Convention : Reuss Voigt Hill
#
# Bulk Modulus (GPa) = 16.60269 28.06555 22.33412
# Shear Modulus (GPa) = 21.52512 25.61729 23.57121
#
# Velocity S-wave (km/s) = 3.21860 3.51124 3.36810
# Velocity P-wave (km/s) = 4.66936 5.47225 5.08667
#
# Compressibility (1/GPa) = 0.06023122
#
# Stress axis : x y z
#
# Youngs Moduli (GPa) = 30.44520 30.44520 96.56141
#
# Poissons Ratio (x) = -0.09485 0.53224
# Poissons Ratio (y) = -0.09485 0.53224
# Poissons Ratio (z) = 0.16781 0.16781
#
# Static dielectric constant tensor:
#      x y z
#    x 1.790330 0.000000 0.000000 
#    y 0.000000 1.790330 0.000000 
#    z 0.000000 0.000000 1.745090 
# 
# From -- ./inp_files/2620.got.cif
#   From: 2010.05.17/outbox.cif.g08.bks.cpg/sg88_2_cif.got.tgz:2620.got - 2010.06.03 19:11:41.
