data_PCOD9546169
_publ_section_title
;
Structure prediction by ZEFSAII (Michael W. Deem and Ramdas Pophale) SiO2 
 PCOD9546169
Probable space group: I 4/M
;
_chemical_formula_sum "Si O2"
_cell_formula_units_Z 72
_cell_length_a 15.380867
_cell_length_b 15.380867
_cell_length_c 16.254213
_cell_angle_alpha 90.000000
_cell_angle_beta 90.000000
_cell_angle_gamma 90.000000
_cell_volume 3845.276556
_symmetry_space_group_name_H-M "I 4/M"
_symmetry_group_IT_number 87
_symmetry_cell_setting 'tetragonal'
loop_
_space_group_symop_operation_xyz
x,y,z
-y,x,z
-x,-y,z
y,-x,z
-x,-y,-z
y,-x,-z
x,y,-z
-y,x,-z
1/2+x,1/2+y,1/2+z
1/2-y,1/2+x,1/2+z
1/2-x,1/2-y,1/2+z
1/2+y,1/2-x,1/2+z
1/2-x,1/2-y,1/2-z
1/2+y,1/2-x,1/2-z
1/2+x,1/2+y,1/2-z
1/2-y,1/2+x,1/2-z
loop_
_atom_site_type_symbol
_atom_site_label
_atom_site_fract_x
_atom_site_fract_y
_atom_site_fract_z
Si Si1 0.710364 0.154905 0.250778
Si Si2 0.607269 0.100912 0.091645
Si Si3 0.398513 0.105304 0.091024
Si Si4 0.946400 0.863294 0.000000
Si Si5 0.637659 0.447354 0.682415
O O1 0.750000 0.250000 0.250000
O O2 0.650778 0.143811 0.170240
O O3 0.656003 0.141670 0.333394
O O4 0.788744 0.085083 0.243834
O O5 0.503072 0.113815 0.095084
O O6 0.621584 0.997061 0.097350
O O7 0.636523 0.129589 0.000000
O O8 0.369338 0.134822 0.000000
O O9 0.931441 0.824226 0.089881
O O10 0.047134 0.892115 0.000000
O O11 0.608167 0.548005 0.690075
#
# Coordination Sequence:
#
# PCOD9546169 Si02
#       5
#    16  16  16   8  16
#     4  12  25  33  56  92 121 147 188 237 292 340
#     4   9  20  40  66  87 110 150 193 240 299 351
#     4   9  20  42  64  83 113 153 195 241 294 343
#     4   7  12  30  54  74  98 141 187 224 267 322
#     4   9  20  37  55  76 113 157 196 230 279 345
#
# _framework density 18.724271000000002
#
# number of rings (size 3 to 8) (size 9 to 14) (size 15 to 20)
#    0.000    2.556    0.000    4.000    7.778    2.667 
#    0.000    0.000    0.000    0.000    0.000    1.556 
#    0.000    0.000    0.000    0.000    0.000    0.000 
#
# Total GULP energy -200928.019452 kJ/mol
# GULP energy per Si atom -5581.333874 kJ/mol
# Density = 1.868165 g / cm^3
# Si number density = 18.724271 Si / 1000 Ang^3
#
#
#
# Elastic Constant Matrix: (Units=GPa)
#
#
# Indices 1 2 3 4 5 6 
#
# 1 46.5756 18.8632 57.2083 0.0000 0.0000 0.8576
# 2 18.8632 46.5756 57.2083 0.0000 0.0000 -0.8576
# 3 57.2083 57.2083 180.7752 0.0000 0.0000 0.0000
# 4 0.0000 0.0000 0.0000 15.1945 0.0000 0.0000
# 5 0.0000 0.0000 0.0000 0.0000 15.1945 0.0000
# 6 0.8576 -0.8576 0.0000 0.0000 0.0000 26.2000
#
#
#
# Elastic Compliance Matrix: (Units=1/GPa)
#
#
# Indices 1 2 3 4 5 6 
#
# 1 0.035185 -0.000974 -0.010826 0.000000 0.000000 -0.001184
# 2 -0.000974 0.035185 -0.010826 0.000000 0.000000 0.001184
# 3 -0.010826 -0.010826 0.012384 0.000000 0.000000 0.000000
# 4 0.000000 0.000000 0.000000 0.065813 0.000000 0.000000
# 5 0.000000 0.000000 0.000000 0.000000 0.065813 0.000000
# 6 -0.001184 0.001184 0.000000 0.000000 0.000000 0.038245
#
#
# Mechanical properties :
#
#
# Convention : Reuss Voigt Hill
#
# Bulk Modulus (GPa) = 26.66654 60.05398 43.36026
# Shear Modulus (GPa) = 16.10939 20.69425 18.40182
#
# Velocity S-wave (km/s) = 2.93635 3.32808 3.13833
# Velocity P-wave (km/s) = 5.07630 6.84913 6.02824
#
# Compressibility (1/GPa) = 0.03750017
#
# Stress axis : x y z
#
# Youngs Moduli (GPa) = 28.42155 28.42155 80.74934
#
# Poissons Ratio (x) = 0.02767 0.87423
# Poissons Ratio (y) = 0.02767 0.87423
# Poissons Ratio (z) = 0.30770 0.30770
#
# Static dielectric constant tensor:
#      x y z
#    x 1.648680 0.000000 0.000000 
#    y 0.000000 1.648680 0.000000 
#    z 0.000000 0.000000 1.657540 
# 
# From -- ./inp_files/4232.got.cif
#   From: 2010.05.17/outbox.cif.g08.bks.cpg/sg87_3_cif.got.tgz:4232.got - 2010.06.03 19:07:00.
