data_PCOD9546244
_publ_section_title
;
Structure prediction by ZEFSAII (Michael W. Deem and Ramdas Pophale) SiO2 
 PCOD9546244
Probable space group: I 41/A
;
_chemical_formula_sum "Si O2"
_cell_formula_units_Z 120
_cell_length_a 14.560406
_cell_length_b 14.560406
_cell_length_c 28.805105
_cell_angle_alpha 90.000000
_cell_angle_beta 90.000000
_cell_angle_gamma 90.000000
_cell_volume 6106.838467
_symmetry_space_group_name_H-M "I 41/A"
_symmetry_group_IT_number 88
_space_group.IT_coordinate_system_code '2'
_symmetry_cell_setting 'tetragonal'
loop_
_space_group_symop_operation_xyz
x,y,z
3/4-y,1/4+x,1/4+z
-x,1/2-y,z
1/4+y,1/4-x,1/4+z
-x,-y,-z
1/4+y,3/4-x,3/4-z
x,1/2+y,-z
3/4-y,3/4+x,3/4-z
1/2+x,1/2+y,1/2+z
1/4-y,3/4+x,3/4+z
1/2-x,-y,1/2+z
3/4+y,3/4-x,3/4+z
1/2-x,1/2-y,1/2-z
3/4+y,1/4-x,1/4-z
1/2+x,y,1/2-z
1/4-y,1/4+x,1/4-z
loop_
_atom_site_type_symbol
_atom_site_label
_atom_site_fract_x
_atom_site_fract_y
_atom_site_fract_z
Si Si1 0.686794 0.202254 0.038806
Si Si2 0.097427 0.528663 0.405718
Si Si3 0.761858 0.380422 0.991361
Si Si4 0.584389 0.876981 0.391154
Si Si5 0.000000 0.250000 0.740767
Si Si6 0.847361 0.843456 0.322188
Si Si7 0.415212 0.634987 0.843317
Si Si8 0.813218 0.981798 0.717114
O O1 0.678721 0.169085 0.091812
O O2 0.581425 0.205351 0.020561
O O3 0.722962 0.305540 0.027472
O O4 0.751499 0.136988 0.007659
O O5 0.114594 0.612157 0.369568
O O6 0.127192 0.435319 0.380364
O O7 0.165507 0.545309 0.447808
O O8 0.989267 0.527265 0.417953
O O9 0.679446 0.426157 0.960630
O O10 0.829152 0.331691 0.954755
O O11 0.807852 0.467059 0.015198
O O12 0.481246 0.886485 0.411602
O O13 0.596679 0.767205 0.387667
O O14 0.666553 0.905932 0.425065
O O15 0.926801 0.295139 0.706840
#
# Coordination Sequence:
#
# PCOD9546244 Si02
#       8
#    16  16  16  16   8  16  16  16
#     4  11  23  42  61  95 134 167 214 264 315 397
#     4  11  21  35  57  94 133 169 203 250 309 385
#     4  10  24  42  63  95 127 161 213 271 313 383
#     4  11  24  43  67  89 122 175 216 270 329 378
#     4  10  18  37  56  90 128 178 202 242 313 392
#     4  10  20  32  58  89 134 167 200 239 307 383
#     4  10  22  42  66  91 126 165 219 268 320 381
#     4  12  25  40  64  93 125 171 217 265 324 375
#
# _framework density 19.650103000000001
#
# number of rings (size 3 to 8) (size 9 to 14) (size 15 to 20)
#    0.000    1.333    2.667    3.200    7.467    2.133 
#    0.000    0.000    0.000    0.000    0.000    0.000 
#    0.000    0.000    0.000    0.000    0.000    0.000 
#
# Total GULP energy -334874.030704 kJ/mol
# GULP energy per Si atom -5581.233845 kJ/mol
# Density = 1.960538 g / cm^3
# Si number density = 19.650103 Si / 1000 Ang^3
#
#
#
# Elastic Constant Matrix: (Units=GPa)
#
#
# Indices 1 2 3 4 5 6 
#
# 1 73.1278 17.7165 34.3375 0.0000 0.0000 -9.9977
# 2 17.7165 73.1278 34.3375 0.0000 0.0000 9.9977
# 3 34.3375 34.3375 103.8704 0.0000 0.0000 0.0000
# 4 0.0000 0.0000 0.0000 15.2034 0.0000 0.0000
# 5 0.0000 0.0000 0.0000 0.0000 15.2034 0.0000
# 6 -9.9977 9.9977 0.0000 0.0000 0.0000 8.6772
#
#
#
# Elastic Compliance Matrix: (Units=1/GPa)
#
#
# Indices 1 2 3 4 5 6 
#
# 1 0.022783 -0.008107 -0.004851 0.000000 0.000000 0.035591
# 2 -0.008107 0.022783 -0.004851 0.000000 0.000000 -0.035591
# 3 -0.004851 -0.004851 0.012835 0.000000 0.000000 0.000000
# 4 0.000000 0.000000 0.000000 0.065775 0.000000 0.000000
# 5 0.000000 0.000000 0.000000 0.000000 0.065775 0.000000
# 6 0.035591 -0.035591 0.000000 0.000000 0.000000 0.197258
#
#
# Mechanical properties :
#
#
# Convention : Reuss Voigt Hill
#
# Bulk Modulus (GPa) = 43.89805 46.98988 45.44397
# Shear Modulus (GPa) = 11.61652 18.73244 15.17448
#
# Velocity S-wave (km/s) = 2.43403 3.09090 2.78192
# Velocity P-wave (km/s) = 5.50343 6.05834 5.78754
#
# Compressibility (1/GPa) = 0.02278005
#
# Stress axis : x y z
#
# Youngs Moduli (GPa) = 43.89311 43.89311 77.91258
#
# Poissons Ratio (x) = 0.35586 0.37798
# Poissons Ratio (y) = 0.35586 0.37798
# Poissons Ratio (z) = 0.21294 0.21294
#
# Static dielectric constant tensor:
#      x y z
#    x 1.705140 0.000000 0.000000 
#    y 0.000000 1.705140 0.000000 
#    z 0.000000 0.000000 1.705350 
# 
# From -- ./inp_files/6638.got.cif
#   From: 2010.05.17/outbox.cif.g08.bks.cpg/sg88_4_cif.got.tgz:6638.got - 2010.06.03 19:11:41.
