data_PCOD9546839
_publ_section_title
;
Structure prediction by ZEFSAII (Michael W. Deem and Ramdas Pophale) SiO2 
 PCOD9546839
Probable space group: I 41/A
;
_chemical_formula_sum "Si O2"
_cell_formula_units_Z 84
_cell_length_a 14.841779
_cell_length_b 14.841779
_cell_length_c 20.165856
_cell_angle_alpha 90.000000
_cell_angle_beta 90.000000
_cell_angle_gamma 90.000000
_cell_volume 4442.102573
_symmetry_space_group_name_H-M "I 41/A"
_symmetry_group_IT_number 88
_space_group.IT_coordinate_system_code '2'
_symmetry_cell_setting 'tetragonal'
loop_
_space_group_symop_operation_xyz
x,y,z
3/4-y,1/4+x,1/4+z
-x,1/2-y,z
1/4+y,1/4-x,1/4+z
-x,-y,-z
1/4+y,3/4-x,3/4-z
x,1/2+y,-z
3/4-y,3/4+x,3/4-z
1/2+x,1/2+y,1/2+z
1/4-y,3/4+x,3/4+z
1/2-x,-y,1/2+z
3/4+y,3/4-x,3/4+z
1/2-x,1/2-y,1/2-z
3/4+y,1/4-x,1/4-z
1/2+x,y,1/2-z
1/4-y,1/4+x,1/4-z
loop_
_atom_site_type_symbol
_atom_site_label
_atom_site_fract_x
_atom_site_fract_y
_atom_site_fract_z
Si Si1 0.742713 0.532084 0.092359
Si Si2 0.083655 0.369965 0.876666
Si Si3 0.858654 0.805330 0.473388
Si Si4 0.500000 0.750000 0.125000
Si Si5 0.636823 0.512080 0.231178
Si Si6 0.576253 0.692428 0.452433
O O1 0.848881 0.550757 0.103112
O O2 0.710721 0.621972 0.054387
O O3 0.694619 0.522906 0.163653
O O4 0.718529 0.448754 0.044802
O O5 0.078333 0.365597 0.798114
O O6 0.113535 0.271293 0.903822
O O7 0.984446 0.376443 0.909491
O O8 0.821801 0.703118 0.474480
O O9 0.942241 0.811484 0.423580
O O10 0.603889 0.408659 0.237328
O O11 0.500000 0.750000 0.492731
#
# Coordination Sequence:
#
# PCOD9546839 Si02
#       6
#    16  16  16   4  16  16
#     4  12  24  39  65  96 133 165 225 272 328 389
#     4   9  20  41  61  89 127 172 208 272 317 387
#     4  12  22  41  60  95 136 165 215 261 328 398
#     4  12  24  36  64  92 128 172 200 254 316 408
#     4  12  24  41  66  99 128 179 214 277 330 396
#     4   8  19  40  64  86 125 168 213 265 328 380
#
# _framework density 18.909963999999999
#
# number of rings (size 3 to 8) (size 9 to 14) (size 15 to 20)
#    1.143    0.000    5.714    2.286    0.000    0.762 
#    0.000    3.810    0.000    0.000    4.952    0.000 
#    0.000    0.000    0.000    0.000    0.000    0.000 
#
# Total GULP energy -233923.760662 kJ/mol
# GULP energy per Si atom -5569.613349 kJ/mol
# Density = 1.886692 g / cm^3
# Si number density = 18.909964 Si / 1000 Ang^3
#
#
#
# Elastic Constant Matrix: (Units=GPa)
#
#
# Indices 1 2 3 4 5 6 
#
# 1 48.8260 0.8588 4.6233 0.0000 0.0000 -2.0949
# 2 0.8588 48.8260 4.6233 0.0000 0.0000 2.0949
# 3 4.6233 4.6233 57.1100 0.0000 0.0000 0.0000
# 4 0.0000 0.0000 0.0000 6.1883 0.0000 0.0000
# 5 0.0000 0.0000 0.0000 0.0000 6.1883 0.0000
# 6 -2.0949 2.0949 0.0000 0.0000 0.0000 33.0192
#
#
#
# Elastic Compliance Matrix: (Units=1/GPa)
#
#
# Indices 1 2 3 4 5 6 
#
# 1 0.020699 -0.000265 -0.001654 0.000000 0.000000 0.001330
# 2 -0.000265 0.020699 -0.001654 0.000000 0.000000 -0.001330
# 3 -0.001654 -0.001654 0.017778 0.000000 0.000000 0.000000
# 4 0.000000 0.000000 0.000000 0.161595 0.000000 0.000000
# 5 0.000000 0.000000 0.000000 0.000000 0.161595 0.000000
# 6 0.001330 -0.001330 0.000000 0.000000 0.000000 0.030454
#
#
# Mechanical properties :
#
#
# Convention : Reuss Voigt Hill
#
# Bulk Modulus (GPa) = 19.21958 19.44142 19.33050
# Shear Modulus (GPa) = 11.43355 18.72294 15.07825
#
# Velocity S-wave (km/s) = 2.46159 3.15001 2.82684
# Velocity P-wave (km/s) = 4.27376 4.85113 4.57157
#
# Compressibility (1/GPa) = 0.05203028
#
# Stress axis : x y z
#
# Youngs Moduli (GPa) = 48.31091 48.31091 56.24958
#
# Poissons Ratio (x) = 0.01278 0.09305
# Poissons Ratio (y) = 0.01278 0.09305
# Poissons Ratio (z) = 0.07992 0.07992
#
# Static dielectric constant tensor:
#      x y z
#    x 1.694480 0.000000 0.000000 
#    y 0.000000 1.694480 0.000000 
#    z 0.000000 0.000000 1.617740 
# 
# From -- ./inp_files/4599.got.cif
#   From: 2010.05.17/outbox.cif.g08.bks.cpg/sg88_3_cif.got.tgz:4599.got - 2010.06.03 19:11:41.
