data_PCOD9546185
_publ_section_title
;
Structure prediction by ZEFSAII (Michael W. Deem and Ramdas Pophale) SiO2 
 PCOD9546185
Probable space group: I 4/M
;
_chemical_formula_sum "Si O2"
_cell_formula_units_Z 48
_cell_length_a 24.000000
_cell_length_b 24.000000
_cell_length_c 9.000000
_cell_angle_alpha 90.000000
_cell_angle_beta 90.000000
_cell_angle_gamma 90.000000
_cell_volume 5184.000000
_symmetry_space_group_name_H-M "I 4/M"
_symmetry_group_IT_number 87
_symmetry_cell_setting 'tetragonal'
loop_
_space_group_symop_operation_xyz
x,y,z
-y,x,z
-x,-y,z
y,-x,z
-x,-y,-z
y,-x,-z
x,y,-z
-y,x,-z
1/2+x,1/2+y,1/2+z
1/2-y,1/2+x,1/2+z
1/2-x,1/2-y,1/2+z
1/2+y,1/2-x,1/2+z
1/2-x,1/2-y,1/2-z
1/2+y,1/2-x,1/2-z
1/2+x,1/2+y,1/2-z
1/2-y,1/2+x,1/2-z
loop_
_atom_site_type_symbol
_atom_site_label
_atom_site_fract_x
_atom_site_fract_y
_atom_site_fract_z
Si Si1 0.710944 0.544972 0.677667
Si Si2 0.489397 0.588903 0.680802
Si Si3 0.332866 0.229675 0.176889
Si Si4 0.208651 0.541740 0.823526
Si Si5 0.161068 0.760286 0.675928
Si Si6 0.525035 0.921051 0.176436
O O1 0.710431 0.547406 0.500000
O O2 0.651542 0.520596 0.730571
O O3 0.759677 0.505268 0.733873
O O4 0.720206 0.605947 0.742680
O O5 0.439786 0.547222 0.727571
O O6 0.489699 0.589097 0.500000
O O7 0.397290 0.230729 0.217879
O O8 0.298803 0.182531 0.263077
O O9 0.303067 0.288409 0.206500
O O10 0.328827 0.218523 0.000000
O O11 0.142725 0.540009 0.797162
O O12 0.217797 0.533123 0.000000
O O13 0.152018 0.757564 0.500000
O O14 0.463685 0.934739 0.238377
O O15 0.527301 0.932029 0.000000
#
# Coordination Sequence:
#
# PCOD9546185 Si02
#       6
#    16  16  16  16  16  16
#     4  11  23  35  57  88 116 150 192 237 282 338
#     4   8  16  33  55  80 112 148 187 234 284 330
#     4   9  20  40  62  84 113 153 194 236 287 343
#     4  10  23  40  58  84 117 150 187 234 286 336
#     4  10  21  38  60  85 116 153 190 236 289 341
#     4  10  21  38  60  84 112 147 186 229 279 335
#
# _framework density 9.2592590000000001
#
# number of rings (size 3 to 8) (size 9 to 14) (size 15 to 20)
#    0.000    2.333    0.000    2.500    4.667    2.667 
#    0.000    0.000    0.000    0.000    0.000    4.667 
#    0.000    0.000    0.000    0.000    0.000    0.000 
#
# Total GULP energy -267922.033177 kJ/mol
# GULP energy per Si atom -5581.709025 kJ/mol
# Density = 0.923818 g / cm^3
# Si number density = 9.259259 Si / 1000 Ang^3
#
#
#
# Elastic Constant Matrix: (Units=GPa)
#
#
# Indices 1 2 3 4 5 6 
#
# 1 32.7447 11.9143 20.6864 0.0000 0.0000 2.9667
# 2 11.9143 32.7447 20.6864 0.0000 0.0000 -2.9667
# 3 20.6864 20.6864 20.3828 0.0000 0.0000 0.0000
# 4 0.0000 0.0000 0.0000 14.5393 0.0000 0.0000
# 5 0.0000 0.0000 0.0000 0.0000 14.5393 0.0000
# 6 2.9667 -2.9667 0.0000 0.0000 0.0000 6.8611
#
#
#
# Elastic Compliance Matrix: (Units=1/GPa)
#
#
# Indices 1 2 3 4 5 6 
#
# 1 0.214654 0.159903 -0.380137 0.000000 0.000000 -0.023674
# 2 0.159903 0.214654 -0.380137 0.000000 0.000000 0.023674
# 3 -0.380137 -0.380137 0.820662 0.000000 0.000000 0.000000
# 4 0.000000 0.000000 0.000000 0.068779 0.000000 0.000000
# 5 0.000000 0.000000 0.000000 0.000000 0.068779 0.000000
# 6 -0.023674 0.023674 0.000000 0.000000 0.000000 0.166222
#
#
# Mechanical properties :
#
#
# Convention : Reuss Voigt Hill
#
# Bulk Modulus (GPa) = 20.31391 21.38294 20.84842
# Shear Modulus (GPa) = 1.80447 9.36026 5.58236
#
# Velocity S-wave (km/s) = 0.98819 2.25067 1.73811
# Velocity P-wave (km/s) = 3.50647 4.28087 3.91288
#
# Compressibility (1/GPa) = 0.04922735
#
# Stress axis : x y z
#
# Youngs Moduli (GPa) = 4.65867 4.65867 1.21853
#
# Poissons Ratio (x) = -0.74494 0.46321
# Poissons Ratio (y) = -0.74494 0.46321
# Poissons Ratio (z) = 1.77093 1.77093
#
# Static dielectric constant tensor:
#      x y z
#    x 1.621520 0.000000 0.000000 
#    y 0.000000 1.621520 0.000000 
#    z 0.000000 0.000000 1.618510 
# 
# From -- ./inp_files/1345.got.cif
#   From: 2010.05.17/outbox.ucp.g08.bks.cvg/sg87_1_cif.got.tgz:1345.got - 2010.06.11 10:35:24.
