data_PCOD9546986
_publ_section_title
;
Structure prediction by ZEFSAII (Michael W. Deem and Ramdas Pophale) SiO2 
 PCOD9546986
Probable space group: P 4 2 2
;
_chemical_formula_sum "Si O2"
_cell_formula_units_Z 56
_cell_length_a 14.575848
_cell_length_b 14.575848
_cell_length_c 11.330179
_cell_angle_alpha 90.000000
_cell_angle_beta 90.000000
_cell_angle_gamma 90.000000
_cell_volume 2407.157087
_symmetry_space_group_name_H-M "P 4 2 2"
_symmetry_group_IT_number 89
_symmetry_cell_setting 'tetragonal'
loop_
_space_group_symop_operation_xyz
x,y,z
-y,x,z
-x,-y,z
y,-x,z
x,-y,-z
-x,y,-z
y,x,-z
-y,-x,-z
loop_
_atom_site_type_symbol
_atom_site_label
_atom_site_fract_x
_atom_site_fract_y
_atom_site_fract_z
Si Si1 0.540889 0.904478 0.314470
Si Si2 0.656493 0.791047 0.487128
Si Si3 0.857413 0.041018 0.847002
Si Si4 0.184102 0.364742 0.237873
Si Si5 0.404262 0.618165 0.141581
Si Si6 0.192253 0.924054 0.579528
Si Si7 0.999151 0.666814 0.876191
O O1 0.573565 0.830823 0.410828
O O2 0.469213 0.852343 0.230329
O O3 0.500000 0.000000 0.365698
O O4 0.618554 0.945388 0.229380
O O5 0.683677 0.683677 0.500000
O O6 0.653374 0.824198 0.622011
O O7 0.740724 0.837601 0.415755
O O8 0.839218 0.044186 0.706179
O O9 0.939628 0.107821 0.876099
O O10 0.759153 0.057504 0.901376
O O11 0.289498 0.357391 0.194382
O O12 0.102854 0.312340 0.168913
O O13 0.375107 0.513425 0.174738
O O14 0.386030 0.613971 0.000000
O O15 0.106949 0.893052 0.500000
O O16 0.242676 0.000000 0.500000
O O17 0.000000 0.613982 0.000000
#
# Coordination Sequence:
#
# PCOD9546986 Si02
#       7
#     8   8   8   8   8   8   8
#     4  10  24  44  71  98 141 187 231 285 353 427
#     4  11  25  41  65 100 138 176 233 283 338 418
#     4  11  23  41  64  90 129 180 228 278 340 396
#     4  11  25  43  70 102 136 181 222 277 356 417
#     4   9  21  45  74 104 136 174 226 289 353 423
#     4  11  20  32  57  90 122 163 220 278 319 377
#     4  11  26  46  66  99 137 180 236 292 345 411
#
# _framework density 23.263957000000001
#
# number of rings (size 3 to 8) (size 9 to 14) (size 15 to 20)
#    0.000    1.429    2.857    1.714    6.000    7.286 
#    2.571    0.714    0.000    0.000    0.000    0.000 
#    0.000    0.000    0.000    0.000    0.000    0.000 
#
# Total GULP energy -312416.466896 kJ/mol
# GULP energy per Si atom -5578.865480 kJ/mol
# Density = 2.321101 g / cm^3
# Si number density = 23.263957 Si / 1000 Ang^3
#
#
#
# Elastic Constant Matrix: (Units=GPa)
#
#
# Indices 1 2 3 4 5 6 
#
# 1 90.8706 15.0690 12.9954 0.0000 0.0000 0.0000
# 2 15.0690 90.8703 12.9954 0.0000 0.0000 0.0000
# 3 12.9954 12.9954 106.9401 0.0000 0.0000 0.0000
# 4 0.0000 0.0000 0.0000 24.0950 0.0000 0.0000
# 5 0.0000 0.0000 0.0000 0.0000 24.0947 0.0000
# 6 0.0000 0.0000 0.0000 0.0000 0.0000 24.0256
#
#
#
# Elastic Compliance Matrix: (Units=1/GPa)
#
#
# Indices 1 2 3 4 5 6 
#
# 1 0.011461 -0.001731 -0.001182 0.000000 0.000000 0.000000
# 2 -0.001731 0.011461 -0.001182 0.000000 0.000000 0.000000
# 3 -0.001182 -0.001182 0.009638 0.000000 0.000000 0.000000
# 4 0.000000 0.000000 0.000000 0.041502 0.000000 0.000000
# 5 0.000000 0.000000 0.000000 0.000000 0.041503 0.000000
# 6 0.000000 0.000000 0.000000 0.000000 0.000000 0.041622
#
#
# Mechanical properties :
#
#
# Convention : Reuss Voigt Hill
#
# Bulk Modulus (GPa) = 41.03756 41.20009 41.11883
# Shear Modulus (GPa) = 28.81800 30.95113 29.88456
#
# Velocity S-wave (km/s) = 3.52339 3.65147 3.58800
# Velocity P-wave (km/s) = 5.85070 5.96036 5.90578
#
# Compressibility (1/GPa) = 0.02436792
#
# Stress axis : x y z
#
# Youngs Moduli (GPa) = 87.25341 87.25309 103.75186
#
# Poissons Ratio (x) = 0.15108 0.12267
# Poissons Ratio (y) = 0.15108 0.12267
# Poissons Ratio (z) = 0.10316 0.10316
#
# Static dielectric constant tensor:
#      x y z
#    x 2.035960 0.000000 0.000000 
#    y 0.000000 2.035980 0.000000 
#    z 0.000000 0.000000 1.879870 
# 
# From -- ./inp_files/1858.got.cif
#   From: 2010.05.17/outbox.cif.g08.bks.cpg/sg89_1_cif.got.tgz:1858.got - 2010.06.03 19:15:31.
