data_PCOD9546915
_publ_section_title
;
Structure prediction by ZEFSAII (Michael W. Deem and Ramdas Pophale) SiO2 
 PCOD9546915
Probable space group: P 4 2 2
;
_chemical_formula_sum "Si O2"
_cell_formula_units_Z 56
_cell_length_a 11.986399
_cell_length_b 11.986399
_cell_length_c 22.746510
_cell_angle_alpha 90.000000
_cell_angle_beta 90.000000
_cell_angle_gamma 90.000000
_cell_volume 3268.076641
_symmetry_space_group_name_H-M "P 4 2 2"
_symmetry_group_IT_number 89
_symmetry_cell_setting 'tetragonal'
loop_
_space_group_symop_operation_xyz
x,y,z
-y,x,z
-x,-y,z
y,-x,z
x,-y,-z
-x,y,-z
y,x,-z
-y,-x,-z
loop_
_atom_site_type_symbol
_atom_site_label
_atom_site_fract_x
_atom_site_fract_y
_atom_site_fract_z
Si Si1 0.500000 0.688714 0.500000
Si Si2 0.824349 0.948955 0.758968
Si Si3 0.613214 0.650113 0.834619
Si Si4 0.273133 0.990385 0.884738
Si Si5 0.310861 0.516749 0.629034
Si Si6 0.500000 0.000000 0.181784
Si Si7 0.748108 0.780089 0.934117
Si Si8 0.821334 0.607609 0.263796
O O1 0.393675 0.606326 0.500000
O O2 0.509194 0.743977 0.563938
O O3 0.796531 0.959971 0.828917
O O4 0.714951 0.900923 0.727350
O O5 0.926521 0.866235 0.745238
O O6 0.478510 0.650130 0.836014
O O7 0.668175 0.716374 0.888461
O O8 0.646540 0.714887 0.775041
O O9 0.278491 0.088974 0.931643
O O10 0.394683 0.971386 0.857773
O O11 0.231555 0.875335 0.911631
O O12 0.383904 0.403399 0.634285
O O13 0.222441 0.543089 0.679451
O O14 0.528427 0.105230 0.222282
O O15 0.736282 0.736282 0.000000
#
# Coordination Sequence:
#
# PCOD9546915 Si02
#       8
#     4   8   8   8   8   4   8   8
#     4   7  12  26  46  73 112 154 186 217 250 299
#     4  10  19  34  55  75 102 140 177 227 292 336
#     4  11  23  40  57  76 107 142 176 219 272 340
#     4  11  21  41  57  79 104 134 174 228 282 338
#     4   9  17  29  50  81 116 151 187 217 257 318
#     4  10  22  38  57  77 110 142 170 226 290 330
#     4  12  25  40  59  82 102 135 180 228 284 345
#     4  11  20  34  55  83 107 142 180 230 275 330
#
# _framework density 17.135460999999999
#
# number of rings (size 3 to 8) (size 9 to 14) (size 15 to 20)
#    0.000    1.643    4.286    3.000    0.000    5.429 
#    0.000    2.143    0.000    0.429    0.000    0.000 
#    0.000    0.000    0.000   25.714    0.000    0.000 
#
# Total GULP energy -312253.307363 kJ/mol
# GULP energy per Si atom -5575.951917 kJ/mol
# Density = 1.709646 g / cm^3
# Si number density = 17.135461 Si / 1000 Ang^3
#
#
#
# Elastic Constant Matrix: (Units=GPa)
#
#
# Indices 1 2 3 4 5 6 
#
# 1 71.4281 27.2528 18.0593 0.0000 0.0000 0.0000
# 2 27.2528 71.4280 18.0593 0.0000 0.0000 0.0000
# 3 18.0593 18.0593 83.5794 0.0000 0.0000 0.0000
# 4 0.0000 0.0000 0.0000 -6.2262 0.0000 0.0000
# 5 0.0000 0.0000 0.0000 0.0000 -6.2264 0.0000
# 6 0.0000 0.0000 0.0000 0.0000 0.0000 21.4989
#
#
#
# Elastic Compliance Matrix: (Units=1/GPa)
#
#
# Indices 1 2 3 4 5 6 
#
# 1 0.016821 -0.005817 -0.002378 0.000000 0.000000 0.000000
# 2 -0.005817 0.016821 -0.002378 0.000000 0.000000 0.000000
# 3 -0.002378 -0.002378 0.012992 0.000000 0.000000 0.000000
# 4 0.000000 0.000000 0.000000 -0.160612 0.000000 0.000000
# 5 0.000000 0.000000 0.000000 0.000000 -0.160607 0.000000
# 6 0.000000 0.000000 0.000000 0.000000 0.000000 0.046514
#
#
# Mechanical properties :
#
#
# Convention : Reuss Voigt Hill
#
# Bulk Modulus (GPa) = 39.23199 39.24204 39.23701
# Shear Modulus (GPa) = -25.19760 12.68021 -6.25870
#
# Velocity S-wave (km/s) = -3.83886 2.72324 -1.91322
# Velocity P-wave (km/s) = 1.81542 5.73052 4.25056
#
# Compressibility (1/GPa) = 0.02548940
#
# Stress axis : x y z
#
# Youngs Moduli (GPa) = 59.45119 59.45107 76.96948
#
# Poissons Ratio (x) = 0.34580 0.18301
# Poissons Ratio (y) = 0.34580 0.18301
# Poissons Ratio (z) = 0.14135 0.14135
#
# Static dielectric constant tensor:
#      x y z
#    x 1.591810 0.000000 0.000000 
#    y 0.000000 1.591810 0.000000 
#    z 0.000000 0.000000 1.586570 
# 
# From -- ./inp_files/2788.got.cif
#   From: 2010.05.17/outbox.cif.g08.bks.cpg/sg89_2_cif.got.tgz:2788.got - 2010.06.03 19:15:31.
