data_PCOD9546547
_publ_section_title
;
Structure prediction by ZEFSAII (Michael W. Deem and Ramdas Pophale) SiO2 
 PCOD9546547
Probable space group: I 41/A
;
_chemical_formula_sum "Si O2"
_cell_formula_units_Z 96
_cell_length_a 15.071571
_cell_length_b 15.071571
_cell_length_c 19.945257
_cell_angle_alpha 90.000000
_cell_angle_beta 90.000000
_cell_angle_gamma 90.000000
_cell_volume 4530.610052
_symmetry_space_group_name_H-M "I 41/A"
_symmetry_group_IT_number 88
_space_group.IT_coordinate_system_code '2'
_symmetry_cell_setting 'tetragonal'
loop_
_space_group_symop_operation_xyz
x,y,z
3/4-y,1/4+x,1/4+z
-x,1/2-y,z
1/4+y,1/4-x,1/4+z
-x,-y,-z
1/4+y,3/4-x,3/4-z
x,1/2+y,-z
3/4-y,3/4+x,3/4-z
1/2+x,1/2+y,1/2+z
1/4-y,3/4+x,3/4+z
1/2-x,-y,1/2+z
3/4+y,3/4-x,3/4+z
1/2-x,1/2-y,1/2-z
3/4+y,1/4-x,1/4-z
1/2+x,y,1/2-z
1/4-y,1/4+x,1/4-z
loop_
_atom_site_type_symbol
_atom_site_label
_atom_site_fract_x
_atom_site_fract_y
_atom_site_fract_z
Si Si1 0.468247 0.849715 0.317730
Si Si2 0.632568 0.970849 0.506951
Si Si3 0.015935 0.144120 0.232714
Si Si4 0.691706 0.122483 0.583701
Si Si5 0.469558 0.481686 0.388874
Si Si6 0.879664 0.198742 0.591463
O O1 0.500000 0.750000 0.335999
O O2 0.376093 0.873025 0.354455
O O3 0.460054 0.856650 0.238027
O O4 0.531132 0.928178 0.345568
O O5 0.704412 0.026563 0.548168
O O6 0.615887 0.019834 0.436416
O O7 0.632896 0.865701 0.493844
O O8 0.549410 0.984916 0.557629
O O9 0.014118 0.101199 0.158929
O O10 0.000000 0.250000 0.233064
O O11 0.940380 0.099989 0.278651
O O12 0.785505 0.157763 0.605499
O O13 0.889502 0.292928 0.627468
#
# Coordination Sequence:
#
# PCOD9546547 Si02
#       6
#    16  16  16  16  16  16
#     4  11  21  45  74  95 140 185 227 305 360 425
#     4  10  24  41  60 104 147 182 240 297 350 438
#     4  12  24  40  70 103 139 195 238 283 371 441
#     4  11  25  46  68 104 146 181 243 301 365 434
#     4  10  22  39  64 100 139 188 236 286 356 431
#     4  11  24  49  73 102 134 182 248 303 367 435
#
# _framework density 21.189198999999999
#
# number of rings (size 3 to 8) (size 9 to 14) (size 15 to 20)
#    0.000    1.167    3.333    4.500    4.667    0.667 
#    9.000    0.833    0.000    0.000    0.000    0.000 
#    0.000    0.000    0.000    0.000    0.000    0.000 
#
# Total GULP energy -268202.784553 kJ/mol
# GULP energy per Si atom -5587.558012 kJ/mol
# Density = 2.114097 g / cm^3
# Si number density = 21.189199 Si / 1000 Ang^3
#
#
#
# Elastic Constant Matrix: (Units=GPa)
#
#
# Indices 1 2 3 4 5 6 
#
# 1 103.3273 -7.4101 9.4294 0.0000 0.0000 -15.6899
# 2 -7.4101 103.3273 9.4294 0.0000 0.0000 15.6899
# 3 9.4294 9.4294 103.7602 0.0000 0.0000 0.0000
# 4 0.0000 0.0000 0.0000 22.3704 0.0000 0.0000
# 5 0.0000 0.0000 0.0000 0.0000 22.3705 0.0000
# 6 -15.6899 15.6899 0.0000 0.0000 0.0000 65.5868
#
#
#
# Elastic Compliance Matrix: (Units=1/GPa)
#
#
# Indices 1 2 3 4 5 6 
#
# 1 0.010151 0.000464 -0.000965 0.000000 0.000000 0.002317
# 2 0.000464 0.010151 -0.000965 0.000000 0.000000 -0.002317
# 3 -0.000965 -0.000965 0.009813 0.000000 0.000000 0.000000
# 4 0.000000 0.000000 0.000000 0.044702 0.000000 0.000000
# 5 0.000000 0.000000 0.000000 0.000000 0.044702 0.000000
# 6 0.002317 -0.002317 0.000000 0.000000 0.000000 0.016356
#
#
# Mechanical properties :
#
#
# Convention : Reuss Voigt Hill
#
# Bulk Modulus (GPa) = 36.78520 37.03470 36.90995
# Shear Modulus (GPa) = 33.81422 41.99660 37.90541
#
# Velocity S-wave (km/s) = 3.99911 4.45677 4.23413
# Velocity P-wave (km/s) = 6.22269 6.63324 6.43124
#
# Compressibility (1/GPa) = 0.02718484
#
# Stress axis : x y z
#
# Youngs Moduli (GPa) = 98.51060 98.51060 101.90623
#
# Poissons Ratio (x) = -0.04572 0.09831
# Poissons Ratio (y) = -0.04572 0.09831
# Poissons Ratio (z) = 0.09503 0.09503
#
# Static dielectric constant tensor:
#      x y z
#    x 1.786320 0.000000 0.000000 
#    y 0.000000 1.786320 0.000000 
#    z 0.000000 0.000000 1.750660 
# 
# From -- ./inp_files/4687.got.cif
#   From: 2010.05.17/outbox.cif.g08.bks.cpg/sg88_3_cif.got.tgz:4687.got - 2010.06.03 19:11:41.
