data_PCOD9546067
_publ_section_title
;
Structure prediction by ZEFSAII (Michael W. Deem and Ramdas Pophale) SiO2 
 PCOD9546067
Probable space group: I 4/M
;
_chemical_formula_sum "Si O2"
_cell_formula_units_Z 88
_cell_length_a 13.462769
_cell_length_b 13.462769
_cell_length_c 23.259485
_cell_angle_alpha 90.000000
_cell_angle_beta 90.000000
_cell_angle_gamma 90.000000
_cell_volume 4215.692087
_symmetry_space_group_name_H-M "I 4/M"
_symmetry_group_IT_number 87
_symmetry_cell_setting 'tetragonal'
loop_
_space_group_symop_operation_xyz
x,y,z
-y,x,z
-x,-y,z
y,-x,z
-x,-y,-z
y,-x,-z
x,y,-z
-y,x,-z
1/2+x,1/2+y,1/2+z
1/2-y,1/2+x,1/2+z
1/2-x,1/2-y,1/2+z
1/2+y,1/2-x,1/2+z
1/2-x,1/2-y,1/2-z
1/2+y,1/2-x,1/2-z
1/2+x,1/2+y,1/2-z
1/2-y,1/2+x,1/2-z
loop_
_atom_site_type_symbol
_atom_site_label
_atom_site_fract_x
_atom_site_fract_y
_atom_site_fract_z
Si Si1 0.721410 0.870670 0.436275
Si Si2 0.592059 0.361051 0.500000
Si Si3 0.251216 0.911932 0.601330
Si Si4 0.747453 0.897150 0.884377
Si Si5 0.051572 0.160084 0.273589
Si Si6 0.259023 0.887052 0.836601
O O1 0.677673 0.846547 0.500000
O O2 0.824595 0.811401 0.428824
O O3 0.658257 0.844382 0.378238
O O4 0.742295 0.987258 0.433434
O O5 0.631491 0.472619 0.500000
O O6 0.623921 0.301943 0.444157
O O7 0.360617 0.865174 0.611571
O O8 0.198725 0.934638 0.661937
O O9 0.803300 0.825182 0.840645
O O10 0.765728 0.009859 0.867977
O O11 0.081205 0.250115 0.230266
O O12 0.938377 0.120591 0.265143
#
# Coordination Sequence:
#
# PCOD9546067 Si02
#       6
#    16   8  16  16  16  16
#     4  11  26  45  67 100 135 180 234 283 344 412
#     4  11  22  36  64  95 137 172 220 279 331 410
#     4  11  25  44  67  95 133 179 228 284 339 397
#     4  11  24  38  62  98 132 174 214 266 339 400
#     4  11  22  42  71 102 133 171 230 286 347 412
#     4  11  24  41  65  99 135 172 218 275 340 409
#
# _framework density 20.874389000000001
#
# number of rings (size 3 to 8) (size 9 to 14) (size 15 to 20)
#    0.000    1.000    5.455    0.545    7.636    5.818 
#    0.000    1.818    0.000    2.182    0.000    0.000 
#    0.000    0.000    0.000    0.000    0.000    0.000 
#
# Total GULP energy -245403.641900 kJ/mol
# GULP energy per Si atom -5577.355498 kJ/mol
# Density = 2.082688 g / cm^3
# Si number density = 20.874389 Si / 1000 Ang^3
#
#
#
# Elastic Constant Matrix: (Units=GPa)
#
#
# Indices 1 2 3 4 5 6 
#
# 1 31.8317 38.5084 14.5149 0.0000 0.0000 33.5863
# 2 38.5084 31.8317 14.5149 0.0000 0.0000 -33.5863
# 3 14.5149 14.5149 126.0493 0.0000 0.0000 0.0000
# 4 0.0000 0.0000 0.0000 66.9187 0.0000 0.0000
# 5 0.0000 0.0000 0.0000 0.0000 66.9187 0.0000
# 6 33.5863 -33.5863 0.0000 0.0000 0.0000 -14.2828
#
#
#
# Elastic Compliance Matrix: (Units=1/GPa)
#
#
# Indices 1 2 3 4 5 6 
#
# 1 0.010768 0.004158 -0.001719 0.000000 0.000000 0.015544
# 2 0.004158 0.010768 -0.001719 0.000000 0.000000 -0.015544
# 3 -0.001719 -0.001719 0.008329 0.000000 0.000000 0.000000
# 4 0.000000 0.000000 0.000000 0.014944 0.000000 0.000000
# 5 0.000000 0.000000 0.000000 0.000000 0.014944 0.000000
# 6 0.015544 -0.015544 0.000000 0.000000 0.000000 0.003090
#
#
# Mechanical properties :
#
#
# Convention : Reuss Voigt Hill
#
# Bulk Modulus (GPa) = 31.94260 36.08767 34.01514
# Shear Modulus (GPa) = 69.60185 32.05589 50.82887
#
# Velocity S-wave (km/s) = 5.78062 3.92300 4.93991
# Velocity P-wave (km/s) = 7.73884 6.15186 6.99053
#
# Compressibility (1/GPa) = 0.03130615
#
# Stress axis : x y z
#
# Youngs Moduli (GPa) = 92.86689 92.86689 120.05895
#
# Poissons Ratio (x) = -0.38613 0.20635
# Poissons Ratio (y) = -0.38613 0.20635
# Poissons Ratio (z) = 0.15962 0.15962
#
# Static dielectric constant tensor:
#      x y z
#    x 1.735840 0.000000 0.000000 
#    y 0.000000 1.735840 0.000000 
#    z 0.000000 0.000000 1.773840 
# 
# From -- ./inp_files/5208.got.cif
#   From: 2010.05.17/outbox.cif.g08.bks.cpg/sg87_3_cif.got.tgz:5208.got - 2010.06.03 19:07:00.
