data_PCOD9546578
_publ_section_title
;
Structure prediction by ZEFSAII (Michael W. Deem and Ramdas Pophale) SiO2 
 PCOD9546578
Probable space group: I 41/A
;
_chemical_formula_sum "Si O2"
_cell_formula_units_Z 96
_cell_length_a 21.293349
_cell_length_b 21.293349
_cell_length_c 8.809949
_cell_angle_alpha 90.000000
_cell_angle_beta 90.000000
_cell_angle_gamma 90.000000
_cell_volume 3994.490006
_symmetry_space_group_name_H-M "I 41/A"
_symmetry_group_IT_number 88
_space_group.IT_coordinate_system_code '2'
_symmetry_cell_setting 'tetragonal'
loop_
_space_group_symop_operation_xyz
x,y,z
3/4-y,1/4+x,1/4+z
-x,1/2-y,z
1/4+y,1/4-x,1/4+z
-x,-y,-z
1/4+y,3/4-x,3/4-z
x,1/2+y,-z
3/4-y,3/4+x,3/4-z
1/2+x,1/2+y,1/2+z
1/4-y,3/4+x,3/4+z
1/2-x,-y,1/2+z
3/4+y,3/4-x,3/4+z
1/2-x,1/2-y,1/2-z
3/4+y,1/4-x,1/4-z
1/2+x,y,1/2-z
1/4-y,1/4+x,1/4-z
loop_
_atom_site_type_symbol
_atom_site_label
_atom_site_fract_x
_atom_site_fract_y
_atom_site_fract_z
Si Si1 0.675057 0.501878 0.119942
Si Si2 0.724623 0.775190 0.561076
Si Si3 0.876962 0.905195 0.986002
Si Si4 0.137567 0.779312 0.512932
Si Si5 0.061022 0.382972 0.994918
Si Si6 0.343073 0.169674 0.715570
O O1 0.722215 0.544392 0.218347
O O2 0.657813 0.446836 0.239471
O O3 0.614385 0.538421 0.059518
O O4 0.713639 0.841859 0.647324
O O5 0.795200 0.757473 0.515831
O O6 0.691270 0.725369 0.675044
O O7 0.685045 0.782498 0.406920
O O8 0.897910 0.844980 0.888123
O O9 0.905677 0.899805 0.151756
O O10 0.098951 0.739288 0.636530
O O11 0.117343 0.793138 0.342923
O O12 0.119502 0.384139 0.876742
#
# Coordination Sequence:
#
# PCOD9546578 Si02
#       6
#    16  16  16  16  16  16
#     4  12  28  40  65 100 154 193 222 282 357 436
#     4  10  23  41  71  94 134 191 242 284 337 423
#     4  10  22  42  62  98 138 176 232 278 347 416
#     4  11  22  41  70  99 132 186 239 293 331 415
#     4  10  23  40  69  92 135 175 229 292 349 411
#     4  11  25  44  65 107 137 180 240 297 356 419
#
# _framework density 24.033106
#
# number of rings (size 3 to 8) (size 9 to 14) (size 15 to 20)
#    0.000    1.333    1.667    3.500    9.333    1.333 
#    0.000    0.000    0.000   59.000    0.000    0.000 
#    0.000    0.000    0.000    0.000    0.000    0.000 
#
# Total GULP energy -267673.208208 kJ/mol
# GULP energy per Si atom -5576.525171 kJ/mol
# Density = 2.397841 g / cm^3
# Si number density = 24.033106 Si / 1000 Ang^3
#
#
#
# Elastic Constant Matrix: (Units=GPa)
#
#
# Indices 1 2 3 4 5 6 
#
# 1 67.6245 17.2123 29.4984 0.0000 0.0000 -6.0134
# 2 17.2123 67.6245 29.4984 0.0000 0.0000 6.0134
# 3 29.4984 29.4984 159.7615 0.0000 0.0000 0.0000
# 4 0.0000 0.0000 0.0000 25.0497 0.0000 0.0000
# 5 0.0000 0.0000 0.0000 0.0000 25.0497 0.0000
# 6 -6.0134 6.0134 0.0000 0.0000 0.0000 25.5512
#
#
#
# Elastic Compliance Matrix: (Units=1/GPa)
#
#
# Indices 1 2 3 4 5 6 
#
# 1 0.017270 -0.003746 -0.002497 0.000000 0.000000 0.004946
# 2 -0.003746 0.017270 -0.002497 0.000000 0.000000 -0.004946
# 3 -0.002497 -0.002497 0.007181 0.000000 0.000000 0.000000
# 4 0.000000 0.000000 0.000000 0.039921 0.000000 0.000000
# 5 0.000000 0.000000 0.000000 0.000000 0.039921 0.000000
# 6 0.004946 -0.004946 0.000000 0.000000 0.000000 0.041465
#
#
# Mechanical properties :
#
#
# Convention : Reuss Voigt Hill
#
# Bulk Modulus (GPa) = 41.25255 49.71428 45.48341
# Shear Modulus (GPa) = 26.51260 29.71686 28.11473
#
# Velocity S-wave (km/s) = 3.32500 3.52020 3.42399
# Velocity P-wave (km/s) = 5.65182 6.10353 5.88201
#
# Compressibility (1/GPa) = 0.02424093
#
# Stress axis : x y z
#
# Youngs Moduli (GPa) = 57.90334 57.90334 139.24786
#
# Poissons Ratio (x) = 0.21693 0.34771
# Poissons Ratio (y) = 0.21693 0.34771
# Poissons Ratio (z) = 0.14459 0.14459
#
# Static dielectric constant tensor:
#      x y z
#    x 1.983080 0.000000 0.000000 
#    y 0.000000 1.983080 0.000000 
#    z 0.000000 0.000000 1.910670 
# 
# From -- ./inp_files/1729.got.cif
#   From: 2010.05.17/outbox.cif.g08.bks.cpg/sg88_1_cif.got.tgz:1729.got - 2010.06.03 19:11:41.
