data_PCOD9546296
_publ_section_title
;
Structure prediction by ZEFSAII (Michael W. Deem and Ramdas Pophale) SiO2 
 PCOD9546296
Probable space group: I 41/A
;
_chemical_formula_sum "Si O2"
_cell_formula_units_Z 100
_cell_length_a 14.231198
_cell_length_b 14.231198
_cell_length_c 25.471611
_cell_angle_alpha 90.000000
_cell_angle_beta 90.000000
_cell_angle_gamma 90.000000
_cell_volume 5158.688872
_symmetry_space_group_name_H-M "I 41/A"
_symmetry_group_IT_number 88
_space_group.IT_coordinate_system_code '2'
_symmetry_cell_setting 'tetragonal'
loop_
_space_group_symop_operation_xyz
x,y,z
3/4-y,1/4+x,1/4+z
-x,1/2-y,z
1/4+y,1/4-x,1/4+z
-x,-y,-z
1/4+y,3/4-x,3/4-z
x,1/2+y,-z
3/4-y,3/4+x,3/4-z
1/2+x,1/2+y,1/2+z
1/4-y,3/4+x,3/4+z
1/2-x,-y,1/2+z
3/4+y,3/4-x,3/4+z
1/2-x,1/2-y,1/2-z
3/4+y,1/4-x,1/4-z
1/2+x,y,1/2-z
1/4-y,1/4+x,1/4-z
loop_
_atom_site_type_symbol
_atom_site_label
_atom_site_fract_x
_atom_site_fract_y
_atom_site_fract_z
Si Si1 0.500000 0.750000 0.946265
Si Si2 0.106467 0.891160 0.119307
Si Si3 0.000000 0.250000 0.998183
Si Si4 0.562241 0.057200 0.237414
Si Si5 0.696282 0.796385 0.799427
Si Si6 0.757181 0.984992 0.553136
Si Si7 0.077012 0.114319 0.716720
Si Si8 0.000000 0.750000 0.375000
O O1 0.434215 0.814726 0.909934
O O2 0.434914 0.688617 0.984831
O O3 0.150030 0.840281 0.068782
O O4 0.021033 0.956368 0.099252
O O5 0.185281 0.954637 0.145195
O O6 0.901014 0.212254 0.022492
O O7 0.959681 0.336557 0.964886
O O8 0.652288 0.004240 0.260724
O O9 0.482443 0.979763 0.229485
O O10 0.750000 0.750000 0.750000
O O11 0.724411 0.902618 0.809100
O O12 0.829764 0.066497 0.538524
O O13 0.040151 0.168564 0.664147
#
# Coordination Sequence:
#
# PCOD9546296 Si02
#       8
#     8  16   8  16  16  16  16   4
#     4  11  25  45  68 102 134 183 228 293 349 416
#     4  11  24  42  64 101 136 178 232 277 345 413
#     4  10  19  38  71  83 130 178 223 265 337 394
#     4  11  22  43  64  99 136 177 228 279 342 409
#     4  11  22  43  66  94 133 182 226 278 338 409
#     4  12  24  42  69 102 131 183 233 285 340 415
#     4  11  24  45  71 100 143 177 233 285 348 408
#     4  10  24  48  66 104 136 188 230 282 348 410
#
# _framework density 19.38477
#
# number of rings (size 3 to 8) (size 9 to 14) (size 15 to 20)
#    0.000    0.960    6.400    2.880    0.000    1.920 
#    5.760    0.000    0.000    0.000    0.000    0.000 
#    0.000    0.000    0.000    0.000    0.000    0.000 
#
# Total GULP energy -278960.832389 kJ/mol
# GULP energy per Si atom -5579.216648 kJ/mol
# Density = 1.934065 g / cm^3
# Si number density = 19.384770 Si / 1000 Ang^3
#
#
#
# Elastic Constant Matrix: (Units=GPa)
#
#
# Indices 1 2 3 4 5 6 
#
# 1 88.5726 26.8774 19.2205 0.0000 0.0000 0.7729
# 2 26.8774 88.5726 19.2205 0.0000 0.0000 -0.7729
# 3 19.2205 19.2205 60.6607 0.0000 0.0000 0.0000
# 4 0.0000 0.0000 0.0000 30.3956 0.0000 0.0000
# 5 0.0000 0.0000 0.0000 0.0000 30.3956 0.0000
# 6 0.7729 -0.7729 0.0000 0.0000 0.0000 43.3265
#
#
#
# Elastic Compliance Matrix: (Units=1/GPa)
#
#
# Indices 1 2 3 4 5 6 
#
# 1 0.012950 -0.003266 -0.003068 0.000000 0.000000 -0.000289
# 2 -0.003266 0.012950 -0.003068 0.000000 0.000000 0.000289
# 3 -0.003068 -0.003068 0.018429 0.000000 0.000000 0.000000
# 4 0.000000 0.000000 0.000000 0.032899 0.000000 0.000000
# 5 0.000000 0.000000 0.000000 0.000000 0.032899 0.000000
# 6 -0.000289 0.000289 0.000000 0.000000 0.000000 0.023091
#
#
# Mechanical properties :
#
#
# Convention : Reuss Voigt Hill
#
# Bulk Modulus (GPa) = 39.17971 40.93806 40.05888
# Shear Modulus (GPa) = 31.14649 32.32274 31.73461
#
# Velocity S-wave (km/s) = 4.01278 4.08785 4.05049
# Velocity P-wave (km/s) = 6.45951 6.59130 6.52574
#
# Compressibility (1/GPa) = 0.02552342
#
# Stress axis : x y z
#
# Youngs Moduli (GPa) = 77.22212 77.22212 54.26097
#
# Poissons Ratio (x) = 0.25223 0.16648
# Poissons Ratio (y) = 0.25223 0.16648
# Poissons Ratio (z) = 0.23693 0.23693
#
# Static dielectric constant tensor:
#      x y z
#    x 1.725120 0.000000 0.000000 
#    y 0.000000 1.725120 0.000000 
#    z 0.000000 0.000000 1.675810 
# 
# From -- ./inp_files/5311.got.cif
#   From: 2010.05.17/outbox.cif.g08.bks.cpg/sg88_3_cif.got.tgz:5311.got - 2010.06.03 19:11:41.
