data_PCOD9546098
_publ_section_title
;
Structure prediction by ZEFSAII (Michael W. Deem and Ramdas Pophale) SiO2 
 PCOD9546098
Probable space group: I 4/M
;
_chemical_formula_sum "Si O2"
_cell_formula_units_Z 48
_cell_length_a 9.925777
_cell_length_b 9.925777
_cell_length_c 22.387656
_cell_angle_alpha 90.000000
_cell_angle_beta 90.000000
_cell_angle_gamma 90.000000
_cell_volume 2205.655355
_symmetry_space_group_name_H-M "I 4/M"
_symmetry_group_IT_number 87
_symmetry_cell_setting 'tetragonal'
loop_
_space_group_symop_operation_xyz
x,y,z
-y,x,z
-x,-y,z
y,-x,z
-x,-y,-z
y,-x,-z
x,y,-z
-y,x,-z
1/2+x,1/2+y,1/2+z
1/2-y,1/2+x,1/2+z
1/2-x,1/2-y,1/2+z
1/2+y,1/2-x,1/2+z
1/2-x,1/2-y,1/2-z
1/2+y,1/2-x,1/2-z
1/2+x,1/2+y,1/2-z
1/2-y,1/2+x,1/2-z
loop_
_atom_site_type_symbol
_atom_site_label
_atom_site_fract_x
_atom_site_fract_y
_atom_site_fract_z
Si Si1 0.462613 0.279981 0.248997
Si Si2 0.877683 0.815062 0.071394
Si Si3 0.873304 0.575677 0.149514
O O1 0.606427 0.350695 0.259489
O O2 0.472044 0.228346 0.180865
O O3 0.432268 0.159711 0.294050
O O4 0.820672 0.962437 0.087458
O O5 0.816267 0.687930 0.105149
O O6 0.867412 0.802221 0.000000
O O7 0.000000 0.500000 0.120606
#
# Coordination Sequence:
#
# PCOD9546098 Si02
#       3
#    16  16  16
#     4  11  23  38  56  82 118 156 191 234 284 341
#     4   9  20  39  62  86 112 148 194 242 288 333
#     4  12  22  35  58  87 116 152 188 236 289 345
#
# _framework density 21.762239999999998
#
# number of rings (size 3 to 8) (size 9 to 14) (size 15 to 20)
#    0.000    1.333    3.333    4.000    4.667    3.333 
#    0.000    0.000    0.000    0.000    0.000    2.333 
#    0.000    0.000    0.000    0.000    0.000    0.000 
#
# Total GULP energy -134196.258911 kJ/mol
# GULP energy per Si atom -5591.510788 kJ/mol
# Density = 2.171271 g / cm^3
# Si number density = 21.762240 Si / 1000 Ang^3
#
#
#
# Elastic Constant Matrix: (Units=GPa)
#
#
# Indices 1 2 3 4 5 6 
#
# 1 55.3586 10.8120 10.5736 0.0000 0.0000 1.2113
# 2 10.8120 55.3586 10.5736 0.0000 0.0000 -1.2113
# 3 10.5736 10.5736 58.0521 0.0000 0.0000 0.0000
# 4 0.0000 0.0000 0.0000 24.0089 0.0000 0.0000
# 5 0.0000 0.0000 0.0000 0.0000 24.0089 0.0000
# 6 1.2113 -1.2113 0.0000 0.0000 0.0000 24.2083
#
#
#
# Elastic Compliance Matrix: (Units=1/GPa)
#
#
# Indices 1 2 3 4 5 6 
#
# 1 0.019278 -0.003232 -0.002923 0.000000 0.000000 -0.001126
# 2 -0.003232 0.019278 -0.002923 0.000000 0.000000 0.001126
# 3 -0.002923 -0.002923 0.018291 0.000000 0.000000 0.000000
# 4 0.000000 0.000000 0.000000 0.041651 0.000000 0.000000
# 5 0.000000 0.000000 0.000000 0.000000 0.041651 0.000000
# 6 -0.001126 0.001126 0.000000 0.000000 0.000000 0.041421
#
#
# Mechanical properties :
#
#
# Convention : Reuss Voigt Hill
#
# Bulk Modulus (GPa) = 25.84463 25.85420 25.84941
# Shear Modulus (GPa) = 23.51595 23.56589 23.54092
#
# Velocity S-wave (km/s) = 3.29079 3.29428 3.29254
# Velocity P-wave (km/s) = 5.13233 5.13574 5.13403
#
# Compressibility (1/GPa) = 0.03869276
#
# Stress axis : x y z
#
# Youngs Moduli (GPa) = 51.87242 51.87242 54.67291
#
# Poissons Ratio (x) = 0.16763 0.15979
# Poissons Ratio (y) = 0.16763 0.15979
# Poissons Ratio (z) = 0.15161 0.15161
#
# Static dielectric constant tensor:
#      x y z
#    x 1.832290 0.000000 0.000000 
#    y 0.000000 1.832290 0.000000 
#    z 0.000000 0.000000 1.788050 
# 
# From -- ./inp_files/4846.got.cif
#   From: 2010.05.17/outbox.cif.g08.bks.cpg/sg87_3_cif.got.tgz:4846.got - 2010.06.03 19:07:00.
