data_PCOD9546592
_publ_section_title
;
Structure prediction by ZEFSAII (Michael W. Deem and Ramdas Pophale) SiO2 
 PCOD9546592
Probable space group: I 41/A
;
_chemical_formula_sum "Si O2"
_cell_formula_units_Z 72
_cell_length_a 10.952880
_cell_length_b 10.952880
_cell_length_c 25.019032
_cell_angle_alpha 90.000000
_cell_angle_beta 90.000000
_cell_angle_gamma 90.000000
_cell_volume 3001.422692
_symmetry_space_group_name_H-M "I 41/A"
_symmetry_group_IT_number 88
_space_group.IT_coordinate_system_code '2'
_symmetry_cell_setting 'tetragonal'
loop_
_space_group_symop_operation_xyz
x,y,z
3/4-y,1/4+x,1/4+z
-x,1/2-y,z
1/4+y,1/4-x,1/4+z
-x,-y,-z
1/4+y,3/4-x,3/4-z
x,1/2+y,-z
3/4-y,3/4+x,3/4-z
1/2+x,1/2+y,1/2+z
1/4-y,3/4+x,3/4+z
1/2-x,-y,1/2+z
3/4+y,3/4-x,3/4+z
1/2-x,1/2-y,1/2-z
3/4+y,1/4-x,1/4-z
1/2+x,y,1/2-z
1/4-y,1/4+x,1/4-z
loop_
_atom_site_type_symbol
_atom_site_label
_atom_site_fract_x
_atom_site_fract_y
_atom_site_fract_z
Si Si1 0.418526 0.368645 0.565816
Si Si2 0.000000 0.750000 0.875000
Si Si3 0.809163 0.563106 0.370119
Si Si4 0.500000 0.250000 0.875000
Si Si5 0.682478 0.623747 0.544403
Si Si6 0.444517 0.113110 0.669532
O O1 0.500000 0.250000 0.553521
O O2 0.288289 0.357771 0.595585
O O3 0.381785 0.421959 0.509159
O O4 0.498443 0.429815 0.612250
O O5 0.922042 0.666270 0.835926
O O6 0.911759 0.652698 0.347320
O O7 0.734280 0.507373 0.321353
O O8 0.853766 0.450821 0.408772
O O9 0.773577 0.741212 0.537781
O O10 0.500000 0.250000 0.677061
#
# Coordination Sequence:
#
# PCOD9546592 Si02
#       6
#    16   4  16   4  16  16
#     4  10  22  43  71 103 135 181 229 288 361 423
#     4  12  20  40  68 112 146 168 212 308 376 420
#     4  11  24  45  68  99 138 191 231 292 340 416
#     4  12  24  48  68  84 138 200 252 264 336 412
#     4  11  22  42  69 107 140 174 228 296 369 420
#     4  10  22  45  66  97 145 183 231 291 345 408
#
# _framework density 23.988623
#
# number of rings (size 3 to 8) (size 9 to 14) (size 15 to 20)
#    0.000    1.333    3.333    4.000    0.000    0.889 
#   14.000    2.222    0.000    0.000    0.000    0.000 
#    0.000    0.000    0.000    0.000    0.000    0.000 
#
# Total GULP energy -200837.518178 kJ/mol
# GULP energy per Si atom -5578.819949 kJ/mol
# Density = 2.393402 g / cm^3
# Si number density = 23.988623 Si / 1000 Ang^3
#
#
#
# Elastic Constant Matrix: (Units=GPa)
#
#
# Indices 1 2 3 4 5 6 
#
# 1 119.5021 63.8798 4.1582 0.0000 0.0000 1.7104
# 2 63.8798 119.5021 4.1582 0.0000 0.0000 -1.7104
# 3 4.1582 4.1582 70.6127 0.0000 0.0000 0.0000
# 4 0.0000 0.0000 0.0000 4.1816 0.0000 0.0000
# 5 0.0000 0.0000 0.0000 0.0000 4.1816 0.0000
# 6 1.7104 -1.7104 0.0000 0.0000 0.0000 63.2981
#
#
#
# Elastic Compliance Matrix: (Units=1/GPa)
#
#
# Indices 1 2 3 4 5 6 
#
# 1 0.011738 -0.006270 -0.000322 0.000000 0.000000 -0.000487
# 2 -0.006270 0.011738 -0.000322 0.000000 0.000000 0.000487
# 3 -0.000322 -0.000322 0.014200 0.000000 0.000000 0.000000
# 4 0.000000 0.000000 0.000000 0.239145 0.000000 0.000000
# 5 0.000000 0.000000 0.000000 0.000000 0.239145 0.000000
# 6 -0.000487 0.000487 0.000000 0.000000 0.000000 0.015825
#
#
# Mechanical properties :
#
#
# Convention : Reuss Voigt Hill
#
# Bulk Modulus (GPa) = 41.93372 50.44549 46.18961
# Shear Modulus (GPa) = 9.03230 30.16029 19.59630
#
# Velocity S-wave (km/s) = 1.94253 3.54965 2.86125
# Velocity P-wave (km/s) = 4.74867 6.15424 5.49657
#
# Compressibility (1/GPa) = 0.02384716
#
# Stress axis : x y z
#
# Youngs Moduli (GPa) = 85.19325 85.19325 70.42415
#
# Poissons Ratio (x) = 0.53419 0.02268
# Poissons Ratio (y) = 0.53419 0.02268
# Poissons Ratio (z) = 0.02743 0.02743
#
# Static dielectric constant tensor:
#      x y z
#    x 1.978310 0.000000 0.000000 
#    y 0.000000 1.978310 0.000000 
#    z 0.000000 0.000000 1.915240 
# 
# From -- ./inp_files/5766.got.cif
#   From: 2010.05.17/outbox.cif.g08.bks.cpg/sg88_3_cif.got.tgz:5766.got - 2010.06.03 19:11:41.
