data_PCOD9546291
_publ_section_title
;
Structure prediction by ZEFSAII (Michael W. Deem and Ramdas Pophale) SiO2 
 PCOD9546291
Probable space group: I 41/A
;
_chemical_formula_sum "Si O2"
_cell_formula_units_Z 120
_cell_length_a 17.882135
_cell_length_b 17.882135
_cell_length_c 20.282753
_cell_angle_alpha 90.000000
_cell_angle_beta 90.000000
_cell_angle_gamma 90.000000
_cell_volume 6485.831183
_symmetry_space_group_name_H-M "I 41/A"
_symmetry_group_IT_number 88
_space_group.IT_coordinate_system_code '2'
_symmetry_cell_setting 'tetragonal'
loop_
_space_group_symop_operation_xyz
x,y,z
3/4-y,1/4+x,1/4+z
-x,1/2-y,z
1/4+y,1/4-x,1/4+z
-x,-y,-z
1/4+y,3/4-x,3/4-z
x,1/2+y,-z
3/4-y,3/4+x,3/4-z
1/2+x,1/2+y,1/2+z
1/4-y,3/4+x,3/4+z
1/2-x,-y,1/2+z
3/4+y,3/4-x,3/4+z
1/2-x,1/2-y,1/2-z
3/4+y,1/4-x,1/4-z
1/2+x,y,1/2-z
1/4-y,1/4+x,1/4-z
loop_
_atom_site_type_symbol
_atom_site_label
_atom_site_fract_x
_atom_site_fract_y
_atom_site_fract_z
Si Si1 0.623007 0.077916 0.829910
Si Si2 0.645725 0.326445 0.609784
Si Si3 0.658431 0.798808 0.938566
Si Si4 0.189062 0.717487 0.385773
Si Si5 0.395116 0.585178 0.268248
Si Si6 0.703282 0.463279 0.527967
Si Si7 0.000000 0.750000 0.613501
Si Si8 0.184967 0.025369 0.887582
O O1 0.588782 0.073499 0.757419
O O2 0.672962 0.152157 0.834250
O O3 0.551327 0.084557 0.877902
O O4 0.668827 0.004475 0.848451
O O5 0.722379 0.281818 0.599413
O O6 0.639473 0.350652 0.686608
O O7 0.655432 0.402097 0.567811
O O8 0.570260 0.281585 0.595593
O O9 0.695677 0.715809 0.938463
O O10 0.570277 0.781004 0.928548
O O11 0.685374 0.859102 0.885669
O O12 0.146174 0.688401 0.451034
O O13 0.330993 0.528536 0.245063
O O14 0.669825 0.487627 0.458227
O O15 0.723621 0.530351 0.578694
#
# Coordination Sequence:
#
# PCOD9546291 Si02
#       8
#    16  16  16  16  16  16   8  16
#     4  11  21  35  52  84 124 161 205 250 290 357
#     4  10  19  37  59  83 110 163 198 246 299 368
#     4  10  23  37  58  84 125 160 213 248 296 370
#     4  10  21  32  53  80 116 161 201 245 298 348
#     4   9  18  36  54  78 117 158 193 247 296 358
#     4  11  20  36  67  88 124 151 205 252 319 357
#     4  10  22  42  58  81 121 170 204 240 314 378
#     4  12  21  38  61  97 116 159 204 267 301 367
#
# _framework density 18.501868000000002
#
# number of rings (size 3 to 8) (size 9 to 14) (size 15 to 20)
#    0.000    1.600    5.333    0.800    0.000    3.467 
#    0.000    4.667    0.000    0.000    0.000    0.933 
#    0.000    0.000    0.000    0.000    0.000    0.000 
#
# Total GULP energy -334146.369151 kJ/mol
# GULP energy per Si atom -5569.106153 kJ/mol
# Density = 1.845976 g / cm^3
# Si number density = 18.501868 Si / 1000 Ang^3
#
#
#
# Elastic Constant Matrix: (Units=GPa)
#
#
# Indices 1 2 3 4 5 6 
#
# 1 71.0266 19.0641 17.7568 0.0000 0.0000 4.8248
# 2 19.0641 71.0266 17.7568 0.0000 0.0000 -4.8248
# 3 17.7568 17.7568 58.8366 0.0000 0.0000 0.0000
# 4 0.0000 0.0000 0.0000 13.1089 0.0000 0.0000
# 5 0.0000 0.0000 0.0000 0.0000 13.1089 0.0000
# 6 4.8248 -4.8248 0.0000 0.0000 0.0000 32.4796
#
#
#
# Elastic Compliance Matrix: (Units=1/GPa)
#
#
# Indices 1 2 3 4 5 6 
#
# 1 0.016195 -0.003596 -0.003802 0.000000 0.000000 -0.002940
# 2 -0.003596 0.016195 -0.003802 0.000000 0.000000 0.002940
# 3 -0.003802 -0.003802 0.019291 0.000000 0.000000 0.000000
# 4 0.000000 0.000000 0.000000 0.076284 0.000000 0.000000
# 5 0.000000 0.000000 0.000000 0.000000 0.076284 0.000000
# 6 -0.002940 0.002940 0.000000 0.000000 0.000000 0.031662
#
#
# Mechanical properties :
#
#
# Convention : Reuss Voigt Hill
#
# Bulk Modulus (GPa) = 34.15337 34.44944 34.30141
# Shear Modulus (GPa) = 18.65171 21.49360 20.07265
#
# Velocity S-wave (km/s) = 3.17850 3.41207 3.29735
# Velocity P-wave (km/s) = 5.65420 5.84661 5.75121
#
# Compressibility (1/GPa) = 0.02927969
#
# Stress axis : x y z
#
# Youngs Moduli (GPa) = 61.74861 61.74861 51.83689
#
# Poissons Ratio (x) = 0.22204 0.19710
# Poissons Ratio (y) = 0.22204 0.19710
# Poissons Ratio (z) = 0.23479 0.23479
#
# Static dielectric constant tensor:
#      x y z
#    x 1.662660 0.000000 0.000000 
#    y 0.000000 1.662660 0.000000 
#    z 0.000000 0.000000 1.675930 
# 
# From -- ./inp_files/4852.got.cif
#   From: 2010.05.17/outbox.cif.g08.bks.cpg/sg88_3_cif.got.tgz:4852.got - 2010.06.03 19:11:41.
