data_PCOD9546773
_publ_section_title
;
Structure prediction by ZEFSAII (Michael W. Deem and Ramdas Pophale) SiO2 
 PCOD9546773
Probable space group: I 41/A
;
_chemical_formula_sum "Si O2"
_cell_formula_units_Z 96
_cell_length_a 13.971217
_cell_length_b 13.971217
_cell_length_c 20.332670
_cell_angle_alpha 90.000000
_cell_angle_beta 90.000000
_cell_angle_gamma 90.000000
_cell_volume 3968.833578
_symmetry_space_group_name_H-M "I 41/A"
_symmetry_group_IT_number 88
_space_group.IT_coordinate_system_code '2'
_symmetry_cell_setting 'tetragonal'
loop_
_space_group_symop_operation_xyz
x,y,z
3/4-y,1/4+x,1/4+z
-x,1/2-y,z
1/4+y,1/4-x,1/4+z
-x,-y,-z
1/4+y,3/4-x,3/4-z
x,1/2+y,-z
3/4-y,3/4+x,3/4-z
1/2+x,1/2+y,1/2+z
1/4-y,3/4+x,3/4+z
1/2-x,-y,1/2+z
3/4+y,3/4-x,3/4+z
1/2-x,1/2-y,1/2-z
3/4+y,1/4-x,1/4-z
1/2+x,y,1/2-z
1/4-y,1/4+x,1/4-z
loop_
_atom_site_type_symbol
_atom_site_label
_atom_site_fract_x
_atom_site_fract_y
_atom_site_fract_z
Si Si1 0.570187 0.996025 0.243664
Si Si2 0.129052 0.973702 0.791903
Si Si3 0.610855 0.510344 0.020163
Si Si4 0.866043 0.700286 0.389313
Si Si5 0.097034 0.505561 0.066418
Si Si6 0.951597 0.646110 0.036691
O O1 0.486167 0.039136 0.289521
O O2 0.658471 0.928228 0.265262
O O3 0.507717 0.930343 0.196953
O O4 0.602020 0.088040 0.200673
O O5 0.163500 0.078867 0.769126
O O6 0.152775 0.968717 0.869518
O O7 0.185529 0.906279 0.739899
O O8 0.611697 0.544380 0.096689
O O9 0.500000 0.500000 0.000000
O O10 0.898505 0.787137 0.341494
O O11 0.014723 0.581752 0.085616
O O12 0.049028 0.414022 0.031498
O O13 0.000000 0.750000 0.032996
#
# Coordination Sequence:
#
# PCOD9546773 Si02
#       6
#    16  16  16  16  16  16
#     4  11  23  44  66 102 141 190 242 307 373 442
#     4  12  25  48  73 106 148 198 253 320 381 465
#     4  11  24  41  65 105 139 188 239 298 376 448
#     4   9  19  38  65  93 137 181 227 286 353 441
#     4  11  27  49  73 110 145 195 262 313 386 471
#     4  11  24  49  72 108 143 194 250 315 380 457
#
# _framework density 24.188465000000001
#
# number of rings (size 3 to 8) (size 9 to 14) (size 15 to 20)
#    0.000    1.167    3.333    2.000    0.000    7.333 
#    3.000    0.000    0.000    0.000    0.000    0.000 
#    0.000    0.000    0.000    0.000    0.000    0.000 
#
# Total GULP energy -267539.597745 kJ/mol
# GULP energy per Si atom -5573.741620 kJ/mol
# Density = 2.413341 g / cm^3
# Si number density = 24.188465 Si / 1000 Ang^3
#
#
#
# Elastic Constant Matrix: (Units=GPa)
#
#
# Indices 1 2 3 4 5 6 
#
# 1 102.6196 25.5457 5.3112 0.0000 0.0000 -1.0805
# 2 25.5457 102.6196 5.3112 0.0000 0.0000 1.0805
# 3 5.3112 5.3112 65.0947 0.0000 0.0000 0.0000
# 4 0.0000 0.0000 0.0000 27.0027 0.0000 0.0000
# 5 0.0000 0.0000 0.0000 0.0000 27.0027 0.0000
# 6 -1.0805 1.0805 0.0000 0.0000 0.0000 47.8945
#
#
#
# Elastic Compliance Matrix: (Units=1/GPa)
#
#
# Indices 1 2 3 4 5 6 
#
# 1 0.010419 -0.002564 -0.000641 0.000000 0.000000 0.000293
# 2 -0.002564 0.010419 -0.000641 0.000000 0.000000 -0.000293
# 3 -0.000641 -0.000641 0.015467 0.000000 0.000000 0.000000
# 4 0.000000 0.000000 0.000000 0.037033 0.000000 0.000000
# 5 0.000000 0.000000 0.000000 0.000000 0.037033 0.000000
# 6 0.000293 -0.000293 0.000000 0.000000 0.000000 0.020892
#
#
# Mechanical properties :
#
#
# Convention : Reuss Voigt Hill
#
# Bulk Modulus (GPa) = 34.94779 38.07448 36.51114
# Shear Modulus (GPa) = 33.67156 35.99104 34.83130
#
# Velocity S-wave (km/s) = 3.73507 3.86157 3.79884
# Velocity P-wave (km/s) = 5.75156 5.97137 5.86249
#
# Compressibility (1/GPa) = 0.02861411
#
# Stress axis : x y z
#
# Youngs Moduli (GPa) = 95.97706 95.97707 64.65446
#
# Poissons Ratio (x) = 0.24605 0.04144
# Poissons Ratio (y) = 0.24605 0.04144
# Poissons Ratio (z) = 0.06152 0.06152
#
# Static dielectric constant tensor:
#      x y z
#    x 2.102640 0.000000 0.000000 
#    y 0.000000 2.102640 0.000000 
#    z 0.000000 0.000000 1.989190 
# 
# From -- ./inp_files/4674.got.cif
#   From: 2010.05.17/outbox.cif.g08.bks.cpg/sg88_3_cif.got.tgz:4674.got - 2010.06.03 19:11:41.
