data_PCOD9546903
_publ_section_title
;
Structure prediction by ZEFSAII (Michael W. Deem and Ramdas Pophale) SiO2 
 PCOD9546903
Probable space group: P 4 2 2
;
_chemical_formula_sum "Si O2"
_cell_formula_units_Z 60
_cell_length_a 24.404719
_cell_length_b 24.404719
_cell_length_c 6.489217
_cell_angle_alpha 90.000000
_cell_angle_beta 90.000000
_cell_angle_gamma 90.000000
_cell_volume 3864.914761
_symmetry_space_group_name_H-M "P 4 2 2"
_symmetry_group_IT_number 89
_symmetry_cell_setting 'tetragonal'
loop_
_space_group_symop_operation_xyz
x,y,z
-y,x,z
-x,-y,z
y,-x,z
x,-y,-z
-x,y,-z
y,x,-z
-y,-x,-z
loop_
_atom_site_type_symbol
_atom_site_label
_atom_site_fract_x
_atom_site_fract_y
_atom_site_fract_z
Si Si1 0.207998 0.127731 0.621215
Si Si2 0.888753 0.447524 0.389631
Si Si3 0.500000 0.824725 0.000000
Si Si4 0.280531 0.800948 0.070657
Si Si5 0.165118 0.604126 0.785634
Si Si6 0.059314 0.628149 0.076463
Si Si7 0.739042 0.100870 0.780961
Si Si8 0.936076 0.154807 0.970597
O O1 0.162433 0.162433 0.500000
O O2 0.236573 0.169405 0.780269
O O3 0.253004 0.105255 0.462415
O O4 0.180075 0.079137 0.748420
O O5 0.915422 0.500000 0.500000
O O6 0.857510 0.475007 0.195442
O O7 0.850460 0.416201 0.556261
O O8 0.927827 0.403687 0.286441
O O9 0.444767 0.801082 0.102223
O O10 0.338651 0.803766 0.184239
O O11 0.257254 0.742747 0.000000
O O12 0.280156 0.840339 0.870255
O O13 0.107151 0.613570 0.910004
O O14 0.061270 0.692452 0.131370
O O15 0.000000 0.611818 0.000000
O O16 0.797903 0.083961 0.871930
O O17 0.898564 0.101437 0.000000
O O18 0.000000 0.144407 0.000000
#
# Coordination Sequence:
#
# PCOD9546903 Si02
#       8
#     8   8   4   8   8   8   8   8
#     4  11  18  34  55  72  93 121 147 176 230 299
#     4   9  17  33  48  63  88 123 161 197 233 272
#     4   8  16  32  49  62  86 124 166 197 226 272
#     4  10  18  29  49  77 101 118 148 190 238 281
#     4   9  18  31  47  66  92 124 155 193 234 276
#     4  10  20  32  46  69  95 116 153 193 233 279
#     4  10  19  35  52  71  95 120 144 185 233 292
#     4  11  23  38  53  72  92 113 146 184 232 290
#
# _framework density 15.524276
#
# number of rings (size 3 to 8) (size 9 to 14) (size 15 to 20)
#    0.000    2.133    2.667    2.000    0.000    1.200 
#    0.000   16.667    0.000    0.000    0.000    0.933 
#    0.000    0.000    0.000    0.000    0.000    0.333 
#
# Total GULP energy -334131.994102 kJ/mol
# GULP energy per Si atom -5568.866568 kJ/mol
# Density = 1.548894 g / cm^3
# Si number density = 15.524276 Si / 1000 Ang^3
#
#
#
# Elastic Constant Matrix: (Units=GPa)
#
#
# Indices 1 2 3 4 5 6 
#
# 1 76.5986 27.5331 22.5019 0.0000 0.0000 0.0000
# 2 27.5331 76.6010 22.5028 0.0000 0.0000 0.0000
# 3 22.5019 22.5028 86.9230 0.0000 0.0000 0.0000
# 4 0.0000 0.0000 0.0000 13.9304 0.0000 0.0000
# 5 0.0000 0.0000 0.0000 0.0000 13.9291 0.0000
# 6 0.0000 0.0000 0.0000 0.0000 0.0000 -4.1773
#
#
#
# Elastic Compliance Matrix: (Units=1/GPa)
#
#
# Indices 1 2 3 4 5 6 
#
# 1 0.015597 -0.004784 -0.002799 0.000000 0.000000 0.000000
# 2 -0.004784 0.015596 -0.002799 0.000000 0.000000 0.000000
# 3 -0.002799 -0.002799 0.012954 0.000000 0.000000 0.000000
# 4 0.000000 0.000000 0.000000 0.071785 0.000000 0.000000
# 5 0.000000 0.000000 0.000000 0.000000 0.071792 0.000000
# 6 0.000000 0.000000 0.000000 0.000000 0.000000 -0.239391
#
#
# Mechanical properties :
#
#
# Convention : Reuss Voigt Hill
#
# Bulk Modulus (GPa) = 42.76668 42.79979 42.78323
# Shear Modulus (GPa) = -216.37851 15.90878 -100.23487
#
# Velocity S-wave (km/s) = -11.81877 3.20467 -8.04405
# Velocity P-wave (km/s) = 12.59509 6.42827 7.65878
#
# Compressibility (1/GPa) = 0.02338269
#
# Stress axis : x y z
#
# Youngs Moduli (GPa) = 64.11541 64.11723 77.19780
#
# Poissons Ratio (x) = 0.30672 0.21609
# Poissons Ratio (y) = 0.30671 0.21610
# Poissons Ratio (z) = 0.17947 0.17948
#
# Static dielectric constant tensor:
#      x y z
#    x 1.524570 0.000000 0.000000 
#    y 0.000000 1.524570 0.000000 
#    z 0.000000 0.000000 1.553090 
# 
# From -- ./inp_files/568.got.cif
#   From: 2010.05.17/outbox.cif.g08.bks.cpg/sg89_1_cif.got.tgz:568.got - 2010.06.03 19:15:31.
