data_PCOD9546345
_publ_section_title
;
Structure prediction by ZEFSAII (Michael W. Deem and Ramdas Pophale) SiO2 
 PCOD9546345
Probable space group: I 41/A
;
_chemical_formula_sum "Si O2"
_cell_formula_units_Z 64
_cell_length_a 19.054911
_cell_length_b 19.054911
_cell_length_c 7.014220
_cell_angle_alpha 90.000000
_cell_angle_beta 90.000000
_cell_angle_gamma 90.000000
_cell_volume 2546.790567
_symmetry_space_group_name_H-M "I 41/A"
_symmetry_group_IT_number 88
_space_group.IT_coordinate_system_code '2'
_symmetry_cell_setting 'tetragonal'
loop_
_space_group_symop_operation_xyz
x,y,z
3/4-y,1/4+x,1/4+z
-x,1/2-y,z
1/4+y,1/4-x,1/4+z
-x,-y,-z
1/4+y,3/4-x,3/4-z
x,1/2+y,-z
3/4-y,3/4+x,3/4-z
1/2+x,1/2+y,1/2+z
1/4-y,3/4+x,3/4+z
1/2-x,-y,1/2+z
3/4+y,3/4-x,3/4+z
1/2-x,1/2-y,1/2-z
3/4+y,1/4-x,1/4-z
1/2+x,y,1/2-z
1/4-y,1/4+x,1/4-z
loop_
_atom_site_type_symbol
_atom_site_label
_atom_site_fract_x
_atom_site_fract_y
_atom_site_fract_z
Si Si1 0.071134 0.834037 0.945296
Si Si2 0.878133 0.607642 0.589579
Si Si3 0.836893 0.483811 0.344799
Si Si4 0.351473 0.208472 0.768226
O O1 0.093724 0.759140 0.858510
O O2 0.116274 0.887437 0.817609
O O3 0.077719 0.822079 0.169710
O O4 0.833873 0.543821 0.508999
O O5 0.848765 0.676655 0.479429
O O6 0.959141 0.597305 0.517733
O O7 0.777389 0.427833 0.403905
O O8 0.914244 0.451934 0.382479
#
# Coordination Sequence:
#
# PCOD9546345 Si02
#       4
#    16  16  16  16
#     4   9  18  32  54  84 112 138 172 220 279 334
#     4  10  20  36  57  83 112 143 181 230 281 331
#     4  10  23  38  56  76 107 152 194 230 266 322
#     4  10  20  36  57  83 112 143 181 230 281 331
#
# _framework density 25.129664999999999
#
# number of rings (size 3 to 8) (size 9 to 14) (size 15 to 20)
#    0.000    2.250    0.000    2.250    3.500    2.500 
#    0.000    0.000    0.000   15.000    0.000    0.000 
#    0.000    0.000    0.000    0.000    0.000    0.000 
#
# Total GULP energy -178491.448162 kJ/mol
# GULP energy per Si atom -5577.857755 kJ/mol
# Density = 2.507247 g / cm^3
# Si number density = 25.129665 Si / 1000 Ang^3
#
#
#
# Elastic Constant Matrix: (Units=GPa)
#
#
# Indices 1 2 3 4 5 6 
#
# 1 42.9121 17.7823 8.5301 0.0000 0.0000 -3.3383
# 2 17.7823 42.9121 8.5301 0.0000 0.0000 3.3383
# 3 8.5301 8.5301 85.6837 0.0000 0.0000 0.0000
# 4 0.0000 0.0000 0.0000 23.2311 0.0000 0.0000
# 5 0.0000 0.0000 0.0000 0.0000 23.2311 0.0000
# 6 -3.3383 3.3383 0.0000 0.0000 0.0000 29.4091
#
#
#
# Elastic Compliance Matrix: (Units=1/GPa)
#
#
# Indices 1 2 3 4 5 6 
#
# 1 0.028991 -0.012040 -0.001687 0.000000 0.000000 0.004658
# 2 -0.012040 0.028991 -0.001687 0.000000 0.000000 -0.004658
# 3 -0.001687 -0.001687 0.012007 0.000000 0.000000 0.000000
# 4 0.000000 0.000000 0.000000 0.043046 0.000000 0.000000
# 5 0.000000 0.000000 0.000000 0.000000 0.043046 0.000000
# 6 0.004658 -0.004658 0.000000 0.000000 0.000000 0.035060
#
#
# Mechanical properties :
#
#
# Convention : Reuss Voigt Hill
#
# Bulk Modulus (GPa) = 25.53783 26.79920 26.16851
# Shear Modulus (GPa) = 21.27455 24.28529 22.77992
#
# Velocity S-wave (km/s) = 2.91278 3.11207 3.01407
# Velocity P-wave (km/s) = 4.63647 4.85807 4.74856
#
# Compressibility (1/GPa) = 0.03915760
#
# Stress axis : x y z
#
# Youngs Moduli (GPa) = 34.49405 34.49405 83.28608
#
# Poissons Ratio (x) = 0.41532 0.14054
# Poissons Ratio (y) = 0.41532 0.14054
# Poissons Ratio (z) = 0.05821 0.05821
#
# Static dielectric constant tensor:
#      x y z
#    x 2.041580 0.000000 0.000000 
#    y 0.000000 2.041580 0.000000 
#    z 0.000000 0.000000 2.094610 
# 
# From -- ./inp_files/544.got.cif
#   From: 2010.05.17/outbox.cif.g08.bks.cpg/sg88_1_cif.got.tgz:544.got - 2010.06.03 19:11:41.
