data_PCOD9546433
_publ_section_title
;
Structure prediction by ZEFSAII (Michael W. Deem and Ramdas Pophale) SiO2 
 PCOD9546433
Probable space group: I 41/A
;
_chemical_formula_sum "Si O2"
_cell_formula_units_Z 64
_cell_length_a 10.405357
_cell_length_b 10.405357
_cell_length_c 29.381217
_cell_angle_alpha 90.000000
_cell_angle_beta 90.000000
_cell_angle_gamma 90.000000
_cell_volume 3181.147094
_symmetry_space_group_name_H-M "I 41/A"
_symmetry_group_IT_number 88
_space_group.IT_coordinate_system_code '2'
_symmetry_cell_setting 'tetragonal'
loop_
_space_group_symop_operation_xyz
x,y,z
3/4-y,1/4+x,1/4+z
-x,1/2-y,z
1/4+y,1/4-x,1/4+z
-x,-y,-z
1/4+y,3/4-x,3/4-z
x,1/2+y,-z
3/4-y,3/4+x,3/4-z
1/2+x,1/2+y,1/2+z
1/4-y,3/4+x,3/4+z
1/2-x,-y,1/2+z
3/4+y,3/4-x,3/4+z
1/2-x,1/2-y,1/2-z
3/4+y,1/4-x,1/4-z
1/2+x,y,1/2-z
1/4-y,1/4+x,1/4-z
loop_
_atom_site_type_symbol
_atom_site_label
_atom_site_fract_x
_atom_site_fract_y
_atom_site_fract_z
Si Si1 0.213829 0.055968 0.230751
Si Si2 0.621972 0.169133 0.745398
Si Si3 0.721822 0.765729 0.919338
Si Si4 0.739316 0.825348 0.678116
O O1 0.189712 0.088722 0.283841
O O2 0.224990 0.188595 0.203129
O O3 0.341432 0.967194 0.230929
O O4 0.096311 0.986791 0.206456
O O5 0.500000 0.250000 0.762554
O O6 0.750000 0.250000 0.750000
O O7 0.601698 0.138063 0.691858
O O8 0.850504 0.854528 0.918167
O O9 0.698462 0.704247 0.870400
#
# Coordination Sequence:
#
# PCOD9546433 Si02
#       4
#    16  16  16  16
#     4  10  21  37  64 100 131 173 218 280 347 413
#     4  11  23  43  68  88 128 185 231 276 343 423
#     4  11  20  38  71  96 134 174 222 284 358 411
#     4  10  21  36  65 104 133 163 219 284 350 410
#
# _framework density 20.11853
#
# number of rings (size 3 to 8) (size 9 to 14) (size 15 to 20)
#    0.000    1.500    5.000    0.750    0.000    0.000 
#    0.000    7.500    5.500    0.000    0.000    0.000 
#    0.000    0.000    0.000    0.000    0.000    0.000 
#
# Total GULP energy -178373.265251 kJ/mol
# GULP energy per Si atom -5574.164539 kJ/mol
# Density = 2.007274 g / cm^3
# Si number density = 20.118530 Si / 1000 Ang^3
#
#
#
# Elastic Constant Matrix: (Units=GPa)
#
#
# Indices 1 2 3 4 5 6 
#
# 1 80.0225 36.7043 44.0132 0.0000 0.0000 3.4881
# 2 36.7043 80.0225 44.0132 0.0000 0.0000 -3.4881
# 3 44.0132 44.0132 165.0272 0.0000 0.0000 0.0000
# 4 0.0000 0.0000 0.0000 23.9411 0.0000 0.0000
# 5 0.0000 0.0000 0.0000 0.0000 23.9411 0.0000
# 6 3.4881 -3.4881 0.0000 0.0000 0.0000 42.3697
#
#
#
# Elastic Compliance Matrix: (Units=1/GPa)
#
#
# Indices 1 2 3 4 5 6 
#
# 1 0.017060 -0.006336 -0.002860 0.000000 0.000000 -0.001926
# 2 -0.006336 0.017060 -0.002860 0.000000 0.000000 0.001926
# 3 -0.002860 -0.002860 0.007585 0.000000 0.000000 0.000000
# 4 0.000000 0.000000 0.000000 0.041769 0.000000 0.000000
# 5 0.000000 0.000000 0.000000 0.000000 0.041769 0.000000
# 6 -0.001926 0.001926 0.000000 0.000000 0.000000 0.023919
#
#
# Mechanical properties :
#
#
# Convention : Reuss Voigt Hill
#
# Bulk Modulus (GPa) = 56.84212 63.83706 60.33959
# Shear Modulus (GPa) = 27.91156 31.40649 29.65903
#
# Velocity S-wave (km/s) = 3.72876 3.95533 3.84372
# Velocity P-wave (km/s) = 6.84494 7.25664 7.05379
#
# Compressibility (1/GPa) = 0.01759259
#
# Stress axis : x y z
#
# Youngs Moduli (GPa) = 58.61836 58.61836 131.83589
#
# Poissons Ratio (x) = 0.37138 0.37706
# Poissons Ratio (y) = 0.37138 0.37706
# Poissons Ratio (z) = 0.16765 0.16765
#
# Static dielectric constant tensor:
#      x y z
#    x 1.786670 0.000000 0.000000 
#    y 0.000000 1.786670 0.000000 
#    z 0.000000 0.000000 1.697320 
# 
# From -- ./inp_files/5645.got.cif
#   From: 2010.05.17/outbox.cif.g08.bks.cpg/sg88_3_cif.got.tgz:5645.got - 2010.06.03 19:11:41.
