data_PCOD9546175
_publ_section_title
;
Structure prediction by ZEFSAII (Michael W. Deem and Ramdas Pophale) SiO2 
 PCOD9546175
Probable space group: I 4/M
;
_chemical_formula_sum "Si O2"
_cell_formula_units_Z 56
_cell_length_a 13.521356
_cell_length_b 13.521356
_cell_length_c 11.424736
_cell_angle_alpha 90.000000
_cell_angle_beta 90.000000
_cell_angle_gamma 90.000000
_cell_volume 2088.750986
_symmetry_space_group_name_H-M "I 4/M"
_symmetry_group_IT_number 87
_symmetry_cell_setting 'tetragonal'
loop_
_space_group_symop_operation_xyz
x,y,z
-y,x,z
-x,-y,z
y,-x,z
-x,-y,-z
y,-x,-z
x,y,-z
-y,x,-z
1/2+x,1/2+y,1/2+z
1/2-y,1/2+x,1/2+z
1/2-x,1/2-y,1/2+z
1/2+y,1/2-x,1/2+z
1/2-x,1/2-y,1/2-z
1/2+y,1/2-x,1/2-z
1/2+x,1/2+y,1/2-z
1/2-y,1/2+x,1/2-z
loop_
_atom_site_type_symbol
_atom_site_label
_atom_site_fract_x
_atom_site_fract_y
_atom_site_fract_z
Si Si1 0.029754 0.151627 0.860509
Si Si2 0.187370 0.650638 0.874168
Si Si3 0.161297 0.336185 0.129266
Si Si4 0.533000 0.663232 0.000000
O O1 0.071077 0.260319 0.856344
O O2 0.925398 0.112577 0.812587
O O3 0.020941 0.137121 0.000000
O O4 0.264009 0.742806 0.873575
O O5 0.119517 0.657141 0.759999
O O6 0.133228 0.655868 0.000000
O O7 0.263547 0.557769 0.891531
O O8 0.155405 0.384750 0.000000
O O9 0.426855 0.612024 0.000000
#
# Coordination Sequence:
#
# PCOD9546175 Si02
#       4
#    16  16  16   8
#     4   8  14  23  36  59  89 115 136 166 215 264
#     4   8  17  29  41  60  82 116 157 183 212 260
#     4   9  15  27  44  59  85 117 150 188 217 254
#     4   9  18  32  48  66  92 125 156 182 218 275
#
# _framework density 26.810281
#
# number of rings (size 3 to 8) (size 9 to 14) (size 15 to 20)
#    0.857    2.714    0.000    0.857    0.000    2.286 
#    0.000    2.857    0.000    0.000    0.000    0.000 
#    0.000    4.571    0.000   12.571    0.000    0.000 
#
# Total GULP energy -155999.105805 kJ/mol
# GULP energy per Si atom -5571.396636 kJ/mol
# Density = 2.674926 g / cm^3
# Si number density = 26.810281 Si / 1000 Ang^3
#
#
#
# Elastic Constant Matrix: (Units=GPa)
#
#
# Indices 1 2 3 4 5 6 
#
# 1 81.5479 44.5261 25.8072 0.0000 0.0000 -2.8098
# 2 44.5261 81.5479 25.8072 0.0000 0.0000 2.8098
# 3 25.8072 25.8072 237.9600 0.0000 0.0000 0.0000
# 4 0.0000 0.0000 0.0000 21.4414 0.0000 0.0000
# 5 0.0000 0.0000 0.0000 0.0000 21.4414 0.0000
# 6 -2.8098 2.8098 0.0000 0.0000 0.0000 31.9694
#
#
#
# Elastic Compliance Matrix: (Units=1/GPa)
#
#
# Indices 1 2 3 4 5 6 
#
# 1 0.017838 -0.009538 -0.000900 0.000000 0.000000 0.002406
# 2 -0.009538 0.017838 -0.000900 0.000000 0.000000 -0.002406
# 3 -0.000900 -0.000900 0.004398 0.000000 0.000000 0.000000
# 4 0.000000 0.000000 0.000000 0.046639 0.000000 0.000000
# 5 0.000000 0.000000 0.000000 0.000000 0.046639 0.000000
# 6 0.002406 -0.002406 0.000000 0.000000 0.000000 0.031703
#
#
# Mechanical properties :
#
#
# Convention : Reuss Voigt Hill
#
# Bulk Modulus (GPa) = 57.47904 65.92630 61.70267
# Shear Modulus (GPa) = 25.83567 35.29811 30.56689
#
# Velocity S-wave (km/s) = 3.10764 3.63242 3.38023
# Velocity P-wave (km/s) = 5.86193 6.49892 6.18863
#
# Compressibility (1/GPa) = 0.01739765
#
# Stress axis : x y z
#
# Youngs Moduli (GPa) = 56.05886 56.05886 227.39460
#
# Poissons Ratio (x) = 0.53469 0.20470
# Poissons Ratio (y) = 0.53469 0.20470
# Poissons Ratio (z) = 0.05046 0.05046
#
# Static dielectric constant tensor:
#      x y z
#    x 2.070780 0.000000 0.000000 
#    y 0.000000 2.070780 0.000000 
#    z 0.000000 0.000000 2.270390 
# 
# From -- ./inp_files/2244.got.cif
#   From: 2010.05.17/outbox.cif.g08.bks.cpg/sg87_2_cif.got.tgz:2244.got - 2010.06.03 19:07:00.
