data_PCOD9546568
_publ_section_title
;
Structure prediction by ZEFSAII (Michael W. Deem and Ramdas Pophale) SiO2 
 PCOD9546568
Probable space group: I 41/A
;
_chemical_formula_sum "Si O2"
_cell_formula_units_Z 112
_cell_length_a 14.630274
_cell_length_b 14.630274
_cell_length_c 25.599993
_cell_angle_alpha 90.000000
_cell_angle_beta 90.000000
_cell_angle_gamma 90.000000
_cell_volume 5479.548385
_symmetry_space_group_name_H-M "I 41/A"
_symmetry_group_IT_number 88
_space_group.IT_coordinate_system_code '2'
_symmetry_cell_setting 'tetragonal'
loop_
_space_group_symop_operation_xyz
x,y,z
3/4-y,1/4+x,1/4+z
-x,1/2-y,z
1/4+y,1/4-x,1/4+z
-x,-y,-z
1/4+y,3/4-x,3/4-z
x,1/2+y,-z
3/4-y,3/4+x,3/4-z
1/2+x,1/2+y,1/2+z
1/4-y,3/4+x,3/4+z
1/2-x,-y,1/2+z
3/4+y,3/4-x,3/4+z
1/2-x,1/2-y,1/2-z
3/4+y,1/4-x,1/4-z
1/2+x,y,1/2-z
1/4-y,1/4+x,1/4-z
loop_
_atom_site_type_symbol
_atom_site_label
_atom_site_fract_x
_atom_site_fract_y
_atom_site_fract_z
Si Si1 0.605668 0.348574 0.880598
Si Si2 0.763001 0.172793 0.794809
Si Si3 0.906628 0.797200 0.162346
Si Si4 0.622928 0.530263 0.533346
Si Si5 0.248871 0.076370 0.799929
Si Si6 0.194230 0.306003 0.328043
Si Si7 0.057901 0.372925 0.142631
O O1 0.610804 0.242997 0.897104
O O2 0.602012 0.418830 0.927872
O O3 0.687911 0.374088 0.842450
O O4 0.750000 0.250000 0.750000
O O5 0.834330 0.213410 0.836066
O O6 0.791502 0.090187 0.757721
O O7 0.851825 0.876364 0.194900
O O8 0.929003 0.848857 0.108072
O O9 0.000000 0.750000 0.182824
O O10 0.719137 0.503517 0.558156
O O11 0.544177 0.461469 0.552910
O O12 0.622866 0.539547 0.470928
O O13 0.604857 0.631154 0.556728
O O14 0.276095 0.317386 0.369720
O O15 0.098057 0.298437 0.101630
#
# Coordination Sequence:
#
# PCOD9546568 Si02
#       7
#    16  16  16  16  16  16  16
#     4  11  23  41  68  93 133 177 223 281 333 393
#     4  10  23  44  63  97 131 174 224 273 329 406
#     4  11  24  44  64  92 134 171 211 274 330 391
#     4  10  22  40  66  96 129 168 220 270 334 390
#     4  11  24  42  67  97 131 175 222 274 333 403
#     4  10  22  42  63  96 129 168 219 274 321 405
#     4   9  18  38  64  88 126 167 210 263 326 391
#
# _framework density 20.439640000000001
#
# number of rings (size 3 to 8) (size 9 to 14) (size 15 to 20)
#    0.000    1.714    4.286    0.000    4.000    2.286 
#   10.286    1.429    0.000    0.000    0.000    0.000 
#    0.000    0.000    0.000    0.000    0.000    0.000 
#
# Total GULP energy -311898.237247 kJ/mol
# GULP energy per Si atom -5569.611379 kJ/mol
# Density = 2.039312 g / cm^3
# Si number density = 20.439640 Si / 1000 Ang^3
#
#
#
# Elastic Constant Matrix: (Units=GPa)
#
#
# Indices 1 2 3 4 5 6 
#
# 1 81.2123 31.2851 26.0129 0.0000 0.0000 -3.8345
# 2 31.2851 81.2123 26.0129 0.0000 0.0000 3.8345
# 3 26.0129 26.0129 60.6721 0.0000 0.0000 0.0000
# 4 0.0000 0.0000 0.0000 23.9433 0.0000 0.0000
# 5 0.0000 0.0000 0.0000 0.0000 23.9433 0.0000
# 6 -3.8345 3.8345 0.0000 0.0000 0.0000 24.2143
#
#
#
# Elastic Compliance Matrix: (Units=1/GPa)
#
#
# Indices 1 2 3 4 5 6 
#
# 1 0.015808 -0.004720 -0.004754 0.000000 0.000000 0.003251
# 2 -0.004720 0.015808 -0.004754 0.000000 0.000000 -0.003251
# 3 -0.004754 -0.004754 0.020558 0.000000 0.000000 0.000000
# 4 0.000000 0.000000 0.000000 0.041765 0.000000 0.000000
# 5 0.000000 0.000000 0.000000 0.000000 0.041765 0.000000
# 6 0.003251 -0.003251 0.000000 0.000000 0.000000 0.042327
#
#
# Mechanical properties :
#
#
# Convention : Reuss Voigt Hill
#
# Bulk Modulus (GPa) = 42.16124 43.30202 42.73163
# Shear Modulus (GPa) = 23.32149 23.73923 23.53036
#
# Velocity S-wave (km/s) = 3.38152 3.41167 3.39663
# Velocity P-wave (km/s) = 5.99318 6.06223 6.02781
#
# Compressibility (1/GPa) = 0.02371847
#
# Stress axis : x y z
#
# Youngs Moduli (GPa) = 63.25912 63.25912 48.64214
#
# Poissons Ratio (x) = 0.29861 0.23123
# Poissons Ratio (y) = 0.29861 0.23123
# Poissons Ratio (z) = 0.30072 0.30072
#
# Static dielectric constant tensor:
#      x y z
#    x 1.780120 0.000000 0.000000 
#    y 0.000000 1.780120 0.000000 
#    z 0.000000 0.000000 1.737550 
# 
# From -- ./inp_files/5357.got.cif
#   From: 2010.05.17/outbox.cif.g08.bks.cpg/sg88_3_cif.got.tgz:5357.got - 2010.06.03 19:11:41.
