data_PCOD9546285
_publ_section_title
;
Structure prediction by ZEFSAII (Michael W. Deem and Ramdas Pophale) SiO2 
 PCOD9546285
Probable space group: I 41/A
;
_chemical_formula_sum "Si O2"
_cell_formula_units_Z 80
_cell_length_a 11.316550
_cell_length_b 11.316550
_cell_length_c 26.601488
_cell_angle_alpha 90.000000
_cell_angle_beta 90.000000
_cell_angle_gamma 90.000000
_cell_volume 3406.701043
_symmetry_space_group_name_H-M "I 41/A"
_symmetry_group_IT_number 88
_space_group.IT_coordinate_system_code '2'
_symmetry_cell_setting 'tetragonal'
loop_
_space_group_symop_operation_xyz
x,y,z
3/4-y,1/4+x,1/4+z
-x,1/2-y,z
1/4+y,1/4-x,1/4+z
-x,-y,-z
1/4+y,3/4-x,3/4-z
x,1/2+y,-z
3/4-y,3/4+x,3/4-z
1/2+x,1/2+y,1/2+z
1/4-y,3/4+x,3/4+z
1/2-x,-y,1/2+z
3/4+y,3/4-x,3/4+z
1/2-x,1/2-y,1/2-z
3/4+y,1/4-x,1/4-z
1/2+x,y,1/2-z
1/4-y,1/4+x,1/4-z
loop_
_atom_site_type_symbol
_atom_site_label
_atom_site_fract_x
_atom_site_fract_y
_atom_site_fract_z
Si Si1 0.620276 0.208112 0.703772
Si Si2 0.226198 0.547728 0.403889
Si Si3 0.802777 0.883098 0.754080
Si Si4 0.678022 0.099959 0.800235
Si Si5 0.584470 0.095498 0.351285
O O1 0.500000 0.250000 0.678501
O O2 0.693473 0.109247 0.673568
O O3 0.590001 0.152400 0.758489
O O4 0.705349 0.320502 0.710025
O O5 0.294209 0.589294 0.454198
O O6 0.151596 0.611523 0.359540
O O7 0.339199 0.512165 0.370159
O O8 0.750000 0.750000 0.750000
O O9 0.912733 0.884408 0.792225
O O10 0.706093 0.965814 0.782823
O O11 0.456128 0.097989 0.374015
#
# Coordination Sequence:
#
# PCOD9546285 Si02
#       5
#    16  16  16  16  16
#     4  10  22  42  68  92 130 184 222 277 343 395
#     4  10  21  39  64  94 133 165 228 268 329 405
#     4  10  19  36  61  91 128 172 210 265 334 399
#     4   9  22  42  61  95 129 171 225 277 328 396
#     4  10  20  34  59  93 131 170 202 263 343 399
#
# _framework density 23.483129000000002
#
# number of rings (size 3 to 8) (size 9 to 14) (size 15 to 20)
#    0.000    2.200    2.000    0.000    5.600    0.000 
#   10.800    2.000    4.400    0.000    0.000    0.000 
#    0.000    0.000    0.000    0.000    0.000    0.000 
#
# Total GULP energy -222868.236952 kJ/mol
# GULP energy per Si atom -5571.705924 kJ/mol
# Density = 2.342968 g / cm^3
# Si number density = 23.483129 Si / 1000 Ang^3
#
#
#
# Elastic Constant Matrix: (Units=GPa)
#
#
# Indices 1 2 3 4 5 6 
#
# 1 75.6745 11.5259 26.4909 0.0000 0.0000 -1.7967
# 2 11.5259 75.6745 26.4909 0.0000 0.0000 1.7967
# 3 26.4909 26.4909 210.6935 0.0000 0.0000 0.0000
# 4 0.0000 0.0000 0.0000 10.0555 0.0000 0.0000
# 5 0.0000 0.0000 0.0000 0.0000 10.0555 0.0000
# 6 -1.7967 1.7967 0.0000 0.0000 0.0000 22.7436
#
#
#
# Elastic Compliance Matrix: (Units=1/GPa)
#
#
# Indices 1 2 3 4 5 6 
#
# 1 0.014037 -0.001621 -0.001561 0.000000 0.000000 0.001237
# 2 -0.001621 0.014037 -0.001561 0.000000 0.000000 -0.001237
# 3 -0.001561 -0.001561 0.005139 0.000000 0.000000 0.000000
# 4 0.000000 0.000000 0.000000 0.099448 0.000000 0.000000
# 5 0.000000 0.000000 0.000000 0.000000 0.099448 0.000000
# 6 0.001237 -0.001237 0.000000 0.000000 0.000000 0.044164
#
#
# Mechanical properties :
#
#
# Convention : Reuss Voigt Hill
#
# Bulk Modulus (GPa) = 42.14610 54.56199 48.35405
# Shear Modulus (GPa) = 17.02604 28.40659 22.71631
#
# Velocity S-wave (km/s) = 2.69556 3.48179 3.11359
# Velocity P-wave (km/s) = 5.26065 6.28083 5.79324
#
# Compressibility (1/GPa) = 0.02372699
#
# Stress axis : x y z
#
# Youngs Moduli (GPa) = 71.23911 71.23911 194.59804
#
# Poissons Ratio (x) = 0.11547 0.30379
# Poissons Ratio (y) = 0.11547 0.30379
# Poissons Ratio (z) = 0.11121 0.11121
#
# Static dielectric constant tensor:
#      x y z
#    x 2.016790 0.000000 0.000000 
#    y 0.000000 2.016790 0.000000 
#    z 0.000000 0.000000 2.046620 
# 
# From -- ./inp_files/6319.got.cif
#   From: 2010.05.17/outbox.cif.g08.bks.cpg/sg88_4_cif.got.tgz:6319.got - 2010.06.03 19:11:41.
