data_PCOD9546662
_publ_section_title
;
Structure prediction by ZEFSAII (Michael W. Deem and Ramdas Pophale) SiO2 
 PCOD9546662
Probable space group: I 41/A
;
_chemical_formula_sum "Si O2"
_cell_formula_units_Z 96
_cell_length_a 14.525671
_cell_length_b 14.525671
_cell_length_c 21.184520
_cell_angle_alpha 90.000000
_cell_angle_beta 90.000000
_cell_angle_gamma 90.000000
_cell_volume 4469.830297
_symmetry_space_group_name_H-M "I 41/A"
_symmetry_group_IT_number 88
_space_group.IT_coordinate_system_code '2'
_symmetry_cell_setting 'tetragonal'
loop_
_space_group_symop_operation_xyz
x,y,z
3/4-y,1/4+x,1/4+z
-x,1/2-y,z
1/4+y,1/4-x,1/4+z
-x,-y,-z
1/4+y,3/4-x,3/4-z
x,1/2+y,-z
3/4-y,3/4+x,3/4-z
1/2+x,1/2+y,1/2+z
1/4-y,3/4+x,3/4+z
1/2-x,-y,1/2+z
3/4+y,3/4-x,3/4+z
1/2-x,1/2-y,1/2-z
3/4+y,1/4-x,1/4-z
1/2+x,y,1/2-z
1/4-y,1/4+x,1/4-z
loop_
_atom_site_type_symbol
_atom_site_label
_atom_site_fract_x
_atom_site_fract_y
_atom_site_fract_z
Si Si1 0.987771 0.992176 0.074854
Si Si2 0.438087 0.337442 0.775709
Si Si3 0.860477 0.938810 0.833894
Si Si4 0.689785 0.950464 0.110757
Si Si5 0.053533 0.526012 0.707278
Si Si6 0.127290 0.667544 0.132531
O O1 0.907082 0.061125 0.097279
O O2 0.080630 0.022282 0.108760
O O3 0.950677 0.893295 0.097992
O O4 0.000000 0.000000 0.000000
O O5 0.500000 0.250000 0.795355
O O6 0.354119 0.360783 0.822802
O O7 0.494583 0.433646 0.777761
O O8 0.402758 0.317651 0.704683
O O9 0.924396 0.927736 0.773377
O O10 0.781397 0.014260 0.819808
O O11 0.775834 0.887503 0.130526
O O12 0.644695 0.992223 0.172611
O O13 0.005339 0.596622 0.659309
#
# Coordination Sequence:
#
# PCOD9546662 Si02
#       6
#    16  16  16  16  16  16
#     4  11  25  44  71  98 134 178 229 286 341 406
#     4  11  25  40  67 101 140 172 230 282 332 415
#     4  11  24  45  69  98 135 177 233 281 341 410
#     4  10  24  43  70  94 137 184 223 270 351 406
#     4  11  24  41  68  98 133 183 223 279 344 408
#     4  10  24  45  66  95 139 182 220 278 342 413
#
# _framework density 21.477326000000001
#
# number of rings (size 3 to 8) (size 9 to 14) (size 15 to 20)
#    0.000    1.333    1.667    2.000    9.333    5.000 
#    0.000    0.000    0.000    0.000    0.000    0.000 
#    0.000    0.000    0.000    0.000    0.000    0.000 
#
# Total GULP energy -268431.777556 kJ/mol
# GULP energy per Si atom -5592.328699 kJ/mol
# Density = 2.142844 g / cm^3
# Si number density = 21.477326 Si / 1000 Ang^3
#
#
#
# Elastic Constant Matrix: (Units=GPa)
#
#
# Indices 1 2 3 4 5 6 
#
# 1 79.0967 41.1932 29.8538 0.0000 0.0000 9.5818
# 2 41.1932 79.0967 29.8538 0.0000 0.0000 -9.5818
# 3 29.8538 29.8538 105.4443 0.0000 0.0000 0.0000
# 4 0.0000 0.0000 0.0000 16.7044 0.0000 0.0000
# 5 0.0000 0.0000 0.0000 0.0000 16.7044 0.0000
# 6 9.5818 -9.5818 0.0000 0.0000 0.0000 22.6928
#
#
#
# Elastic Compliance Matrix: (Units=1/GPa)
#
#
# Indices 1 2 3 4 5 6 
#
# 1 0.021608 -0.011936 -0.002739 0.000000 0.000000 -0.014163
# 2 -0.011936 0.021608 -0.002739 0.000000 0.000000 0.014163
# 3 -0.002739 -0.002739 0.011034 0.000000 0.000000 0.000000
# 4 0.000000 0.000000 0.000000 0.059864 0.000000 0.000000
# 5 0.000000 0.000000 0.000000 0.000000 0.059864 0.000000
# 6 -0.014163 0.014163 0.000000 0.000000 0.000000 0.056028
#
#
# Mechanical properties :
#
#
# Convention : Reuss Voigt Hill
#
# Bulk Modulus (GPa) = 51.47908 51.71546 51.59727
# Shear Modulus (GPa) = 18.42928 22.06944 20.24936
#
# Velocity S-wave (km/s) = 2.93248 3.20905 3.07388
# Velocity P-wave (km/s) = 5.95710 6.15321 6.05595
#
# Compressibility (1/GPa) = 0.01942536
#
# Stress axis : x y z
#
# Youngs Moduli (GPa) = 46.27892 46.27892 90.62591
#
# Poissons Ratio (x) = 0.55236 0.24818
# Poissons Ratio (y) = 0.55236 0.24818
# Poissons Ratio (z) = 0.12674 0.12674
#
# Static dielectric constant tensor:
#      x y z
#    x 1.792030 0.000000 0.000000 
#    y 0.000000 1.792030 0.000000 
#    z 0.000000 0.000000 1.729150 
# 
# From -- ./inp_files/4692.got.cif
#   From: 2010.05.17/outbox.cif.g08.bks.cpg/sg88_3_cif.got.tgz:4692.got - 2010.06.03 19:11:41.
