data_PCOD9546679
_publ_section_title
;
Structure prediction by ZEFSAII (Michael W. Deem and Ramdas Pophale) SiO2 
 PCOD9546679
Probable space group: I 41/A
;
_chemical_formula_sum "Si O2"
_cell_formula_units_Z 56
_cell_length_a 14.298249
_cell_length_b 14.298249
_cell_length_c 13.669726
_cell_angle_alpha 90.000000
_cell_angle_beta 90.000000
_cell_angle_gamma 90.000000
_cell_volume 2794.637751
_symmetry_space_group_name_H-M "I 41/A"
_symmetry_group_IT_number 88
_space_group.IT_coordinate_system_code '2'
_symmetry_cell_setting 'tetragonal'
loop_
_space_group_symop_operation_xyz
x,y,z
3/4-y,1/4+x,1/4+z
-x,1/2-y,z
1/4+y,1/4-x,1/4+z
-x,-y,-z
1/4+y,3/4-x,3/4-z
x,1/2+y,-z
3/4-y,3/4+x,3/4-z
1/2+x,1/2+y,1/2+z
1/4-y,3/4+x,3/4+z
1/2-x,-y,1/2+z
3/4+y,3/4-x,3/4+z
1/2-x,1/2-y,1/2-z
3/4+y,1/4-x,1/4-z
1/2+x,y,1/2-z
1/4-y,1/4+x,1/4-z
loop_
_atom_site_type_symbol
_atom_site_label
_atom_site_fract_x
_atom_site_fract_y
_atom_site_fract_z
Si Si1 0.341657 0.470543 0.270782
Si Si2 0.933255 0.937582 0.568617
Si Si3 0.417912 0.927756 0.522964
Si Si4 0.500000 0.750000 0.405957
O O1 0.413696 0.467840 0.180549
O O2 0.316600 0.578435 0.279705
O O3 0.240228 0.420405 0.262931
O O4 0.395703 0.422909 0.361793
O O5 0.966596 0.832028 0.584476
O O6 0.000000 0.000000 0.500000
O O7 0.451954 0.831924 0.472156
O O8 0.500000 0.000000 0.500000
#
# Coordination Sequence:
#
# PCOD9546679 Si02
#       4
#    16  16  16   8
#     4  10  24  48  68 103 145 185 229 296 360 407
#     4  11  27  45  70 104 142 188 232 282 356 429
#     4  11  24  44  70 107 140 176 243 295 358 417
#     4  12  26  43  77 108 134 188 243 296 357 422
#
# _framework density 20.038376
#
# number of rings (size 3 to 8) (size 9 to 14) (size 15 to 20)
#    0.000    1.143    5.714    0.000   12.000    3.429 
#    0.000    0.000    0.000    0.000    0.000    0.000 
#    0.000    0.000    0.000    0.000    0.000    0.000 
#
# Total GULP energy -155928.372192 kJ/mol
# GULP energy per Si atom -5568.870435 kJ/mol
# Density = 1.999277 g / cm^3
# Si number density = 20.038376 Si / 1000 Ang^3
#
#
#
# Elastic Constant Matrix: (Units=GPa)
#
#
# Indices 1 2 3 4 5 6 
#
# 1 166.7455 91.5678 73.4631 0.0000 0.0000 -6.8322
# 2 91.5678 166.7455 73.4631 0.0000 0.0000 6.8322
# 3 73.4631 73.4631 97.3479 0.0000 0.0000 0.0000
# 4 0.0000 0.0000 0.0000 -16.1747 0.0000 0.0000
# 5 0.0000 0.0000 0.0000 0.0000 -16.1747 0.0000
# 6 -6.8322 6.8322 0.0000 0.0000 0.0000 20.5906
#
#
#
# Elastic Compliance Matrix: (Units=1/GPa)
#
#
# Indices 1 2 3 4 5 6 
#
# 1 0.010469 -0.003686 -0.005118 0.000000 0.000000 0.004697
# 2 -0.003686 0.010469 -0.005118 0.000000 0.000000 -0.004697
# 3 -0.005118 -0.005118 0.017998 0.000000 0.000000 0.000000
# 4 0.000000 0.000000 0.000000 -0.061825 0.000000 0.000000
# 5 0.000000 0.000000 0.000000 0.000000 -0.061825 0.000000
# 6 0.004697 -0.004697 0.000000 0.000000 0.000000 0.051683
#
#
# Mechanical properties :
#
#
# Convention : Reuss Voigt Hill
#
# Bulk Modulus (GPa) = 90.17905 100.86965 95.52435
# Shear Modulus (GPa) = -3360.58545 10.47122 -1675.05712
#
# Velocity S-wave (km/s) = -40.99653 2.28843 -28.94373
# Velocity P-wave (km/s) = 46.85993 7.57826 32.69880
#
# Compressibility (1/GPa) = 0.01108905
#
# Stress axis : x y z
#
# Youngs Moduli (GPa) = 95.51948 95.51948 55.56280
#
# Poissons Ratio (x) = 0.35213 0.28440
# Poissons Ratio (y) = 0.35213 0.28440
# Poissons Ratio (z) = 0.48891 0.48891
#
# Static dielectric constant tensor:
#      x y z
#    x 1.829390 0.000000 0.000000 
#    y 0.000000 1.829390 0.000000 
#    z 0.000000 0.000000 1.785580 
# 
# From -- ./inp_files/2240.got.cif
#   From: 2010.05.17/outbox.cif.g08.bks.cpg/sg88_2_cif.got.tgz:2240.got - 2010.06.03 19:11:41.
