data_PCOD9546428
_publ_section_title
;
Structure prediction by ZEFSAII (Michael W. Deem and Ramdas Pophale) SiO2 
 PCOD9546428
Probable space group: I 41/A
;
_chemical_formula_sum "Si O2"
_cell_formula_units_Z 80
_cell_length_a 26.067459
_cell_length_b 26.067459
_cell_length_c 6.654066
_cell_angle_alpha 90.000000
_cell_angle_beta 90.000000
_cell_angle_gamma 90.000000
_cell_volume 4521.520482
_symmetry_space_group_name_H-M "I 41/A"
_symmetry_group_IT_number 88
_space_group.IT_coordinate_system_code '2'
_symmetry_cell_setting 'tetragonal'
loop_
_space_group_symop_operation_xyz
x,y,z
3/4-y,1/4+x,1/4+z
-x,1/2-y,z
1/4+y,1/4-x,1/4+z
-x,-y,-z
1/4+y,3/4-x,3/4-z
x,1/2+y,-z
3/4-y,3/4+x,3/4-z
1/2+x,1/2+y,1/2+z
1/4-y,3/4+x,3/4+z
1/2-x,-y,1/2+z
3/4+y,3/4-x,3/4+z
1/2-x,1/2-y,1/2-z
3/4+y,1/4-x,1/4-z
1/2+x,y,1/2-z
1/4-y,1/4+x,1/4-z
loop_
_atom_site_type_symbol
_atom_site_label
_atom_site_fract_x
_atom_site_fract_y
_atom_site_fract_z
Si Si1 0.771573 0.065311 0.884866
Si Si2 0.267048 0.834174 0.299477
Si Si3 0.441497 0.448893 0.576087
Si Si4 0.844400 0.889199 0.899661
Si Si5 0.308421 0.804339 0.889842
O O1 0.764151 0.123050 0.820611
O O2 0.793405 0.032387 0.704125
O O3 0.811005 0.064132 0.068862
O O4 0.224589 0.811226 0.450918
O O5 0.309621 0.861272 0.436911
O O6 0.299510 0.804344 0.129794
O O7 0.396898 0.410327 0.500823
O O8 0.498306 0.425070 0.561632
O O9 0.437904 0.500367 0.442169
O O10 0.843369 0.849484 0.708323
#
# Coordination Sequence:
#
# PCOD9546428 Si02
#       5
#    16  16  16  16  16
#     4  12  20  31  47  76 114 153 182 215 268 332
#     4  11  20  35  53  79 112 150 190 228 276 344
#     4  10  21  36  58  80 110 147 188 238 280 332
#     4  11  21  36  52  81 110 143 191 232 280 336
#     4  10  21  38  55  81 111 146 191 232 281 336
#
# _framework density 17.693163999999999
#
# number of rings (size 3 to 8) (size 9 to 14) (size 15 to 20)
#    0.000    1.200    4.000    4.200    0.000    0.000 
#    0.000    0.000    0.000    0.600    0.000    0.000 
#    0.000    0.000    0.000    0.000    0.000    0.000 
#
# Total GULP energy -222787.957227 kJ/mol
# GULP energy per Si atom -5569.698931 kJ/mol
# Density = 1.765289 g / cm^3
# Si number density = 17.693164 Si / 1000 Ang^3
#
#
#
# Elastic Constant Matrix: (Units=GPa)
#
#
# Indices 1 2 3 4 5 6 
#
# 1 65.4627 20.7217 8.3455 0.0000 0.0000 0.6151
# 2 20.7217 65.4627 8.3455 0.0000 0.0000 -0.6151
# 3 8.3455 8.3455 66.2954 0.0000 0.0000 0.0000
# 4 0.0000 0.0000 0.0000 15.5907 0.0000 0.0000
# 5 0.0000 0.0000 0.0000 0.0000 15.5907 0.0000
# 6 0.6151 -0.6151 0.0000 0.0000 0.0000 12.9337
#
#
#
# Elastic Compliance Matrix: (Units=1/GPa)
#
#
# Indices 1 2 3 4 5 6 
#
# 1 0.017137 -0.005244 -0.001497 0.000000 0.000000 -0.001064
# 2 -0.005244 0.017137 -0.001497 0.000000 0.000000 0.001064
# 3 -0.001497 -0.001497 0.015461 0.000000 0.000000 0.000000
# 4 0.000000 0.000000 0.000000 0.064141 0.000000 0.000000
# 5 0.000000 0.000000 0.000000 0.000000 0.064141 0.000000
# 6 -0.001064 0.001064 0.000000 0.000000 0.000000 0.077419
#
#
# Mechanical properties :
#
#
# Convention : Reuss Voigt Hill
#
# Bulk Modulus (GPa) = 30.06763 30.22735 30.14749
# Shear Modulus (GPa) = 17.66806 19.47687 18.57247
#
# Velocity S-wave (km/s) = 3.16346 3.32145 3.24342
# Velocity P-wave (km/s) = 5.51127 5.64187 5.57695
#
# Compressibility (1/GPa) = 0.03325836
#
# Stress axis : x y z
#
# Youngs Moduli (GPa) = 58.35477 58.35477 64.67915
#
# Poissons Ratio (x) = 0.30599 0.09683
# Poissons Ratio (y) = 0.30599 0.09683
# Poissons Ratio (z) = 0.08736 0.08736
#
# Static dielectric constant tensor:
#      x y z
#    x 1.601780 0.000000 0.000000 
#    y 0.000000 1.601780 0.000000 
#    z 0.000000 0.000000 1.688850 
# 
# From -- ./inp_files/680.got.cif
#   From: 2010.05.17/outbox.cif.g08.bks.cpg/sg88_1_cif.got.tgz:680.got - 2010.06.03 19:11:41.
