data_PCOD9546785
_publ_section_title
;
Structure prediction by ZEFSAII (Michael W. Deem and Ramdas Pophale) SiO2 
 PCOD9546785
Probable space group: I 41/A
;
_chemical_formula_sum "Si O2"
_cell_formula_units_Z 68
_cell_length_a 16.781175
_cell_length_b 16.781175
_cell_length_c 11.089011
_cell_angle_alpha 90.000000
_cell_angle_beta 90.000000
_cell_angle_gamma 90.000000
_cell_volume 3122.752373
_symmetry_space_group_name_H-M "I 41/A"
_symmetry_group_IT_number 88
_space_group.IT_coordinate_system_code '2'
_symmetry_cell_setting 'tetragonal'
loop_
_space_group_symop_operation_xyz
x,y,z
3/4-y,1/4+x,1/4+z
-x,1/2-y,z
1/4+y,1/4-x,1/4+z
-x,-y,-z
1/4+y,3/4-x,3/4-z
x,1/2+y,-z
3/4-y,3/4+x,3/4-z
1/2+x,1/2+y,1/2+z
1/4-y,3/4+x,3/4+z
1/2-x,-y,1/2+z
3/4+y,3/4-x,3/4+z
1/2-x,1/2-y,1/2-z
3/4+y,1/4-x,1/4-z
1/2+x,y,1/2-z
1/4-y,1/4+x,1/4-z
loop_
_atom_site_type_symbol
_atom_site_label
_atom_site_fract_x
_atom_site_fract_y
_atom_site_fract_z
Si Si1 0.550029 0.054295 0.089566
Si Si2 0.000000 0.250000 0.125000
Si Si3 0.375341 0.513087 0.581244
Si Si4 0.720458 0.117541 0.062119
Si Si5 0.387376 0.335331 0.534821
O O1 0.632179 0.087094 0.034873
O O2 0.491179 0.123916 0.132684
O O3 0.577331 0.004986 0.207667
O O4 0.500000 0.000000 0.000000
O O5 0.929367 0.216315 0.207111
O O6 0.406868 0.529351 0.445354
O O7 0.283611 0.544474 0.573586
O O8 0.383972 0.419308 0.602424
O O9 0.411498 0.565709 0.687169
#
# Coordination Sequence:
#
# PCOD9546785 Si02
#       5
#    16   4  16  16  16
#     4  11  25  38  64  94 128 169 207 260 318 388
#     4  12  24  40  60  96 130 152 204 272 328 350
#     4   9  20  40  72  88 116 169 225 263 297 372
#     4   9  20  42  62  91 125 161 214 268 313 366
#     4  11  24  39  65  96 126 167 211 264 321 374
#
# _framework density 21.775663000000002
#
# number of rings (size 3 to 8) (size 9 to 14) (size 15 to 20)
#    0.000    1.882    0.000    4.235    9.882    5.647 
#    0.000    0.000    0.000    0.000    0.000    0.000 
#    0.000    0.000    0.000    0.000    0.000    0.000 
#
# Total GULP energy -190081.140565 kJ/mol
# GULP energy per Si atom -5590.621781 kJ/mol
# Density = 2.172610 g / cm^3
# Si number density = 21.775663 Si / 1000 Ang^3
#
#
#
# Elastic Constant Matrix: (Units=GPa)
#
#
# Indices 1 2 3 4 5 6 
#
# 1 80.9914 34.3200 -9.1072 0.0000 0.0000 6.4583
# 2 34.3200 80.9914 -9.1072 0.0000 0.0000 -6.4583
# 3 -9.1072 -9.1072 15.7990 0.0000 0.0000 0.0000
# 4 0.0000 0.0000 0.0000 29.1211 0.0000 0.0000
# 5 0.0000 0.0000 0.0000 0.0000 29.1211 0.0000
# 6 6.4583 -6.4583 0.0000 0.0000 0.0000 23.8871
#
#
#
# Elastic Compliance Matrix: (Units=1/GPa)
#
#
# Indices 1 2 3 4 5 6 
#
# 1 0.016350 -0.006809 0.005500 0.000000 0.000000 -0.006261
# 2 -0.006809 0.016350 0.005500 0.000000 0.000000 0.006261
# 3 0.005500 0.005500 0.069636 0.000000 0.000000 0.000000
# 4 0.000000 0.000000 0.000000 0.034339 0.000000 0.000000
# 5 0.000000 0.000000 0.000000 0.000000 0.034339 0.000000
# 6 -0.006261 0.006261 0.000000 0.000000 0.000000 0.045249
#
#
# Mechanical properties :
#
#
# Convention : Reuss Voigt Hill
#
# Bulk Modulus (GPa) = 9.03207 23.33256 16.18232
# Shear Modulus (GPa) = 20.42577 27.20428 23.81502
#
# Velocity S-wave (km/s) = 3.06602 3.53837 3.31063
# Velocity P-wave (km/s) = 4.08543 5.23753 4.69694
#
# Compressibility (1/GPa) = 0.11071660
#
# Stress axis : x y z
#
# Youngs Moduli (GPa) = 61.16172 61.16172 14.36044
#
# Poissons Ratio (x) = 0.41646 -0.07898
# Poissons Ratio (y) = 0.41646 -0.07898
# Poissons Ratio (z) = -0.33637 -0.33637
#
# Static dielectric constant tensor:
#      x y z
#    x 1.809670 0.000000 0.000000 
#    y 0.000000 1.809670 0.000000 
#    z 0.000000 0.000000 1.831610 
# 
# From -- ./inp_files/2443.got.cif
#   From: 2010.05.17/outbox.cif.g08.bks.cpg/sg88_2_cif.got.tgz:2443.got - 2010.06.03 19:11:41.
