data_PCOD9546493
_publ_section_title
;
Structure prediction by ZEFSAII (Michael W. Deem and Ramdas Pophale) SiO2 
 PCOD9546493
Probable space group: I 41/A
;
_chemical_formula_sum "Si O2"
_cell_formula_units_Z 92
_cell_length_a 14.267580
_cell_length_b 14.267580
_cell_length_c 21.115232
_cell_angle_alpha 90.000000
_cell_angle_beta 90.000000
_cell_angle_gamma 90.000000
_cell_volume 4298.297688
_symmetry_space_group_name_H-M "I 41/A"
_symmetry_group_IT_number 88
_space_group.IT_coordinate_system_code '2'
_symmetry_cell_setting 'tetragonal'
loop_
_space_group_symop_operation_xyz
x,y,z
3/4-y,1/4+x,1/4+z
-x,1/2-y,z
1/4+y,1/4-x,1/4+z
-x,-y,-z
1/4+y,3/4-x,3/4-z
x,1/2+y,-z
3/4-y,3/4+x,3/4-z
1/2+x,1/2+y,1/2+z
1/4-y,3/4+x,3/4+z
1/2-x,-y,1/2+z
3/4+y,3/4-x,3/4+z
1/2-x,1/2-y,1/2-z
3/4+y,1/4-x,1/4-z
1/2+x,y,1/2-z
1/4-y,1/4+x,1/4-z
loop_
_atom_site_type_symbol
_atom_site_label
_atom_site_fract_x
_atom_site_fract_y
_atom_site_fract_z
Si Si1 0.118892 0.686389 0.839929
Si Si2 0.000000 0.250000 0.276648
Si Si3 0.532248 0.950411 0.822294
Si Si4 0.821379 0.243306 0.691620
Si Si5 0.783010 0.396892 0.530366
Si Si6 0.000000 0.250000 0.625000
Si Si7 0.251620 0.016534 0.154731
O O1 0.121615 0.780888 0.881349
O O2 0.209008 0.621593 0.846916
O O3 0.085601 0.719584 0.770205
O O4 0.027771 0.338802 0.318170
O O5 0.640368 0.979768 0.823072
O O6 0.492463 0.999647 0.884545
O O7 0.455212 0.986546 0.772377
O O8 0.750000 0.250000 0.750000
O O9 0.862175 0.139465 0.699015
O O10 0.918429 0.294171 0.670642
O O11 0.780289 0.447302 0.462839
O O12 0.740586 0.463031 0.587126
#
# Coordination Sequence:
#
# PCOD9546493 Si02
#       7
#    16   8  16  16  16   4  16
#     4   9  21  40  65  98 135 179 222 270 346 414
#     4  10  21  41  66  96 141 171 218 282 330 406
#     4  11  24  43  64 102 136 175 235 282 346 421
#     4  11  25  45  71  99 136 185 234 286 368 421
#     4  11  24  42  67 101 138 174 233 287 339 420
#     4  12  24  46  76 100 142 184 224 312 358 428
#     4  11  25  41  71  97 135 186 224 284 349 414
#
# _framework density 21.403822999999999
#
# number of rings (size 3 to 8) (size 9 to 14) (size 15 to 20)
#    0.000    1.565    3.478    1.043    7.304    2.783 
#    0.000    5.217    0.000    0.000    0.000    0.000 
#    0.000    0.000    0.000    0.000    0.000    0.000 
#
# Total GULP energy -256286.396605 kJ/mol
# GULP energy per Si atom -5571.443404 kJ/mol
# Density = 2.135511 g / cm^3
# Si number density = 21.403823 Si / 1000 Ang^3
#
#
#
# Elastic Constant Matrix: (Units=GPa)
#
#
# Indices 1 2 3 4 5 6 
#
# 1 83.4398 26.2950 9.8939 0.0000 0.0000 2.5849
# 2 26.2950 83.4398 9.8939 0.0000 0.0000 -2.5849
# 3 9.8939 9.8939 62.8608 0.0000 0.0000 0.0000
# 4 0.0000 0.0000 0.0000 6.8121 0.0000 0.0000
# 5 0.0000 0.0000 0.0000 0.0000 6.8121 0.0000
# 6 2.5849 -2.5849 0.0000 0.0000 0.0000 32.6645
#
#
#
# Elastic Compliance Matrix: (Units=1/GPa)
#
#
# Indices 1 2 3 4 5 6 
#
# 1 0.013502 -0.004123 -0.001476 0.000000 0.000000 -0.001395
# 2 -0.004123 0.013502 -0.001476 0.000000 0.000000 0.001395
# 3 -0.001476 -0.001476 0.016373 0.000000 0.000000 0.000000
# 4 0.000000 0.000000 0.000000 0.146798 0.000000 0.000000
# 5 0.000000 0.000000 0.000000 0.000000 0.146798 0.000000
# 6 -0.001395 0.001395 0.000000 0.000000 0.000000 0.030835
#
#
# Mechanical properties :
#
#
# Convention : Reuss Voigt Hill
#
# Bulk Modulus (GPa) = 34.21591 35.76733 34.99162
# Shear Modulus (GPa) = 12.76484 21.50160 17.13322
#
# Velocity S-wave (km/s) = 2.44474 3.17293 2.83234
# Velocity P-wave (km/s) = 4.89792 5.49275 5.20384
#
# Compressibility (1/GPa) = 0.02922617
#
# Stress axis : x y z
#
# Youngs Moduli (GPa) = 74.06132 74.06132 61.07675
#
# Poissons Ratio (x) = 0.30537 0.09016
# Poissons Ratio (y) = 0.30537 0.09016
# Poissons Ratio (z) = 0.10933 0.10933
#
# Static dielectric constant tensor:
#      x y z
#    x 1.862050 0.000000 0.000000 
#    y 0.000000 1.862050 0.000000 
#    z 0.000000 0.000000 1.878570 
# 
# From -- ./inp_files/4754.got.cif
#   From: 2010.05.17/outbox.cif.g08.bks.cpg/sg88_3_cif.got.tgz:4754.got - 2010.06.03 19:11:41.
