data_PCOD9546118
_publ_section_title
;
Structure prediction by ZEFSAII (Michael W. Deem and Ramdas Pophale) SiO2 
 PCOD9546118
Probable space group: I 4/M
;
_chemical_formula_sum "Si O2"
_cell_formula_units_Z 72
_cell_length_a 10.948056
_cell_length_b 10.948056
_cell_length_c 24.840801
_cell_angle_alpha 90.000000
_cell_angle_beta 90.000000
_cell_angle_gamma 90.000000
_cell_volume 2977.416673
_symmetry_space_group_name_H-M "I 4/M"
_symmetry_group_IT_number 87
_symmetry_cell_setting 'tetragonal'
loop_
_space_group_symop_operation_xyz
x,y,z
-y,x,z
-x,-y,z
y,-x,z
-x,-y,-z
y,-x,-z
x,y,-z
-y,x,-z
1/2+x,1/2+y,1/2+z
1/2-y,1/2+x,1/2+z
1/2-x,1/2-y,1/2+z
1/2+y,1/2-x,1/2+z
1/2-x,1/2-y,1/2-z
1/2+y,1/2-x,1/2-z
1/2+x,1/2+y,1/2-z
1/2-y,1/2+x,1/2-z
loop_
_atom_site_type_symbol
_atom_site_label
_atom_site_fract_x
_atom_site_fract_y
_atom_site_fract_z
Si Si1 0.328296 0.899934 0.233273
Si Si2 0.577851 0.693654 0.620882
Si Si3 0.675193 0.387521 0.056381
Si Si4 0.078011 0.191482 0.000000
Si Si5 0.669755 0.386416 0.168707
O O1 0.344119 0.042437 0.249713
O O2 0.283403 0.893655 0.171281
O O3 0.229765 0.852998 0.276005
O O4 0.434866 0.651661 0.625575
O O5 0.597473 0.748037 0.560032
O O6 0.660583 0.535169 0.055905
O O7 0.734262 0.350822 0.112714
O O8 0.734537 0.350199 0.000000
O O9 0.151169 0.063988 0.000000
O O10 0.659751 0.532375 0.166968
#
# Coordination Sequence:
#
# PCOD9546118 Si02
#       5
#    16  16  16   8  16
#     4  11  24  37  48  65 102 144 181 210 249 302
#     4   9  17  32  58  87 107 128 165 214 268 318
#     4   7  10  19  39  67  96 121 143 178 231 285
#     4   7  12  26  52  85 110 124 152 209 272 319
#     4   9  17  30  51  77  98 121 162 209 254 305
#
# _framework density 24.182036
#
# number of rings (size 3 to 8) (size 9 to 14) (size 15 to 20)
#    0.000    3.222    0.000    4.667    0.000    5.333 
#    0.000    0.000    4.889    1.333    0.000    0.000 
#    0.000    0.000    0.000    0.000    0.000    0.000 
#
# Total GULP energy -200993.904609 kJ/mol
# GULP energy per Si atom -5583.164017 kJ/mol
# Density = 2.412700 g / cm^3
# Si number density = 24.182036 Si / 1000 Ang^3
#
#
#
# Elastic Constant Matrix: (Units=GPa)
#
#
# Indices 1 2 3 4 5 6 
#
# 1 67.5154 8.8563 61.0719 0.0000 0.0000 5.8628
# 2 8.8563 67.5154 61.0719 0.0000 0.0000 -5.8628
# 3 61.0719 61.0719 318.7282 0.0000 0.0000 0.0000
# 4 0.0000 0.0000 0.0000 36.3903 0.0000 0.0000
# 5 0.0000 0.0000 0.0000 0.0000 36.3903 0.0000
# 6 5.8628 -5.8628 0.0000 0.0000 0.0000 21.8729
#
#
#
# Elastic Compliance Matrix: (Units=1/GPa)
#
#
# Indices 1 2 3 4 5 6 
#
# 1 0.018446 0.000433 -0.003618 0.000000 0.000000 -0.004828
# 2 0.000433 0.018446 -0.003618 0.000000 0.000000 0.004828
# 3 -0.003618 -0.003618 0.004524 0.000000 0.000000 0.000000
# 4 0.000000 0.000000 0.000000 0.027480 0.000000 0.000000
# 5 0.000000 0.000000 0.000000 0.000000 0.027480 0.000000
# 6 -0.004828 0.004828 0.000000 0.000000 0.000000 0.048307
#
#
# Mechanical properties :
#
#
# Convention : Reuss Voigt Hill
#
# Bulk Modulus (GPa) = 35.95489 79.52880 57.74185
# Shear Modulus (GPa) = 29.84064 40.44799 35.14432
#
# Velocity S-wave (km/s) = 3.51665 4.09424 3.81638
# Velocity P-wave (km/s) = 5.60266 7.43702 6.58404
#
# Compressibility (1/GPa) = 0.02781263
#
# Stress axis : x y z
#
# Youngs Moduli (GPa) = 54.21197 54.21197 221.05402
#
# Poissons Ratio (x) = -0.02349 0.79967
# Poissons Ratio (y) = -0.02349 0.79967
# Poissons Ratio (z) = 0.19611 0.19611
#
# Static dielectric constant tensor:
#      x y z
#    x 1.942310 0.000000 0.000000 
#    y 0.000000 1.942310 0.000000 
#    z 0.000000 0.000000 1.991880 
# 
# From -- ./inp_files/6191.got.cif
#   From: 2010.05.17/outbox.cif.g08.bks.cpg/sg87_4_cif.got.tgz:6191.got - 2010.06.03 19:07:00.
