data_PCOD9546517
_publ_section_title
;
Structure prediction by ZEFSAII (Michael W. Deem and Ramdas Pophale) SiO2 
 PCOD9546517
Probable space group: I 41/A
;
_chemical_formula_sum "Si O2"
_cell_formula_units_Z 72
_cell_length_a 16.019621
_cell_length_b 16.019621
_cell_length_c 10.707780
_cell_angle_alpha 90.000000
_cell_angle_beta 90.000000
_cell_angle_gamma 90.000000
_cell_volume 2747.918918
_symmetry_space_group_name_H-M "I 41/A"
_symmetry_group_IT_number 88
_space_group.IT_coordinate_system_code '2'
_symmetry_cell_setting 'tetragonal'
loop_
_space_group_symop_operation_xyz
x,y,z
3/4-y,1/4+x,1/4+z
-x,1/2-y,z
1/4+y,1/4-x,1/4+z
-x,-y,-z
1/4+y,3/4-x,3/4-z
x,1/2+y,-z
3/4-y,3/4+x,3/4-z
1/2+x,1/2+y,1/2+z
1/4-y,3/4+x,3/4+z
1/2-x,-y,1/2+z
3/4+y,3/4-x,3/4+z
1/2-x,1/2-y,1/2-z
3/4+y,1/4-x,1/4-z
1/2+x,y,1/2-z
1/4-y,1/4+x,1/4-z
loop_
_atom_site_type_symbol
_atom_site_label
_atom_site_fract_x
_atom_site_fract_y
_atom_site_fract_z
Si Si1 0.600214 0.977176 0.463062
Si Si2 0.813471 0.021986 0.604277
Si Si3 0.500000 0.250000 0.375000
Si Si4 0.345488 0.331734 0.481938
Si Si5 0.815498 0.761363 0.465214
Si Si6 0.500000 0.750000 0.125000
O O1 0.678291 0.930680 0.402551
O O2 0.582550 0.931495 0.588766
O O3 0.534172 0.958442 0.356322
O O4 0.621702 0.073245 0.495180
O O5 0.740312 0.048684 0.705506
O O6 0.903418 0.059730 0.634664
O O7 0.423530 0.269148 0.470875
O O8 0.263018 0.302342 0.561275
O O9 0.912403 0.735408 0.450142
#
# Coordination Sequence:
#
# PCOD9546517 Si02
#       6
#    16  16   4  16  16   4
#     4  11  22  44  77 108 150 205 261 343 410 488
#     4  10  21  44  76 108 151 202 274 340 413 495
#     4  12  24  42  72 116 144 194 260 350 436 460
#     4  12  24  45  73 115 156 197 271 334 416 491
#     4  11  26  48  70 111 161 208 277 332 404 514
#     4  12  32  50  72 108 174 236 268 318 424 514
#
# _framework density 26.201647000000001
#
# number of rings (size 3 to 8) (size 9 to 14) (size 15 to 20)
#    0.000    0.889    6.667    0.667    3.111    0.889 
#    8.000    4.444    0.000    0.000    0.000    0.000 
#    0.000    0.000    0.000    0.000    0.000    0.000 
#
# Total GULP energy -200749.304132 kJ/mol
# GULP energy per Si atom -5576.369559 kJ/mol
# Density = 2.614201 g / cm^3
# Si number density = 26.201647 Si / 1000 Ang^3
#
#
#
# Elastic Constant Matrix: (Units=GPa)
#
#
# Indices 1 2 3 4 5 6 
#
# 1 180.2289 37.9343 57.0912 0.0000 0.0000 -20.6514
# 2 37.9343 180.2289 57.0912 0.0000 0.0000 20.6514
# 3 57.0912 57.0912 118.3733 0.0000 0.0000 0.0000
# 4 0.0000 0.0000 0.0000 47.8297 0.0000 0.0000
# 5 0.0000 0.0000 0.0000 0.0000 47.8297 0.0000
# 6 -20.6514 20.6514 0.0000 0.0000 0.0000 37.9009
#
#
#
# Elastic Compliance Matrix: (Units=1/GPa)
#
#
# Indices 1 2 3 4 5 6 
#
# 1 0.007240 -0.001108 -0.002957 0.000000 0.000000 0.004549
# 2 -0.001108 0.007240 -0.002957 0.000000 0.000000 -0.004549
# 3 -0.002957 -0.002957 0.011300 0.000000 0.000000 0.000000
# 4 0.000000 0.000000 0.000000 0.020908 0.000000 0.000000
# 5 0.000000 0.000000 0.000000 0.000000 0.020908 0.000000
# 6 0.004549 -0.004549 0.000000 0.000000 0.000000 0.031342
#
#
# Mechanical properties :
#
#
# Convention : Reuss Voigt Hill
#
# Bulk Modulus (GPa) = 85.21879 87.00717 86.11298
# Shear Modulus (GPa) = 42.77412 48.49301 45.63357
#
# Velocity S-wave (km/s) = 4.04480 4.30672 4.17781
# Velocity P-wave (km/s) = 7.37623 7.61638 7.49726
#
# Compressibility (1/GPa) = 0.01173450
#
# Stress axis : x y z
#
# Youngs Moduli (GPa) = 138.12695 138.12695 88.49282
#
# Poissons Ratio (x) = 0.15308 0.26169
# Poissons Ratio (y) = 0.15308 0.26169
# Poissons Ratio (z) = 0.40847 0.40847
#
# Static dielectric constant tensor:
#      x y z
#    x 2.450830 0.000000 0.000000 
#    y 0.000000 2.450830 0.000000 
#    z 0.000000 0.000000 1.981660 
# 
# From -- ./inp_files/2482.got.cif
#   From: 2010.05.17/outbox.cif.g08.bks.cpg/sg88_2_cif.got.tgz:2482.got - 2010.06.03 19:11:41.
