data_PCOD9546703
_publ_section_title
;
Structure prediction by ZEFSAII (Michael W. Deem and Ramdas Pophale) SiO2 
 PCOD9546703
Probable space group: I 41/A
;
_chemical_formula_sum "Si O2"
_cell_formula_units_Z 64
_cell_length_a 18.028037
_cell_length_b 18.028037
_cell_length_c 7.328153
_cell_angle_alpha 90.000000
_cell_angle_beta 90.000000
_cell_angle_gamma 90.000000
_cell_volume 2381.723872
_symmetry_space_group_name_H-M "I 41/A"
_symmetry_group_IT_number 88
_space_group.IT_coordinate_system_code '2'
_symmetry_cell_setting 'tetragonal'
loop_
_space_group_symop_operation_xyz
x,y,z
3/4-y,1/4+x,1/4+z
-x,1/2-y,z
1/4+y,1/4-x,1/4+z
-x,-y,-z
1/4+y,3/4-x,3/4-z
x,1/2+y,-z
3/4-y,3/4+x,3/4-z
1/2+x,1/2+y,1/2+z
1/4-y,3/4+x,3/4+z
1/2-x,-y,1/2+z
3/4+y,3/4-x,3/4+z
1/2-x,1/2-y,1/2-z
3/4+y,1/4-x,1/4-z
1/2+x,y,1/2-z
1/4-y,1/4+x,1/4-z
loop_
_atom_site_type_symbol
_atom_site_label
_atom_site_fract_x
_atom_site_fract_y
_atom_site_fract_z
Si Si1 0.841921 0.003664 0.961930
Si Si2 0.392779 0.838008 0.844721
Si Si3 0.678245 0.309962 0.049238
Si Si4 0.657346 0.197151 0.576343
O O1 0.805498 0.034755 0.143068
O O2 0.920658 0.966650 0.002630
O O3 0.853589 0.078478 0.850547
O O4 0.372084 0.762410 0.944959
O O5 0.473267 0.871785 0.875762
O O6 0.376794 0.819295 0.628849
O O7 0.618707 0.376889 0.044162
O O8 0.752806 0.301566 0.930116
#
# Coordination Sequence:
#
# PCOD9546703 Si02
#       4
#    16  16  16  16
#     4  11  20  35  55  82 116 157 199 249 302 364
#     4  11  19  31  49  81 115 147 190 252 308 361
#     4  11  20  30  50  81 114 153 184 248 315 360
#     4  11  20  30  48  78 116 144 193 241 315 361
#
# _framework density 26.871293000000001
#
# number of rings (size 3 to 8) (size 9 to 14) (size 15 to 20)
#    0.000    1.000    7.500    5.250    0.000    0.000 
#    0.000    0.000    0.000    1.500    0.000    0.000 
#    0.000    0.000    0.000    0.000    0.000    0.000 
#
# Total GULP energy -178858.576022 kJ/mol
# GULP energy per Si atom -5589.330501 kJ/mol
# Density = 2.681013 g / cm^3
# Si number density = 26.871293 Si / 1000 Ang^3
#
#
#
# Elastic Constant Matrix: (Units=GPa)
#
#
# Indices 1 2 3 4 5 6 
#
# 1 233.2845 109.1411 35.9490 0.0000 0.0000 -4.9565
# 2 109.1411 233.2845 35.9490 0.0000 0.0000 4.9565
# 3 35.9490 35.9490 64.2763 0.0000 0.0000 0.0000
# 4 0.0000 0.0000 0.0000 19.1366 0.0000 0.0000
# 5 0.0000 0.0000 0.0000 0.0000 19.1366 0.0000
# 6 -4.9565 4.9565 0.0000 0.0000 0.0000 49.3212
#
#
#
# Elastic Compliance Matrix: (Units=1/GPa)
#
#
# Indices 1 2 3 4 5 6 
#
# 1 0.005715 -0.002406 -0.001851 0.000000 0.000000 0.000816
# 2 -0.002406 0.005715 -0.001851 0.000000 0.000000 -0.000816
# 3 -0.001851 -0.001851 0.017628 0.000000 0.000000 0.000000
# 4 0.000000 0.000000 0.000000 0.052256 0.000000 0.000000
# 5 0.000000 0.000000 0.000000 0.000000 0.052256 0.000000
# 6 0.000816 -0.000816 0.000000 0.000000 0.000000 0.020439
#
#
# Mechanical properties :
#
#
# Convention : Reuss Voigt Hill
#
# Bulk Modulus (GPa) = 59.37115 99.21374 79.29244
# Shear Modulus (GPa) = 29.09743 40.83931 34.96837
#
# Velocity S-wave (km/s) = 3.29423 3.90271 3.61131
# Velocity P-wave (km/s) = 6.05077 7.57035 6.85281
#
# Compressibility (1/GPa) = 0.01684320
#
# Stress axis : x y z
#
# Youngs Moduli (GPa) = 174.98915 174.98915 56.72816
#
# Poissons Ratio (x) = 0.42098 0.10498
# Poissons Ratio (y) = 0.42098 0.10498
# Poissons Ratio (z) = 0.32384 0.32384
#
# Static dielectric constant tensor:
#      x y z
#    x 2.081870 0.000000 0.000000 
#    y 0.000000 2.081870 0.000000 
#    z 0.000000 0.000000 2.234240 
# 
# From -- ./inp_files/2333.got.cif
#   From: 2010.05.17/outbox.cif.g08.bks.cpg/sg88_2_cif.got.tgz:2333.got - 2010.06.03 19:11:41.
