data_PCOD9546944
_publ_section_title
;
Structure prediction by ZEFSAII (Michael W. Deem and Ramdas Pophale) SiO2 
 PCOD9546944
Probable space group: P 4 2 2
;
_chemical_formula_sum "Si O2"
_cell_formula_units_Z 40
_cell_length_a 14.953609
_cell_length_b 14.953609
_cell_length_c 9.278815
_cell_angle_alpha 90.000000
_cell_angle_beta 90.000000
_cell_angle_gamma 90.000000
_cell_volume 2074.839739
_symmetry_space_group_name_H-M "P 4 2 2"
_symmetry_group_IT_number 89
_symmetry_cell_setting 'tetragonal'
loop_
_space_group_symop_operation_xyz
x,y,z
-y,x,z
-x,-y,z
y,-x,z
x,-y,-z
-x,y,-z
y,x,-z
-y,-x,-z
loop_
_atom_site_type_symbol
_atom_site_label
_atom_site_fract_x
_atom_site_fract_y
_atom_site_fract_z
Si Si1 0.447881 0.094152 0.860897
Si Si2 0.503617 0.257075 0.328339
Si Si3 0.090499 0.112468 0.328406
Si Si4 0.838830 0.256274 0.875705
Si Si5 0.349589 0.648396 0.162626
O O1 0.462116 0.160843 0.727681
O O2 0.340836 0.093117 0.895061
O O3 0.500000 0.000000 0.837176
O O4 0.500000 0.134234 0.000000
O O5 0.500000 0.259194 0.500000
O O6 0.412894 0.278096 0.242733
O O7 0.567791 0.335156 0.268121
O O8 0.105215 0.105215 0.500000
O O9 0.138201 0.197374 0.262350
O O10 0.986616 0.120879 0.282203
O O11 0.745369 0.306150 0.856164
O O12 0.817185 0.182816 0.000000
O O13 0.378329 0.621672 0.000000
#
# Coordination Sequence:
#
# PCOD9546944 Si02
#       5
#     8   8   8   8   8
#     4  10  22  40  59  83 119 162 200 243 307 378
#     4  11  22  37  58  86 116 145 190 251 302 353
#     4   9  20  38  56  79 115 153 190 241 305 367
#     4  10  21  36  60  88 112 151 204 250 297 363
#     4  10  21  39  59  80 112 154 194 234 294 368
#
# _framework density 19.278597999999999
#
# number of rings (size 3 to 8) (size 9 to 14) (size 15 to 20)
#    0.000    2.000    0.000    5.400    0.000    9.600 
#    0.000    7.000    0.000    0.000    0.000    0.000 
#    0.000    0.000    0.000    0.000    0.000    0.000 
#
# Total GULP energy -222674.135009 kJ/mol
# GULP energy per Si atom -5566.853375 kJ/mol
# Density = 1.923472 g / cm^3
# Si number density = 19.278598 Si / 1000 Ang^3
#
#
#
# Elastic Constant Matrix: (Units=GPa)
#
#
# Indices 1 2 3 4 5 6 
#
# 1 65.3858 27.8148 33.4351 0.0000 0.0000 0.0000
# 2 27.8148 65.3864 33.4352 0.0000 0.0000 0.0000
# 3 33.4351 33.4352 131.6622 0.0000 0.0000 0.0000
# 4 0.0000 0.0000 0.0000 22.0959 0.0000 0.0000
# 5 0.0000 0.0000 0.0000 0.0000 22.0963 0.0000
# 6 0.0000 0.0000 0.0000 0.0000 0.0000 16.6233
#
#
#
# Elastic Compliance Matrix: (Units=1/GPa)
#
#
# Indices 1 2 3 4 5 6 
#
# 1 0.019868 -0.006748 -0.003332 0.000000 0.000000 0.000000
# 2 -0.006748 0.019868 -0.003332 0.000000 0.000000 0.000000
# 3 -0.003332 -0.003332 0.009287 0.000000 0.000000 0.000000
# 4 0.000000 0.000000 0.000000 0.045257 0.000000 0.000000
# 5 0.000000 0.000000 0.000000 0.000000 0.045256 0.000000
# 6 0.000000 0.000000 0.000000 0.000000 0.000000 0.060157
#
#
# Mechanical properties :
#
#
# Convention : Reuss Voigt Hill
#
# Bulk Modulus (GPa) = 45.04448 50.20053 47.62251
# Shear Modulus (GPa) = 21.37509 23.34637 22.36073
#
# Velocity S-wave (km/s) = 3.33340 3.48372 3.40939
# Velocity P-wave (km/s) = 6.18313 6.50213 6.34464
#
# Compressibility (1/GPa) = 0.02220028
#
# Stress axis : x y z
#
# Youngs Moduli (GPa) = 50.33187 50.33227 107.67290
#
# Poissons Ratio (x) = 0.33964 0.35874
# Poissons Ratio (y) = 0.33964 0.35874
# Poissons Ratio (z) = 0.16770 0.16770
#
# Static dielectric constant tensor:
#      x y z
#    x 1.739740 0.000000 0.000000 
#    y 0.000000 1.739740 0.000000 
#    z 0.000000 0.000000 1.678400 
# 
# From -- ./inp_files/1015.got.cif
#   From: 2010.05.17/outbox.cif.g08.bks.cpg/sg89_1_cif.got.tgz:1015.got - 2010.06.03 19:15:31.
