data_PCOD9546989
_publ_section_title
;
Structure prediction by ZEFSAII (Michael W. Deem and Ramdas Pophale) SiO2 
 PCOD9546989
Probable space group: P 4 2 2
;
_chemical_formula_sum "Si O2"
_cell_formula_units_Z 56
_cell_length_a 15.162188
_cell_length_b 15.162188
_cell_length_c 10.644809
_cell_angle_alpha 90.000000
_cell_angle_beta 90.000000
_cell_angle_gamma 90.000000
_cell_volume 2447.155845
_symmetry_space_group_name_H-M "P 4 2 2"
_symmetry_group_IT_number 89
_symmetry_cell_setting 'tetragonal'
loop_
_space_group_symop_operation_xyz
x,y,z
-y,x,z
-x,-y,z
y,-x,z
x,-y,-z
-x,y,-z
y,x,-z
-y,-x,-z
loop_
_atom_site_type_symbol
_atom_site_label
_atom_site_fract_x
_atom_site_fract_y
_atom_site_fract_z
Si Si1 0.042206 0.666026 0.283680
Si Si2 0.863483 0.560584 0.902038
Si Si3 0.857049 0.001177 0.348875
Si Si4 0.337330 0.750851 0.091381
Si Si5 0.617799 0.405971 0.274016
Si Si6 0.219073 0.654632 0.450062
Si Si7 0.857776 0.414282 0.698595
O O1 0.077977 0.639421 0.147941
O O2 0.002345 0.762286 0.289182
O O3 0.128818 0.662322 0.371971
O O4 0.961638 0.601241 0.320761
O O5 0.783990 0.591394 0.990310
O O6 0.841287 0.503576 0.777665
O O7 0.913430 0.500000 0.000000
O O8 0.914347 0.915331 0.315905
O O9 0.846023 0.000000 0.500000
O O10 0.356559 0.654948 0.152927
O O11 0.340558 0.818016 0.206834
O O12 0.253639 0.746362 0.000000
O O13 0.618114 0.512979 0.282931
O O14 0.694002 0.377183 0.373589
O O15 0.249271 0.750730 0.500000
O O16 0.194965 0.594050 0.569617
#
# Coordination Sequence:
#
# PCOD9546989 Si02
#       7
#     8   8   8   8   8   8   8
#     4  12  26  43  76 107 152 202 253 319 395 472
#     4  10  26  47  72 103 151 200 265 324 381 466
#     4   9  20  39  68 104 150 196 240 300 372 462
#     4  11  25  45  78 105 146 201 263 323 380 452
#     4  11  28  51  78 112 153 207 265 328 396 466
#     4  12  27  45  75 112 159 202 250 326 394 484
#     4  11  26  47  70 110 151 202 257 319 399 467
#
# _framework density 22.883707999999999
#
# number of rings (size 3 to 8) (size 9 to 14) (size 15 to 20)
#    0.000    1.143    1.429    3.000   14.000    6.286 
#    0.000    4.286    0.000    0.000    0.000    0.000 
#    0.000   12.857    0.000    0.000    0.000    0.000 
#
# Total GULP energy -312479.831986 kJ/mol
# GULP energy per Si atom -5579.997000 kJ/mol
# Density = 2.283162 g / cm^3
# Si number density = 22.883708 Si / 1000 Ang^3
#
#
#
# Elastic Constant Matrix: (Units=GPa)
#
#
# Indices 1 2 3 4 5 6 
#
# 1 130.4413 38.9482 77.3623 0.0000 0.0000 0.0000
# 2 38.9482 130.4391 77.3620 0.0000 0.0000 0.0000
# 3 77.3623 77.3620 105.5828 0.0000 0.0000 0.0000
# 4 0.0000 0.0000 0.0000 -58.6622 0.0000 0.0000
# 5 0.0000 0.0000 0.0000 0.0000 -58.6666 0.0000
# 6 0.0000 0.0000 0.0000 0.0000 0.0000 -4.6018
#
#
#
# Elastic Compliance Matrix: (Units=1/GPa)
#
#
# Indices 1 2 3 4 5 6 
#
# 1 0.014390 0.003461 -0.013080 0.000000 0.000000 0.000000
# 2 0.003461 0.014391 -0.013080 0.000000 0.000000 0.000000
# 3 -0.013080 -0.013080 0.028639 0.000000 0.000000 0.000000
# 4 0.000000 0.000000 0.000000 -0.017047 0.000000 0.000000
# 5 0.000000 0.000000 0.000000 0.000000 -0.017045 0.000000
# 6 0.000000 0.000000 0.000000 0.000000 0.000000 -0.217305
#
#
# Mechanical properties :
#
#
# Convention : Reuss Voigt Hill
#
# Bulk Modulus (GPa) = 83.18210 83.75646 83.46928
# Shear Modulus (GPa) = -34.58458 -12.86675 -23.72566
#
# Velocity S-wave (km/s) = -3.89179 -2.37379 -3.22342
# Velocity P-wave (km/s) = 4.02917 5.40067 4.76452
#
# Compressibility (1/GPa) = 0.01202182
#
# Stress axis : x y z
#
# Youngs Moduli (GPa) = 69.49140 69.48983 34.91790
#
# Poissons Ratio (x) = -0.24047 0.45671
# Poissons Ratio (y) = -0.24048 0.45672
# Poissons Ratio (z) = 0.90892 0.90891
#
# Static dielectric constant tensor:
#      x y z
#    x 1.971650 0.000000 0.000000 
#    y 0.000000 1.971650 0.000000 
#    z 0.000000 0.000000 1.866080 
# 
# From -- ./inp_files/1853.got.cif
#   From: 2010.05.17/outbox.cif.g08.bks.cpg/sg89_1_cif.got.tgz:1853.got - 2010.06.03 19:15:31.
