data_PCOD9546307
_publ_section_title
;
Structure prediction by ZEFSAII (Michael W. Deem and Ramdas Pophale) SiO2 
 PCOD9546307
Probable space group: I 41/A
;
_chemical_formula_sum "Si O2"
_cell_formula_units_Z 68
_cell_length_a 19.227685
_cell_length_b 19.227685
_cell_length_c 8.024942
_cell_angle_alpha 90.000000
_cell_angle_beta 90.000000
_cell_angle_gamma 90.000000
_cell_volume 2966.852118
_symmetry_space_group_name_H-M "I 41/A"
_symmetry_group_IT_number 88
_space_group.IT_coordinate_system_code '2'
_symmetry_cell_setting 'tetragonal'
loop_
_space_group_symop_operation_xyz
x,y,z
3/4-y,1/4+x,1/4+z
-x,1/2-y,z
1/4+y,1/4-x,1/4+z
-x,-y,-z
1/4+y,3/4-x,3/4-z
x,1/2+y,-z
3/4-y,3/4+x,3/4-z
1/2+x,1/2+y,1/2+z
1/4-y,3/4+x,3/4+z
1/2-x,-y,1/2+z
3/4+y,3/4-x,3/4+z
1/2-x,1/2-y,1/2-z
3/4+y,1/4-x,1/4-z
1/2+x,y,1/2-z
1/4-y,1/4+x,1/4-z
loop_
_atom_site_type_symbol
_atom_site_label
_atom_site_fract_x
_atom_site_fract_y
_atom_site_fract_z
Si Si1 0.216066 0.348088 0.450470
Si Si2 0.029828 0.936190 0.392594
Si Si3 0.627727 0.663062 0.474936
Si Si4 0.000000 0.750000 0.875000
Si Si5 0.678587 0.463341 0.772186
O O1 0.171142 0.283492 0.522241
O O2 0.296906 0.326499 0.435167
O O3 0.170643 0.370157 0.292093
O O4 0.211519 0.408097 0.593479
O O5 0.056208 0.885995 0.537442
O O6 0.096735 0.954539 0.284297
O O7 0.000000 0.000000 0.500000
O O8 0.561083 0.702381 0.544511
O O9 0.712113 0.448329 0.595841
#
# Coordination Sequence:
#
# PCOD9546307 Si02
#       5
#    16  16  16   4  16
#     4  10  19  42  68  92 121 164 214 275 321 386
#     4   9  18  38  64  87 119 157 207 263 318 377
#     4  10  23  42  64  90 133 164 218 265 321 385
#     4  12  28  44  54  92 140 180 208 262 324 408
#     4  11  20  37  63  94 126 162 218 274 317 391
#
# _framework density 22.919916000000001
#
# number of rings (size 3 to 8) (size 9 to 14) (size 15 to 20)
#    0.000    1.882    7.059    0.000    0.000    4.706 
#    8.471    0.000    0.000    0.000    0.000    0.000 
#    0.000    0.000    0.000    0.000    0.000    0.000 
#
# Total GULP energy -189738.642441 kJ/mol
# GULP energy per Si atom -5580.548307 kJ/mol
# Density = 2.286775 g / cm^3
# Si number density = 22.919916 Si / 1000 Ang^3
#
#
#
# Elastic Constant Matrix: (Units=GPa)
#
#
# Indices 1 2 3 4 5 6 
#
# 1 156.3654 35.7155 34.4361 0.0000 0.0000 -12.9847
# 2 35.7155 156.3654 34.4361 0.0000 0.0000 12.9847
# 3 34.4361 34.4361 40.2163 0.0000 0.0000 0.0000
# 4 0.0000 0.0000 0.0000 28.0794 0.0000 0.0000
# 5 0.0000 0.0000 0.0000 0.0000 28.0794 0.0000
# 6 -12.9847 12.9847 0.0000 0.0000 0.0000 38.4858
#
#
#
# Elastic Compliance Matrix: (Units=1/GPa)
#
#
# Indices 1 2 3 4 5 6 
#
# 1 0.008225 -0.000712 -0.006433 0.000000 0.000000 0.003015
# 2 -0.000712 0.008225 -0.006433 0.000000 0.000000 -0.003015
# 3 -0.006433 -0.006433 0.035882 0.000000 0.000000 0.000000
# 4 0.000000 0.000000 0.000000 0.035613 0.000000 0.000000
# 5 0.000000 0.000000 0.000000 0.000000 0.035613 0.000000
# 6 0.003015 -0.003015 0.000000 0.000000 0.000000 0.028018
#
#
# Mechanical properties :
#
#
# Convention : Reuss Voigt Hill
#
# Bulk Modulus (GPa) = 39.72045 62.45803 51.08924
# Shear Modulus (GPa) = 26.71999 35.48623 31.10311
#
# Velocity S-wave (km/s) = 3.41808 3.93908 3.68779
# Velocity P-wave (km/s) = 5.73981 6.92807 6.36174
#
# Compressibility (1/GPa) = 0.02517595
#
# Stress axis : x y z
#
# Youngs Moduli (GPa) = 121.57890 121.57890 27.86895
#
# Poissons Ratio (x) = 0.08661 0.17928
# Poissons Ratio (y) = 0.08661 0.17928
# Poissons Ratio (z) = 0.78211 0.78211
#
# Static dielectric constant tensor:
#      x y z
#    x 1.874770 0.000000 0.000000 
#    y 0.000000 1.874770 0.000000 
#    z 0.000000 0.000000 1.859940 
# 
# From -- ./inp_files/1492.got.cif
#   From: 2010.05.17/outbox.cif.g08.bks.cpg/sg88_1_cif.got.tgz:1492.got - 2010.06.03 19:11:41.
