data_PCOD9546752
_publ_section_title
;
Structure prediction by ZEFSAII (Michael W. Deem and Ramdas Pophale) SiO2 
 PCOD9546752
Probable space group: I 41/A
;
_chemical_formula_sum "Si O2"
_cell_formula_units_Z 112
_cell_length_a 14.172900
_cell_length_b 14.172900
_cell_length_c 26.036534
_cell_angle_alpha 90.000000
_cell_angle_beta 90.000000
_cell_angle_gamma 90.000000
_cell_volume 5229.987079
_symmetry_space_group_name_H-M "I 41/A"
_symmetry_group_IT_number 88
_space_group.IT_coordinate_system_code '2'
_symmetry_cell_setting 'tetragonal'
loop_
_space_group_symop_operation_xyz
x,y,z
3/4-y,1/4+x,1/4+z
-x,1/2-y,z
1/4+y,1/4-x,1/4+z
-x,-y,-z
1/4+y,3/4-x,3/4-z
x,1/2+y,-z
3/4-y,3/4+x,3/4-z
1/2+x,1/2+y,1/2+z
1/4-y,3/4+x,3/4+z
1/2-x,-y,1/2+z
3/4+y,3/4-x,3/4+z
1/2-x,1/2-y,1/2-z
3/4+y,1/4-x,1/4-z
1/2+x,y,1/2-z
1/4-y,1/4+x,1/4-z
loop_
_atom_site_type_symbol
_atom_site_label
_atom_site_fract_x
_atom_site_fract_y
_atom_site_fract_z
Si Si1 0.607638 0.733135 0.524185
Si Si2 0.734815 0.848284 0.720523
Si Si3 0.742712 0.246597 0.111131
Si Si4 0.324477 0.548928 0.219170
Si Si5 0.843335 0.622831 0.173831
Si Si6 0.299421 0.036191 0.132842
Si Si7 0.004708 0.043563 0.327818
O O1 0.500000 0.750000 0.538485
O O2 0.627406 0.622463 0.522153
O O3 0.674589 0.769736 0.569620
O O4 0.626342 0.767690 0.466095
O O5 0.750000 0.750000 0.750000
O O6 0.746768 0.817103 0.661662
O O7 0.795795 0.940413 0.735019
O O8 0.650908 0.203780 0.083635
O O9 0.732811 0.355064 0.128274
O O10 0.322753 0.621994 0.265753
O O11 0.251475 0.571643 0.174219
O O12 0.428988 0.539350 0.194593
O O13 0.780119 0.533438 0.154788
O O14 0.819378 0.705039 0.133869
O O15 0.394263 0.025763 0.165920
#
# Coordination Sequence:
#
# PCOD9546752 Si02
#       7
#    16  16  16  16  16  16  16
#     4  12  26  37  63  99 137 179 218 255 325 401
#     4  12  24  39  65  96 137 174 213 263 322 395
#     4  12  23  41  62  98 138 176 212 266 321 402
#     4  11  22  45  65  96 128 176 213 283 330 383
#     4  11  24  43  67  93 136 166 222 276 328 390
#     4  11  25  42  69  96 134 172 222 270 334 392
#     4  11  24  44  67  97 126 180 221 276 328 392
#
# _framework density 21.414966
#
# number of rings (size 3 to 8) (size 9 to 14) (size 15 to 20)
#    0.000    0.571    5.714    3.429    6.000    0.571 
#    0.000    0.000    0.000    6.857    0.000    0.000 
#    0.000    0.000    0.000    0.000    0.000    0.000 
#
# Total GULP energy -312735.442567 kJ/mol
# GULP energy per Si atom -5584.561474 kJ/mol
# Density = 2.136622 g / cm^3
# Si number density = 21.414966 Si / 1000 Ang^3
#
#
#
# Elastic Constant Matrix: (Units=GPa)
#
#
# Indices 1 2 3 4 5 6 
#
# 1 63.1265 -3.2886 -0.2332 0.0000 0.0000 -0.0398
# 2 -3.2886 63.1265 -0.2332 0.0000 0.0000 0.0398
# 3 -0.2332 -0.2332 115.0936 0.0000 0.0000 0.0000
# 4 0.0000 0.0000 0.0000 22.4397 0.0000 0.0000
# 5 0.0000 0.0000 0.0000 0.0000 22.4397 0.0000
# 6 -0.0398 0.0398 0.0000 0.0000 0.0000 13.0852
#
#
#
# Elastic Compliance Matrix: (Units=1/GPa)
#
#
# Indices 1 2 3 4 5 6 
#
# 1 0.015884 0.000828 0.000034 0.000000 0.000000 0.000046
# 2 0.000828 0.015884 0.000034 0.000000 0.000000 -0.000046
# 3 0.000034 0.000034 0.008689 0.000000 0.000000 0.000000
# 4 0.000000 0.000000 0.000000 0.044564 0.000000 0.000000
# 5 0.000000 0.000000 0.000000 0.000000 0.044564 0.000000
# 6 0.000046 -0.000046 0.000000 0.000000 0.000000 0.076422
#
#
# Mechanical properties :
#
#
# Convention : Reuss Voigt Hill
#
# Bulk Modulus (GPa) = 23.66957 25.98182 24.82570
# Shear Modulus (GPa) = 22.90428 27.93305 25.41866
#
# Velocity S-wave (km/s) = 3.27394 3.61552 3.44896
# Velocity P-wave (km/s) = 5.03670 5.43951 5.24198
#
# Compressibility (1/GPa) = 0.04224834
#
# Stress axis : x y z
#
# Youngs Moduli (GPa) = 62.95458 62.95458 115.09173
#
# Poissons Ratio (x) = -0.05210 -0.00390
# Poissons Ratio (y) = -0.05210 -0.00390
# Poissons Ratio (z) = -0.00213 -0.00213
#
# Static dielectric constant tensor:
#      x y z
#    x 1.728190 0.000000 0.000000 
#    y 0.000000 1.728190 0.000000 
#    z 0.000000 0.000000 1.827680 
# 
# From -- ./inp_files/5848.got.cif
#   From: 2010.05.17/outbox.cif.g08.bks.cpg/sg88_3_cif.got.tgz:5848.got - 2010.06.03 19:11:41.
