data_PCOD9546842
_publ_section_title
;
Structure prediction by ZEFSAII (Michael W. Deem and Ramdas Pophale) SiO2 
 PCOD9546842
Probable space group: I 41/A
;
_chemical_formula_sum "Si O2"
_cell_formula_units_Z 88
_cell_length_a 11.551361
_cell_length_b 11.551361
_cell_length_c 27.771816
_cell_angle_alpha 90.000000
_cell_angle_beta 90.000000
_cell_angle_gamma 90.000000
_cell_volume 3705.702856
_symmetry_space_group_name_H-M "I 41/A"
_symmetry_group_IT_number 88
_space_group.IT_coordinate_system_code '2'
_symmetry_cell_setting 'tetragonal'
loop_
_space_group_symop_operation_xyz
x,y,z
3/4-y,1/4+x,1/4+z
-x,1/2-y,z
1/4+y,1/4-x,1/4+z
-x,-y,-z
1/4+y,3/4-x,3/4-z
x,1/2+y,-z
3/4-y,3/4+x,3/4-z
1/2+x,1/2+y,1/2+z
1/4-y,3/4+x,3/4+z
1/2-x,-y,1/2+z
3/4+y,3/4-x,3/4+z
1/2-x,1/2-y,1/2-z
3/4+y,1/4-x,1/4-z
1/2+x,y,1/2-z
1/4-y,1/4+x,1/4-z
loop_
_atom_site_type_symbol
_atom_site_label
_atom_site_fract_x
_atom_site_fract_y
_atom_site_fract_z
Si Si1 0.377077 0.035538 0.480464
Si Si2 0.613420 0.014160 0.117862
Si Si3 0.260644 0.626422 0.877980
Si Si4 0.538024 0.968379 0.731277
Si Si5 0.875122 0.704856 0.441409
Si Si6 0.000000 0.250000 0.386052
O O1 0.343166 0.166894 0.497157
O O2 0.500000 0.000000 0.500000
O O3 0.384882 0.050570 0.423083
O O4 0.311834 0.914365 0.494909
O O5 0.575030 0.138090 0.097883
O O6 0.740708 0.003826 0.141467
O O7 0.522775 0.964040 0.156736
O O8 0.622008 0.928209 0.073137
O O9 0.213812 0.694475 0.924234
O O10 0.389404 0.675417 0.866410
O O11 0.522430 0.096281 0.753153
O O12 0.000000 0.750000 0.429509
#
# Coordination Sequence:
#
# PCOD9546842 Si02
#       6
#    16  16  16  16  16   8
#     4  12  29  52  80 113 162 218 275 336 415 496
#     4  12  22  48  77 114 161 217 268 336 412 491
#     4  12  28  48  80 117 163 209 277 338 418 488
#     4  12  29  51  79 122 164 212 280 343 412 508
#     4  12  23  47  80 118 157 212 266 333 417 492
#     4  12  26  44  82 114 158 220 266 338 410 498
#
# _framework density 23.747181999999999
#
# number of rings (size 3 to 8) (size 9 to 14) (size 15 to 20)
#    0.000    0.000    5.455    2.727   11.455    0.000 
#    0.000    2.727    0.000    0.000    0.000    0.000 
#    0.000    0.000    0.000    0.000    0.000    0.000 
#
# Total GULP energy -244986.948985 kJ/mol
# GULP energy per Si atom -5567.885204 kJ/mol
# Density = 2.369313 g / cm^3
# Si number density = 23.747182 Si / 1000 Ang^3
#
#
#
# Elastic Constant Matrix: (Units=GPa)
#
#
# Indices 1 2 3 4 5 6 
#
# 1 167.6608 45.3982 35.2466 0.0000 0.0000 19.9150
# 2 45.3982 167.6608 35.2466 0.0000 0.0000 -19.9150
# 3 35.2466 35.2466 101.7560 0.0000 0.0000 0.0000
# 4 0.0000 0.0000 0.0000 14.7809 0.0000 0.0000
# 5 0.0000 0.0000 0.0000 0.0000 14.7809 0.0000
# 6 19.9150 -19.9150 0.0000 0.0000 0.0000 41.4967
#
#
#
# Elastic Compliance Matrix: (Units=1/GPa)
#
#
# Indices 1 2 3 4 5 6 
#
# 1 0.007498 -0.002197 -0.001836 0.000000 0.000000 -0.004653
# 2 -0.002197 0.007498 -0.001836 0.000000 0.000000 0.004653
# 3 -0.001836 -0.001836 0.011099 0.000000 0.000000 0.000000
# 4 0.000000 0.000000 0.000000 0.067655 0.000000 0.000000
# 5 0.000000 0.000000 0.000000 0.000000 0.067655 0.000000
# 6 -0.004653 0.004653 0.000000 0.000000 0.000000 0.028564
#
#
# Mechanical properties :
#
#
# Convention : Reuss Voigt Hill
#
# Bulk Modulus (GPa) = 69.65332 74.31781 71.98557
# Shear Modulus (GPa) = 24.21378 35.62409 29.91894
#
# Velocity S-wave (km/s) = 3.19666 3.87737 3.55335
# Velocity P-wave (km/s) = 6.55894 7.16998 6.87126
#
# Compressibility (1/GPa) = 0.01435682
#
# Stress axis : x y z
#
# Youngs Moduli (GPa) = 133.36955 133.36955 90.09421
#
# Poissons Ratio (x) = 0.29300 0.16543
# Poissons Ratio (y) = 0.29300 0.16543
# Poissons Ratio (z) = 0.24489 0.24489
#
# Static dielectric constant tensor:
#      x y z
#    x 1.768030 0.000000 0.000000 
#    y 0.000000 1.768030 0.000000 
#    z 0.000000 0.000000 1.784580 
# 
# From -- ./inp_files/6459.got.cif
#   From: 2010.05.17/outbox.cif.g08.bks.cpg/sg88_4_cif.got.tgz:6459.got - 2010.06.03 19:11:41.
