data_PCOD9546951
_publ_section_title
;
Structure prediction by ZEFSAII (Michael W. Deem and Ramdas Pophale) SiO2 
 PCOD9546951
Probable space group: P 4 2 2
;
_chemical_formula_sum "Si O2"
_cell_formula_units_Z 60
_cell_length_a 12.073950
_cell_length_b 12.073950
_cell_length_c 20.587049
_cell_angle_alpha 90.000000
_cell_angle_beta 90.000000
_cell_angle_gamma 90.000000
_cell_volume 3001.185533
_symmetry_space_group_name_H-M "P 4 2 2"
_symmetry_group_IT_number 89
_symmetry_cell_setting 'tetragonal'
loop_
_space_group_symop_operation_xyz
x,y,z
-y,x,z
-x,-y,z
y,-x,z
x,-y,-z
-x,y,-z
y,x,-z
-y,-x,-z
loop_
_atom_site_type_symbol
_atom_site_label
_atom_site_fract_x
_atom_site_fract_y
_atom_site_fract_z
Si Si1 0.159236 0.613227 0.822850
Si Si2 0.315316 0.487948 0.076534
Si Si3 0.615295 0.639815 0.402557
Si Si4 0.961282 0.821874 0.198516
Si Si5 0.196721 0.803116 0.427221
Si Si6 0.367170 0.623833 0.752545
Si Si7 0.500000 0.000000 0.277453
Si Si8 0.271508 0.994314 0.342171
O O1 0.207501 0.541607 0.881790
O O2 0.071468 0.709562 0.838626
O O3 0.263158 0.676724 0.788225
O O4 0.100855 0.536727 0.768769
O O5 0.401119 0.386541 0.090243
O O6 0.290990 0.500000 0.000000
O O7 0.485801 0.650026 0.419442
O O8 0.688326 0.736722 0.431181
O O9 0.633941 0.642862 0.324459
O O10 0.962398 0.790176 0.275278
O O11 0.081573 0.872908 0.184808
O O12 0.163810 0.836191 0.500000
O O13 0.274875 0.890930 0.390954
O O14 0.091374 0.788803 0.380902
O O15 0.350553 0.493593 0.769708
O O16 0.605709 0.970063 0.320684
#
# Coordination Sequence:
#
# PCOD9546951 Si02
#       8
#     8   8   8   8   8   8   4   8
#     4  11  21  34  59  92 125 160 207 254 306 363
#     4   9  19  37  61  93 138 183 213 238 280 357
#     4   9  20  38  59  85 118 153 193 244 317 393
#     4  10  21  39  60  86 116 157 202 263 328 372
#     4  12  26  42  63  86 111 158 209 255 312 394
#     4   9  18  30  52  84 115 150 188 237 300 369
#     4  10  26  40  60  96 124 152 194 270 334 370
#     4  11  24  44  63  86 118 154 202 259 323 382
#
# _framework density 19.992097999999999
#
# number of rings (size 3 to 8) (size 9 to 14) (size 15 to 20)
#    0.000    1.867    1.333    4.000    5.600    5.067 
#    0.000    2.333    0.000    0.000    0.000    0.000 
#    0.000    8.533    0.000    0.000    0.000    0.000 
#
# Total GULP energy -335007.652200 kJ/mol
# GULP energy per Si atom -5583.460870 kJ/mol
# Density = 1.994660 g / cm^3
# Si number density = 19.992098 Si / 1000 Ang^3
#
#
#
# Elastic Constant Matrix: (Units=GPa)
#
#
# Indices 1 2 3 4 5 6 
#
# 1 59.6791 18.3502 21.3826 0.0000 0.0000 0.0000
# 2 18.3502 59.6790 21.3825 0.0000 0.0000 0.0000
# 3 21.3826 21.3825 87.4119 0.0000 0.0000 0.0000
# 4 0.0000 0.0000 0.0000 281.1084 0.0000 0.0000
# 5 0.0000 0.0000 0.0000 0.0000 281.1535 0.0000
# 6 0.0000 0.0000 0.0000 0.0000 0.0000 24.4340
#
#
#
# Elastic Compliance Matrix: (Units=1/GPa)
#
#
# Indices 1 2 3 4 5 6 
#
# 1 0.019498 -0.004698 -0.003620 0.000000 0.000000 0.000000
# 2 -0.004698 0.019498 -0.003620 0.000000 0.000000 0.000000
# 3 -0.003620 -0.003620 0.013211 0.000000 0.000000 0.000000
# 4 0.000000 0.000000 0.000000 0.003557 0.000000 0.000000
# 5 0.000000 0.000000 0.000000 0.000000 0.003557 0.000000
# 6 0.000000 0.000000 0.000000 0.000000 0.000000 0.040927
#
#
# Mechanical properties :
#
#
# Convention : Reuss Voigt Hill
#
# Bulk Modulus (GPa) = 35.29859 36.55564 35.92712
# Shear Modulus (GPa) = 37.43385 127.04949 82.24167
#
# Velocity S-wave (km/s) = 4.33186 7.98046 6.42078
# Velocity P-wave (km/s) = 6.53564 10.16080 8.54273
#
# Compressibility (1/GPa) = 0.02832974
#
# Stress axis : x y z
#
# Youngs Moduli (GPa) = 51.28727 51.28716 75.69290
#
# Poissons Ratio (x) = 0.24096 0.27403
# Poissons Ratio (y) = 0.24096 0.27403
# Poissons Ratio (z) = 0.18568 0.18568
#
# Static dielectric constant tensor:
#      x y z
#    x 1.529180 0.000000 0.000000 
#    y 0.000000 1.529150 0.000000 
#    z 0.000000 0.000000 1.733350 
# 
# From -- ./inp_files/2646.got.cif
#   From: 2010.05.17/outbox.cif.g08.bks.cpg/sg89_2_cif.got.tgz:2646.got - 2010.06.03 19:15:31.
