data_PCOD9546125
_publ_section_title
;
Structure prediction by ZEFSAII (Michael W. Deem and Ramdas Pophale) SiO2 
 PCOD9546125
Probable space group: I 4/M
;
_chemical_formula_sum "Si O2"
_cell_formula_units_Z 56
_cell_length_a 18.022509
_cell_length_b 18.022509
_cell_length_c 8.014944
_cell_angle_alpha 90.000000
_cell_angle_beta 90.000000
_cell_angle_gamma 90.000000
_cell_volume 2603.340618
_symmetry_space_group_name_H-M "I 4/M"
_symmetry_group_IT_number 87
_symmetry_cell_setting 'tetragonal'
loop_
_space_group_symop_operation_xyz
x,y,z
-y,x,z
-x,-y,z
y,-x,z
-x,-y,-z
y,-x,-z
x,y,-z
-y,x,-z
1/2+x,1/2+y,1/2+z
1/2-y,1/2+x,1/2+z
1/2-x,1/2-y,1/2+z
1/2+y,1/2-x,1/2+z
1/2-x,1/2-y,1/2-z
1/2+y,1/2-x,1/2-z
1/2+x,1/2+y,1/2-z
1/2-y,1/2+x,1/2-z
loop_
_atom_site_type_symbol
_atom_site_label
_atom_site_fract_x
_atom_site_fract_y
_atom_site_fract_z
Si Si1 0.161296 0.151332 0.686239
Si Si2 0.310847 0.107360 0.200567
Si Si3 0.789966 0.435576 0.300900
Si Si4 0.896155 0.933935 0.000000
O O1 0.147105 0.123285 0.500000
O O2 0.249594 0.159768 0.711533
O O3 0.110948 0.223615 0.716147
O O4 0.141859 0.094203 0.832717
O O5 0.391288 0.135513 0.255300
O O6 0.295430 0.021818 0.248280
O O7 0.304429 0.114200 0.000000
O O8 0.778026 0.433039 0.500000
O O9 0.978428 0.901227 0.000000
#
# Coordination Sequence:
#
# PCOD9546125 Si02
#       4
#    16  16  16   8
#     4  12  24  42  70  98 133 176 227 275 334 398
#     4  11  24  43  67  97 136 178 224 282 339 398
#     4  11  24  43  67  97 136 178 224 282 339 398
#     4  11  24  42  64  96 136 174 220 275 334 402
#
# _framework density 21.510824
#
# number of rings (size 3 to 8) (size 9 to 14) (size 15 to 20)
#    0.000    0.714    2.857    4.286    0.000    8.571 
#    0.000    4.286    0.000    0.000    0.000    0.000 
#    0.000    0.000    0.000    0.000    0.000    0.000 
#
# Total GULP energy -156689.308285 kJ/mol
# GULP energy per Si atom -5596.046724 kJ/mol
# Density = 2.146186 g / cm^3
# Si number density = 21.510824 Si / 1000 Ang^3
#
#
#
# Elastic Constant Matrix: (Units=GPa)
#
#
# Indices 1 2 3 4 5 6 
#
# 1 112.6302 38.2479 25.5450 0.0000 0.0000 5.4374
# 2 38.2479 112.6302 25.5450 0.0000 0.0000 -5.4374
# 3 25.5450 25.5450 128.8918 0.0000 0.0000 0.0000
# 4 0.0000 0.0000 0.0000 -1.4898 0.0000 0.0000
# 5 0.0000 0.0000 0.0000 0.0000 -1.4898 0.0000
# 6 5.4374 -5.4374 0.0000 0.0000 0.0000 42.7273
#
#
#
# Elastic Compliance Matrix: (Units=1/GPa)
#
#
# Indices 1 2 3 4 5 6 
#
# 1 0.010402 -0.003297 -0.001408 0.000000 0.000000 -0.001743
# 2 -0.003297 0.010402 -0.001408 0.000000 0.000000 0.001743
# 3 -0.001408 -0.001408 0.008317 0.000000 0.000000 0.000000
# 4 0.000000 0.000000 0.000000 -0.671234 0.000000 0.000000
# 5 0.000000 0.000000 0.000000 0.000000 -0.671234 0.000000
# 6 -0.001743 0.001743 0.000000 0.000000 0.000000 0.023848
#
#
# Mechanical properties :
#
#
# Convention : Reuss Voigt Hill
#
# Bulk Modulus (GPa) = 59.19394 59.20312 59.19853
# Shear Modulus (GPa) = -3.93192 25.60382 10.83595
#
# Velocity S-wave (km/s) = -1.35346 3.45378 2.24686
# Velocity P-wave (km/s) = 5.01353 6.59447 5.85758
#
# Compressibility (1/GPa) = 0.01689362
#
# Stress axis : x y z
#
# Youngs Moduli (GPa) = 96.13719 96.13719 120.24174
#
# Poissons Ratio (x) = 0.31698 0.16931
# Poissons Ratio (y) = 0.31698 0.16931
# Poissons Ratio (z) = 0.13537 0.13537
#
# Static dielectric constant tensor:
#      x y z
#    x 1.781040 0.000000 0.000000 
#    y 0.000000 1.781040 0.000000 
#    z 0.000000 0.000000 1.757720 
# 
# From -- ./inp_files/719.got.cif
#   From: 2010.05.17/outbox.cif.g08.bks.cpg/sg87_1_cif.got.tgz:719.got - 2010.06.03 19:07:00.
