data_PCOD9546429
_publ_section_title
;
Structure prediction by ZEFSAII (Michael W. Deem and Ramdas Pophale) SiO2 
 PCOD9546429
Probable space group: I 41/A
;
_chemical_formula_sum "Si O2"
_cell_formula_units_Z 112
_cell_length_a 14.239329
_cell_length_b 14.239329
_cell_length_c 28.903449
_cell_angle_alpha 90.000000
_cell_angle_beta 90.000000
_cell_angle_gamma 90.000000
_cell_volume 5860.419686
_symmetry_space_group_name_H-M "I 41/A"
_symmetry_group_IT_number 88
_space_group.IT_coordinate_system_code '2'
_symmetry_cell_setting 'tetragonal'
loop_
_space_group_symop_operation_xyz
x,y,z
3/4-y,1/4+x,1/4+z
-x,1/2-y,z
1/4+y,1/4-x,1/4+z
-x,-y,-z
1/4+y,3/4-x,3/4-z
x,1/2+y,-z
3/4-y,3/4+x,3/4-z
1/2+x,1/2+y,1/2+z
1/4-y,3/4+x,3/4+z
1/2-x,-y,1/2+z
3/4+y,3/4-x,3/4+z
1/2-x,1/2-y,1/2-z
3/4+y,1/4-x,1/4-z
1/2+x,y,1/2-z
1/4-y,1/4+x,1/4-z
loop_
_atom_site_type_symbol
_atom_site_label
_atom_site_fract_x
_atom_site_fract_y
_atom_site_fract_z
Si Si1 0.960005 0.016779 0.223642
Si Si2 0.274216 0.439003 0.541918
Si Si3 0.890827 0.732144 0.697704
Si Si4 0.791717 0.047425 0.873521
Si Si5 0.180597 0.897442 0.023362
Si Si6 0.098686 0.645456 0.892256
Si Si7 0.102464 0.715090 0.591059
O O1 0.879259 0.974466 0.255890
O O2 0.923289 0.101941 0.190706
O O3 0.041984 0.051540 0.257312
O O4 0.997328 0.935223 0.190760
O O5 0.379739 0.398126 0.542711
O O6 0.228904 0.453017 0.591985
O O7 0.279498 0.539032 0.517208
O O8 0.836022 0.818942 0.720501
O O9 0.884655 0.744330 0.642578
O O10 0.000000 0.750000 0.710094
O O11 0.775913 0.078009 0.926535
O O12 0.854233 0.128281 0.849048
O O13 0.853239 0.950750 0.875780
O O14 0.116219 0.735505 0.858416
O O15 0.000000 0.750000 0.575250
#
# Coordination Sequence:
#
# PCOD9546429 Si02
#       7
#    16  16  16  16  16  16  16
#     4  12  23  41  64  97 126 174 223 268 328 398
#     4  12  23  36  64  92 127 166 219 267 320 391
#     4  10  21  36  58  93 130 171 200 248 321 394
#     4  11  23  41  61  92 128 176 221 269 325 386
#     4  11  23  40  59  89 135 172 218 262 319 399
#     4  11  22  36  60  94 141 173 200 248 325 403
#     4  10  22  42  64  83 124 172 218 267 324 385
#
# _framework density 19.111259
#
# number of rings (size 3 to 8) (size 9 to 14) (size 15 to 20)
#    0.000    1.000    5.714    1.286    2.000    3.429 
#    0.000    0.714    3.143    0.000    0.000    0.000 
#    0.000    0.000    0.000    0.000    0.000    0.000 
#
# Total GULP energy -312666.110607 kJ/mol
# GULP energy per Si atom -5583.323404 kJ/mol
# Density = 1.906776 g / cm^3
# Si number density = 19.111259 Si / 1000 Ang^3
#
#
#
# Elastic Constant Matrix: (Units=GPa)
#
#
# Indices 1 2 3 4 5 6 
#
# 1 67.3214 3.4669 34.8616 0.0000 0.0000 -4.5561
# 2 3.4669 67.3214 34.8616 0.0000 0.0000 4.5561
# 3 34.8616 34.8616 72.0042 0.0000 0.0000 0.0000
# 4 0.0000 0.0000 0.0000 24.3582 0.0000 0.0000
# 5 0.0000 0.0000 0.0000 0.0000 24.3582 0.0000
# 6 -4.5561 4.5561 0.0000 0.0000 0.0000 16.9019
#
#
#
# Elastic Compliance Matrix: (Units=1/GPa)
#
#
# Indices 1 2 3 4 5 6 
#
# 1 0.021646 0.005359 -0.013074 0.000000 0.000000 0.004390
# 2 0.005359 0.021646 -0.013074 0.000000 0.000000 -0.004390
# 3 -0.013074 -0.013074 0.026548 0.000000 0.000000 0.000000
# 4 0.000000 0.000000 0.000000 0.041054 0.000000 0.000000
# 5 0.000000 0.000000 0.000000 0.000000 0.041054 0.000000
# 6 0.004390 -0.004390 0.000000 0.000000 0.000000 0.061532
#
#
# Mechanical properties :
#
#
# Convention : Reuss Voigt Hill
#
# Bulk Modulus (GPa) = 35.38660 39.22522 37.30591
# Shear Modulus (GPa) = 18.90505 22.02080 20.46292
#
# Velocity S-wave (km/s) = 3.14858 3.39815 3.27574
# Velocity P-wave (km/s) = 5.63688 5.99715 5.81980
#
# Compressibility (1/GPa) = 0.02825929
#
# Stress axis : x y z
#
# Youngs Moduli (GPa) = 46.19850 46.19850 37.66720
#
# Poissons Ratio (x) = -0.24756 0.49248
# Poissons Ratio (y) = -0.24756 0.49248
# Poissons Ratio (z) = 0.60402 0.60402
#
# Static dielectric constant tensor:
#      x y z
#    x 1.694710 0.000000 0.000000 
#    y 0.000000 1.694710 0.000000 
#    z 0.000000 0.000000 1.669280 
# 
# From -- ./inp_files/5860.got.cif
#   From: 2010.05.17/outbox.cif.g08.bks.cpg/sg88_3_cif.got.tgz:5860.got - 2010.06.03 19:11:41.
