data_PCOD9546536
_publ_section_title
;
Structure prediction by ZEFSAII (Michael W. Deem and Ramdas Pophale) SiO2 
 PCOD9546536
Probable space group: I 41/A
;
_chemical_formula_sum "Si O2"
_cell_formula_units_Z 88
_cell_length_a 12.201008
_cell_length_b 12.201008
_cell_length_c 30.319393
_cell_angle_alpha 90.000000
_cell_angle_beta 90.000000
_cell_angle_gamma 90.000000
_cell_volume 4513.484196
_symmetry_space_group_name_H-M "I 41/A"
_symmetry_group_IT_number 88
_space_group.IT_coordinate_system_code '2'
_symmetry_cell_setting 'tetragonal'
loop_
_space_group_symop_operation_xyz
x,y,z
3/4-y,1/4+x,1/4+z
-x,1/2-y,z
1/4+y,1/4-x,1/4+z
-x,-y,-z
1/4+y,3/4-x,3/4-z
x,1/2+y,-z
3/4-y,3/4+x,3/4-z
1/2+x,1/2+y,1/2+z
1/4-y,3/4+x,3/4+z
1/2-x,-y,1/2+z
3/4+y,3/4-x,3/4+z
1/2-x,1/2-y,1/2-z
3/4+y,1/4-x,1/4-z
1/2+x,y,1/2-z
1/4-y,1/4+x,1/4-z
loop_
_atom_site_type_symbol
_atom_site_label
_atom_site_fract_x
_atom_site_fract_y
_atom_site_fract_z
Si Si1 0.744479 0.868822 0.774507
Si Si2 0.069170 0.417417 0.121672
Si Si3 0.626456 0.901112 0.918817
Si Si4 0.500000 0.250000 0.737443
Si Si5 0.633777 0.948561 0.216471
Si Si6 0.971661 0.121247 0.321533
O O1 0.750000 0.750000 0.750000
O O2 0.790244 0.851777 0.823621
O O3 0.618539 0.899390 0.783570
O O4 0.807537 0.969949 0.751904
O O5 0.136863 0.307863 0.130470
O O6 0.093563 0.506824 0.158975
O O7 0.557032 0.837676 0.955241
O O8 0.569575 0.898336 0.871113
O O9 0.646248 0.022144 0.936523
O O10 0.440466 0.150832 0.764227
O O11 0.566575 0.035684 0.187720
O O12 0.000000 0.250000 0.318222
#
# Coordination Sequence:
#
# PCOD9546536 Si02
#       6
#    16  16  16   8  16  16
#     4  11  22  39  66  97 133 171 224 285 350 401
#     4  10  22  38  62  98 133 173 221 279 351 419
#     4  11  25  43  69  92 136 179 227 278 337 411
#     4  12  26  46  67  98 138 186 230 280 341 402
#     4  12  26  43  69 100 138 176 234 283 342 411
#     4  11  24  44  69  98 134 181 222 283 350 417
#
# _framework density 19.497132000000001
#
# number of rings (size 3 to 8) (size 9 to 14) (size 15 to 20)
#    0.000    0.909    2.727    3.818    2.545    7.273 
#    0.000    0.000    0.000    0.000    0.000    0.000 
#    0.000    0.000    0.000    0.000    0.000    0.000 
#
# Total GULP energy -245785.279113 kJ/mol
# GULP energy per Si atom -5586.029071 kJ/mol
# Density = 1.945276 g / cm^3
# Si number density = 19.497132 Si / 1000 Ang^3
#
#
#
# Elastic Constant Matrix: (Units=GPa)
#
#
# Indices 1 2 3 4 5 6 
#
# 1 145.8197 61.3848 45.8024 0.0000 0.0000 -6.9188
# 2 61.3848 145.8197 45.8024 0.0000 0.0000 6.9188
# 3 45.8024 45.8024 53.9668 0.0000 0.0000 0.0000
# 4 0.0000 0.0000 0.0000 54.5475 0.0000 0.0000
# 5 0.0000 0.0000 0.0000 0.0000 54.5475 0.0000
# 6 -6.9188 6.9188 0.0000 0.0000 0.0000 55.9745
#
#
#
# Elastic Compliance Matrix: (Units=1/GPa)
#
#
# Indices 1 2 3 4 5 6 
#
# 1 0.009906 -0.002182 -0.006556 0.000000 0.000000 0.001494
# 2 -0.002182 0.009906 -0.006556 0.000000 0.000000 -0.001494
# 3 -0.006556 -0.006556 0.029658 0.000000 0.000000 0.000000
# 4 0.000000 0.000000 0.000000 0.018333 0.000000 0.000000
# 5 0.000000 0.000000 0.000000 0.000000 0.018333 0.000000
# 6 0.001494 -0.001494 0.000000 0.000000 0.000000 0.018235
#
#
# Mechanical properties :
#
#
# Convention : Reuss Voigt Hill
#
# Bulk Modulus (GPa) = 52.95626 72.39836 62.67731
# Shear Modulus (GPa) = 35.39755 45.85500 40.62628
#
# Velocity S-wave (km/s) = 4.26552 4.85488 4.56971
# Velocity P-wave (km/s) = 7.17493 8.28492 7.74982
#
# Compressibility (1/GPa) = 0.01888351
#
# Stress axis : x y z
#
# Youngs Moduli (GPa) = 100.94482 100.94482 33.71764
#
# Poissons Ratio (x) = 0.22025 0.22105
# Poissons Ratio (y) = 0.22025 0.22105
# Poissons Ratio (z) = 0.66178 0.66178
#
# Static dielectric constant tensor:
#      x y z
#    x 1.746530 0.000000 0.000000 
#    y 0.000000 1.746530 0.000000 
#    z 0.000000 0.000000 1.644080 
# 
# From -- ./inp_files/6454.got.cif
#   From: 2010.05.17/outbox.cif.g08.bks.cpg/sg88_4_cif.got.tgz:6454.got - 2010.06.03 19:11:41.
