data_PCOD9546854
_publ_section_title
;
Structure prediction by ZEFSAII (Michael W. Deem and Ramdas Pophale) SiO2 
 PCOD9546854
Probable space group: I 41/A
;
_chemical_formula_sum "Si O2"
_cell_formula_units_Z 48
_cell_length_a 8.531788
_cell_length_b 8.531788
_cell_length_c 27.283450
_cell_angle_alpha 90.000000
_cell_angle_beta 90.000000
_cell_angle_gamma 90.000000
_cell_volume 1986.000699
_symmetry_space_group_name_H-M "I 41/A"
_symmetry_group_IT_number 88
_space_group.IT_coordinate_system_code '2'
_symmetry_cell_setting 'tetragonal'
loop_
_space_group_symop_operation_xyz
x,y,z
3/4-y,1/4+x,1/4+z
-x,1/2-y,z
1/4+y,1/4-x,1/4+z
-x,-y,-z
1/4+y,3/4-x,3/4-z
x,1/2+y,-z
3/4-y,3/4+x,3/4-z
1/2+x,1/2+y,1/2+z
1/4-y,3/4+x,3/4+z
1/2-x,-y,1/2+z
3/4+y,3/4-x,3/4+z
1/2-x,1/2-y,1/2-z
3/4+y,1/4-x,1/4-z
1/2+x,y,1/2-z
1/4-y,1/4+x,1/4-z
loop_
_atom_site_type_symbol
_atom_site_label
_atom_site_fract_x
_atom_site_fract_y
_atom_site_fract_z
Si Si1 0.165056 0.820222 0.660476
Si Si2 0.881919 0.623522 0.473853
Si Si3 0.896512 0.096866 0.190792
O O1 0.270847 0.836088 0.612372
O O2 0.226059 0.677037 0.694781
O O3 0.000000 0.750000 0.644013
O O4 0.170675 0.990423 0.686730
O O5 0.781725 0.688550 0.519494
O O6 0.000000 0.750000 0.450684
O O7 0.000000 0.500000 0.500000
O O8 0.000000 0.250000 0.196078
#
# Coordination Sequence:
#
# PCOD9546854 Si02
#       3
#    16  16  16
#     4  12  25  45  72 112 148 196 252 307 362 445
#     4  12  27  47  74 112 151 189 238 315 385 437
#     4  12  24  48  78 103 144 205 255 293 363 461
#
# _framework density 24.169173000000001
#
# number of rings (size 3 to 8) (size 9 to 14) (size 15 to 20)
#    0.000    0.000    3.333    7.000    4.667    0.000 
#    0.000    0.000    0.000    0.000    0.000    0.000 
#    0.000    0.000    0.000    0.000    0.000    0.000 
#
# Total GULP energy -134143.194904 kJ/mol
# GULP energy per Si atom -5589.299788 kJ/mol
# Density = 2.411416 g / cm^3
# Si number density = 24.169173 Si / 1000 Ang^3
#
#
#
# Elastic Constant Matrix: (Units=GPa)
#
#
# Indices 1 2 3 4 5 6 
#
# 1 146.9561 46.4796 28.9600 0.0000 0.0000 3.3990
# 2 46.4796 146.9561 28.9600 0.0000 0.0000 -3.3990
# 3 28.9600 28.9600 102.2002 0.0000 0.0000 0.0000
# 4 0.0000 0.0000 0.0000 30.0258 0.0000 0.0000
# 5 0.0000 0.0000 0.0000 0.0000 30.0258 0.0000
# 6 3.3990 -3.3990 0.0000 0.0000 0.0000 54.6400
#
#
#
# Elastic Compliance Matrix: (Units=1/GPa)
#
#
# Indices 1 2 3 4 5 6 
#
# 1 0.007822 -0.002173 -0.001601 0.000000 0.000000 -0.000622
# 2 -0.002173 0.007822 -0.001601 0.000000 0.000000 0.000622
# 3 -0.001601 -0.001601 0.010692 0.000000 0.000000 0.000000
# 4 0.000000 0.000000 0.000000 0.033305 0.000000 0.000000
# 5 0.000000 0.000000 0.000000 0.000000 0.033305 0.000000
# 6 -0.000622 0.000622 0.000000 0.000000 0.000000 0.018379
#
#
# Mechanical properties :
#
#
# Convention : Reuss Voigt Hill
#
# Bulk Modulus (GPa) = 64.15620 67.21238 65.68429
# Shear Modulus (GPa) = 39.28714 42.38584 40.83649
#
# Velocity S-wave (km/s) = 4.03613 4.19228 4.11495
# Velocity P-wave (km/s) = 6.95146 7.16262 7.05783
#
# Compressibility (1/GPa) = 0.01558696
#
# Stress axis : x y z
#
# Youngs Moduli (GPa) = 127.84767 127.84766 93.52876
#
# Poissons Ratio (x) = 0.27779 0.14971
# Poissons Ratio (y) = 0.27779 0.14971
# Poissons Ratio (z) = 0.20465 0.20465
#
# Static dielectric constant tensor:
#      x y z
#    x -2.886440 0.000000 0.000000 
#    y 0.000000 -2.886450 0.000000 
#    z 0.000000 0.000000 1.895360 
# 
# From -- ./inp_files/6036.got.cif
#   From: 2010.05.17/outbox.cif.g08.bks.cpg/sg88_4_cif.got.tgz:6036.got - 2010.06.03 19:11:41.
