data_PCOD9546723
_publ_section_title
;
Structure prediction by ZEFSAII (Michael W. Deem and Ramdas Pophale) SiO2 
 PCOD9546723
Probable space group: I 41/A
;
_chemical_formula_sum "Si O2"
_cell_formula_units_Z 112
_cell_length_a 13.640701
_cell_length_b 13.640701
_cell_length_c 28.792949
_cell_angle_alpha 90.000000
_cell_angle_beta 90.000000
_cell_angle_gamma 90.000000
_cell_volume 5357.467274
_symmetry_space_group_name_H-M "I 41/A"
_symmetry_group_IT_number 88
_space_group.IT_coordinate_system_code '2'
_symmetry_cell_setting 'tetragonal'
loop_
_space_group_symop_operation_xyz
x,y,z
3/4-y,1/4+x,1/4+z
-x,1/2-y,z
1/4+y,1/4-x,1/4+z
-x,-y,-z
1/4+y,3/4-x,3/4-z
x,1/2+y,-z
3/4-y,3/4+x,3/4-z
1/2+x,1/2+y,1/2+z
1/4-y,3/4+x,3/4+z
1/2-x,-y,1/2+z
3/4+y,3/4-x,3/4+z
1/2-x,1/2-y,1/2-z
3/4+y,1/4-x,1/4-z
1/2+x,y,1/2-z
1/4-y,1/4+x,1/4-z
loop_
_atom_site_type_symbol
_atom_site_label
_atom_site_fract_x
_atom_site_fract_y
_atom_site_fract_z
Si Si1 0.698863 0.307781 0.916376
Si Si2 0.580327 0.833120 0.335189
Si Si3 0.569300 0.845420 0.234446
Si Si4 0.081835 0.837027 0.702308
Si Si5 0.485025 0.499741 0.395335
Si Si6 0.798521 0.274243 0.681531
Si Si7 0.561734 0.852710 0.687299
O O1 0.674155 0.215012 0.948197
O O2 0.814794 0.320008 0.921660
O O3 0.630108 0.397602 0.934007
O O4 0.665314 0.281337 0.864770
O O5 0.500000 0.750000 0.344135
O O6 0.554520 0.882442 0.285995
O O7 0.580801 0.915191 0.373519
O O8 0.684711 0.786805 0.326456
O O9 0.500000 0.750000 0.228534
O O10 0.674029 0.800247 0.222531
O O11 0.188442 0.800015 0.682944
O O12 0.067386 0.869615 0.756673
O O13 0.000000 0.750000 0.696047
O O14 0.528698 0.437043 0.350448
O O15 0.423332 0.421314 0.422953
O O16 0.500000 0.750000 0.680943
#
# Coordination Sequence:
#
# PCOD9546723 Si02
#       7
#    16  16  16  16  16  16  16
#     4  11  21  39  64  96 122 171 216 273 321 392
#     4  11  24  41  60  93 135 171 208 275 339 392
#     4   9  20  38  61  91 128 169 218 261 322 398
#     4  11  26  45  67 102 141 175 228 281 340 406
#     4  12  22  44  70  95 135 180 224 281 341 398
#     4  11  21  37  65  90 125 172 217 264 328 399
#     4  11  24  46  73  98 132 183 230 283 340 403
#
# _framework density 20.9054
#
# number of rings (size 3 to 8) (size 9 to 14) (size 15 to 20)
#    0.000    1.143    2.857    3.857    2.000    0.000 
#    0.000    4.286    0.000    0.000    0.000    0.000 
#    0.000    0.000    0.000    0.000    0.000    0.000 
#
# Total GULP energy -311941.422524 kJ/mol
# GULP energy per Si atom -5570.382545 kJ/mol
# Density = 2.085782 g / cm^3
# Si number density = 20.905400 Si / 1000 Ang^3
#
#
#
# Elastic Constant Matrix: (Units=GPa)
#
#
# Indices 1 2 3 4 5 6 
#
# 1 69.9711 34.2365 3.4431 0.0000 0.0000 -5.7671
# 2 34.2365 69.9711 3.4431 0.0000 0.0000 5.7671
# 3 3.4431 3.4431 100.4162 0.0000 0.0000 0.0000
# 4 0.0000 0.0000 0.0000 36.4665 0.0000 0.0000
# 5 0.0000 0.0000 0.0000 0.0000 36.4665 0.0000
# 6 -5.7671 5.7671 0.0000 0.0000 0.0000 27.8808
#
#
#
# Elastic Compliance Matrix: (Units=1/GPa)
#
#
# Indices 1 2 3 4 5 6 
#
# 1 0.019802 -0.010184 -0.000330 0.000000 0.000000 0.006203
# 2 -0.010184 0.019802 -0.000330 0.000000 0.000000 -0.006203
# 3 -0.000330 -0.000330 0.009981 0.000000 0.000000 0.000000
# 4 0.000000 0.000000 0.000000 0.027422 0.000000 0.000000
# 5 0.000000 0.000000 0.000000 0.000000 0.027422 0.000000
# 6 0.006203 -0.006203 0.000000 0.000000 0.000000 0.038433
#
#
# Mechanical properties :
#
#
# Convention : Reuss Voigt Hill
#
# Bulk Modulus (GPa) = 35.84479 35.84489 35.84484
# Shear Modulus (GPa) = 28.76047 33.44513 31.10280
#
# Velocity S-wave (km/s) = 3.71313 4.00413 3.86137
# Velocity P-wave (km/s) = 5.96376 6.20974 6.08799
#
# Compressibility (1/GPa) = 0.02789805
#
# Stress axis : x y z
#
# Youngs Moduli (GPa) = 50.49977 50.49977 100.18862
#
# Poissons Ratio (x) = 0.51429 0.03304
# Poissons Ratio (y) = 0.51429 0.03304
# Poissons Ratio (z) = 0.01665 0.01665
#
# Static dielectric constant tensor:
#      x y z
#    x 1.771280 0.000000 0.000000 
#    y 0.000000 1.771280 0.000000 
#    z 0.000000 0.000000 1.838480 
# 
# From -- ./inp_files/5887.got.cif
#   From: 2010.05.17/outbox.cif.g08.bks.cpg/sg88_3_cif.got.tgz:5887.got - 2010.06.03 19:11:41.
