data_PCOD9546109
_publ_section_title
;
Structure prediction by ZEFSAII (Michael W. Deem and Ramdas Pophale) SiO2 
 PCOD9546109
Probable space group: I 4/M
;
_chemical_formula_sum "Si O2"
_cell_formula_units_Z 64
_cell_length_a 13.705676
_cell_length_b 13.705676
_cell_length_c 14.351404
_cell_angle_alpha 90.000000
_cell_angle_beta 90.000000
_cell_angle_gamma 90.000000
_cell_volume 2695.847444
_symmetry_space_group_name_H-M "I 4/M"
_symmetry_group_IT_number 87
_symmetry_cell_setting 'tetragonal'
loop_
_space_group_symop_operation_xyz
x,y,z
-y,x,z
-x,-y,z
y,-x,z
-x,-y,-z
y,-x,-z
x,y,-z
-y,x,-z
1/2+x,1/2+y,1/2+z
1/2-y,1/2+x,1/2+z
1/2-x,1/2-y,1/2+z
1/2+y,1/2-x,1/2+z
1/2-x,1/2-y,1/2-z
1/2+y,1/2-x,1/2-z
1/2+x,1/2+y,1/2-z
1/2-y,1/2+x,1/2-z
loop_
_atom_site_type_symbol
_atom_site_label
_atom_site_fract_x
_atom_site_fract_y
_atom_site_fract_z
Si Si1 0.377058 0.898596 0.395287
Si Si2 0.728822 0.216357 0.101536
Si Si3 0.850472 0.939041 0.659781
Si Si4 0.214582 0.526607 0.287868
O O1 0.376178 0.939083 0.500000
O O2 0.304590 0.805364 0.392785
O O3 0.480760 0.854831 0.365325
O O4 0.342237 0.965933 0.310382
O O5 0.623296 0.267491 0.109922
O O6 0.741626 0.135057 0.180226
O O7 0.740289 0.169721 0.000000
O O8 0.949159 0.879023 0.638103
O O9 0.807452 0.957904 0.764234
#
# Coordination Sequence:
#
# PCOD9546109 Si02
#       4
#    16  16  16  16
#     4  11  25  44  69 101 139 186 240 295 354 433
#     4  11  24  45  72 106 148 192 240 297 366 437
#     4  11  23  41  72 107 141 184 240 300 362 427
#     4  12  22  45  70  98 144 190 234 292 360 433
#
# _framework density 23.740214999999999
#
# number of rings (size 3 to 8) (size 9 to 14) (size 15 to 20)
#    0.000    0.750    5.000    3.000    0.000    2.500 
#    0.000    2.500    0.000    0.000    0.000   10.500 
#    0.000    0.000    0.000    0.000    0.000    0.000 
#
# Total GULP energy -178768.406118 kJ/mol
# GULP energy per Si atom -5586.512691 kJ/mol
# Density = 2.368618 g / cm^3
# Si number density = 23.740215 Si / 1000 Ang^3
#
#
#
# Elastic Constant Matrix: (Units=GPa)
#
#
# Indices 1 2 3 4 5 6 
#
# 1 69.4431 29.0884 21.2642 0.0000 0.0000 -5.8473
# 2 29.0884 69.4431 21.2642 0.0000 0.0000 5.8473
# 3 21.2642 21.2642 127.7169 0.0000 0.0000 0.0000
# 4 0.0000 0.0000 0.0000 21.4609 0.0000 0.0000
# 5 0.0000 0.0000 0.0000 0.0000 21.4609 0.0000
# 6 -5.8473 5.8473 0.0000 0.0000 0.0000 33.5621
#
#
#
# Elastic Compliance Matrix: (Units=1/GPa)
#
#
# Indices 1 2 3 4 5 6 
#
# 1 0.018516 -0.007582 -0.001821 0.000000 0.000000 0.004547
# 2 -0.007582 0.018516 -0.001821 0.000000 0.000000 -0.004547
# 3 -0.001821 -0.001821 0.008436 0.000000 0.000000 0.000000
# 4 0.000000 0.000000 0.000000 0.046596 0.000000 0.000000
# 5 0.000000 0.000000 0.000000 0.000000 0.046596 0.000000
# 6 0.004547 -0.004547 0.000000 0.000000 0.000000 0.031380
#
#
# Mechanical properties :
#
#
# Convention : Reuss Voigt Hill
#
# Bulk Modulus (GPa) = 43.43414 45.53742 44.48578
# Shear Modulus (GPa) = 24.97986 28.29587 26.63787
#
# Velocity S-wave (km/s) = 3.24731 3.45613 3.35335
# Velocity P-wave (km/s) = 5.69169 5.92871 5.81141
#
# Compressibility (1/GPa) = 0.02302336
#
# Stress axis : x y z
#
# Youngs Moduli (GPa) = 54.00627 54.00628 118.53879
#
# Poissons Ratio (x) = 0.40945 0.21581
# Poissons Ratio (y) = 0.40945 0.21581
# Poissons Ratio (z) = 0.09832 0.09832
#
# Static dielectric constant tensor:
#      x y z
#    x 1.943590 0.000000 0.000000 
#    y 0.000000 1.943590 0.000000 
#    z 0.000000 0.000000 1.902660 
# 
# From -- ./inp_files/3352.got.cif
#   From: 2010.05.17/outbox.cif.g08.bks.cpg/sg87_2_cif.got.tgz:3352.got - 2010.06.03 19:07:00.
