data_PCOD9546598
_publ_section_title
;
Structure prediction by ZEFSAII (Michael W. Deem and Ramdas Pophale) SiO2 
 PCOD9546598
Probable space group: I 41/A
;
_chemical_formula_sum "Si O2"
_cell_formula_units_Z 56
_cell_length_a 10.389562
_cell_length_b 10.389562
_cell_length_c 22.667580
_cell_angle_alpha 90.000000
_cell_angle_beta 90.000000
_cell_angle_gamma 90.000000
_cell_volume 2446.806555
_symmetry_space_group_name_H-M "I 41/A"
_symmetry_group_IT_number 88
_space_group.IT_coordinate_system_code '2'
_symmetry_cell_setting 'tetragonal'
loop_
_space_group_symop_operation_xyz
x,y,z
3/4-y,1/4+x,1/4+z
-x,1/2-y,z
1/4+y,1/4-x,1/4+z
-x,-y,-z
1/4+y,3/4-x,3/4-z
x,1/2+y,-z
3/4-y,3/4+x,3/4-z
1/2+x,1/2+y,1/2+z
1/4-y,3/4+x,3/4+z
1/2-x,-y,1/2+z
3/4+y,3/4-x,3/4+z
1/2-x,1/2-y,1/2-z
3/4+y,1/4-x,1/4-z
1/2+x,y,1/2-z
1/4-y,1/4+x,1/4-z
loop_
_atom_site_type_symbol
_atom_site_label
_atom_site_fract_x
_atom_site_fract_y
_atom_site_fract_z
Si Si1 0.000000 0.250000 0.125000
Si Si2 0.500000 0.750000 0.125000
Si Si3 0.832792 0.944141 0.310498
Si Si4 0.120896 0.531528 0.958258
Si Si5 0.142496 0.294416 0.874469
O O1 0.891125 0.177152 0.163369
O O2 0.436338 0.652714 0.079413
O O3 0.689747 0.892512 0.323458
O O4 0.834177 0.012224 0.247922
O O5 0.910494 0.038214 0.355683
O O6 0.155908 0.394578 0.929012
O O7 0.000000 0.500000 0.000000
O O8 0.000000 0.250000 0.862601
#
# Coordination Sequence:
#
# PCOD9546598 Si02
#       5
#     4   4  16  16  16
#     4  12  28  44  76 110 148 192 244 308 356 434
#     4   8  20  44  76 102 152 184 244 292 348 446
#     4  10  22  45  71 100 146 192 237 303 360 432
#     4  12  23  43  70 106 142 186 240 297 367 421
#     4  11  23  44  69 102 145 190 240 303 360 435
#
# _framework density 22.886973999999999
#
# number of rings (size 3 to 8) (size 9 to 14) (size 15 to 20)
#    0.000    1.143    2.857    3.429    0.000    0.000 
#    0.000   15.714    3.143    0.000    0.000    0.000 
#    0.000    0.000    0.000    0.000    0.000    0.000 
#
# Total GULP energy -156003.985262 kJ/mol
# GULP energy per Si atom -5571.570902 kJ/mol
# Density = 2.283488 g / cm^3
# Si number density = 22.886974 Si / 1000 Ang^3
#
#
#
# Elastic Constant Matrix: (Units=GPa)
#
#
# Indices 1 2 3 4 5 6 
#
# 1 88.1562 47.8894 51.3111 0.0000 0.0000 8.6483
# 2 47.8894 88.1562 51.3111 0.0000 0.0000 -8.6483
# 3 51.3111 51.3111 100.7658 0.0000 0.0000 0.0000
# 4 0.0000 0.0000 0.0000 43.7912 0.0000 0.0000
# 5 0.0000 0.0000 0.0000 0.0000 43.7912 0.0000
# 6 8.6483 -8.6483 0.0000 0.0000 0.0000 23.1459
#
#
#
# Elastic Compliance Matrix: (Units=1/GPa)
#
#
# Indices 1 2 3 4 5 6 
#
# 1 0.020758 -0.008824 -0.006077 0.000000 0.000000 -0.011053
# 2 -0.008824 0.020758 -0.006077 0.000000 0.000000 0.011053
# 3 -0.006077 -0.006077 0.016113 0.000000 0.000000 0.000000
# 4 0.000000 0.000000 0.000000 0.022836 0.000000 0.000000
# 5 0.000000 0.000000 0.000000 0.000000 0.022836 0.000000
# 6 -0.011053 0.011053 0.000000 0.000000 0.000000 0.051464
#
#
# Mechanical properties :
#
#
# Convention : Reuss Voigt Hill
#
# Bulk Modulus (GPa) = 63.80190 64.23348 64.01769
# Shear Modulus (GPa) = 24.75901 30.58343 27.67122
#
# Velocity S-wave (km/s) = 3.29263 3.65948 3.48089
# Velocity P-wave (km/s) = 6.51097 6.78102 6.64736
#
# Compressibility (1/GPa) = 0.01567351
#
# Stress axis : x y z
#
# Youngs Moduli (GPa) = 48.17308 48.17308 62.06072
#
# Poissons Ratio (x) = 0.42507 0.37716
# Poissons Ratio (y) = 0.42507 0.37716
# Poissons Ratio (z) = 0.29276 0.29276
#
# Static dielectric constant tensor:
#      x y z
#    x 1.977090 0.000000 0.000000 
#    y 0.000000 1.977090 0.000000 
#    z 0.000000 0.000000 1.459420 
# 
# From -- ./inp_files/4374.got.cif
#   From: 2010.05.17/outbox.cif.g08.bks.cpg/sg88_3_cif.got.tgz:4374.got - 2010.06.03 19:11:41.
