data_PCOD9546768
_publ_section_title
;
Structure prediction by ZEFSAII (Michael W. Deem and Ramdas Pophale) SiO2 
 PCOD9546768
Probable space group: I 41/A
;
_chemical_formula_sum "Si O2"
_cell_formula_units_Z 96
_cell_length_a 15.720667
_cell_length_b 15.720667
_cell_length_c 18.271761
_cell_angle_alpha 90.000000
_cell_angle_beta 90.000000
_cell_angle_gamma 90.000000
_cell_volume 4515.671519
_symmetry_space_group_name_H-M "I 41/A"
_symmetry_group_IT_number 88
_space_group.IT_coordinate_system_code '2'
_symmetry_cell_setting 'tetragonal'
loop_
_space_group_symop_operation_xyz
x,y,z
3/4-y,1/4+x,1/4+z
-x,1/2-y,z
1/4+y,1/4-x,1/4+z
-x,-y,-z
1/4+y,3/4-x,3/4-z
x,1/2+y,-z
3/4-y,3/4+x,3/4-z
1/2+x,1/2+y,1/2+z
1/4-y,3/4+x,3/4+z
1/2-x,-y,1/2+z
3/4+y,3/4-x,3/4+z
1/2-x,1/2-y,1/2-z
3/4+y,1/4-x,1/4-z
1/2+x,y,1/2-z
1/4-y,1/4+x,1/4-z
loop_
_atom_site_type_symbol
_atom_site_label
_atom_site_fract_x
_atom_site_fract_y
_atom_site_fract_z
Si Si1 0.446608 0.018011 0.924626
Si Si2 0.109833 0.536747 0.326057
Si Si3 0.666922 0.511703 0.338770
Si Si4 0.360496 0.568381 0.386755
Si Si5 0.495312 0.431353 0.374665
Si Si6 0.425330 0.299223 0.256586
O O1 0.515880 0.028362 0.859866
O O2 0.380401 0.097032 0.914162
O O3 0.380837 0.939005 0.917456
O O4 0.500000 0.000000 0.000000
O O5 0.160553 0.459334 0.366867
O O6 0.123197 0.527221 0.239265
O O7 0.748602 0.452380 0.329869
O O8 0.592945 0.461105 0.380232
O O9 0.438090 0.512564 0.356492
O O10 0.393685 0.625095 0.451793
O O11 0.471645 0.357838 0.317283
O O12 0.483034 0.388254 0.453944
O O13 0.500000 0.250000 0.215984
#
# Coordination Sequence:
#
# PCOD9546768 Si02
#       6
#    16  16  16  16  16  16
#     4  11  25  47  72 105 143 186 242 298 359 426
#     4  11  24  46  73 101 142 186 238 299 353 429
#     4  11  23  42  70 101 138 185 235 287 360 428
#     4  11  26  40  70 100 139 184 236 288 356 428
#     4  12  22  41  65  99 139 182 226 287 355 425
#     4  12  22  41  63  96 139 177 225 286 349 419
#
# _framework density 21.259297
#
# number of rings (size 3 to 8) (size 9 to 14) (size 15 to 20)
#    0.000    0.667    5.000    2.500    2.333    4.333 
#    0.000    0.000    0.000    0.000    0.000    0.000 
#    0.000    0.000    0.000    0.000    0.000    0.000 
#
# Total GULP energy -267820.313613 kJ/mol
# GULP energy per Si atom -5579.589867 kJ/mol
# Density = 2.121091 g / cm^3
# Si number density = 21.259297 Si / 1000 Ang^3
#
#
#
# Elastic Constant Matrix: (Units=GPa)
#
#
# Indices 1 2 3 4 5 6 
#
# 1 131.4543 -2.0605 7.7814 0.0000 0.0000 -8.9478
# 2 -2.0605 131.4543 7.7815 0.0000 0.0000 8.9478
# 3 7.7814 7.7815 46.4820 0.0000 0.0000 0.0000
# 4 0.0000 0.0000 0.0000 35.8447 0.0000 0.0000
# 5 0.0000 0.0000 0.0000 0.0000 35.8447 0.0000
# 6 -8.9478 8.9478 0.0000 0.0000 0.0000 23.9652
#
#
#
# Elastic Compliance Matrix: (Units=1/GPa)
#
#
# Indices 1 2 3 4 5 6 
#
# 1 0.007886 0.000001 -0.001320 0.000000 0.000000 0.002944
# 2 0.000001 0.007886 -0.001320 0.000000 0.000000 -0.002944
# 3 -0.001320 -0.001320 0.021956 0.000000 0.000000 0.000000
# 4 0.000000 0.000000 0.000000 0.027898 0.000000 0.000000
# 5 0.000000 0.000000 0.000000 0.000000 0.027898 0.000000
# 6 0.002944 -0.002944 0.000000 0.000000 0.000000 0.043925
#
#
# Mechanical properties :
#
#
# Convention : Reuss Voigt Hill
#
# Bulk Modulus (GPa) = 30.81797 37.37727 34.09762
# Shear Modulus (GPa) = 32.56400 38.85680 35.71040
#
# Velocity S-wave (km/s) = 3.91801 4.27986 4.10293
# Velocity P-wave (km/s) = 5.91569 6.48404 6.20637
#
# Compressibility (1/GPa) = 0.03244860
#
# Stress axis : x y z
#
# Youngs Moduli (GPa) = 126.81082 126.81083 45.54611
#
# Poissons Ratio (x) = -0.00018 0.06014
# Poissons Ratio (y) = -0.00018 0.06014
# Poissons Ratio (z) = 0.16744 0.16744
#
# Static dielectric constant tensor:
#      x y z
#    x 1.742450 0.000000 0.000000 
#    y 0.000000 1.742450 0.000000 
#    z 0.000000 0.000000 1.797510 
# 
# From -- ./inp_files/4681.got.cif
#   From: 2010.05.17/outbox.cif.g08.bks.cpg/sg88_3_cif.got.tgz:4681.got - 2010.06.03 19:11:41.
