data_PCOD9546709
_publ_section_title
;
Structure prediction by ZEFSAII (Michael W. Deem and Ramdas Pophale) SiO2 
 PCOD9546709
Probable space group: I 41/A
;
_chemical_formula_sum "Si O2"
_cell_formula_units_Z 112
_cell_length_a 16.035124
_cell_length_b 16.035124
_cell_length_c 21.138187
_cell_angle_alpha 90.000000
_cell_angle_beta 90.000000
_cell_angle_gamma 90.000000
_cell_volume 5435.160596
_symmetry_space_group_name_H-M "I 41/A"
_symmetry_group_IT_number 88
_space_group.IT_coordinate_system_code '2'
_symmetry_cell_setting 'tetragonal'
loop_
_space_group_symop_operation_xyz
x,y,z
3/4-y,1/4+x,1/4+z
-x,1/2-y,z
1/4+y,1/4-x,1/4+z
-x,-y,-z
1/4+y,3/4-x,3/4-z
x,1/2+y,-z
3/4-y,3/4+x,3/4-z
1/2+x,1/2+y,1/2+z
1/4-y,3/4+x,3/4+z
1/2-x,-y,1/2+z
3/4+y,3/4-x,3/4+z
1/2-x,1/2-y,1/2-z
3/4+y,1/4-x,1/4-z
1/2+x,y,1/2-z
1/4-y,1/4+x,1/4-z
loop_
_atom_site_type_symbol
_atom_site_label
_atom_site_fract_x
_atom_site_fract_y
_atom_site_fract_z
Si Si1 0.322313 0.520251 0.451898
Si Si2 0.384872 0.074178 0.754611
Si Si3 0.217215 0.654014 0.275796
Si Si4 0.279269 0.456123 0.585164
Si Si5 0.939311 0.624796 0.123400
Si Si6 0.137492 0.236444 0.615523
Si Si7 0.375058 0.810663 0.352098
O O1 0.256304 0.593710 0.465375
O O2 0.329434 0.476083 0.520289
O O3 0.274564 0.470246 0.393635
O O4 0.407100 0.567372 0.433313
O O5 0.309421 0.141801 0.753978
O O6 0.410256 0.069689 0.682701
O O7 0.467751 0.090565 0.793816
O O8 0.203186 0.564586 0.308459
O O9 0.209250 0.718423 0.333741
O O10 0.150644 0.676919 0.221623
O O11 0.307658 0.366745 0.611015
O O12 0.891302 0.714210 0.128855
O O13 0.036125 0.645719 0.131600
O O14 0.087785 0.320972 0.621710
#
# Coordination Sequence:
#
# PCOD9546709 Si02
#       7
#    16  16  16  16  16  16  16
#     4  11  21  42  63  89 118 159 210 249 294 362
#     4  11  20  36  58  84 116 157 195 241 290 362
#     4  11  20  36  58  84 116 157 195 241 290 362
#     4  11  21  42  63  89 118 159 210 249 294 362
#     4  11  24  40  60  91 127 159 198 253 311 359
#     4  11  22  32  46  76 116 156 194 229 278 352
#     4  11  24  40  60  91 127 159 198 253 311 359
#
# _framework density 20.606566999999998
#
# number of rings (size 3 to 8) (size 9 to 14) (size 15 to 20)
#    0.000    1.000    7.143    1.714    0.000    9.714 
#    0.000    0.000    0.000    0.000    0.000    2.000 
#    0.000    0.000    0.000    0.000    0.000    0.000 
#
# Total GULP energy -312363.208629 kJ/mol
# GULP energy per Si atom -5577.914440 kJ/mol
# Density = 2.055967 g / cm^3
# Si number density = 20.606567 Si / 1000 Ang^3
#
#
#
# Elastic Constant Matrix: (Units=GPa)
#
#
# Indices 1 2 3 4 5 6 
#
# 1 53.0988 -4.5269 23.4395 0.0000 0.0000 0.7316
# 2 -4.5269 53.0988 23.4395 0.0000 0.0000 -0.7316
# 3 23.4395 23.4395 110.4631 0.0000 0.0000 0.0000
# 4 0.0000 0.0000 0.0000 28.8587 0.0000 0.0000
# 5 0.0000 0.0000 0.0000 0.0000 28.8587 0.0000
# 6 0.7316 -0.7316 0.0000 0.0000 0.0000 36.0207
#
#
#
# Elastic Compliance Matrix: (Units=1/GPa)
#
#
# Indices 1 2 3 4 5 6 
#
# 1 0.021626 0.004264 -0.005494 0.000000 0.000000 -0.000353
# 2 0.004264 0.021626 -0.005494 0.000000 0.000000 0.000353
# 3 -0.005494 -0.005494 0.011384 0.000000 0.000000 0.000000
# 4 0.000000 0.000000 0.000000 0.034652 0.000000 0.000000
# 5 0.000000 0.000000 0.000000 0.000000 0.034652 0.000000
# 6 -0.000353 0.000353 0.000000 0.000000 0.000000 0.027776
#
#
# Mechanical properties :
#
#
# Convention : Reuss Voigt Hill
#
# Bulk Modulus (GPa) = 24.27782 33.48502 28.88142
# Shear Modulus (GPa) = 27.94963 30.36818 29.15890
#
# Velocity S-wave (km/s) = 3.68686 3.84306 3.76577
# Velocity P-wave (km/s) = 5.47093 5.99809 5.74056
#
# Compressibility (1/GPa) = 0.04118986
#
# Stress axis : x y z
#
# Youngs Moduli (GPa) = 46.23998 46.23998 87.84054
#
# Poissons Ratio (x) = -0.19717 0.48257
# Poissons Ratio (y) = -0.19717 0.48257
# Poissons Ratio (z) = 0.25403 0.25403
#
# Static dielectric constant tensor:
#      x y z
#    x 1.782240 0.000000 0.000000 
#    y 0.000000 1.782240 0.000000 
#    z 0.000000 0.000000 1.794870 
# 
# From -- ./inp_files/4839.got.cif
#   From: 2010.05.17/outbox.cif.g08.bks.cpg/sg88_3_cif.got.tgz:4839.got - 2010.06.03 19:11:41.
