data_PCOD9546706
_publ_section_title
;
Structure prediction by ZEFSAII (Michael W. Deem and Ramdas Pophale) SiO2 
 PCOD9546706
Probable space group: I 41/A
;
_chemical_formula_sum "Si O2"
_cell_formula_units_Z 80
_cell_length_a 15.609237
_cell_length_b 15.609237
_cell_length_c 16.881712
_cell_angle_alpha 90.000000
_cell_angle_beta 90.000000
_cell_angle_gamma 90.000000
_cell_volume 4113.200088
_symmetry_space_group_name_H-M "I 41/A"
_symmetry_group_IT_number 88
_space_group.IT_coordinate_system_code '2'
_symmetry_cell_setting 'tetragonal'
loop_
_space_group_symop_operation_xyz
x,y,z
3/4-y,1/4+x,1/4+z
-x,1/2-y,z
1/4+y,1/4-x,1/4+z
-x,-y,-z
1/4+y,3/4-x,3/4-z
x,1/2+y,-z
3/4-y,3/4+x,3/4-z
1/2+x,1/2+y,1/2+z
1/4-y,3/4+x,3/4+z
1/2-x,-y,1/2+z
3/4+y,3/4-x,3/4+z
1/2-x,1/2-y,1/2-z
3/4+y,1/4-x,1/4-z
1/2+x,y,1/2-z
1/4-y,1/4+x,1/4-z
loop_
_atom_site_type_symbol
_atom_site_label
_atom_site_fract_x
_atom_site_fract_y
_atom_site_fract_z
Si Si1 0.133672 0.069701 0.311836
Si Si2 0.693257 0.822364 0.209436
Si Si3 0.262926 0.480109 0.787063
Si Si4 0.905333 0.784888 0.577326
Si Si5 0.544940 0.526617 0.214467
O O1 0.128124 0.165559 0.345316
O O2 0.193433 0.051607 0.236382
O O3 0.177732 0.016537 0.384600
O O4 0.037889 0.034634 0.294225
O O5 0.750000 0.750000 0.250000
O O6 0.751247 0.906489 0.220334
O O7 0.607650 0.836770 0.259137
O O8 0.673195 0.799026 0.119332
O O9 0.359919 0.513159 0.783343
O O10 0.839040 0.718675 0.538885
O O11 0.000000 0.750000 0.591380
#
# Coordination Sequence:
#
# PCOD9546706 Si02
#       5
#    16  16  16  16  16
#     4  11  22  41  56  91 129 165 205 262 311 382
#     4  11  20  33  50  86 132 158 199 244 313 382
#     4  11  21  36  60  87 129 169 203 253 320 383
#     4  11  24  33  55  88 126 164 206 255 309 378
#     4  12  21  34  59  87 124 167 198 254 314 382
#
# _framework density 19.449576
#
# number of rings (size 3 to 8) (size 9 to 14) (size 15 to 20)
#    0.000    0.800   10.000    1.200    2.800    0.000 
#    0.000    0.000    0.000    4.800    0.000    0.000 
#    0.000    0.000    0.000    0.000    0.000    0.000 
#
# Total GULP energy -222991.142360 kJ/mol
# GULP energy per Si atom -5574.778559 kJ/mol
# Density = 1.940531 g / cm^3
# Si number density = 19.449576 Si / 1000 Ang^3
#
#
#
# Elastic Constant Matrix: (Units=GPa)
#
#
# Indices 1 2 3 4 5 6 
#
# 1 71.7291 6.2165 22.8027 0.0000 0.0000 4.7448
# 2 6.2165 71.7291 22.8027 0.0000 0.0000 -4.7448
# 3 22.8027 22.8027 30.8171 0.0000 0.0000 0.0000
# 4 0.0000 0.0000 0.0000 3.1074 0.0000 0.0000
# 5 0.0000 0.0000 0.0000 0.0000 3.1074 0.0000
# 6 4.7448 -4.7448 0.0000 0.0000 0.0000 33.3614
#
#
#
# Elastic Compliance Matrix: (Units=1/GPa)
#
#
# Indices 1 2 3 4 5 6 
#
# 1 0.019105 0.003519 -0.016740 0.000000 0.000000 -0.002217
# 2 0.003519 0.019105 -0.016740 0.000000 0.000000 0.002217
# 3 -0.016740 -0.016740 0.057223 0.000000 0.000000 0.000000
# 4 0.000000 0.000000 0.000000 0.321814 0.000000 0.000000
# 5 0.000000 0.000000 0.000000 0.000000 0.321814 0.000000
# 6 -0.002217 0.002217 0.000000 0.000000 0.000000 0.030605
#
#
# Mechanical properties :
#
#
# Convention : Reuss Voigt Hill
#
# Bulk Modulus (GPa) = 28.16123 30.87988 29.52056
# Shear Modulus (GPa) = 5.94230 16.07880 11.01055
#
# Velocity S-wave (km/s) = 1.74982 2.87834 2.38188
# Velocity P-wave (km/s) = 4.31196 5.19209 4.77236
#
# Compressibility (1/GPa) = 0.03550981
#
# Stress axis : x y z
#
# Youngs Moduli (GPa) = 52.34312 52.34311 17.47549
#
# Poissons Ratio (x) = -0.18422 0.29255
# Poissons Ratio (y) = -0.18422 0.29255
# Poissons Ratio (z) = 0.87624 0.87624
#
# Static dielectric constant tensor:
#      x y z
#    x 1.727430 0.000000 0.000000 
#    y 0.000000 1.727430 0.000000 
#    z 0.000000 0.000000 1.757930 
# 
# From -- ./inp_files/4521.got.cif
#   From: 2010.05.17/outbox.cif.g08.bks.cpg/sg88_3_cif.got.tgz:4521.got - 2010.06.03 19:11:41.
