data_PCOD9546353
_publ_section_title
;
Structure prediction by ZEFSAII (Michael W. Deem and Ramdas Pophale) SiO2 
 PCOD9546353
Probable space group: I 41/A
;
_chemical_formula_sum "Si O2"
_cell_formula_units_Z 92
_cell_length_a 14.257489
_cell_length_b 14.257489
_cell_length_c 28.087052
_cell_angle_alpha 90.000000
_cell_angle_beta 90.000000
_cell_angle_gamma 90.000000
_cell_volume 5709.423374
_symmetry_space_group_name_H-M "I 41/A"
_symmetry_group_IT_number 88
_space_group.IT_coordinate_system_code '2'
_symmetry_cell_setting 'tetragonal'
loop_
_space_group_symop_operation_xyz
x,y,z
3/4-y,1/4+x,1/4+z
-x,1/2-y,z
1/4+y,1/4-x,1/4+z
-x,-y,-z
1/4+y,3/4-x,3/4-z
x,1/2+y,-z
3/4-y,3/4+x,3/4-z
1/2+x,1/2+y,1/2+z
1/4-y,3/4+x,3/4+z
1/2-x,-y,1/2+z
3/4+y,3/4-x,3/4+z
1/2-x,1/2-y,1/2-z
3/4+y,1/4-x,1/4-z
1/2+x,y,1/2-z
1/4-y,1/4+x,1/4-z
loop_
_atom_site_type_symbol
_atom_site_label
_atom_site_fract_x
_atom_site_fract_y
_atom_site_fract_z
Si Si1 0.502689 0.356721 0.202562
Si Si2 0.506062 0.562084 0.572105
Si Si3 0.000000 0.250000 0.125000
Si Si4 0.852766 0.439473 0.230602
Si Si5 0.689952 0.585524 0.515195
Si Si6 0.707604 0.761290 0.920423
Si Si7 0.000000 0.750000 0.141178
O O1 0.500000 0.250000 0.223349
O O2 0.415213 0.412536 0.223635
O O3 0.595342 0.405571 0.223155
O O4 0.498599 0.337664 0.146265
O O5 0.531773 0.663206 0.593953
O O6 0.407859 0.575694 0.545576
O O7 0.595457 0.543094 0.539350
O O8 0.492074 0.489982 0.615251
O O9 0.756384 0.490023 0.244656
O O10 0.920925 0.497186 0.195999
O O11 0.748748 0.648365 0.552419
O O12 0.595383 0.756721 0.920595
#
# Coordination Sequence:
#
# PCOD9546353 Si02
#       7
#    16  16   4  16  16  16   8
#     4   9  18  31  48  67 103 134 148 175 233 296
#     4  12  17  29  47  75 110 130 148 181 228 298
#     4  12  16  26  44  76 112 124 148 164 228 296
#     4  11  20  31  48  74 100 130 159 189 233 288
#     4  11  20  31  48  74 100 130 159 189 233 288
#     4  11  22  32  48  68  93 130 167 206 230 277
#     4  10  20  37  48  64  93 130 161 200 250 272
#
# _framework density 16.113710000000001
#
# number of rings (size 3 to 8) (size 9 to 14) (size 15 to 20)
#    0.522    0.696    5.217    3.652    0.000    0.000 
#    0.000    0.870    0.000    0.000    0.000    0.000 
#    0.000    0.000    0.000    0.000    0.000    0.000 
#
# Total GULP energy -256523.186948 kJ/mol
# GULP energy per Si atom -5576.591021 kJ/mol
# Density = 1.607703 g / cm^3
# Si number density = 16.113710 Si / 1000 Ang^3
#
#
#
# Elastic Constant Matrix: (Units=GPa)
#
#
# Indices 1 2 3 4 5 6 
#
# 1 104.7151 21.7494 33.2462 0.0000 0.0000 3.0964
# 2 21.7494 104.7151 33.2462 0.0000 0.0000 -3.0964
# 3 33.2462 33.2462 52.2312 0.0000 0.0000 0.0000
# 4 0.0000 0.0000 0.0000 -58.0721 0.0000 0.0000
# 5 0.0000 0.0000 0.0000 0.0000 -58.0721 0.0000
# 6 3.0964 -3.0964 0.0000 0.0000 0.0000 5.5920
#
#
#
# Elastic Compliance Matrix: (Units=1/GPa)
#
#
# Indices 1 2 3 4 5 6 
#
# 1 0.012229 -0.000344 -0.007565 0.000000 0.000000 -0.006962
# 2 -0.000344 0.012229 -0.007565 0.000000 0.000000 0.006962
# 3 -0.007565 -0.007565 0.028776 0.000000 0.000000 0.000000
# 4 0.000000 0.000000 0.000000 -0.017220 0.000000 0.000000
# 5 0.000000 0.000000 0.000000 0.000000 -0.017220 0.000000
# 6 -0.006962 0.006962 0.000000 0.000000 0.000000 0.186538
#
#
# Mechanical properties :
#
#
# Convention : Reuss Voigt Hill
#
# Bulk Modulus (GPa) = 44.87113 48.68277 46.77695
# Shear Modulus (GPa) = 20.51633 -10.54913 4.98360
#
# Velocity S-wave (km/s) = 3.57209 -2.56142 1.76053
# Velocity P-wave (km/s) = 6.70225 4.64002 5.76411
#
# Compressibility (1/GPa) = 0.02228605
#
# Stress axis : x y z
#
# Youngs Moduli (GPa) = 81.77393 81.77393 34.75110
#
# Poissons Ratio (x) = 0.02813 0.26289
# Poissons Ratio (y) = 0.02813 0.26289
# Poissons Ratio (z) = 0.61861 0.61861
#
# Static dielectric constant tensor:
#      x y z
#    x 1.551480 0.000000 0.000000 
#    y 0.000000 1.551480 0.000000 
#    z 0.000000 0.000000 1.569480 
# 
# From -- ./inp_files/6554.got.cif
#   From: 2010.05.17/outbox.cif.g08.bks.cpg/sg88_4_cif.got.tgz:6554.got - 2010.06.03 19:11:41.
