data_PCOD9546724
_publ_section_title
;
Structure prediction by ZEFSAII (Michael W. Deem and Ramdas Pophale) SiO2 
 PCOD9546724
Probable space group: I 41/A
;
_chemical_formula_sum "Si O2"
_cell_formula_units_Z 112
_cell_length_a 14.274717
_cell_length_b 14.274717
_cell_length_c 26.821201
_cell_angle_alpha 90.000000
_cell_angle_beta 90.000000
_cell_angle_gamma 90.000000
_cell_volume 5465.290293
_symmetry_space_group_name_H-M "I 41/A"
_symmetry_group_IT_number 88
_space_group.IT_coordinate_system_code '2'
_symmetry_cell_setting 'tetragonal'
loop_
_space_group_symop_operation_xyz
x,y,z
3/4-y,1/4+x,1/4+z
-x,1/2-y,z
1/4+y,1/4-x,1/4+z
-x,-y,-z
1/4+y,3/4-x,3/4-z
x,1/2+y,-z
3/4-y,3/4+x,3/4-z
1/2+x,1/2+y,1/2+z
1/4-y,3/4+x,3/4+z
1/2-x,-y,1/2+z
3/4+y,3/4-x,3/4+z
1/2-x,1/2-y,1/2-z
3/4+y,1/4-x,1/4-z
1/2+x,y,1/2-z
1/4-y,1/4+x,1/4-z
loop_
_atom_site_type_symbol
_atom_site_label
_atom_site_fract_x
_atom_site_fract_y
_atom_site_fract_z
Si Si1 0.588555 0.978722 0.219579
Si Si2 0.079116 0.885491 0.868894
Si Si3 0.279248 0.520115 0.556031
Si Si4 0.893267 0.289155 0.793022
Si Si5 0.393201 0.495474 0.728481
Si Si6 0.266745 0.664942 0.363844
Si Si7 0.890375 0.728328 0.314807
O O1 0.483452 0.968830 0.238711
O O2 0.625781 0.880182 0.197914
O O3 0.645599 0.010069 0.267509
O O4 0.592301 0.045006 0.171495
O O5 0.124087 0.781495 0.870374
O O6 0.133590 0.951075 0.908954
O O7 0.089446 0.927838 0.813744
O O8 0.281837 0.432612 0.518186
O O9 0.188034 0.506287 0.590858
O O10 0.875185 0.398784 0.801980
O O11 0.839311 0.223541 0.831137
O O12 0.858486 0.277834 0.736362
O O13 0.000000 0.250000 0.793212
O O14 0.171288 0.725784 0.357961
O O15 0.000000 0.750000 0.320713
#
# Coordination Sequence:
#
# PCOD9546724 Si02
#       7
#    16  16  16  16  16  16  16
#     4  12  25  40  63 100 141 173 232 282 321 419
#     4  11  27  51  77  95 130 184 235 296 362 407
#     4  12  24  46  69  99 135 178 230 285 349 410
#     4  11  21  42  66  96 143 187 220 277 347 408
#     4  12  24  44  69 104 136 179 231 287 342 408
#     4  12  25  38  66 104 138 187 227 271 341 415
#     4  11  21  38  59  93 141 186 220 260 334 407
#
# _framework density 20.492963
#
# number of rings (size 3 to 8) (size 9 to 14) (size 15 to 20)
#    0.000    0.429    7.143    2.143    6.000    0.571 
#    0.000    1.429    0.000    0.000    0.000    0.000 
#    0.000    0.000    0.000    0.000    0.000    0.000 
#
# Total GULP energy -312990.698701 kJ/mol
# GULP energy per Si atom -5589.119620 kJ/mol
# Density = 2.044632 g / cm^3
# Si number density = 20.492963 Si / 1000 Ang^3
#
#
#
# Elastic Constant Matrix: (Units=GPa)
#
#
# Indices 1 2 3 4 5 6 
#
# 1 84.2849 24.5148 27.7848 0.0000 0.0000 0.5021
# 2 24.5148 84.2849 27.7848 0.0000 0.0000 -0.5021
# 3 27.7848 27.7848 84.5837 0.0000 0.0000 0.0000
# 4 0.0000 0.0000 0.0000 15.9218 0.0000 0.0000
# 5 0.0000 0.0000 0.0000 0.0000 15.9218 0.0000
# 6 0.5021 -0.5021 0.0000 0.0000 0.0000 17.1343
#
#
#
# Elastic Compliance Matrix: (Units=1/GPa)
#
#
# Indices 1 2 3 4 5 6 
#
# 1 0.013892 -0.002847 -0.003628 0.000000 0.000000 -0.000490
# 2 -0.002847 0.013892 -0.003628 0.000000 0.000000 0.000490
# 3 -0.003628 -0.003628 0.014206 0.000000 0.000000 0.000000
# 4 0.000000 0.000000 0.000000 0.062807 0.000000 0.000000
# 5 0.000000 0.000000 0.000000 0.000000 0.062807 0.000000
# 6 -0.000490 0.000490 0.000000 0.000000 0.000000 0.058391
#
#
# Mechanical properties :
#
#
# Convention : Reuss Voigt Hill
#
# Bulk Modulus (GPa) = 45.90776 45.92473 45.91625
# Shear Modulus (GPa) = 19.72686 21.33353 20.53019
#
# Velocity S-wave (km/s) = 3.10597 3.22998 3.16858
# Velocity P-wave (km/s) = 5.94248 6.03067 5.98674
#
# Compressibility (1/GPa) = 0.02178281
#
# Stress axis : x y z
#
# Youngs Moduli (GPa) = 71.98608 71.98608 70.39257
#
# Poissons Ratio (x) = 0.20497 0.25538
# Poissons Ratio (y) = 0.20497 0.25538
# Poissons Ratio (z) = 0.26116 0.26116
#
# Static dielectric constant tensor:
#      x y z
#    x 1.803570 0.000000 0.000000 
#    y 0.000000 1.803570 0.000000 
#    z 0.000000 0.000000 1.722820 
# 
# From -- ./inp_files/5856.got.cif
#   From: 2010.05.17/outbox.cif.g08.bks.cpg/sg88_3_cif.got.tgz:5856.got - 2010.06.03 19:11:41.
