data_PCOD9546048
_publ_section_title
;
Structure prediction by ZEFSAII (Michael W. Deem and Ramdas Pophale) SiO2 
 PCOD9546048
Probable space group: I 4/M
;
_chemical_formula_sum "Si O2"
_cell_formula_units_Z 92
_cell_length_a 15.667589
_cell_length_b 15.667589
_cell_length_c 19.214580
_cell_angle_alpha 90.000000
_cell_angle_beta 90.000000
_cell_angle_gamma 90.000000
_cell_volume 4716.667227
_symmetry_space_group_name_H-M "I 4/M"
_symmetry_group_IT_number 87
_symmetry_cell_setting 'tetragonal'
loop_
_space_group_symop_operation_xyz
x,y,z
-y,x,z
-x,-y,z
y,-x,z
-x,-y,-z
y,-x,-z
x,y,-z
-y,x,-z
1/2+x,1/2+y,1/2+z
1/2-y,1/2+x,1/2+z
1/2-x,1/2-y,1/2+z
1/2+y,1/2-x,1/2+z
1/2-x,1/2-y,1/2-z
1/2+y,1/2-x,1/2-z
1/2+x,1/2+y,1/2-z
1/2-y,1/2+x,1/2-z
loop_
_atom_site_type_symbol
_atom_site_label
_atom_site_fract_x
_atom_site_fract_y
_atom_site_fract_z
Si Si1 0.500000 0.500000 0.208817
Si Si2 0.916703 0.749833 0.132904
Si Si3 0.430212 0.185911 0.833100
Si Si4 0.968375 0.404347 0.918020
Si Si5 0.560758 0.631571 0.500000
Si Si6 0.688384 0.874183 0.290454
Si Si7 0.649805 0.380723 0.768777
O O1 0.443302 0.587333 0.212595
O O2 0.916779 0.811964 0.067176
O O3 0.832020 0.695081 0.149680
O O4 0.926400 0.810268 0.200527
O O5 0.986393 0.674793 0.121006
O O6 0.404689 0.131268 0.899724
O O7 0.384487 0.139611 0.767460
O O8 0.531290 0.185476 0.820897
O O9 0.397611 0.282364 0.829771
O O10 0.000000 0.500000 0.896756
O O11 0.985539 0.394573 0.000000
O O12 0.459437 0.609256 0.500000
O O13 0.779565 0.855410 0.256533
#
# Coordination Sequence:
#
# PCOD9546048 Si02
#       7
#     4  16  16  16   8  16  16
#     4  12  24  40  64  89 125 172 204 268 322 388
#     4  11  23  42  63  93 134 166 218 264 313 400
#     4  11  21  37  63  90 127 159 211 268 324 387
#     4  11  23  40  63  93 132 170 208 258 329 396
#     4  11  28  44  65  94 134 183 217 254 318 398
#     4  11  23  39  63  96 124 167 214 272 330 380
#     4  11  25  41  64  92 126 169 219 267 326 378
#
# _framework density 19.505296999999999
#
# number of rings (size 3 to 8) (size 9 to 14) (size 15 to 20)
#    0.000    0.957    4.348    4.174    2.435    1.391 
#    0.000    0.000    0.000    0.000    0.000    0.609 
#    0.000    0.000    0.000    0.000    0.000    0.000 
#
# Total GULP energy -256331.092871 kJ/mol
# GULP energy per Si atom -5572.415062 kJ/mol
# Density = 1.946090 g / cm^3
# Si number density = 19.505297 Si / 1000 Ang^3
#
#
#
# Elastic Constant Matrix: (Units=GPa)
#
#
# Indices 1 2 3 4 5 6 
#
# 1 105.3682 2.8946 25.2033 0.0000 0.0000 -5.9157
# 2 2.8946 105.3682 25.2033 0.0000 0.0000 5.9157
# 3 25.2033 25.2033 40.5503 0.0000 0.0000 0.0000
# 4 0.0000 0.0000 0.0000 18.9856 0.0000 0.0000
# 5 0.0000 0.0000 0.0000 0.0000 18.9856 0.0000
# 6 -5.9157 5.9157 0.0000 0.0000 0.0000 37.6815
#
#
#
# Elastic Compliance Matrix: (Units=1/GPa)
#
#
# Indices 1 2 3 4 5 6 
#
# 1 0.011469 0.001530 -0.008079 0.000000 0.000000 0.001560
# 2 0.001530 0.011469 -0.008079 0.000000 0.000000 -0.001560
# 3 -0.008079 -0.008079 0.034703 0.000000 0.000000 0.000000
# 4 0.000000 0.000000 0.000000 0.052672 0.000000 0.000000
# 5 0.000000 0.000000 0.000000 0.000000 0.052672 0.000000
# 6 0.001560 -0.001560 0.000000 0.000000 0.000000 0.027028
#
#
# Mechanical properties :
#
#
# Convention : Reuss Voigt Hill
#
# Bulk Modulus (GPa) = 35.23063 39.76548 37.49805
# Shear Modulus (GPa) = 21.85996 28.32957 25.09477
#
# Velocity S-wave (km/s) = 3.35135 3.81518 3.59076
# Velocity P-wave (km/s) = 5.75123 6.31179 6.03802
#
# Compressibility (1/GPa) = 0.02838440
#
# Stress axis : x y z
#
# Youngs Moduli (GPa) = 87.19534 87.19535 28.81579
#
# Poissons Ratio (x) = -0.13339 0.23280
# Poissons Ratio (y) = -0.13339 0.23280
# Poissons Ratio (z) = 0.70444 0.70444
#
# Static dielectric constant tensor:
#      x y z
#    x 1.702200 0.000000 0.000000 
#    y 0.000000 1.702200 0.000000 
#    z 0.000000 0.000000 1.695300 
# 
# From -- ./inp_files/5338.got.cif
#   From: 2010.05.17/outbox.cif.g08.bks.cpg/sg87_3_cif.got.tgz:5338.got - 2010.06.03 19:07:00.
