data_PCOD9546497
_publ_section_title
;
Structure prediction by ZEFSAII (Michael W. Deem and Ramdas Pophale) SiO2 
 PCOD9546497
Probable space group: I 41/A
;
_chemical_formula_sum "Si O2"
_cell_formula_units_Z 104
_cell_length_a 17.393508
_cell_length_b 17.393508
_cell_length_c 14.098406
_cell_angle_alpha 90.000000
_cell_angle_beta 90.000000
_cell_angle_gamma 90.000000
_cell_volume 4265.248860
_symmetry_space_group_name_H-M "I 41/A"
_symmetry_group_IT_number 88
_space_group.IT_coordinate_system_code '2'
_symmetry_cell_setting 'tetragonal'
loop_
_space_group_symop_operation_xyz
x,y,z
3/4-y,1/4+x,1/4+z
-x,1/2-y,z
1/4+y,1/4-x,1/4+z
-x,-y,-z
1/4+y,3/4-x,3/4-z
x,1/2+y,-z
3/4-y,3/4+x,3/4-z
1/2+x,1/2+y,1/2+z
1/4-y,3/4+x,3/4+z
1/2-x,-y,1/2+z
3/4+y,3/4-x,3/4+z
1/2-x,1/2-y,1/2-z
3/4+y,1/4-x,1/4-z
1/2+x,y,1/2-z
1/4-y,1/4+x,1/4-z
loop_
_atom_site_type_symbol
_atom_site_label
_atom_site_fract_x
_atom_site_fract_y
_atom_site_fract_z
Si Si1 0.672936 0.649589 0.376056
Si Si2 0.943128 0.972795 0.588677
Si Si3 0.500000 0.750000 0.625000
Si Si4 0.501674 0.512395 0.612568
Si Si5 0.000000 0.250000 0.625000
Si Si6 0.463770 0.380205 0.754519
Si Si7 0.617436 0.128848 0.427604
Si Si8 0.353609 0.918323 0.073300
O O1 0.691362 0.738706 0.405353
O O2 0.502165 0.561102 0.320215
O O3 0.604194 0.661389 0.302085
O O4 0.644120 0.605805 0.468527
O O5 0.889934 0.036564 0.641847
O O6 0.886530 0.914066 0.534088
O O7 0.080861 0.085143 0.655217
O O8 0.560334 0.797318 0.687056
O O9 0.500000 0.500000 0.500000
O O10 0.426191 0.563416 0.632825
O O11 0.579901 0.560274 0.631156
O O12 0.070058 0.230809 0.556013
O O13 0.262021 0.405834 0.670137
O O14 0.500000 0.000000 0.000000
#
# Coordination Sequence:
#
# PCOD9546497 Si02
#       8
#    16  16   4  16   4  16  16  16
#     4  11  22  42  73 103 143 199 248 319 388 449
#     4  10  22  40  72 101 142 199 249 309 386 469
#     4   8  20  38  64  96 136 182 228 316 362 424
#     4  11  23  44  79 111 148 202 255 317 385 462
#     4  12  32  46  76 120 162 208 260 320 406 480
#     4  12  24  46  77 106 157 202 255 322 390 466
#     4  10  21  41  74 106 147 189 253 316 375 450
#     4  11  21  41  70  98 146 193 249 308 388 452
#
# _framework density 24.383102999999998
#
# number of rings (size 3 to 8) (size 9 to 14) (size 15 to 20)
#    0.000    1.231    6.154    0.923    2.154    0.615 
#    2.769    0.000   30.462    1.846    0.000    0.000 
#    0.000    0.000    0.000    0.000    0.000    0.000 
#
# Total GULP energy -290098.367329 kJ/mol
# GULP energy per Si atom -5578.814756 kJ/mol
# Density = 2.432761 g / cm^3
# Si number density = 24.383103 Si / 1000 Ang^3
#
#
#
# Elastic Constant Matrix: (Units=GPa)
#
#
# Indices 1 2 3 4 5 6 
#
# 1 120.9586 60.9621 47.3372 0.0000 0.0000 -3.3695
# 2 60.9621 120.9586 47.3372 0.0000 0.0000 3.3695
# 3 47.3372 47.3372 97.2495 0.0000 0.0000 0.0000
# 4 0.0000 0.0000 0.0000 48.6441 0.0000 0.0000
# 5 0.0000 0.0000 0.0000 0.0000 48.6441 0.0000
# 6 -3.3695 3.3695 0.0000 0.0000 0.0000 33.9650
#
#
#
# Elastic Compliance Matrix: (Units=1/GPa)
#
#
# Indices 1 2 3 4 5 6 
#
# 1 0.012109 -0.004747 -0.003583 0.000000 0.000000 0.001672
# 2 -0.004747 0.012109 -0.003583 0.000000 0.000000 -0.001672
# 3 -0.003583 -0.003583 0.013771 0.000000 0.000000 0.000000
# 4 0.000000 0.000000 0.000000 0.020557 0.000000 0.000000
# 5 0.000000 0.000000 0.000000 0.000000 0.020557 0.000000
# 6 0.001672 -0.001672 0.000000 0.000000 0.000000 0.029774
#
#
# Mechanical properties :
#
#
# Convention : Reuss Voigt Hill
#
# Bulk Modulus (GPa) = 70.61536 72.27109 71.44322
# Shear Modulus (GPa) = 36.38344 38.48599 37.43471
#
# Velocity S-wave (km/s) = 3.86704 3.97720 3.92251
# Velocity P-wave (km/s) = 6.99730 7.12706 7.06248
#
# Compressibility (1/GPa) = 0.01416123
#
# Stress axis : x y z
#
# Youngs Moduli (GPa) = 82.58587 82.58587 72.61441
#
# Poissons Ratio (x) = 0.39202 0.26021
# Poissons Ratio (y) = 0.39202 0.26021
# Poissons Ratio (z) = 0.29594 0.29594
#
# Static dielectric constant tensor:
#      x y z
#    x 2.097560 0.000000 0.000000 
#    y 0.000000 2.097560 0.000000 
#    z 0.000000 0.000000 1.947070 
# 
# From -- ./inp_files/3992.got.cif
#   From: 2010.05.17/outbox.cif.g08.bks.cpg/sg88_2_cif.got.tgz:3992.got - 2010.06.03 19:11:41.
