data_PCOD9546079
_publ_section_title
;
Structure prediction by ZEFSAII (Michael W. Deem and Ramdas Pophale) SiO2 
 PCOD9546079
Probable space group: I 4/M
;
_chemical_formula_sum "Si O2"
_cell_formula_units_Z 80
_cell_length_a 10.584125
_cell_length_b 10.584125
_cell_length_c 32.165107
_cell_angle_alpha 90.000000
_cell_angle_beta 90.000000
_cell_angle_gamma 90.000000
_cell_volume 3603.254362
_symmetry_space_group_name_H-M "I 4/M"
_symmetry_group_IT_number 87
_symmetry_cell_setting 'tetragonal'
loop_
_space_group_symop_operation_xyz
x,y,z
-y,x,z
-x,-y,z
y,-x,z
-x,-y,-z
y,-x,-z
x,y,-z
-y,x,-z
1/2+x,1/2+y,1/2+z
1/2-y,1/2+x,1/2+z
1/2-x,1/2-y,1/2+z
1/2+y,1/2-x,1/2+z
1/2-x,1/2-y,1/2-z
1/2+y,1/2-x,1/2-z
1/2+x,1/2+y,1/2-z
1/2-y,1/2+x,1/2-z
loop_
_atom_site_type_symbol
_atom_site_label
_atom_site_fract_x
_atom_site_fract_y
_atom_site_fract_z
Si Si1 0.697537 0.557713 0.909039
Si Si2 0.937138 0.196686 0.907471
Si Si3 0.300735 0.053847 0.500000
Si Si4 0.290850 0.058507 0.000000
Si Si5 0.841855 0.366465 0.763692
Si Si6 0.373158 0.940243 0.352927
O O1 0.583437 0.648804 0.899999
O O2 0.727931 0.574669 0.957311
O O3 0.815130 0.557298 0.878932
O O4 0.902053 0.325591 0.884462
O O5 0.079298 0.153369 0.897066
O O6 0.925747 0.216439 0.957261
O O7 0.420765 0.145211 0.500000
O O8 0.346539 0.909210 0.500000
O O9 0.750000 0.250000 0.750000
O O10 0.828658 0.508123 0.742815
O O11 0.805712 0.389287 0.812118
O O12 0.500000 0.000000 0.335213
#
# Coordination Sequence:
#
# PCOD9546079 Si02
#       6
#    16  16   8   8  16  16
#     4  11  26  42  65 100 136 179 229 285 338 404
#     4  11  26  42  65 100 136 179 229 285 338 404
#     4  11  22  39  62  93 131 182 232 277 341 401
#     4  11  22  39  62  93 131 182 232 277 341 401
#     4  11  27  52  78 112 149 192 237 300 374 451
#     4  12  26  44  77 100 140 176 229 279 350 416
#
# _framework density 22.20215
#
# number of rings (size 3 to 8) (size 9 to 14) (size 15 to 20)
#    0.000    0.800    4.000    2.400   11.200    3.600 
#    0.000    0.000    0.000    0.000    0.000    0.000 
#    0.000    0.000    0.000    0.000    0.000    0.000 
#
# Total GULP energy -223557.988938 kJ/mol
# GULP energy per Si atom -5588.949723 kJ/mol
# Density = 2.215162 g / cm^3
# Si number density = 22.202150 Si / 1000 Ang^3
#
#
#
# Elastic Constant Matrix: (Units=GPa)
#
#
# Indices 1 2 3 4 5 6 
#
# 1 81.8987 42.0814 7.4623 0.0000 0.0000 -11.9366
# 2 42.0814 81.8987 7.4623 0.0000 0.0000 11.9366
# 3 7.4623 7.4623 111.8262 0.0000 0.0000 0.0000
# 4 0.0000 0.0000 0.0000 9.5402 0.0000 0.0000
# 5 0.0000 0.0000 0.0000 0.0000 9.5402 0.0000
# 6 -11.9366 11.9366 0.0000 0.0000 0.0000 74.0736
#
#
#
# Elastic Compliance Matrix: (Units=1/GPa)
#
#
# Indices 1 2 3 4 5 6 
#
# 1 0.017966 -0.009835 -0.000543 0.000000 0.000000 0.004480
# 2 -0.009835 0.017966 -0.000543 0.000000 0.000000 -0.004480
# 3 -0.000543 -0.000543 0.009015 0.000000 0.000000 0.000000
# 4 0.000000 0.000000 0.000000 0.104820 0.000000 0.000000
# 5 0.000000 0.000000 0.000000 0.000000 0.104820 0.000000
# 6 0.004480 -0.004480 0.000000 0.000000 0.000000 0.014944
#
#
# Mechanical properties :
#
#
# Convention : Reuss Voigt Hill
#
# Bulk Modulus (GPa) = 43.27747 43.29286 43.28517
# Shear Modulus (GPa) = 16.71832 33.20528 24.96180
#
# Velocity S-wave (km/s) = 2.74707 3.87148 3.35669
# Velocity P-wave (km/s) = 5.44028 6.28699 5.87890
#
# Compressibility (1/GPa) = 0.02310671
#
# Stress axis : x y z
#
# Youngs Moduli (GPa) = 55.66093 55.66093 110.92788
#
# Poissons Ratio (x) = 0.54741 0.06019
# Poissons Ratio (y) = 0.54741 0.06019
# Poissons Ratio (z) = 0.03020 0.03020
#
# Static dielectric constant tensor:
#      x y z
#    x 1.856600 0.000000 0.000000 
#    y 0.000000 1.856600 0.000000 
#    z 0.000000 0.000000 1.798400 
# 
# From -- ./inp_files/6547.got.cif
#   From: 2010.05.17/outbox.cif.g08.bks.cpg/sg87_4_cif.got.tgz:6547.got - 2010.06.03 19:07:00.
