data_PCOD9546940
_publ_section_title
;
Structure prediction by ZEFSAII (Michael W. Deem and Ramdas Pophale) SiO2 
 PCOD9546940
Probable space group: P 4 2 2
;
_chemical_formula_sum "Si O2"
_cell_formula_units_Z 32
_cell_length_a 10.953527
_cell_length_b 10.953527
_cell_length_c 12.354257
_cell_angle_alpha 90.000000
_cell_angle_beta 90.000000
_cell_angle_gamma 90.000000
_cell_volume 1482.260712
_symmetry_space_group_name_H-M "P 4 2 2"
_symmetry_group_IT_number 89
_symmetry_cell_setting 'tetragonal'
loop_
_space_group_symop_operation_xyz
x,y,z
-y,x,z
-x,-y,z
y,-x,z
x,-y,-z
-x,y,-z
y,x,-z
-y,-x,-z
loop_
_atom_site_type_symbol
_atom_site_label
_atom_site_fract_x
_atom_site_fract_y
_atom_site_fract_z
Si Si1 0.138264 0.498752 0.316071
Si Si2 0.596898 0.872438 0.070668
Si Si3 0.882954 0.839081 0.833299
Si Si4 0.246607 0.764297 0.623643
O O1 0.121813 0.533883 0.189249
O O2 0.199045 0.367848 0.336827
O O3 0.218312 0.607513 0.366629
O O4 0.000000 0.500000 0.361532
O O5 0.729900 0.823861 0.100031
O O6 0.500000 0.798341 0.000000
O O7 0.613271 0.000000 0.000000
O O8 0.860426 0.810679 0.707592
O O9 0.026727 0.836153 0.857175
O O10 0.212530 0.787471 0.500000
#
# Coordination Sequence:
#
# PCOD9546940 Si02
#       4
#     8   8   8   8
#     4  11  23  44  67 100 141 178 246 301 364 457
#     4  10  20  39  65  88 125 181 226 277 359 416
#     4  10  23  40  61 100 142 174 232 295 358 449
#     4  11  24  41  69  99 135 189 241 300 369 436
#
# _framework density 21.588643000000001
#
# number of rings (size 3 to 8) (size 9 to 14) (size 15 to 20)
#    0.000    1.500    2.500    3.750    0.000    6.500 
#    4.500    3.750    0.000    0.000    0.000    1.750 
#    0.000    0.000    0.000    0.000    0.000    0.000 
#
# Total GULP energy -178538.932949 kJ/mol
# GULP energy per Si atom -5579.341655 kJ/mol
# Density = 2.153951 g / cm^3
# Si number density = 21.588643 Si / 1000 Ang^3
#
#
#
# Elastic Constant Matrix: (Units=GPa)
#
#
# Indices 1 2 3 4 5 6 
#
# 1 105.1350 67.9582 35.9904 0.0000 0.0000 0.0000
# 2 67.9582 105.1345 35.9900 0.0000 0.0000 0.0000
# 3 35.9904 35.9900 148.3126 0.0000 0.0000 0.0000
# 4 0.0000 0.0000 0.0000 12.3085 0.0000 0.0000
# 5 0.0000 0.0000 0.0000 0.0000 12.3092 0.0000
# 6 0.0000 0.0000 0.0000 0.0000 0.0000 24.7965
#
#
#
# Elastic Compliance Matrix: (Units=1/GPa)
#
#
# Indices 1 2 3 4 5 6 
#
# 1 0.016662 -0.010237 -0.001559 0.000000 0.000000 0.000000
# 2 -0.010237 0.016662 -0.001559 0.000000 0.000000 0.000000
# 3 -0.001559 -0.001559 0.007499 0.000000 0.000000 0.000000
# 4 0.000000 0.000000 0.000000 0.081245 0.000000 0.000000
# 5 0.000000 0.000000 0.000000 0.000000 0.081240 0.000000
# 6 0.000000 0.000000 0.000000 0.000000 0.000000 0.040328
#
#
# Mechanical properties :
#
#
# Convention : Reuss Voigt Hill
#
# Bulk Modulus (GPa) = 70.85419 70.93991 70.89705
# Shear Modulus (GPa) = 18.17842 24.45907 21.31874
#
# Velocity S-wave (km/s) = 2.90493 3.36960 3.14586
# Velocity P-wave (km/s) = 6.64401 6.93326 6.79018
#
# Compressibility (1/GPa) = 0.01411349
#
# Stress axis : x y z
#
# Youngs Moduli (GPa) = 60.01627 60.01607 133.34617
#
# Poissons Ratio (x) = 0.61436 0.20793
# Poissons Ratio (y) = 0.61436 0.20792
# Poissons Ratio (z) = 0.09358 0.09358
#
# Static dielectric constant tensor:
#      x y z
#    x 1.810930 0.000000 0.000000 
#    y 0.000000 1.810930 0.000000 
#    z 0.000000 0.000000 1.812290 
# 
# From -- ./inp_files/1560.got.cif
#   From: 2010.05.17/outbox.cif.g08.bks.cpg/sg89_1_cif.got.tgz:1560.got - 2010.06.03 19:15:31.
