data_PCOD9546851
_publ_section_title
;
Structure prediction by ZEFSAII (Michael W. Deem and Ramdas Pophale) SiO2 
 PCOD9546851
Probable space group: I 41/A
;
_chemical_formula_sum "Si O2"
_cell_formula_units_Z 60
_cell_length_a 10.580771
_cell_length_b 10.580771
_cell_length_c 24.456722
_cell_angle_alpha 90.000000
_cell_angle_beta 90.000000
_cell_angle_gamma 90.000000
_cell_volume 2737.996427
_symmetry_space_group_name_H-M "I 41/A"
_symmetry_group_IT_number 88
_space_group.IT_coordinate_system_code '2'
_symmetry_cell_setting 'tetragonal'
loop_
_space_group_symop_operation_xyz
x,y,z
3/4-y,1/4+x,1/4+z
-x,1/2-y,z
1/4+y,1/4-x,1/4+z
-x,-y,-z
1/4+y,3/4-x,3/4-z
x,1/2+y,-z
3/4-y,3/4+x,3/4-z
1/2+x,1/2+y,1/2+z
1/4-y,3/4+x,3/4+z
1/2-x,-y,1/2+z
3/4+y,3/4-x,3/4+z
1/2-x,1/2-y,1/2-z
3/4+y,1/4-x,1/4-z
1/2+x,y,1/2-z
1/4-y,1/4+x,1/4-z
loop_
_atom_site_type_symbol
_atom_site_label
_atom_site_fract_x
_atom_site_fract_y
_atom_site_fract_z
Si Si1 0.000000 0.250000 0.125000
Si Si2 0.587169 0.857356 0.215577
Si Si3 0.616802 0.498808 0.677191
Si Si4 0.500000 0.750000 0.874899
Si Si5 0.902617 0.492346 0.635146
O O1 0.117849 0.303552 0.089189
O O2 0.500000 0.750000 0.243937
O O3 0.622943 0.966037 0.258455
O O4 0.712099 0.824795 0.179451
O O5 0.487816 0.897630 0.169253
O O6 0.536848 0.381194 0.654213
O O7 0.755555 0.488418 0.650042
O O8 0.541972 0.875304 0.844747
#
# Coordination Sequence:
#
# PCOD9546851 Si02
#       5
#     4  16  16   8  16
#     4  12  28  54  68 112 164 196 254 320 380 470
#     4  12  24  45  76 108 144 190 249 319 379 444
#     4  12  27  45  78 106 151 202 253 308 392 455
#     4  12  24  45  72 103 148 199 241 306 380 450
#     4  12  25  46  71 109 146 189 251 316 368 457
#
# _framework density 21.913834999999999
#
# number of rings (size 3 to 8) (size 9 to 14) (size 15 to 20)
#    0.000    0.000    9.333    0.000    3.733    3.200 
#    0.000    4.000    0.000    0.000    0.000    0.000 
#    0.000    0.000    0.000    0.000    0.000    0.000 
#
# Total GULP energy -167313.242977 kJ/mol
# GULP energy per Si atom -5577.108099 kJ/mol
# Density = 2.186396 g / cm^3
# Si number density = 21.913835 Si / 1000 Ang^3
#
#
#
# Elastic Constant Matrix: (Units=GPa)
#
#
# Indices 1 2 3 4 5 6 
#
# 1 109.9913 24.6695 12.0337 0.0000 0.0000 -6.4466
# 2 24.6695 109.9913 12.0337 0.0000 0.0000 6.4466
# 3 12.0337 12.0337 58.0779 0.0000 0.0000 0.0000
# 4 0.0000 0.0000 0.0000 -14.0865 0.0000 0.0000
# 5 0.0000 0.0000 0.0000 0.0000 -14.0865 0.0000
# 6 -6.4466 6.4466 0.0000 0.0000 0.0000 49.1009
#
#
#
# Elastic Compliance Matrix: (Units=1/GPa)
#
#
# Indices 1 2 3 4 5 6 
#
# 1 0.009835 -0.002123 -0.001598 0.000000 0.000000 0.001570
# 2 -0.002123 0.009835 -0.001598 0.000000 0.000000 -0.001570
# 3 -0.001598 -0.001598 0.017880 0.000000 0.000000 0.000000
# 4 0.000000 0.000000 0.000000 -0.070990 0.000000 0.000000
# 5 0.000000 0.000000 0.000000 0.000000 -0.070990 0.000000
# 6 0.001570 -0.001570 0.000000 0.000000 0.000000 0.020778
#
#
# Mechanical properties :
#
#
# Convention : Reuss Voigt Hill
#
# Bulk Modulus (GPa) = 37.15774 41.72602 39.44188
# Shear Modulus (GPa) = -78.07173 19.47381 -29.29896
#
# Velocity S-wave (km/s) = -5.97528 2.98426 -3.66048
# Velocity P-wave (km/s) = 5.53284 5.56388 0.41501
#
# Compressibility (1/GPa) = 0.02691230
#
# Stress axis : x y z
#
# Youngs Moduli (GPa) = 101.68171 101.68171 55.92722
#
# Poissons Ratio (x) = 0.21587 0.08936
# Poissons Ratio (y) = 0.21587 0.08936
# Poissons Ratio (z) = 0.16247 0.16247
#
# Static dielectric constant tensor:
#      x y z
#    x 1.855340 0.000000 0.000000 
#    y 0.000000 1.855340 0.000000 
#    z 0.000000 0.000000 1.847000 
# 
# From -- ./inp_files/4458.got.cif
#   From: 2010.05.17/outbox.cif.g08.bks.cpg/sg88_3_cif.got.tgz:4458.got - 2010.06.03 19:11:41.
