data_PCOD9546881
_publ_section_title
;
Structure prediction by ZEFSAII (Michael W. Deem and Ramdas Pophale) SiO2 
 PCOD9546881
Probable space group: I 41/A
;
_chemical_formula_sum "Si O2"
_cell_formula_units_Z 60
_cell_length_a 27.000000
_cell_length_b 27.000000
_cell_length_c 9.000000
_cell_angle_alpha 90.000000
_cell_angle_beta 90.000000
_cell_angle_gamma 90.000000
_cell_volume 6561.000000
_symmetry_space_group_name_H-M "I 41/A"
_symmetry_group_IT_number 88
_space_group.IT_coordinate_system_code '2'
_symmetry_cell_setting 'tetragonal'
loop_
_space_group_symop_operation_xyz
x,y,z
3/4-y,1/4+x,1/4+z
-x,1/2-y,z
1/4+y,1/4-x,1/4+z
-x,-y,-z
1/4+y,3/4-x,3/4-z
x,1/2+y,-z
3/4-y,3/4+x,3/4-z
1/2+x,1/2+y,1/2+z
1/4-y,3/4+x,3/4+z
1/2-x,-y,1/2+z
3/4+y,3/4-x,3/4+z
1/2-x,1/2-y,1/2-z
3/4+y,1/4-x,1/4-z
1/2+x,y,1/2-z
1/4-y,1/4+x,1/4-z
loop_
_atom_site_type_symbol
_atom_site_label
_atom_site_fract_x
_atom_site_fract_y
_atom_site_fract_z
Si Si1 0.472318 0.145698 0.496129
Si Si2 0.631478 0.684258 0.071140
Si Si3 0.690928 0.589487 0.036495
Si Si4 0.631478 0.315742 0.428860
Si Si5 0.500000 0.250000 0.125000
Si Si6 0.160513 0.059072 0.213505
Si Si7 0.691397 1.000000 0.750000
Si Si8 0.895698 0.222318 0.746129
O O1 0.453792 0.122188 0.650947
O O2 0.421847 0.156646 0.404988
O O3 0.516085 0.115642 0.418543
O O4 0.496232 0.199606 0.531477
O O5 0.674234 0.643614 0.093332
O O6 0.578153 0.656646 0.095012
O O7 0.634358 0.733915 0.168543
O O8 0.750000 0.584845 1.000000
O O9 0.671241 0.546769 0.150912
O O10 0.666452 0.583548 0.875000
O O11 0.674234 0.356386 0.406668
O O12 0.627812 0.296208 0.599053
O O13 0.503768 0.199606 0.031477
O O14 0.203231 0.078759 0.099088
O O15 0.723086 0.973086 0.875000
#
# Coordination Sequence:
#
# PCOD9546881 Si02
#       8
#    16  16  16  16   8  16  16  16
#     4  10  18  34  56  85 122 160 201 249 308 359
#     4  10  21  37  59  87 126 161 205 256 304 372
#     4  12  22  42  64  91 126 159 202 268 324 357
#     4  10  21  37  59  87 126 161 205 256 304 372
#     4   8  16  30  56  86 108 150 208 274 276 346
#     4  12  22  42  64  91 126 159 202 268 324 357
#     4  12  20  38  68  94 116 142 204 268 312 364
#     4  10  18  34  56  85 122 160 201 249 308 359
#
# _framework density 9.1449470000000002
#
# number of rings (size 3 to 8) (size 9 to 14) (size 15 to 20)
#    0.000    1.600    6.667    3.200    0.000    1.067 
#    7.200    1.333    2.933    0.000    0.000    0.000 
#    0.000    0.000    0.000    0.000    0.000    0.000 
#
# Total GULP energy -334043.307834 kJ/mol
# GULP energy per Si atom -5567.388464 kJ/mol
# Density = 0.912413 g / cm^3
# Si number density = 9.144947 Si / 1000 Ang^3
#
#
#
# Elastic Constant Matrix: (Units=GPa)
#
#
# Indices 1 2 3 4 5 6 
#
# 1 63.1480 31.5099 16.9654 0.0000 0.0000 0.0000
# 2 31.5099 63.1480 16.9654 0.0000 0.0000 0.0000
# 3 16.9654 16.9654 68.7530 0.0000 0.0000 0.0000
# 4 0.0000 0.0000 0.0000 16.6252 0.0000 0.0000
# 5 0.0000 0.0000 0.0000 0.0000 16.6252 0.0000
# 6 0.0000 0.0000 0.0000 0.0000 0.0000 31.0813
#
#
#
# Elastic Compliance Matrix: (Units=1/GPa)
#
#
# Indices 1 2 3 4 5 6 
#
# 1 0.021598 -0.010009 -0.002860 0.000000 0.000000 0.000000
# 2 -0.010009 0.021598 -0.002860 0.000000 0.000000 0.000000
# 3 -0.002860 -0.002860 0.015956 0.000000 0.000000 0.000000
# 4 0.000000 0.000000 0.000000 0.060150 0.000000 0.000000
# 5 0.000000 0.000000 0.000000 0.000000 0.060150 0.000000
# 6 0.000000 0.000000 0.000000 0.000000 0.000000 0.032174
#
#
# Mechanical properties :
#
#
# Convention : Reuss Voigt Hill
#
# Bulk Modulus (GPa) = 36.10643 36.21451 36.16047
# Shear Modulus (GPa) = 19.81649 21.50690 20.66169
#
# Velocity S-wave (km/s) = 3.29518 3.43285 3.36471
# Velocity P-wave (km/s) = 5.85334 5.96287 5.90836
#
# Compressibility (1/GPa) = 0.02769590
#
# Stress axis : x y z
#
# Youngs Moduli (GPa) = 46.29964 46.29964 62.67165
#
# Poissons Ratio (x) = 0.46341 0.17923
# Poissons Ratio (y) = 0.46341 0.17923
# Poissons Ratio (z) = 0.13241 0.13241
#
# Static dielectric constant tensor:
#      x y z
#    x 1.642890 0.000000 0.000000 
#    y 0.000000 1.642890 0.000000 
#    z 0.000000 0.000000 1.691000 
# 
# From -- ./inp_files/1847.got.cif
#   From: 2010.05.17/outbox.ucp.g08.bks.cvg/sg88_1_cif.got.tgz:1847.got - 2010.06.11 10:35:41.
