data_PCOD9546475
_publ_section_title
;
Structure prediction by ZEFSAII (Michael W. Deem and Ramdas Pophale) SiO2 
 PCOD9546475
Probable space group: I 41/A
;
_chemical_formula_sum "Si O2"
_cell_formula_units_Z 116
_cell_length_a 17.773435
_cell_length_b 17.773435
_cell_length_c 17.918993
_cell_angle_alpha 90.000000
_cell_angle_beta 90.000000
_cell_angle_gamma 90.000000
_cell_volume 5660.520145
_symmetry_space_group_name_H-M "I 41/A"
_symmetry_group_IT_number 88
_space_group.IT_coordinate_system_code '2'
_symmetry_cell_setting 'tetragonal'
loop_
_space_group_symop_operation_xyz
x,y,z
3/4-y,1/4+x,1/4+z
-x,1/2-y,z
1/4+y,1/4-x,1/4+z
-x,-y,-z
1/4+y,3/4-x,3/4-z
x,1/2+y,-z
3/4-y,3/4+x,3/4-z
1/2+x,1/2+y,1/2+z
1/4-y,3/4+x,3/4+z
1/2-x,-y,1/2+z
3/4+y,3/4-x,3/4+z
1/2-x,1/2-y,1/2-z
3/4+y,1/4-x,1/4-z
1/2+x,y,1/2-z
1/4-y,1/4+x,1/4-z
loop_
_atom_site_type_symbol
_atom_site_label
_atom_site_fract_x
_atom_site_fract_y
_atom_site_fract_z
Si Si1 0.650526 0.110571 0.877478
Si Si2 0.000000 0.750000 0.875000
Si Si3 0.588699 0.945833 0.476777
Si Si4 0.845057 0.217883 0.167751
Si Si5 0.920940 0.789288 0.605202
Si Si6 0.661479 0.255188 0.956941
Si Si7 0.859668 0.436849 0.450721
Si Si8 0.782287 0.151780 0.025171
O O1 0.627719 0.197092 0.896360
O O2 0.587346 0.077792 0.823999
O O3 0.731150 0.111483 0.835711
O O4 0.645355 0.068214 0.958257
O O5 0.934236 0.715610 0.823667
O O6 0.549993 0.932812 0.557220
O O7 0.539901 0.892255 0.420768
O O8 0.669722 0.908234 0.480078
O O9 0.584148 0.034248 0.460077
O O10 0.832578 0.197547 0.082074
O O11 0.887234 0.747528 0.532433
O O12 0.923145 0.877691 0.578492
O O13 0.000000 0.750000 0.625104
O O14 0.738757 0.212146 0.975945
O O15 0.781622 0.394358 0.430392
#
# Coordination Sequence:
#
# PCOD9546475 Si02
#       8
#    16   4  16  16  16  16  16  16
#     4  10  23  43  67  96 134 174 224 272 339 394
#     4  12  24  44  64 100 136 164 224 286 320 412
#     4  11  22  42  66  94 134 180 220 275 345 399
#     4  11  23  40  66  94 129 178 222 269 337 400
#     4  10  21  39  66  96 127 175 220 268 336 404
#     4  10  23  40  67  97 132 172 223 278 327 402
#     4  10  22  44  67  93 133 183 216 273 343 397
#     4  10  21  44  66  89 137 174 219 273 335 400
#
# _framework density 20.492816999999999
#
# number of rings (size 3 to 8) (size 9 to 14) (size 15 to 20)
#    0.000    1.931    4.138    1.655    4.828    0.552 
#    7.448    0.000    0.000    0.000    0.000    0.000 
#    0.000    0.000    0.000    0.000    0.000    0.000 
#
# Total GULP energy -323030.773203 kJ/mol
# GULP energy per Si atom -5569.496090 kJ/mol
# Density = 2.044617 g / cm^3
# Si number density = 20.492817 Si / 1000 Ang^3
#
#
#
# Elastic Constant Matrix: (Units=GPa)
#
#
# Indices 1 2 3 4 5 6 
#
# 1 131.4324 40.3004 38.0390 0.0000 0.0000 5.9082
# 2 40.3004 131.4324 38.0390 0.0000 0.0000 -5.9082
# 3 38.0390 38.0390 60.0952 0.0000 0.0000 0.0000
# 4 0.0000 0.0000 0.0000 18.1262 0.0000 0.0000
# 5 0.0000 0.0000 0.0000 0.0000 18.1262 0.0000
# 6 5.9082 -5.9082 0.0000 0.0000 0.0000 26.9986
#
#
#
# Elastic Compliance Matrix: (Units=1/GPa)
#
#
# Indices 1 2 3 4 5 6 
#
# 1 0.009693 -0.001601 -0.005122 0.000000 0.000000 -0.002471
# 2 -0.001601 0.009693 -0.005122 0.000000 0.000000 0.002471
# 3 -0.005122 -0.005122 0.023125 0.000000 0.000000 0.000000
# 4 0.000000 0.000000 0.000000 0.055169 0.000000 0.000000
# 5 0.000000 0.000000 0.000000 0.000000 0.055169 0.000000
# 6 -0.002471 0.002471 0.000000 0.000000 0.000000 0.038121
#
#
# Mechanical properties :
#
#
# Convention : Reuss Voigt Hill
#
# Bulk Modulus (GPa) = 53.13395 61.74630 57.44013
# Shear Modulus (GPa) = 22.63142 26.42232 24.52687
#
# Velocity S-wave (km/s) = 3.32679 3.59464 3.46331
# Velocity P-wave (km/s) = 6.38288 6.88656 6.63950
#
# Compressibility (1/GPa) = 0.01882036
#
# Stress axis : x y z
#
# Youngs Moduli (GPa) = 103.16912 103.16912 43.24387
#
# Poissons Ratio (x) = 0.16514 0.22150
# Poissons Ratio (y) = 0.16514 0.22150
# Poissons Ratio (z) = 0.52845 0.52845
#
# Static dielectric constant tensor:
#      x y z
#    x 1.749840 0.000000 0.000000 
#    y 0.000000 1.749840 0.000000 
#    z 0.000000 0.000000 1.823440 
# 
# From -- ./inp_files/4036.got.cif
#   From: 2010.05.17/outbox.cif.g08.bks.cpg/sg88_3_cif.got.tgz:4036.got - 2010.06.03 19:11:41.
