data_PCOD9546830
_publ_section_title
;
Structure prediction by ZEFSAII (Michael W. Deem and Ramdas Pophale) SiO2 
 PCOD9546830
Probable space group: I 41/A
;
_chemical_formula_sum "Si O2"
_cell_formula_units_Z 48
_cell_length_a 14.630414
_cell_length_b 14.630414
_cell_length_c 8.583449
_cell_angle_alpha 90.000000
_cell_angle_beta 90.000000
_cell_angle_gamma 90.000000
_cell_volume 1837.278794
_symmetry_space_group_name_H-M "I 41/A"
_symmetry_group_IT_number 88
_space_group.IT_coordinate_system_code '2'
_symmetry_cell_setting 'tetragonal'
loop_
_space_group_symop_operation_xyz
x,y,z
3/4-y,1/4+x,1/4+z
-x,1/2-y,z
1/4+y,1/4-x,1/4+z
-x,-y,-z
1/4+y,3/4-x,3/4-z
x,1/2+y,-z
3/4-y,3/4+x,3/4-z
1/2+x,1/2+y,1/2+z
1/4-y,3/4+x,3/4+z
1/2-x,-y,1/2+z
3/4+y,3/4-x,3/4+z
1/2-x,1/2-y,1/2-z
3/4+y,1/4-x,1/4-z
1/2+x,y,1/2-z
1/4-y,1/4+x,1/4-z
loop_
_atom_site_type_symbol
_atom_site_label
_atom_site_fract_x
_atom_site_fract_y
_atom_site_fract_z
Si Si1 0.551796 0.073301 0.715189
Si Si2 0.063178 0.371686 0.190029
Si Si3 0.176127 0.587981 0.498408
O O1 0.596202 0.152241 0.611611
O O2 0.585273 0.078513 0.892028
O O3 0.443138 0.073466 0.698808
O O4 0.586748 0.975355 0.654090
O O5 0.108064 0.295032 0.080570
O O6 0.176955 0.511626 0.631410
#
# Coordination Sequence:
#
# PCOD9546830 Si02
#       3
#    16  16  16
#     4  12  28  52  81 122 165 224 280 340 424 488
#     4  11  28  48  80 120 163 216 277 340 410 503
#     4  12  30  53  84 123 168 220 277 353 418 499
#
# _framework density 26.125596000000002
#
# number of rings (size 3 to 8) (size 9 to 14) (size 15 to 20)
#    0.000    0.333    3.333    2.000   14.000    0.667 
#    0.000    0.000    0.000    0.000    0.000    0.000 
#    0.000    0.000    0.000    0.000    0.000    0.000 
#
# Total GULP energy -134862.174604 kJ/mol
# GULP energy per Si atom -5619.257275 kJ/mol
# Density = 2.606613 g / cm^3
# Si number density = 26.125596 Si / 1000 Ang^3
#
#
#
# Elastic Constant Matrix: (Units=GPa)
#
#
# Indices 1 2 3 4 5 6 
#
# 1 92.7209 -7.1061 27.1948 0.0000 0.0000 -1.4437
# 2 -7.1061 92.7209 27.1948 0.0000 0.0000 1.4437
# 3 27.1948 27.1948 92.8024 0.0000 0.0000 0.0000
# 4 0.0000 0.0000 0.0000 57.3398 0.0000 0.0000
# 5 0.0000 0.0000 0.0000 0.0000 57.3398 0.0000
# 6 -1.4437 1.4437 0.0000 0.0000 0.0000 19.4685
#
#
#
# Elastic Compliance Matrix: (Units=1/GPa)
#
#
# Indices 1 2 3 4 5 6 
#
# 1 0.012195 0.002157 -0.004206 0.000000 0.000000 0.000744
# 2 0.002157 0.012195 -0.004206 0.000000 0.000000 -0.000744
# 3 -0.004206 -0.004206 0.013240 0.000000 0.000000 0.000000
# 4 0.000000 0.000000 0.000000 0.017440 0.000000 0.000000
# 5 0.000000 0.000000 0.000000 0.000000 0.017440 0.000000
# 6 0.000744 -0.000744 0.000000 0.000000 0.000000 0.051475
#
#
# Mechanical properties :
#
#
# Convention : Reuss Voigt Hill
#
# Bulk Modulus (GPa) = 39.80627 41.42348 40.61487
# Shear Modulus (GPa) = 34.51364 42.22699 38.37031
#
# Velocity S-wave (km/s) = 3.63859 4.02469 3.83650
# Velocity P-wave (km/s) = 5.73777 6.12270 5.93336
#
# Compressibility (1/GPa) = 0.02512167
#
# Stress axis : x y z
#
# Youngs Moduli (GPa) = 81.99778 81.99778 75.52596
#
# Poissons Ratio (x) = -0.17684 0.31764
# Poissons Ratio (y) = -0.17684 0.31764
# Poissons Ratio (z) = 0.34486 0.34486
#
# Static dielectric constant tensor:
#      x y z
#    x 2.008280 0.000000 0.000000 
#    y 0.000000 2.008280 0.000000 
#    z 0.000000 0.000000 2.077180 
# 
# From -- ./inp_files/2171.got.cif
#   From: 2010.05.17/outbox.cif.g08.bks.cpg/sg88_2_cif.got.tgz:2171.got - 2010.06.03 19:11:41.
