data_PCOD9546852
_publ_section_title
;
Structure prediction by ZEFSAII (Michael W. Deem and Ramdas Pophale) SiO2 
 PCOD9546852
Probable space group: I 41/A
;
_chemical_formula_sum "Si O2"
_cell_formula_units_Z 36
_cell_length_a 16.451077
_cell_length_b 16.451077
_cell_length_c 4.873339
_cell_angle_alpha 90.000000
_cell_angle_beta 90.000000
_cell_angle_gamma 90.000000
_cell_volume 1318.910401
_symmetry_space_group_name_H-M "I 41/A"
_symmetry_group_IT_number 88
_space_group.IT_coordinate_system_code '2'
_symmetry_cell_setting 'tetragonal'
loop_
_space_group_symop_operation_xyz
x,y,z
3/4-y,1/4+x,1/4+z
-x,1/2-y,z
1/4+y,1/4-x,1/4+z
-x,-y,-z
1/4+y,3/4-x,3/4-z
x,1/2+y,-z
3/4-y,3/4+x,3/4-z
1/2+x,1/2+y,1/2+z
1/4-y,3/4+x,3/4+z
1/2-x,-y,1/2+z
3/4+y,3/4-x,3/4+z
1/2-x,1/2-y,1/2-z
3/4+y,1/4-x,1/4-z
1/2+x,y,1/2-z
1/4-y,1/4+x,1/4-z
loop_
_atom_site_type_symbol
_atom_site_label
_atom_site_fract_x
_atom_site_fract_y
_atom_site_fract_z
Si Si1 0.000000 0.250000 0.625000
Si Si2 0.040763 0.082815 0.382359
Si Si3 0.304470 0.111855 0.118451
O O1 0.002952 0.331679 0.439719
O O2 0.121700 0.091635 0.569925
O O3 0.062055 0.068427 0.067278
O O4 0.000000 0.000000 0.500000
O O5 0.341257 0.037451 0.287276
#
# Coordination Sequence:
#
# PCOD9546852 Si02
#       3
#     4  16  16
#     4  12  28  50  80 114 156 214 264 330 416 490
#     4  12  27  47  73 111 156 205 267 330 399 484
#     4  12  24  45  74 108 152 206 262 327 399 476
#
# _framework density 27.295259000000001
#
# number of rings (size 3 to 8) (size 9 to 14) (size 15 to 20)
#    0.000    0.000    0.000   12.000    0.000    5.333 
#    0.000    0.000    0.000    0.000    0.000    0.000 
#    0.000    0.000    0.000    0.000    0.000    0.000 
#
# Total GULP energy -100913.064806 kJ/mol
# GULP energy per Si atom -5606.281378 kJ/mol
# Density = 2.723313 g / cm^3
# Si number density = 27.295259 Si / 1000 Ang^3
#
#
#
# Elastic Constant Matrix: (Units=GPa)
#
#
# Indices 1 2 3 4 5 6 
#
# 1 126.7631 44.5668 32.3610 0.0000 0.0000 -9.7137
# 2 44.5668 126.7631 32.3610 0.0000 0.0000 9.7137
# 3 32.3610 32.3610 166.2590 0.0000 0.0000 0.0000
# 4 0.0000 0.0000 0.0000 55.7808 0.0000 0.0000
# 5 0.0000 0.0000 0.0000 0.0000 55.7808 0.0000
# 6 -9.7137 9.7137 0.0000 0.0000 0.0000 24.8147
#
#
#
# Elastic Compliance Matrix: (Units=1/GPa)
#
#
# Indices 1 2 3 4 5 6 
#
# 1 0.009853 -0.003553 -0.001226 0.000000 0.000000 0.005248
# 2 -0.003553 0.009853 -0.001226 0.000000 0.000000 -0.005248
# 3 -0.001226 -0.001226 0.006492 0.000000 0.000000 0.000000
# 4 0.000000 0.000000 0.000000 0.017927 0.000000 0.000000
# 5 0.000000 0.000000 0.000000 0.000000 0.017927 0.000000
# 6 0.005248 -0.005248 0.000000 0.000000 0.000000 0.044407
#
#
# Mechanical properties :
#
#
# Convention : Reuss Voigt Hill
#
# Bulk Modulus (GPa) = 70.48715 70.92919 70.70817
# Shear Modulus (GPa) = 40.58423 47.97501 44.27962
#
# Velocity S-wave (km/s) = 3.86017 4.19696 4.03208
# Velocity P-wave (km/s) = 6.76372 7.03763 6.90203
#
# Compressibility (1/GPa) = 0.01418698
#
# Stress axis : x y z
#
# Youngs Moduli (GPa) = 101.49050 101.49050 154.03420
#
# Poissons Ratio (x) = 0.36062 0.18888
# Poissons Ratio (y) = 0.36062 0.18888
# Poissons Ratio (z) = 0.12445 0.12445
#
# Static dielectric constant tensor:
#      x y z
#    x 2.237710 0.000000 0.000000 
#    y 0.000000 2.237710 0.000000 
#    z 0.000000 0.000000 1.980680 
# 
# From -- ./inp_files/226.got.cif
#   From: 2010.05.17/outbox.cif.g08.bks.cpg/sg88_1_cif.got.tgz:226.got - 2010.06.03 19:11:41.
