data_PCOD9546570
_publ_section_title
;
Structure prediction by ZEFSAII (Michael W. Deem and Ramdas Pophale) SiO2 
 PCOD9546570
Probable space group: I 41/A
;
_chemical_formula_sum "Si O2"
_cell_formula_units_Z 116
_cell_length_a 17.305677
_cell_length_b 17.305677
_cell_length_c 17.523442
_cell_angle_alpha 90.000000
_cell_angle_beta 90.000000
_cell_angle_gamma 90.000000
_cell_volume 5248.033549
_symmetry_space_group_name_H-M "I 41/A"
_symmetry_group_IT_number 88
_space_group.IT_coordinate_system_code '2'
_symmetry_cell_setting 'tetragonal'
loop_
_space_group_symop_operation_xyz
x,y,z
3/4-y,1/4+x,1/4+z
-x,1/2-y,z
1/4+y,1/4-x,1/4+z
-x,-y,-z
1/4+y,3/4-x,3/4-z
x,1/2+y,-z
3/4-y,3/4+x,3/4-z
1/2+x,1/2+y,1/2+z
1/4-y,3/4+x,3/4+z
1/2-x,-y,1/2+z
3/4+y,3/4-x,3/4+z
1/2-x,1/2-y,1/2-z
3/4+y,1/4-x,1/4-z
1/2+x,y,1/2-z
1/4-y,1/4+x,1/4-z
loop_
_atom_site_type_symbol
_atom_site_label
_atom_site_fract_x
_atom_site_fract_y
_atom_site_fract_z
Si Si1 0.500000 0.750000 0.125000
Si Si2 0.704544 0.749289 0.367737
Si Si3 0.858162 0.476263 0.680083
Si Si4 0.143947 0.696359 0.295199
Si Si5 0.775905 0.354159 0.390678
Si Si6 0.945244 0.349973 0.153998
Si Si7 0.789285 0.005293 0.715659
Si Si8 0.423447 0.304016 0.175979
O O1 0.498723 0.825227 0.072018
O O2 0.717863 0.680647 0.427123
O O3 0.784303 0.793743 0.352809
O O4 0.676669 0.716058 0.287089
O O5 0.637098 0.802706 0.394708
O O6 0.884609 0.391092 0.703824
O O7 0.787666 0.499934 0.733149
O O8 0.824491 0.469993 0.594511
O O9 0.687907 0.324073 0.384271
O O10 0.790533 0.425895 0.332459
O O11 0.776051 0.391283 0.476021
O O12 0.842108 0.290879 0.368929
O O13 0.912599 0.287734 0.093589
O O14 0.911025 0.318814 0.234043
O O15 0.500000 0.250000 0.164308
#
# Coordination Sequence:
#
# PCOD9546570 Si02
#       8
#     4  16  16  16  16  16  16  16
#     4  12  24  40  68 100 136 184 246 280 368 448
#     4  11  25  44  67  94 144 185 234 298 362 425
#     4  11  21  41  65  98 141 180 235 286 360 430
#     4  11  24  43  65  98 136 189 230 298 355 437
#     4  11  24  47  76 109 143 194 248 305 377 444
#     4  11  25  51  78 105 152 193 244 316 383 439
#     4  10  22  40  71 107 141 183 239 300 360 441
#     4  12  27  51  73 107 147 197 248 308 377 445
#
# _framework density 22.103518000000001
#
# number of rings (size 3 to 8) (size 9 to 14) (size 15 to 20)
#    0.000    0.966    5.517    1.655    4.828    0.552 
#    7.448    0.000    0.000    0.000    0.000    0.000 
#    0.000    0.000    0.000    0.000    0.000    0.000 
#
# Total GULP energy -324128.659160 kJ/mol
# GULP energy per Si atom -5588.425158 kJ/mol
# Density = 2.205321 g / cm^3
# Si number density = 22.103518 Si / 1000 Ang^3
#
#
#
# Elastic Constant Matrix: (Units=GPa)
#
#
# Indices 1 2 3 4 5 6 
#
# 1 99.5344 19.6558 13.7777 0.0000 0.0000 5.9071
# 2 19.6558 99.5344 13.7777 0.0000 0.0000 -5.9071
# 3 13.7777 13.7777 67.5743 0.0000 0.0000 0.0000
# 4 0.0000 0.0000 0.0000 16.9021 0.0000 0.0000
# 5 0.0000 0.0000 0.0000 0.0000 16.9021 0.0000
# 6 5.9071 -5.9071 0.0000 0.0000 0.0000 34.5896
#
#
#
# Elastic Compliance Matrix: (Units=1/GPa)
#
#
# Indices 1 2 3 4 5 6 
#
# 1 0.010824 -0.002019 -0.001795 0.000000 0.000000 -0.002193
# 2 -0.002019 0.010824 -0.001795 0.000000 0.000000 0.002193
# 3 -0.001795 -0.001795 0.015531 0.000000 0.000000 0.000000
# 4 0.000000 0.000000 0.000000 0.059164 0.000000 0.000000
# 5 0.000000 0.000000 0.000000 0.000000 0.059164 0.000000
# 6 -0.002193 0.002193 0.000000 0.000000 0.000000 0.029660
#
#
# Mechanical properties :
#
#
# Convention : Reuss Voigt Hill
#
# Bulk Modulus (GPa) = 38.52140 40.11838 39.31989
# Shear Modulus (GPa) = 24.38549 28.30753 26.34651
#
# Velocity S-wave (km/s) = 3.32511 3.58254 3.45622
# Velocity P-wave (km/s) = 5.67515 5.94158 5.80990
#
# Compressibility (1/GPa) = 0.02595959
#
# Stress axis : x y z
#
# Youngs Moduli (GPa) = 92.38561 92.38561 64.38909
#
# Poissons Ratio (x) = 0.18655 0.11559
# Poissons Ratio (y) = 0.18655 0.11559
# Poissons Ratio (z) = 0.16585 0.16585
#
# Static dielectric constant tensor:
#      x y z
#    x 1.847690 0.000000 0.000000 
#    y 0.000000 1.847690 0.000000 
#    z 0.000000 0.000000 1.895630 
# 
# From -- ./inp_files/4010.got.cif
#   From: 2010.05.17/outbox.cif.g08.bks.cpg/sg88_3_cif.got.tgz:4010.got - 2010.06.03 19:11:41.
