data_PCOD9546713
_publ_section_title
;
Structure prediction by ZEFSAII (Michael W. Deem and Ramdas Pophale) SiO2 
 PCOD9546713
Probable space group: I 41/A
;
_chemical_formula_sum "Si O2"
_cell_formula_units_Z 96
_cell_length_a 24.027313
_cell_length_b 24.027313
_cell_length_c 7.660154
_cell_angle_alpha 90.000000
_cell_angle_beta 90.000000
_cell_angle_gamma 90.000000
_cell_volume 4422.297064
_symmetry_space_group_name_H-M "I 41/A"
_symmetry_group_IT_number 88
_space_group.IT_coordinate_system_code '2'
_symmetry_cell_setting 'tetragonal'
loop_
_space_group_symop_operation_xyz
x,y,z
3/4-y,1/4+x,1/4+z
-x,1/2-y,z
1/4+y,1/4-x,1/4+z
-x,-y,-z
1/4+y,3/4-x,3/4-z
x,1/2+y,-z
3/4-y,3/4+x,3/4-z
1/2+x,1/2+y,1/2+z
1/4-y,3/4+x,3/4+z
1/2-x,-y,1/2+z
3/4+y,3/4-x,3/4+z
1/2-x,1/2-y,1/2-z
3/4+y,1/4-x,1/4-z
1/2+x,y,1/2-z
1/4-y,1/4+x,1/4-z
loop_
_atom_site_type_symbol
_atom_site_label
_atom_site_fract_x
_atom_site_fract_y
_atom_site_fract_z
Si Si1 0.319211 0.521396 0.598286
Si Si2 0.865766 0.850864 0.927448
Si Si3 0.326258 0.361356 0.829954
Si Si4 0.522528 0.582786 0.606763
Si Si5 0.783286 0.250423 0.520836
Si Si6 0.215270 0.370355 0.673389
O O1 0.266028 0.551469 0.685696
O O2 0.367848 0.566435 0.572930
O O3 0.345517 0.481894 0.748427
O O4 0.863669 0.785404 0.893185
O O5 0.923636 0.879119 0.878500
O O6 0.851253 0.860099 0.133243
O O7 0.262877 0.384331 0.812357
O O8 0.362406 0.401967 0.949784
O O9 0.320718 0.299065 0.900267
O O10 0.523335 0.528222 0.728464
O O11 0.519831 0.559389 0.410671
O O12 0.778882 0.195110 0.636193
#
# Coordination Sequence:
#
# PCOD9546713 Si02
#       6
#    16  16  16  16  16  16
#     4  11  21  39  60  92 130 165 201 265 335 385
#     4  11  24  44  66  91 130 173 218 270 326 392
#     4  11  23  41  66  95 130 173 212 266 325 391
#     4  11  24  43  67  95 127 172 218 275 322 389
#     4  11  23  41  67  95 125 170 219 262 326 390
#     4  11  20  40  64  91 126 167 211 261 317 385
#
# _framework density 21.708175000000001
#
# number of rings (size 3 to 8) (size 9 to 14) (size 15 to 20)
#    0.000    1.000    8.333    0.500    2.333    3.000 
#    0.000    0.000    0.000    0.500    0.000    0.000 
#    0.000    0.000    0.000    0.000    0.000    0.000 
#
# Total GULP energy -268816.938051 kJ/mol
# GULP energy per Si atom -5600.352876 kJ/mol
# Density = 2.165877 g / cm^3
# Si number density = 21.708175 Si / 1000 Ang^3
#
#
#
# Elastic Constant Matrix: (Units=GPa)
#
#
# Indices 1 2 3 4 5 6 
#
# 1 116.8897 46.7086 4.2974 0.0000 0.0000 -4.7341
# 2 46.7086 116.8897 4.2974 0.0000 0.0000 4.7341
# 3 4.2974 4.2974 59.5259 0.0000 0.0000 0.0000
# 4 0.0000 0.0000 0.0000 15.9461 0.0000 0.0000
# 5 0.0000 0.0000 0.0000 0.0000 15.9461 0.0000
# 6 -4.7341 4.7341 0.0000 0.0000 0.0000 45.6105
#
#
#
# Elastic Compliance Matrix: (Units=1/GPa)
#
#
# Indices 1 2 3 4 5 6 
#
# 1 0.010293 -0.004158 -0.000443 0.000000 0.000000 0.001500
# 2 -0.004158 0.010293 -0.000443 0.000000 0.000000 -0.001500
# 3 -0.000443 -0.000443 0.016863 0.000000 0.000000 0.000000
# 4 0.000000 0.000000 0.000000 0.062711 0.000000 0.000000
# 5 0.000000 0.000000 0.000000 0.000000 0.062711 0.000000
# 6 0.001500 -0.001500 0.000000 0.000000 0.000000 0.022236
#
#
# Mechanical properties :
#
#
# Convention : Reuss Voigt Hill
#
# Bulk Modulus (GPa) = 36.54558 44.87913 40.71235
# Shear Modulus (GPa) = 24.47170 31.36732 27.91951
#
# Velocity S-wave (km/s) = 3.36118 3.80538 3.59015
# Velocity P-wave (km/s) = 5.65109 6.32666 5.99839
#
# Compressibility (1/GPa) = 0.02736309
#
# Stress axis : x y z
#
# Youngs Moduli (GPa) = 97.14869 97.14869 59.30017
#
# Poissons Ratio (x) = 0.40391 0.02627
# Poissons Ratio (y) = 0.40391 0.02627
# Poissons Ratio (z) = 0.04303 0.04303
#
# Static dielectric constant tensor:
#      x y z
#    x 1.767440 0.000000 0.000000 
#    y 0.000000 1.767440 0.000000 
#    z 0.000000 0.000000 1.863700 
# 
# From -- ./inp_files/1691.got.cif
#   From: 2010.05.17/outbox.cif.g08.bks.cpg/sg88_1_cif.got.tgz:1691.got - 2010.06.03 19:11:41.
