data_PCOD9546160
_publ_section_title
;
Structure prediction by ZEFSAII (Michael W. Deem and Ramdas Pophale) SiO2 
 PCOD9546160
Probable space group: I 4/M
;
_chemical_formula_sum "Si O2"
_cell_formula_units_Z 76
_cell_length_a 11.906119
_cell_length_b 11.906119
_cell_length_c 33.918742
_cell_angle_alpha 90.000000
_cell_angle_beta 90.000000
_cell_angle_gamma 90.000000
_cell_volume 4808.173986
_symmetry_space_group_name_H-M "I 4/M"
_symmetry_group_IT_number 87
_symmetry_cell_setting 'tetragonal'
loop_
_space_group_symop_operation_xyz
x,y,z
-y,x,z
-x,-y,z
y,-x,z
-x,-y,-z
y,-x,-z
x,y,-z
-y,x,-z
1/2+x,1/2+y,1/2+z
1/2-y,1/2+x,1/2+z
1/2-x,1/2-y,1/2+z
1/2+y,1/2-x,1/2+z
1/2-x,1/2-y,1/2-z
1/2+y,1/2-x,1/2-z
1/2+x,1/2+y,1/2-z
1/2-y,1/2+x,1/2-z
loop_
_atom_site_type_symbol
_atom_site_label
_atom_site_fract_x
_atom_site_fract_y
_atom_site_fract_z
Si Si1 0.006771 0.252743 0.204872
Si Si2 0.621959 0.208021 0.167238
Si Si3 0.000000 0.000000 0.815066
Si Si4 0.722023 0.113056 0.288554
Si Si5 0.327877 0.419768 0.000000
Si Si6 0.419206 0.673331 0.086703
O O1 0.089080 0.320024 0.175734
O O2 0.968286 0.134649 0.187329
O O3 0.073877 0.235214 0.245823
O O4 0.898202 0.327251 0.215256
O O5 0.691889 0.301705 0.191234
O O6 0.496880 0.208351 0.184692
O O7 0.617092 0.246391 0.121957
O O8 0.448137 0.357565 0.000000
O O9 0.277085 0.396084 0.042953
O O10 0.356872 0.552183 0.089965
#
# Coordination Sequence:
#
# PCOD9546160 Si02
#       6
#    16  16   4  16   8  16
#     4  12  24  42  52  72 102 145 188 225 268 307
#     4  12  22  34  56  80 105 139 179 223 263 313
#     4  12  24  40  60  68  96 137 192 225 252 316
#     4  12  24  38  54  73 105 142 181 225 269 309
#     4   7  12  24  46  70 107 144 163 193 254 329
#     4   9  16  29  47  78 111 138 168 206 260 326
#
# _framework density 15.806417
#
# number of rings (size 3 to 8) (size 9 to 14) (size 15 to 20)
#    0.000    1.158    6.316    3.789    0.000    0.421 
#    0.000    0.000    0.000    0.000    0.000    4.421 
#    0.000    0.842    0.000    0.000    0.000    0.000 
#
# Total GULP energy -211592.377927 kJ/mol
# GULP energy per Si atom -5568.220472 kJ/mol
# Density = 1.577044 g / cm^3
# Si number density = 15.806417 Si / 1000 Ang^3
#
#
#
# Elastic Constant Matrix: (Units=GPa)
#
#
# Indices 1 2 3 4 5 6 
#
# 1 55.7578 -11.5044 0.3509 0.0000 0.0000 0.0936
# 2 -11.5044 55.7578 0.3509 0.0000 0.0000 -0.0936
# 3 0.3509 0.3509 93.9696 0.0000 0.0000 0.0000
# 4 0.0000 0.0000 0.0000 14.1492 0.0000 0.0000
# 5 0.0000 0.0000 0.0000 0.0000 14.1492 0.0000
# 6 0.0936 -0.0936 0.0000 0.0000 0.0000 25.0434
#
#
#
# Elastic Compliance Matrix: (Units=1/GPa)
#
#
# Indices 1 2 3 4 5 6 
#
# 1 0.018733 0.003866 -0.000084 0.000000 0.000000 -0.000056
# 2 0.003866 0.018733 -0.000084 0.000000 0.000000 0.000056
# 3 -0.000084 -0.000084 0.010642 0.000000 0.000000 0.000000
# 4 0.000000 0.000000 0.000000 0.070675 0.000000 0.000000
# 5 0.000000 0.000000 0.000000 0.000000 0.070675 0.000000
# 6 -0.000056 0.000056 0.000000 0.000000 0.000000 0.039931
#
#
# Mechanical properties :
#
#
# Convention : Reuss Voigt Hill
#
# Bulk Modulus (GPa) = 18.01743 20.43111 19.22427
# Shear Modulus (GPa) = 20.79027 25.08755 22.93891
#
# Velocity S-wave (km/s) = 3.63065 3.98826 3.81365
# Velocity P-wave (km/s) = 5.38508 5.84484 5.61966
#
# Compressibility (1/GPa) = 0.05550181
#
# Stress axis : x y z
#
# Youngs Moduli (GPa) = 53.38196 53.38196 93.96408
#
# Poissons Ratio (x) = -0.20635 0.00793
# Poissons Ratio (y) = -0.20635 0.00793
# Poissons Ratio (z) = 0.00450 0.00450
#
# Static dielectric constant tensor:
#      x y z
#    x 1.522860 0.000000 0.000000 
#    y 0.000000 1.522860 0.000000 
#    z 0.000000 0.000000 1.545010 
# 
# From -- ./inp_files/6517.got.cif
#   From: 2010.05.17/outbox.cif.g08.bks.cpg/sg87_4_cif.got.tgz:6517.got - 2010.06.03 19:07:00.
