data_PCOD9546521
_publ_section_title
;
Structure prediction by ZEFSAII (Michael W. Deem and Ramdas Pophale) SiO2 
 PCOD9546521
Probable space group: I 41/A
;
_chemical_formula_sum "Si O2"
_cell_formula_units_Z 72
_cell_length_a 13.909030
_cell_length_b 13.909030
_cell_length_c 17.491566
_cell_angle_alpha 90.000000
_cell_angle_beta 90.000000
_cell_angle_gamma 90.000000
_cell_volume 3383.937871
_symmetry_space_group_name_H-M "I 41/A"
_symmetry_group_IT_number 88
_space_group.IT_coordinate_system_code '2'
_symmetry_cell_setting 'tetragonal'
loop_
_space_group_symop_operation_xyz
x,y,z
3/4-y,1/4+x,1/4+z
-x,1/2-y,z
1/4+y,1/4-x,1/4+z
-x,-y,-z
1/4+y,3/4-x,3/4-z
x,1/2+y,-z
3/4-y,3/4+x,3/4-z
1/2+x,1/2+y,1/2+z
1/4-y,3/4+x,3/4+z
1/2-x,-y,1/2+z
3/4+y,3/4-x,3/4+z
1/2-x,1/2-y,1/2-z
3/4+y,1/4-x,1/4-z
1/2+x,y,1/2-z
1/4-y,1/4+x,1/4-z
loop_
_atom_site_type_symbol
_atom_site_label
_atom_site_fract_x
_atom_site_fract_y
_atom_site_fract_z
Si Si1 0.924585 0.455517 0.560431
Si Si2 0.555746 0.876862 0.583866
Si Si3 0.393552 0.416892 0.638542
Si Si4 0.000000 0.750000 0.050319
Si Si5 0.508474 0.867128 0.215832
O O1 0.852542 0.533401 0.593477
O O2 0.866115 0.370580 0.520409
O O3 0.000000 0.500000 0.500000
O O4 0.978543 0.406965 0.632908
O O5 0.614473 0.806331 0.640877
O O6 0.560836 0.823136 0.502787
O O7 0.586608 0.986552 0.591285
O O8 0.433390 0.320354 0.598885
O O9 0.446712 0.419557 0.720175
O O10 0.500000 0.750000 0.222146
#
# Coordination Sequence:
#
# PCOD9546521 Si02
#       5
#    16  16  16   8  16
#     4  12  23  43  72 102 139 191 229 298 371 429
#     4   9  23  47  68  99 149 185 235 309 355 427
#     4  12  24  44  73 106 133 195 245 283 379 440
#     4  10  21  46  70  97 150 186 228 300 365 422
#     4  12  23  47  66  97 151 176 231 312 353 422
#
# _framework density 21.276986000000001
#
# number of rings (size 3 to 8) (size 9 to 14) (size 15 to 20)
#    0.000    1.111    5.556    0.667    6.222    0.000 
#   12.000    0.000    0.000    0.000    0.000    0.000 
#    0.000    0.000    0.000    0.000    0.000    0.000 
#
# Total GULP energy -201122.182747 kJ/mol
# GULP energy per Si atom -5586.727299 kJ/mol
# Density = 2.122856 g / cm^3
# Si number density = 21.276986 Si / 1000 Ang^3
#
#
#
# Elastic Constant Matrix: (Units=GPa)
#
#
# Indices 1 2 3 4 5 6 
#
# 1 112.4540 49.0804 14.5036 0.0000 0.0000 -1.1781
# 2 49.0804 112.4540 14.5036 0.0000 0.0000 1.1781
# 3 14.5036 14.5036 81.9566 0.0000 0.0000 0.0000
# 4 0.0000 0.0000 0.0000 21.2578 0.0000 0.0000
# 5 0.0000 0.0000 0.0000 0.0000 21.2578 0.0000
# 6 -1.1781 1.1781 0.0000 0.0000 0.0000 26.7363
#
#
#
# Elastic Compliance Matrix: (Units=1/GPa)
#
#
# Indices 1 2 3 4 5 6 
#
# 1 0.011100 -0.004706 -0.001131 0.000000 0.000000 0.000696
# 2 -0.004706 0.011100 -0.001131 0.000000 0.000000 -0.000696
# 3 -0.001131 -0.001131 0.012602 0.000000 0.000000 0.000000
# 4 0.000000 0.000000 0.000000 0.047042 0.000000 0.000000
# 5 0.000000 0.000000 0.000000 0.000000 0.047042 0.000000
# 6 0.000696 -0.000696 0.000000 0.000000 0.000000 0.037464
#
#
# Mechanical properties :
#
#
# Convention : Reuss Voigt Hill
#
# Bulk Modulus (GPa) = 47.93008 51.44885 49.68946
# Shear Modulus (GPa) = 26.70368 29.10218 27.90293
#
# Velocity S-wave (km/s) = 3.54651 3.70236 3.62527
# Velocity P-wave (km/s) = 6.27264 6.51994 6.39748
#
# Compressibility (1/GPa) = 0.02086372
#
# Stress axis : x y z
#
# Youngs Moduli (GPa) = 90.09353 90.09353 79.35214
#
# Poissons Ratio (x) = 0.42396 0.08979
# Poissons Ratio (y) = 0.42396 0.08979
# Poissons Ratio (z) = 0.10194 0.10194
#
# Static dielectric constant tensor:
#      x y z
#    x 1.849210 0.000000 0.000000 
#    y 0.000000 1.849210 0.000000 
#    z 0.000000 0.000000 1.812350 
# 
# From -- ./inp_files/3818.got.cif
#   From: 2010.05.17/outbox.cif.g08.bks.cpg/sg88_2_cif.got.tgz:3818.got - 2010.06.03 19:11:41.
