data_PCOD9546371
_publ_section_title
;
Structure prediction by ZEFSAII (Michael W. Deem and Ramdas Pophale) SiO2 
 PCOD9546371
Probable space group: I 41/A
;
_chemical_formula_sum "Si O2"
_cell_formula_units_Z 96
_cell_length_a 14.499275
_cell_length_b 14.499275
_cell_length_c 20.071337
_cell_angle_alpha 90.000000
_cell_angle_beta 90.000000
_cell_angle_gamma 90.000000
_cell_volume 4219.576615
_symmetry_space_group_name_H-M "I 41/A"
_symmetry_group_IT_number 88
_space_group.IT_coordinate_system_code '2'
_symmetry_cell_setting 'tetragonal'
loop_
_space_group_symop_operation_xyz
x,y,z
3/4-y,1/4+x,1/4+z
-x,1/2-y,z
1/4+y,1/4-x,1/4+z
-x,-y,-z
1/4+y,3/4-x,3/4-z
x,1/2+y,-z
3/4-y,3/4+x,3/4-z
1/2+x,1/2+y,1/2+z
1/4-y,3/4+x,3/4+z
1/2-x,-y,1/2+z
3/4+y,3/4-x,3/4+z
1/2-x,1/2-y,1/2-z
3/4+y,1/4-x,1/4-z
1/2+x,y,1/2-z
1/4-y,1/4+x,1/4-z
loop_
_atom_site_type_symbol
_atom_site_label
_atom_site_fract_x
_atom_site_fract_y
_atom_site_fract_z
Si Si1 0.231145 0.228451 0.980462
Si Si2 0.359555 0.859617 0.829729
Si Si3 0.454472 0.483138 0.915414
Si Si4 0.572437 0.605386 0.352672
Si Si5 0.218059 0.398541 0.785497
Si Si6 0.149985 0.542818 0.019240
O O1 0.175896 0.320947 0.961014
O O2 0.285130 0.200621 0.912646
O O3 0.152693 0.151646 0.994632
O O4 0.302387 0.222263 0.040666
O O5 0.397498 0.761442 0.854476
O O6 0.333122 0.908692 0.899053
O O7 0.270482 0.848242 0.783211
O O8 0.422392 0.592592 0.917485
O O9 0.558378 0.474537 0.941680
O O10 0.388128 0.427258 0.964988
O O11 0.617189 0.532776 0.404714
O O12 0.267466 0.492138 0.766459
#
# Coordination Sequence:
#
# PCOD9546371 Si02
#       6
#    16  16  16  16  16  16
#     4  10  22  39  62  97 133 176 230 283 341 415
#     4  11  24  40  65  99 134 182 232 276 344 418
#     4   9  21  38  64  92 129 167 220 285 346 411
#     4  11  22  42  63  96 140 181 228 288 344 408
#     4  10  20  38  63  96 123 166 222 275 343 412
#     4  11  22  39  68  94 132 181 226 280 349 415
#
# _framework density 22.751099
#
# number of rings (size 3 to 8) (size 9 to 14) (size 15 to 20)
#    0.000    1.667    1.667    2.500    2.333    6.000 
#    0.000    0.000    0.000    4.000    0.000   11.667 
#    0.000    0.000    0.000    0.000    0.000    0.000 
#
# Total GULP energy -267804.451438 kJ/mol
# GULP energy per Si atom -5579.259405 kJ/mol
# Density = 2.269932 g / cm^3
# Si number density = 22.751099 Si / 1000 Ang^3
#
#
#
# Elastic Constant Matrix: (Units=GPa)
#
#
# Indices 1 2 3 4 5 6 
#
# 1 66.5295 11.9908 31.1559 0.0000 0.0000 -7.9819
# 2 11.9908 66.5295 31.1559 0.0000 0.0000 7.9819
# 3 31.1559 31.1559 129.9813 0.0000 0.0000 0.0000
# 4 0.0000 0.0000 0.0000 39.2160 0.0000 0.0000
# 5 0.0000 0.0000 0.0000 0.0000 39.2160 0.0000
# 6 -7.9819 7.9819 0.0000 0.0000 0.0000 13.7086
#
#
#
# Elastic Compliance Matrix: (Units=1/GPa)
#
#
# Indices 1 2 3 4 5 6 
#
# 1 0.018915 -0.003188 -0.003770 0.000000 0.000000 0.012869
# 2 -0.003188 0.018915 -0.003770 0.000000 0.000000 -0.012869
# 3 -0.003770 -0.003770 0.009501 0.000000 0.000000 0.000000
# 4 0.000000 0.000000 0.000000 0.025500 0.000000 0.000000
# 5 0.000000 0.000000 0.000000 0.000000 0.025500 0.000000
# 6 0.012869 -0.012869 0.000000 0.000000 0.000000 0.087933
#
#
# Mechanical properties :
#
#
# Convention : Reuss Voigt Hill
#
# Bulk Modulus (GPa) = 38.64592 45.73840 42.19216
# Shear Modulus (GPa) = 23.11154 31.01065 27.06110
#
# Velocity S-wave (km/s) = 3.19069 3.69594 3.45257
# Velocity P-wave (km/s) = 5.53148 6.19361 5.87188
#
# Compressibility (1/GPa) = 0.02587595
#
# Stress axis : x y z
#
# Youngs Moduli (GPa) = 52.86866 52.86866 105.25663
#
# Poissons Ratio (x) = 0.16853 0.39679
# Poissons Ratio (y) = 0.16853 0.39679
# Poissons Ratio (z) = 0.19930 0.19930
#
# Static dielectric constant tensor:
#      x y z
#    x 1.898020 0.000000 0.000000 
#    y 0.000000 1.898020 0.000000 
#    z 0.000000 0.000000 1.871550 
# 
# From -- ./inp_files/4729.got.cif
#   From: 2010.05.17/outbox.cif.g08.bks.cpg/sg88_3_cif.got.tgz:4729.got - 2010.06.03 19:11:41.
