data_PCOD9546298
_publ_section_title
;
Structure prediction by ZEFSAII (Michael W. Deem and Ramdas Pophale) SiO2 
 PCOD9546298
Probable space group: I 41/A
;
_chemical_formula_sum "Si O2"
_cell_formula_units_Z 88
_cell_length_a 15.645216
_cell_length_b 15.645216
_cell_length_c 12.497408
_cell_angle_alpha 90.000000
_cell_angle_beta 90.000000
_cell_angle_gamma 90.000000
_cell_volume 3059.025345
_symmetry_space_group_name_H-M "I 41/A"
_symmetry_group_IT_number 88
_space_group.IT_coordinate_system_code '2'
_symmetry_cell_setting 'tetragonal'
loop_
_space_group_symop_operation_xyz
x,y,z
3/4-y,1/4+x,1/4+z
-x,1/2-y,z
1/4+y,1/4-x,1/4+z
-x,-y,-z
1/4+y,3/4-x,3/4-z
x,1/2+y,-z
3/4-y,3/4+x,3/4-z
1/2+x,1/2+y,1/2+z
1/4-y,3/4+x,3/4+z
1/2-x,-y,1/2+z
3/4+y,3/4-x,3/4+z
1/2-x,1/2-y,1/2-z
3/4+y,1/4-x,1/4-z
1/2+x,y,1/2-z
1/4-y,1/4+x,1/4-z
loop_
_atom_site_type_symbol
_atom_site_label
_atom_site_fract_x
_atom_site_fract_y
_atom_site_fract_z
Si Si1 0.430165 0.609460 0.324488
Si Si2 0.750834 0.507022 0.180754
Si Si3 0.657800 0.234766 0.616017
Si Si4 0.577071 0.409438 0.901305
Si Si5 0.872954 0.318233 0.110102
Si Si6 0.250000 0.250000 0.250000
O O1 0.343457 0.554419 0.307927
O O2 0.411792 0.690982 0.397165
O O3 0.450650 0.640550 0.204367
O O4 0.494928 0.549639 0.386312
O O5 0.725286 0.483800 0.305649
O O6 0.673295 0.572147 0.155226
O O7 0.636109 0.194146 0.728519
O O8 0.748859 0.280931 0.628785
O O9 0.652415 0.176290 0.513174
O O10 0.964764 0.365285 0.116700
O O11 0.804577 0.337060 0.202614
#
# Coordination Sequence:
#
# PCOD9546298 Si02
#       6
#    16  16  16  16  16   8
#     4  10  20  38  63  91 121 164 220 270 328 395
#     4   9  19  38  58  89 130 165 213 273 334 395
#     4  10  19  39  61  85 126 165 211 270 322 391
#     4   9  19  37  60  86 121 169 207 265 330 389
#     4  11  24  43  65 100 138 173 225 282 333 404
#     4  12  22  42  70  90 126 182 220 266 344 400
#
# _framework density 28.767332
#
# number of rings (size 3 to 8) (size 9 to 14) (size 15 to 20)
#    0.000    2.000    3.636    0.000    0.000    0.000 
#    9.818    0.000    0.000    0.000    0.000    0.000 
#    0.000    0.000    0.000    0.000    0.000    0.000 
#
# Total GULP energy -244995.900471 kJ/mol
# GULP energy per Si atom -5568.088647 kJ/mol
# Density = 2.870186 g / cm^3
# Si number density = 28.767332 Si / 1000 Ang^3
#
#
#
# Elastic Constant Matrix: (Units=GPa)
#
#
# Indices 1 2 3 4 5 6 
#
# 1 40.9492 -0.4523 44.8947 0.0000 0.0000 23.9304
# 2 -0.4523 40.9492 44.8947 0.0000 0.0000 -23.9304
# 3 44.8947 44.8947 289.7181 0.0000 0.0000 0.0000
# 4 0.0000 0.0000 0.0000 43.2492 0.0000 0.0000
# 5 0.0000 0.0000 0.0000 0.0000 43.2492 0.0000
# 6 23.9304 -23.9304 0.0000 0.0000 0.0000 40.0153
#
#
#
# Elastic Compliance Matrix: (Units=1/GPa)
#
#
# Indices 1 2 3 4 5 6 
#
# 1 0.057935 -0.020317 -0.005829 0.000000 0.000000 -0.046797
# 2 -0.020317 0.057935 -0.005829 0.000000 0.000000 0.046797
# 3 -0.005829 -0.005829 0.005258 0.000000 0.000000 0.000000
# 4 0.000000 0.000000 0.000000 0.023122 0.000000 0.000000
# 5 0.000000 0.000000 0.000000 0.000000 0.023122 0.000000
# 6 -0.046797 0.046797 0.000000 0.000000 0.000000 0.080963
#
#
# Mechanical properties :
#
#
# Convention : Reuss Voigt Hill
#
# Bulk Modulus (GPa) = 17.48959 61.14340 39.31650
# Shear Modulus (GPa) = 15.08999 44.12137 29.60568
#
# Velocity S-wave (km/s) = 2.29280 3.92054 3.21151
# Velocity P-wave (km/s) = 3.61968 6.46489 5.23912
#
# Compressibility (1/GPa) = 0.05717686
#
# Stress axis : x y z
#
# Youngs Moduli (GPa) = 17.26070 17.26070 190.17801
#
# Poissons Ratio (x) = 0.35069 1.10860
# Poissons Ratio (y) = 0.35069 1.10860
# Poissons Ratio (z) = 0.10062 0.10062
#
# Static dielectric constant tensor:
#      x y z
#    x 2.598490 0.000000 0.000000 
#    y 0.000000 2.598490 0.000000 
#    z 0.000000 0.000000 1.220850 
# 
# From -- ./inp_files/2572.got.cif
#   From: 2010.05.17/outbox.cif.g08.bks.cpg/sg88_2_cif.got.tgz:2572.got - 2010.06.03 19:11:41.
