data_PCOD9546896
_publ_section_title
;
Structure prediction by ZEFSAII (Michael W. Deem and Ramdas Pophale) SiO2 
 PCOD9546896
Probable space group: P 4 2 2
;
_chemical_formula_sum "Si O2"
_cell_formula_units_Z 44
_cell_length_a 15.301651
_cell_length_b 15.301651
_cell_length_c 11.213384
_cell_angle_alpha 90.000000
_cell_angle_beta 90.000000
_cell_angle_gamma 90.000000
_cell_volume 2625.507598
_symmetry_space_group_name_H-M "P 4 2 2"
_symmetry_group_IT_number 89
_symmetry_cell_setting 'tetragonal'
loop_
_space_group_symop_operation_xyz
x,y,z
-y,x,z
-x,-y,z
y,-x,z
x,-y,-z
-x,y,-z
y,x,-z
-y,-x,-z
loop_
_atom_site_type_symbol
_atom_site_label
_atom_site_fract_x
_atom_site_fract_y
_atom_site_fract_z
Si Si1 0.684870 0.663533 0.359115
Si Si2 0.917852 0.552069 0.627262
Si Si3 0.516528 0.738021 0.251778
Si Si4 0.174030 0.806159 0.645590
Si Si5 0.983447 0.752813 0.632690
Si Si6 0.500000 0.649143 0.000000
O O1 0.673242 0.673242 0.500000
O O2 0.591562 0.673868 0.298565
O O3 0.724833 0.571374 0.325954
O O4 0.749974 0.739808 0.317021
O O5 0.900261 0.500000 0.500000
O O6 0.834859 0.547877 0.712834
O O7 0.948395 0.653124 0.615157
O O8 0.000000 0.500000 0.679366
O O9 0.499969 0.710779 0.116062
O O10 0.185454 0.814547 0.500000
O O11 0.193416 0.904153 0.690530
O O12 0.080736 0.765817 0.683867
O O13 0.000000 0.789076 0.500000
O O14 0.415612 0.584389 0.000000
#
# Coordination Sequence:
#
# PCOD9546896 Si02
#       6
#     8   8   8   8   8   4
#     4  11  21  34  52  86 117 140 180 242 296 347
#     4  11  20  33  57  86 119 149 187 230 312 371
#     4  12  23  37  59  81 108 153 198 237 283 352
#     4   9  19  30  48  73 115 150 188 219 271 343
#     4  10  17  31  46  74 112 155 184 223 271 352
#     4  11  24  46  59  72 108 160 209 240 294 343
#
# _framework density 16.758664
#
# number of rings (size 3 to 8) (size 9 to 14) (size 15 to 20)
#    0.000    1.364    5.455    2.727    2.545    0.727 
#    0.000    3.182    0.000    0.000    0.000    0.000 
#    0.000    0.000    0.000    0.000    0.364    2.000 
#
# Total GULP energy -245064.775127 kJ/mol
# GULP energy per Si atom -5569.653980 kJ/mol
# Density = 1.672052 g / cm^3
# Si number density = 16.758664 Si / 1000 Ang^3
#
#
#
# Elastic Constant Matrix: (Units=GPa)
#
#
# Indices 1 2 3 4 5 6 
#
# 1 108.2579 29.0732 25.6793 0.0000 0.0000 0.0000
# 2 29.0732 108.2579 25.6794 0.0000 0.0000 0.0000
# 3 25.6793 25.6794 57.9587 0.0000 0.0000 0.0000
# 4 0.0000 0.0000 0.0000 5.7376 0.0000 0.0000
# 5 0.0000 0.0000 0.0000 0.0000 5.7375 0.0000
# 6 0.0000 0.0000 0.0000 0.0000 0.0000 21.2772
#
#
#
# Elastic Compliance Matrix: (Units=1/GPa)
#
#
# Indices 1 2 3 4 5 6 
#
# 1 0.010678 -0.001950 -0.003867 0.000000 0.000000 0.000000
# 2 -0.001950 0.010678 -0.003867 0.000000 0.000000 0.000000
# 3 -0.003867 -0.003867 0.020680 0.000000 0.000000 0.000000
# 4 0.000000 0.000000 0.000000 0.174288 0.000000 0.000000
# 5 0.000000 0.000000 0.000000 0.000000 0.174292 0.000000
# 6 0.000000 0.000000 0.000000 0.000000 0.000000 0.046999
#
#
# Mechanical properties :
#
#
# Convention : Reuss Voigt Hill
#
# Bulk Modulus (GPa) = 44.11497 48.37093 46.24295
# Shear Modulus (GPa) = 10.76333 19.48665 15.12499
#
# Velocity S-wave (km/s) = 2.53702 3.41366 3.00745
# Velocity P-wave (km/s) = 5.91294 6.66808 6.30183
#
# Compressibility (1/GPa) = 0.02266804
#
# Stress axis : x y z
#
# Youngs Moduli (GPa) = 93.64825 93.64811 48.35524
#
# Poissons Ratio (x) = 0.18265 0.18699
# Poissons Ratio (y) = 0.18266 0.18699
# Poissons Ratio (z) = 0.36213 0.36214
#
# Static dielectric constant tensor:
#      x y z
#    x 1.604450 0.000000 0.000000 
#    y 0.000000 1.604450 0.000000 
#    z 0.000000 0.000000 1.541390 
# 
# From -- ./inp_files/1743.got.cif
#   From: 2010.05.17/outbox.cif.g08.bks.cpg/sg89_1_cif.got.tgz:1743.got - 2010.06.03 19:15:31.
