data_PCOD9546910
_publ_section_title
;
Structure prediction by ZEFSAII (Michael W. Deem and Ramdas Pophale) SiO2 
 PCOD9546910
Probable space group: P 4 2 2
;
_chemical_formula_sum "Si O2"
_cell_formula_units_Z 48
_cell_length_a 18.599660
_cell_length_b 18.599660
_cell_length_c 7.320716
_cell_angle_alpha 90.000000
_cell_angle_beta 90.000000
_cell_angle_gamma 90.000000
_cell_volume 2532.582316
_symmetry_space_group_name_H-M "P 4 2 2"
_symmetry_group_IT_number 89
_symmetry_cell_setting 'tetragonal'
loop_
_space_group_symop_operation_xyz
x,y,z
-y,x,z
-x,-y,z
y,-x,z
x,-y,-z
-x,y,-z
y,x,-z
-y,-x,-z
loop_
_atom_site_type_symbol
_atom_site_label
_atom_site_fract_x
_atom_site_fract_y
_atom_site_fract_z
Si Si1 0.417399 0.922658 0.944296
Si Si2 0.651112 0.185388 0.222039
Si Si3 0.917118 0.080944 0.722369
Si Si4 0.813162 0.207760 0.281107
Si Si5 0.638779 0.150115 0.622790
Si Si6 0.295256 0.415431 0.477224
O O1 0.380899 0.858390 0.056612
O O2 0.500000 0.923020 0.000000
O O3 0.410734 0.904448 0.730924
O O4 0.385818 0.000000 0.000000
O O5 0.734158 0.205982 0.195175
O O6 0.648244 0.136112 0.406943
O O7 0.605550 0.255274 0.286262
O O8 0.917193 0.082808 0.500000
O O9 0.856952 0.136715 0.783382
O O10 0.998768 0.098547 0.777800
O O11 0.800779 0.199222 0.500000
O O12 0.850235 0.285011 0.274420
O O13 0.608338 0.232077 0.619800
O O14 0.309366 0.500000 0.500000
O O15 0.364303 0.364303 0.500000
#
# Coordination Sequence:
#
# PCOD9546910 Si02
#       6
#     8   8   8   8   8   8
#     4  11  24  37  52  80 112 145 190 235 278 326
#     4   9  19  37  57  79 109 145 183 230 274 329
#     4   8  14  23  39  69 106 139 174 220 269 311
#     4   9  15  31  54  77 105 138 183 224 260 322
#     4   9  19  37  57  79 109 145 183 230 274 329
#     4  10  18  35  59  85 115 145 181 227 285 351
#
# _framework density 18.952988000000001
#
# number of rings (size 3 to 8) (size 9 to 14) (size 15 to 20)
#    1.000    1.667    1.667    1.500    0.000    2.833 
#    0.000    5.000    0.000    0.000    0.000    0.000 
#    0.000    8.000    0.000    0.333    0.000    0.000 
#
# Total GULP energy -267314.106550 kJ/mol
# GULP energy per Si atom -5569.043886 kJ/mol
# Density = 1.890985 g / cm^3
# Si number density = 18.952988 Si / 1000 Ang^3
#
#
#
# Elastic Constant Matrix: (Units=GPa)
#
#
# Indices 1 2 3 4 5 6 
#
# 1 72.4683 20.7278 -0.2297 0.0000 0.0000 0.0000
# 2 20.7278 72.4679 -0.2298 0.0000 0.0000 0.0000
# 3 -0.2297 -0.2298 56.1860 0.0000 0.0000 0.0000
# 4 0.0000 0.0000 0.0000 3.5071 0.0000 0.0000
# 5 0.0000 0.0000 0.0000 0.0000 3.5070 0.0000
# 6 0.0000 0.0000 0.0000 0.0000 0.0000 21.4751
#
#
#
# Elastic Compliance Matrix: (Units=1/GPa)
#
#
# Indices 1 2 3 4 5 6 
#
# 1 0.015029 -0.004298 0.000044 0.000000 0.000000 0.000000
# 2 -0.004298 0.015029 0.000044 0.000000 0.000000 0.000000
# 3 0.000044 0.000044 0.017798 0.000000 0.000000 0.000000
# 4 0.000000 0.000000 0.000000 0.285135 0.000000 0.000000
# 5 0.000000 0.000000 0.000000 0.000000 0.285145 0.000000
# 6 0.000000 0.000000 0.000000 0.000000 0.000000 0.046566
#
#
# Mechanical properties :
#
#
# Convention : Reuss Voigt Hill
#
# Bulk Modulus (GPa) = 25.35851 26.85098 26.10474
# Shear Modulus (GPa) = 7.28579 17.75478 12.52028
#
# Velocity S-wave (km/s) = 1.96277 3.06401 2.57300
# Velocity P-wave (km/s) = 4.30643 5.16870 4.75714
#
# Compressibility (1/GPa) = 0.03943450
#
# Stress axis : x y z
#
# Youngs Moduli (GPa) = 66.53915 66.53879 56.18488
#
# Poissons Ratio (x) = 0.28602 -0.00246
# Poissons Ratio (y) = 0.28602 -0.00247
# Poissons Ratio (z) = -0.00292 -0.00292
#
# Static dielectric constant tensor:
#      x y z
#    x 1.658000 0.000000 0.000000 
#    y 0.000000 1.658000 0.000000 
#    z 0.000000 0.000000 1.705930 
# 
# From -- ./inp_files/1166.got.cif
#   From: 2010.05.17/outbox.cif.g08.bks.cpg/sg89_1_cif.got.tgz:1166.got - 2010.06.03 19:15:31.
