data_PCOD9546700
_publ_section_title
;
Structure prediction by ZEFSAII (Michael W. Deem and Ramdas Pophale) SiO2 
 PCOD9546700
Probable space group: I 41/A
;
_chemical_formula_sum "Si O2"
_cell_formula_units_Z 60
_cell_length_a 9.293976
_cell_length_b 9.293976
_cell_length_c 26.021033
_cell_angle_alpha 90.000000
_cell_angle_beta 90.000000
_cell_angle_gamma 90.000000
_cell_volume 2247.644525
_symmetry_space_group_name_H-M "I 41/A"
_symmetry_group_IT_number 88
_space_group.IT_coordinate_system_code '2'
_symmetry_cell_setting 'tetragonal'
loop_
_space_group_symop_operation_xyz
x,y,z
3/4-y,1/4+x,1/4+z
-x,1/2-y,z
1/4+y,1/4-x,1/4+z
-x,-y,-z
1/4+y,3/4-x,3/4-z
x,1/2+y,-z
3/4-y,3/4+x,3/4-z
1/2+x,1/2+y,1/2+z
1/4-y,3/4+x,3/4+z
1/2-x,-y,1/2+z
3/4+y,3/4-x,3/4+z
1/2-x,1/2-y,1/2-z
3/4+y,1/4-x,1/4-z
1/2+x,y,1/2-z
1/4-y,1/4+x,1/4-z
loop_
_atom_site_type_symbol
_atom_site_label
_atom_site_fract_x
_atom_site_fract_y
_atom_site_fract_z
Si Si1 0.000000 0.750000 0.189843
Si Si2 0.854563 0.581820 0.015693
Si Si3 0.277044 0.670473 0.627608
Si Si4 0.000000 0.250000 0.625000
Si Si5 0.816633 0.138267 0.530353
O O1 0.050358 0.879574 0.153027
O O2 0.102260 0.674290 0.232024
O O3 0.920474 0.589336 0.892152
O O4 0.816551 0.750380 0.019784
O O5 0.000000 0.500000 0.000000
O O6 0.830781 0.520886 0.072618
O O7 0.270449 0.008279 0.725285
O O8 0.889099 0.176208 0.584718
#
# Coordination Sequence:
#
# PCOD9546700 Si02
#       5
#     8  16  16   4  16
#     4  11  24  49  80 116 156 210 259 343 396 484
#     4  12  27  48  77 117 158 213 268 337 399 489
#     4  11  25  48  81 115 156 209 268 330 409 477
#     4  10  28  52  84 112 156 232 264 338 416 486
#     4  11  27  51  79 114 168 202 282 331 404 480
#
# _framework density 26.694610000000001
#
# number of rings (size 3 to 8) (size 9 to 14) (size 15 to 20)
#    0.000    0.800    2.667    2.400    7.467   10.667 
#    0.000    0.000    0.000    0.800    0.000    0.000 
#    0.000    0.000    0.000    0.000    0.000    0.000 
#
# Total GULP energy -167670.812109 kJ/mol
# GULP energy per Si atom -5589.027070 kJ/mol
# Density = 2.663385 g / cm^3
# Si number density = 26.694610 Si / 1000 Ang^3
#
#
#
# Elastic Constant Matrix: (Units=GPa)
#
#
# Indices 1 2 3 4 5 6 
#
# 1 139.3433 38.5778 72.7548 0.0000 0.0000 -2.9293
# 2 38.5778 139.3433 72.7548 0.0000 0.0000 2.9293
# 3 72.7548 72.7548 160.3914 0.0000 0.0000 0.0000
# 4 0.0000 0.0000 0.0000 25.7472 0.0000 0.0000
# 5 0.0000 0.0000 0.0000 0.0000 25.7472 0.0000
# 6 -2.9293 2.9293 0.0000 0.0000 0.0000 38.2621
#
#
#
# Elastic Compliance Matrix: (Units=1/GPa)
#
#
# Indices 1 2 3 4 5 6 
#
# 1 0.009452 -0.000517 -0.004053 0.000000 0.000000 0.000763
# 2 -0.000517 0.009452 -0.004053 0.000000 0.000000 -0.000763
# 3 -0.004053 -0.004053 0.009912 0.000000 0.000000 0.000000
# 4 0.000000 0.000000 0.000000 0.038839 0.000000 0.000000
# 5 0.000000 0.000000 0.000000 0.000000 0.038839 0.000000
# 6 0.000763 -0.000763 0.000000 0.000000 0.000000 0.026252
#
#
# Mechanical properties :
#
#
# Convention : Reuss Voigt Hill
#
# Bulk Modulus (GPa) = 86.43145 89.69474 88.06309
# Shear Modulus (GPa) = 32.49953 34.95066 33.72510
#
# Velocity S-wave (km/s) = 3.49299 3.62232 3.55824
# Velocity P-wave (km/s) = 6.97970 7.15319 7.06698
#
# Compressibility (1/GPa) = 0.01156986
#
# Stress axis : x y z
#
# Youngs Moduli (GPa) = 105.79993 105.79993 100.89022
#
# Poissons Ratio (x) = 0.05466 0.40892
# Poissons Ratio (y) = 0.05466 0.40892
# Poissons Ratio (z) = 0.42882 0.42882
#
# Static dielectric constant tensor:
#      x y z
#    x 2.225530 0.000000 0.000000 
#    y 0.000000 2.225530 0.000000 
#    z 0.000000 0.000000 2.047750 
# 
# From -- ./inp_files/4465.got.cif
#   From: 2010.05.17/outbox.cif.g08.bks.cpg/sg88_3_cif.got.tgz:4465.got - 2010.06.03 19:11:41.
