data_PCOD9546711
_publ_section_title
;
Structure prediction by ZEFSAII (Michael W. Deem and Ramdas Pophale) SiO2 
 PCOD9546711
Probable space group: I 41/A
;
_chemical_formula_sum "Si O2"
_cell_formula_units_Z 80
_cell_length_a 16.892871
_cell_length_b 16.892871
_cell_length_c 13.968244
_cell_angle_alpha 90.000000
_cell_angle_beta 90.000000
_cell_angle_gamma 90.000000
_cell_volume 3986.105088
_symmetry_space_group_name_H-M "I 41/A"
_symmetry_group_IT_number 88
_space_group.IT_coordinate_system_code '2'
_symmetry_cell_setting 'tetragonal'
loop_
_space_group_symop_operation_xyz
x,y,z
3/4-y,1/4+x,1/4+z
-x,1/2-y,z
1/4+y,1/4-x,1/4+z
-x,-y,-z
1/4+y,3/4-x,3/4-z
x,1/2+y,-z
3/4-y,3/4+x,3/4-z
1/2+x,1/2+y,1/2+z
1/4-y,3/4+x,3/4+z
1/2-x,-y,1/2+z
3/4+y,3/4-x,3/4+z
1/2-x,1/2-y,1/2-z
3/4+y,1/4-x,1/4-z
1/2+x,y,1/2-z
1/4-y,1/4+x,1/4-z
loop_
_atom_site_type_symbol
_atom_site_label
_atom_site_fract_x
_atom_site_fract_y
_atom_site_fract_z
Si Si1 0.705876 0.571972 0.286672
Si Si2 0.919466 0.422785 0.622486
Si Si3 0.561260 0.451215 0.563577
Si Si4 0.698321 0.435220 0.429649
Si Si5 0.464947 0.661099 0.264150
O O1 0.737712 0.648782 0.342217
O O2 0.650516 0.594618 0.198952
O O3 0.670103 0.508099 0.361302
O O4 0.777929 0.519654 0.243000
O O5 0.918494 0.374136 0.524178
O O6 0.994397 0.392771 0.681701
O O7 0.500000 0.500000 0.500000
O O8 0.625721 0.410148 0.495073
O O9 0.613186 0.515341 0.621701
O O10 0.527118 0.387106 0.637581
O O11 0.500000 0.750000 0.266938
#
# Coordination Sequence:
#
# PCOD9546711 Si02
#       5
#    16  16  16  16  16
#     4   9  19  35  66  90 115 152 212 261 299 367
#     4  11  20  38  58  90 123 163 203 255 312 369
#     4  11  23  42  65  89 125 165 208 260 314 378
#     4   9  19  40  63  91 118 152 208 262 305 366
#     4  12  24  41  57  86 135 164 200 260 317 376
#
# _framework density 20.069716
#
# number of rings (size 3 to 8) (size 9 to 14) (size 15 to 20)
#    0.000    1.600    4.000    1.200    0.000    0.800 
#    7.200    0.000    0.000    0.000    0.000    0.000 
#    0.000    0.000    0.000    0.000    0.000    0.000 
#
# Total GULP energy -223081.528999 kJ/mol
# GULP energy per Si atom -5577.038225 kJ/mol
# Density = 2.002404 g / cm^3
# Si number density = 20.069716 Si / 1000 Ang^3
#
#
#
# Elastic Constant Matrix: (Units=GPa)
#
#
# Indices 1 2 3 4 5 6 
#
# 1 12.8875 3.9008 4.3470 0.0000 0.0000 -0.7615
# 2 3.9008 12.8875 4.3470 0.0000 0.0000 0.7615
# 3 4.3470 4.3470 77.6346 0.0000 0.0000 0.0000
# 4 0.0000 0.0000 0.0000 42.5817 0.0000 0.0000
# 5 0.0000 0.0000 0.0000 0.0000 42.5817 0.0000
# 6 -0.7615 0.7615 0.0000 0.0000 0.0000 19.5734
#
#
#
# Elastic Compliance Matrix: (Units=1/GPa)
#
#
# Indices 1 2 3 4 5 6 
#
# 1 0.086679 -0.025335 -0.003435 0.000000 0.000000 0.004358
# 2 -0.025335 0.086679 -0.003435 0.000000 0.000000 -0.004358
# 3 -0.003435 -0.003435 0.013265 0.000000 0.000000 0.000000
# 4 0.000000 0.000000 0.000000 0.023484 0.000000 0.000000
# 5 0.000000 0.000000 0.000000 0.000000 0.023484 0.000000
# 6 0.004358 -0.004358 0.000000 0.000000 0.000000 0.051429
#
#
# Mechanical properties :
#
#
# Convention : Reuss Voigt Hill
#
# Bulk Modulus (GPa) = 8.18237 14.28880 11.23558
# Shear Modulus (GPa) = 12.81502 27.00167 19.90835
#
# Velocity S-wave (km/s) = 2.52965 3.67194 3.15296
# Velocity P-wave (km/s) = 3.55218 5.01124 4.34342
#
# Compressibility (1/GPa) = 0.12221404
#
# Stress axis : x y z
#
# Youngs Moduli (GPa) = 11.53686 11.53686 75.38352
#
# Poissons Ratio (x) = 0.29228 0.25893
# Poissons Ratio (y) = 0.29228 0.25893
# Poissons Ratio (z) = 0.03963 0.03963
#
# Static dielectric constant tensor:
#      x y z
#    x 1.731710 0.000000 0.000000 
#    y 0.000000 1.731710 0.000000 
#    z 0.000000 0.000000 1.748880 
# 
# From -- ./inp_files/3133.got.cif
#   From: 2010.05.17/outbox.cif.g08.bks.cpg/sg88_2_cif.got.tgz:3133.got - 2010.06.03 19:11:41.
