data_PCOD9546796
_publ_section_title
;
Structure prediction by ZEFSAII (Michael W. Deem and Ramdas Pophale) SiO2 
 PCOD9546796
Probable space group: I 41/A
;
_chemical_formula_sum "Si O2"
_cell_formula_units_Z 64
_cell_length_a 12.408353
_cell_length_b 12.408353
_cell_length_c 15.911791
_cell_angle_alpha 90.000000
_cell_angle_beta 90.000000
_cell_angle_gamma 90.000000
_cell_volume 2449.894292
_symmetry_space_group_name_H-M "I 41/A"
_symmetry_group_IT_number 88
_space_group.IT_coordinate_system_code '2'
_symmetry_cell_setting 'tetragonal'
loop_
_space_group_symop_operation_xyz
x,y,z
3/4-y,1/4+x,1/4+z
-x,1/2-y,z
1/4+y,1/4-x,1/4+z
-x,-y,-z
1/4+y,3/4-x,3/4-z
x,1/2+y,-z
3/4-y,3/4+x,3/4-z
1/2+x,1/2+y,1/2+z
1/4-y,3/4+x,3/4+z
1/2-x,-y,1/2+z
3/4+y,3/4-x,3/4+z
1/2-x,1/2-y,1/2-z
3/4+y,1/4-x,1/4-z
1/2+x,y,1/2-z
1/4-y,1/4+x,1/4-z
loop_
_atom_site_type_symbol
_atom_site_label
_atom_site_fract_x
_atom_site_fract_y
_atom_site_fract_z
Si Si1 0.581933 0.987424 0.423672
Si Si2 0.857165 0.294520 0.671908
Si Si3 0.124893 0.759315 0.113950
Si Si4 0.093334 0.997577 0.779913
O O1 0.686104 0.063560 0.419898
O O2 0.500000 0.000000 0.500000
O O3 0.622050 0.867867 0.438987
O O4 0.511653 0.997583 0.338616
O O5 0.903326 0.171642 0.660148
O O6 0.728505 0.285347 0.670355
O O7 0.882954 0.382588 0.744484
O O8 0.000000 0.750000 0.142124
O O9 0.168856 0.669277 0.050914
#
# Coordination Sequence:
#
# PCOD9546796 Si02
#       4
#    16  16  16  16
#     4  12  26  45  73 108 154 207 269 328 401 495
#     4   9  22  49  79 113 163 206 269 334 409 500
#     4  11  24  46  74 113 156 201 268 329 409 491
#     4  11  26  46  77 111 159 216 259 341 408 485
#
# _framework density 26.123578999999999
#
# number of rings (size 3 to 8) (size 9 to 14) (size 15 to 20)
#    0.000    1.250    2.500    1.500    7.000    0.000 
#    9.000    2.500    0.000    0.000    0.000    0.000 
#    0.000    0.000    0.000    0.000    0.000    0.000 
#
# Total GULP energy -178621.329836 kJ/mol
# GULP energy per Si atom -5581.916557 kJ/mol
# Density = 2.606412 g / cm^3
# Si number density = 26.123579 Si / 1000 Ang^3
#
#
#
# Elastic Constant Matrix: (Units=GPa)
#
#
# Indices 1 2 3 4 5 6 
#
# 1 177.5135 74.9449 60.1664 0.0000 0.0000 4.1075
# 2 74.9449 177.5135 60.1664 0.0000 0.0000 -4.1075
# 3 60.1664 60.1664 110.5554 0.0000 0.0000 0.0000
# 4 0.0000 0.0000 0.0000 42.9967 0.0000 0.0000
# 5 0.0000 0.0000 0.0000 0.0000 42.9967 0.0000
# 6 4.1075 -4.1075 0.0000 0.0000 0.0000 34.9056
#
#
#
# Elastic Compliance Matrix: (Units=1/GPa)
#
#
# Indices 1 2 3 4 5 6 
#
# 1 0.007595 -0.002247 -0.002911 0.000000 0.000000 -0.001158
# 2 -0.002247 0.007595 -0.002911 0.000000 0.000000 0.001158
# 3 -0.002911 -0.002911 0.012213 0.000000 0.000000 0.000000
# 4 0.000000 0.000000 0.000000 0.023258 0.000000 0.000000
# 5 0.000000 0.000000 0.000000 0.000000 0.023258 0.000000
# 6 -0.001158 0.001158 0.000000 0.000000 0.000000 0.028921
#
#
# Mechanical properties :
#
#
# Convention : Reuss Voigt Hill
#
# Bulk Modulus (GPa) = 88.75196 95.12643 91.93919
# Shear Modulus (GPa) = 40.73878 42.20011 41.46945
#
# Velocity S-wave (km/s) = 3.95329 4.02357 3.98858
# Velocity P-wave (km/s) = 7.40848 7.62093 7.51546
#
# Compressibility (1/GPa) = 0.01126736
#
# Stress axis : x y z
#
# Youngs Moduli (GPa) = 131.65892 131.65892 81.87747
#
# Poissons Ratio (x) = 0.29583 0.23832
# Poissons Ratio (y) = 0.29583 0.23832
# Poissons Ratio (z) = 0.38322 0.38322
#
# Static dielectric constant tensor:
#      x y z
#    x 1.940380 0.000000 0.000000 
#    y 0.000000 1.940380 0.000000 
#    z 0.000000 0.000000 2.819230 
# 
# From -- ./inp_files/4419.got.cif
#   From: 2010.05.17/outbox.cif.g08.bks.cpg/sg88_3_cif.got.tgz:4419.got - 2010.06.03 19:11:41.
