data_PCOD9546481
_publ_section_title
;
Structure prediction by ZEFSAII (Michael W. Deem and Ramdas Pophale) SiO2 
 PCOD9546481
Probable space group: I 41/A
;
_chemical_formula_sum "Si O2"
_cell_formula_units_Z 116
_cell_length_a 17.164187
_cell_length_b 17.164187
_cell_length_c 17.591781
_cell_angle_alpha 90.000000
_cell_angle_beta 90.000000
_cell_angle_gamma 90.000000
_cell_volume 5182.702557
_symmetry_space_group_name_H-M "I 41/A"
_symmetry_group_IT_number 88
_space_group.IT_coordinate_system_code '2'
_symmetry_cell_setting 'tetragonal'
loop_
_space_group_symop_operation_xyz
x,y,z
3/4-y,1/4+x,1/4+z
-x,1/2-y,z
1/4+y,1/4-x,1/4+z
-x,-y,-z
1/4+y,3/4-x,3/4-z
x,1/2+y,-z
3/4-y,3/4+x,3/4-z
1/2+x,1/2+y,1/2+z
1/4-y,3/4+x,3/4+z
1/2-x,-y,1/2+z
3/4+y,3/4-x,3/4+z
1/2-x,1/2-y,1/2-z
3/4+y,1/4-x,1/4-z
1/2+x,y,1/2-z
1/4-y,1/4+x,1/4-z
loop_
_atom_site_type_symbol
_atom_site_label
_atom_site_fract_x
_atom_site_fract_y
_atom_site_fract_z
Si Si1 0.143338 0.240761 0.193148
Si Si2 0.530620 0.623759 0.729478
Si Si3 0.903631 0.387730 0.615841
Si Si4 0.633217 0.511238 0.485600
Si Si5 0.363378 0.971222 0.828269
Si Si6 0.331896 0.226004 0.711220
Si Si7 0.907086 0.064626 0.342496
Si Si8 0.500000 0.750000 0.125000
O O1 0.120193 0.265007 0.109211
O O2 0.075916 0.204521 0.246677
O O3 0.189850 0.313255 0.226631
O O4 0.197726 0.164389 0.187590
O O5 0.583785 0.550286 0.754920
O O6 0.452291 0.605808 0.773988
O O7 0.810573 0.386647 0.604921
O O8 0.936962 0.374060 0.530858
O O9 0.925645 0.472728 0.648026
O O10 0.946769 0.319430 0.661781
O O11 0.686323 0.469388 0.550004
O O12 0.678686 0.566955 0.427957
O O13 0.409278 0.927674 0.896609
O O14 0.250000 0.250000 0.750000
O O15 0.354862 0.305282 0.667136
#
# Coordination Sequence:
#
# PCOD9546481 Si02
#       8
#    16  16  16  16  16  16  16   4
#     4  10  22  40  64  94 136 172 220 278 338 414
#     4  10  21  40  62  90 129 177 217 267 346 422
#     4  11  24  42  69  93 136 181 230 295 348 417
#     4  10  23  41  62 102 132 168 225 287 339 415
#     4  10  23  41  68  97 136 175 226 288 352 417
#     4   9  20  42  62  94 131 177 225 276 350 414
#     4  10  22  41  63  96 134 175 231 280 342 414
#     4  12  24  48  64 100 132 176 236 286 352 412
#
# _framework density 22.382145999999999
#
# number of rings (size 3 to 8) (size 9 to 14) (size 15 to 20)
#    0.000    1.931    0.000    3.310    3.862    4.138 
#    7.448    0.000    0.000    0.000    0.000    0.000 
#    0.000    0.000    0.000    0.000    0.000    0.000 
#
# Total GULP energy -323096.229051 kJ/mol
# GULP energy per Si atom -5570.624639 kJ/mol
# Density = 2.233120 g / cm^3
# Si number density = 22.382146 Si / 1000 Ang^3
#
#
#
# Elastic Constant Matrix: (Units=GPa)
#
#
# Indices 1 2 3 4 5 6 
#
# 1 112.0383 50.4005 21.4236 0.0000 0.0000 -2.3184
# 2 50.4005 112.0383 21.4236 0.0000 0.0000 2.3184
# 3 21.4236 21.4236 63.4074 0.0000 0.0000 0.0000
# 4 0.0000 0.0000 0.0000 24.7277 0.0000 0.0000
# 5 0.0000 0.0000 0.0000 0.0000 24.7277 0.0000
# 6 -2.3184 2.3184 0.0000 0.0000 0.0000 42.4469
#
#
#
# Elastic Compliance Matrix: (Units=1/GPa)
#
#
# Indices 1 2 3 4 5 6 
#
# 1 0.011525 -0.004766 -0.002284 0.000000 0.000000 0.000890
# 2 -0.004766 0.011525 -0.002284 0.000000 0.000000 -0.000890
# 3 -0.002284 -0.002284 0.017314 0.000000 0.000000 0.000000
# 4 0.000000 0.000000 0.000000 0.040440 0.000000 0.000000
# 5 0.000000 0.000000 0.000000 0.000000 0.040440 0.000000
# 6 0.000890 -0.000890 0.000000 0.000000 0.000000 0.023656
#
#
# Mechanical properties :
#
#
# Convention : Reuss Voigt Hill
#
# Bulk Modulus (GPa) = 46.08919 52.66436 49.37677
# Shear Modulus (GPa) = 29.27419 31.32955 30.30187
#
# Velocity S-wave (km/s) = 3.62045 3.74539 3.68345
# Velocity P-wave (km/s) = 6.17361 6.50266 6.34027
#
# Compressibility (1/GPa) = 0.02169706
#
# Stress axis : x y z
#
# Youngs Moduli (GPa) = 86.77073 86.77073 57.75638
#
# Poissons Ratio (x) = 0.41356 0.13189
# Poissons Ratio (y) = 0.41356 0.13189
# Poissons Ratio (z) = 0.19814 0.19814
#
# Static dielectric constant tensor:
#      x y z
#    x 1.927720 0.000000 0.000000 
#    y 0.000000 1.927720 0.000000 
#    z 0.000000 0.000000 1.831450 
# 
# From -- ./inp_files/4033.got.cif
#   From: 2010.05.17/outbox.cif.g08.bks.cpg/sg88_3_cif.got.tgz:4033.got - 2010.06.03 19:11:41.
