data_PCOD9546496
_publ_section_title
;
Structure prediction by ZEFSAII (Michael W. Deem and Ramdas Pophale) SiO2 
 PCOD9546496
Probable space group: I 41/A
;
_chemical_formula_sum "Si O2"
_cell_formula_units_Z 52
_cell_length_a 20.347738
_cell_length_b 20.347738
_cell_length_c 4.875042
_cell_angle_alpha 90.000000
_cell_angle_beta 90.000000
_cell_angle_gamma 90.000000
_cell_volume 2018.415793
_symmetry_space_group_name_H-M "I 41/A"
_symmetry_group_IT_number 88
_space_group.IT_coordinate_system_code '2'
_symmetry_cell_setting 'tetragonal'
loop_
_space_group_symop_operation_xyz
x,y,z
3/4-y,1/4+x,1/4+z
-x,1/2-y,z
1/4+y,1/4-x,1/4+z
-x,-y,-z
1/4+y,3/4-x,3/4-z
x,1/2+y,-z
3/4-y,3/4+x,3/4-z
1/2+x,1/2+y,1/2+z
1/4-y,3/4+x,3/4+z
1/2-x,-y,1/2+z
3/4+y,3/4-x,3/4+z
1/2-x,1/2-y,1/2-z
3/4+y,1/4-x,1/4-z
1/2+x,y,1/2-z
1/4-y,1/4+x,1/4-z
loop_
_atom_site_type_symbol
_atom_site_label
_atom_site_fract_x
_atom_site_fract_y
_atom_site_fract_z
Si Si1 0.000000 0.250000 0.125000
Si Si2 0.792477 0.909369 0.672425
Si Si3 0.444446 0.960602 0.336074
Si Si4 0.429004 0.372310 0.151010
O O1 0.033065 0.195077 0.317306
O O2 0.729405 0.926105 0.492569
O O3 0.760143 0.867712 0.920503
O O4 0.852978 0.866948 0.556965
O O5 0.426753 0.900789 0.540457
O O6 0.500000 0.000000 0.500000
O O7 0.460619 0.926869 0.048390
#
# Coordination Sequence:
#
# PCOD9546496 Si02
#       4
#     4  16  16  16
#     4  12  28  50  72 106 156 206 268 326 384 474
#     4  10  21  41  72 107 144 186 244 316 389 463
#     4  11  24  44  69 103 144 192 250 311 384 466
#     4  11  26  43  70 103 142 197 248 312 387 456
#
# _framework density 25.762778000000001
#
# number of rings (size 3 to 8) (size 9 to 14) (size 15 to 20)
#    0.000    1.231    0.000    4.615    0.000   13.538 
#    0.000    0.000    0.000    0.000    0.000    0.000 
#    0.000    0.000    0.000    0.000    0.000    0.000 
#
# Total GULP energy -145509.583628 kJ/mol
# GULP energy per Si atom -5596.522447 kJ/mol
# Density = 2.570414 g / cm^3
# Si number density = 25.762778 Si / 1000 Ang^3
#
#
#
# Elastic Constant Matrix: (Units=GPa)
#
#
# Indices 1 2 3 4 5 6 
#
# 1 157.7118 86.9435 44.7058 0.0000 0.0000 1.8714
# 2 86.9435 157.7118 44.7058 0.0000 0.0000 -1.8714
# 3 44.7058 44.7058 112.3090 0.0000 0.0000 0.0000
# 4 0.0000 0.0000 0.0000 26.3417 0.0000 0.0000
# 5 0.0000 0.0000 0.0000 0.0000 26.3417 0.0000
# 6 1.8714 -1.8714 0.0000 0.0000 0.0000 64.9060
#
#
#
# Elastic Compliance Matrix: (Units=1/GPa)
#
#
# Indices 1 2 3 4 5 6 
#
# 1 0.009468 -0.004684 -0.001904 0.000000 0.000000 -0.000408
# 2 -0.004684 0.009468 -0.001904 0.000000 0.000000 0.000408
# 3 -0.001904 -0.001904 0.010420 0.000000 0.000000 0.000000
# 4 0.000000 0.000000 0.000000 0.037963 0.000000 0.000000
# 5 0.000000 0.000000 0.000000 0.000000 0.037963 0.000000
# 6 -0.000408 0.000408 0.000000 0.000000 0.000000 0.015430
#
#
# Mechanical properties :
#
#
# Convention : Reuss Voigt Hill
#
# Bulk Modulus (GPa) = 80.83926 86.71586 83.77756
# Shear Modulus (GPa) = 35.25611 40.27637 37.76624
#
# Velocity S-wave (km/s) = 3.70332 3.95822 3.83289
# Velocity P-wave (km/s) = 7.05213 7.39070 7.22340
#
# Compressibility (1/GPa) = 0.01237023
#
# Stress axis : x y z
#
# Youngs Moduli (GPa) = 105.62211 105.62211 95.97084
#
# Poissons Ratio (x) = 0.49479 0.18273
# Poissons Ratio (y) = 0.49479 0.18273
# Poissons Ratio (z) = 0.20111 0.20111
#
# Static dielectric constant tensor:
#      x y z
#    x 2.104300 0.000000 0.000000 
#    y 0.000000 2.104300 0.000000 
#    z 0.000000 0.000000 1.998830 
# 
# From -- ./inp_files/400.got.cif
#   From: 2010.05.17/outbox.cif.g08.bks.cpg/sg88_1_cif.got.tgz:400.got - 2010.06.03 19:11:41.
