data_PCOD9546781
_publ_section_title
;
Structure prediction by ZEFSAII (Michael W. Deem and Ramdas Pophale) SiO2 
 PCOD9546781
Probable space group: I 41/A
;
_chemical_formula_sum "Si O2"
_cell_formula_units_Z 48
_cell_length_a 16.447246
_cell_length_b 16.447246
_cell_length_c 7.081122
_cell_angle_alpha 90.000000
_cell_angle_beta 90.000000
_cell_angle_gamma 90.000000
_cell_volume 1915.527773
_symmetry_space_group_name_H-M "I 41/A"
_symmetry_group_IT_number 88
_space_group.IT_coordinate_system_code '2'
_symmetry_cell_setting 'tetragonal'
loop_
_space_group_symop_operation_xyz
x,y,z
3/4-y,1/4+x,1/4+z
-x,1/2-y,z
1/4+y,1/4-x,1/4+z
-x,-y,-z
1/4+y,3/4-x,3/4-z
x,1/2+y,-z
3/4-y,3/4+x,3/4-z
1/2+x,1/2+y,1/2+z
1/4-y,3/4+x,3/4+z
1/2-x,-y,1/2+z
3/4+y,3/4-x,3/4+z
1/2-x,1/2-y,1/2-z
3/4+y,1/4-x,1/4-z
1/2+x,y,1/2-z
1/4-y,1/4+x,1/4-z
loop_
_atom_site_type_symbol
_atom_site_label
_atom_site_fract_x
_atom_site_fract_y
_atom_site_fract_z
Si Si1 0.623862 0.760938 0.582555
Si Si2 0.378932 0.803226 0.173175
Si Si3 0.138248 0.999899 0.154626
O O1 0.577951 0.696238 0.713411
O O2 0.645535 0.714921 0.389890
O O3 0.697116 0.812115 0.665529
O O4 0.463804 0.852251 0.161792
O O5 0.310382 0.852996 0.063956
O O6 0.186620 0.950191 0.999217
#
# Coordination Sequence:
#
# PCOD9546781 Si02
#       3
#    16  16  16
#     4  11  25  46  73 108 137 190 244 293 348 430
#     4  11  23  47  74 100 139 192 244 287 354 431
#     4  12  29  47  71 109 149 191 231 305 368 416
#
# _framework density 25.05837
#
# number of rings (size 3 to 8) (size 9 to 14) (size 15 to 20)
#    0.000    0.667    3.333    5.000    4.667    1.333 
#    0.000    0.000    0.000    0.000    0.000    0.000 
#    0.000    0.000    0.000    0.000    0.000    0.000 
#
# Total GULP energy -134596.642079 kJ/mol
# GULP energy per Si atom -5608.193420 kJ/mol
# Density = 2.500134 g / cm^3
# Si number density = 25.058370 Si / 1000 Ang^3
#
#
#
# Elastic Constant Matrix: (Units=GPa)
#
#
# Indices 1 2 3 4 5 6 
#
# 1 58.8936 54.7970 16.4136 0.0000 0.0000 17.9327
# 2 54.7970 58.8936 16.4136 0.0000 0.0000 -17.9327
# 3 16.4136 16.4136 51.2095 0.0000 0.0000 0.0000
# 4 0.0000 0.0000 0.0000 49.4004 0.0000 0.0000
# 5 0.0000 0.0000 0.0000 0.0000 49.4004 0.0000
# 6 17.9327 -17.9327 0.0000 0.0000 0.0000 68.3055
#
#
#
# Elastic Compliance Matrix: (Units=1/GPa)
#
#
# Indices 1 2 3 4 5 6 
#
# 1 -0.089151 0.098843 -0.003107 0.000000 0.000000 0.049355
# 2 0.098843 -0.089151 -0.003107 0.000000 0.000000 -0.049355
# 3 -0.003107 -0.003107 0.021519 0.000000 0.000000 0.000000
# 4 0.000000 0.000000 0.000000 0.020243 0.000000 0.000000
# 5 0.000000 0.000000 0.000000 0.000000 0.020243 0.000000
# 6 0.049355 -0.049355 0.000000 0.000000 0.000000 -0.011275
#
#
# Mechanical properties :
#
#
# Convention : Reuss Voigt Hill
#
# Bulk Modulus (GPa) = 35.11495 38.24946 36.68221
# Shear Modulus (GPa) = -16.48323 38.84609 11.18143
#
# Velocity S-wave (km/s) = -2.56753 3.94156 2.11467
# Velocity P-wave (km/s) = 2.29218 6.00098 4.54235
#
# Compressibility (1/GPa) = 0.02847790
#
# Stress axis : x y z
#
# Youngs Moduli (GPa) = -11.21698 -11.21698 46.47023
#
# Poissons Ratio (x) = 1.10872 0.14437
# Poissons Ratio (y) = 1.10872 0.14437
# Poissons Ratio (z) = -0.03485 -0.03485
#
# Static dielectric constant tensor:
#      x y z
#    x 1.976430 0.000000 0.000000 
#    y 0.000000 1.976430 0.000000 
#    z 0.000000 0.000000 1.960320 
# 
# From -- ./inp_files/1138.got.cif
#   From: 2010.05.17/outbox.cif.g08.bks.cpg/sg88_1_cif.got.tgz:1138.got - 2010.06.03 19:11:41.
