data_PCOD9546135
_publ_section_title
;
Structure prediction by ZEFSAII (Michael W. Deem and Ramdas Pophale) SiO2 
 PCOD9546135
Probable space group: I 4/M
;
_chemical_formula_sum "Si O2"
_cell_formula_units_Z 60
_cell_length_a 11.960099
_cell_length_b 11.960099
_cell_length_c 22.531034
_cell_angle_alpha 90.000000
_cell_angle_beta 90.000000
_cell_angle_gamma 90.000000
_cell_volume 3222.928509
_symmetry_space_group_name_H-M "I 4/M"
_symmetry_group_IT_number 87
_symmetry_cell_setting 'tetragonal'
loop_
_space_group_symop_operation_xyz
x,y,z
-y,x,z
-x,-y,z
y,-x,z
-x,-y,-z
y,-x,-z
x,y,-z
-y,x,-z
1/2+x,1/2+y,1/2+z
1/2-y,1/2+x,1/2+z
1/2-x,1/2-y,1/2+z
1/2+y,1/2-x,1/2+z
1/2-x,1/2-y,1/2-z
1/2+y,1/2-x,1/2-z
1/2+x,1/2+y,1/2-z
1/2-y,1/2+x,1/2-z
loop_
_atom_site_type_symbol
_atom_site_label
_atom_site_fract_x
_atom_site_fract_y
_atom_site_fract_z
Si Si1 0.888503 0.283796 0.192449
Si Si2 0.671756 0.419366 0.500000
Si Si3 0.255961 0.013203 0.320904
Si Si4 0.000000 0.000000 0.345906
Si Si5 0.376243 0.215457 0.374646
O O1 0.919727 0.246238 0.258829
O O2 0.831404 0.405037 0.192650
O O3 0.805338 0.196257 0.162099
O O4 0.002095 0.289819 0.154988
O O5 0.643233 0.551786 0.500000
O O6 0.740531 0.387790 0.441399
O O7 0.316796 0.095977 0.366832
O O8 0.135387 0.974478 0.342920
#
# Coordination Sequence:
#
# PCOD9546135 Si02
#       5
#    16   8  16   4  16
#     4  12  24  41  67  99 139 176 220 278 346 398
#     4  11  24  46  67  96 137 179 228 281 330 398
#     4  12  24  44  64 101 141 177 220 279 340 409
#     4  12  24  40  68  89 136 181 216 264 340 406
#     4  12  24  42  70 100 133 178 225 278 337 402
#
# _framework density 18.616609
#
# number of rings (size 3 to 8) (size 9 to 14) (size 15 to 20)
#    0.000    0.133    8.000    3.200    0.000    0.533 
#    0.000    4.000    0.000    0.800    0.000    0.000 
#    0.000    0.000    0.000    0.000    0.000    0.000 
#
# Total GULP energy -167377.475591 kJ/mol
# GULP energy per Si atom -5579.249186 kJ/mol
# Density = 1.857424 g / cm^3
# Si number density = 18.616609 Si / 1000 Ang^3
#
#
#
# Elastic Constant Matrix: (Units=GPa)
#
#
# Indices 1 2 3 4 5 6 
#
# 1 83.5197 -10.8715 6.1081 0.0000 0.0000 -1.0729
# 2 -10.8715 83.5197 6.1081 0.0000 0.0000 1.0729
# 3 6.1081 6.1081 82.0552 0.0000 0.0000 0.0000
# 4 0.0000 0.0000 0.0000 24.0471 0.0000 0.0000
# 5 0.0000 0.0000 0.0000 0.0000 24.0471 0.0000
# 6 -1.0729 1.0729 0.0000 0.0000 0.0000 45.9136
#
#
#
# Elastic Compliance Matrix: (Units=1/GPa)
#
#
# Indices 1 2 3 4 5 6 
#
# 1 0.012270 0.001670 -0.001038 0.000000 0.000000 0.000248
# 2 0.001670 0.012270 -0.001038 0.000000 0.000000 -0.000248
# 3 -0.001038 -0.001038 0.012341 0.000000 0.000000 0.000000
# 4 0.000000 0.000000 0.000000 0.041585 0.000000 0.000000
# 5 0.000000 0.000000 0.000000 0.000000 0.041585 0.000000
# 6 0.000248 -0.000248 0.000000 0.000000 0.000000 0.021792
#
#
# Mechanical properties :
#
#
# Convention : Reuss Voigt Hill
#
# Bulk Modulus (GPa) = 27.72407 27.97601 27.85004
# Shear Modulus (GPa) = 32.32550 35.31821 33.82186
#
# Velocity S-wave (km/s) = 4.17151 4.36034 4.26697
# Velocity P-wave (km/s) = 6.17466 6.35689 6.26644
#
# Compressibility (1/GPa) = 0.03606975
#
# Stress axis : x y z
#
# Youngs Moduli (GPa) = 81.50190 81.50190 81.02807
#
# Poissons Ratio (x) = -0.13609 0.08408
# Poissons Ratio (y) = -0.13609 0.08408
# Poissons Ratio (z) = 0.08457 0.08457
#
# Static dielectric constant tensor:
#      x y z
#    x 1.632850 0.000000 0.000000 
#    y 0.000000 1.632850 0.000000 
#    z 0.000000 0.000000 1.620730 
# 
# From -- ./inp_files/4990.got.cif
#   From: 2010.05.17/outbox.cif.g08.bks.cpg/sg87_3_cif.got.tgz:4990.got - 2010.06.03 19:07:00.
